GTQ.pdb
     RDKit          3D

 21 20  0  0  1  0  0  0  0  0999 V2000
    7.7624  -17.2197   16.2229 N   0  0  0  0  0  0  0  0  0  0  0  0
    7.2878  -17.2700   17.5930 C   0  0  0  0  0  0  0  0  0  0  0  0
    8.2590  -16.5155   18.4264 C   0  0  0  0  0  0  0  0  0  0  0  0
    9.3982  -16.1995   18.0046 O   0  0  0  0  0  0  0  0  0  0  0  0
    7.0203  -13.4261   20.5413 C   0  0  0  0  0  0  0  0  0  0  0  0
    7.8572  -14.3423   21.3581 C   0  0  1  0  0  0  0  0  0  0  0  0
    6.9963  -15.2002   22.0581 O   0  0  0  0  0  0  0  0  0  0  0  0
    8.7645  -15.2257   20.5333 C   0  0  2  0  0  0  0  0  0  0  0  0
    7.9303  -16.1174   19.7514 N   0  0  0  0  0  0  0  0  0  0  0  0
    9.6299  -16.0744   21.3916 C   0  0  0  0  0  0  0  0  0  0  0  0
    9.2953  -17.2553   21.7281 O   0  0  0  0  0  0  0  0  0  0  0  0
   16.6171  -16.9851   23.8945 N   0  0  0  0  0  0  0  0  0  0  0  0
   15.4695  -16.3188   23.3738 C   0  0  0  0  0  0  0  0  0  0  0  0
   15.6853  -15.1916   22.8334 O   0  0  0  0  0  0  0  0  0  0  0  0
   14.1091  -16.9154   23.4634 C   0  0  0  0  0  0  0  0  0  0  0  0
   13.1790  -16.0275   22.6894 C   0  0  0  0  0  0  0  0  0  0  0  0
   11.7510  -16.4993   22.6801 C   0  0  2  0  0  0  0  0  0  0  0  0
   10.8878  -15.6357   21.8985 N   0  0  0  0  0  0  0  0  0  0  0  0
   11.1962  -16.7222   24.0176 C   0  0  0  0  0  0  0  0  0  0  0  0
   11.3290  -17.8132   24.6028 O   0  0  0  0  0  0  0  0  0  0  0  0
   10.5087  -15.7198   24.6635 O   0  0  0  0  0  0  0  0  0  0  0  0
  1  2  1  0
  2  3  1  0
  3  4  2  0
  6  5  1  6
  6  8  1  0
  7  6  1  0
  8 10  1  0
  8  9  1  6
  9  3  1  0
 10 11  2  0
 10 18  1  0
 12 13  1  0
 13 14  2  0
 13 15  1  0
 15 16  1  0
 17 16  1  1
 17 19  1  0
 18 17  1  0
 19 20  2  0
 19 21  1  0
M  END
$$$$
