GTQ.pdb
     RDKit          3D

 21 20  0  0  1  0  0  0  0  0999 V2000
    3.4413  -18.1790   21.1135 N   0  0  0  0  0  0  0  0  0  0  0  0
    3.9904  -16.9110   21.5560 C   0  0  0  0  0  0  0  0  0  0  0  0
    5.4501  -16.9400   21.2808 C   0  0  0  0  0  0  0  0  0  0  0  0
    6.0249  -17.9596   20.8273 O   0  0  0  0  0  0  0  0  0  0  0  0
    7.0128  -14.4289   19.1922 C   0  0  0  0  0  0  0  0  0  0  0  0
    7.9312  -14.5393   20.3546 C   0  0  1  0  0  0  0  0  0  0  0  0
    7.7159  -13.4251   21.1788 O   0  0  0  0  0  0  0  0  0  0  0  0
    7.6770  -15.7596   21.2093 C   0  0  2  0  0  0  0  0  0  0  0  0
    6.2622  -15.7984   21.5240 N   0  0  0  0  0  0  0  0  0  0  0  0
    8.4114  -15.6874   22.4982 C   0  0  0  0  0  0  0  0  0  0  0  0
    7.9516  -15.0540   23.5018 O   0  0  0  0  0  0  0  0  0  0  0  0
   10.1290  -17.1512   28.5258 N   0  0  0  0  0  0  0  0  0  0  0  0
    9.7671  -17.6903   27.2568 C   0  0  0  0  0  0  0  0  0  0  0  0
    9.8062  -18.9548   27.1643 O   0  0  0  0  0  0  0  0  0  0  0  0
    9.3701  -16.8172   26.1189 C   0  0  0  0  0  0  0  0  0  0  0  0
   10.1698  -17.2477   24.9240 C   0  0  0  0  0  0  0  0  0  0  0  0
   10.4288  -16.1460   23.9335 C   0  0  2  0  0  0  0  0  0  0  0  0
    9.6739  -16.3153   22.7075 N   0  0  0  0  0  0  0  0  0  0  0  0
   11.8500  -15.9333   23.6482 C   0  0  0  0  0  0  0  0  0  0  0  0
   12.3086  -16.0642   22.4981 O   0  0  0  0  0  0  0  0  0  0  0  0
   12.7186  -15.5803   24.6560 O   0  0  0  0  0  0  0  0  0  0  0  0
  1  2  1  0
  2  3  1  0
  3  4  2  0
  6  5  1  6
  6  8  1  0
  7  6  1  0
  8 10  1  0
  8  9  1  1
  9  3  1  0
 10 11  2  0
 10 18  1  0
 12 13  1  0
 13 14  2  0
 13 15  1  0
 15 16  1  0
 17 16  1  1
 17 19  1  0
 18 17  1  0
 19 20  2  0
 19 21  1  0
M  END
$$$$
