SHW.pdb
     RDKit          3D

 31 33  0  0  1  0  0  0  0  0999 V2000
    6.1264  -15.4111   22.0365 O   0  0  0  0  0  0  0  0  0  0  0  0
    6.9973  -14.5559   21.3493 C   0  0  0  0  0  0  0  0  0  0  0  0
    7.8701  -15.4184   20.4684 C   0  0  2  0  0  0  0  0  0  0  0  0
    7.1363  -16.2057   19.5214 N   0  0  0  0  0  0  0  0  0  0  0  0
    8.7456  -16.3064   21.2845 C   0  0  0  0  0  0  0  0  0  0  0  0
    8.3467  -17.5046   21.4361 O   0  0  0  0  0  0  0  0  0  0  0  0
    9.9507  -15.9008   21.8770 N   0  0  0  0  0  0  0  0  0  0  0  0
   10.7298  -16.8272   22.6487 C   0  0  1  0  0  0  0  0  0  0  0  0
   12.1486  -16.9424   22.1906 C   0  0  0  0  0  0  0  0  0  0  0  0
   12.2263  -17.5940   20.8751 C   0  0  0  0  0  0  0  0  0  0  0  0
   12.0366  -18.9527   20.6614 C   0  0  0  0  0  0  0  0  0  0  0  0
   12.1849  -19.1614   19.3481 N   0  0  0  0  0  0  0  0  0  0  0  0
   12.4580  -18.0066   18.7225 C   0  0  0  0  0  0  0  0  0  0  0  0
   12.4802  -17.0420   19.6857 N   0  0  0  0  0  0  0  0  0  0  0  0
   10.6727  -16.4041   24.0868 C   0  0  0  0  0  0  0  0  0  0  0  0
   11.3597  -15.4345   24.4967 O   0  0  0  0  0  0  0  0  0  0  0  0
    9.8547  -17.0651   25.0351 N   0  0  0  0  0  0  0  0  0  0  0  0
    9.9246  -16.7149   26.4448 C   0  0  1  0  0  0  0  0  0  0  0  0
    8.5143  -16.8406   26.9568 C   0  0  0  0  0  0  0  0  0  0  0  0
    7.5870  -15.8793   26.3743 C   0  0  0  0  0  0  0  0  0  0  0  0
    6.4247  -16.1527   25.6453 C   0  0  0  0  0  0  0  0  0  0  0  0
    5.8828  -15.0016   25.2680 N   0  0  0  0  0  0  0  0  0  0  0  0
    6.6232  -13.9631   25.7080 C   0  0  0  0  0  0  0  0  0  0  0  0
    6.4049  -12.5947   25.5486 C   0  0  0  0  0  0  0  0  0  0  0  0
    7.3193  -11.7402   26.1256 C   0  0  0  0  0  0  0  0  0  0  0  0
    8.4045  -12.2446   26.8309 C   0  0  0  0  0  0  0  0  0  0  0  0
    8.5801  -13.6026   26.9616 C   0  0  0  0  0  0  0  0  0  0  0  0
    7.6762  -14.4914   26.3913 C   0  0  0  0  0  0  0  0  0  0  0  0
   10.9095  -17.4414   27.2068 C   0  0  0  0  0  0  0  0  0  0  0  0
   11.4959  -18.4345   26.7101 O   0  0  0  0  0  0  0  0  0  0  0  0
   11.2749  -17.1051   28.4987 O   0  0  0  0  0  0  0  0  0  0  0  0
  1  2  1  0
  3  2  1  0
  3  4  1  6
  5  7  1  0
  5  3  1  0
  6  5  2  0
  8  7  1  0
  8  9  1  6
 10  9  1  0
 11 10  2  0
 12 13  1  0
 12 11  1  0
 13 14  2  0
 14 10  1  0
 15 17  1  0
 15  8  1  0
 16 15  2  0
 18 17  1  0
 18 29  1  0
 18 19  1  1
 20 19  1  0
 21 20  2  0
 22 23  1  0
 22 21  1  0
 23 28  2  0
 24 23  1  0
 24 25  2  0
 25 26  1  0
 26 27  2  0
 28 20  1  0
 28 27  1  0
 29 31  1  0
 30 29  2  0
M  END
$$$$
