SHW.pdb
     RDKit          3D

 31 33  0  0  1  0  0  0  0  0999 V2000
    5.7235  -16.1701   21.5041 O   0  0  0  0  0  0  0  0  0  0  0  0
    6.5541  -15.1721   20.9786 C   0  0  0  0  0  0  0  0  0  0  0  0
    7.6474  -15.8634   20.1987 C   0  0  2  0  0  0  0  0  0  0  0  0
    7.1604  -16.7487   19.1816 N   0  0  0  0  0  0  0  0  0  0  0  0
    8.5686  -16.6041   21.1064 C   0  0  0  0  0  0  0  0  0  0  0  0
    8.3247  -17.8419   21.2676 O   0  0  0  0  0  0  0  0  0  0  0  0
    9.6578  -16.0234   21.7729 N   0  0  0  0  0  0  0  0  0  0  0  0
   10.5287  -16.8283   22.5818 C   0  0  1  0  0  0  0  0  0  0  0  0
   11.9522  -16.8149   22.1241 C   0  0  0  0  0  0  0  0  0  0  0  0
   12.1051  -17.5441   20.8568 C   0  0  0  0  0  0  0  0  0  0  0  0
   12.0477  -18.9261   20.7363 C   0  0  0  0  0  0  0  0  0  0  0  0
   12.2287  -19.2085   19.4410 N   0  0  0  0  0  0  0  0  0  0  0  0
   12.3973  -18.0782   18.7385 C   0  0  0  0  0  0  0  0  0  0  0  0
   12.3177  -17.0525   19.6333 N   0  0  0  0  0  0  0  0  0  0  0  0
   10.4263  -16.3503   24.0001 C   0  0  0  0  0  0  0  0  0  0  0  0
   10.8320  -15.2045   24.3205 O   0  0  0  0  0  0  0  0  0  0  0  0
    9.8757  -17.1533   25.0282 N   0  0  0  0  0  0  0  0  0  0  0  0
    9.9387  -16.7246   26.4164 C   0  0  1  0  0  0  0  0  0  0  0  0
    8.5191  -16.7787   26.9149 C   0  0  0  0  0  0  0  0  0  0  0  0
    7.6263  -15.8331   26.2576 C   0  0  0  0  0  0  0  0  0  0  0  0
    6.6076  -16.1201   25.3427 C   0  0  0  0  0  0  0  0  0  0  0  0
    6.0512  -14.9780   24.9590 N   0  0  0  0  0  0  0  0  0  0  0  0
    6.6449  -13.9329   25.5716 C   0  0  0  0  0  0  0  0  0  0  0  0
    6.3603  -12.5715   25.4662 C   0  0  0  0  0  0  0  0  0  0  0  0
    7.1176  -11.7092   26.2293 C   0  0  0  0  0  0  0  0  0  0  0  0
    8.1167  -12.1996   27.0605 C   0  0  0  0  0  0  0  0  0  0  0  0
    8.3628  -13.5510   27.1317 C   0  0  0  0  0  0  0  0  0  0  0  0
    7.6172  -14.4473   26.3747 C   0  0  0  0  0  0  0  0  0  0  0  0
   10.8917  -17.4347   27.2326 C   0  0  0  0  0  0  0  0  0  0  0  0
   11.0348  -17.1446   28.4459 O   0  0  0  0  0  0  0  0  0  0  0  0
   11.6895  -18.4606   26.7561 O   0  0  0  0  0  0  0  0  0  0  0  0
  1  2  1  0
  3  2  1  0
  3  4  1  6
  5  7  1  0
  5  3  1  0
  6  5  2  0
  8  7  1  0
  8  9  1  6
 10  9  1  0
 11 10  2  0
 12 13  1  0
 12 11  1  0
 13 14  2  0
 14 10  1  0
 15 17  1  0
 15  8  1  0
 16 15  2  0
 18 17  1  0
 18 29  1  0
 18 19  1  1
 20 19  1  0
 21 20  2  0
 22 23  1  0
 22 21  1  0
 23 28  2  0
 24 23  1  0
 24 25  2  0
 25 26  1  0
 26 27  2  0
 28 20  1  0
 28 27  1  0
 29 31  1  0
 30 29  2  0
M  END
$$$$
