SHW.pdb
     RDKit          3D

 31 33  0  0  1  0  0  0  0  0999 V2000
    8.9800  -18.0468   17.1725 O   0  0  0  0  0  0  0  0  0  0  0  0
   10.0386  -18.5933   17.9092 C   0  0  0  0  0  0  0  0  0  0  0  0
    9.7378  -18.3552   19.3702 C   0  0  2  0  0  0  0  0  0  0  0  0
    8.4684  -18.8721   19.7906 N   0  0  0  0  0  0  0  0  0  0  0  0
    9.8234  -16.9060   19.7069 C   0  0  0  0  0  0  0  0  0  0  0  0
   10.9267  -16.3312   19.4428 O   0  0  0  0  0  0  0  0  0  0  0  0
    8.7809  -16.1654   20.2836 N   0  0  0  0  0  0  0  0  0  0  0  0
    8.9571  -14.7725   20.5828 C   0  0  1  0  0  0  0  0  0  0  0  0
    7.8977  -13.8958   19.9953 C   0  0  0  0  0  0  0  0  0  0  0  0
    7.9298  -13.9428   18.5263 C   0  0  0  0  0  0  0  0  0  0  0  0
    8.5940  -13.0218   17.7273 C   0  0  0  0  0  0  0  0  0  0  0  0
    8.3942  -13.3964   16.4585 N   0  0  0  0  0  0  0  0  0  0  0  0
    7.6394  -14.5045   16.4150 C   0  0  0  0  0  0  0  0  0  0  0  0
    7.3591  -14.8313   17.7086 N   0  0  0  0  0  0  0  0  0  0  0  0
    9.0044  -14.6155   22.0740 C   0  0  0  0  0  0  0  0  0  0  0  0
    8.3284  -13.7231   22.6456 O   0  0  0  0  0  0  0  0  0  0  0  0
    9.7989  -15.4519   22.8952 N   0  0  0  0  0  0  0  0  0  0  0  0
    9.4984  -15.6013   24.3102 C   0  0  1  0  0  0  0  0  0  0  0  0
    8.0289  -15.9229   24.3735 C   0  0  0  0  0  0  0  0  0  0  0  0
    7.2993  -15.1554   25.3745 C   0  0  0  0  0  0  0  0  0  0  0  0
    6.3008  -15.6169   26.2388 C   0  0  0  0  0  0  0  0  0  0  0  0
    5.8727  -14.5967   26.9717 N   0  0  0  0  0  0  0  0  0  0  0  0
    6.5349  -13.4679   26.6443 C   0  0  0  0  0  0  0  0  0  0  0  0
    6.4075  -12.1851   27.1770 C   0  0  0  0  0  0  0  0  0  0  0  0
    7.2334  -11.2068   26.6668 C   0  0  0  0  0  0  0  0  0  0  0  0
    8.1458  -11.5103   25.6643 C   0  0  0  0  0  0  0  0  0  0  0  0
    8.2359  -12.7901   25.1684 C   0  0  0  0  0  0  0  0  0  0  0  0
    7.4171  -13.7995   25.6611 C   0  0  0  0  0  0  0  0  0  0  0  0
   10.3484  -16.5234   25.0213 C   0  0  0  0  0  0  0  0  0  0  0  0
   10.7824  -17.5575   24.4563 O   0  0  0  0  0  0  0  0  0  0  0  0
   10.7420  -16.3399   26.3355 O   0  0  0  0  0  0  0  0  0  0  0  0
  1  2  1  0
  3  2  1  0
  3  4  1  6
  5  7  1  0
  5  3  1  0
  6  5  2  0
  8  7  1  0
  8  9  1  1
 10  9  1  0
 11 10  2  0
 12 13  1  0
 12 11  1  0
 13 14  2  0
 14 10  1  0
 15 17  1  0
 15  8  1  0
 16 15  2  0
 18 17  1  0
 18 29  1  0
 18 19  1  6
 20 19  1  0
 21 20  2  0
 22 23  1  0
 22 21  1  0
 23 28  2  0
 24 23  1  0
 24 25  2  0
 25 26  1  0
 26 27  2  0
 28 20  1  0
 28 27  1  0
 29 31  1  0
 30 29  2  0
M  END
$$$$
