SHW.pdb
     RDKit          3D

 31 33  0  0  1  0  0  0  0  0999 V2000
    5.7710  -14.9321   22.4292 O   0  0  0  0  0  0  0  0  0  0  0  0
    6.6666  -14.2663   21.5827 C   0  0  0  0  0  0  0  0  0  0  0  0
    7.2709  -15.3027   20.6651 C   0  0  2  0  0  0  0  0  0  0  0  0
    6.2999  -16.0794   19.9515 N   0  0  0  0  0  0  0  0  0  0  0  0
    8.1871  -16.2114   21.4108 C   0  0  0  0  0  0  0  0  0  0  0  0
    7.7419  -17.3756   21.6636 O   0  0  0  0  0  0  0  0  0  0  0  0
    9.4765  -15.8589   21.8363 N   0  0  0  0  0  0  0  0  0  0  0  0
   10.2786  -16.7914   22.5764 C   0  0  1  0  0  0  0  0  0  0  0  0
   11.6571  -16.9654   22.0235 C   0  0  0  0  0  0  0  0  0  0  0  0
   11.6327  -17.7633   20.7890 C   0  0  0  0  0  0  0  0  0  0  0  0
   11.5149  -17.2288   19.5129 C   0  0  0  0  0  0  0  0  0  0  0  0
   11.5313  -18.2594   18.6597 N   0  0  0  0  0  0  0  0  0  0  0  0
   11.6531  -19.4150   19.3299 C   0  0  0  0  0  0  0  0  0  0  0  0
   11.7149  -19.0893   20.6524 N   0  0  0  0  0  0  0  0  0  0  0  0
   10.3369  -16.3310   24.0030 C   0  0  0  0  0  0  0  0  0  0  0  0
   10.8253  -15.2100   24.2946 O   0  0  0  0  0  0  0  0  0  0  0  0
    9.8514  -17.1236   25.0712 N   0  0  0  0  0  0  0  0  0  0  0  0
   10.0726  -16.7216   26.4512 C   0  0  1  0  0  0  0  0  0  0  0  0
    8.7052  -16.6895   27.0808 C   0  0  0  0  0  0  0  0  0  0  0  0
    7.7886  -15.7466   26.4532 C   0  0  0  0  0  0  0  0  0  0  0  0
    6.7192  -16.0394   25.6000 C   0  0  0  0  0  0  0  0  0  0  0  0
    6.1552  -14.8987   25.2237 N   0  0  0  0  0  0  0  0  0  0  0  0
    6.7920  -13.8488   25.7824 C   0  0  0  0  0  0  0  0  0  0  0  0
    6.5167  -12.4864   25.6649 C   0  0  0  0  0  0  0  0  0  0  0  0
    7.3231  -11.6183   26.3689 C   0  0  0  0  0  0  0  0  0  0  0  0
    8.3601  -12.1040   27.1552 C   0  0  0  0  0  0  0  0  0  0  0  0
    8.5952  -13.4566   27.2404 C   0  0  0  0  0  0  0  0  0  0  0  0
    7.8006  -14.3587   26.5426 C   0  0  0  0  0  0  0  0  0  0  0  0
   11.0476  -17.5058   27.1673 C   0  0  0  0  0  0  0  0  0  0  0  0
   11.5757  -18.5116   26.6323 O   0  0  0  0  0  0  0  0  0  0  0  0
   11.4655  -17.2139   28.4542 O   0  0  0  0  0  0  0  0  0  0  0  0
  1  2  1  0
  3  2  1  0
  3  4  1  1
  5  7  1  0
  5  3  1  0
  6  5  2  0
  8  7  1  0
  8  9  1  6
 10  9  1  0
 11 10  2  0
 12 13  1  0
 12 11  1  0
 13 14  2  0
 14 10  1  0
 15 17  1  0
 15  8  1  0
 16 15  2  0
 18 17  1  0
 18 29  1  0
 18 19  1  1
 20 19  1  0
 21 20  2  0
 22 23  1  0
 22 21  1  0
 23 28  2  0
 24 23  1  0
 24 25  2  0
 25 26  1  0
 26 27  2  0
 28 20  1  0
 28 27  1  0
 29 31  1  0
 30 29  2  0
M  END
$$$$
