SHW.pdb
     RDKit          3D

 31 33  0  0  1  0  0  0  0  0999 V2000
   11.3535  -19.4927   20.4143 O   0  0  0  0  0  0  0  0  0  0  0  0
   12.3700  -18.9554   19.6143 C   0  0  0  0  0  0  0  0  0  0  0  0
   11.7809  -17.7806   18.8699 C   0  0  2  0  0  0  0  0  0  0  0  0
   12.7069  -17.1317   17.9886 N   0  0  0  0  0  0  0  0  0  0  0  0
   11.2051  -16.7810   19.8135 C   0  0  0  0  0  0  0  0  0  0  0  0
   12.0095  -15.9060   20.2661 O   0  0  0  0  0  0  0  0  0  0  0  0
    9.8617  -16.7567   20.2167 N   0  0  0  0  0  0  0  0  0  0  0  0
    9.4084  -15.7924   21.1787 C   0  0  1  0  0  0  0  0  0  0  0  0
    8.0037  -15.3335   20.9493 C   0  0  0  0  0  0  0  0  0  0  0  0
    7.8771  -14.6522   19.6528 C   0  0  0  0  0  0  0  0  0  0  0  0
    8.1582  -13.3088   19.4430 C   0  0  0  0  0  0  0  0  0  0  0  0
    7.9260  -13.0634   18.1483 N   0  0  0  0  0  0  0  0  0  0  0  0
    7.5134  -14.1804   17.5308 C   0  0  0  0  0  0  0  0  0  0  0  0
    7.4884  -15.1590   18.4798 N   0  0  0  0  0  0  0  0  0  0  0  0
    9.5506  -16.3918   22.5465 C   0  0  0  0  0  0  0  0  0  0  0  0
    9.7648  -17.6225   22.6871 O   0  0  0  0  0  0  0  0  0  0  0  0
    9.4530  -15.6126   23.7248 N   0  0  0  0  0  0  0  0  0  0  0  0
    9.6116  -16.2266   25.0335 C   0  0  1  0  0  0  0  0  0  0  0  0
    9.4217  -15.1084   26.0237 C   0  0  0  0  0  0  0  0  0  0  0  0
    8.0660  -14.5753   26.0590 C   0  0  0  0  0  0  0  0  0  0  0  0
    6.8756  -15.2597   25.7913 C   0  0  0  0  0  0  0  0  0  0  0  0
    5.8646  -14.4074   25.9036 N   0  0  0  0  0  0  0  0  0  0  0  0
    6.3151  -13.1797   26.2353 C   0  0  0  0  0  0  0  0  0  0  0  0
    5.5935  -12.0084   26.4655 C   0  0  0  0  0  0  0  0  0  0  0  0
    6.3117  -10.8851   26.8147 C   0  0  0  0  0  0  0  0  0  0  0  0
    7.6951  -10.9424   26.9260 C   0  0  0  0  0  0  0  0  0  0  0  0
    8.3650  -12.1200   26.6886 C   0  0  0  0  0  0  0  0  0  0  0  0
    7.6704  -13.2706   26.3341 C   0  0  0  0  0  0  0  0  0  0  0  0
    8.7877  -17.3861   25.2683 C   0  0  0  0  0  0  0  0  0  0  0  0
    7.7919  -17.6199   24.5401 O   0  0  0  0  0  0  0  0  0  0  0  0
    9.0293  -18.3020   26.2776 O   0  0  0  0  0  0  0  0  0  0  0  0
  1  2  1  0
  3  2  1  0
  3  4  1  1
  5  7  1  0
  5  3  1  0
  6  5  2  0
  8  7  1  0
  8  9  1  6
 10  9  1  0
 11 10  2  0
 12 13  1  0
 12 11  1  0
 13 14  2  0
 14 10  1  0
 15 17  1  0
 15  8  1  0
 16 15  2  0
 18 17  1  0
 18 29  1  0
 18 19  1  1
 20 19  1  0
 21 20  2  0
 22 23  1  0
 22 21  1  0
 23 28  2  0
 24 23  1  0
 24 25  2  0
 25 26  1  0
 26 27  2  0
 28 20  1  0
 28 27  1  0
 29 31  1  0
 30 29  2  0
M  END
$$$$
