SHW.pdb
     RDKit          3D

 31 33  0  0  1  0  0  0  0  0999 V2000
    5.7789  -16.1173   21.8670 O   0  0  0  0  0  0  0  0  0  0  0  0
    6.6858  -15.2648   21.2245 C   0  0  0  0  0  0  0  0  0  0  0  0
    7.6335  -16.1338   20.4318 C   0  0  2  0  0  0  0  0  0  0  0  0
    6.9752  -17.1087   19.6125 N   0  0  0  0  0  0  0  0  0  0  0  0
    8.6145  -16.8124   21.3252 C   0  0  0  0  0  0  0  0  0  0  0  0
    8.4005  -18.0432   21.5637 O   0  0  0  0  0  0  0  0  0  0  0  0
    9.7281  -16.1821   21.9000 N   0  0  0  0  0  0  0  0  0  0  0  0
   10.6230  -16.9176   22.7479 C   0  0  1  0  0  0  0  0  0  0  0  0
   12.0518  -16.8491   22.3121 C   0  0  0  0  0  0  0  0  0  0  0  0
   12.2639  -17.6203   21.0786 C   0  0  0  0  0  0  0  0  0  0  0  0
   12.2667  -17.0725   19.8028 C   0  0  0  0  0  0  0  0  0  0  0  0
   12.4902  -18.0796   18.9507 N   0  0  0  0  0  0  0  0  0  0  0  0
   12.6284  -19.2331   19.6213 C   0  0  0  0  0  0  0  0  0  0  0  0
   12.4851  -18.9305   20.9430 N   0  0  0  0  0  0  0  0  0  0  0  0
   10.4734  -16.4007   24.1482 C   0  0  0  0  0  0  0  0  0  0  0  0
   10.7754  -15.2130   24.4279 O   0  0  0  0  0  0  0  0  0  0  0  0
    9.9919  -17.2124   25.2039 N   0  0  0  0  0  0  0  0  0  0  0  0
   10.0507  -16.7479   26.5808 C   0  0  1  0  0  0  0  0  0  0  0  0
    8.6362  -16.8305   27.0897 C   0  0  0  0  0  0  0  0  0  0  0  0
    7.7118  -15.9304   26.4126 C   0  0  0  0  0  0  0  0  0  0  0  0
    6.6916  -16.2734   25.5189 C   0  0  0  0  0  0  0  0  0  0  0  0
    6.1010  -15.1593   25.1051 N   0  0  0  0  0  0  0  0  0  0  0  0
    6.6732  -14.0797   25.6771 C   0  0  0  0  0  0  0  0  0  0  0  0
    6.3515  -12.7303   25.5312 C   0  0  0  0  0  0  0  0  0  0  0  0
    7.0937  -11.8243   26.2576 C   0  0  0  0  0  0  0  0  0  0  0  0
    8.1141  -12.2612   27.0928 C   0  0  0  0  0  0  0  0  0  0  0  0
    8.3967  -13.6027   27.2045 C   0  0  0  0  0  0  0  0  0  0  0  0
    7.6672  -14.5422   26.4852 C   0  0  0  0  0  0  0  0  0  0  0  0
   11.0286  -17.4101   27.4077 C   0  0  0  0  0  0  0  0  0  0  0  0
   11.6824  -18.3868   26.9658 O   0  0  0  0  0  0  0  0  0  0  0  0
   11.3148  -17.0266   28.7065 O   0  0  0  0  0  0  0  0  0  0  0  0
  1  2  1  0
  3  2  1  0
  3  4  1  1
  5  7  1  0
  5  3  1  0
  6  5  2  0
  8  7  1  0
  8  9  1  6
 10  9  1  0
 11 10  2  0
 12 13  1  0
 12 11  1  0
 13 14  2  0
 14 10  1  0
 15 17  1  0
 15  8  1  0
 16 15  2  0
 18 17  1  0
 18 29  1  0
 18 19  1  1
 20 19  1  0
 21 20  2  0
 22 23  1  0
 22 21  1  0
 23 28  2  0
 24 23  1  0
 24 25  2  0
 25 26  1  0
 26 27  2  0
 28 20  1  0
 28 27  1  0
 29 31  1  0
 30 29  2  0
M  END
$$$$
