SHW.pdb
     RDKit          3D

 31 33  0  0  1  0  0  0  0  0999 V2000
    8.3777  -12.7379   18.8958 O   0  0  0  0  0  0  0  0  0  0  0  0
    8.3893  -13.6150   19.9879 C   0  0  0  0  0  0  0  0  0  0  0  0
    8.4375  -15.0196   19.4344 C   0  0  2  0  0  0  0  0  0  0  0  0
    7.2030  -15.4523   18.8480 N   0  0  0  0  0  0  0  0  0  0  0  0
    8.8631  -15.9940   20.4786 C   0  0  0  0  0  0  0  0  0  0  0  0
    7.9330  -16.5302   21.1603 O   0  0  0  0  0  0  0  0  0  0  0  0
   10.1972  -16.3393   20.7409 N   0  0  0  0  0  0  0  0  0  0  0  0
   10.5124  -17.3080   21.7525 C   0  0  1  0  0  0  0  0  0  0  0  0
   11.6847  -18.1708   21.4099 C   0  0  0  0  0  0  0  0  0  0  0  0
   11.4111  -18.9809   20.2141 C   0  0  0  0  0  0  0  0  0  0  0  0
   10.7523  -20.2030   20.2296 C   0  0  0  0  0  0  0  0  0  0  0  0
   10.6952  -20.6270   18.9619 N   0  0  0  0  0  0  0  0  0  0  0  0
   11.2830  -19.7374   18.1479 C   0  0  0  0  0  0  0  0  0  0  0  0
   11.7227  -18.7199   18.9418 N   0  0  0  0  0  0  0  0  0  0  0  0
   10.7530  -16.5789   23.0412 C   0  0  0  0  0  0  0  0  0  0  0  0
   11.4619  -15.5411   23.0671 O   0  0  0  0  0  0  0  0  0  0  0  0
   10.2011  -17.0170   24.2695 N   0  0  0  0  0  0  0  0  0  0  0  0
   10.4082  -16.2520   25.4889 C   0  0  1  0  0  0  0  0  0  0  0  0
    9.8026  -14.9003   25.2188 C   0  0  0  0  0  0  0  0  0  0  0  0
    8.3944  -14.8016   25.5803 C   0  0  0  0  0  0  0  0  0  0  0  0
    7.4315  -15.8154   25.5350 C   0  0  0  0  0  0  0  0  0  0  0  0
    6.2663  -15.3078   25.9168 N   0  0  0  0  0  0  0  0  0  0  0  0
    6.3960  -13.9993   26.2185 C   0  0  0  0  0  0  0  0  0  0  0  0
    5.4317  -13.0994   26.6722 C   0  0  0  0  0  0  0  0  0  0  0  0
    5.8448  -11.8094   26.9265 C   0  0  0  0  0  0  0  0  0  0  0  0
    7.1710  -11.4451   26.7313 C   0  0  0  0  0  0  0  0  0  0  0  0
    8.0877  -12.3667   26.2815 C   0  0  0  0  0  0  0  0  0  0  0  0
    7.7033  -13.6757   26.0152 C   0  0  0  0  0  0  0  0  0  0  0  0
    9.9453  -16.8896   26.6962 C   0  0  0  0  0  0  0  0  0  0  0  0
    9.2444  -17.9299   26.6405 O   0  0  0  0  0  0  0  0  0  0  0  0
   10.2352  -16.4209   27.9659 O   0  0  0  0  0  0  0  0  0  0  0  0
  1  2  1  0
  3  2  1  0
  3  4  1  1
  5  7  1  0
  5  3  1  0
  6  5  2  0
  8  7  1  0
  8  9  1  6
 10  9  1  0
 11 10  2  0
 12 13  1  0
 12 11  1  0
 13 14  2  0
 14 10  1  0
 15 17  1  0
 15  8  1  0
 16 15  2  0
 18 17  1  0
 18 29  1  0
 18 19  1  6
 20 19  1  0
 21 20  2  0
 22 23  1  0
 22 21  1  0
 23 28  2  0
 24 23  1  0
 24 25  2  0
 25 26  1  0
 26 27  2  0
 28 20  1  0
 28 27  1  0
 29 31  1  0
 30 29  2  0
M  END
$$$$
