VLL.pdb
     RDKit          3D

 24 23  0  0  1  0  0  0  0  0999 V2000
   16.0774  -13.7016  -18.9140 C   0  0  0  0  0  0  0  0  0  0  0  0
   17.3845  -14.4027  -18.6386 C   0  0  2  0  0  0  0  0  0  0  0  0
   17.0799  -15.8435  -18.2777 C   0  0  0  0  0  0  0  0  0  0  0  0
   18.0829  -13.7726  -17.4472 C   0  0  2  0  0  0  0  0  0  0  0  0
   17.2910  -14.0668  -16.2718 N   0  0  0  0  0  0  0  0  0  0  0  0
   18.2628  -12.3216  -17.5881 C   0  0  0  0  0  0  0  0  0  0  0  0
   19.0299  -11.8688  -18.4636 O   0  0  0  0  0  0  0  0  0  0  0  0
   14.7052   -8.1794  -18.1113 C   0  0  0  0  0  0  0  0  0  0  0  0
   16.0180   -8.9755  -18.3170 C   0  0  1  0  0  0  0  0  0  0  0  0
   16.8818   -8.0399  -19.1541 C   0  0  0  0  0  0  0  0  0  0  0  0
   16.5604   -9.2049  -16.9579 C   0  0  0  0  0  0  0  0  0  0  0  0
   17.8272   -9.9629  -16.8214 C   0  0  2  0  0  0  0  0  0  0  0  0
   17.6020  -11.3622  -16.7690 N   0  0  0  0  0  0  0  0  0  0  0  0
   18.7312   -9.4506  -15.7748 C   0  0  0  0  0  0  0  0  0  0  0  0
   18.5214   -9.5507  -14.5379 O   0  0  0  0  0  0  0  0  0  0  0  0
   22.2310  -10.4783  -13.4884 C   0  0  0  0  0  0  0  0  0  0  0  0
   22.5311  -10.2148  -14.9640 C   0  0  2  0  0  0  0  0  0  0  0  0
   23.9517  -10.6266  -15.2400 C   0  0  0  0  0  0  0  0  0  0  0  0
   22.3017   -8.7713  -15.3050 C   0  0  0  0  0  0  0  0  0  0  0  0
   20.9070   -8.2908  -15.2034 C   0  0  2  0  0  0  0  0  0  0  0  0
   19.9534   -8.7806  -16.1315 N   0  0  0  0  0  0  0  0  0  0  0  0
   20.9347   -6.8034  -15.1245 C   0  0  0  0  0  0  0  0  0  0  0  0
   20.2577   -5.9858  -16.0072 O   0  0  0  0  0  0  0  0  0  0  0  0
   21.6065   -6.2701  -14.2107 O   0  0  0  0  0  0  0  0  0  0  0  0
  2  1  1  1
  3  2  1  0
  4  6  1  0
  4  2  1  0
  4  5  1  1
  6  7  2  0
  9  8  1  1
  9 11  1  0
  9 10  1  0
 12 11  1  1
 13 12  1  0
 13  6  1  0
 14 12  1  0
 14 15  2  0
 17 16  1  1
 17 19  1  0
 18 17  1  0
 20 19  1  6
 20 21  1  0
 20 22  1  0
 21 14  1  0
 22 24  2  0
 22 23  1  0
M  END
$$$$
