VLL.pdb
     RDKit          3D

 24 23  0  0  1  0  0  0  0  0999 V2000
   22.9659  -21.8543  -13.6921 C   0  0  0  0  0  0  0  0  0  0  0  0
   22.0026  -21.4297  -12.6115 C   0  0  2  0  0  0  0  0  0  0  0  0
   20.8209  -20.7490  -13.2740 C   0  0  0  0  0  0  0  0  0  0  0  0
   22.6546  -20.4152  -11.6895 C   0  0  2  0  0  0  0  0  0  0  0  0
   22.8623  -19.2028  -12.4525 N   0  0  0  0  0  0  0  0  0  0  0  0
   23.9272  -20.8851  -11.1264 C   0  0  0  0  0  0  0  0  0  0  0  0
   23.9584  -21.9225  -10.4315 O   0  0  0  0  0  0  0  0  0  0  0  0
   28.8081  -22.4911  -11.1820 C   0  0  0  0  0  0  0  0  0  0  0  0
   28.8649  -20.9442  -11.1252 C   0  0  1  0  0  0  0  0  0  0  0  0
   30.0022  -20.5882  -12.0749 C   0  0  0  0  0  0  0  0  0  0  0  0
   27.5424  -20.4803  -11.6045 C   0  0  0  0  0  0  0  0  0  0  0  0
   26.3855  -20.5689  -10.6817 C   0  0  2  0  0  0  0  0  0  0  0  0
   25.1703  -20.2187  -11.3235 N   0  0  0  0  0  0  0  0  0  0  0  0
   26.5979  -19.9136   -9.3777 C   0  0  0  0  0  0  0  0  0  0  0  0
   26.2530  -18.7339   -9.1064 O   0  0  0  0  0  0  0  0  0  0  0  0
   27.3493  -18.5728   -4.5325 C   0  0  0  0  0  0  0  0  0  0  0  0
   26.6010  -19.8805   -4.7910 C   0  0  2  0  0  0  0  0  0  0  0  0
   26.4636  -20.6146   -3.4849 C   0  0  0  0  0  0  0  0  0  0  0  0
   27.3177  -20.7111   -5.8152 C   0  0  0  0  0  0  0  0  0  0  0  0
   27.6595  -20.0316   -7.0831 C   0  0  2  0  0  0  0  0  0  0  0  0
   27.2388  -20.6219   -8.3018 N   0  0  0  0  0  0  0  0  0  0  0  0
   29.1147  -19.7134   -7.0599 C   0  0  0  0  0  0  0  0  0  0  0  0
   29.6571  -18.7061   -6.2871 O   0  0  0  0  0  0  0  0  0  0  0  0
   29.8826  -20.3953   -7.7783 O   0  0  0  0  0  0  0  0  0  0  0  0
  2  1  1  6
  3  2  1  0
  4  6  1  0
  4  2  1  0
  4  5  1  6
  6  7  2  0
  9  8  1  6
  9 11  1  0
  9 10  1  0
 12 11  1  6
 13 12  1  0
 13  6  1  0
 14 12  1  0
 14 15  2  0
 17 16  1  1
 17 19  1  0
 18 17  1  0
 20 19  1  1
 20 21  1  0
 20 22  1  0
 21 14  1  0
 22 24  2  0
 22 23  1  0
M  END
$$$$
