VLL.pdb
     RDKit          3D

 24 23  0  0  1  0  0  0  0  0999 V2000
   25.8126  -17.7400  -17.7455 C   0  0  0  0  0  0  0  0  0  0  0  0
   24.4933  -18.4463  -17.9372 C   0  0  2  0  0  0  0  0  0  0  0  0
   23.4921  -17.4392  -18.4684 C   0  0  0  0  0  0  0  0  0  0  0  0
   23.9665  -18.9545  -16.6074 C   0  0  2  0  0  0  0  0  0  0  0  0
   23.7261  -17.8025  -15.7646 N   0  0  0  0  0  0  0  0  0  0  0  0
   24.8871  -19.8865  -15.9430 C   0  0  0  0  0  0  0  0  0  0  0  0
   25.1054  -21.0110  -16.4405 O   0  0  0  0  0  0  0  0  0  0  0  0
   30.0611  -19.9846  -13.0927 C   0  0  0  0  0  0  0  0  0  0  0  0
   28.8107  -20.8717  -13.3143 C   0  0  1  0  0  0  0  0  0  0  0  0
   28.5353  -21.4605  -11.9360 C   0  0  0  0  0  0  0  0  0  0  0  0
   27.7464  -19.9500  -13.7745 C   0  0  0  0  0  0  0  0  0  0  0  0
   26.3921  -20.5010  -14.0199 C   0  0  2  0  0  0  0  0  0  0  0  0
   25.5716  -19.5881  -14.7302 N   0  0  0  0  0  0  0  0  0  0  0  0
   25.7547  -21.0967  -12.8307 C   0  0  0  0  0  0  0  0  0  0  0  0
   25.9920  -22.2543  -12.3974 O   0  0  0  0  0  0  0  0  0  0  0  0
   25.9856  -21.9629   -8.7894 C   0  0  0  0  0  0  0  0  0  0  0  0
   25.6786  -20.5026   -9.1209 C   0  0  2  0  0  0  0  0  0  0  0  0
   25.8989  -19.6785   -7.8814 C   0  0  0  0  0  0  0  0  0  0  0  0
   24.2764  -20.3563   -9.6357 C   0  0  0  0  0  0  0  0  0  0  0  0
   24.0241  -20.8745  -10.9973 C   0  0  2  0  0  0  0  0  0  0  0  0
   24.7860  -20.3507  -12.0724 N   0  0  0  0  0  0  0  0  0  0  0  0
   22.5558  -20.8286  -11.2451 C   0  0  0  0  0  0  0  0  0  0  0  0
   21.6263  -21.3886  -10.3917 O   0  0  0  0  0  0  0  0  0  0  0  0
   22.1465  -20.2527  -12.2802 O   0  0  0  0  0  0  0  0  0  0  0  0
  2  1  1  1
  3  2  1  0
  4  6  1  0
  4  2  1  0
  4  5  1  1
  6  7  2  0
  9  8  1  1
  9 11  1  0
  9 10  1  0
 12 11  1  1
 13 12  1  0
 13  6  1  0
 14 12  1  0
 14 15  2  0
 17 16  1  1
 17 19  1  0
 18 17  1  0
 20 19  1  1
 20 21  1  0
 20 22  1  0
 21 14  1  0
 22 24  2  0
 22 23  1  0
M  END
$$$$
