VLL.pdb
     RDKit          3D

 24 23  0  0  1  0  0  0  0  0999 V2000
   21.3187  -22.6180  -12.5830 C   0  0  0  0  0  0  0  0  0  0  0  0
   21.5009  -21.1274  -12.7275 C   0  0  2  0  0  0  0  0  0  0  0  0
   20.2661  -20.5648  -13.4038 C   0  0  0  0  0  0  0  0  0  0  0  0
   22.6889  -20.8233  -13.6222 C   0  0  2  0  0  0  0  0  0  0  0  0
   22.4306  -21.4297  -14.9109 N   0  0  0  0  0  0  0  0  0  0  0  0
   23.9606  -21.3144  -13.0755 C   0  0  0  0  0  0  0  0  0  0  0  0
   24.2060  -22.5390  -13.0666 O   0  0  0  0  0  0  0  0  0  0  0  0
   28.9208  -19.1118  -13.7920 C   0  0  0  0  0  0  0  0  0  0  0  0
   27.6997  -20.0617  -13.7146 C   0  0  1  0  0  0  0  0  0  0  0  0
   28.2357  -21.3849  -14.2475 C   0  0  0  0  0  0  0  0  0  0  0  0
   27.3322  -20.1201  -12.2809 C   0  0  0  0  0  0  0  0  0  0  0  0
   26.1450  -20.9162  -11.8877 C   0  0  2  0  0  0  0  0  0  0  0  0
   24.9678  -20.4639  -12.5366 N   0  0  0  0  0  0  0  0  0  0  0  0
   26.0022  -21.1150  -10.4334 C   0  0  0  0  0  0  0  0  0  0  0  0
   24.9630  -21.5472   -9.8701 O   0  0  0  0  0  0  0  0  0  0  0  0
   27.6062  -19.1287   -5.5767 C   0  0  0  0  0  0  0  0  0  0  0  0
   28.1281  -20.5326   -5.8822 C   0  0  2  0  0  0  0  0  0  0  0  0
   29.4346  -20.7205   -5.1599 C   0  0  0  0  0  0  0  0  0  0  0  0
   28.2847  -20.7328   -7.3614 C   0  0  0  0  0  0  0  0  0  0  0  0
   27.0347  -20.9061   -8.1321 C   0  0  2  0  0  0  0  0  0  0  0  0
   27.0929  -20.8112   -9.5457 N   0  0  0  0  0  0  0  0  0  0  0  0
   25.9942  -20.0263   -7.5299 C   0  0  0  0  0  0  0  0  0  0  0  0
   25.5012  -18.8990   -8.1562 O   0  0  0  0  0  0  0  0  0  0  0  0
   25.5456  -20.3263   -6.3988 O   0  0  0  0  0  0  0  0  0  0  0  0
  2  1  1  6
  3  2  1  0
  4  6  1  0
  4  2  1  0
  4  5  1  6
  6  7  2  0
  9  8  1  1
  9 11  1  0
  9 10  1  0
 12 11  1  1
 13 12  1  0
 13  6  1  0
 14 12  1  0
 14 15  2  0
 17 16  1  6
 17 19  1  0
 18 17  1  0
 20 19  1  1
 20 21  1  0
 20 22  1  0
 21 14  1  0
 22 24  2  0
 22 23  1  0
M  END
$$$$
