VLL.pdb
     RDKit          3D

 24 23  0  0  1  0  0  0  0  0999 V2000
   24.8713  -21.1430   -7.7486 C   0  0  0  0  0  0  0  0  0  0  0  0
   25.6241  -20.4934   -8.8831 C   0  0  2  0  0  0  0  0  0  0  0  0
   26.3725  -19.2971   -8.3286 C   0  0  0  0  0  0  0  0  0  0  0  0
   24.6574  -19.9788   -9.9343 C   0  0  2  0  0  0  0  0  0  0  0  0
   23.3982  -20.6665   -9.7425 N   0  0  0  0  0  0  0  0  0  0  0  0
   25.1412  -20.1785  -11.3067 C   0  0  0  0  0  0  0  0  0  0  0  0
   26.1703  -19.5894  -11.6988 O   0  0  0  0  0  0  0  0  0  0  0  0
   26.8275  -23.0068  -15.2685 C   0  0  0  0  0  0  0  0  0  0  0  0
   25.2807  -23.0487  -15.3401 C   0  0  1  0  0  0  0  0  0  0  0  0
   24.9729  -24.5023  -15.6784 C   0  0  0  0  0  0  0  0  0  0  0  0
   24.8099  -22.6548  -13.9921 C   0  0  0  0  0  0  0  0  0  0  0  0
   24.9441  -21.2361  -13.5835 C   0  0  2  0  0  0  0  0  0  0  0  0
   24.4977  -21.0252  -12.2539 N   0  0  0  0  0  0  0  0  0  0  0  0
   24.4169  -20.2695  -14.5648 C   0  0  0  0  0  0  0  0  0  0  0  0
   23.2048  -19.9475  -14.6701 O   0  0  0  0  0  0  0  0  0  0  0  0
   25.5877  -15.9634  -14.8649 C   0  0  0  0  0  0  0  0  0  0  0  0
   26.5910  -16.8424  -15.6116 C   0  0  2  0  0  0  0  0  0  0  0  0
   27.7184  -15.9706  -16.0941 C   0  0  0  0  0  0  0  0  0  0  0  0
   25.9266  -17.5608  -16.7497 C   0  0  0  0  0  0  0  0  0  0  0  0
   24.9199  -18.5786  -16.3797 C   0  0  2  0  0  0  0  0  0  0  0  0
   25.3019  -19.6168  -15.4926 N   0  0  0  0  0  0  0  0  0  0  0  0
   24.2897  -19.0827  -17.6320 C   0  0  0  0  0  0  0  0  0  0  0  0
   23.5693  -18.2795  -18.4932 O   0  0  0  0  0  0  0  0  0  0  0  0
   24.4214  -20.2964  -17.9155 O   0  0  0  0  0  0  0  0  0  0  0  0
  2  1  1  1
  3  2  1  0
  4  6  1  0
  4  2  1  0
  4  5  1  6
  6  7  2  0
  9  8  1  1
  9 11  1  0
  9 10  1  0
 12 11  1  6
 13 12  1  0
 13  6  1  0
 14 12  1  0
 14 15  2  0
 17 16  1  6
 17 19  1  0
 18 17  1  0
 20 19  1  6
 20 21  1  0
 20 22  1  0
 21 14  1  0
 22 24  2  0
 22 23  1  0
M  END
$$$$
