VLL.pdb
     RDKit          3D

 24 23  0  0  1  0  0  0  0  0999 V2000
   28.8742  -18.5115  -15.2434 C   0  0  0  0  0  0  0  0  0  0  0  0
   27.6237  -19.1187  -14.6572 C   0  0  2  0  0  0  0  0  0  0  0  0
   26.8477  -18.0188  -13.9596 C   0  0  0  0  0  0  0  0  0  0  0  0
   27.9803  -20.1589  -13.6107 C   0  0  2  0  0  0  0  0  0  0  0  0
   28.8124  -21.1548  -14.2517 N   0  0  0  0  0  0  0  0  0  0  0  0
   26.8016  -20.7942  -13.0070 C   0  0  0  0  0  0  0  0  0  0  0  0
   26.1320  -21.6201  -13.6623 O   0  0  0  0  0  0  0  0  0  0  0  0
   26.2416  -19.0054   -8.6791 C   0  0  0  0  0  0  0  0  0  0  0  0
   26.3818  -20.5219   -8.9620 C   0  0  1  0  0  0  0  0  0  0  0  0
   26.5184  -21.1381   -7.5750 C   0  0  0  0  0  0  0  0  0  0  0  0
   25.1305  -20.9148   -9.6505 C   0  0  0  0  0  0  0  0  0  0  0  0
   25.1344  -20.9967  -11.1308 C   0  0  2  0  0  0  0  0  0  0  0  0
   26.3531  -20.5256  -11.6823 N   0  0  0  0  0  0  0  0  0  0  0  0
   23.9233  -20.4514  -11.7719 C   0  0  0  0  0  0  0  0  0  0  0  0
   23.6861  -19.2248  -11.9239 O   0  0  0  0  0  0  0  0  0  0  0  0
   22.3076  -19.6821  -15.7372 C   0  0  0  0  0  0  0  0  0  0  0  0
   22.3792  -21.1641  -15.3695 C   0  0  2  0  0  0  0  0  0  0  0  0
   22.0927  -21.9737  -16.6050 C   0  0  0  0  0  0  0  0  0  0  0  0
   21.4147  -21.4866  -14.2657 C   0  0  0  0  0  0  0  0  0  0  0  0
   21.7254  -20.9115  -12.9394 C   0  0  2  0  0  0  0  0  0  0  0  0
   22.9065  -21.3343  -12.2786 N   0  0  0  0  0  0  0  0  0  0  0  0
   20.5075  -21.0257  -12.0889 C   0  0  0  0  0  0  0  0  0  0  0  0
   19.2963  -20.4520  -12.4204 O   0  0  0  0  0  0  0  0  0  0  0  0
   20.5890  -21.6751  -11.0201 O   0  0  0  0  0  0  0  0  0  0  0  0
  2  1  1  1
  3  2  1  0
  4  6  1  0
  4  2  1  0
  4  5  1  6
  6  7  2  0
  9  8  1  1
  9 11  1  0
  9 10  1  0
 12 11  1  1
 13 12  1  0
 13  6  1  0
 14 12  1  0
 14 15  2  0
 17 16  1  6
 17 19  1  0
 18 17  1  0
 20 19  1  6
 20 21  1  0
 20 22  1  0
 21 14  1  0
 22 24  2  0
 22 23  1  0
M  END
$$$$
