VLL.pdb
     RDKit          3D

 24 23  0  0  1  0  0  0  0  0999 V2000
   24.1010  -21.2244  -15.3282 C   0  0  0  0  0  0  0  0  0  0  0  0
   23.4815  -22.4728  -14.7506 C   0  0  2  0  0  0  0  0  0  0  0  0
   22.0547  -22.5677  -15.2546 C   0  0  0  0  0  0  0  0  0  0  0  0
   23.4249  -22.3842  -13.2363 C   0  0  2  0  0  0  0  0  0  0  0  0
   22.4611  -21.3596  -12.8952 N   0  0  0  0  0  0  0  0  0  0  0  0
   24.7272  -22.0786  -12.6295 C   0  0  0  0  0  0  0  0  0  0  0  0
   25.6784  -22.8783  -12.7546 O   0  0  0  0  0  0  0  0  0  0  0  0
   28.0081  -18.2563  -13.6844 C   0  0  0  0  0  0  0  0  0  0  0  0
   27.2644  -19.5692  -13.3343 C   0  0  1  0  0  0  0  0  0  0  0  0
   28.2949  -20.6557  -13.6167 C   0  0  0  0  0  0  0  0  0  0  0  0
   26.9171  -19.4583  -11.8987 C   0  0  0  0  0  0  0  0  0  0  0  0
   26.2239  -20.5967  -11.2495 C   0  0  2  0  0  0  0  0  0  0  0  0
   24.9907  -20.8946  -11.8833 N   0  0  0  0  0  0  0  0  0  0  0  0
   26.1475  -20.5023   -9.7797 C   0  0  0  0  0  0  0  0  0  0  0  0
   25.0799  -20.3669   -9.1271 O   0  0  0  0  0  0  0  0  0  0  0  0
   28.1841  -21.3794   -4.7851 C   0  0  0  0  0  0  0  0  0  0  0  0
   28.9704  -21.4744   -6.0926 C   0  0  2  0  0  0  0  0  0  0  0  0
   30.4277  -21.6431   -5.7585 C   0  0  0  0  0  0  0  0  0  0  0  0
   28.7390  -20.2596   -6.9431 C   0  0  0  0  0  0  0  0  0  0  0  0
   27.4270  -20.1777   -7.6202 C   0  0  2  0  0  0  0  0  0  0  0  0
   27.3436  -20.5628   -8.9823 N   0  0  0  0  0  0  0  0  0  0  0  0
   26.8551  -18.8271   -7.3590 C   0  0  0  0  0  0  0  0  0  0  0  0
   26.7178  -17.8614   -8.3360 O   0  0  0  0  0  0  0  0  0  0  0  0
   26.4808  -18.5565   -6.1940 O   0  0  0  0  0  0  0  0  0  0  0  0
  2  1  1  6
  3  2  1  0
  4  6  1  0
  4  2  1  0
  4  5  1  6
  6  7  2  0
  9  8  1  1
  9 11  1  0
  9 10  1  0
 12 11  1  6
 13 12  1  0
 13  6  1  0
 14 12  1  0
 14 15  2  0
 17 16  1  1
 17 19  1  0
 18 17  1  0
 20 19  1  6
 20 21  1  0
 20 22  1  0
 21 14  1  0
 22 24  2  0
 22 23  1  0
M  END
$$$$
