VLL.pdb
     RDKit          3D

 24 23  0  0  1  0  0  0  0  0999 V2000
   19.5300  -15.2934  -16.9431 C   0  0  0  0  0  0  0  0  0  0  0  0
   18.4862  -14.4852  -17.6733 C   0  0  2  0  0  0  0  0  0  0  0  0
   17.8919  -15.3566  -18.7624 C   0  0  0  0  0  0  0  0  0  0  0  0
   19.1230  -13.2836  -18.3478 C   0  0  2  0  0  0  0  0  0  0  0  0
   19.9871  -13.7801  -19.3976 N   0  0  0  0  0  0  0  0  0  0  0  0
   19.8860  -12.4403  -17.4183 C   0  0  0  0  0  0  0  0  0  0  0  0
   19.3009  -11.8478  -16.4875 O   0  0  0  0  0  0  0  0  0  0  0  0
   25.1933  -13.4479  -15.9668 C   0  0  0  0  0  0  0  0  0  0  0  0
   23.6668  -13.2013  -15.8754 C   0  0  1  0  0  0  0  0  0  0  0  0
   23.3862  -13.2174  -14.3777 C   0  0  0  0  0  0  0  0  0  0  0  0
   23.4412  -11.8742  -16.4935 C   0  0  0  0  0  0  0  0  0  0  0  0
   22.0466  -11.3972  -16.6535 C   0  0  2  0  0  0  0  0  0  0  0  0
   21.2938  -12.2439  -17.5066 N   0  0  0  0  0  0  0  0  0  0  0  0
   21.9284   -9.9597  -16.9613 C   0  0  0  0  0  0  0  0  0  0  0  0
   22.0169   -9.4668  -18.1159 O   0  0  0  0  0  0  0  0  0  0  0  0
   18.3318   -5.7201  -17.5135 C   0  0  0  0  0  0  0  0  0  0  0  0
   19.7909   -5.9040  -17.0967 C   0  0  2  0  0  0  0  0  0  0  0  0
   20.6678   -5.3043  -18.1622 C   0  0  0  0  0  0  0  0  0  0  0  0
   20.1045   -7.3557  -16.8801 C   0  0  0  0  0  0  0  0  0  0  0  0
   21.3342   -7.6501  -16.1137 C   0  0  2  0  0  0  0  0  0  0  0  0
   21.6957   -9.0060  -15.9096 N   0  0  0  0  0  0  0  0  0  0  0  0
   21.2928   -6.8602  -14.8513 C   0  0  0  0  0  0  0  0  0  0  0  0
   21.2915   -5.4799  -14.8218 O   0  0  0  0  0  0  0  0  0  0  0  0
   21.2576   -7.4816  -13.7634 O   0  0  0  0  0  0  0  0  0  0  0  0
  2  1  1  6
  3  2  1  0
  4  6  1  0
  4  2  1  0
  4  5  1  6
  6  7  2  0
  9  8  1  1
  9 11  1  0
  9 10  1  0
 12 11  1  6
 13 12  1  0
 13  6  1  0
 14 12  1  0
 14 15  2  0
 17 16  1  6
 17 19  1  0
 18 17  1  0
 20 19  1  1
 20 21  1  0
 20 22  1  0
 21 14  1  0
 22 24  2  0
 22 23  1  0
M  END
$$$$
