VLL.pdb
     RDKit          3D

 24 23  0  0  1  0  0  0  0  0999 V2000
    9.3546  -24.9086   -2.2443 C   0  0  0  0  0  0  0  0  0  0  0  0
   10.6681  -25.5792   -1.9263 C   0  0  2  0  0  0  0  0  0  0  0  0
   11.1631  -25.0406   -0.5983 C   0  0  0  0  0  0  0  0  0  0  0  0
   11.7083  -25.2309   -2.9755 C   0  0  2  0  0  0  0  0  0  0  0  0
   11.2061  -25.6849   -4.2549 N   0  0  0  0  0  0  0  0  0  0  0  0
   13.0215  -25.8302   -2.7037 C   0  0  0  0  0  0  0  0  0  0  0  0
   13.1469  -27.0724   -2.6694 O   0  0  0  0  0  0  0  0  0  0  0  0
   17.8850  -24.9754   -4.8873 C   0  0  0  0  0  0  0  0  0  0  0  0
   16.6613  -25.6857   -4.2569 C   0  0  1  0  0  0  0  0  0  0  0  0
   17.0307  -27.1630   -4.3142 C   0  0  0  0  0  0  0  0  0  0  0  0
   16.5686  -25.1644   -2.8736 C   0  0  0  0  0  0  0  0  0  0  0  0
   15.4365  -25.6084   -2.0257 C   0  0  2  0  0  0  0  0  0  0  0  0
   14.2019  -25.0689   -2.4687 N   0  0  0  0  0  0  0  0  0  0  0  0
   15.6753  -25.4760   -0.5764 C   0  0  0  0  0  0  0  0  0  0  0  0
   16.6786  -25.9373    0.0274 O   0  0  0  0  0  0  0  0  0  0  0  0
   16.9426  -22.1887    2.1166 C   0  0  0  0  0  0  0  0  0  0  0  0
   15.5044  -22.2413    1.6015 C   0  0  2  0  0  0  0  0  0  0  0  0
   14.8697  -20.8961    1.8286 C   0  0  0  0  0  0  0  0  0  0  0  0
   14.7338  -23.3342    2.2830 C   0  0  0  0  0  0  0  0  0  0  0  0
   14.8230  -24.6761    1.6685 C   0  0  2  0  0  0  0  0  0  0  0  0
   14.7307  -24.7814    0.2575 N   0  0  0  0  0  0  0  0  0  0  0  0
   13.8767  -25.5767    2.3846 C   0  0  0  0  0  0  0  0  0  0  0  0
   13.8753  -25.7370    3.7559 O   0  0  0  0  0  0  0  0  0  0  0  0
   13.0414  -26.2197    1.7066 O   0  0  0  0  0  0  0  0  0  0  0  0
  2  1  1  6
  3  2  1  0
  4  6  1  0
  4  2  1  0
  4  5  1  6
  6  7  2  0
  9  8  1  6
  9 11  1  0
  9 10  1  0
 12 11  1  6
 13 12  1  0
 13  6  1  0
 14 12  1  0
 14 15  2  0
 17 16  1  1
 17 19  1  0
 18 17  1  0
 20 19  1  6
 20 21  1  0
 20 22  1  0
 21 14  1  0
 22 24  2  0
 22 23  1  0
M  END
$$$$
