VLL.pdb
     RDKit          3D

 24 23  0  0  1  0  0  0  0  0999 V2000
   13.4580  -25.2832   -2.6009 C   0  0  0  0  0  0  0  0  0  0  0  0
   12.8944  -23.8937   -2.7672 C   0  0  2  0  0  0  0  0  0  0  0  0
   12.3146  -23.7841   -4.1638 C   0  0  0  0  0  0  0  0  0  0  0  0
   13.9970  -22.8572   -2.6490 C   0  0  2  0  0  0  0  0  0  0  0  0
   14.8418  -22.9842   -3.8175 N   0  0  0  0  0  0  0  0  0  0  0  0
   14.7965  -23.0056   -1.4258 C   0  0  0  0  0  0  0  0  0  0  0  0
   15.9091  -23.5713   -1.4708 O   0  0  0  0  0  0  0  0  0  0  0  0
   15.2264  -19.4808    3.0459 C   0  0  0  0  0  0  0  0  0  0  0  0
   15.7443  -20.4479    1.9523 C   0  0  1  0  0  0  0  0  0  0  0  0
   17.1795  -20.7373    2.3748 C   0  0  0  0  0  0  0  0  0  0  0  0
   14.8665  -21.6387    2.0271 C   0  0  0  0  0  0  0  0  0  0  0  0
   15.0881  -22.7415    1.0614 C   0  0  2  0  0  0  0  0  0  0  0  0
   14.3782  -22.5340   -0.1487 N   0  0  0  0  0  0  0  0  0  0  0  0
   14.9338  -24.0912    1.6357 C   0  0  0  0  0  0  0  0  0  0  0  0
   14.1746  -24.9819    1.1729 O   0  0  0  0  0  0  0  0  0  0  0  0
   16.8450  -28.6906    4.1229 C   0  0  0  0  0  0  0  0  0  0  0  0
   15.6784  -28.2753    3.2267 C   0  0  2  0  0  0  0  0  0  0  0  0
   15.4724  -29.3457    2.1897 C   0  0  0  0  0  0  0  0  0  0  0  0
   15.9420  -26.9404    2.5932 C   0  0  0  0  0  0  0  0  0  0  0  0
   15.6225  -25.7537    3.4154 C   0  0  2  0  0  0  0  0  0  0  0  0
   15.6770  -24.4743    2.8065 N   0  0  0  0  0  0  0  0  0  0  0  0
   16.4153  -25.8358    4.6741 C   0  0  0  0  0  0  0  0  0  0  0  0
   17.6141  -25.1762    4.8580 O   0  0  0  0  0  0  0  0  0  0  0  0
   15.9700  -26.5391    5.6110 O   0  0  0  0  0  0  0  0  0  0  0  0
  2  1  1  6
  3  2  1  0
  4  6  1  0
  4  2  1  0
  4  5  1  6
  6  7  2  0
  9  8  1  1
  9 11  1  0
  9 10  1  0
 12 11  1  1
 13 12  1  0
 13  6  1  0
 14 12  1  0
 14 15  2  0
 17 16  1  1
 17 19  1  0
 18 17  1  0
 20 19  1  6
 20 21  1  0
 20 22  1  0
 21 14  1  0
 22 24  2  0
 22 23  1  0
M  END
$$$$
