VPW.pdb
     RDKit          3D

 29 31  0  0  1  0  0  0  0  0999 V2000
   16.4458  -18.1674    2.7523 C   0  0  0  0  0  0  0  0  0  0  0  0
   14.9411  -18.3120    2.5642 C   0  0  2  0  0  0  0  0  0  0  0  0
   14.3039  -17.8317    3.8439 C   0  0  0  0  0  0  0  0  0  0  0  0
   14.6729  -19.8103    2.3497 C   0  0  2  0  0  0  0  0  0  0  0  0
   13.3075  -19.9172    1.9674 N   0  0  0  0  0  0  0  0  0  0  0  0
   15.0717  -20.4795    3.5828 C   0  0  0  0  0  0  0  0  0  0  0  0
   14.1909  -20.4527    4.5194 O   0  0  0  0  0  0  0  0  0  0  0  0
   16.2774  -21.1399    3.8740 N   0  0  0  0  0  0  0  0  0  0  0  0
   17.4181  -21.4035    3.0355 C   0  0  0  0  0  0  0  0  0  0  0  0
   17.6792  -22.8807    3.3759 C   0  0  0  0  0  0  0  0  0  0  0  0
   17.7074  -22.7485    4.9059 C   0  0  0  0  0  0  0  0  0  0  0  0
   16.6277  -21.7135    5.1666 C   0  0  1  0  0  0  0  0  0  0  0  0
   17.1471  -20.6793    6.0805 C   0  0  0  0  0  0  0  0  0  0  0  0
   17.7733  -19.6594    5.7139 O   0  0  0  0  0  0  0  0  0  0  0  0
   16.9272  -20.8405    7.4969 N   0  0  0  0  0  0  0  0  0  0  0  0
   17.2437  -19.8082    8.4236 C   0  0  1  0  0  0  0  0  0  0  0  0
   16.1666  -18.9210    8.8799 C   0  0  0  0  0  0  0  0  0  0  0  0
   15.0853  -19.4896    9.6905 C   0  0  0  0  0  0  0  0  0  0  0  0
   15.1074  -20.2357   10.8317 C   0  0  0  0  0  0  0  0  0  0  0  0
   13.8455  -20.4989   11.1896 N   0  0  0  0  0  0  0  0  0  0  0  0
   13.0083  -19.9384   10.3033 C   0  0  0  0  0  0  0  0  0  0  0  0
   11.6238  -19.8965   10.1933 C   0  0  0  0  0  0  0  0  0  0  0  0
   10.9858  -19.2283    9.1517 C   0  0  0  0  0  0  0  0  0  0  0  0
   11.7424  -18.5882    8.1997 C   0  0  0  0  0  0  0  0  0  0  0  0
   13.1156  -18.6304    8.3098 C   0  0  0  0  0  0  0  0  0  0  0  0
   13.7408  -19.3030    9.3579 C   0  0  0  0  0  0  0  0  0  0  0  0
   17.8969  -20.4625    9.6154 C   0  0  0  0  0  0  0  0  0  0  0  0
   17.8967  -21.6986    9.7981 O   0  0  0  0  0  0  0  0  0  0  0  0
   18.5379  -19.6857   10.5748 O   0  0  0  0  0  0  0  0  0  0  0  0
  2  1  1  1
  2  3  1  0
  4  2  1  0
  4  5  1  1
  6  4  1  0
  6  7  2  0
  8  6  1  0
  9  8  1  0
 10  9  1  0
 11 10  1  0
 11 12  1  0
 12  8  1  0
 12 13  1  1
 13 14  2  0
 15 13  1  0
 16 15  1  0
 16 17  1  1
 17 18  1  0
 18 26  1  0
 18 19  2  0
 19 20  1  0
 21 22  2  0
 21 20  1  0
 23 22  1  0
 24 23  2  0
 25 24  1  0
 25 26  2  0
 26 21  1  0
 27 16  1  0
 28 27  2  0
 29 27  1  0
M  END
$$$$
