VPW.pdb
     RDKit          3D

 29 31  0  0  1  0  0  0  0  0999 V2000
   16.3847  -21.8586    1.0487 C   0  0  0  0  0  0  0  0  0  0  0  0
   15.3266  -22.9246    1.3029 C   0  0  2  0  0  0  0  0  0  0  0  0
   15.5379  -23.9918    0.2584 C   0  0  0  0  0  0  0  0  0  0  0  0
   13.9647  -22.2376    1.1136 C   0  0  2  0  0  0  0  0  0  0  0  0
   13.9199  -21.8148   -0.2434 N   0  0  0  0  0  0  0  0  0  0  0  0
   13.8823  -21.2002    2.1355 C   0  0  0  0  0  0  0  0  0  0  0  0
   13.7933  -20.0010    1.6798 O   0  0  0  0  0  0  0  0  0  0  0  0
   13.8879  -21.3414    3.5336 N   0  0  0  0  0  0  0  0  0  0  0  0
   13.8718  -22.5294    4.3472 C   0  0  0  0  0  0  0  0  0  0  0  0
   12.8036  -22.1429    5.3844 C   0  0  0  0  0  0  0  0  0  0  0  0
   13.3871  -20.7842    5.7998 C   0  0  0  0  0  0  0  0  0  0  0  0
   13.9213  -20.2402    4.4870 C   0  0  1  0  0  0  0  0  0  0  0  0
   15.2988  -19.7506    4.6807 C   0  0  0  0  0  0  0  0  0  0  0  0
   16.3276  -20.3730    4.3331 O   0  0  0  0  0  0  0  0  0  0  0  0
   15.4898  -18.4686    5.3134 N   0  0  0  0  0  0  0  0  0  0  0  0
   16.7884  -17.9277    5.5269 C   0  0  1  0  0  0  0  0  0  0  0  0
   17.3772  -17.0834    4.4800 C   0  0  0  0  0  0  0  0  0  0  0  0
   17.1997  -15.6306    4.5678 C   0  0  0  0  0  0  0  0  0  0  0  0
   16.3443  -14.8675    5.3063 C   0  0  0  0  0  0  0  0  0  0  0  0
   16.5873  -13.5796    5.0381 N   0  0  0  0  0  0  0  0  0  0  0  0
   17.5821  -13.4946    4.1416 C   0  0  0  0  0  0  0  0  0  0  0  0
   18.2233  -12.4263    3.5265 C   0  0  0  0  0  0  0  0  0  0  0  0
   19.2544  -12.6126    2.6097 C   0  0  0  0  0  0  0  0  0  0  0  0
   19.6555  -13.8897    2.2989 C   0  0  0  0  0  0  0  0  0  0  0  0
   19.0189  -14.9486    2.9097 C   0  0  0  0  0  0  0  0  0  0  0  0
   17.9883  -14.7472    3.8256 C   0  0  0  0  0  0  0  0  0  0  0  0
   16.7460  -17.1632    6.8265 C   0  0  0  0  0  0  0  0  0  0  0  0
   15.6797  -16.8600    7.4031 O   0  0  0  0  0  0  0  0  0  0  0  0
   17.9281  -16.7614    7.4397 O   0  0  0  0  0  0  0  0  0  0  0  0
  2  1  1  6
  2  3  1  0
  4  2  1  0
  4  5  1  6
  6  4  1  0
  6  7  2  0
  8  6  1  0
  9  8  1  0
 10  9  1  0
 11 10  1  0
 11 12  1  0
 12  8  1  0
 12 13  1  1
 13 14  2  0
 15 13  1  0
 16 15  1  0
 16 17  1  6
 17 18  1  0
 18 26  1  0
 18 19  2  0
 19 20  1  0
 21 22  2  0
 21 20  1  0
 23 22  1  0
 24 23  2  0
 25 24  1  0
 25 26  2  0
 26 21  1  0
 27 16  1  0
 28 27  2  0
 29 27  1  0
M  END
$$$$
