VPW.pdb
     RDKit          3D

 29 31  0  0  1  0  0  0  0  0999 V2000
   16.1074  -18.0799    1.6488 C   0  0  0  0  0  0  0  0  0  0  0  0
   16.4893  -18.1451    3.1221 C   0  0  2  0  0  0  0  0  0  0  0  0
   17.3459  -16.9340    3.3939 C   0  0  0  0  0  0  0  0  0  0  0  0
   17.2998  -19.4386    3.3031 C   0  0  2  0  0  0  0  0  0  0  0  0
   16.5074  -20.4826    2.7515 N   0  0  0  0  0  0  0  0  0  0  0  0
   17.6199  -19.5273    4.7233 C   0  0  0  0  0  0  0  0  0  0  0  0
   16.7143  -20.0854    5.4458 O   0  0  0  0  0  0  0  0  0  0  0  0
   18.7743  -19.0875    5.3931 N   0  0  0  0  0  0  0  0  0  0  0  0
   19.9212  -18.3727    4.8958 C   0  0  0  0  0  0  0  0  0  0  0  0
   21.0572  -19.1822    5.5441 C   0  0  0  0  0  0  0  0  0  0  0  0
   20.5453  -19.1520    6.9919 C   0  0  0  0  0  0  0  0  0  0  0  0
   19.0430  -19.2768    6.8125 C   0  0  1  0  0  0  0  0  0  0  0  0
   18.3631  -18.2479    7.6209 C   0  0  0  0  0  0  0  0  0  0  0  0
   18.3412  -18.2300    8.8723 O   0  0  0  0  0  0  0  0  0  0  0  0
   17.6707  -17.1832    6.9372 N   0  0  0  0  0  0  0  0  0  0  0  0
   17.0135  -16.1418    7.6499 C   0  0  1  0  0  0  0  0  0  0  0  0
   17.7395  -14.8880    7.8874 C   0  0  0  0  0  0  0  0  0  0  0  0
   17.9859  -13.9940    6.7517 C   0  0  0  0  0  0  0  0  0  0  0  0
   17.2794  -13.7711    5.6068 C   0  0  0  0  0  0  0  0  0  0  0  0
   17.9206  -12.8427    4.8880 N   0  0  0  0  0  0  0  0  0  0  0  0
   19.0269  -12.4610    5.5446 C   0  0  0  0  0  0  0  0  0  0  0  0
   20.0346  -11.5463    5.2646 C   0  0  0  0  0  0  0  0  0  0  0  0
   21.0993  -11.3310    6.1356 C   0  0  0  0  0  0  0  0  0  0  0  0
   21.1617  -12.0414    7.3102 C   0  0  0  0  0  0  0  0  0  0  0  0
   20.1615  -12.9485    7.5870 C   0  0  0  0  0  0  0  0  0  0  0  0
   19.1017  -13.1537    6.7059 C   0  0  0  0  0  0  0  0  0  0  0  0
   15.7242  -15.8481    6.9240 C   0  0  0  0  0  0  0  0  0  0  0  0
   15.4987  -16.2305    5.7559 O   0  0  0  0  0  0  0  0  0  0  0  0
   14.7185  -15.1213    7.5523 O   0  0  0  0  0  0  0  0  0  0  0  0
  2  1  1  6
  2  3  1  0
  4  2  1  0
  4  5  1  1
  6  4  1  0
  6  7  2  0
  8  6  1  0
  9  8  1  0
 10  9  1  0
 11 10  1  0
 11 12  1  0
 12  8  1  0
 12 13  1  1
 13 14  2  0
 15 13  1  0
 16 15  1  0
 16 17  1  6
 17 18  1  0
 18 26  1  0
 18 19  2  0
 19 20  1  0
 21 22  2  0
 21 20  1  0
 23 22  1  0
 24 23  2  0
 25 24  1  0
 25 26  2  0
 26 21  1  0
 27 16  1  0
 28 27  2  0
 29 27  1  0
M  END
$$$$
