VPW.pdb
     RDKit          3D

 29 31  0  0  1  0  0  0  0  0999 V2000
   12.7940  -22.3896   -7.9233 C   0  0  0  0  0  0  0  0  0  0  0  0
   12.7766  -22.3116   -6.4021 C   0  0  2  0  0  0  0  0  0  0  0  0
   14.2155  -22.3807   -5.9556 C   0  0  0  0  0  0  0  0  0  0  0  0
   11.9939  -23.5410   -5.9138 C   0  0  2  0  0  0  0  0  0  0  0  0
   10.6972  -23.4385   -6.4881 N   0  0  0  0  0  0  0  0  0  0  0  0
   12.0781  -23.5299   -4.4577 C   0  0  0  0  0  0  0  0  0  0  0  0
   11.2937  -22.6910   -3.8791 O   0  0  0  0  0  0  0  0  0  0  0  0
   12.8947  -24.3069   -3.6186 N   0  0  0  0  0  0  0  0  0  0  0  0
   13.8612  -25.3234   -3.9450 C   0  0  0  0  0  0  0  0  0  0  0  0
   13.4805  -26.4087   -2.9235 C   0  0  0  0  0  0  0  0  0  0  0  0
   13.4970  -25.5333   -1.6615 C   0  0  0  0  0  0  0  0  0  0  0  0
   12.9258  -24.2197   -2.1646 C   0  0  1  0  0  0  0  0  0  0  0  0
   13.7848  -23.1065   -1.7202 C   0  0  0  0  0  0  0  0  0  0  0  0
   14.7144  -22.6143   -2.3986 O   0  0  0  0  0  0  0  0  0  0  0  0
   13.5506  -22.5359   -0.4164 N   0  0  0  0  0  0  0  0  0  0  0  0
   14.1952  -21.3381    0.0009 C   0  0  1  0  0  0  0  0  0  0  0  0
   13.7404  -20.0626   -0.5662 C   0  0  0  0  0  0  0  0  0  0  0  0
   12.3720  -19.6178   -0.2845 C   0  0  0  0  0  0  0  0  0  0  0  0
   11.6664  -19.5464    0.8803 C   0  0  0  0  0  0  0  0  0  0  0  0
   10.4513  -19.0567    0.6095 N   0  0  0  0  0  0  0  0  0  0  0  0
   10.3569  -18.8102   -0.7062 C   0  0  0  0  0  0  0  0  0  0  0  0
    9.3431  -18.3066   -1.5121 C   0  0  0  0  0  0  0  0  0  0  0  0
    9.5040  -18.1432   -2.8853 C   0  0  0  0  0  0  0  0  0  0  0  0
   10.6995  -18.4883   -3.4683 C   0  0  0  0  0  0  0  0  0  0  0  0
   11.7044  -18.9876   -2.6680 C   0  0  0  0  0  0  0  0  0  0  0  0
   11.5294  -19.1459   -1.2947 C   0  0  0  0  0  0  0  0  0  0  0  0
   14.1035  -21.2821    1.5055 C   0  0  0  0  0  0  0  0  0  0  0  0
   13.3630  -22.0374    2.1706 O   0  0  0  0  0  0  0  0  0  0  0  0
   14.8635  -20.3604    2.2180 O   0  0  0  0  0  0  0  0  0  0  0  0
  2  1  1  6
  2  3  1  0
  4  2  1  0
  4  5  1  1
  6  4  1  0
  6  7  2  0
  8  6  1  0
  9  8  1  0
 10  9  1  0
 11 10  1  0
 11 12  1  0
 12  8  1  0
 12 13  1  6
 13 14  2  0
 15 13  1  0
 16 15  1  0
 16 17  1  6
 17 18  1  0
 18 26  1  0
 18 19  2  0
 19 20  1  0
 21 22  2  0
 21 20  1  0
 23 22  1  0
 24 23  2  0
 25 24  1  0
 25 26  2  0
 26 21  1  0
 27 16  1  0
 28 27  2  0
 29 27  1  0
M  END
$$$$
