VPW.pdb
     RDKit          3D

 29 31  0  0  1  0  0  0  0  0999 V2000
   27.2587  -17.2892  -16.5135 C   0  0  0  0  0  0  0  0  0  0  0  0
   26.8082  -17.7739  -15.1414 C   0  0  2  0  0  0  0  0  0  0  0  0
   27.9778  -18.5182  -14.5476 C   0  0  0  0  0  0  0  0  0  0  0  0
   25.6238  -18.7230  -15.3842 C   0  0  2  0  0  0  0  0  0  0  0  0
   24.6534  -17.9698  -16.1005 N   0  0  0  0  0  0  0  0  0  0  0  0
   25.2332  -19.2357  -14.0757 C   0  0  0  0  0  0  0  0  0  0  0  0
   24.6524  -18.3787  -13.3129 O   0  0  0  0  0  0  0  0  0  0  0  0
   25.4080  -20.5270  -13.5498 N   0  0  0  0  0  0  0  0  0  0  0  0
   25.9439  -21.7148  -14.1627 C   0  0  0  0  0  0  0  0  0  0  0  0
   24.8979  -22.7527  -13.7214 C   0  0  0  0  0  0  0  0  0  0  0  0
   24.9066  -22.4426  -12.2172 C   0  0  0  0  0  0  0  0  0  0  0  0
   25.0649  -20.9329  -12.1933 C   0  0  1  0  0  0  0  0  0  0  0  0
   26.1327  -20.5644  -11.2454 C   0  0  0  0  0  0  0  0  0  0  0  0
   27.3434  -20.4629  -11.5463 O   0  0  0  0  0  0  0  0  0  0  0  0
   25.7732  -20.3009   -9.8736 N   0  0  0  0  0  0  0  0  0  0  0  0
   26.7571  -20.0216   -8.8846 C   0  0  1  0  0  0  0  0  0  0  0  0
   26.4305  -19.0632   -7.8214 C   0  0  0  0  0  0  0  0  0  0  0  0
   27.4855  -18.6713   -6.8817 C   0  0  0  0  0  0  0  0  0  0  0  0
   28.4072  -17.6672   -6.9249 C   0  0  0  0  0  0  0  0  0  0  0  0
   29.1451  -17.7220   -5.8103 N   0  0  0  0  0  0  0  0  0  0  0  0
   28.7194  -18.7408   -5.0478 C   0  0  0  0  0  0  0  0  0  0  0  0
   29.1179  -19.2403   -3.8139 C   0  0  0  0  0  0  0  0  0  0  0  0
   28.4939  -20.3366   -3.2247 C   0  0  0  0  0  0  0  0  0  0  0  0
   27.4511  -20.9484   -3.8778 C   0  0  0  0  0  0  0  0  0  0  0  0
   27.0566  -20.4521   -5.1017 C   0  0  0  0  0  0  0  0  0  0  0  0
   27.6903  -19.3539   -5.6795 C   0  0  0  0  0  0  0  0  0  0  0  0
   27.1593  -21.3390   -8.2697 C   0  0  0  0  0  0  0  0  0  0  0  0
   26.3325  -22.2133   -7.9330 O   0  0  0  0  0  0  0  0  0  0  0  0
   28.5025  -21.6278   -8.0529 O   0  0  0  0  0  0  0  0  0  0  0  0
  2  1  1  6
  2  3  1  0
  4  2  1  0
  4  5  1  1
  6  4  1  0
  6  7  2  0
  8  6  1  0
  9  8  1  0
 10  9  1  0
 11 10  1  0
 11 12  1  0
 12  8  1  0
 12 13  1  1
 13 14  2  0
 15 13  1  0
 16 15  1  0
 16 17  1  1
 17 18  1  0
 18 26  1  0
 18 19  2  0
 19 20  1  0
 21 22  2  0
 21 20  1  0
 23 22  1  0
 24 23  2  0
 25 24  1  0
 25 26  2  0
 26 21  1  0
 27 16  1  0
 28 27  2  0
 29 27  1  0
M  END
$$$$
