VPW.pdb
     RDKit          3D

 29 31  0  0  1  0  0  0  0  0999 V2000
   28.2750  -16.6858  -16.2914 C   0  0  0  0  0  0  0  0  0  0  0  0
   27.6047  -17.6582  -15.3292 C   0  0  2  0  0  0  0  0  0  0  0  0
   28.6931  -18.1814  -14.4257 C   0  0  0  0  0  0  0  0  0  0  0  0
   27.0210  -18.7886  -16.1918 C   0  0  2  0  0  0  0  0  0  0  0  0
   26.1917  -18.1593  -17.1605 N   0  0  0  0  0  0  0  0  0  0  0  0
   26.3778  -19.7183  -15.2701 C   0  0  0  0  0  0  0  0  0  0  0  0
   25.2512  -19.3162  -14.7982 O   0  0  0  0  0  0  0  0  0  0  0  0
   26.8252  -20.9784  -14.8383 N   0  0  0  0  0  0  0  0  0  0  0  0
   28.0286  -21.6988  -15.1648 C   0  0  0  0  0  0  0  0  0  0  0  0
   27.4513  -23.0989  -15.4344 C   0  0  0  0  0  0  0  0  0  0  0  0
   26.6426  -23.2528  -14.1376 C   0  0  0  0  0  0  0  0  0  0  0  0
   26.1132  -21.8480  -13.9113 C   0  0  1  0  0  0  0  0  0  0  0  0
   26.3613  -21.4472  -12.5141 C   0  0  0  0  0  0  0  0  0  0  0  0
   27.4631  -21.5569  -11.9303 O   0  0  0  0  0  0  0  0  0  0  0  0
   25.2690  -20.8897  -11.7547 N   0  0  0  0  0  0  0  0  0  0  0  0
   25.1874  -21.0422  -10.3424 C   0  0  1  0  0  0  0  0  0  0  0  0
   26.2846  -20.5234   -9.5164 C   0  0  0  0  0  0  0  0  0  0  0  0
   26.1114  -20.4890   -8.0609 C   0  0  0  0  0  0  0  0  0  0  0  0
   25.0860  -20.9022   -7.2626 C   0  0  0  0  0  0  0  0  0  0  0  0
   25.4179  -20.6619   -5.9891 N   0  0  0  0  0  0  0  0  0  0  0  0
   26.6366  -20.1020   -5.9479 C   0  0  0  0  0  0  0  0  0  0  0  0
   27.4489  -19.6602   -4.9107 C   0  0  0  0  0  0  0  0  0  0  0  0
   28.7042  -19.1038   -5.1415 C   0  0  0  0  0  0  0  0  0  0  0  0
   29.1602  -18.9850   -6.4323 C   0  0  0  0  0  0  0  0  0  0  0  0
   28.3537  -19.4235   -7.4604 C   0  0  0  0  0  0  0  0  0  0  0  0
   27.0994  -19.9784   -7.2146 C   0  0  0  0  0  0  0  0  0  0  0  0
   23.8860  -20.4207   -9.9003 C   0  0  0  0  0  0  0  0  0  0  0  0
   23.2480  -19.6066  -10.6013 O   0  0  0  0  0  0  0  0  0  0  0  0
   23.3418  -20.7453   -8.6621 O   0  0  0  0  0  0  0  0  0  0  0  0
  2  1  1  6
  2  3  1  0
  4  2  1  0
  4  5  1  6
  6  4  1  0
  6  7  2  0
  8  6  1  0
  9  8  1  0
 10  9  1  0
 11 10  1  0
 11 12  1  0
 12  8  1  0
 12 13  1  1
 13 14  2  0
 15 13  1  0
 16 15  1  0
 16 17  1  1
 17 18  1  0
 18 26  1  0
 18 19  2  0
 19 20  1  0
 21 22  2  0
 21 20  1  0
 23 22  1  0
 24 23  2  0
 25 24  1  0
 25 26  2  0
 26 21  1  0
 27 16  1  0
 28 27  2  0
 29 27  1  0
M  END
$$$$
