VPW.pdb
     RDKit          3D

 29 31  0  0  1  0  0  0  0  0999 V2000
   24.0561  -22.9210  -15.3789 C   0  0  0  0  0  0  0  0  0  0  0  0
   24.5589  -21.7457  -16.2074 C   0  0  2  0  0  0  0  0  0  0  0  0
   23.8780  -21.8483  -17.5492 C   0  0  0  0  0  0  0  0  0  0  0  0
   26.0777  -21.9342  -16.3503 C   0  0  2  0  0  0  0  0  0  0  0  0
   26.2636  -23.2116  -16.9468 N   0  0  0  0  0  0  0  0  0  0  0  0
   26.6434  -21.7334  -15.0209 C   0  0  0  0  0  0  0  0  0  0  0  0
   27.0202  -22.8102  -14.4276 O   0  0  0  0  0  0  0  0  0  0  0  0
   26.8264  -20.5316  -14.3162 N   0  0  0  0  0  0  0  0  0  0  0  0
   26.5163  -19.1770  -14.6936 C   0  0  0  0  0  0  0  0  0  0  0  0
   27.8133  -18.4657  -14.2717 C   0  0  0  0  0  0  0  0  0  0  0  0
   27.8922  -18.9956  -12.8322 C   0  0  0  0  0  0  0  0  0  0  0  0
   27.3946  -20.4224  -12.9790 C   0  0  1  0  0  0  0  0  0  0  0  0
   26.3767  -20.6978  -11.9482 C   0  0  0  0  0  0  0  0  0  0  0  0
   25.1411  -20.6328  -12.1371 O   0  0  0  0  0  0  0  0  0  0  0  0
   26.8198  -21.0677  -10.6263 N   0  0  0  0  0  0  0  0  0  0  0  0
   25.8968  -21.3896   -9.5925 C   0  0  1  0  0  0  0  0  0  0  0  0
   26.3867  -21.4546   -8.2101 C   0  0  0  0  0  0  0  0  0  0  0  0
   26.8977  -20.2290   -7.5885 C   0  0  0  0  0  0  0  0  0  0  0  0
   26.6899  -18.9131   -7.8799 C   0  0  0  0  0  0  0  0  0  0  0  0
   27.3772  -18.1720   -7.0035 N   0  0  0  0  0  0  0  0  0  0  0  0
   28.0249  -18.9817   -6.1517 C   0  0  0  0  0  0  0  0  0  0  0  0
   28.8636  -18.7516   -5.0680 C   0  0  0  0  0  0  0  0  0  0  0  0
   29.4188  -19.7934   -4.3298 C   0  0  0  0  0  0  0  0  0  0  0  0
   29.1326  -21.0916   -4.6779 C   0  0  0  0  0  0  0  0  0  0  0  0
   28.3005  -21.3186   -5.7530 C   0  0  0  0  0  0  0  0  0  0  0  0
   27.7518  -20.2661   -6.4829 C   0  0  0  0  0  0  0  0  0  0  0  0
   24.7641  -20.3973   -9.6798 C   0  0  0  0  0  0  0  0  0  0  0  0
   24.8965  -19.2549  -10.1685 O   0  0  0  0  0  0  0  0  0  0  0  0
   23.5012  -20.7349   -9.2048 O   0  0  0  0  0  0  0  0  0  0  0  0
  2  1  1  1
  2  3  1  0
  4  2  1  0
  4  5  1  1
  6  4  1  0
  6  7  2  0
  8  6  1  0
  9  8  1  0
 10  9  1  0
 11 10  1  0
 11 12  1  0
 12  8  1  0
 12 13  1  1
 13 14  2  0
 15 13  1  0
 16 15  1  0
 16 17  1  1
 17 18  1  0
 18 26  1  0
 18 19  2  0
 19 20  1  0
 21 22  2  0
 21 20  1  0
 23 22  1  0
 24 23  2  0
 25 24  1  0
 25 26  2  0
 26 21  1  0
 27 16  1  0
 28 27  2  0
 29 27  1  0
M  END
$$$$
