VPW.pdb
     RDKit          3D

 29 31  0  0  1  0  0  0  0  0999 V2000
   23.7591  -17.0797  -15.7446 C   0  0  0  0  0  0  0  0  0  0  0  0
   25.1001  -16.8784  -16.4387 C   0  0  2  0  0  0  0  0  0  0  0  0
   24.9030  -15.7582  -17.4291 C   0  0  0  0  0  0  0  0  0  0  0  0
   25.4162  -18.1973  -17.1621 C   0  0  2  0  0  0  0  0  0  0  0  0
   24.3447  -18.4170  -18.0707 N   0  0  0  0  0  0  0  0  0  0  0  0
   25.6200  -19.1982  -16.1209 C   0  0  0  0  0  0  0  0  0  0  0  0
   24.5562  -19.8236  -15.7593 O   0  0  0  0  0  0  0  0  0  0  0  0
   26.8124  -19.5610  -15.4720 N   0  0  0  0  0  0  0  0  0  0  0  0
   28.1625  -19.1095  -15.6890 C   0  0  0  0  0  0  0  0  0  0  0  0
   28.9117  -20.4529  -15.6755 C   0  0  0  0  0  0  0  0  0  0  0  0
   28.3545  -20.9980  -14.3520 C   0  0  0  0  0  0  0  0  0  0  0  0
   26.9138  -20.5198  -14.3797 C   0  0  1  0  0  0  0  0  0  0  0  0
   26.5794  -19.8885  -13.0897 C   0  0  0  0  0  0  0  0  0  0  0  0
   26.6863  -18.6645  -12.8509 O   0  0  0  0  0  0  0  0  0  0  0  0
   26.0956  -20.7260  -12.0197 N   0  0  0  0  0  0  0  0  0  0  0  0
   25.6940  -20.1808  -10.7683 C   0  0  1  0  0  0  0  0  0  0  0  0
   24.4318  -19.4340  -10.7014 C   0  0  0  0  0  0  0  0  0  0  0  0
   23.1817  -20.1414  -10.9955 C   0  0  0  0  0  0  0  0  0  0  0  0
   22.3991  -20.9517  -10.2270 C   0  0  0  0  0  0  0  0  0  0  0  0
   21.3491  -21.3429  -10.9578 N   0  0  0  0  0  0  0  0  0  0  0  0
   21.4368  -20.8022  -12.1828 C   0  0  0  0  0  0  0  0  0  0  0  0
   20.6355  -20.8716  -13.3158 C   0  0  0  0  0  0  0  0  0  0  0  0
   20.9577  -20.1973  -14.4905 C   0  0  0  0  0  0  0  0  0  0  0  0
   22.1019  -19.4378  -14.5379 C   0  0  0  0  0  0  0  0  0  0  0  0
   22.8960  -19.3696  -13.4135 C   0  0  0  0  0  0  0  0  0  0  0  0
   22.5612  -20.0498  -12.2444 C   0  0  0  0  0  0  0  0  0  0  0  0
   25.6613  -21.3162   -9.7759 C   0  0  0  0  0  0  0  0  0  0  0  0
   25.8594  -22.5072  -10.0978 O   0  0  0  0  0  0  0  0  0  0  0  0
   25.4019  -21.0632   -8.4330 O   0  0  0  0  0  0  0  0  0  0  0  0
  2  1  1  6
  2  3  1  0
  4  2  1  0
  4  5  1  6
  6  4  1  0
  6  7  2  0
  8  6  1  0
  9  8  1  0
 10  9  1  0
 11 10  1  0
 11 12  1  0
 12  8  1  0
 12 13  1  1
 13 14  2  0
 15 13  1  0
 16 15  1  0
 16 17  1  6
 17 18  1  0
 18 26  1  0
 18 19  2  0
 19 20  1  0
 21 22  2  0
 21 20  1  0
 23 22  1  0
 24 23  2  0
 25 24  1  0
 25 26  2  0
 26 21  1  0
 27 16  1  0
 28 27  2  0
 29 27  1  0
M  END
$$$$
