VPW.pdb
     RDKit          3D

 29 31  0  0  1  0  0  0  0  0999 V2000
   25.6407  -24.4766  -17.2823 C   0  0  0  0  0  0  0  0  0  0  0  0
   25.2042  -23.2275  -16.5275 C   0  0  2  0  0  0  0  0  0  0  0  0
   26.4248  -22.7208  -15.8009 C   0  0  0  0  0  0  0  0  0  0  0  0
   24.1239  -23.6782  -15.5313 C   0  0  2  0  0  0  0  0  0  0  0  0
   23.0631  -24.2129  -16.3129 N   0  0  0  0  0  0  0  0  0  0  0  0
   23.8186  -22.5170  -14.7031 C   0  0  0  0  0  0  0  0  0  0  0  0
   23.0052  -21.6750  -15.2349 O   0  0  0  0  0  0  0  0  0  0  0  0
   24.2928  -22.2054  -13.4176 N   0  0  0  0  0  0  0  0  0  0  0  0
   25.3175  -22.8370  -12.6271 C   0  0  0  0  0  0  0  0  0  0  0  0
   24.6081  -22.9189  -11.2647 C   0  0  0  0  0  0  0  0  0  0  0  0
   24.1764  -21.4489  -11.1568 C   0  0  0  0  0  0  0  0  0  0  0  0
   23.8114  -21.1071  -12.5902 C   0  0  1  0  0  0  0  0  0  0  0  0
   24.4541  -19.8362  -12.9726 C   0  0  0  0  0  0  0  0  0  0  0  0
   24.0529  -18.7045  -12.6188 O   0  0  0  0  0  0  0  0  0  0  0  0
   25.6258  -19.8840  -13.8125 N   0  0  0  0  0  0  0  0  0  0  0  0
   26.4359  -18.7347  -14.0296 C   0  0  1  0  0  0  0  0  0  0  0  0
   27.8235  -18.7540  -13.5502 C   0  0  0  0  0  0  0  0  0  0  0  0
   28.2077  -19.7590  -12.5541 C   0  0  0  0  0  0  0  0  0  0  0  0
   29.0927  -20.7950  -12.6101 C   0  0  0  0  0  0  0  0  0  0  0  0
   29.0916  -21.4167  -11.4255 N   0  0  0  0  0  0  0  0  0  0  0  0
   28.2244  -20.8040  -10.6052 C   0  0  0  0  0  0  0  0  0  0  0  0
   27.8360  -21.0258   -9.2896 C   0  0  0  0  0  0  0  0  0  0  0  0
   26.8931  -20.2234   -8.6528 C   0  0  0  0  0  0  0  0  0  0  0  0
   26.3250  -19.1781   -9.3405 C   0  0  0  0  0  0  0  0  0  0  0  0
   26.7109  -18.9589  -10.6454 C   0  0  0  0  0  0  0  0  0  0  0  0
   27.6560  -19.7701  -11.2701 C   0  0  0  0  0  0  0  0  0  0  0  0
   26.4180  -18.4485  -15.5105 C   0  0  0  0  0  0  0  0  0  0  0  0
   25.8885  -19.2131  -16.3449 O   0  0  0  0  0  0  0  0  0  0  0  0
   27.0081  -17.2903  -16.0055 O   0  0  0  0  0  0  0  0  0  0  0  0
  2  1  1  6
  2  3  1  0
  4  2  1  0
  4  5  1  6
  6  4  1  0
  6  7  2  0
  8  6  1  0
  9  8  1  0
 10  9  1  0
 11 10  1  0
 11 12  1  0
 12  8  1  0
 12 13  1  6
 13 14  2  0
 15 13  1  0
 16 15  1  0
 16 17  1  6
 17 18  1  0
 18 26  1  0
 18 19  2  0
 19 20  1  0
 21 22  2  0
 21 20  1  0
 23 22  1  0
 24 23  2  0
 25 24  1  0
 25 26  2  0
 26 21  1  0
 27 16  1  0
 28 27  2  0
 29 27  1  0
M  END
$$$$
