VPW.pdb
     RDKit          3D

 29 31  0  0  1  0  0  0  0  0999 V2000
   27.0823  -17.1189  -15.7886 C   0  0  0  0  0  0  0  0  0  0  0  0
   28.1457  -17.2000  -16.8763 C   0  0  2  0  0  0  0  0  0  0  0  0
   28.3521  -15.7921  -17.3759 C   0  0  0  0  0  0  0  0  0  0  0  0
   27.5651  -18.0928  -17.9846 C   0  0  2  0  0  0  0  0  0  0  0  0
   26.5595  -17.3208  -18.6287 N   0  0  0  0  0  0  0  0  0  0  0  0
   27.1405  -19.3285  -17.3364 C   0  0  0  0  0  0  0  0  0  0  0  0
   25.8906  -19.3783  -17.0381 O   0  0  0  0  0  0  0  0  0  0  0  0
   27.9110  -20.4548  -17.0012 N   0  0  0  0  0  0  0  0  0  0  0  0
   29.2996  -20.7393  -17.2554 C   0  0  0  0  0  0  0  0  0  0  0  0
   29.1999  -22.1903  -17.7561 C   0  0  0  0  0  0  0  0  0  0  0  0
   28.3689  -22.7624  -16.5980 C   0  0  0  0  0  0  0  0  0  0  0  0
   27.4205  -21.6207  -16.2783 C   0  0  1  0  0  0  0  0  0  0  0  0
   27.4152  -21.3772  -14.8240 C   0  0  0  0  0  0  0  0  0  0  0  0
   28.1761  -20.5753  -14.2369 O   0  0  0  0  0  0  0  0  0  0  0  0
   26.4750  -22.1063  -14.0085 N   0  0  0  0  0  0  0  0  0  0  0  0
   26.3873  -21.8985  -12.6037 C   0  0  1  0  0  0  0  0  0  0  0  0
   26.2213  -20.5270  -12.1066 C   0  0  0  0  0  0  0  0  0  0  0  0
   25.9892  -20.3235  -10.6733 C   0  0  0  0  0  0  0  0  0  0  0  0
   24.8520  -20.0521   -9.9713 C   0  0  0  0  0  0  0  0  0  0  0  0
   25.1658  -19.9690   -8.6734 N   0  0  0  0  0  0  0  0  0  0  0  0
   26.4821  -20.1811   -8.5222 C   0  0  0  0  0  0  0  0  0  0  0  0
   27.3226  -20.2112   -7.4161 C   0  0  0  0  0  0  0  0  0  0  0  0
   28.6873  -20.4613   -7.5323 C   0  0  0  0  0  0  0  0  0  0  0  0
   29.2263  -20.6863   -8.7762 C   0  0  0  0  0  0  0  0  0  0  0  0
   28.3917  -20.6563   -9.8726 C   0  0  0  0  0  0  0  0  0  0  0  0
   27.0275  -20.4047   -9.7414 C   0  0  0  0  0  0  0  0  0  0  0  0
   25.2583  -22.7594  -12.0942 C   0  0  0  0  0  0  0  0  0  0  0  0
   24.0619  -22.4003  -12.1239 O   0  0  0  0  0  0  0  0  0  0  0  0
   25.5240  -24.0161  -11.5603 O   0  0  0  0  0  0  0  0  0  0  0  0
  2  1  1  1
  2  3  1  0
  4  2  1  0
  4  5  1  1
  6  4  1  0
  6  7  2  0
  8  6  1  0
  9  8  1  0
 10  9  1  0
 11 10  1  0
 11 12  1  0
 12  8  1  0
 12 13  1  1
 13 14  2  0
 15 13  1  0
 16 15  1  0
 16 17  1  6
 17 18  1  0
 18 26  1  0
 18 19  2  0
 19 20  1  0
 21 22  2  0
 21 20  1  0
 23 22  1  0
 24 23  2  0
 25 24  1  0
 25 26  2  0
 26 21  1  0
 27 16  1  0
 28 27  2  0
 29 27  1  0
M  END
$$$$
