SDY.pdb
     RDKit          3D

 27 27  0  0  1  0  0  0  0  0999 V2000
   19.6972  -12.0560  -18.6270 O   0  0  0  0  0  0  0  0  0  0  0  0
   20.6887  -12.2064  -17.6629 C   0  0  0  0  0  0  0  0  0  0  0  0
   20.2836  -11.5609  -16.3479 C   0  0  2  0  0  0  0  0  0  0  0  0
   19.0119  -12.1289  -15.9454 N   0  0  0  0  0  0  0  0  0  0  0  0
   20.1839  -10.0870  -16.5219 C   0  0  0  0  0  0  0  0  0  0  0  0
   21.2151   -9.4078  -16.6661 O   0  0  0  0  0  0  0  0  0  0  0  0
   18.9240   -9.4271  -16.5276 N   0  0  0  0  0  0  0  0  0  0  0  0
   18.8089   -7.9927  -16.6618 C   0  0  1  0  0  0  0  0  0  0  0  0
   17.4469   -7.5442  -17.0778 C   0  0  0  0  0  0  0  0  0  0  0  0
   17.0678   -7.9566  -18.4426 C   0  0  0  0  0  0  0  0  0  0  0  0
   17.8053   -7.6670  -19.4016 O   0  0  0  0  0  0  0  0  0  0  0  0
   19.1852   -7.2853  -15.4119 C   0  0  0  0  0  0  0  0  0  0  0  0
   18.6984   -7.5311  -14.2964 O   0  0  0  0  0  0  0  0  0  0  0  0
   15.9013   -8.6579  -18.6408 O   0  0  0  0  0  0  0  0  0  0  0  0
   25.9022   -6.1698  -17.9586 O   0  0  0  0  0  0  0  0  0  0  0  0
   24.9290   -6.2454  -16.9643 C   0  0  0  0  0  0  0  0  0  0  0  0
   24.2209   -7.4000  -16.7048 C   0  0  0  0  0  0  0  0  0  0  0  0
   23.2669   -7.4456  -15.7182 C   0  0  0  0  0  0  0  0  0  0  0  0
   22.9918   -6.3163  -14.9522 C   0  0  0  0  0  0  0  0  0  0  0  0
   21.9880   -6.2890  -13.8943 C   0  0  0  0  0  0  0  0  0  0  0  0
   20.6926   -5.6186  -14.2923 C   0  0  2  0  0  0  0  0  0  0  0  0
   20.1655   -6.2609  -15.4944 N   0  0  0  0  0  0  0  0  0  0  0  0
   20.9315   -4.2092  -14.6086 C   0  0  0  0  0  0  0  0  0  0  0  0
   21.2473   -3.3204  -13.6058 O   0  0  0  0  0  0  0  0  0  0  0  0
   23.7153   -5.1576  -15.2260 C   0  0  0  0  0  0  0  0  0  0  0  0
   24.6578   -5.1199  -16.2037 C   0  0  0  0  0  0  0  0  0  0  0  0
   20.8513   -3.7969  -15.7812 O   0  0  0  0  0  0  0  0  0  0  0  0
  1  2  1  0
  3  2  1  0
  3  4  1  6
  5  3  1  0
  5  7  1  0
  6  5  2  0
  7  8  1  0
  8  9  1  1
  9 10  1  0
 10 14  1  0
 11 10  2  0
 12  8  1  0
 13 12  2  0
 16 15  1  0
 16 17  2  0
 18 17  1  0
 19 18  2  0
 20 19  1  0
 21 22  1  0
 21 20  1  6
 22 12  1  0
 23 21  1  0
 24 23  1  0
 25 26  2  0
 25 19  1  0
 26 16  1  0
 27 23  2  0
M  END
$$$$
