SDY.pdb
     RDKit          3D

 27 27  0  0  1  0  0  0  0  0999 V2000
   29.7698  -26.6025  -18.4144 O   0  0  0  0  0  0  0  0  0  0  0  0
   29.7084  -25.2368  -18.6722 C   0  0  0  0  0  0  0  0  0  0  0  0
   30.6366  -24.4586  -17.7540 C   0  0  2  0  0  0  0  0  0  0  0  0
   31.2445  -25.3991  -16.8332 N   0  0  0  0  0  0  0  0  0  0  0  0
   29.8648  -23.4156  -17.0266 C   0  0  0  0  0  0  0  0  0  0  0  0
   29.7018  -23.5080  -15.7977 O   0  0  0  0  0  0  0  0  0  0  0  0
   29.3018  -22.3021  -17.7094 N   0  0  0  0  0  0  0  0  0  0  0  0
   28.5777  -21.2617  -17.0154 C   0  0  1  0  0  0  0  0  0  0  0  0
   28.7031  -19.9212  -17.6609 C   0  0  0  0  0  0  0  0  0  0  0  0
   28.1153  -19.8460  -19.0119 C   0  0  0  0  0  0  0  0  0  0  0  0
   28.5948  -20.5321  -19.9321 O   0  0  0  0  0  0  0  0  0  0  0  0
   27.1372  -21.5898  -16.8685 C   0  0  0  0  0  0  0  0  0  0  0  0
   26.4959  -22.2925  -17.6664 O   0  0  0  0  0  0  0  0  0  0  0  0
   27.0419  -19.0169  -19.2403 O   0  0  0  0  0  0  0  0  0  0  0  0
   19.1695  -21.7722  -13.0225 O   0  0  0  0  0  0  0  0  0  0  0  0
   20.5078  -21.5006  -13.2996 C   0  0  0  0  0  0  0  0  0  0  0  0
   20.9943  -20.2161  -13.4238 C   0  0  0  0  0  0  0  0  0  0  0  0
   22.3187  -19.9781  -13.6974 C   0  0  0  0  0  0  0  0  0  0  0  0
   23.2063  -21.0385  -13.8570 C   0  0  0  0  0  0  0  0  0  0  0  0
   24.6229  -20.8615  -14.1563 C   0  0  0  0  0  0  0  0  0  0  0  0
   25.0270  -21.3472  -15.5298 C   0  0  2  0  0  0  0  0  0  0  0  0
   26.4454  -21.0678  -15.7433 N   0  0  0  0  0  0  0  0  0  0  0  0
   24.2721  -20.6307  -16.5595 C   0  0  0  0  0  0  0  0  0  0  0  0
   23.1884  -21.2285  -17.1626 O   0  0  0  0  0  0  0  0  0  0  0  0
   22.7000  -22.3301  -13.7286 C   0  0  0  0  0  0  0  0  0  0  0  0
   21.3884  -22.5580  -13.4576 C   0  0  0  0  0  0  0  0  0  0  0  0
   24.5984  -19.4789  -16.9034 O   0  0  0  0  0  0  0  0  0  0  0  0
  1  2  1  0
  3  2  1  0
  3  4  1  1
  5  3  1  0
  5  7  1  0
  6  5  2  0
  7  8  1  0
  8  9  1  6
  9 10  1  0
 10 14  1  0
 11 10  2  0
 12  8  1  0
 13 12  2  0
 16 15  1  0
 16 17  2  0
 18 17  1  0
 19 18  2  0
 20 19  1  0
 21 22  1  0
 21 20  1  1
 22 12  1  0
 23 21  1  0
 24 23  1  0
 25 26  2  0
 25 19  1  0
 26 16  1  0
 27 23  2  0
M  END
$$$$
