SDY.pdb
     RDKit          3D

 27 27  0  0  1  0  0  0  0  0999 V2000
   13.8903  -12.6917  -14.4788 O   0  0  0  0  0  0  0  0  0  0  0  0
   14.7314  -12.7924  -15.5823 C   0  0  0  0  0  0  0  0  0  0  0  0
   16.1352  -13.2057  -15.1715 C   0  0  2  0  0  0  0  0  0  0  0  0
   16.0340  -14.4398  -14.4174 N   0  0  0  0  0  0  0  0  0  0  0  0
   16.7582  -12.1274  -14.3581 C   0  0  0  0  0  0  0  0  0  0  0  0
   17.2465  -12.3922  -13.2460 O   0  0  0  0  0  0  0  0  0  0  0  0
   16.8101  -10.7852  -14.8258 N   0  0  0  0  0  0  0  0  0  0  0  0
   17.3291   -9.7084  -14.0135 C   0  0  1  0  0  0  0  0  0  0  0  0
   18.0850   -8.6868  -14.7972 C   0  0  0  0  0  0  0  0  0  0  0  0
   18.6825   -7.6177  -13.9748 C   0  0  0  0  0  0  0  0  0  0  0  0
   18.5355   -6.4282  -14.3079 O   0  0  0  0  0  0  0  0  0  0  0  0
   16.2582   -9.0261  -13.2443 C   0  0  0  0  0  0  0  0  0  0  0  0
   15.1722   -8.6663  -13.7269 O   0  0  0  0  0  0  0  0  0  0  0  0
   19.3968   -7.9477  -12.8466 O   0  0  0  0  0  0  0  0  0  0  0  0
   11.8518   -6.2993   -6.0914 O   0  0  0  0  0  0  0  0  0  0  0  0
   12.8358   -6.8030   -6.9397 C   0  0  0  0  0  0  0  0  0  0  0  0
   14.0840   -6.2276   -7.0530 C   0  0  0  0  0  0  0  0  0  0  0  0
   15.0347   -6.7458   -7.8975 C   0  0  0  0  0  0  0  0  0  0  0  0
   14.7555   -7.8734   -8.6645 C   0  0  0  0  0  0  0  0  0  0  0  0
   15.7124   -8.4734   -9.5876 C   0  0  0  0  0  0  0  0  0  0  0  0
   15.4720   -8.1214  -11.0381 C   0  0  2  0  0  0  0  0  0  0  0  0
   16.4878   -8.7669  -11.8669 N   0  0  0  0  0  0  0  0  0  0  0  0
   15.5920   -6.6753  -11.2319 C   0  0  0  0  0  0  0  0  0  0  0  0
   16.8210   -6.1138  -11.4961 O   0  0  0  0  0  0  0  0  0  0  0  0
   13.4905   -8.4434   -8.5391 C   0  0  0  0  0  0  0  0  0  0  0  0
   12.5549   -7.9253   -7.7013 C   0  0  0  0  0  0  0  0  0  0  0  0
   14.5912   -5.9374  -11.1593 O   0  0  0  0  0  0  0  0  0  0  0  0
  1  2  1  0
  3  2  1  0
  3  4  1  1
  5  3  1  0
  5  7  1  0
  6  5  2  0
  7  8  1  0
  8  9  1  6
  9 10  1  0
 10 14  1  0
 11 10  2  0
 12  8  1  0
 13 12  2  0
 16 15  1  0
 16 17  2  0
 18 17  1  0
 19 18  2  0
 20 19  1  0
 21 22  1  0
 21 20  1  1
 22 12  1  0
 23 21  1  0
 24 23  1  0
 25 26  2  0
 25 19  1  0
 26 16  1  0
 27 23  2  0
M  END
$$$$
