SDY.pdb
     RDKit          3D

 27 27  0  0  1  0  0  0  0  0999 V2000
   20.7501   -9.5792  -18.1726 O   0  0  0  0  0  0  0  0  0  0  0  0
   21.2548   -8.3842  -17.6703 C   0  0  0  0  0  0  0  0  0  0  0  0
   22.5470   -7.9930  -18.3683 C   0  0  2  0  0  0  0  0  0  0  0  0
   23.5110   -9.0534  -18.1491 N   0  0  0  0  0  0  0  0  0  0  0  0
   23.0385   -6.6981  -17.8257 C   0  0  0  0  0  0  0  0  0  0  0  0
   24.1875   -6.6171  -17.3580 O   0  0  0  0  0  0  0  0  0  0  0  0
   22.2178   -5.5365  -17.8283 N   0  0  0  0  0  0  0  0  0  0  0  0
   22.7205   -4.2401  -17.4343 C   0  0  1  0  0  0  0  0  0  0  0  0
   23.9606   -3.8393  -18.1628 C   0  0  0  0  0  0  0  0  0  0  0  0
   24.5221   -2.5458  -17.7297 C   0  0  0  0  0  0  0  0  0  0  0  0
   25.7202   -2.2900  -17.9460 O   0  0  0  0  0  0  0  0  0  0  0  0
   21.7009   -3.1739  -17.6016 C   0  0  0  0  0  0  0  0  0  0  0  0
   21.1707   -2.8781  -18.6847 O   0  0  0  0  0  0  0  0  0  0  0  0
   23.7141   -1.6345  -17.0903 O   0  0  0  0  0  0  0  0  0  0  0  0
   14.5269    1.5200  -16.5164 O   0  0  0  0  0  0  0  0  0  0  0  0
   15.6402    0.6839  -16.4615 C   0  0  0  0  0  0  0  0  0  0  0  0
   16.9252    1.1665  -16.3276 C   0  0  0  0  0  0  0  0  0  0  0  0
   18.0041    0.3187  -16.2763 C   0  0  0  0  0  0  0  0  0  0  0  0
   17.8215   -1.0589  -16.3595 C   0  0  0  0  0  0  0  0  0  0  0  0
   18.9199   -2.0179  -16.3200 C   0  0  0  0  0  0  0  0  0  0  0  0
   20.2839   -1.4003  -16.5290 C   0  0  2  0  0  0  0  0  0  0  0  0
   21.3041   -2.4436  -16.4499 N   0  0  0  0  0  0  0  0  0  0  0  0
   20.5620   -0.4245  -15.4737 C   0  0  0  0  0  0  0  0  0  0  0  0
   20.3543    0.9172  -15.7018 O   0  0  0  0  0  0  0  0  0  0  0  0
   16.5179   -1.5311  -16.4944 C   0  0  0  0  0  0  0  0  0  0  0  0
   15.4551   -0.6863  -16.5443 C   0  0  0  0  0  0  0  0  0  0  0  0
   20.9892   -0.7917  -14.3628 O   0  0  0  0  0  0  0  0  0  0  0  0
  1  2  1  0
  3  2  1  0
  3  4  1  1
  5  3  1  0
  5  7  1  0
  6  5  2  0
  7  8  1  0
  8  9  1  6
  9 10  1  0
 10 14  1  0
 11 10  2  0
 12  8  1  0
 13 12  2  0
 16 15  1  0
 16 17  2  0
 18 17  1  0
 19 18  2  0
 20 19  1  0
 21 22  1  0
 21 20  1  1
 22 12  1  0
 23 21  1  0
 24 23  1  0
 25 26  2  0
 25 19  1  0
 26 16  1  0
 27 23  2  0
M  END
$$$$
