SDY.pdb
     RDKit          3D

 27 27  0  0  1  0  0  0  0  0999 V2000
   26.3601  -21.2415  -19.1179 O   0  0  0  0  0  0  0  0  0  0  0  0
   25.7742  -20.5763  -20.1900 C   0  0  0  0  0  0  0  0  0  0  0  0
   25.6533  -19.0861  -19.9167 C   0  0  2  0  0  0  0  0  0  0  0  0
   26.9918  -18.5516  -19.7593 N   0  0  0  0  0  0  0  0  0  0  0  0
   24.8380  -18.8648  -18.6924 C   0  0  0  0  0  0  0  0  0  0  0  0
   25.3121  -18.2243  -17.7383 O   0  0  0  0  0  0  0  0  0  0  0  0
   23.5141  -19.3733  -18.5842 N   0  0  0  0  0  0  0  0  0  0  0  0
   22.6676  -19.0765  -17.4512 C   0  0  1  0  0  0  0  0  0  0  0  0
   21.2121  -19.2418  -17.7400 C   0  0  0  0  0  0  0  0  0  0  0  0
   20.6574  -18.2169  -18.6445 C   0  0  0  0  0  0  0  0  0  0  0  0
   19.9300  -18.5603  -19.5934 O   0  0  0  0  0  0  0  0  0  0  0  0
   23.0171  -19.8987  -16.2654 C   0  0  0  0  0  0  0  0  0  0  0  0
   23.2265  -21.1221  -16.3007 O   0  0  0  0  0  0  0  0  0  0  0  0
   20.9505  -16.8904  -18.4289 O   0  0  0  0  0  0  0  0  0  0  0  0
   25.5130  -21.2969   -7.8311 O   0  0  0  0  0  0  0  0  0  0  0  0
   25.1222  -20.7555   -9.0541 C   0  0  0  0  0  0  0  0  0  0  0  0
   23.8778  -20.9835   -9.6031 C   0  0  0  0  0  0  0  0  0  0  0  0
   23.5196  -20.4367  -10.8107 C   0  0  0  0  0  0  0  0  0  0  0  0
   24.4138  -19.6335  -11.5128 C   0  0  0  0  0  0  0  0  0  0  0  0
   24.1053  -19.0266  -12.8029 C   0  0  0  0  0  0  0  0  0  0  0  0
   23.4919  -19.9819  -13.8013 C   0  0  2  0  0  0  0  0  0  0  0  0
   23.1195  -19.2464  -15.0079 N   0  0  0  0  0  0  0  0  0  0  0  0
   22.2736  -20.5753  -13.2475 C   0  0  0  0  0  0  0  0  0  0  0  0
   21.1408  -19.8084  -13.0925 O   0  0  0  0  0  0  0  0  0  0  0  0
   25.6668  -19.4123  -10.9454 C   0  0  0  0  0  0  0  0  0  0  0  0
   26.0142  -19.9565   -9.7501 C   0  0  0  0  0  0  0  0  0  0  0  0
   22.2453  -21.7738  -12.9095 O   0  0  0  0  0  0  0  0  0  0  0  0
  1  2  1  0
  3  2  1  0
  3  4  1  1
  5  3  1  0
  5  7  1  0
  6  5  2  0
  7  8  1  0
  8  9  1  6
  9 10  1  0
 10 14  1  0
 11 10  2  0
 12  8  1  0
 13 12  2  0
 16 15  1  0
 16 17  2  0
 18 17  1  0
 19 18  2  0
 20 19  1  0
 21 22  1  0
 21 20  1  1
 22 12  1  0
 23 21  1  0
 24 23  1  0
 25 26  2  0
 25 19  1  0
 26 16  1  0
 27 23  2  0
M  END
$$$$
