SDY.pdb
     RDKit          3D

 27 27  0  0  1  0  0  0  0  0999 V2000
   15.8952  -13.6520  -17.1660 O   0  0  0  0  0  0  0  0  0  0  0  0
   16.5254  -12.4121  -17.1964 C   0  0  0  0  0  0  0  0  0  0  0  0
   17.6906  -12.3601  -16.2219 C   0  0  2  0  0  0  0  0  0  0  0  0
   17.1557  -12.4852  -14.8802 N   0  0  0  0  0  0  0  0  0  0  0  0
   18.4287  -11.0796  -16.3899 C   0  0  0  0  0  0  0  0  0  0  0  0
   19.0955  -10.8781  -17.4195 O   0  0  0  0  0  0  0  0  0  0  0  0
   18.3906  -10.0681  -15.3909 N   0  0  0  0  0  0  0  0  0  0  0  0
   19.1195   -8.8275  -15.5259 C   0  0  1  0  0  0  0  0  0  0  0  0
   18.5466   -7.7127  -14.7145 C   0  0  0  0  0  0  0  0  0  0  0  0
   19.2251   -6.4171  -14.9073 C   0  0  0  0  0  0  0  0  0  0  0  0
   19.6153   -5.7720  -13.9178 O   0  0  0  0  0  0  0  0  0  0  0  0
   20.5543   -8.9848  -15.1782 C   0  0  0  0  0  0  0  0  0  0  0  0
   20.9661   -9.5281  -14.1404 O   0  0  0  0  0  0  0  0  0  0  0  0
   19.4196   -5.9350  -16.1808 O   0  0  0  0  0  0  0  0  0  0  0  0
   28.9978  -10.7769  -16.3180 O   0  0  0  0  0  0  0  0  0  0  0  0
   27.6186  -10.5787  -16.3288 C   0  0  0  0  0  0  0  0  0  0  0  0
   26.8164  -10.8831  -15.2491 C   0  0  0  0  0  0  0  0  0  0  0  0
   25.4594  -10.6772  -15.2879 C   0  0  0  0  0  0  0  0  0  0  0  0
   24.8593  -10.1522  -16.4290 C   0  0  0  0  0  0  0  0  0  0  0  0
   23.4248   -9.9145  -16.5444 C   0  0  0  0  0  0  0  0  0  0  0  0
   22.9514   -8.6579  -15.8497 C   0  0  2  0  0  0  0  0  0  0  0  0
   21.5207   -8.4826  -16.0898 N   0  0  0  0  0  0  0  0  0  0  0  0
   23.6416   -7.4889  -16.3978 C   0  0  0  0  0  0  0  0  0  0  0  0
   22.9922   -6.6542  -17.2793 O   0  0  0  0  0  0  0  0  0  0  0  0
   25.6826   -9.8496  -17.5113 C   0  0  0  0  0  0  0  0  0  0  0  0
   27.0247  -10.0559  -17.4657 C   0  0  0  0  0  0  0  0  0  0  0  0
   24.8184   -7.2357  -16.0780 O   0  0  0  0  0  0  0  0  0  0  0  0
  1  2  1  0
  3  2  1  0
  3  4  1  1
  5  3  1  0
  5  7  1  0
  6  5  2  0
  7  8  1  0
  8  9  1  1
  9 10  1  0
 10 14  1  0
 11 10  2  0
 12  8  1  0
 13 12  2  0
 16 15  1  0
 16 17  2  0
 18 17  1  0
 19 18  2  0
 20 19  1  0
 21 22  1  0
 21 20  1  6
 22 12  1  0
 23 21  1  0
 24 23  1  0
 25 26  2  0
 25 19  1  0
 26 16  1  0
 27 23  2  0
M  END
$$$$
