SDY.pdb
     RDKit          3D

 27 27  0  0  1  0  0  0  0  0999 V2000
   18.9336  -16.2480  -17.7588 O   0  0  0  0  0  0  0  0  0  0  0  0
   19.1424  -14.8820  -17.9193 C   0  0  0  0  0  0  0  0  0  0  0  0
   19.2587  -14.1790  -16.5768 C   0  0  2  0  0  0  0  0  0  0  0  0
   18.0777  -14.5022  -15.8004 N   0  0  0  0  0  0  0  0  0  0  0  0
   19.3794  -12.7114  -16.7874 C   0  0  0  0  0  0  0  0  0  0  0  0
   20.3631  -12.2499  -17.3911 O   0  0  0  0  0  0  0  0  0  0  0  0
   18.3862  -11.8122  -16.3100 N   0  0  0  0  0  0  0  0  0  0  0  0
   18.4464  -10.3922  -16.5716 C   0  0  1  0  0  0  0  0  0  0  0  0
   17.1070   -9.7325  -16.5706 C   0  0  0  0  0  0  0  0  0  0  0  0
   16.1197  -10.3727  -17.4604 C   0  0  0  0  0  0  0  0  0  0  0  0
   16.4074  -10.5802  -18.6528 O   0  0  0  0  0  0  0  0  0  0  0  0
   19.3288   -9.6862  -15.6086 C   0  0  0  0  0  0  0  0  0  0  0  0
   19.3725   -9.9311  -14.3921 O   0  0  0  0  0  0  0  0  0  0  0  0
   14.8898  -10.7339  -16.9618 O   0  0  0  0  0  0  0  0  0  0  0  0
   24.5844  -13.2980  -15.7701 O   0  0  0  0  0  0  0  0  0  0  0  0
   24.0829  -11.9988  -15.7249 C   0  0  0  0  0  0  0  0  0  0  0  0
   24.0876  -11.2409  -14.5727 C   0  0  0  0  0  0  0  0  0  0  0  0
   23.5865   -9.9626  -14.5574 C   0  0  0  0  0  0  0  0  0  0  0  0
   23.0580   -9.3996  -15.7157 C   0  0  0  0  0  0  0  0  0  0  0  0
   22.5020   -8.0523  -15.7719 C   0  0  0  0  0  0  0  0  0  0  0  0
   21.0958   -7.9437  -15.2274 C   0  0  2  0  0  0  0  0  0  0  0  0
   20.1793   -8.6645  -16.1083 N   0  0  0  0  0  0  0  0  0  0  0  0
   20.6744   -6.5420  -15.1970 C   0  0  0  0  0  0  0  0  0  0  0  0
   21.2468   -5.6683  -14.3001 O   0  0  0  0  0  0  0  0  0  0  0  0
   23.0604  -10.1774  -16.8715 C   0  0  0  0  0  0  0  0  0  0  0  0
   23.5580  -11.4415  -16.8792 C   0  0  0  0  0  0  0  0  0  0  0  0
   19.7969   -6.1234  -15.9755 O   0  0  0  0  0  0  0  0  0  0  0  0
  1  2  1  0
  3  2  1  0
  3  4  1  1
  5  3  1  0
  5  7  1  0
  6  5  2  0
  7  8  1  0
  8  9  1  1
  9 10  1  0
 10 14  1  0
 11 10  2  0
 12  8  1  0
 13 12  2  0
 16 15  1  0
 16 17  2  0
 18 17  1  0
 19 18  2  0
 20 19  1  0
 21 22  1  0
 21 20  1  6
 22 12  1  0
 23 21  1  0
 24 23  1  0
 25 26  2  0
 25 19  1  0
 26 16  1  0
 27 23  2  0
M  END
$$$$
