EIH.pdb
     RDKit          3D

 28 28  0  0  1  0  0  0  0  0999 V2000
   28.1504  -31.3469  -15.6897 N   0  0  0  0  0  0  0  0  0  0  0  0
   27.9766  -30.5269  -16.8653 C   0  0  1  0  0  0  0  0  0  0  0  0
   27.1810  -31.2579  -17.9447 C   0  0  0  0  0  0  0  0  0  0  0  0
   28.1815  -31.9848  -18.8075 C   0  0  0  0  0  0  0  0  0  0  0  0
   27.8619  -31.8492  -20.2523 C   0  0  0  0  0  0  0  0  0  0  0  0
   26.7616  -31.3282  -20.5697 O   0  0  0  0  0  0  0  0  0  0  0  0
   27.2264  -29.3076  -16.4714 C   0  0  0  0  0  0  0  0  0  0  0  0
   26.5793  -29.2695  -15.3854 O   0  0  0  0  0  0  0  0  0  0  0  0
   28.7551  -32.2864  -21.2177 O   0  0  0  0  0  0  0  0  0  0  0  0
   27.9780  -23.4135  -17.0891 C   0  0  0  0  0  0  0  0  0  0  0  0
   26.9163  -24.4284  -16.8459 C   0  0  0  0  0  0  0  0  0  0  0  0
   27.4155  -25.8150  -17.0412 C   0  0  2  0  0  0  0  0  0  0  0  0
   28.0627  -25.9700  -18.4317 C   0  0  0  0  0  0  0  0  0  0  0  0
   26.4315  -26.9280  -16.8248 C   0  0  2  0  0  0  0  0  0  0  0  0
   27.1868  -28.1368  -17.2652 N   0  0  0  0  0  0  0  0  0  0  0  0
   25.1555  -26.8697  -17.4992 C   0  0  0  0  0  0  0  0  0  0  0  0
   25.1274  -27.2622  -18.7293 O   0  0  0  0  0  0  0  0  0  0  0  0
   23.9330  -26.4431  -16.9974 N   0  0  0  0  0  0  0  0  0  0  0  0
   22.6813  -26.4601  -17.7637 C   0  0  1  0  0  0  0  0  0  0  0  0
   21.5234  -26.8203  -16.9160 C   0  0  0  0  0  0  0  0  0  0  0  0
   21.3897  -28.2888  -16.7821 C   0  0  0  0  0  0  0  0  0  0  0  0
   22.1337  -29.3078  -17.3015 C   0  0  0  0  0  0  0  0  0  0  0  0
   21.6582  -30.4755  -16.8234 N   0  0  0  0  0  0  0  0  0  0  0  0
   20.6277  -30.2345  -16.0079 C   0  0  0  0  0  0  0  0  0  0  0  0
   20.4652  -28.9176  -15.9819 N   0  0  0  0  0  0  0  0  0  0  0  0
   22.5361  -25.0259  -18.2140 C   0  0  0  0  0  0  0  0  0  0  0  0
   23.2953  -24.1723  -17.6896 O   0  0  0  0  0  0  0  0  0  0  0  0
   21.6337  -24.6312  -19.1416 O   0  0  0  0  0  0  0  0  0  0  0  0
  2  3  1  0
  2  1  1  1
  4  5  1  0
  4  3  1  0
  5  6  2  0
  7  2  1  0
  8  7  2  0
  9  5  1  0
 11 12  1  0
 11 10  1  0
 12 13  1  6
 12 14  1  0
 14 15  1  6
 15  7  1  0
 16 17  2  0
 16 14  1  0
 18 16  1  0
 19 18  1  0
 19 20  1  1
 20 21  1  0
 21 25  1  0
 21 22  2  0
 22 23  1  0
 24 23  1  0
 25 24  2  0
 26 19  1  0
 27 26  2  0
 28 26  1  0
M  END
$$$$
