EIH.pdb
     RDKit          3D

 28 28  0  0  1  0  0  0  0  0999 V2000
   18.0996  -13.9919  -15.5984 N   0  0  0  0  0  0  0  0  0  0  0  0
   18.4340  -12.9486  -16.5388 C   0  0  1  0  0  0  0  0  0  0  0  0
   17.2214  -12.5348  -17.3698 C   0  0  0  0  0  0  0  0  0  0  0  0
   16.8993  -13.6937  -18.2791 C   0  0  0  0  0  0  0  0  0  0  0  0
   17.6372  -13.6040  -19.5657 C   0  0  0  0  0  0  0  0  0  0  0  0
   18.0886  -12.4822  -19.9133 O   0  0  0  0  0  0  0  0  0  0  0  0
   18.9043  -11.7678  -15.7710 C   0  0  0  0  0  0  0  0  0  0  0  0
   18.4412  -11.5184  -14.6209 O   0  0  0  0  0  0  0  0  0  0  0  0
   17.8196  -14.7282  -20.3556 O   0  0  0  0  0  0  0  0  0  0  0  0
   23.9094  -11.1910  -15.0872 C   0  0  0  0  0  0  0  0  0  0  0  0
   22.4323  -11.1233  -14.9142 C   0  0  0  0  0  0  0  0  0  0  0  0
   21.8596   -9.8799  -15.4939 C   0  0  2  0  0  0  0  0  0  0  0  0
   22.5250   -8.6343  -14.8759 C   0  0  0  0  0  0  0  0  0  0  0  0
   20.3673   -9.7270  -15.4336 C   0  0  2  0  0  0  0  0  0  0  0  0
   19.8775  -10.8661  -16.2632 N   0  0  0  0  0  0  0  0  0  0  0  0
   19.7752   -8.4917  -15.8915 C   0  0  0  0  0  0  0  0  0  0  0  0
   19.9776   -8.1703  -17.1259 O   0  0  0  0  0  0  0  0  0  0  0  0
   19.0039   -7.5866  -15.1746 N   0  0  0  0  0  0  0  0  0  0  0  0
   18.5522   -6.2944  -15.7038 C   0  0  1  0  0  0  0  0  0  0  0  0
   17.5142   -5.6820  -14.8455 C   0  0  0  0  0  0  0  0  0  0  0  0
   17.2008   -4.3019  -15.2804 C   0  0  0  0  0  0  0  0  0  0  0  0
   17.6150   -3.0942  -14.7989 C   0  0  0  0  0  0  0  0  0  0  0  0
   17.1143   -2.1214  -15.5869 N   0  0  0  0  0  0  0  0  0  0  0  0
   16.3893   -2.6717  -16.5649 C   0  0  0  0  0  0  0  0  0  0  0  0
   16.4410   -3.9852  -16.3816 N   0  0  0  0  0  0  0  0  0  0  0  0
   19.8009   -5.4468  -15.6492 C   0  0  0  0  0  0  0  0  0  0  0  0
   20.0039   -4.6489  -16.5990 O   0  0  0  0  0  0  0  0  0  0  0  0
   20.6955   -5.5147  -14.6364 O   0  0  0  0  0  0  0  0  0  0  0  0
  2  3  1  0
  2  1  1  1
  4  5  1  0
  4  3  1  0
  5  6  2  0
  7  2  1  0
  8  7  2  0
  9  5  1  0
 11 12  1  0
 11 10  1  0
 12 13  1  1
 12 14  1  0
 14 15  1  6
 15  7  1  0
 16 17  2  0
 16 14  1  0
 18 16  1  0
 19 18  1  0
 19 20  1  1
 20 21  1  0
 21 25  1  0
 21 22  2  0
 22 23  1  0
 24 23  1  0
 25 24  2  0
 26 19  1  0
 27 26  2  0
 28 26  1  0
M  END
$$$$
