EIH.pdb
     RDKit          3D

 28 28  0  0  1  0  0  0  0  0999 V2000
   19.5697  -15.0606  -16.7403 N   0  0  0  0  0  0  0  0  0  0  0  0
   20.1290  -13.9664  -17.4982 C   0  0  1  0  0  0  0  0  0  0  0  0
   19.1362  -13.4353  -18.5300 C   0  0  0  0  0  0  0  0  0  0  0  0
   18.9433  -14.5269  -19.5523 C   0  0  0  0  0  0  0  0  0  0  0  0
   18.0275  -14.1025  -20.6428 C   0  0  0  0  0  0  0  0  0  0  0  0
   17.0113  -14.8082  -20.8718 O   0  0  0  0  0  0  0  0  0  0  0  0
   20.4576  -12.8697  -16.5525 C   0  0  0  0  0  0  0  0  0  0  0  0
   19.8004  -12.7204  -15.4824 O   0  0  0  0  0  0  0  0  0  0  0  0
   18.2913  -12.9608  -21.3829 O   0  0  0  0  0  0  0  0  0  0  0  0
   25.1764  -12.3239  -14.7799 C   0  0  0  0  0  0  0  0  0  0  0  0
   23.6935  -12.2354  -14.8766 C   0  0  0  0  0  0  0  0  0  0  0  0
   23.2526  -10.9857  -15.5504 C   0  0  2  0  0  0  0  0  0  0  0  0
   23.7580   -9.7468  -14.7849 C   0  0  0  0  0  0  0  0  0  0  0  0
   21.7821  -10.8395  -15.8158 C   0  0  2  0  0  0  0  0  0  0  0  0
   21.5019  -11.9424  -16.7805 N   0  0  0  0  0  0  0  0  0  0  0  0
   21.2909   -9.5868  -16.3410 C   0  0  0  0  0  0  0  0  0  0  0  0
   21.7303   -9.2285  -17.5014 O   0  0  0  0  0  0  0  0  0  0  0  0
   20.3946   -8.6997  -15.7600 N   0  0  0  0  0  0  0  0  0  0  0  0
   19.9552   -7.4484  -16.3888 C   0  0  1  0  0  0  0  0  0  0  0  0
   18.7162   -6.9282  -15.7696 C   0  0  0  0  0  0  0  0  0  0  0  0
   18.3324   -5.6207  -16.3486 C   0  0  0  0  0  0  0  0  0  0  0  0
   18.6429   -4.3469  -15.9706 C   0  0  0  0  0  0  0  0  0  0  0  0
   18.1157   -3.4904  -16.8687 N   0  0  0  0  0  0  0  0  0  0  0  0
   17.4748   -4.1800  -17.8166 C   0  0  0  0  0  0  0  0  0  0  0  0
   17.6049   -5.4634  -17.5046 N   0  0  0  0  0  0  0  0  0  0  0  0
   21.0915   -6.4988  -16.0921 C   0  0  0  0  0  0  0  0  0  0  0  0
   21.6295   -6.5722  -14.9585 O   0  0  0  0  0  0  0  0  0  0  0  0
   21.5423   -5.5860  -16.9832 O   0  0  0  0  0  0  0  0  0  0  0  0
  2  3  1  0
  2  1  1  1
  4  5  1  0
  4  3  1  0
  5  6  2  0
  7  2  1  0
  8  7  2  0
  9  5  1  0
 11 12  1  0
 11 10  1  0
 12 13  1  1
 12 14  1  0
 14 15  1  6
 15  7  1  0
 16 17  2  0
 16 14  1  0
 18 16  1  0
 19 18  1  0
 19 20  1  1
 20 21  1  0
 21 25  1  0
 21 22  2  0
 22 23  1  0
 24 23  1  0
 25 24  2  0
 26 19  1  0
 27 26  2  0
 28 26  1  0
M  END
$$$$
