EIH.pdb
     RDKit          3D

 28 28  0  0  1  0  0  0  0  0999 V2000
   20.5928  -14.3659  -16.8061 N   0  0  0  0  0  0  0  0  0  0  0  0
   21.2146  -13.3433  -17.6137 C   0  0  1  0  0  0  0  0  0  0  0  0
   20.3028  -12.9013  -18.7563 C   0  0  0  0  0  0  0  0  0  0  0  0
   20.1742  -14.0768  -19.6919 C   0  0  0  0  0  0  0  0  0  0  0  0
   19.3053  -13.7606  -20.8551 C   0  0  0  0  0  0  0  0  0  0  0  0
   18.2794  -14.4657  -21.0378 O   0  0  0  0  0  0  0  0  0  0  0  0
   21.4849  -12.1695  -16.7454 C   0  0  0  0  0  0  0  0  0  0  0  0
   20.8434  -12.0007  -15.6687 O   0  0  0  0  0  0  0  0  0  0  0  0
   19.6218  -12.7171  -21.7106 O   0  0  0  0  0  0  0  0  0  0  0  0
   26.3253  -11.1834  -15.3916 C   0  0  0  0  0  0  0  0  0  0  0  0
   24.8402  -11.2775  -15.4346 C   0  0  0  0  0  0  0  0  0  0  0  0
   24.2208  -10.0558  -16.0124 C   0  0  2  0  0  0  0  0  0  0  0  0
   24.6778   -8.7989  -15.2457 C   0  0  0  0  0  0  0  0  0  0  0  0
   22.7245  -10.0459  -16.1351 C   0  0  2  0  0  0  0  0  0  0  0  0
   22.4538  -11.1866  -17.0576 N   0  0  0  0  0  0  0  0  0  0  0  0
   22.0741   -8.8516  -16.6218 C   0  0  0  0  0  0  0  0  0  0  0  0
   22.4145   -8.4400  -17.7977 O   0  0  0  0  0  0  0  0  0  0  0  0
   21.1154   -8.0719  -15.9884 N   0  0  0  0  0  0  0  0  0  0  0  0
   20.5447   -6.8474  -16.5621 C   0  0  1  0  0  0  0  0  0  0  0  0
   19.1776   -6.5903  -16.0581 C   0  0  0  0  0  0  0  0  0  0  0  0
   18.6727   -5.2761  -16.5164 C   0  0  0  0  0  0  0  0  0  0  0  0
   18.6804   -4.0525  -15.9126 C   0  0  0  0  0  0  0  0  0  0  0  0
   18.1724   -3.1452  -16.7711 N   0  0  0  0  0  0  0  0  0  0  0  0
   17.8391   -3.7530  -17.9133 C   0  0  0  0  0  0  0  0  0  0  0  0
   18.1403   -5.0365  -17.7612 N   0  0  0  0  0  0  0  0  0  0  0  0
   21.4696   -5.7675  -16.0530 C   0  0  0  0  0  0  0  0  0  0  0  0
   21.9541   -5.9121  -14.9021 O   0  0  0  0  0  0  0  0  0  0  0  0
   21.7884   -4.6681  -16.7743 O   0  0  0  0  0  0  0  0  0  0  0  0
  2  3  1  0
  2  1  1  1
  4  5  1  0
  4  3  1  0
  5  6  2  0
  7  2  1  0
  8  7  2  0
  9  5  1  0
 11 12  1  0
 11 10  1  0
 12 13  1  1
 12 14  1  0
 14 15  1  6
 15  7  1  0
 16 17  2  0
 16 14  1  0
 18 16  1  0
 19 18  1  0
 19 20  1  1
 20 21  1  0
 21 25  1  0
 21 22  2  0
 22 23  1  0
 24 23  1  0
 25 24  2  0
 26 19  1  0
 27 26  2  0
 28 26  1  0
M  END
$$$$
