EIH.pdb
     RDKit          3D

 28 28  0  0  1  0  0  0  0  0999 V2000
   19.5787  -14.7991  -16.6748 N   0  0  0  0  0  0  0  0  0  0  0  0
   20.7271  -14.2649  -17.3679 C   0  0  1  0  0  0  0  0  0  0  0  0
   20.8746  -14.8757  -18.7598 C   0  0  0  0  0  0  0  0  0  0  0  0
   20.1953  -16.2213  -18.7202 C   0  0  0  0  0  0  0  0  0  0  0  0
   20.3276  -16.9418  -20.0131 C   0  0  0  0  0  0  0  0  0  0  0  0
   21.4130  -17.5302  -20.2554 O   0  0  0  0  0  0  0  0  0  0  0  0
   20.5380  -12.7994  -17.5140 C   0  0  0  0  0  0  0  0  0  0  0  0
   21.3431  -12.1094  -18.2033 O   0  0  0  0  0  0  0  0  0  0  0  0
   19.2813  -16.9610  -20.9217 O   0  0  0  0  0  0  0  0  0  0  0  0
   15.8644  -11.5863  -18.1626 C   0  0  0  0  0  0  0  0  0  0  0  0
   17.1579  -10.8984  -18.4273 C   0  0  0  0  0  0  0  0  0  0  0  0
   17.8196  -10.4537  -17.1725 C   0  0  2  0  0  0  0  0  0  0  0  0
   17.4564   -8.9896  -16.8547 C   0  0  0  0  0  0  0  0  0  0  0  0
   19.3091  -10.6242  -17.0928 C   0  0  2  0  0  0  0  0  0  0  0  0
   19.4710  -12.0955  -16.9069 N   0  0  0  0  0  0  0  0  0  0  0  0
   20.0371   -9.9134  -16.0675 C   0  0  0  0  0  0  0  0  0  0  0  0
   19.7401  -10.1920  -14.8419 O   0  0  0  0  0  0  0  0  0  0  0  0
   21.0306   -8.9556  -16.2212 N   0  0  0  0  0  0  0  0  0  0  0  0
   21.7320   -8.3150  -15.1024 C   0  0  1  0  0  0  0  0  0  0  0  0
   23.1812   -8.1795  -15.3681 C   0  0  0  0  0  0  0  0  0  0  0  0
   23.8529   -9.4989  -15.3776 C   0  0  0  0  0  0  0  0  0  0  0  0
   23.3532  -10.7605  -15.2349 C   0  0  0  0  0  0  0  0  0  0  0  0
   24.3591  -11.6435  -15.3978 N   0  0  0  0  0  0  0  0  0  0  0  0
   25.4940  -10.9828  -15.6435 C   0  0  0  0  0  0  0  0  0  0  0  0
   25.1904   -9.6909  -15.6320 N   0  0  0  0  0  0  0  0  0  0  0  0
   21.1092   -6.9402  -15.0501 C   0  0  0  0  0  0  0  0  0  0  0  0
   20.4236   -6.5746  -16.0383 O   0  0  0  0  0  0  0  0  0  0  0  0
   21.2610   -6.1005  -14.0002 O   0  0  0  0  0  0  0  0  0  0  0  0
  2  3  1  0
  2  1  1  6
  4  5  1  0
  4  3  1  0
  5  6  2  0
  7  2  1  0
  8  7  2  0
  9  5  1  0
 11 12  1  0
 11 10  1  0
 12 13  1  6
 12 14  1  0
 14 15  1  1
 15  7  1  0
 16 17  2  0
 16 14  1  0
 18 16  1  0
 19 18  1  0
 19 20  1  6
 20 21  1  0
 21 25  1  0
 21 22  2  0
 22 23  1  0
 24 23  1  0
 25 24  2  0
 26 19  1  0
 27 26  2  0
 28 26  1  0
M  END
$$$$
