EIH.pdb
     RDKit          3D

 28 28  0  0  1  0  0  0  0  0999 V2000
   21.6604  -30.2116  -12.3589 N   0  0  0  0  0  0  0  0  0  0  0  0
   21.9585  -29.8897  -10.9833 C   0  0  1  0  0  0  0  0  0  0  0  0
   20.7812  -29.1937  -10.3038 C   0  0  0  0  0  0  0  0  0  0  0  0
   20.7125  -27.7982  -10.8711 C   0  0  0  0  0  0  0  0  0  0  0  0
   19.6769  -26.9787  -10.1899 C   0  0  0  0  0  0  0  0  0  0  0  0
   19.9950  -26.3856   -9.1268 O   0  0  0  0  0  0  0  0  0  0  0  0
   22.2366  -31.1574  -10.2620 C   0  0  0  0  0  0  0  0  0  0  0  0
   21.4275  -32.1274  -10.3242 O   0  0  0  0  0  0  0  0  0  0  0  0
   18.3990  -26.8747  -10.7160 O   0  0  0  0  0  0  0  0  0  0  0  0
   27.2022  -32.1196   -9.7201 C   0  0  0  0  0  0  0  0  0  0  0  0
   25.9539  -32.9308   -9.7200 C   0  0  0  0  0  0  0  0  0  0  0  0
   25.1075  -32.6512   -8.5302 C   0  0  2  0  0  0  0  0  0  0  0  0
   25.4497  -33.6179   -7.3792 C   0  0  0  0  0  0  0  0  0  0  0  0
   23.6212  -32.6377   -8.7419 C   0  0  2  0  0  0  0  0  0  0  0  0
   23.3965  -31.3590   -9.4768 N   0  0  0  0  0  0  0  0  0  0  0  0
   22.7535  -32.7042   -7.5891 C   0  0  0  0  0  0  0  0  0  0  0  0
   22.5504  -31.6019   -6.9475 O   0  0  0  0  0  0  0  0  0  0  0  0
   22.0952  -33.8099   -7.0672 N   0  0  0  0  0  0  0  0  0  0  0  0
   21.2646  -33.7741   -5.8577 C   0  0  1  0  0  0  0  0  0  0  0  0
   20.3167  -34.9091   -5.8087 C   0  0  0  0  0  0  0  0  0  0  0  0
   19.2141  -34.7326   -6.7809 C   0  0  0  0  0  0  0  0  0  0  0  0
   18.8633  -33.6648   -7.5547 C   0  0  0  0  0  0  0  0  0  0  0  0
   17.8270  -34.0232   -8.3393 N   0  0  0  0  0  0  0  0  0  0  0  0
   17.5021  -35.2952   -8.0919 C   0  0  0  0  0  0  0  0  0  0  0  0
   18.3372  -35.7238   -7.1536 N   0  0  0  0  0  0  0  0  0  0  0  0
   22.2740  -33.9258   -4.7446 C   0  0  0  0  0  0  0  0  0  0  0  0
   23.3335  -34.5514   -5.0020 O   0  0  0  0  0  0  0  0  0  0  0  0
   22.0833  -33.4257   -3.5020 O   0  0  0  0  0  0  0  0  0  0  0  0
  2  3  1  0
  2  1  1  6
  4  5  1  0
  4  3  1  0
  5  6  2  0
  7  2  1  0
  8  7  2  0
  9  5  1  0
 11 12  1  0
 11 10  1  0
 12 13  1  1
 12 14  1  0
 14 15  1  1
 15  7  1  0
 16 17  2  0
 16 14  1  0
 18 16  1  0
 19 18  1  0
 19 20  1  6
 20 21  1  0
 21 25  1  0
 21 22  2  0
 22 23  1  0
 24 23  1  0
 25 24  2  0
 26 19  1  0
 27 26  2  0
 28 26  1  0
M  END
$$$$
