EIH.pdb
     RDKit          3D

 28 28  0  0  1  0  0  0  0  0999 V2000
   29.1815  -11.5701  -18.2200 N   0  0  0  0  0  0  0  0  0  0  0  0
   28.6466  -10.4672  -17.4571 C   0  0  1  0  0  0  0  0  0  0  0  0
   29.0644   -9.1228  -18.0491 C   0  0  0  0  0  0  0  0  0  0  0  0
   30.5553   -9.0055  -17.8568 C   0  0  0  0  0  0  0  0  0  0  0  0
   31.0658   -7.6861  -18.3115 C   0  0  0  0  0  0  0  0  0  0  0  0
   32.1274   -7.6618  -18.9863 O   0  0  0  0  0  0  0  0  0  0  0  0
   27.1649  -10.5572  -17.4915 C   0  0  0  0  0  0  0  0  0  0  0  0
   26.5739  -11.1230  -18.4559 O   0  0  0  0  0  0  0  0  0  0  0  0
   30.3867   -6.5194  -17.9978 O   0  0  0  0  0  0  0  0  0  0  0  0
   23.0388  -12.0565  -13.6705 C   0  0  0  0  0  0  0  0  0  0  0  0
   23.1739  -11.1982  -14.8795 C   0  0  0  0  0  0  0  0  0  0  0  0
   24.5862  -11.0893  -15.3307 C   0  0  2  0  0  0  0  0  0  0  0  0
   25.5008  -10.6733  -14.1616 C   0  0  0  0  0  0  0  0  0  0  0  0
   24.8556  -10.2024  -16.5117 C   0  0  2  0  0  0  0  0  0  0  0  0
   26.3368  -10.0290  -16.4728 N   0  0  0  0  0  0  0  0  0  0  0  0
   24.2086   -8.9125  -16.5752 C   0  0  0  0  0  0  0  0  0  0  0  0
   24.7667   -7.9473  -15.9236 O   0  0  0  0  0  0  0  0  0  0  0  0
   23.0489   -8.5613  -17.2535 N   0  0  0  0  0  0  0  0  0  0  0  0
   22.4581   -7.2181  -17.2263 C   0  0  1  0  0  0  0  0  0  0  0  0
   21.4122   -7.0572  -18.2604 C   0  0  0  0  0  0  0  0  0  0  0  0
   20.8386   -5.6924  -18.2388 C   0  0  0  0  0  0  0  0  0  0  0  0
   21.4274   -4.4701  -18.3836 C   0  0  0  0  0  0  0  0  0  0  0  0
   20.4664   -3.5244  -18.3675 N   0  0  0  0  0  0  0  0  0  0  0  0
   19.2733   -4.1065  -18.2177 C   0  0  0  0  0  0  0  0  0  0  0  0
   19.4961   -5.4126  -18.1404 N   0  0  0  0  0  0  0  0  0  0  0  0
   21.8159   -7.1543  -15.8608 C   0  0  0  0  0  0  0  0  0  0  0  0
   22.0017   -6.1146  -15.1792 O   0  0  0  0  0  0  0  0  0  0  0  0
   21.0643   -8.1571  -15.3509 O   0  0  0  0  0  0  0  0  0  0  0  0
  2  3  1  0
  2  1  1  6
  4  5  1  0
  4  3  1  0
  5  6  2  0
  7  2  1  0
  8  7  2  0
  9  5  1  0
 11 12  1  0
 11 10  1  0
 12 13  1  1
 12 14  1  0
 14 15  1  1
 15  7  1  0
 16 17  2  0
 16 14  1  0
 18 16  1  0
 19 18  1  0
 19 20  1  6
 20 21  1  0
 21 25  1  0
 21 22  2  0
 22 23  1  0
 24 23  1  0
 25 24  2  0
 26 19  1  0
 27 26  2  0
 28 26  1  0
M  END
$$$$
