GDA.pdb
     RDKit          3D

 18 17  0  0  1  0  0  0  0  0999 V2000
   14.0613   -8.8122  -15.1047 N   0  0  0  0  0  0  0  0  0  0  0  0
   14.7907   -7.5766  -14.9844 C   0  0  0  0  0  0  0  0  0  0  0  0
   16.2512   -7.8330  -15.0028 C   0  0  0  0  0  0  0  0  0  0  0  0
   16.7446   -8.5532  -14.1058 O   0  0  0  0  0  0  0  0  0  0  0  0
   17.1159   -7.2988  -15.9915 N   0  0  0  0  0  0  0  0  0  0  0  0
   18.5323   -7.5742  -16.0244 C   0  0  1  0  0  0  0  0  0  0  0  0
   19.1008   -7.5159  -17.4109 C   0  0  0  0  0  0  0  0  0  0  0  0
   20.5285   -7.8935  -17.4616 C   0  0  0  0  0  0  0  0  0  0  0  0
   21.3764   -7.0469  -17.8198 O   0  0  0  0  0  0  0  0  0  0  0  0
   19.2385   -6.6554  -15.0918 C   0  0  0  0  0  0  0  0  0  0  0  0
   18.8536   -5.4673  -14.9927 O   0  0  0  0  0  0  0  0  0  0  0  0
   20.9666   -9.1600  -17.1246 O   0  0  0  0  0  0  0  0  0  0  0  0
   21.7781   -7.0940  -12.3622 C   0  0  0  0  0  0  0  0  0  0  0  0
   20.9359   -6.2289  -13.2765 C   0  0  2  0  0  0  0  0  0  0  0  0
   20.3388   -7.0635  -14.3001 N   0  0  0  0  0  0  0  0  0  0  0  0
   21.7521   -5.1318  -13.8901 C   0  0  0  0  0  0  0  0  0  0  0  0
   22.1576   -4.0452  -13.1315 O   0  0  0  0  0  0  0  0  0  0  0  0
   22.0903   -5.1655  -15.1032 O   0  0  0  0  0  0  0  0  0  0  0  0
  1  2  1  0
  3  4  2  0
  3  2  1  0
  5  3  1  0
  6 10  1  0
  6  5  1  0
  6  7  1  6
  8 12  1  0
  8  7  1  0
  9  8  2  0
 10 11  2  0
 14 13  1  1
 14 16  1  0
 15 14  1  0
 15 10  1  0
 16 17  1  0
 18 16  2  0
M  END
$$$$
