GDA.pdb
     RDKit          3D

 18 17  0  0  1  0  0  0  0  0999 V2000
   15.5741  -12.4006  -14.1325 N   0  0  0  0  0  0  0  0  0  0  0  0
   14.7766  -11.3472  -13.5601 C   0  0  0  0  0  0  0  0  0  0  0  0
   15.5866  -10.5374  -12.6182 C   0  0  0  0  0  0  0  0  0  0  0  0
   15.8128  -10.9954  -11.4755 O   0  0  0  0  0  0  0  0  0  0  0  0
   16.1174   -9.2659  -12.9531 N   0  0  0  0  0  0  0  0  0  0  0  0
   16.9269   -8.4912  -12.0434 C   0  0  1  0  0  0  0  0  0  0  0  0
   17.9717   -7.6781  -12.7481 C   0  0  0  0  0  0  0  0  0  0  0  0
   18.9470   -8.5102  -13.4826 C   0  0  0  0  0  0  0  0  0  0  0  0
   19.7678   -9.2045  -12.8438 O   0  0  0  0  0  0  0  0  0  0  0  0
   16.0468   -7.6503  -11.1886 C   0  0  0  0  0  0  0  0  0  0  0  0
   15.1363   -6.9756  -11.7226 O   0  0  0  0  0  0  0  0  0  0  0  0
   18.9868   -8.5505  -14.8633 O   0  0  0  0  0  0  0  0  0  0  0  0
   15.5510   -7.2044   -7.4837 C   0  0  0  0  0  0  0  0  0  0  0  0
   15.2775   -6.8400   -8.9281 C   0  0  2  0  0  0  0  0  0  0  0  0
   16.1898   -7.5741   -9.7823 N   0  0  0  0  0  0  0  0  0  0  0  0
   15.4084   -5.3636   -9.1499 C   0  0  0  0  0  0  0  0  0  0  0  0
   14.4485   -4.4893   -8.6651 O   0  0  0  0  0  0  0  0  0  0  0  0
   16.3867   -4.8787   -9.7784 O   0  0  0  0  0  0  0  0  0  0  0  0
  1  2  1  0
  3  4  2  0
  3  2  1  0
  5  3  1  0
  6 10  1  0
  6  5  1  0
  6  7  1  6
  8 12  1  0
  8  7  1  0
  9  8  2  0
 10 11  2  0
 14 13  1  1
 14 16  1  0
 15 14  1  0
 15 10  1  0
 16 17  1  0
 18 16  2  0
M  END
$$$$
