GDA.pdb
     RDKit          3D

 18 17  0  0  1  0  0  0  0  0999 V2000
   19.1683  -12.6763  -17.1824 N   0  0  0  0  0  0  0  0  0  0  0  0
   20.2252  -11.9982  -16.4778 C   0  0  0  0  0  0  0  0  0  0  0  0
   19.9822  -10.5355  -16.4618 C   0  0  0  0  0  0  0  0  0  0  0  0
   20.1293   -9.8918  -17.5252 O   0  0  0  0  0  0  0  0  0  0  0  0
   19.5903   -9.8312  -15.2952 N   0  0  0  0  0  0  0  0  0  0  0  0
   19.2619   -8.4258  -15.3024 C   0  0  1  0  0  0  0  0  0  0  0  0
   18.0323   -8.1151  -14.5019 C   0  0  0  0  0  0  0  0  0  0  0  0
   16.8465   -8.8709  -14.9556 C   0  0  0  0  0  0  0  0  0  0  0  0
   16.4622   -8.7596  -16.1404 O   0  0  0  0  0  0  0  0  0  0  0  0
   20.4389   -7.6385  -14.8471 C   0  0  0  0  0  0  0  0  0  0  0  0
   21.0276   -7.9701  -13.7921 O   0  0  0  0  0  0  0  0  0  0  0  0
   16.1387   -9.7049  -14.1111 O   0  0  0  0  0  0  0  0  0  0  0  0
   22.4326   -4.7447  -16.2164 C   0  0  0  0  0  0  0  0  0  0  0  0
   22.1163   -5.7818  -15.1591 C   0  0  2  0  0  0  0  0  0  0  0  0
   20.9328   -6.5179  -15.5571 N   0  0  0  0  0  0  0  0  0  0  0  0
   21.9240   -5.1465  -13.8154 C   0  0  0  0  0  0  0  0  0  0  0  0
   23.0063   -4.9227  -12.9791 O   0  0  0  0  0  0  0  0  0  0  0  0
   20.7823   -4.8004  -13.4106 O   0  0  0  0  0  0  0  0  0  0  0  0
  1  2  1  0
  3  4  2  0
  3  2  1  0
  5  3  1  0
  6 10  1  0
  6  5  1  0
  6  7  1  1
  8 12  1  0
  8  7  1  0
  9  8  2  0
 10 11  2  0
 14 13  1  6
 14 16  1  0
 15 14  1  0
 15 10  1  0
 16 17  1  0
 18 16  2  0
M  END
$$$$
