GDA.pdb
     RDKit          3D

 18 17  0  0  1  0  0  0  0  0999 V2000
   16.1982  -11.9331  -15.7005 N   0  0  0  0  0  0  0  0  0  0  0  0
   17.6023  -11.8875  -15.3849 C   0  0  0  0  0  0  0  0  0  0  0  0
   18.1351  -10.5186  -15.5879 C   0  0  0  0  0  0  0  0  0  0  0  0
   19.1541  -10.3716  -16.2997 O   0  0  0  0  0  0  0  0  0  0  0  0
   17.5422   -9.3666  -15.0117 N   0  0  0  0  0  0  0  0  0  0  0  0
   18.0269   -8.0298  -15.2588 C   0  0  1  0  0  0  0  0  0  0  0  0
   16.9469   -6.9945  -15.1548 C   0  0  0  0  0  0  0  0  0  0  0  0
   17.4387   -5.6251  -15.4116 C   0  0  0  0  0  0  0  0  0  0  0  0
   17.9989   -5.3663  -16.4992 O   0  0  0  0  0  0  0  0  0  0  0  0
   19.1685   -7.7397  -14.3504 C   0  0  0  0  0  0  0  0  0  0  0  0
   19.0220   -7.8876  -13.1150 O   0  0  0  0  0  0  0  0  0  0  0  0
   17.3015   -4.6087  -14.4853 O   0  0  0  0  0  0  0  0  0  0  0  0
   22.7763   -7.7774  -14.5209 C   0  0  0  0  0  0  0  0  0  0  0  0
   21.5658   -7.0679  -13.9508 C   0  0  2  0  0  0  0  0  0  0  0  0
   20.4290   -7.2988  -14.8199 N   0  0  0  0  0  0  0  0  0  0  0  0
   21.8237   -5.6008  -13.7863 C   0  0  0  0  0  0  0  0  0  0  0  0
   22.6158   -5.1355  -12.7486 O   0  0  0  0  0  0  0  0  0  0  0  0
   21.3320   -4.7551  -14.5801 O   0  0  0  0  0  0  0  0  0  0  0  0
  1  2  1  0
  3  4  2  0
  3  2  1  0
  5  3  1  0
  6 10  1  0
  6  5  1  0
  6  7  1  1
  8 12  1  0
  8  7  1  0
  9  8  2  0
 10 11  2  0
 14 13  1  6
 14 16  1  0
 15 14  1  0
 15 10  1  0
 16 17  1  0
 18 16  2  0
M  END
$$$$
