GDA.pdb
     RDKit          3D

 18 17  0  0  1  0  0  0  0  0999 V2000
   20.4823  -12.6070  -17.1272 N   0  0  0  0  0  0  0  0  0  0  0  0
   19.4592  -11.9665  -16.3423 C   0  0  0  0  0  0  0  0  0  0  0  0
   19.5749  -10.4917  -16.4440 C   0  0  0  0  0  0  0  0  0  0  0  0
   20.1908  -10.0047  -17.4188 O   0  0  0  0  0  0  0  0  0  0  0  0
   19.0189   -9.6062  -15.4862 N   0  0  0  0  0  0  0  0  0  0  0  0
   19.0202   -8.1724  -15.6518 C   0  0  1  0  0  0  0  0  0  0  0  0
   17.7189   -7.5430  -15.2524 C   0  0  0  0  0  0  0  0  0  0  0  0
   17.6994   -6.0811  -15.4667 C   0  0  0  0  0  0  0  0  0  0  0  0
   17.0524   -5.3529  -14.6825 O   0  0  0  0  0  0  0  0  0  0  0  0
   20.1729   -7.5885  -14.9151 C   0  0  0  0  0  0  0  0  0  0  0  0
   20.2717   -7.7788  -13.6808 O   0  0  0  0  0  0  0  0  0  0  0  0
   18.3763   -5.4821  -16.5120 O   0  0  0  0  0  0  0  0  0  0  0  0
   23.2953   -5.6915  -15.8177 C   0  0  0  0  0  0  0  0  0  0  0  0
   22.2477   -6.1581  -14.8285 C   0  0  2  0  0  0  0  0  0  0  0  0
   21.1770   -6.8180  -15.5490 N   0  0  0  0  0  0  0  0  0  0  0  0
   21.7199   -5.0144  -14.0163 C   0  0  0  0  0  0  0  0  0  0  0  0
   22.3520   -4.6302  -12.8443 O   0  0  0  0  0  0  0  0  0  0  0  0
   20.6949   -4.3745  -14.3727 O   0  0  0  0  0  0  0  0  0  0  0  0
  1  2  1  0
  3  4  2  0
  3  2  1  0
  5  3  1  0
  6 10  1  0
  6  5  1  0
  6  7  1  1
  8 12  1  0
  8  7  1  0
  9  8  2  0
 10 11  2  0
 14 13  1  6
 14 16  1  0
 15 14  1  0
 15 10  1  0
 16 17  1  0
 18 16  2  0
M  END
$$$$
