GDA.pdb
     RDKit          3D

 18 17  0  0  1  0  0  0  0  0999 V2000
   15.3926   -7.6640   -7.9484 N   0  0  0  0  0  0  0  0  0  0  0  0
   15.3381   -6.7994   -9.0985 C   0  0  0  0  0  0  0  0  0  0  0  0
   16.3960   -7.1639  -10.0716 C   0  0  0  0  0  0  0  0  0  0  0  0
   17.2937   -7.9583   -9.7114 O   0  0  0  0  0  0  0  0  0  0  0  0
   16.4374   -6.6530  -11.3937 N   0  0  0  0  0  0  0  0  0  0  0  0
   17.3941   -7.1016  -12.3768 C   0  0  1  0  0  0  0  0  0  0  0  0
   16.7952   -7.2420  -13.7446 C   0  0  0  0  0  0  0  0  0  0  0  0
   15.7847   -8.3172  -13.8205 C   0  0  0  0  0  0  0  0  0  0  0  0
   14.5820   -8.0203  -13.9915 O   0  0  0  0  0  0  0  0  0  0  0  0
   18.5725   -6.1940  -12.3732 C   0  0  0  0  0  0  0  0  0  0  0  0
   18.3953   -4.9594  -12.2552 O   0  0  0  0  0  0  0  0  0  0  0  0
   16.1220   -9.6527  -13.7086 O   0  0  0  0  0  0  0  0  0  0  0  0
   22.3155   -6.6345  -12.4419 C   0  0  0  0  0  0  0  0  0  0  0  0
   21.0589   -5.7902  -12.4864 C   0  0  2  0  0  0  0  0  0  0  0  0
   19.9021   -6.6634  -12.4981 N   0  0  0  0  0  0  0  0  0  0  0  0
   21.0561   -4.8830  -13.6794 C   0  0  0  0  0  0  0  0  0  0  0  0
   21.6963   -3.6546  -13.6335 O   0  0  0  0  0  0  0  0  0  0  0  0
   20.4764   -5.2083  -14.7496 O   0  0  0  0  0  0  0  0  0  0  0  0
  1  2  1  0
  3  4  2  0
  3  2  1  0
  5  3  1  0
  6 10  1  0
  6  5  1  0
  6  7  1  6
  8 12  1  0
  8  7  1  0
  9  8  2  0
 10 11  2  0
 14 13  1  6
 14 16  1  0
 15 14  1  0
 15 10  1  0
 16 17  1  0
 18 16  2  0
M  END
$$$$
