GDA.pdb
     RDKit          3D

 18 17  0  0  1  0  0  0  0  0999 V2000
   26.1138  -10.5696  -16.2817 N   0  0  0  0  0  0  0  0  0  0  0  0
   24.9511  -10.4853  -15.4366 C   0  0  0  0  0  0  0  0  0  0  0  0
   24.0511   -9.4017  -15.8998 C   0  0  0  0  0  0  0  0  0  0  0  0
   24.3029   -8.8377  -16.9885 O   0  0  0  0  0  0  0  0  0  0  0  0
   22.9163   -8.9742  -15.1648 N   0  0  0  0  0  0  0  0  0  0  0  0
   21.9739   -8.0060  -15.6724 C   0  0  1  0  0  0  0  0  0  0  0  0
   20.5709   -8.2681  -15.2121 C   0  0  0  0  0  0  0  0  0  0  0  0
   20.0621   -9.5859  -15.6452 C   0  0  0  0  0  0  0  0  0  0  0  0
   19.9695   -9.8386  -16.8664 O   0  0  0  0  0  0  0  0  0  0  0  0
   22.4313   -6.6355  -15.3188 C   0  0  0  0  0  0  0  0  0  0  0  0
   22.7301   -6.3762  -14.1301 O   0  0  0  0  0  0  0  0  0  0  0  0
   19.6806  -10.5599  -14.7421 O   0  0  0  0  0  0  0  0  0  0  0  0
   23.1457   -3.4533  -17.2100 C   0  0  0  0  0  0  0  0  0  0  0  0
   22.9552   -4.2470  -15.9343 C   0  0  2  0  0  0  0  0  0  0  0  0
   22.5468   -5.5959  -16.2727 N   0  0  0  0  0  0  0  0  0  0  0  0
   21.9508   -3.5944  -15.0335 C   0  0  0  0  0  0  0  0  0  0  0  0
   20.6810   -4.1301  -14.8870 O   0  0  0  0  0  0  0  0  0  0  0  0
   22.2295   -2.5485  -14.3888 O   0  0  0  0  0  0  0  0  0  0  0  0
  1  2  1  0
  3  4  2  0
  3  2  1  0
  5  3  1  0
  6 10  1  0
  6  5  1  0
  6  7  1  1
  8 12  1  0
  8  7  1  0
  9  8  2  0
 10 11  2  0
 14 13  1  6
 14 16  1  0
 15 14  1  0
 15 10  1  0
 16 17  1  0
 18 16  2  0
M  END
$$$$
