GDA.pdb
     RDKit          3D

 18 17  0  0  1  0  0  0  0  0999 V2000
   20.7870  -10.8896  -17.2344 N   0  0  0  0  0  0  0  0  0  0  0  0
   19.4706  -10.3153  -17.1328 C   0  0  0  0  0  0  0  0  0  0  0  0
   19.4682   -9.1927  -16.1639 C   0  0  0  0  0  0  0  0  0  0  0  0
   18.5508   -9.1363  -15.3142 O   0  0  0  0  0  0  0  0  0  0  0  0
   20.4590   -8.1784  -16.1557 N   0  0  0  0  0  0  0  0  0  0  0  0
   20.4744   -7.1066  -15.1893 C   0  0  1  0  0  0  0  0  0  0  0  0
   21.8566   -6.7839  -14.7053 C   0  0  0  0  0  0  0  0  0  0  0  0
   21.8796   -5.6665  -13.7389 C   0  0  0  0  0  0  0  0  0  0  0  0
   21.3902   -5.8283  -12.5995 O   0  0  0  0  0  0  0  0  0  0  0  0
   19.7891   -5.9152  -15.7582 C   0  0  0  0  0  0  0  0  0  0  0  0
   20.2576   -5.3701  -16.7843 O   0  0  0  0  0  0  0  0  0  0  0  0
   22.4271   -4.4364  -14.0499 O   0  0  0  0  0  0  0  0  0  0  0  0
   16.5127   -4.1798  -15.2488 C   0  0  0  0  0  0  0  0  0  0  0  0
   17.9506   -4.1899  -15.7244 C   0  0  2  0  0  0  0  0  0  0  0  0
   18.6179   -5.3600  -15.1892 N   0  0  0  0  0  0  0  0  0  0  0  0
   18.6649   -2.9357  -15.3210 C   0  0  0  0  0  0  0  0  0  0  0  0
   18.4999   -1.7655  -16.0450 O   0  0  0  0  0  0  0  0  0  0  0  0
   19.4298   -2.9091  -14.3203 O   0  0  0  0  0  0  0  0  0  0  0  0
  1  2  1  0
  3  4  2  0
  3  2  1  0
  5  3  1  0
  6 10  1  0
  6  5  1  0
  6  7  1  6
  8 12  1  0
  8  7  1  0
  9  8  2  0
 10 11  2  0
 14 13  1  1
 14 16  1  0
 15 14  1  0
 15 10  1  0
 16 17  1  0
 18 16  2  0
M  END
$$$$
