GDA.pdb
     RDKit          3D

 18 17  0  0  1  0  0  0  0  0999 V2000
   21.6325  -17.2338  -16.8175 N   0  0  0  0  0  0  0  0  0  0  0  0
   22.6587  -16.8763  -15.8728 C   0  0  0  0  0  0  0  0  0  0  0  0
   23.4005  -18.0823  -15.4321 C   0  0  0  0  0  0  0  0  0  0  0  0
   22.7488  -19.0869  -15.0676 O   0  0  0  0  0  0  0  0  0  0  0  0
   24.8166  -18.1500  -15.4046 N   0  0  0  0  0  0  0  0  0  0  0  0
   25.5360  -19.3149  -14.9483 C   0  0  1  0  0  0  0  0  0  0  0  0
   26.9485  -19.3560  -15.4507 C   0  0  0  0  0  0  0  0  0  0  0  0
   27.0349  -19.6560  -16.8949 C   0  0  0  0  0  0  0  0  0  0  0  0
   27.7495  -18.9402  -17.6303 O   0  0  0  0  0  0  0  0  0  0  0  0
   25.4684  -19.3906  -13.4643 C   0  0  0  0  0  0  0  0  0  0  0  0
   26.0354  -18.5085  -12.7788 O   0  0  0  0  0  0  0  0  0  0  0  0
   26.3485  -20.7087  -17.4697 O   0  0  0  0  0  0  0  0  0  0  0  0
   23.2577  -20.6108  -10.9197 C   0  0  0  0  0  0  0  0  0  0  0  0
   24.7106  -20.5079  -11.3346 C   0  0  2  0  0  0  0  0  0  0  0  0
   24.7854  -20.4243  -12.7797 N   0  0  0  0  0  0  0  0  0  0  0  0
   25.5049  -21.6720  -10.8246 C   0  0  0  0  0  0  0  0  0  0  0  0
   25.7642  -21.8103   -9.4702 O   0  0  0  0  0  0  0  0  0  0  0  0
   25.9560  -22.5513  -11.6060 O   0  0  0  0  0  0  0  0  0  0  0  0
  1  2  1  0
  3  4  2  0
  3  2  1  0
  5  3  1  0
  6 10  1  0
  6  5  1  0
  6  7  1  1
  8 12  1  0
  8  7  1  0
  9  8  2  0
 10 11  2  0
 14 13  1  6
 14 16  1  0
 15 14  1  0
 15 10  1  0
 16 17  1  0
 18 16  2  0
M  END
$$$$
