GDA.pdb
     RDKit          3D

 18 17  0  0  1  0  0  0  0  0999 V2000
   25.5914  -19.4076  -16.5887 N   0  0  0  0  0  0  0  0  0  0  0  0
   24.7316  -18.8709  -15.5660 C   0  0  0  0  0  0  0  0  0  0  0  0
   23.3500  -18.7123  -16.0809 C   0  0  0  0  0  0  0  0  0  0  0  0
   23.0991  -19.0865  -17.2488 O   0  0  0  0  0  0  0  0  0  0  0  0
   22.2984  -18.1554  -15.3099 N   0  0  0  0  0  0  0  0  0  0  0  0
   20.9515  -18.0145  -15.8089 C   0  0  1  0  0  0  0  0  0  0  0  0
   19.9147  -18.3262  -14.7711 C   0  0  0  0  0  0  0  0  0  0  0  0
   19.8820  -19.7573  -14.4049 C   0  0  0  0  0  0  0  0  0  0  0  0
   20.1699  -20.1003  -13.2373 O   0  0  0  0  0  0  0  0  0  0  0  0
   20.7749  -16.6543  -16.3844 C   0  0  0  0  0  0  0  0  0  0  0  0
   21.0454  -15.6519  -15.6833 O   0  0  0  0  0  0  0  0  0  0  0  0
   19.5417  -20.7413  -15.3135 O   0  0  0  0  0  0  0  0  0  0  0  0
   19.9553  -15.2743  -19.7905 C   0  0  0  0  0  0  0  0  0  0  0  0
   20.2244  -15.1199  -18.3081 C   0  0  2  0  0  0  0  0  0  0  0  0
   20.3100  -16.4343  -17.7032 N   0  0  0  0  0  0  0  0  0  0  0  0
   19.1624  -14.2950  -17.6464 C   0  0  0  0  0  0  0  0  0  0  0  0
   19.2035  -12.9110  -17.7074 O   0  0  0  0  0  0  0  0  0  0  0  0
   18.2096  -14.8314  -17.0206 O   0  0  0  0  0  0  0  0  0  0  0  0
  1  2  1  0
  3  4  2  0
  3  2  1  0
  5  3  1  0
  6 10  1  0
  6  5  1  0
  6  7  1  1
  8 12  1  0
  8  7  1  0
  9  8  2  0
 10 11  2  0
 14 13  1  6
 14 16  1  0
 15 14  1  0
 15 10  1  0
 16 17  1  0
 18 16  2  0
M  END
$$$$
