VCC.pdb
     RDKit          3D

 20 19  0  0  1  0  0  0  0  0999 V2000
    9.2857  -13.1477   18.6897 C   0  0  0  0  0  0  0  0  0  0  0  0
    8.4978  -13.5279   19.8999 C   0  0  1  0  0  0  0  0  0  0  0  0
    7.2740  -12.6761   19.9869 C   0  0  0  0  0  0  0  0  0  0  0  0
    8.1879  -15.0163   19.9390 C   0  0  2  0  0  0  0  0  0  0  0  0
    7.3838  -15.3856   18.8089 N   0  0  0  0  0  0  0  0  0  0  0  0
    7.4996  -15.3211   21.2303 C   0  0  0  0  0  0  0  0  0  0  0  0
    6.2768  -15.6083   21.2818 O   0  0  0  0  0  0  0  0  0  0  0  0
    8.2619  -15.2818   22.4293 N   0  0  0  0  0  0  0  0  0  0  0  0
    7.8191  -15.7931   23.6819 C   0  0  1  0  0  0  0  0  0  0  0  0
    7.3982  -17.2480   23.4963 C   0  0  0  0  0  0  0  0  0  0  0  0
    6.7796  -17.9061   25.0631 S   0  0  0  0  0  0  0  0  0  0  0  0
    8.7900  -15.6831   24.7721 C   0  0  0  0  0  0  0  0  0  0  0  0
    9.9532  -16.1501   24.7638 O   0  0  0  0  0  0  0  0  0  0  0  0
    8.3882  -14.9870   25.9488 N   0  0  0  0  0  0  0  0  0  0  0  0
    9.3565  -14.6866   26.9853 C   0  0  1  0  0  0  0  0  0  0  0  0
    8.7869  -13.7213   28.0079 C   0  0  0  0  0  0  0  0  0  0  0  0
    7.7000  -12.5064   27.2542 S   0  0  0  0  0  0  0  0  0  0  0  0
    9.7066  -15.9633   27.6607 C   0  0  0  0  0  0  0  0  0  0  0  0
   10.6944  -16.0367   28.6439 O   0  0  0  0  0  0  0  0  0  0  0  0
    9.1218  -17.0416   27.3719 O   0  0  0  0  0  0  0  0  0  0  0  0
  2  1  1  6
  2  3  1  0
  4  2  1  0
  4  5  1  6
  6  4  1  0
  7  6  2  0
  8  6  1  0
  9 12  1  0
  9  8  1  0
  9 10  1  6
 11 10  1  0
 12 14  1  0
 13 12  2  0
 14 15  1  0
 15 16  1  1
 16 17  1  0
 18 15  1  0
 18 19  1  0
 20 18  2  0
M  END
$$$$
