VCC.pdb
     RDKit          3D

 20 19  0  0  1  0  0  0  0  0999 V2000
    8.3969  -12.7700   20.6836 C   0  0  0  0  0  0  0  0  0  0  0  0
    7.9580  -13.7168   19.6155 C   0  0  1  0  0  0  0  0  0  0  0  0
    8.5664  -13.3155   18.3117 C   0  0  0  0  0  0  0  0  0  0  0  0
    8.2413  -15.1656   19.9806 C   0  0  2  0  0  0  0  0  0  0  0  0
    7.8727  -16.0317   18.8971 N   0  0  0  0  0  0  0  0  0  0  0  0
    7.4890  -15.4930   21.2301 C   0  0  0  0  0  0  0  0  0  0  0  0
    6.3458  -16.0149   21.2020 O   0  0  0  0  0  0  0  0  0  0  0  0
    8.0959  -15.2004   22.4817 N   0  0  0  0  0  0  0  0  0  0  0  0
    7.5907  -15.6300   23.7413 C   0  0  1  0  0  0  0  0  0  0  0  0
    7.5214  -17.1543   23.7476 C   0  0  0  0  0  0  0  0  0  0  0  0
    6.8965  -17.7276   25.3450 S   0  0  0  0  0  0  0  0  0  0  0  0
    8.3427  -15.1536   24.9036 C   0  0  0  0  0  0  0  0  0  0  0  0
    9.5748  -15.2961   25.0845 O   0  0  0  0  0  0  0  0  0  0  0  0
    7.6212  -14.4674   25.9231 N   0  0  0  0  0  0  0  0  0  0  0  0
    8.3313  -13.7137   26.9380 C   0  0  1  0  0  0  0  0  0  0  0  0
    7.3833  -12.8429   27.7411 C   0  0  0  0  0  0  0  0  0  0  0  0
    6.1458  -12.0592   26.7019 S   0  0  0  0  0  0  0  0  0  0  0  0
    8.9887  -14.6880   27.8476 C   0  0  0  0  0  0  0  0  0  0  0  0
    9.8194  -14.2836   28.8935 O   0  0  0  0  0  0  0  0  0  0  0  0
    8.8224  -15.9297   27.7117 O   0  0  0  0  0  0  0  0  0  0  0  0
  2  1  1  1
  2  3  1  0
  4  2  1  0
  4  5  1  6
  6  4  1  0
  7  6  2  0
  8  6  1  0
  9 12  1  0
  9  8  1  0
  9 10  1  6
 11 10  1  0
 12 14  1  0
 13 12  2  0
 14 15  1  0
 15 16  1  1
 16 17  1  0
 18 15  1  0
 18 19  1  0
 20 18  2  0
M  END
$$$$
