VCC.pdb
     RDKit          3D

 20 19  0  0  1  0  0  0  0  0999 V2000
    7.9158  -18.2688   20.2601 C   0  0  0  0  0  0  0  0  0  0  0  0
    8.4628  -17.4527   21.3847 C   0  0  1  0  0  0  0  0  0  0  0  0
    9.8690  -17.8701   21.6666 C   0  0  0  0  0  0  0  0  0  0  0  0
    8.3277  -15.9596   21.1293 C   0  0  2  0  0  0  0  0  0  0  0  0
    9.1333  -15.5733   20.0061 N   0  0  0  0  0  0  0  0  0  0  0  0
    8.7260  -15.2305   22.3719 C   0  0  0  0  0  0  0  0  0  0  0  0
    9.9021  -14.8286   22.5604 O   0  0  0  0  0  0  0  0  0  0  0  0
    7.7356  -14.9905   23.3627 N   0  0  0  0  0  0  0  0  0  0  0  0
    7.9873  -14.3703   24.6190 C   0  0  1  0  0  0  0  0  0  0  0  0
    6.6523  -14.0094   25.2639 C   0  0  0  0  0  0  0  0  0  0  0  0
    6.9406  -12.9784   26.7215 S   0  0  0  0  0  0  0  0  0  0  0  0
    8.7993  -15.1603   25.5464 C   0  0  0  0  0  0  0  0  0  0  0  0
    8.7696  -16.4081   25.6619 O   0  0  0  0  0  0  0  0  0  0  0  0
    9.7047  -14.4602   26.3953 N   0  0  0  0  0  0  0  0  0  0  0  0
   10.7052  -15.1871   27.1522 C   0  0  1  0  0  0  0  0  0  0  0  0
   11.4784  -14.2620   28.0732 C   0  0  0  0  0  0  0  0  0  0  0  0
   10.3887  -13.2618   29.0919 S   0  0  0  0  0  0  0  0  0  0  0  0
   10.0003  -16.2106   27.9673 C   0  0  0  0  0  0  0  0  0  0  0  0
    8.6085  -16.2563   28.0600 O   0  0  0  0  0  0  0  0  0  0  0  0
   10.6344  -17.0869   28.6140 O   0  0  0  0  0  0  0  0  0  0  0  0
  2  1  1  6
  2  3  1  0
  4  2  1  0
  4  5  1  6
  6  4  1  0
  7  6  2  0
  8  6  1  0
  9 12  1  0
  9  8  1  0
  9 10  1  1
 11 10  1  0
 12 14  1  0
 13 12  2  0
 14 15  1  0
 15 16  1  1
 16 17  1  0
 18 15  1  0
 18 19  1  0
 20 18  2  0
M  END
$$$$
