VCC.pdb
     RDKit          3D

 20 19  0  0  1  0  0  0  0  0999 V2000
    8.3799  -12.6917   20.5463 C   0  0  0  0  0  0  0  0  0  0  0  0
    7.9074  -13.6081   19.4660 C   0  0  1  0  0  0  0  0  0  0  0  0
    8.4946  -13.1845   18.1596 C   0  0  0  0  0  0  0  0  0  0  0  0
    8.1791  -15.0684   19.7922 C   0  0  2  0  0  0  0  0  0  0  0  0
    7.7485  -15.9072   18.7101 N   0  0  0  0  0  0  0  0  0  0  0  0
    7.4752  -15.4060   21.0669 C   0  0  0  0  0  0  0  0  0  0  0  0
    6.3209  -15.9036   21.0789 O   0  0  0  0  0  0  0  0  0  0  0  0
    8.1421  -15.1518   22.2961 N   0  0  0  0  0  0  0  0  0  0  0  0
    7.6661  -15.5682   23.5714 C   0  0  1  0  0  0  0  0  0  0  0  0
    7.5264  -17.0877   23.5703 C   0  0  0  0  0  0  0  0  0  0  0  0
    6.8317  -17.6352   25.1477 S   0  0  0  0  0  0  0  0  0  0  0  0
    8.4832  -15.1367   24.7070 C   0  0  0  0  0  0  0  0  0  0  0  0
    9.7181  -15.3152   24.8274 O   0  0  0  0  0  0  0  0  0  0  0  0
    7.8282  -14.4541   25.7725 N   0  0  0  0  0  0  0  0  0  0  0  0
    8.6056  -13.7933   26.8028 C   0  0  1  0  0  0  0  0  0  0  0  0
    7.7910  -12.7242   27.5066 C   0  0  0  0  0  0  0  0  0  0  0  0
    6.4607  -12.1022   26.4728 S   0  0  0  0  0  0  0  0  0  0  0  0
    9.0157  -14.8247   27.7911 C   0  0  0  0  0  0  0  0  0  0  0  0
    8.6076  -16.1553   27.6884 O   0  0  0  0  0  0  0  0  0  0  0  0
    9.7549  -14.5390   28.7709 O   0  0  0  0  0  0  0  0  0  0  0  0
  2  1  1  1
  2  3  1  0
  4  2  1  0
  4  5  1  6
  6  4  1  0
  7  6  2  0
  8  6  1  0
  9 12  1  0
  9  8  1  0
  9 10  1  6
 11 10  1  0
 12 14  1  0
 13 12  2  0
 14 15  1  0
 15 16  1  1
 16 17  1  0
 18 15  1  0
 18 19  1  0
 20 18  2  0
M  END
$$$$
