VCC.pdb
     RDKit          3D

 20 19  0  0  1  0  0  0  0  0999 V2000
    5.9194  -15.9224   19.7032 C   0  0  0  0  0  0  0  0  0  0  0  0
    6.8519  -15.8593   20.8678 C   0  0  1  0  0  0  0  0  0  0  0  0
    7.8751  -16.9408   20.7474 C   0  0  0  0  0  0  0  0  0  0  0  0
    7.4662  -14.4785   21.0372 C   0  0  2  0  0  0  0  0  0  0  0  0
    8.2426  -14.1353   19.8798 N   0  0  0  0  0  0  0  0  0  0  0  0
    8.2977  -14.4811   22.2794 C   0  0  0  0  0  0  0  0  0  0  0  0
    9.5415  -14.6602   22.2480 O   0  0  0  0  0  0  0  0  0  0  0  0
    7.6502  -14.2739   23.5276 N   0  0  0  0  0  0  0  0  0  0  0  0
    8.2948  -14.3637   24.7936 C   0  0  1  0  0  0  0  0  0  0  0  0
    7.4453  -13.6329   25.8292 C   0  0  0  0  0  0  0  0  0  0  0  0
    5.7897  -14.3591   25.8789 S   0  0  0  0  0  0  0  0  0  0  0  0
    8.5814  -15.7264   25.2457 C   0  0  0  0  0  0  0  0  0  0  0  0
    7.8501  -16.7269   25.0578 O   0  0  0  0  0  0  0  0  0  0  0  0
    9.7936  -15.9451   25.9621 N   0  0  0  0  0  0  0  0  0  0  0  0
   10.2031  -17.2920   26.3091 C   0  0  1  0  0  0  0  0  0  0  0  0
   11.6473  -17.5460   25.9196 C   0  0  0  0  0  0  0  0  0  0  0  0
   12.0096  -16.9614   24.2605 S   0  0  0  0  0  0  0  0  0  0  0  0
   10.0604  -17.4429   27.7808 C   0  0  0  0  0  0  0  0  0  0  0  0
   10.3093  -18.6526   28.4307 O   0  0  0  0  0  0  0  0  0  0  0  0
    9.7059  -16.4777   28.5092 O   0  0  0  0  0  0  0  0  0  0  0  0
  2  1  1  6
  2  3  1  0
  4  2  1  0
  4  5  1  6
  6  4  1  0
  7  6  2  0
  8  6  1  0
  9 12  1  0
  9  8  1  0
  9 10  1  1
 11 10  1  0
 12 14  1  0
 13 12  2  0
 14 15  1  0
 15 16  1  1
 16 17  1  0
 18 15  1  0
 18 19  1  0
 20 18  2  0
M  END
$$$$
