VCC.pdb
     RDKit          3D

 20 19  0  0  1  0  0  0  0  0999 V2000
   12.5464  -20.9492   18.0961 C   0  0  0  0  0  0  0  0  0  0  0  0
   11.6166  -21.4835   19.1353 C   0  0  1  0  0  0  0  0  0  0  0  0
   12.3982  -21.8997   20.3382 C   0  0  0  0  0  0  0  0  0  0  0  0
   10.4996  -20.5052   19.4638 C   0  0  2  0  0  0  0  0  0  0  0  0
    9.6940  -20.2631   18.3008 N   0  0  0  0  0  0  0  0  0  0  0  0
   11.1135  -19.2450   19.9829 C   0  0  0  0  0  0  0  0  0  0  0  0
   11.7342  -18.4488   19.2340 O   0  0  0  0  0  0  0  0  0  0  0  0
   10.9844  -18.9497   21.3672 N   0  0  0  0  0  0  0  0  0  0  0  0
   11.5889  -17.8339   22.0121 C   0  0  1  0  0  0  0  0  0  0  0  0
   10.5949  -17.2464   23.0095 C   0  0  0  0  0  0  0  0  0  0  0  0
   10.7908  -15.4497   23.0760 S   0  0  0  0  0  0  0  0  0  0  0  0
   12.8622  -18.1192   22.6760 C   0  0  0  0  0  0  0  0  0  0  0  0
   13.0511  -19.0045   23.5431 O   0  0  0  0  0  0  0  0  0  0  0  0
   13.9903  -17.3282   22.3124 N   0  0  0  0  0  0  0  0  0  0  0  0
   15.2590  -17.5119   22.9899 C   0  0  1  0  0  0  0  0  0  0  0  0
   16.3647  -16.7258   22.3108 C   0  0  0  0  0  0  0  0  0  0  0  0
   17.9777  -17.0904   23.0116 S   0  0  0  0  0  0  0  0  0  0  0  0
   15.1007  -17.0264   24.3856 C   0  0  0  0  0  0  0  0  0  0  0  0
   15.6257  -17.7198   25.4770 O   0  0  0  0  0  0  0  0  0  0  0  0
   14.4810  -15.9600   24.6443 O   0  0  0  0  0  0  0  0  0  0  0  0
  2  1  1  6
  2  3  1  0
  4  2  1  0
  4  5  1  6
  6  4  1  0
  7  6  2  0
  8  6  1  0
  9 12  1  0
  9  8  1  0
  9 10  1  1
 11 10  1  0
 12 14  1  0
 13 12  2  0
 14 15  1  0
 15 16  1  6
 16 17  1  0
 18 15  1  0
 18 19  1  0
 20 18  2  0
M  END
$$$$
