VCC.pdb
     RDKit          3D

 20 19  0  0  1  0  0  0  0  0999 V2000
    2.6557  -18.2697   20.8445 C   0  0  0  0  0  0  0  0  0  0  0  0
    3.9943  -17.7799   21.2896 C   0  0  1  0  0  0  0  0  0  0  0  0
    4.4525  -18.5786   22.4657 C   0  0  0  0  0  0  0  0  0  0  0  0
    5.0061  -17.7630   20.1543 C   0  0  2  0  0  0  0  0  0  0  0  0
    5.1946  -19.0888   19.6377 N   0  0  0  0  0  0  0  0  0  0  0  0
    6.2841  -17.1839   20.6698 C   0  0  0  0  0  0  0  0  0  0  0  0
    7.1625  -17.8941   21.2213 O   0  0  0  0  0  0  0  0  0  0  0  0
    6.5004  -15.7866   20.5260 N   0  0  0  0  0  0  0  0  0  0  0  0
    7.6043  -15.0813   21.0832 C   0  0  1  0  0  0  0  0  0  0  0  0
    7.5831  -13.6472   20.5625 C   0  0  0  0  0  0  0  0  0  0  0  0
    7.7703  -13.6511   18.7637 S   0  0  0  0  0  0  0  0  0  0  0  0
    7.6664  -15.0870   22.5459 C   0  0  0  0  0  0  0  0  0  0  0  0
    6.6996  -14.8875   23.3184 O   0  0  0  0  0  0  0  0  0  0  0  0
    8.9300  -15.3400   23.1540 N   0  0  0  0  0  0  0  0  0  0  0  0
    9.0026  -15.7428   24.5450 C   0  0  1  0  0  0  0  0  0  0  0  0
    8.1968  -17.0036   24.7958 C   0  0  0  0  0  0  0  0  0  0  0  0
    8.3278  -17.5583   26.4990 S   0  0  0  0  0  0  0  0  0  0  0  0
   10.4301  -16.0035   24.8662 C   0  0  0  0  0  0  0  0  0  0  0  0
   10.9105  -15.9917   26.1764 O   0  0  0  0  0  0  0  0  0  0  0  0
   11.2733  -16.2480   23.9621 O   0  0  0  0  0  0  0  0  0  0  0  0
  2  1  1  6
  2  3  1  0
  4  2  1  0
  4  5  1  1
  6  4  1  0
  7  6  2  0
  8  6  1  0
  9 12  1  0
  9  8  1  0
  9 10  1  1
 11 10  1  0
 12 14  1  0
 13 12  2  0
 14 15  1  0
 15 16  1  6
 16 17  1  0
 18 15  1  0
 18 19  1  0
 20 18  2  0
M  END
$$$$
