VCC.pdb
     RDKit          3D

 20 19  0  0  1  0  0  0  0  0999 V2000
    8.3777  -12.7368   20.4600 C   0  0  0  0  0  0  0  0  0  0  0  0
    7.9176  -13.6846   19.4018 C   0  0  1  0  0  0  0  0  0  0  0  0
    8.4641  -13.2592   18.0784 C   0  0  0  0  0  0  0  0  0  0  0  0
    8.2475  -15.1296   19.7424 C   0  0  2  0  0  0  0  0  0  0  0  0
    7.8070  -16.0005   18.6900 N   0  0  0  0  0  0  0  0  0  0  0  0
    7.5993  -15.4668   21.0464 C   0  0  0  0  0  0  0  0  0  0  0  0
    6.3653  -15.6870   21.1397 O   0  0  0  0  0  0  0  0  0  0  0  0
    8.4142  -15.5374   22.2088 N   0  0  0  0  0  0  0  0  0  0  0  0
    7.9240  -15.7880   23.5216 C   0  0  1  0  0  0  0  0  0  0  0  0
    8.1826  -17.2507   23.8706 C   0  0  0  0  0  0  0  0  0  0  0  0
    7.6536  -17.5728   25.5697 S   0  0  0  0  0  0  0  0  0  0  0  0
    8.4712  -14.9158   24.5624 C   0  0  0  0  0  0  0  0  0  0  0  0
    9.6888  -14.7468   24.8077 O   0  0  0  0  0  0  0  0  0  0  0  0
    7.5487  -14.1920   25.3721 N   0  0  0  0  0  0  0  0  0  0  0  0
    8.0304  -13.3255   26.4302 C   0  0  1  0  0  0  0  0  0  0  0  0
    7.0275  -12.2315   26.7453 C   0  0  0  0  0  0  0  0  0  0  0  0
    5.4350  -12.9000   27.2379 S   0  0  0  0  0  0  0  0  0  0  0  0
    8.2371  -14.1622   27.6410 C   0  0  0  0  0  0  0  0  0  0  0  0
    8.9599  -13.7061   28.7442 O   0  0  0  0  0  0  0  0  0  0  0  0
    7.7648  -15.3277   27.7230 O   0  0  0  0  0  0  0  0  0  0  0  0
  2  1  1  1
  2  3  1  0
  4  2  1  0
  4  5  1  6
  6  4  1  0
  7  6  2  0
  8  6  1  0
  9 12  1  0
  9  8  1  0
  9 10  1  1
 11 10  1  0
 12 14  1  0
 13 12  2  0
 14 15  1  0
 15 16  1  1
 16 17  1  0
 18 15  1  0
 18 19  1  0
 20 18  2  0
M  END
$$$$
