VCC.pdb
     RDKit          3D

 20 19  0  0  1  0  0  0  0  0999 V2000
    7.7126  -11.8021   25.4100 C   0  0  0  0  0  0  0  0  0  0  0  0
    6.6400  -12.3939   26.2641 C   0  0  1  0  0  0  0  0  0  0  0  0
    5.5947  -11.3629   26.5387 C   0  0  0  0  0  0  0  0  0  0  0  0
    6.0703  -13.6714   25.6673 C   0  0  2  0  0  0  0  0  0  0  0  0
    5.0143  -14.1786   26.4967 N   0  0  0  0  0  0  0  0  0  0  0  0
    7.1815  -14.6603   25.5210 C   0  0  0  0  0  0  0  0  0  0  0  0
    7.5491  -15.3949   26.4724 O   0  0  0  0  0  0  0  0  0  0  0  0
    7.8342  -14.7634   24.2626 N   0  0  0  0  0  0  0  0  0  0  0  0
    8.8817  -15.6825   23.9719 C   0  0  1  0  0  0  0  0  0  0  0  0
    9.2521  -15.5533   22.4973 C   0  0  0  0  0  0  0  0  0  0  0  0
    7.8191  -15.9625   21.4728 S   0  0  0  0  0  0  0  0  0  0  0  0
   10.0760  -15.5425   24.8071 C   0  0  0  0  0  0  0  0  0  0  0  0
   11.0715  -14.8278   24.5435 O   0  0  0  0  0  0  0  0  0  0  0  0
   10.1208  -16.2777   26.0269 N   0  0  0  0  0  0  0  0  0  0  0  0
   11.3019  -16.2270   26.8663 C   0  0  1  0  0  0  0  0  0  0  0  0
   11.0317  -15.4677   28.1518 C   0  0  0  0  0  0  0  0  0  0  0  0
    9.9228  -14.0789   27.8926 S   0  0  0  0  0  0  0  0  0  0  0  0
   11.6828  -17.6253   27.1958 C   0  0  0  0  0  0  0  0  0  0  0  0
   12.8116  -17.9271   27.9589 O   0  0  0  0  0  0  0  0  0  0  0  0
   10.9974  -18.6046   26.7969 O   0  0  0  0  0  0  0  0  0  0  0  0
  2  1  1  6
  2  3  1  0
  4  2  1  0
  4  5  1  1
  6  4  1  0
  7  6  2  0
  8  6  1  0
  9 12  1  0
  9  8  1  0
  9 10  1  6
 11 10  1  0
 12 14  1  0
 13 12  2  0
 14 15  1  0
 15 16  1  1
 16 17  1  0
 18 15  1  0
 18 19  1  0
 20 18  2  0
M  END
$$$$
