VCC.pdb
     RDKit          3D

 20 19  0  0  1  0  0  0  0  0999 V2000
   -1.7955  -21.5052   24.5711 C   0  0  0  0  0  0  0  0  0  0  0  0
   -2.8150  -22.3187   25.2983 C   0  0  1  0  0  0  0  0  0  0  0  0
   -3.8425  -22.8109   24.3324 C   0  0  0  0  0  0  0  0  0  0  0  0
   -2.1830  -23.4370   26.1123 C   0  0  2  0  0  0  0  0  0  0  0  0
   -1.5246  -24.3716   25.2445 N   0  0  0  0  0  0  0  0  0  0  0  0
   -3.2538  -24.0944   26.9220 C   0  0  0  0  0  0  0  0  0  0  0  0
   -3.8588  -25.1199   26.5189 O   0  0  0  0  0  0  0  0  0  0  0  0
   -3.5887  -23.5332   28.1841 N   0  0  0  0  0  0  0  0  0  0  0  0
   -4.6230  -24.0198   29.0326 C   0  0  1  0  0  0  0  0  0  0  0  0
   -3.9888  -24.6224   30.2827 C   0  0  0  0  0  0  0  0  0  0  0  0
   -5.2851  -25.2001   31.4036 S   0  0  0  0  0  0  0  0  0  0  0  0
   -5.6333  -23.0283   29.4062 C   0  0  0  0  0  0  0  0  0  0  0  0
   -5.3999  -21.8851   29.8644 O   0  0  0  0  0  0  0  0  0  0  0  0
   -7.0031  -23.3832   29.2385 N   0  0  0  0  0  0  0  0  0  0  0  0
   -8.0476  -22.4237   29.5399 C   0  0  1  0  0  0  0  0  0  0  0  0
   -9.2576  -22.6287   28.6479 C   0  0  0  0  0  0  0  0  0  0  0  0
   -8.9098  -22.2132   26.9357 S   0  0  0  0  0  0  0  0  0  0  0  0
   -8.4469  -22.6204   30.9578 C   0  0  0  0  0  0  0  0  0  0  0  0
   -9.0622  -21.6132   31.7025 O   0  0  0  0  0  0  0  0  0  0  0  0
   -8.2452  -23.7134   31.5519 O   0  0  0  0  0  0  0  0  0  0  0  0
  2  1  1  6
  2  3  1  0
  4  2  1  0
  4  5  1  6
  6  4  1  0
  7  6  2  0
  8  6  1  0
  9 12  1  0
  9  8  1  0
  9 10  1  1
 11 10  1  0
 12 14  1  0
 13 12  2  0
 14 15  1  0
 15 16  1  6
 16 17  1  0
 18 15  1  0
 18 19  1  0
 20 18  2  0
M  END
$$$$
