MYP.pdb
     RDKit          3D

 28 29  0  0  1  0  0  0  0  0999 V2000
   29.4384  -23.5474  -15.8312 C   0  0  0  0  0  0  0  0  0  0  0  0
   29.5169  -23.4741  -17.6219 S   0  0  0  0  0  0  0  0  0  0  0  0
   29.8363  -21.7489  -18.1701 C   0  0  0  0  0  0  0  0  0  0  0  0
   28.8879  -20.8849  -17.4091 C   0  0  0  0  0  0  0  0  0  0  0  0
   27.8023  -20.2473  -18.2107 C   0  0  2  0  0  0  0  0  0  0  0  0
   28.4345  -19.2234  -19.0430 N   0  0  0  0  0  0  0  0  0  0  0  0
   26.7608  -19.5870  -17.3950 C   0  0  0  0  0  0  0  0  0  0  0  0
   27.0145  -18.4214  -16.9231 O   0  0  0  0  0  0  0  0  0  0  0  0
   19.3376  -15.8350  -15.1210 O   0  0  0  0  0  0  0  0  0  0  0  0
   20.4654  -16.4676  -15.6689 C   0  0  0  0  0  0  0  0  0  0  0  0
   20.3266  -17.4794  -16.6027 C   0  0  0  0  0  0  0  0  0  0  0  0
   21.4399  -18.1104  -17.1496 C   0  0  0  0  0  0  0  0  0  0  0  0
   22.7210  -17.7565  -16.7865 C   0  0  0  0  0  0  0  0  0  0  0  0
   23.9195  -18.4135  -17.3541 C   0  0  0  0  0  0  0  0  0  0  0  0
   24.4271  -19.5310  -16.4509 C   0  0  2  0  0  0  0  0  0  0  0  0
   25.5278  -20.2202  -17.1444 N   0  0  0  0  0  0  0  0  0  0  0  0
   23.3174  -20.5012  -16.2982 C   0  0  0  0  0  0  0  0  0  0  0  0
   23.0054  -21.2107  -17.3176 O   0  0  0  0  0  0  0  0  0  0  0  0
   22.8300  -16.7470  -15.8556 C   0  0  0  0  0  0  0  0  0  0  0  0
   21.7418  -16.1140  -15.3062 C   0  0  0  0  0  0  0  0  0  0  0  0
   22.5673  -20.7183  -15.1186 N   0  0  0  0  0  0  0  0  0  0  0  0
   22.6084  -19.8073  -13.9594 C   0  0  0  0  0  0  0  0  0  0  0  0
   22.6980  -20.7864  -12.8151 C   0  0  0  0  0  0  0  0  0  0  0  0
   21.9793  -22.0314  -13.2611 C   0  0  0  0  0  0  0  0  0  0  0  0
   21.6272  -21.7260  -14.7173 C   0  0  1  0  0  0  0  0  0  0  0  0
   20.2110  -21.2497  -14.8169 C   0  0  0  0  0  0  0  0  0  0  0  0
   19.1550  -22.1171  -14.8668 O   0  0  0  0  0  0  0  0  0  0  0  0
   20.0196  -20.0128  -14.8536 O   0  0  0  0  0  0  0  0  0  0  0  0
  2  1  1  0
  3  4  1  0
  3  2  1  0
  5  6  1  6
  5  4  1  0
  7  5  1  0
  8  7  2  0
  9 10  1  0
 10 11  2  0
 10 20  1  0
 11 12  1  0
 12 13  2  0
 13 14  1  0
 15 14  1  6
 15 16  1  0
 16  7  1  0
 17 15  1  0
 17 21  1  0
 18 17  2  0
 19 13  1  0
 20 19  2  0
 21 22  1  0
 23 22  1  0
 24 23  1  0
 25 21  1  0
 25 24  1  0
 25 26  1  1
 26 27  1  0
 28 26  2  0
M  END
$$$$
