MYP.pdb
     RDKit          3D

 28 29  0  0  1  0  0  0  0  0999 V2000
   28.5773  -17.7731  -14.6200 C   0  0  0  0  0  0  0  0  0  0  0  0
   28.0236  -17.6450  -16.3214 S   0  0  0  0  0  0  0  0  0  0  0  0
   27.1713  -19.1933  -16.8266 C   0  0  0  0  0  0  0  0  0  0  0  0
   28.1097  -20.3098  -16.5133 C   0  0  0  0  0  0  0  0  0  0  0  0
   28.2700  -20.6381  -15.0662 C   0  0  2  0  0  0  0  0  0  0  0  0
   29.2390  -21.7313  -14.9836 N   0  0  0  0  0  0  0  0  0  0  0  0
   27.0239  -21.0882  -14.4100 C   0  0  0  0  0  0  0  0  0  0  0  0
   26.5649  -22.2458  -14.7187 O   0  0  0  0  0  0  0  0  0  0  0  0
   27.4082  -20.6088   -6.7976 O   0  0  0  0  0  0  0  0  0  0  0  0
   26.7561  -20.3715   -8.0185 C   0  0  0  0  0  0  0  0  0  0  0  0
   26.0372  -21.3745   -8.6446 C   0  0  0  0  0  0  0  0  0  0  0  0
   25.3887  -21.1461   -9.8545 C   0  0  0  0  0  0  0  0  0  0  0  0
   25.4345  -19.9180  -10.4773 C   0  0  0  0  0  0  0  0  0  0  0  0
   24.7532  -19.6519  -11.7639 C   0  0  0  0  0  0  0  0  0  0  0  0
   25.1151  -20.6934  -12.8158 C   0  0  2  0  0  0  0  0  0  0  0  0
   26.3618  -20.2696  -13.4743 N   0  0  0  0  0  0  0  0  0  0  0  0
   24.0401  -20.6697  -13.8355 C   0  0  0  0  0  0  0  0  0  0  0  0
   24.1456  -19.8213  -14.7889 O   0  0  0  0  0  0  0  0  0  0  0  0
   26.1567  -18.9380   -9.8324 C   0  0  0  0  0  0  0  0  0  0  0  0
   26.8024  -19.1469   -8.6382 C   0  0  0  0  0  0  0  0  0  0  0  0
   22.9003  -21.5074  -13.8528 N   0  0  0  0  0  0  0  0  0  0  0  0
   22.5961  -22.4751  -12.7822 C   0  0  0  0  0  0  0  0  0  0  0  0
   22.1864  -23.6859  -13.5836 C   0  0  0  0  0  0  0  0  0  0  0  0
   21.5765  -23.1678  -14.8583 C   0  0  0  0  0  0  0  0  0  0  0  0
   21.7990  -21.6583  -14.7610 C   0  0  1  0  0  0  0  0  0  0  0  0
   20.5583  -20.9848  -14.2618 C   0  0  0  0  0  0  0  0  0  0  0  0
   19.4556  -20.8156  -15.0527 O   0  0  0  0  0  0  0  0  0  0  0  0
   20.5608  -20.5744  -13.0788 O   0  0  0  0  0  0  0  0  0  0  0  0
  2  1  1  0
  3  4  1  0
  3  2  1  0
  5  6  1  6
  5  4  1  0
  7  5  1  0
  8  7  2  0
  9 10  1  0
 10 11  2  0
 10 20  1  0
 11 12  1  0
 12 13  2  0
 13 14  1  0
 15 14  1  1
 15 16  1  0
 16  7  1  0
 17 15  1  0
 17 21  1  0
 18 17  2  0
 19 13  1  0
 20 19  2  0
 21 22  1  0
 23 22  1  0
 24 23  1  0
 25 21  1  0
 25 24  1  0
 25 26  1  1
 26 27  1  0
 28 26  2  0
M  END
$$$$
