MYP.pdb
     RDKit          3D

 28 29  0  0  1  0  0  0  0  0999 V2000
   27.2670  -17.3218  -15.9300 C   0  0  0  0  0  0  0  0  0  0  0  0
   28.7835  -18.0511  -15.3085 S   0  0  0  0  0  0  0  0  0  0  0  0
   28.4114  -19.1922  -13.9163 C   0  0  0  0  0  0  0  0  0  0  0  0
   27.1463  -19.8954  -14.2773 C   0  0  0  0  0  0  0  0  0  0  0  0
   26.6285  -20.8631  -13.2659 C   0  0  2  0  0  0  0  0  0  0  0  0
   25.3625  -21.3821  -13.7840 N   0  0  0  0  0  0  0  0  0  0  0  0
   26.3627  -20.2634  -11.9408 C   0  0  0  0  0  0  0  0  0  0  0  0
   25.7222  -19.1526  -11.9000 O   0  0  0  0  0  0  0  0  0  0  0  0
   20.3096  -19.7946  -11.5217 O   0  0  0  0  0  0  0  0  0  0  0  0
   21.5110  -20.1737  -10.9011 C   0  0  0  0  0  0  0  0  0  0  0  0
   21.9205  -19.5731   -9.7236 C   0  0  0  0  0  0  0  0  0  0  0  0
   23.1099  -19.9440   -9.1034 C   0  0  0  0  0  0  0  0  0  0  0  0
   23.9260  -20.9198   -9.6325 C   0  0  0  0  0  0  0  0  0  0  0  0
   25.1950  -21.3303   -8.9912 C   0  0  0  0  0  0  0  0  0  0  0  0
   26.3563  -20.4462   -9.4293 C   0  0  2  0  0  0  0  0  0  0  0  0
   26.8002  -20.8941  -10.7597 N   0  0  0  0  0  0  0  0  0  0  0  0
   27.4682  -20.6913   -8.4808 C   0  0  0  0  0  0  0  0  0  0  0  0
   28.2802  -21.6437   -8.7520 O   0  0  0  0  0  0  0  0  0  0  0  0
   23.4943  -21.5008  -10.8047 C   0  0  0  0  0  0  0  0  0  0  0  0
   22.3236  -21.1465  -11.4294 C   0  0  0  0  0  0  0  0  0  0  0  0
   27.7174  -19.9613   -7.2949 N   0  0  0  0  0  0  0  0  0  0  0  0
   26.8826  -18.8270   -6.8574 C   0  0  0  0  0  0  0  0  0  0  0  0
   27.9333  -17.8324   -6.4296 C   0  0  0  0  0  0  0  0  0  0  0  0
   29.1091  -18.6362   -5.9431 C   0  0  0  0  0  0  0  0  0  0  0  0
   28.6971  -20.0758   -6.2520 C   0  0  1  0  0  0  0  0  0  0  0  0
   28.1419  -20.7286   -5.0241 C   0  0  0  0  0  0  0  0  0  0  0  0
   28.9369  -21.0926   -3.9727 O   0  0  0  0  0  0  0  0  0  0  0  0
   26.9073  -20.9344   -4.9882 O   0  0  0  0  0  0  0  0  0  0  0  0
  2  1  1  0
  3  4  1  0
  3  2  1  0
  5  6  1  6
  5  4  1  0
  7  5  1  0
  8  7  2  0
  9 10  1  0
 10 11  2  0
 10 20  1  0
 11 12  1  0
 12 13  2  0
 13 14  1  0
 15 14  1  1
 15 16  1  0
 16  7  1  0
 17 15  1  0
 17 21  1  0
 18 17  2  0
 19 13  1  0
 20 19  2  0
 21 22  1  0
 23 22  1  0
 24 23  1  0
 25 21  1  0
 25 24  1  0
 25 26  1  1
 26 27  1  0
 28 26  2  0
M  END
$$$$
