MYP.pdb
     RDKit          3D

 28 29  0  0  1  0  0  0  0  0999 V2000
   23.5855  -16.6682  -14.2789 C   0  0  0  0  0  0  0  0  0  0  0  0
   24.5865  -15.9254  -15.5691 S   0  0  0  0  0  0  0  0  0  0  0  0
   25.2750  -17.2309  -16.6647 C   0  0  0  0  0  0  0  0  0  0  0  0
   26.6290  -17.5561  -16.1297 C   0  0  0  0  0  0  0  0  0  0  0  0
   26.7061  -17.7999  -14.6593 C   0  0  2  0  0  0  0  0  0  0  0  0
   28.1035  -17.6087  -14.2699 N   0  0  0  0  0  0  0  0  0  0  0  0
   26.3068  -19.1647  -14.2542 C   0  0  0  0  0  0  0  0  0  0  0  0
   26.9200  -20.1557  -14.7905 O   0  0  0  0  0  0  0  0  0  0  0  0
   28.0682  -19.8948   -7.3478 O   0  0  0  0  0  0  0  0  0  0  0  0
   27.1214  -20.0675   -8.3706 C   0  0  0  0  0  0  0  0  0  0  0  0
   27.0128  -21.2743   -9.0393 C   0  0  0  0  0  0  0  0  0  0  0  0
   26.0769  -21.4521  -10.0537 C   0  0  0  0  0  0  0  0  0  0  0  0
   25.2230  -20.4398  -10.4335 C   0  0  0  0  0  0  0  0  0  0  0  0
   24.2204  -20.6056  -11.5094 C   0  0  0  0  0  0  0  0  0  0  0  0
   24.8803  -20.7180  -12.8783 C   0  0  2  0  0  0  0  0  0  0  0  0
   25.2837  -19.3688  -13.3078 N   0  0  0  0  0  0  0  0  0  0  0  0
   23.8416  -21.1956  -13.8212 C   0  0  0  0  0  0  0  0  0  0  0  0
   23.1543  -20.3125  -14.4438 O   0  0  0  0  0  0  0  0  0  0  0  0
   25.3527  -19.2498   -9.7516 C   0  0  0  0  0  0  0  0  0  0  0  0
   26.2709  -19.0577   -8.7483 C   0  0  0  0  0  0  0  0  0  0  0  0
   23.5396  -22.5493  -14.0999 N   0  0  0  0  0  0  0  0  0  0  0  0
   24.1025  -23.6746  -13.3306 C   0  0  0  0  0  0  0  0  0  0  0  0
   24.4717  -24.6342  -14.4347 C   0  0  0  0  0  0  0  0  0  0  0  0
   23.4935  -24.3948  -15.5533 C   0  0  0  0  0  0  0  0  0  0  0  0
   22.6870  -23.1940  -15.0579 C   0  0  1  0  0  0  0  0  0  0  0  0
   21.3985  -23.6535  -14.4490 C   0  0  0  0  0  0  0  0  0  0  0  0
   21.1971  -23.6627  -13.0964 O   0  0  0  0  0  0  0  0  0  0  0  0
   20.4959  -24.0354  -15.2284 O   0  0  0  0  0  0  0  0  0  0  0  0
  2  1  1  0
  3  4  1  0
  3  2  1  0
  5  6  1  6
  5  4  1  0
  7  5  1  0
  8  7  2  0
  9 10  1  0
 10 11  2  0
 10 20  1  0
 11 12  1  0
 12 13  2  0
 13 14  1  0
 15 14  1  1
 15 16  1  0
 16  7  1  0
 17 15  1  0
 17 21  1  0
 18 17  2  0
 19 13  1  0
 20 19  2  0
 21 22  1  0
 23 22  1  0
 24 23  1  0
 25 21  1  0
 25 24  1  0
 25 26  1  1
 26 27  1  0
 28 26  2  0
M  END
$$$$
