MYP.pdb
     RDKit          3D

 28 29  0  0  1  0  0  0  0  0999 V2000
   31.9556  -21.0188  -10.4200 C   0  0  0  0  0  0  0  0  0  0  0  0
   31.7296  -22.2231  -11.7302 S   0  0  0  0  0  0  0  0  0  0  0  0
   30.7384  -21.4929  -13.0952 C   0  0  0  0  0  0  0  0  0  0  0  0
   29.8000  -20.5231  -12.4596 C   0  0  0  0  0  0  0  0  0  0  0  0
   28.3538  -20.8880  -12.5114 C   0  0  2  0  0  0  0  0  0  0  0  0
   27.8199  -20.3324  -13.7552 N   0  0  0  0  0  0  0  0  0  0  0  0
   27.5553  -20.3418  -11.3931 C   0  0  0  0  0  0  0  0  0  0  0  0
   27.1259  -19.1370  -11.4919 O   0  0  0  0  0  0  0  0  0  0  0  0
   21.2158  -19.7217  -12.3548 O   0  0  0  0  0  0  0  0  0  0  0  0
   22.2364  -20.1043  -11.4693 C   0  0  0  0  0  0  0  0  0  0  0  0
   23.1402  -21.0938  -11.8147 C   0  0  0  0  0  0  0  0  0  0  0  0
   24.1539  -21.4777  -10.9420 C   0  0  0  0  0  0  0  0  0  0  0  0
   24.3001  -20.8922   -9.7034 C   0  0  0  0  0  0  0  0  0  0  0  0
   25.3698  -21.2843   -8.7588 C   0  0  0  0  0  0  0  0  0  0  0  0
   26.6698  -20.5422   -9.0444 C   0  0  2  0  0  0  0  0  0  0  0  0
   27.2755  -21.1223  -10.2544 N   0  0  0  0  0  0  0  0  0  0  0  0
   27.5833  -20.8181   -7.9106 C   0  0  0  0  0  0  0  0  0  0  0  0
   28.2871  -21.8866   -7.9624 O   0  0  0  0  0  0  0  0  0  0  0  0
   23.3873  -19.9107   -9.3855 C   0  0  0  0  0  0  0  0  0  0  0  0
   22.3812  -19.5200  -10.2351 C   0  0  0  0  0  0  0  0  0  0  0  0
   27.7515  -20.0005   -6.7685 N   0  0  0  0  0  0  0  0  0  0  0  0
   27.0780  -18.6987   -6.6040 C   0  0  0  0  0  0  0  0  0  0  0  0
   28.2033  -17.8474   -6.0701 C   0  0  0  0  0  0  0  0  0  0  0  0
   29.1056  -18.7694   -5.2950 C   0  0  0  0  0  0  0  0  0  0  0  0
   28.4944  -20.1477   -5.5491 C   0  0  1  0  0  0  0  0  0  0  0  0
   27.6210  -20.5449   -4.3995 C   0  0  0  0  0  0  0  0  0  0  0  0
   26.2573  -20.5701   -4.4984 O   0  0  0  0  0  0  0  0  0  0  0  0
   28.1862  -20.8586   -3.3270 O   0  0  0  0  0  0  0  0  0  0  0  0
  2  1  1  0
  3  4  1  0
  3  2  1  0
  5  6  1  6
  5  4  1  0
  7  5  1  0
  8  7  2  0
  9 10  1  0
 10 11  2  0
 10 20  1  0
 11 12  1  0
 12 13  2  0
 13 14  1  0
 15 14  1  1
 15 16  1  0
 16  7  1  0
 17 15  1  0
 17 21  1  0
 18 17  2  0
 19 13  1  0
 20 19  2  0
 21 22  1  0
 23 22  1  0
 24 23  1  0
 25 21  1  0
 25 24  1  0
 25 26  1  1
 26 27  1  0
 28 26  2  0
M  END
$$$$
