MYP.pdb
     RDKit          3D

 28 29  0  0  1  0  0  0  0  0999 V2000
   30.6131  -20.8010  -11.3184 C   0  0  0  0  0  0  0  0  0  0  0  0
   30.6852  -21.7023  -12.8677 S   0  0  0  0  0  0  0  0  0  0  0  0
   29.5898  -20.9082  -14.1120 C   0  0  0  0  0  0  0  0  0  0  0  0
   28.6831  -19.9990  -13.3529 C   0  0  0  0  0  0  0  0  0  0  0  0
   27.2970  -20.5037  -13.1257 C   0  0  2  0  0  0  0  0  0  0  0  0
   26.4783  -20.0093  -14.2331 N   0  0  0  0  0  0  0  0  0  0  0  0
   26.6844  -20.0324  -11.8653 C   0  0  0  0  0  0  0  0  0  0  0  0
   26.2295  -18.8335  -11.8282 O   0  0  0  0  0  0  0  0  0  0  0  0
   20.2823  -19.1082  -11.8028 O   0  0  0  0  0  0  0  0  0  0  0  0
   21.4083  -19.6143  -11.1333 C   0  0  0  0  0  0  0  0  0  0  0  0
   21.7894  -19.1064   -9.9038 C   0  0  0  0  0  0  0  0  0  0  0  0
   22.9041  -19.6033   -9.2351 C   0  0  0  0  0  0  0  0  0  0  0  0
   23.6717  -20.6169   -9.7659 C   0  0  0  0  0  0  0  0  0  0  0  0
   24.8611  -21.1609   -9.0734 C   0  0  0  0  0  0  0  0  0  0  0  0
   26.1234  -20.3881   -9.4364 C   0  0  2  0  0  0  0  0  0  0  0  0
   26.6035  -20.8757  -10.7400 N   0  0  0  0  0  0  0  0  0  0  0  0
   27.1487  -20.7347   -8.4241 C   0  0  0  0  0  0  0  0  0  0  0  0
   27.8398  -21.7950   -8.6186 O   0  0  0  0  0  0  0  0  0  0  0  0
   23.2698  -21.1037  -10.9903 C   0  0  0  0  0  0  0  0  0  0  0  0
   22.1726  -20.6246  -11.6634 C   0  0  0  0  0  0  0  0  0  0  0  0
   27.4372  -19.9932   -7.2543 N   0  0  0  0  0  0  0  0  0  0  0  0
   26.7132  -18.7636   -6.8816 C   0  0  0  0  0  0  0  0  0  0  0  0
   27.8491  -17.8691   -6.4504 C   0  0  0  0  0  0  0  0  0  0  0  0
   28.9188  -18.7731   -5.8992 C   0  0  0  0  0  0  0  0  0  0  0  0
   28.3674  -20.1721   -6.1758 C   0  0  1  0  0  0  0  0  0  0  0  0
   27.7099  -20.7200   -4.9471 C   0  0  0  0  0  0  0  0  0  0  0  0
   28.4304  -21.1317   -3.8602 O   0  0  0  0  0  0  0  0  0  0  0  0
   26.4597  -20.7909   -4.9447 O   0  0  0  0  0  0  0  0  0  0  0  0
  2  1  1  0
  3  4  1  0
  3  2  1  0
  5  6  1  6
  5  4  1  0
  7  5  1  0
  8  7  2  0
  9 10  1  0
 10 11  2  0
 10 20  1  0
 11 12  1  0
 12 13  2  0
 13 14  1  0
 15 14  1  1
 15 16  1  0
 16  7  1  0
 17 15  1  0
 17 21  1  0
 18 17  2  0
 19 13  1  0
 20 19  2  0
 21 22  1  0
 23 22  1  0
 24 23  1  0
 25 21  1  0
 25 24  1  0
 25 26  1  1
 26 27  1  0
 28 26  2  0
M  END
$$$$
