MYP.pdb
     RDKit          3D

 28 29  0  0  1  0  0  0  0  0999 V2000
   17.8524  -22.0263  -17.6693 C   0  0  0  0  0  0  0  0  0  0  0  0
   18.9710  -21.0664  -16.6469 S   0  0  0  0  0  0  0  0  0  0  0  0
   20.1572  -20.1422  -17.7041 C   0  0  0  0  0  0  0  0  0  0  0  0
   21.0501  -19.3912  -16.7746 C   0  0  0  0  0  0  0  0  0  0  0  0
   21.2320  -19.9915  -15.4203 C   0  0  2  0  0  0  0  0  0  0  0  0
   20.2929  -19.3140  -14.5260 N   0  0  0  0  0  0  0  0  0  0  0  0
   22.5908  -19.8190  -14.8635 C   0  0  0  0  0  0  0  0  0  0  0  0
   22.9180  -18.6597  -14.4222 O   0  0  0  0  0  0  0  0  0  0  0  0
   23.4233  -20.2516   -8.1143 O   0  0  0  0  0  0  0  0  0  0  0  0
   23.8525  -20.6348   -9.3953 C   0  0  0  0  0  0  0  0  0  0  0  0
   25.1893  -20.5624   -9.7459 C   0  0  0  0  0  0  0  0  0  0  0  0
   25.6213  -20.9406  -11.0136 C   0  0  0  0  0  0  0  0  0  0  0  0
   24.7413  -21.4007  -11.9686 C   0  0  0  0  0  0  0  0  0  0  0  0
   25.1775  -21.8079  -13.3229 C   0  0  0  0  0  0  0  0  0  0  0  0
   24.8842  -20.7261  -14.3553 C   0  0  2  0  0  0  0  0  0  0  0  0
   23.4975  -20.8960  -14.8198 N   0  0  0  0  0  0  0  0  0  0  0  0
   25.7770  -20.9778  -15.5110 C   0  0  0  0  0  0  0  0  0  0  0  0
   25.3063  -21.6608  -16.4865 O   0  0  0  0  0  0  0  0  0  0  0  0
   23.4173  -21.4625  -11.5930 C   0  0  0  0  0  0  0  0  0  0  0  0
   22.9744  -21.0933  -10.3464 C   0  0  0  0  0  0  0  0  0  0  0  0
   27.1119  -20.5264  -15.6362 N   0  0  0  0  0  0  0  0  0  0  0  0
   27.8909  -19.9926  -14.5034 C   0  0  0  0  0  0  0  0  0  0  0  0
   28.5444  -18.7877  -15.1337 C   0  0  0  0  0  0  0  0  0  0  0  0
   28.7309  -19.1163  -16.5906 C   0  0  0  0  0  0  0  0  0  0  0  0
   28.0372  -20.4715  -16.7322 C   0  0  1  0  0  0  0  0  0  0  0  0
   29.0464  -21.5763  -16.6760 C   0  0  0  0  0  0  0  0  0  0  0  0
   29.8591  -21.8721  -17.7352 O   0  0  0  0  0  0  0  0  0  0  0  0
   29.1252  -22.2320  -15.6121 O   0  0  0  0  0  0  0  0  0  0  0  0
  2  1  1  0
  3  4  1  0
  3  2  1  0
  5  6  1  1
  5  4  1  0
  7  5  1  0
  8  7  2  0
  9 10  1  0
 10 11  2  0
 10 20  1  0
 11 12  1  0
 12 13  2  0
 13 14  1  0
 15 14  1  1
 15 16  1  0
 16  7  1  0
 17 15  1  0
 17 21  1  0
 18 17  2  0
 19 13  1  0
 20 19  2  0
 21 22  1  0
 23 22  1  0
 24 23  1  0
 25 21  1  0
 25 24  1  0
 25 26  1  1
 26 27  1  0
 28 26  2  0
M  END
$$$$
