EWV.pdb
     RDKit          3D

 31 32  0  0  1  0  0  0  0  0999 V2000
    9.8269  -18.5305   20.6121 N   0  0  0  0  0  0  0  0  0  0  0  0
   10.9213  -17.6554   20.9593 C   0  0  1  0  0  0  0  0  0  0  0  0
   11.2307  -16.8227   19.7485 C   0  0  0  0  0  0  0  0  0  0  0  0
   11.4901  -17.6422   18.4995 C   0  0  0  0  0  0  0  0  0  0  0  0
   11.8328  -16.7464   17.3563 C   0  0  0  0  0  0  0  0  0  0  0  0
   11.9765  -17.2566   16.2115 O   0  0  0  0  0  0  0  0  0  0  0  0
   10.5822  -16.8964   22.1645 C   0  0  0  0  0  0  0  0  0  0  0  0
   11.2806  -15.9134   22.5918 O   0  0  0  0  0  0  0  0  0  0  0  0
   12.0055  -15.3741   17.4889 O   0  0  0  0  0  0  0  0  0  0  0  0
    9.4276  -17.2199   22.9438 N   0  0  0  0  0  0  0  0  0  0  0  0
    9.1149  -16.5823   24.2100 C   0  0  1  0  0  0  0  0  0  0  0  0
    7.6808  -16.8979   24.6022 C   0  0  0  0  0  0  0  0  0  0  0  0
    6.8809  -15.7291   24.9733 C   0  0  0  0  0  0  0  0  0  0  0  0
    5.5462  -15.7787   25.3579 C   0  0  0  0  0  0  0  0  0  0  0  0
    5.1091  -14.5322   25.6499 N   0  0  0  0  0  0  0  0  0  0  0  0
    6.1295  -13.6797   25.4628 C   0  0  0  0  0  0  0  0  0  0  0  0
    6.1964  -12.3036   25.6146 C   0  0  0  0  0  0  0  0  0  0  0  0
    7.3566  -11.6246   25.3531 C   0  0  0  0  0  0  0  0  0  0  0  0
    8.4725  -12.3325   24.9323 C   0  0  0  0  0  0  0  0  0  0  0  0
    8.3907  -13.6912   24.7872 C   0  0  0  0  0  0  0  0  0  0  0  0
    7.2247  -14.4153   25.0450 C   0  0  0  0  0  0  0  0  0  0  0  0
   10.1047  -16.7356   25.2588 C   0  0  0  0  0  0  0  0  0  0  0  0
   10.9154  -17.6904   25.3959 O   0  0  0  0  0  0  0  0  0  0  0  0
   11.4436  -14.3966   29.5188 C   0  0  0  0  0  0  0  0  0  0  0  0
   10.6848  -14.5136   28.2386 C   0  0  1  0  0  0  0  0  0  0  0  0
   10.9260  -13.2626   27.4471 C   0  0  0  0  0  0  0  0  0  0  0  0
   10.9838  -15.7870   27.4510 C   0  0  2  0  0  0  0  0  0  0  0  0
   10.1809  -15.6940   26.2441 N   0  0  0  0  0  0  0  0  0  0  0  0
   10.5950  -16.9079   28.2937 C   0  0  0  0  0  0  0  0  0  0  0  0
    9.3921  -17.1892   28.4651 O   0  0  0  0  0  0  0  0  0  0  0  0
   11.5507  -17.6833   28.9212 O   0  0  0  0  0  0  0  0  0  0  0  0
  2  1  1  6
  3  2  1  0
  3  4  1  0
  4  5  1  0
  5  9  1  0
  6  5  2  0
  7  8  2  0
  7  2  1  0
 10  7  1  0
 11 10  1  0
 11 12  1  1
 12 13  1  0
 13 21  1  0
 13 14  2  0
 14 15  1  0
 16 15  1  0
 16 17  2  0
 18 17  1  0
 19 18  2  0
 20 21  2  0
 20 19  1  0
 21 16  1  0
 22 28  1  0
 22 11  1  0
 23 22  2  0
 25 27  1  0
 25 24  1  1
 26 25  1  0
 27 29  1  0
 27 28  1  6
 29 31  1  0
 30 29  2  0
M  END
$$$$
