EWV.pdb
     RDKit          3D

 31 32  0  0  1  0  0  0  0  0999 V2000
   10.1962  -18.4638   20.9639 N   0  0  0  0  0  0  0  0  0  0  0  0
   11.2221  -17.4895   21.2502 C   0  0  1  0  0  0  0  0  0  0  0  0
   11.3668  -16.6205   20.0340 C   0  0  0  0  0  0  0  0  0  0  0  0
   11.4351  -17.4012   18.7360 C   0  0  0  0  0  0  0  0  0  0  0  0
   12.7047  -17.0935   18.0148 C   0  0  0  0  0  0  0  0  0  0  0  0
   12.8712  -17.5661   16.8570 O   0  0  0  0  0  0  0  0  0  0  0  0
   10.8941  -16.7772   22.4866 C   0  0  0  0  0  0  0  0  0  0  0  0
   11.5428  -15.7539   22.8977 O   0  0  0  0  0  0  0  0  0  0  0  0
   13.7186  -16.3127   18.5562 O   0  0  0  0  0  0  0  0  0  0  0  0
    9.8077  -17.1955   23.3171 N   0  0  0  0  0  0  0  0  0  0  0  0
    9.4502  -16.5322   24.5580 C   0  0  1  0  0  0  0  0  0  0  0  0
    7.9391  -16.3986   24.6506 C   0  0  0  0  0  0  0  0  0  0  0  0
    7.4098  -15.1265   24.1554 C   0  0  0  0  0  0  0  0  0  0  0  0
    7.1606  -14.8451   22.8174 C   0  0  0  0  0  0  0  0  0  0  0  0
    6.6611  -13.5933   22.6999 N   0  0  0  0  0  0  0  0  0  0  0  0
    6.5824  -13.0604   23.9298 C   0  0  0  0  0  0  0  0  0  0  0  0
    6.1497  -11.8115   24.3472 C   0  0  0  0  0  0  0  0  0  0  0  0
    6.1665  -11.4703   25.6733 C   0  0  0  0  0  0  0  0  0  0  0  0
    6.6235  -12.3936   26.6019 C   0  0  0  0  0  0  0  0  0  0  0  0
    7.0474  -13.6229   26.1741 C   0  0  0  0  0  0  0  0  0  0  0  0
    7.0438  -14.0041   24.8307 C   0  0  0  0  0  0  0  0  0  0  0  0
   10.1155  -17.0182   25.7514 C   0  0  0  0  0  0  0  0  0  0  0  0
   10.4928  -18.1994   25.9756 O   0  0  0  0  0  0  0  0  0  0  0  0
   11.4487  -13.8799   28.0657 C   0  0  0  0  0  0  0  0  0  0  0  0
   11.0725  -15.0978   28.8424 C   0  0  1  0  0  0  0  0  0  0  0  0
    9.7558  -14.8281   29.5082 C   0  0  0  0  0  0  0  0  0  0  0  0
   11.0755  -16.3857   28.0222 C   0  0  2  0  0  0  0  0  0  0  0  0
   10.3820  -16.0611   26.7880 N   0  0  0  0  0  0  0  0  0  0  0  0
   10.3743  -17.3902   28.8077 C   0  0  0  0  0  0  0  0  0  0  0  0
    9.1550  -17.5926   28.6410 O   0  0  0  0  0  0  0  0  0  0  0  0
   11.0451  -18.1402   29.7541 O   0  0  0  0  0  0  0  0  0  0  0  0
  2  1  1  6
  3  2  1  0
  3  4  1  0
  4  5  1  0
  5  9  1  0
  6  5  2  0
  7  8  2  0
  7  2  1  0
 10  7  1  0
 11 10  1  0
 11 12  1  1
 12 13  1  0
 13 21  1  0
 13 14  2  0
 14 15  1  0
 16 15  1  0
 16 17  2  0
 18 17  1  0
 19 18  2  0
 20 21  2  0
 20 19  1  0
 21 16  1  0
 22 28  1  0
 22 11  1  0
 23 22  2  0
 25 27  1  0
 25 24  1  6
 26 25  1  0
 27 29  1  0
 27 28  1  6
 29 31  1  0
 30 29  2  0
M  END
$$$$
