EWV.pdb
     RDKit          3D

 31 32  0  0  1  0  0  0  0  0999 V2000
   10.7647  -16.0868   19.9110 N   0  0  0  0  0  0  0  0  0  0  0  0
   10.5115  -17.0785   20.9289 C   0  0  1  0  0  0  0  0  0  0  0  0
   11.5857  -18.1217   20.8154 C   0  0  0  0  0  0  0  0  0  0  0  0
   12.9601  -17.5481   20.5309 C   0  0  0  0  0  0  0  0  0  0  0  0
   14.0113  -18.3730   21.1951 C   0  0  0  0  0  0  0  0  0  0  0  0
   14.9177  -17.7854   21.8468 O   0  0  0  0  0  0  0  0  0  0  0  0
   10.4136  -16.4282   22.2370 C   0  0  0  0  0  0  0  0  0  0  0  0
   11.0220  -15.3402   22.5248 O   0  0  0  0  0  0  0  0  0  0  0  0
   14.0452  -19.7605   21.1299 O   0  0  0  0  0  0  0  0  0  0  0  0
    9.6151  -16.9859   23.2841 N   0  0  0  0  0  0  0  0  0  0  0  0
    9.4236  -16.3422   24.5712 C   0  0  1  0  0  0  0  0  0  0  0  0
    7.9594  -16.4214   24.9708 C   0  0  0  0  0  0  0  0  0  0  0  0
    7.1616  -15.2538   24.5913 C   0  0  0  0  0  0  0  0  0  0  0  0
    6.3158  -15.2027   23.4896 C   0  0  0  0  0  0  0  0  0  0  0  0
    5.7159  -13.9916   23.4309 N   0  0  0  0  0  0  0  0  0  0  0  0
    6.1547  -13.2601   24.4679 C   0  0  0  0  0  0  0  0  0  0  0  0
    5.8547  -11.9614   24.8484 C   0  0  0  0  0  0  0  0  0  0  0  0
    6.4373  -11.4022   25.9543 C   0  0  0  0  0  0  0  0  0  0  0  0
    7.3368  -12.1534   26.6960 C   0  0  0  0  0  0  0  0  0  0  0  0
    7.6226  -13.4346   26.3075 C   0  0  0  0  0  0  0  0  0  0  0  0
    7.0473  -14.0361   25.1862 C   0  0  0  0  0  0  0  0  0  0  0  0
   10.3798  -16.6921   25.6038 C   0  0  0  0  0  0  0  0  0  0  0  0
   11.1132  -17.7163   25.6357 O   0  0  0  0  0  0  0  0  0  0  0  0
   11.1656  -13.5475   28.2475 C   0  0  0  0  0  0  0  0  0  0  0  0
   11.0486  -14.9100   28.8460 C   0  0  1  0  0  0  0  0  0  0  0  0
    9.6942  -15.0165   29.4816 C   0  0  0  0  0  0  0  0  0  0  0  0
   11.3426  -16.0468   27.8699 C   0  0  2  0  0  0  0  0  0  0  0  0
   10.5170  -15.7807   26.7048 N   0  0  0  0  0  0  0  0  0  0  0  0
   10.9776  -17.2860   28.5399 C   0  0  0  0  0  0  0  0  0  0  0  0
   11.7802  -17.8571   29.3049 O   0  0  0  0  0  0  0  0  0  0  0  0
    9.7345  -17.8550   28.3421 O   0  0  0  0  0  0  0  0  0  0  0  0
  2  1  1  6
  3  2  1  0
  3  4  1  0
  4  5  1  0
  5  9  1  0
  6  5  2  0
  7  8  2  0
  7  2  1  0
 10  7  1  0
 11 10  1  0
 11 12  1  1
 12 13  1  0
 13 21  1  0
 13 14  2  0
 14 15  1  0
 16 15  1  0
 16 17  2  0
 18 17  1  0
 19 18  2  0
 20 21  2  0
 20 19  1  0
 21 16  1  0
 22 28  1  0
 22 11  1  0
 23 22  2  0
 25 27  1  0
 25 24  1  6
 26 25  1  0
 27 29  1  0
 27 28  1  6
 29 31  1  0
 30 29  2  0
M  END
$$$$
