EWV.pdb
     RDKit          3D

 31 32  0  0  1  0  0  0  0  0999 V2000
   11.3652  -16.8423   19.6654 N   0  0  0  0  0  0  0  0  0  0  0  0
   11.5317  -17.5173   20.9305 C   0  0  1  0  0  0  0  0  0  0  0  0
   12.9871  -17.8614   21.0668 C   0  0  0  0  0  0  0  0  0  0  0  0
   13.4202  -19.0215   20.1919 C   0  0  0  0  0  0  0  0  0  0  0  0
   14.8395  -19.3821   20.4783 C   0  0  0  0  0  0  0  0  0  0  0  0
   15.3473  -20.3643   19.8707 O   0  0  0  0  0  0  0  0  0  0  0  0
   10.9863  -16.6884   22.0071 C   0  0  0  0  0  0  0  0  0  0  0  0
   11.2312  -15.4378   22.1197 O   0  0  0  0  0  0  0  0  0  0  0  0
   15.6331  -18.6911   21.3856 O   0  0  0  0  0  0  0  0  0  0  0  0
   10.1320  -17.2442   23.0102 N   0  0  0  0  0  0  0  0  0  0  0  0
    9.6083  -16.4781   24.1266 C   0  0  1  0  0  0  0  0  0  0  0  0
    8.0901  -16.4515   24.0624 C   0  0  0  0  0  0  0  0  0  0  0  0
    7.5110  -15.1144   23.9193 C   0  0  0  0  0  0  0  0  0  0  0  0
    7.2627  -14.4902   22.7025 C   0  0  0  0  0  0  0  0  0  0  0  0
    6.7107  -13.2741   22.9180 N   0  0  0  0  0  0  0  0  0  0  0  0
    6.5972  -13.0986   24.2444 C   0  0  0  0  0  0  0  0  0  0  0  0
    6.1068  -12.0278   24.9752 C   0  0  0  0  0  0  0  0  0  0  0  0
    6.0961  -12.0590   26.3442 C   0  0  0  0  0  0  0  0  0  0  0  0
    6.5837  -13.1811   26.9974 C   0  0  0  0  0  0  0  0  0  0  0  0
    7.0644  -14.2306   26.2617 C   0  0  0  0  0  0  0  0  0  0  0  0
    7.0903  -14.2327   24.8654 C   0  0  0  0  0  0  0  0  0  0  0  0
   10.1803  -16.7776   25.4252 C   0  0  0  0  0  0  0  0  0  0  0  0
   10.5723  -17.9031   25.8344 O   0  0  0  0  0  0  0  0  0  0  0  0
   10.7798  -14.5167   29.8705 C   0  0  0  0  0  0  0  0  0  0  0  0
   10.3954  -14.5539   28.4286 C   0  0  1  0  0  0  0  0  0  0  0  0
   10.9431  -13.3193   27.7763 C   0  0  0  0  0  0  0  0  0  0  0  0
   10.7975  -15.8393   27.7093 C   0  0  2  0  0  0  0  0  0  0  0  0
   10.3247  -15.6843   26.3447 N   0  0  0  0  0  0  0  0  0  0  0  0
   10.1421  -16.9370   28.4046 C   0  0  0  0  0  0  0  0  0  0  0  0
   10.7361  -17.5687   29.3010 O   0  0  0  0  0  0  0  0  0  0  0  0
    8.8485  -17.3017   28.0855 O   0  0  0  0  0  0  0  0  0  0  0  0
  2  1  1  6
  3  2  1  0
  3  4  1  0
  4  5  1  0
  5  9  1  0
  6  5  2  0
  7  8  2  0
  7  2  1  0
 10  7  1  0
 11 10  1  0
 11 12  1  1
 12 13  1  0
 13 21  1  0
 13 14  2  0
 14 15  1  0
 16 15  1  0
 16 17  2  0
 18 17  1  0
 19 18  2  0
 20 21  2  0
 20 19  1  0
 21 16  1  0
 22 28  1  0
 22 11  1  0
 23 22  2  0
 25 27  1  0
 25 24  1  1
 26 25  1  0
 27 29  1  0
 27 28  1  6
 29 31  1  0
 30 29  2  0
M  END
$$$$
