EWV.pdb
     RDKit          3D

 31 32  0  0  1  0  0  0  0  0999 V2000
   11.5484  -17.9751   19.8534 N   0  0  0  0  0  0  0  0  0  0  0  0
   11.1270  -18.4950   21.1325 C   0  0  1  0  0  0  0  0  0  0  0  0
   12.1917  -19.4434   21.6036 C   0  0  0  0  0  0  0  0  0  0  0  0
   12.4719  -20.5720   20.6305 C   0  0  0  0  0  0  0  0  0  0  0  0
   11.6568  -21.7713   20.9825 C   0  0  0  0  0  0  0  0  0  0  0  0
   11.7975  -22.8198   20.2951 O   0  0  0  0  0  0  0  0  0  0  0  0
   10.8359  -17.3864   22.0435 C   0  0  0  0  0  0  0  0  0  0  0  0
   11.6521  -16.4251   22.2589 O   0  0  0  0  0  0  0  0  0  0  0  0
   10.7448  -21.7919   22.0306 O   0  0  0  0  0  0  0  0  0  0  0  0
    9.5972  -17.3174   22.7549 N   0  0  0  0  0  0  0  0  0  0  0  0
    9.2991  -16.2947   23.7411 C   0  0  1  0  0  0  0  0  0  0  0  0
    7.8850  -15.7782   23.5322 C   0  0  0  0  0  0  0  0  0  0  0  0
    7.6993  -14.3641   23.8631 C   0  0  0  0  0  0  0  0  0  0  0  0
    8.1315  -13.3069   23.0710 C   0  0  0  0  0  0  0  0  0  0  0  0
    7.7902  -12.1332   23.6508 N   0  0  0  0  0  0  0  0  0  0  0  0
    7.1485  -12.4078   24.7979 C   0  0  0  0  0  0  0  0  0  0  0  0
    6.6091  -11.5634   25.7556 C   0  0  0  0  0  0  0  0  0  0  0  0
    5.9989  -12.0687   26.8727 C   0  0  0  0  0  0  0  0  0  0  0  0
    5.9247  -13.4438   27.0374 C   0  0  0  0  0  0  0  0  0  0  0  0
    6.4619  -14.2645   26.0826 C   0  0  0  0  0  0  0  0  0  0  0  0
    7.0907  -13.7839   24.9320 C   0  0  0  0  0  0  0  0  0  0  0  0
    9.6607  -16.6089   25.1099 C   0  0  0  0  0  0  0  0  0  0  0  0
    9.5436  -17.7251   25.6829 O   0  0  0  0  0  0  0  0  0  0  0  0
   10.6248  -14.3862   29.4325 C   0  0  0  0  0  0  0  0  0  0  0  0
   10.1772  -14.4649   28.0107 C   0  0  1  0  0  0  0  0  0  0  0  0
   10.5823  -13.1904   27.3315 C   0  0  0  0  0  0  0  0  0  0  0  0
   10.6565  -15.7138   27.2745 C   0  0  2  0  0  0  0  0  0  0  0  0
   10.2163  -15.5468   25.9004 N   0  0  0  0  0  0  0  0  0  0  0  0
   10.0313  -16.8556   27.9249 C   0  0  0  0  0  0  0  0  0  0  0  0
    8.8381  -17.1418   27.7014 O   0  0  0  0  0  0  0  0  0  0  0  0
   10.7468  -17.6457   28.8035 O   0  0  0  0  0  0  0  0  0  0  0  0
  2  1  1  6
  3  2  1  0
  3  4  1  0
  4  5  1  0
  5  9  1  0
  6  5  2  0
  7  8  2  0
  7  2  1  0
 10  7  1  0
 11 10  1  0
 11 12  1  1
 12 13  1  0
 13 21  1  0
 13 14  2  0
 14 15  1  0
 16 15  1  0
 16 17  2  0
 18 17  1  0
 19 18  2  0
 20 21  2  0
 20 19  1  0
 21 16  1  0
 22 28  1  0
 22 11  1  0
 23 22  2  0
 25 27  1  0
 25 24  1  1
 26 25  1  0
 27 29  1  0
 27 28  1  6
 29 31  1  0
 30 29  2  0
M  END
$$$$
