EWV.pdb
     RDKit          3D

 31 32  0  0  1  0  0  0  0  0999 V2000
   10.1485  -15.9110   19.4995 N   0  0  0  0  0  0  0  0  0  0  0  0
   10.0256  -16.9240   20.5205 C   0  0  1  0  0  0  0  0  0  0  0  0
   11.1897  -17.8599   20.3657 C   0  0  0  0  0  0  0  0  0  0  0  0
   12.5375  -17.1774   20.4947 C   0  0  0  0  0  0  0  0  0  0  0  0
   13.6375  -18.1742   20.3434 C   0  0  0  0  0  0  0  0  0  0  0  0
   13.3342  -19.3882   20.1825 O   0  0  0  0  0  0  0  0  0  0  0  0
    9.9108  -16.2882   21.8343 C   0  0  0  0  0  0  0  0  0  0  0  0
   10.5422  -15.2223   22.1534 O   0  0  0  0  0  0  0  0  0  0  0  0
   14.9842  -17.8334   20.3737 O   0  0  0  0  0  0  0  0  0  0  0  0
    9.0681  -16.8359   22.8517 N   0  0  0  0  0  0  0  0  0  0  0  0
    8.8897  -16.2234   24.1557 C   0  0  1  0  0  0  0  0  0  0  0  0
    7.4975  -16.5331   24.6811 C   0  0  0  0  0  0  0  0  0  0  0  0
    6.7271  -15.3576   25.0911 C   0  0  0  0  0  0  0  0  0  0  0  0
    5.4097  -15.3945   25.5326 C   0  0  0  0  0  0  0  0  0  0  0  0
    4.9992  -14.1448   25.8484 N   0  0  0  0  0  0  0  0  0  0  0  0
    6.0199  -13.3025   25.6210 C   0  0  0  0  0  0  0  0  0  0  0  0
    6.1084  -11.9279   25.7755 C   0  0  0  0  0  0  0  0  0  0  0  0
    7.2636  -11.2602   25.4670 C   0  0  0  0  0  0  0  0  0  0  0  0
    8.3526  -11.9781   24.9956 C   0  0  0  0  0  0  0  0  0  0  0  0
    8.2497  -13.3352   24.8486 C   0  0  0  0  0  0  0  0  0  0  0  0
    7.0880  -14.0478   25.1534 C   0  0  0  0  0  0  0  0  0  0  0  0
    9.9761  -16.4100   25.0980 C   0  0  0  0  0  0  0  0  0  0  0  0
   10.8717  -17.2951   25.0497 O   0  0  0  0  0  0  0  0  0  0  0  0
    9.3953  -14.2604   28.6801 C   0  0  0  0  0  0  0  0  0  0  0  0
   10.7902  -14.3869   28.1640 C   0  0  1  0  0  0  0  0  0  0  0  0
   11.7205  -14.3312   29.3392 C   0  0  0  0  0  0  0  0  0  0  0  0
   11.0184  -15.6092   27.2776 C   0  0  2  0  0  0  0  0  0  0  0  0
   10.0515  -15.4925   26.1999 N   0  0  0  0  0  0  0  0  0  0  0  0
   10.7894  -16.7829   28.1069 C   0  0  0  0  0  0  0  0  0  0  0  0
    9.6578  -17.3025   28.1773 O   0  0  0  0  0  0  0  0  0  0  0  0
   11.8211  -17.3455   28.8330 O   0  0  0  0  0  0  0  0  0  0  0  0
  2  1  1  6
  3  2  1  0
  3  4  1  0
  4  5  1  0
  5  9  1  0
  6  5  2  0
  7  8  2  0
  7  2  1  0
 10  7  1  0
 11 10  1  0
 11 12  1  1
 12 13  1  0
 13 21  1  0
 13 14  2  0
 14 15  1  0
 16 15  1  0
 16 17  2  0
 18 17  1  0
 19 18  2  0
 20 21  2  0
 20 19  1  0
 21 16  1  0
 22 28  1  0
 22 11  1  0
 23 22  2  0
 25 27  1  0
 25 24  1  1
 26 25  1  0
 27 29  1  0
 27 28  1  6
 29 31  1  0
 30 29  2  0
M  END
$$$$
