EWV.pdb
     RDKit          3D

 31 32  0  0  1  0  0  0  0  0999 V2000
   10.7105  -18.2884   20.4820 N   0  0  0  0  0  0  0  0  0  0  0  0
   11.5590  -17.1700   20.8183 C   0  0  1  0  0  0  0  0  0  0  0  0
   11.8161  -16.4056   19.5515 C   0  0  0  0  0  0  0  0  0  0  0  0
   11.2757  -17.0893   18.3108 C   0  0  0  0  0  0  0  0  0  0  0  0
   12.3997  -17.5781   17.4597 C   0  0  0  0  0  0  0  0  0  0  0  0
   12.9648  -16.7634   16.6797 O   0  0  0  0  0  0  0  0  0  0  0  0
   10.9464  -16.3939   21.8981 C   0  0  0  0  0  0  0  0  0  0  0  0
   11.3545  -15.2313   22.2427 O   0  0  0  0  0  0  0  0  0  0  0  0
   12.8559  -18.8904   17.4800 O   0  0  0  0  0  0  0  0  0  0  0  0
    9.8355  -16.9044   22.6399 N   0  0  0  0  0  0  0  0  0  0  0  0
    9.3131  -16.2672   23.8351 C   0  0  1  0  0  0  0  0  0  0  0  0
    7.7940  -16.2579   23.7885 C   0  0  0  0  0  0  0  0  0  0  0  0
    7.1603  -15.3991   24.7908 C   0  0  0  0  0  0  0  0  0  0  0  0
    6.4513  -15.8650   25.8917 C   0  0  0  0  0  0  0  0  0  0  0  0
    6.0107  -14.8183   26.6267 N   0  0  0  0  0  0  0  0  0  0  0  0
    6.4181  -13.6884   26.0264 C   0  0  0  0  0  0  0  0  0  0  0  0
    6.2208  -12.3605   26.3713 C   0  0  0  0  0  0  0  0  0  0  0  0
    6.7252  -11.3517   25.5947 C   0  0  0  0  0  0  0  0  0  0  0  0
    7.4412  -11.6738   24.4514 C   0  0  0  0  0  0  0  0  0  0  0  0
    7.6277  -12.9898   24.1243 C   0  0  0  0  0  0  0  0  0  0  0  0
    7.1280  -14.0433   24.8928 C   0  0  0  0  0  0  0  0  0  0  0  0
    9.9038  -16.6914   25.0898 C   0  0  0  0  0  0  0  0  0  0  0  0
   10.1908  -17.8712   25.4266 O   0  0  0  0  0  0  0  0  0  0  0  0
   11.2514  -13.4228   27.3543 C   0  0  0  0  0  0  0  0  0  0  0  0
   10.7627  -14.6180   28.1033 C   0  0  1  0  0  0  0  0  0  0  0  0
    9.3730  -14.3213   28.5833 C   0  0  0  0  0  0  0  0  0  0  0  0
   10.8592  -15.9259   27.3212 C   0  0  2  0  0  0  0  0  0  0  0  0
   10.2018  -15.6681   26.0519 N   0  0  0  0  0  0  0  0  0  0  0  0
   10.1744  -16.9413   28.1072 C   0  0  0  0  0  0  0  0  0  0  0  0
    8.9572  -17.1592   27.9451 O   0  0  0  0  0  0  0  0  0  0  0  0
   10.8590  -17.6847   29.0490 O   0  0  0  0  0  0  0  0  0  0  0  0
  2  1  1  6
  3  2  1  0
  3  4  1  0
  4  5  1  0
  5  9  1  0
  6  5  2  0
  7  8  2  0
  7  2  1  0
 10  7  1  0
 11 10  1  0
 11 12  1  1
 12 13  1  0
 13 21  1  0
 13 14  2  0
 14 15  1  0
 16 15  1  0
 16 17  2  0
 18 17  1  0
 19 18  2  0
 20 21  2  0
 20 19  1  0
 21 16  1  0
 22 28  1  0
 22 11  1  0
 23 22  2  0
 25 27  1  0
 25 24  1  6
 26 25  1  0
 27 29  1  0
 27 28  1  6
 29 31  1  0
 30 29  2  0
M  END
$$$$
