EWV.pdb
     RDKit          3D

 31 32  0  0  1  0  0  0  0  0999 V2000
    9.0902  -16.2730   19.9491 N   0  0  0  0  0  0  0  0  0  0  0  0
   10.0625  -16.7622   20.8973 C   0  0  1  0  0  0  0  0  0  0  0  0
   11.4228  -16.5242   20.3076 C   0  0  0  0  0  0  0  0  0  0  0  0
   11.9016  -17.6514   19.4136 C   0  0  0  0  0  0  0  0  0  0  0  0
   13.3094  -17.4066   18.9835 C   0  0  0  0  0  0  0  0  0  0  0  0
   13.8254  -18.1849   18.1351 O   0  0  0  0  0  0  0  0  0  0  0  0
    9.8343  -16.1399   22.2028 C   0  0  0  0  0  0  0  0  0  0  0  0
   10.0121  -14.8924   22.4239 O   0  0  0  0  0  0  0  0  0  0  0  0
   14.0854  -16.3635   19.4736 O   0  0  0  0  0  0  0  0  0  0  0  0
    9.3901  -16.9095   23.3233 N   0  0  0  0  0  0  0  0  0  0  0  0
    9.2872  -16.3743   24.6688 C   0  0  1  0  0  0  0  0  0  0  0  0
    7.9520  -16.7707   25.2771 C   0  0  0  0  0  0  0  0  0  0  0  0
    6.9778  -15.6815   25.3674 C   0  0  0  0  0  0  0  0  0  0  0  0
    5.6027  -15.8610   25.4604 C   0  0  0  0  0  0  0  0  0  0  0  0
    4.9903  -14.6576   25.5447 N   0  0  0  0  0  0  0  0  0  0  0  0
    5.9372  -13.7063   25.5081 C   0  0  0  0  0  0  0  0  0  0  0  0
    5.8320  -12.3249   25.5528 C   0  0  0  0  0  0  0  0  0  0  0  0
    6.9481  -11.5340   25.4885 C   0  0  0  0  0  0  0  0  0  0  0  0
    8.1941  -12.1329   25.3781 C   0  0  0  0  0  0  0  0  0  0  0  0
    8.2816  -13.4983   25.3354 C   0  0  0  0  0  0  0  0  0  0  0  0
    7.1652  -14.3348   25.3986 C   0  0  0  0  0  0  0  0  0  0  0  0
   10.4483  -16.5630   25.5169 C   0  0  0  0  0  0  0  0  0  0  0  0
   11.3736  -17.4023   25.3518 O   0  0  0  0  0  0  0  0  0  0  0  0
   10.9746  -13.5954   28.4758 C   0  0  0  0  0  0  0  0  0  0  0  0
   10.9987  -15.0280   28.8942 C   0  0  1  0  0  0  0  0  0  0  0  0
    9.6534  -15.3605   29.4680 C   0  0  0  0  0  0  0  0  0  0  0  0
   11.4343  -15.9918   27.7929 C   0  0  2  0  0  0  0  0  0  0  0  0
   10.5685  -15.7055   26.6623 N   0  0  0  0  0  0  0  0  0  0  0  0
   11.2477  -17.3391   28.3103 C   0  0  0  0  0  0  0  0  0  0  0  0
   10.1670  -17.9400   28.1483 O   0  0  0  0  0  0  0  0  0  0  0  0
   12.2643  -17.9799   28.9917 O   0  0  0  0  0  0  0  0  0  0  0  0
  2  1  1  6
  3  2  1  0
  3  4  1  0
  4  5  1  0
  5  9  1  0
  6  5  2  0
  7  8  2  0
  7  2  1  0
 10  7  1  0
 11 10  1  0
 11 12  1  1
 12 13  1  0
 13 21  1  0
 13 14  2  0
 14 15  1  0
 16 15  1  0
 16 17  2  0
 18 17  1  0
 19 18  2  0
 20 21  2  0
 20 19  1  0
 21 16  1  0
 22 28  1  0
 22 11  1  0
 23 22  2  0
 25 27  1  0
 25 24  1  6
 26 25  1  0
 27 29  1  0
 27 28  1  6
 29 31  1  0
 30 29  2  0
M  END
$$$$
