HQI.pdb
     RDKit          3D

 28 28  0  0  1  0  0  0  0  0999 V2000
   15.9837  -12.9769  -17.1928 N   0  0  0  0  0  0  0  0  0  0  0  0
   17.3423  -12.5869  -16.7420 C   0  0  1  0  0  0  0  0  0  0  0  0
   18.2736  -13.2348  -17.7228 C   0  0  0  0  0  0  0  0  0  0  0  0
   18.2208  -14.7076  -17.4109 C   0  0  0  0  0  0  0  0  0  0  0  0
   19.1449  -15.3621  -16.6226 C   0  0  0  0  0  0  0  0  0  0  0  0
   18.8105  -16.6815  -16.5507 N   0  0  0  0  0  0  0  0  0  0  0  0
   17.7109  -16.8217  -17.2767 C   0  0  0  0  0  0  0  0  0  0  0  0
   17.3361  -15.6275  -17.8080 N   0  0  0  0  0  0  0  0  0  0  0  0
   17.3678  -11.1221  -16.7021 C   0  0  0  0  0  0  0  0  0  0  0  0
   16.6407  -10.5049  -17.5450 O   0  0  0  0  0  0  0  0  0  0  0  0
   14.3975   -6.8751  -16.5845 N   0  0  0  0  0  0  0  0  0  0  0  0
   15.5289   -6.0749  -16.3597 C   0  0  0  0  0  0  0  0  0  0  0  0
   15.3435   -4.8124  -16.3751 O   0  0  0  0  0  0  0  0  0  0  0  0
   16.8581   -6.6822  -16.1193 C   0  0  0  0  0  0  0  0  0  0  0  0
   16.7439   -8.2151  -16.1092 C   0  0  0  0  0  0  0  0  0  0  0  0
   18.0170   -8.9012  -15.8476 C   0  0  2  0  0  0  0  0  0  0  0  0
   18.1141  -10.3092  -15.8202 N   0  0  0  0  0  0  0  0  0  0  0  0
   18.9425   -8.2203  -14.9422 C   0  0  0  0  0  0  0  0  0  0  0  0
   18.7015   -8.1323  -13.6867 O   0  0  0  0  0  0  0  0  0  0  0  0
   23.3594  -10.5583  -15.3623 C   0  0  0  0  0  0  0  0  0  0  0  0
   22.0825   -9.7465  -15.0737 C   0  0  0  0  0  0  0  0  0  0  0  0
   22.4250   -8.3239  -14.7324 C   0  0  2  0  0  0  0  0  0  0  0  0
   23.4606   -8.3654  -13.6077 C   0  0  0  0  0  0  0  0  0  0  0  0
   21.2751   -7.4507  -14.4218 C   0  0  2  0  0  0  0  0  0  0  0  0
   20.1538   -7.5958  -15.3327 N   0  0  0  0  0  0  0  0  0  0  0  0
   21.6528   -5.9991  -14.2870 C   0  0  0  0  0  0  0  0  0  0  0  0
   21.1284   -5.0145  -15.1413 O   0  0  0  0  0  0  0  0  0  0  0  0
   22.4396   -5.5795  -13.4236 O   0  0  0  0  0  0  0  0  0  0  0  0
  2  1  1  6
  3  4  1  0
  3  2  1  0
  4  8  1  0
  5  6  1  0
  5  4  2  0
  6  7  1  0
  7  8  2  0
  9  2  1  0
  9 10  2  0
 12 11  1  0
 13 12  2  0
 14 12  1  0
 15 14  1  0
 16 15  1  1
 16 17  1  0
 17  9  1  0
 18 16  1  0
 19 18  2  0
 21 20  1  0
 22 21  1  0
 22 23  1  1
 24 25  1  6
 24 22  1  0
 25 18  1  0
 26 24  1  0
 27 26  1  0
 28 26  2  0
M  END
$$$$
