HQI.pdb
     RDKit          3D

 28 28  0  0  1  0  0  0  0  0999 V2000
   25.6591  -20.8566  -15.9605 N   0  0  0  0  0  0  0  0  0  0  0  0
   26.7643  -20.6819  -14.9862 C   0  0  1  0  0  0  0  0  0  0  0  0
   27.7328  -19.7596  -15.6647 C   0  0  0  0  0  0  0  0  0  0  0  0
   28.5039  -20.6266  -16.6255 C   0  0  0  0  0  0  0  0  0  0  0  0
   28.3023  -20.6325  -17.9904 C   0  0  0  0  0  0  0  0  0  0  0  0
   29.1540  -21.5314  -18.5600 N   0  0  0  0  0  0  0  0  0  0  0  0
   29.8541  -22.0556  -17.5646 C   0  0  0  0  0  0  0  0  0  0  0  0
   29.4717  -21.5145  -16.3773 N   0  0  0  0  0  0  0  0  0  0  0  0
   26.1588  -20.1815  -13.7489 C   0  0  0  0  0  0  0  0  0  0  0  0
   25.3399  -19.2126  -13.8529 O   0  0  0  0  0  0  0  0  0  0  0  0
   21.5069  -19.4333  -11.9508 N   0  0  0  0  0  0  0  0  0  0  0  0
   21.9391  -20.7364  -12.2437 C   0  0  0  0  0  0  0  0  0  0  0  0
   21.0513  -21.5457  -12.6743 O   0  0  0  0  0  0  0  0  0  0  0  0
   23.3541  -21.1318  -12.0565 C   0  0  0  0  0  0  0  0  0  0  0  0
   24.1599  -19.9540  -11.4854 C   0  0  0  0  0  0  0  0  0  0  0  0
   25.5965  -20.2320  -11.3477 C   0  0  2  0  0  0  0  0  0  0  0  0
   26.3815  -20.6621  -12.4394 N   0  0  0  0  0  0  0  0  0  0  0  0
   26.0302  -20.7604  -10.0545 C   0  0  0  0  0  0  0  0  0  0  0  0
   26.1558  -22.0206   -9.8587 O   0  0  0  0  0  0  0  0  0  0  0  0
   29.0927  -19.5151   -4.8172 C   0  0  0  0  0  0  0  0  0  0  0  0
   28.0525  -20.3998   -5.5303 C   0  0  0  0  0  0  0  0  0  0  0  0
   27.6441  -19.7865   -6.8398 C   0  0  2  0  0  0  0  0  0  0  0  0
   27.1507  -18.3699   -6.5413 C   0  0  0  0  0  0  0  0  0  0  0  0
   26.6815  -20.5734   -7.6369 C   0  0  2  0  0  0  0  0  0  0  0  0
   26.3366  -19.9756   -8.9143 N   0  0  0  0  0  0  0  0  0  0  0  0
   25.4329  -20.9303   -6.8743 C   0  0  0  0  0  0  0  0  0  0  0  0
   24.1780  -20.3989   -7.2167 O   0  0  0  0  0  0  0  0  0  0  0  0
   25.4268  -21.7084   -5.9073 O   0  0  0  0  0  0  0  0  0  0  0  0
  2  1  1  6
  3  4  1  0
  3  2  1  0
  4  8  1  0
  5  6  1  0
  5  4  2  0
  6  7  1  0
  7  8  2  0
  9  2  1  0
  9 10  2  0
 12 11  1  0
 13 12  2  0
 14 12  1  0
 15 14  1  0
 16 15  1  6
 16 17  1  0
 17  9  1  0
 18 16  1  0
 19 18  2  0
 21 20  1  0
 22 21  1  0
 22 23  1  1
 24 25  1  6
 24 22  1  0
 25 18  1  0
 26 24  1  0
 27 26  1  0
 28 26  2  0
M  END
$$$$
