HQI.pdb
     RDKit          3D

 28 28  0  0  1  0  0  0  0  0999 V2000
   24.9136  -10.5705  -20.0979 N   0  0  0  0  0  0  0  0  0  0  0  0
   24.9599  -10.8409  -18.6399 C   0  0  1  0  0  0  0  0  0  0  0  0
   26.2057  -10.1568  -18.1614 C   0  0  0  0  0  0  0  0  0  0  0  0
   27.3397  -11.0602  -18.5705 C   0  0  0  0  0  0  0  0  0  0  0  0
   27.1671  -12.2893  -19.1732 C   0  0  0  0  0  0  0  0  0  0  0  0
   28.3899  -12.8462  -19.4017 N   0  0  0  0  0  0  0  0  0  0  0  0
   29.2803  -11.9753  -18.9494 C   0  0  0  0  0  0  0  0  0  0  0  0
   28.6576  -10.8792  -18.4400 N   0  0  0  0  0  0  0  0  0  0  0  0
   23.6991  -10.3458  -18.0803 C   0  0  0  0  0  0  0  0  0  0  0  0
   23.2418   -9.2558  -18.5523 O   0  0  0  0  0  0  0  0  0  0  0  0
   18.1798  -12.7935  -16.4899 N   0  0  0  0  0  0  0  0  0  0  0  0
   18.0176  -11.4145  -16.2827 C   0  0  0  0  0  0  0  0  0  0  0  0
   16.8225  -11.0037  -16.1051 O   0  0  0  0  0  0  0  0  0  0  0  0
   19.1836  -10.5013  -16.2739 C   0  0  0  0  0  0  0  0  0  0  0  0
   20.4606  -11.2725  -16.6446 C   0  0  0  0  0  0  0  0  0  0  0  0
   21.6670  -10.4341  -16.6848 C   0  0  2  0  0  0  0  0  0  0  0  0
   22.9234  -10.9520  -17.0672 N   0  0  0  0  0  0  0  0  0  0  0  0
   21.7393   -9.3600  -15.6944 C   0  0  0  0  0  0  0  0  0  0  0  0
   22.3615   -9.5181  -14.5853 O   0  0  0  0  0  0  0  0  0  0  0  0
   23.0594   -3.6084  -14.8652 C   0  0  0  0  0  0  0  0  0  0  0  0
   22.2441   -4.7737  -14.2736 C   0  0  0  0  0  0  0  0  0  0  0  0
   22.0862   -5.8758  -15.2826 C   0  0  2  0  0  0  0  0  0  0  0  0
   21.5285   -5.2438  -16.5589 C   0  0  0  0  0  0  0  0  0  0  0  0
   21.3027   -7.0433  -14.8306 C   0  0  2  0  0  0  0  0  0  0  0  0
   21.1457   -8.0802  -15.8347 N   0  0  0  0  0  0  0  0  0  0  0  0
   19.9629   -6.6700  -14.2530 C   0  0  0  0  0  0  0  0  0  0  0  0
   18.7595   -7.1240  -14.8186 O   0  0  0  0  0  0  0  0  0  0  0  0
   19.8324   -5.9485  -13.2515 O   0  0  0  0  0  0  0  0  0  0  0  0
  2  1  1  6
  3  4  1  0
  3  2  1  0
  4  8  1  0
  5  6  1  0
  5  4  2  0
  6  7  1  0
  7  8  2  0
  9  2  1  0
  9 10  2  0
 12 11  1  0
 13 12  2  0
 14 12  1  0
 15 14  1  0
 16 15  1  1
 16 17  1  0
 17  9  1  0
 18 16  1  0
 19 18  2  0
 21 20  1  0
 22 21  1  0
 22 23  1  6
 24 25  1  6
 24 22  1  0
 25 18  1  0
 26 24  1  0
 27 26  1  0
 28 26  2  0
M  END
$$$$
