HQI.pdb
     RDKit          3D

 28 28  0  0  1  0  0  0  0  0999 V2000
   21.1021  -13.0997  -17.7192 N   0  0  0  0  0  0  0  0  0  0  0  0
   21.4704  -11.8382  -18.4078 C   0  0  1  0  0  0  0  0  0  0  0  0
   21.1003  -12.0618  -19.8437 C   0  0  0  0  0  0  0  0  0  0  0  0
   22.1072  -13.0530  -20.3661 C   0  0  0  0  0  0  0  0  0  0  0  0
   21.7780  -14.2987  -20.8597 C   0  0  0  0  0  0  0  0  0  0  0  0
   22.9191  -14.9408  -21.2386 N   0  0  0  0  0  0  0  0  0  0  0  0
   23.9139  -14.1040  -20.9815 C   0  0  0  0  0  0  0  0  0  0  0  0
   23.4370  -12.9469  -20.4500 N   0  0  0  0  0  0  0  0  0  0  0  0
   20.7555  -10.7595  -17.7199 C   0  0  0  0  0  0  0  0  0  0  0  0
   19.5423  -10.9765  -17.4018 O   0  0  0  0  0  0  0  0  0  0  0  0
   19.7892   -9.1069  -12.5629 N   0  0  0  0  0  0  0  0  0  0  0  0
   21.1273   -8.9436  -12.9550 C   0  0  0  0  0  0  0  0  0  0  0  0
   21.9979   -8.9561  -12.0221 O   0  0  0  0  0  0  0  0  0  0  0  0
   21.4891   -8.7678  -14.3804 C   0  0  0  0  0  0  0  0  0  0  0  0
   20.2182   -8.6439  -15.2361 C   0  0  0  0  0  0  0  0  0  0  0  0
   20.4839   -8.5403  -16.6778 C   0  0  2  0  0  0  0  0  0  0  0  0
   21.2691   -9.4930  -17.3624 N   0  0  0  0  0  0  0  0  0  0  0  0
   20.5803   -7.1852  -17.2202 C   0  0  0  0  0  0  0  0  0  0  0  0
   21.6929   -6.7187  -17.6522 O   0  0  0  0  0  0  0  0  0  0  0  0
   16.7406   -4.9856  -20.4575 C   0  0  0  0  0  0  0  0  0  0  0  0
   18.0004   -5.5169  -19.7479 C   0  0  0  0  0  0  0  0  0  0  0  0
   18.4917   -4.5276  -18.7294 C   0  0  2  0  0  0  0  0  0  0  0  0
   18.7305   -3.2060  -19.4611 C   0  0  0  0  0  0  0  0  0  0  0  0
   19.6576   -4.9616  -17.9333 C   0  0  2  0  0  0  0  0  0  0  0  0
   19.5045   -6.2667  -17.3157 N   0  0  0  0  0  0  0  0  0  0  0  0
   20.0853   -3.9461  -16.9069 C   0  0  0  0  0  0  0  0  0  0  0  0
   21.1230   -3.0321  -17.1562 O   0  0  0  0  0  0  0  0  0  0  0  0
   19.5567   -3.8471  -15.7882 O   0  0  0  0  0  0  0  0  0  0  0  0
  2  1  1  1
  3  4  1  0
  3  2  1  0
  4  8  1  0
  5  6  1  0
  5  4  2  0
  6  7  1  0
  7  8  2  0
  9  2  1  0
  9 10  2  0
 12 11  1  0
 13 12  2  0
 14 12  1  0
 15 14  1  0
 16 15  1  1
 16 17  1  0
 17  9  1  0
 18 16  1  0
 19 18  2  0
 21 20  1  0
 22 21  1  0
 22 23  1  6
 24 25  1  1
 24 22  1  0
 25 18  1  0
 26 24  1  0
 27 26  1  0
 28 26  2  0
M  END
$$$$
