HQI.pdb
     RDKit          3D

 28 28  0  0  1  0  0  0  0  0999 V2000
   22.6277  -24.9221  -16.5512 N   0  0  0  0  0  0  0  0  0  0  0  0
   23.0931  -24.1900  -15.3476 C   0  0  1  0  0  0  0  0  0  0  0  0
   24.1957  -23.3011  -15.8409 C   0  0  0  0  0  0  0  0  0  0  0  0
   25.3459  -24.2242  -16.1480 C   0  0  0  0  0  0  0  0  0  0  0  0
   25.9332  -25.0590  -15.2197 C   0  0  0  0  0  0  0  0  0  0  0  0
   26.9444  -25.7478  -15.8205 N   0  0  0  0  0  0  0  0  0  0  0  0
   26.9677  -25.3404  -17.0812 C   0  0  0  0  0  0  0  0  0  0  0  0
   25.9986  -24.4119  -17.2992 N   0  0  0  0  0  0  0  0  0  0  0  0
   21.9207  -23.5107  -14.7892 C   0  0  0  0  0  0  0  0  0  0  0  0
   21.2865  -22.7190  -15.5579 O   0  0  0  0  0  0  0  0  0  0  0  0
   17.7831  -24.4382  -10.0245 N   0  0  0  0  0  0  0  0  0  0  0  0
   18.0111  -25.2716  -11.1310 C   0  0  0  0  0  0  0  0  0  0  0  0
   17.4538  -26.4192  -11.1018 O   0  0  0  0  0  0  0  0  0  0  0  0
   18.8562  -24.8248  -12.2622 C   0  0  0  0  0  0  0  0  0  0  0  0
   19.3829  -23.4049  -11.9986 C   0  0  0  0  0  0  0  0  0  0  0  0
   20.2835  -22.9043  -13.0467 C   0  0  2  0  0  0  0  0  0  0  0  0
   21.4072  -23.6411  -13.4796 N   0  0  0  0  0  0  0  0  0  0  0  0
   20.4608  -21.4535  -13.1059 C   0  0  0  0  0  0  0  0  0  0  0  0
   21.3886  -20.8688  -12.4430 O   0  0  0  0  0  0  0  0  0  0  0  0
   20.8624  -16.4883  -16.4159 C   0  0  0  0  0  0  0  0  0  0  0  0
   20.3796  -17.0086  -15.0487 C   0  0  0  0  0  0  0  0  0  0  0  0
   20.2145  -18.5018  -15.0784 C   0  0  2  0  0  0  0  0  0  0  0  0
   19.2418  -18.8268  -16.2130 C   0  0  0  0  0  0  0  0  0  0  0  0
   19.8284  -19.1236  -13.7956 C   0  0  2  0  0  0  0  0  0  0  0  0
   19.6550  -20.5637  -13.8602 N   0  0  0  0  0  0  0  0  0  0  0  0
   18.6210  -18.4810  -13.1654 C   0  0  0  0  0  0  0  0  0  0  0  0
   18.6881  -17.2176  -12.5542 O   0  0  0  0  0  0  0  0  0  0  0  0
   17.5005  -19.0145  -13.1452 O   0  0  0  0  0  0  0  0  0  0  0  0
  2  1  1  6
  3  4  1  0
  3  2  1  0
  4  8  1  0
  5  6  1  0
  5  4  2  0
  6  7  1  0
  7  8  2  0
  9  2  1  0
  9 10  2  0
 12 11  1  0
 13 12  2  0
 14 12  1  0
 15 14  1  0
 16 15  1  1
 16 17  1  0
 17  9  1  0
 18 16  1  0
 19 18  2  0
 21 20  1  0
 22 21  1  0
 22 23  1  6
 24 25  1  6
 24 22  1  0
 25 18  1  0
 26 24  1  0
 27 26  1  0
 28 26  2  0
M  END
$$$$
