HQI.pdb
     RDKit          3D

 28 28  0  0  1  0  0  0  0  0999 V2000
   14.7563  -13.0897  -16.9752 N   0  0  0  0  0  0  0  0  0  0  0  0
   15.9426  -12.9750  -16.0916 C   0  0  1  0  0  0  0  0  0  0  0  0
   16.8972  -14.0176  -16.5924 C   0  0  0  0  0  0  0  0  0  0  0  0
   16.3273  -15.3344  -16.1335 C   0  0  0  0  0  0  0  0  0  0  0  0
   16.5993  -15.9067  -14.9078 C   0  0  0  0  0  0  0  0  0  0  0  0
   15.9344  -17.0930  -14.8156 N   0  0  0  0  0  0  0  0  0  0  0  0
   15.2759  -17.2345  -15.9567 C   0  0  0  0  0  0  0  0  0  0  0  0
   15.5029  -16.1705  -16.7722 N   0  0  0  0  0  0  0  0  0  0  0  0
   16.4016  -11.5862  -16.1823 C   0  0  0  0  0  0  0  0  0  0  0  0
   16.3014  -11.0135  -17.3146 O   0  0  0  0  0  0  0  0  0  0  0  0
   16.2025   -6.9363  -17.8690 N   0  0  0  0  0  0  0  0  0  0  0  0
   16.8529   -6.2910  -16.8053 C   0  0  0  0  0  0  0  0  0  0  0  0
   17.2427   -5.0949  -17.0199 O   0  0  0  0  0  0  0  0  0  0  0  0
   17.0659   -6.9783  -15.5108 C   0  0  0  0  0  0  0  0  0  0  0  0
   16.4158   -8.3709  -15.5396 C   0  0  0  0  0  0  0  0  0  0  0  0
   17.3708   -9.4731  -15.3576 C   0  0  2  0  0  0  0  0  0  0  0  0
   16.9450  -10.8015  -15.1408 N   0  0  0  0  0  0  0  0  0  0  0  0
   18.6296   -9.1330  -14.6946 C   0  0  0  0  0  0  0  0  0  0  0  0
   18.7275   -9.1234  -13.4169 O   0  0  0  0  0  0  0  0  0  0  0  0
   24.2308  -10.8088  -14.3238 C   0  0  0  0  0  0  0  0  0  0  0  0
   23.3495   -9.5646  -14.1043 C   0  0  0  0  0  0  0  0  0  0  0  0
   22.0720   -9.6755  -14.8874 C   0  0  2  0  0  0  0  0  0  0  0  0
   22.4555   -9.8081  -16.3620 C   0  0  0  0  0  0  0  0  0  0  0  0
   21.0838   -8.6050  -14.6454 C   0  0  2  0  0  0  0  0  0  0  0  0
   19.8310   -8.7785  -15.3586 N   0  0  0  0  0  0  0  0  0  0  0  0
   21.6346   -7.2245  -14.8875 C   0  0  0  0  0  0  0  0  0  0  0  0
   22.5046   -6.6032  -13.9757 O   0  0  0  0  0  0  0  0  0  0  0  0
   21.3635   -6.5522  -15.8951 O   0  0  0  0  0  0  0  0  0  0  0  0
  2  1  1  6
  3  4  1  0
  3  2  1  0
  4  8  1  0
  5  6  1  0
  5  4  2  0
  6  7  1  0
  7  8  2  0
  9  2  1  0
  9 10  2  0
 12 11  1  0
 13 12  2  0
 14 12  1  0
 15 14  1  0
 16 15  1  1
 16 17  1  0
 17  9  1  0
 18 16  1  0
 19 18  2  0
 21 20  1  0
 22 21  1  0
 22 23  1  6
 24 25  1  6
 24 22  1  0
 25 18  1  0
 26 24  1  0
 27 26  1  0
 28 26  2  0
M  END
$$$$
