HIW.pdb
     RDKit          3D

 33 35  0  0  1  0  0  0  0  0999 V2000
   29.8629  -23.2292  -18.1524 N   0  0  0  0  0  0  0  0  0  0  0  0
   28.5234  -23.0020  -17.6713 C   0  0  1  0  0  0  0  0  0  0  0  0
   27.8501  -24.3278  -17.4623 C   0  0  0  0  0  0  0  0  0  0  0  0
   27.2281  -24.7595  -18.7379 C   0  0  0  0  0  0  0  0  0  0  0  0
   25.9224  -24.6879  -19.1415 C   0  0  0  0  0  0  0  0  0  0  0  0
   25.8390  -25.2006  -20.3742 N   0  0  0  0  0  0  0  0  0  0  0  0
   27.0695  -25.5913  -20.7489 C   0  0  0  0  0  0  0  0  0  0  0  0
   27.9106  -25.3165  -19.7400 N   0  0  0  0  0  0  0  0  0  0  0  0
   28.5127  -22.2626  -16.3553 C   0  0  0  0  0  0  0  0  0  0  0  0
   29.3488  -22.5292  -15.4579 O   0  0  0  0  0  0  0  0  0  0  0  0
   28.0773  -17.7302  -17.2972 C   0  0  0  0  0  0  0  0  0  0  0  0
   28.5860  -18.4209  -16.0589 C   0  0  0  0  0  0  0  0  0  0  0  0
   27.4005  -18.9861  -15.2729 C   0  0  2  0  0  0  0  0  0  0  0  0
   27.1625  -18.1488  -14.0439 C   0  0  0  0  0  0  0  0  0  0  0  0
   27.6674  -20.4164  -14.8775 C   0  0  2  0  0  0  0  0  0  0  0  0
   27.5579  -21.2513  -16.1036 N   0  0  0  0  0  0  0  0  0  0  0  0
   26.6441  -20.9220  -13.9554 C   0  0  0  0  0  0  0  0  0  0  0  0
   25.5202  -21.3130  -14.4652 O   0  0  0  0  0  0  0  0  0  0  0  0
   26.7730  -21.0263  -12.5627 N   0  0  0  0  0  0  0  0  0  0  0  0
   25.6823  -21.6910  -11.7975 C   0  0  1  0  0  0  0  0  0  0  0  0
   26.3852  -22.2430  -10.5891 C   0  0  0  0  0  0  0  0  0  0  0  0
   26.4058  -21.2937   -9.4716 C   0  0  0  0  0  0  0  0  0  0  0  0
   25.3419  -20.5071   -9.0080 C   0  0  0  0  0  0  0  0  0  0  0  0
   25.7639  -19.7382   -7.9943 N   0  0  0  0  0  0  0  0  0  0  0  0
   27.0624  -19.9666   -7.7484 C   0  0  0  0  0  0  0  0  0  0  0  0
   27.9672  -19.4629   -6.8171 C   0  0  0  0  0  0  0  0  0  0  0  0
   29.2403  -19.9545   -6.8445 C   0  0  0  0  0  0  0  0  0  0  0  0
   29.6599  -20.9121   -7.7402 C   0  0  0  0  0  0  0  0  0  0  0  0
   28.7715  -21.4030   -8.6525 C   0  0  0  0  0  0  0  0  0  0  0  0
   27.4769  -20.9389   -8.6658 C   0  0  0  0  0  0  0  0  0  0  0  0
   24.6228  -20.7213  -11.5398 C   0  0  0  0  0  0  0  0  0  0  0  0
   23.3151  -21.1002  -11.2528 O   0  0  0  0  0  0  0  0  0  0  0  0
   24.8833  -19.4841  -11.5802 O   0  0  0  0  0  0  0  0  0  0  0  0
  2  1  1  1
  2  3  1  0
  3  4  1  0
  4  8  1  0
  5  4  2  0
  5  6  1  0
  6  7  1  0
  8  7  2  0
  9  2  1  0
  9 10  2  0
 12 11  1  0
 12 13  1  0
 13 14  1  1
 15 13  1  0
 15 16  1  6
 16  9  1  0
 17 15  1  0
 18 17  2  0
 19 17  1  0
 20 21  1  1
 20 19  1  0
 21 22  1  0
 22 30  1  0
 23 22  2  0
 23 24  1  0
 24 25  1  0
 25 26  1  0
 26 27  2  0
 28 27  1  0
 29 28  2  0
 30 25  2  0
 30 29  1  0
 31 32  1  0
 31 20  1  0
 33 31  2  0
M  END
$$$$
