HIW.pdb
     RDKit          3D

 33 35  0  0  1  0  0  0  0  0999 V2000
   27.8600  -21.2404  -17.0515 N   0  0  0  0  0  0  0  0  0  0  0  0
   27.3819  -20.2947  -16.0746 C   0  0  1  0  0  0  0  0  0  0  0  0
   26.4345  -19.3410  -16.7437 C   0  0  0  0  0  0  0  0  0  0  0  0
   27.2088  -18.4225  -17.6138 C   0  0  0  0  0  0  0  0  0  0  0  0
   27.8110  -17.2316  -17.3103 C   0  0  0  0  0  0  0  0  0  0  0  0
   28.3938  -16.7650  -18.4203 N   0  0  0  0  0  0  0  0  0  0  0  0
   28.1670  -17.6431  -19.4127 C   0  0  0  0  0  0  0  0  0  0  0  0
   27.4414  -18.6526  -18.9073 N   0  0  0  0  0  0  0  0  0  0  0  0
   26.6408  -20.9717  -14.9472 C   0  0  0  0  0  0  0  0  0  0  0  0
   25.8449  -21.9158  -15.1724 O   0  0  0  0  0  0  0  0  0  0  0  0
   29.0759  -21.3516  -10.1839 C   0  0  0  0  0  0  0  0  0  0  0  0
   28.2365  -21.6980  -11.3860 C   0  0  0  0  0  0  0  0  0  0  0  0
   26.8573  -21.0501  -11.2425 C   0  0  2  0  0  0  0  0  0  0  0  0
   26.1188  -21.6810  -10.0916 C   0  0  0  0  0  0  0  0  0  0  0  0
   26.0653  -21.2154  -12.5148 C   0  0  2  0  0  0  0  0  0  0  0  0
   26.8268  -20.5559  -13.6091 N   0  0  0  0  0  0  0  0  0  0  0  0
   24.7775  -20.5156  -12.4442 C   0  0  0  0  0  0  0  0  0  0  0  0
   24.7999  -19.2448  -12.1983 O   0  0  0  0  0  0  0  0  0  0  0  0
   23.5149  -21.0990  -12.6245 N   0  0  0  0  0  0  0  0  0  0  0  0
   22.3204  -20.2104  -12.6504 C   0  0  1  0  0  0  0  0  0  0  0  0
   22.4882  -19.4311  -13.9246 C   0  0  0  0  0  0  0  0  0  0  0  0
   21.2124  -19.1939  -14.6075 C   0  0  0  0  0  0  0  0  0  0  0  0
   20.1861  -18.3261  -14.2086 C   0  0  0  0  0  0  0  0  0  0  0  0
   19.1643  -18.4168  -15.0715 N   0  0  0  0  0  0  0  0  0  0  0  0
   19.4492  -19.3039  -16.0362 C   0  0  0  0  0  0  0  0  0  0  0  0
   18.7625  -19.7543  -17.1610 C   0  0  0  0  0  0  0  0  0  0  0  0
   19.3857  -20.6734  -17.9547 C   0  0  0  0  0  0  0  0  0  0  0  0
   20.6447  -21.1654  -17.6935 C   0  0  0  0  0  0  0  0  0  0  0  0
   21.3149  -20.7233  -16.5900 C   0  0  0  0  0  0  0  0  0  0  0  0
   20.7290  -19.7978  -15.7582 C   0  0  0  0  0  0  0  0  0  0  0  0
   21.1165  -21.0287  -12.5492 C   0  0  0  0  0  0  0  0  0  0  0  0
   21.0743  -22.3534  -12.9726 O   0  0  0  0  0  0  0  0  0  0  0  0
   20.0594  -20.5297  -12.0657 O   0  0  0  0  0  0  0  0  0  0  0  0
  2  1  1  6
  2  3  1  0
  3  4  1  0
  4  8  1  0
  5  4  2  0
  5  6  1  0
  6  7  1  0
  8  7  2  0
  9  2  1  0
  9 10  2  0
 12 11  1  0
 12 13  1  0
 13 14  1  1
 15 13  1  0
 15 16  1  6
 16  9  1  0
 17 15  1  0
 18 17  2  0
 19 17  1  0
 20 21  1  6
 20 19  1  0
 21 22  1  0
 22 30  1  0
 23 22  2  0
 23 24  1  0
 24 25  1  0
 25 26  1  0
 26 27  2  0
 28 27  1  0
 29 28  2  0
 30 25  2  0
 30 29  1  0
 31 32  1  0
 31 20  1  0
 33 31  2  0
M  END
$$$$
