HIW.pdb
     RDKit          3D

 33 35  0  0  1  0  0  0  0  0999 V2000
   17.6014  -22.6998  -10.7228 N   0  0  0  0  0  0  0  0  0  0  0  0
   17.7994  -22.6002  -12.1469 C   0  0  1  0  0  0  0  0  0  0  0  0
   16.5736  -21.9942  -12.7674 C   0  0  0  0  0  0  0  0  0  0  0  0
   15.4474  -22.9519  -12.6457 C   0  0  0  0  0  0  0  0  0  0  0  0
   15.3034  -24.2036  -13.1800 C   0  0  0  0  0  0  0  0  0  0  0  0
   14.1173  -24.6870  -12.7941 N   0  0  0  0  0  0  0  0  0  0  0  0
   13.5170  -23.7599  -12.0275 C   0  0  0  0  0  0  0  0  0  0  0  0
   14.3402  -22.7033  -11.9440 N   0  0  0  0  0  0  0  0  0  0  0  0
   18.9781  -21.7235  -12.4944 C   0  0  0  0  0  0  0  0  0  0  0  0
   19.3652  -20.8217  -11.7118 O   0  0  0  0  0  0  0  0  0  0  0  0
   24.3620  -22.2585  -15.0639 C   0  0  0  0  0  0  0  0  0  0  0  0
   23.3012  -21.2889  -14.6124 C   0  0  0  0  0  0  0  0  0  0  0  0
   22.0085  -22.0546  -14.3204 C   0  0  2  0  0  0  0  0  0  0  0  0
   21.6335  -22.8895  -15.5164 C   0  0  0  0  0  0  0  0  0  0  0  0
   20.8930  -21.0947  -13.9925 C   0  0  2  0  0  0  0  0  0  0  0  0
   19.6736  -21.8988  -13.7123 N   0  0  0  0  0  0  0  0  0  0  0  0
   20.5575  -20.2441  -15.1401 C   0  0  0  0  0  0  0  0  0  0  0  0
   19.9449  -20.7985  -16.1368 O   0  0  0  0  0  0  0  0  0  0  0  0
   20.8364  -18.8745  -15.2566 N   0  0  0  0  0  0  0  0  0  0  0  0
   20.3966  -18.1637  -16.4888 C   0  0  1  0  0  0  0  0  0  0  0  0
   20.4199  -16.7153  -16.0876 C   0  0  0  0  0  0  0  0  0  0  0  0
   19.9940  -15.8270  -17.1738 C   0  0  0  0  0  0  0  0  0  0  0  0
   18.6841  -15.4352  -17.4839 C   0  0  0  0  0  0  0  0  0  0  0  0
   18.6984  -14.6497  -18.5701 N   0  0  0  0  0  0  0  0  0  0  0  0
   19.9552  -14.4900  -19.0104 C   0  0  0  0  0  0  0  0  0  0  0  0
   20.5209  -13.7769  -20.0644 C   0  0  0  0  0  0  0  0  0  0  0  0
   21.8779  -13.8260  -20.2030 C   0  0  0  0  0  0  0  0  0  0  0  0
   22.6971  -14.5399  -19.3576 C   0  0  0  0  0  0  0  0  0  0  0  0
   22.1400  -15.2387  -18.3262 C   0  0  0  0  0  0  0  0  0  0  0  0
   20.7767  -15.2214  -18.1449 C   0  0  0  0  0  0  0  0  0  0  0  0
   21.2722  -18.5405  -17.5936 C   0  0  0  0  0  0  0  0  0  0  0  0
   20.8259  -18.6183  -18.9092 O   0  0  0  0  0  0  0  0  0  0  0  0
   22.4854  -18.8161  -17.3647 O   0  0  0  0  0  0  0  0  0  0  0  0
  2  1  1  1
  2  3  1  0
  3  4  1  0
  4  8  1  0
  5  4  2  0
  5  6  1  0
  6  7  1  0
  8  7  2  0
  9  2  1  0
  9 10  2  0
 12 11  1  0
 12 13  1  0
 13 14  1  6
 15 13  1  0
 15 16  1  6
 16  9  1  0
 17 15  1  0
 18 17  2  0
 19 17  1  0
 20 21  1  1
 20 19  1  0
 21 22  1  0
 22 30  1  0
 23 22  2  0
 23 24  1  0
 24 25  1  0
 25 26  1  0
 26 27  2  0
 28 27  1  0
 29 28  2  0
 30 25  2  0
 30 29  1  0
 31 32  1  0
 31 20  1  0
 33 31  2  0
M  END
$$$$
