HIW.pdb
     RDKit          3D

 33 35  0  0  1  0  0  0  0  0999 V2000
   13.7241  -16.3694  -20.3818 N   0  0  0  0  0  0  0  0  0  0  0  0
   14.8385  -15.6083  -19.8757 C   0  0  1  0  0  0  0  0  0  0  0  0
   16.1145  -16.3034  -20.2544 C   0  0  0  0  0  0  0  0  0  0  0  0
   16.2082  -17.5811  -19.5067 C   0  0  0  0  0  0  0  0  0  0  0  0
   16.3199  -17.7993  -18.1602 C   0  0  0  0  0  0  0  0  0  0  0  0
   16.3706  -19.1202  -17.9553 N   0  0  0  0  0  0  0  0  0  0  0  0
   16.2923  -19.7321  -19.1498 C   0  0  0  0  0  0  0  0  0  0  0  0
   16.1933  -18.7805  -20.0909 N   0  0  0  0  0  0  0  0  0  0  0  0
   14.8799  -14.2140  -20.4526 C   0  0  0  0  0  0  0  0  0  0  0  0
   14.6578  -14.0124  -21.6715 O   0  0  0  0  0  0  0  0  0  0  0  0
   12.1292  -11.5711  -18.1552 C   0  0  0  0  0  0  0  0  0  0  0  0
   12.7662  -11.1352  -19.4489 C   0  0  0  0  0  0  0  0  0  0  0  0
   14.2612  -10.8991  -19.2213 C   0  0  2  0  0  0  0  0  0  0  0  0
   14.5762   -9.4376  -19.4025 C   0  0  0  0  0  0  0  0  0  0  0  0
   15.0752  -11.7245  -20.1852 C   0  0  2  0  0  0  0  0  0  0  0  0
   15.1710  -13.1014  -19.6308 N   0  0  0  0  0  0  0  0  0  0  0  0
   16.4551  -11.2352  -20.2839 C   0  0  0  0  0  0  0  0  0  0  0  0
   17.2069  -11.3498  -19.2362 O   0  0  0  0  0  0  0  0  0  0  0  0
   17.0413  -10.6546  -21.4181 N   0  0  0  0  0  0  0  0  0  0  0  0
   18.4284  -10.1247  -21.3066 C   0  0  1  0  0  0  0  0  0  0  0  0
   18.8583   -9.9585  -22.7373 C   0  0  0  0  0  0  0  0  0  0  0  0
   20.1950   -9.3669  -22.8546 C   0  0  0  0  0  0  0  0  0  0  0  0
   21.4268  -10.0263  -22.7386 C   0  0  0  0  0  0  0  0  0  0  0  0
   22.4224   -9.1381  -22.8680 N   0  0  0  0  0  0  0  0  0  0  0  0
   21.9244   -7.9087  -23.0666 C   0  0  0  0  0  0  0  0  0  0  0  0
   22.5034   -6.6592  -23.2742 C   0  0  0  0  0  0  0  0  0  0  0  0
   21.6650   -5.5997  -23.4680 C   0  0  0  0  0  0  0  0  0  0  0  0
   20.2930   -5.7134  -23.4669 C   0  0  0  0  0  0  0  0  0  0  0  0
   19.7282   -6.9388  -23.2621 C   0  0  0  0  0  0  0  0  0  0  0  0
   20.5307   -8.0376  -23.0610 C   0  0  0  0  0  0  0  0  0  0  0  0
   18.4108   -8.9128  -20.4940 C   0  0  0  0  0  0  0  0  0  0  0  0
   17.3892   -7.9718  -20.5757 O   0  0  0  0  0  0  0  0  0  0  0  0
   19.3552   -8.6896  -19.6826 O   0  0  0  0  0  0  0  0  0  0  0  0
  2  1  1  6
  2  3  1  0
  3  4  1  0
  4  8  1  0
  5  4  2  0
  5  6  1  0
  6  7  1  0
  8  7  2  0
  9  2  1  0
  9 10  2  0
 12 11  1  0
 12 13  1  0
 13 14  1  6
 15 13  1  0
 15 16  1  1
 16  9  1  0
 17 15  1  0
 18 17  2  0
 19 17  1  0
 20 21  1  6
 20 19  1  0
 21 22  1  0
 22 30  1  0
 23 22  2  0
 23 24  1  0
 24 25  1  0
 25 26  1  0
 26 27  2  0
 28 27  1  0
 29 28  2  0
 30 25  2  0
 30 29  1  0
 31 32  1  0
 31 20  1  0
 33 31  2  0
M  END
$$$$
