HIW.pdb
     RDKit          3D

 33 35  0  0  1  0  0  0  0  0999 V2000
   27.8496  -20.9410  -17.8956 N   0  0  0  0  0  0  0  0  0  0  0  0
   27.6454  -20.0548  -16.7774 C   0  0  1  0  0  0  0  0  0  0  0  0
   26.3466  -19.3251  -16.9658 C   0  0  0  0  0  0  0  0  0  0  0  0
   26.5410  -18.2431  -17.9616 C   0  0  0  0  0  0  0  0  0  0  0  0
   27.1217  -17.0127  -17.8129 C   0  0  0  0  0  0  0  0  0  0  0  0
   27.0689  -16.3822  -18.9915 N   0  0  0  0  0  0  0  0  0  0  0  0
   26.4657  -17.1966  -19.8749 C   0  0  0  0  0  0  0  0  0  0  0  0
   26.1475  -18.3316  -19.2334 N   0  0  0  0  0  0  0  0  0  0  0  0
   27.5726  -20.8031  -15.4684 C   0  0  0  0  0  0  0  0  0  0  0  0
   26.8460  -21.8192  -15.3448 O   0  0  0  0  0  0  0  0  0  0  0  0
   30.8555  -21.5133  -10.3200 C   0  0  0  0  0  0  0  0  0  0  0  0
   29.5292  -21.6938  -11.0111 C   0  0  0  0  0  0  0  0  0  0  0  0
   29.5442  -20.9334  -12.3394 C   0  0  2  0  0  0  0  0  0  0  0  0
   29.7780  -19.4682  -12.0813 C   0  0  0  0  0  0  0  0  0  0  0  0
   28.2388  -21.1258  -13.0686 C   0  0  2  0  0  0  0  0  0  0  0  0
   28.3226  -20.3746  -14.3496 N   0  0  0  0  0  0  0  0  0  0  0  0
   27.1158  -20.5361  -12.3308 C   0  0  0  0  0  0  0  0  0  0  0  0
   26.6254  -19.4239  -12.7764 O   0  0  0  0  0  0  0  0  0  0  0  0
   26.5164  -21.0719  -11.1816 N   0  0  0  0  0  0  0  0  0  0  0  0
   25.3021  -20.4033  -10.6379 C   0  0  1  0  0  0  0  0  0  0  0  0
   24.2953  -20.5468  -11.7447 C   0  0  0  0  0  0  0  0  0  0  0  0
   22.9519  -20.1229  -11.3374 C   0  0  0  0  0  0  0  0  0  0  0  0
   22.3621  -20.2736  -10.0745 C   0  0  0  0  0  0  0  0  0  0  0  0
   21.1099  -19.7962  -10.1067 N   0  0  0  0  0  0  0  0  0  0  0  0
   20.8232  -19.3288  -11.3307 C   0  0  0  0  0  0  0  0  0  0  0  0
   19.6995  -18.7256  -11.8901 C   0  0  0  0  0  0  0  0  0  0  0  0
   19.7724  -18.3473  -13.1996 C   0  0  0  0  0  0  0  0  0  0  0  0
   20.8929  -18.5343  -13.9773 C   0  0  0  0  0  0  0  0  0  0  0  0
   21.9923  -19.1266  -13.4270 C   0  0  0  0  0  0  0  0  0  0  0  0
   21.9680  -19.5266  -12.1112 C   0  0  0  0  0  0  0  0  0  0  0  0
   24.9503  -21.0195   -9.3629 C   0  0  0  0  0  0  0  0  0  0  0  0
   25.3652  -22.3001   -9.0110 O   0  0  0  0  0  0  0  0  0  0  0  0
   24.2367  -20.3821   -8.5354 O   0  0  0  0  0  0  0  0  0  0  0  0
  2  1  1  6
  2  3  1  0
  3  4  1  0
  4  8  1  0
  5  4  2  0
  5  6  1  0
  6  7  1  0
  8  7  2  0
  9  2  1  0
  9 10  2  0
 12 11  1  0
 12 13  1  0
 13 14  1  1
 15 13  1  0
 15 16  1  6
 16  9  1  0
 17 15  1  0
 18 17  2  0
 19 17  1  0
 20 21  1  6
 20 19  1  0
 21 22  1  0
 22 30  1  0
 23 22  2  0
 23 24  1  0
 24 25  1  0
 25 26  1  0
 26 27  2  0
 28 27  1  0
 29 28  2  0
 30 25  2  0
 30 29  1  0
 31 32  1  0
 31 20  1  0
 33 31  2  0
M  END
$$$$
