CDM.pdb
     RDKit          3D

 23 22  0  0  1  0  0  0  0  0999 V2000
    6.6158  -14.1982   18.8322 N   0  0  0  0  0  0  0  0  0  0  0  0
    8.0247  -14.4600   19.0271 C   0  0  1  0  0  0  0  0  0  0  0  0
    8.7420  -13.1294   19.0236 C   0  0  0  0  0  0  0  0  0  0  0  0
    8.1801  -12.2182   20.4914 S   0  0  0  0  0  0  0  0  0  0  0  0
    8.2543  -15.2070   20.3060 C   0  0  0  0  0  0  0  0  0  0  0  0
    7.3853  -15.1597   21.2098 O   0  0  0  0  0  0  0  0  0  0  0  0
    9.4345  -15.9702   20.5228 N   0  0  0  0  0  0  0  0  0  0  0  0
    9.6545  -16.8116   21.6815 C   0  0  1  0  0  0  0  0  0  0  0  0
   10.9560  -17.5390   21.5260 C   0  0  0  0  0  0  0  0  0  0  0  0
   11.1374  -18.6765   22.4154 C   0  0  0  0  0  0  0  0  0  0  0  0
   10.3795  -18.8084   23.4067 O   0  0  0  0  0  0  0  0  0  0  0  0
    9.7157  -15.9626   22.9046 C   0  0  0  0  0  0  0  0  0  0  0  0
   10.5299  -14.9897   22.9391 O   0  0  0  0  0  0  0  0  0  0  0  0
   12.1195  -19.6224   22.2072 O   0  0  0  0  0  0  0  0  0  0  0  0
    6.0755  -11.1874   27.4778 C   0  0  0  0  0  0  0  0  0  0  0  0
    6.0818  -12.5253   26.2542 S   0  0  0  0  0  0  0  0  0  0  0  0
    7.6393  -13.4106   26.2317 C   0  0  0  0  0  0  0  0  0  0  0  0
    7.6716  -14.3843   25.1062 C   0  0  0  0  0  0  0  0  0  0  0  0
    8.9195  -15.1940   25.1302 C   0  0  2  0  0  0  0  0  0  0  0  0
    8.9205  -16.1709   24.0382 N   0  0  0  0  0  0  0  0  0  0  0  0
    9.1798  -15.9462   26.3729 C   0  0  0  0  0  0  0  0  0  0  0  0
    9.5081  -15.3557   27.5919 O   0  0  0  0  0  0  0  0  0  0  0  0
    9.1247  -17.2241   26.4229 O   0  0  0  0  0  0  0  0  0  0  0  0
  2  1  1  1
  2  3  1  0
  4  3  1  0
  5  2  1  0
  6  5  2  0
  7  5  1  0
  8 12  1  0
  8  7  1  0
  8  9  1  6
 10  9  1  0
 11 10  2  0
 12 20  1  0
 13 12  2  0
 14 10  1  0
 16 17  1  0
 16 15  1  0
 19 18  1  1
 18 17  1  0
 20 19  1  0
 21 22  1  0
 21 19  1  0
 23 21  2  0
M  END
$$$$
