CDM.pdb
     RDKit          3D

 23 22  0  0  1  0  0  0  0  0999 V2000
    7.2529  -15.2044   18.7564 N   0  0  0  0  0  0  0  0  0  0  0  0
    8.3331  -14.6488   19.5413 C   0  0  1  0  0  0  0  0  0  0  0  0
    7.8655  -13.3187   20.0864 C   0  0  0  0  0  0  0  0  0  0  0  0
    7.8351  -12.1537   18.6927 S   0  0  0  0  0  0  0  0  0  0  0  0
    8.7281  -15.5874   20.6409 C   0  0  0  0  0  0  0  0  0  0  0  0
    7.8444  -16.2693   21.2139 O   0  0  0  0  0  0  0  0  0  0  0  0
   10.0821  -15.7261   21.0533 N   0  0  0  0  0  0  0  0  0  0  0  0
   10.5212  -16.6172   22.1078 C   0  0  1  0  0  0  0  0  0  0  0  0
   12.0062  -16.8004   22.0154 C   0  0  0  0  0  0  0  0  0  0  0  0
   12.5809  -17.6936   23.0104 C   0  0  0  0  0  0  0  0  0  0  0  0
   13.7746  -17.5340   23.3630 O   0  0  0  0  0  0  0  0  0  0  0  0
   10.1870  -16.0195   23.4314 C   0  0  0  0  0  0  0  0  0  0  0  0
   10.6056  -14.8528   23.7039 O   0  0  0  0  0  0  0  0  0  0  0  0
   11.8562  -18.7171   23.5845 O   0  0  0  0  0  0  0  0  0  0  0  0
    7.0813  -11.2601   26.9715 C   0  0  0  0  0  0  0  0  0  0  0  0
    6.7567  -13.0052   26.6022 S   0  0  0  0  0  0  0  0  0  0  0  0
    8.1710  -13.8096   25.8521 C   0  0  0  0  0  0  0  0  0  0  0  0
    7.9230  -15.2695   25.6998 C   0  0  0  0  0  0  0  0  0  0  0  0
    9.1978  -16.0365   25.7115 C   0  0  2  0  0  0  0  0  0  0  0  0
    9.4285  -16.6715   24.4113 N   0  0  0  0  0  0  0  0  0  0  0  0
    9.3042  -17.1006   26.7284 C   0  0  0  0  0  0  0  0  0  0  0  0
    9.7232  -18.4024   26.4593 O   0  0  0  0  0  0  0  0  0  0  0  0
    9.0107  -16.9027   27.9585 O   0  0  0  0  0  0  0  0  0  0  0  0
  2  1  1  1
  2  3  1  0
  4  3  1  0
  5  2  1  0
  6  5  2  0
  7  5  1  0
  8 12  1  0
  8  7  1  0
  8  9  1  1
 10  9  1  0
 11 10  2  0
 12 20  1  0
 13 12  2  0
 14 10  1  0
 16 17  1  0
 16 15  1  0
 19 18  1  6
 18 17  1  0
 20 19  1  0
 21 22  1  0
 21 19  1  0
 23 21  2  0
M  END
$$$$
