CDM.pdb
     RDKit          3D

 23 22  0  0  1  0  0  0  0  0999 V2000
    7.2228  -15.2594   17.9484 N   0  0  0  0  0  0  0  0  0  0  0  0
    8.1318  -14.6496   18.8936 C   0  0  1  0  0  0  0  0  0  0  0  0
    7.5141  -13.3468   19.3474 C   0  0  0  0  0  0  0  0  0  0  0  0
    8.6423  -12.6214   20.5728 S   0  0  0  0  0  0  0  0  0  0  0  0
    8.3923  -15.5684   20.0487 C   0  0  0  0  0  0  0  0  0  0  0  0
    7.4261  -16.1390   20.6100 O   0  0  0  0  0  0  0  0  0  0  0  0
    9.7094  -15.8114   20.5267 N   0  0  0  0  0  0  0  0  0  0  0  0
   10.0142  -16.6281   21.6839 C   0  0  1  0  0  0  0  0  0  0  0  0
   11.4278  -17.1176   21.5866 C   0  0  0  0  0  0  0  0  0  0  0  0
   11.7623  -18.2185   22.4777 C   0  0  0  0  0  0  0  0  0  0  0  0
   12.9461  -18.6318   22.5263 O   0  0  0  0  0  0  0  0  0  0  0  0
    9.8681  -15.8085   22.9198 C   0  0  0  0  0  0  0  0  0  0  0  0
   10.5935  -14.7772   23.0646 O   0  0  0  0  0  0  0  0  0  0  0  0
   10.8187  -18.8291   23.2772 O   0  0  0  0  0  0  0  0  0  0  0  0
    6.4174  -10.9108   25.8729 C   0  0  0  0  0  0  0  0  0  0  0  0
    6.0173  -12.6289   26.2915 S   0  0  0  0  0  0  0  0  0  0  0  0
    7.4795  -13.6612   26.3712 C   0  0  0  0  0  0  0  0  0  0  0  0
    7.6427  -14.4357   25.1105 C   0  0  0  0  0  0  0  0  0  0  0  0
    8.8893  -15.2474   25.1346 C   0  0  2  0  0  0  0  0  0  0  0  0
    8.9676  -16.1061   23.9500 N   0  0  0  0  0  0  0  0  0  0  0  0
    9.0685  -16.1248   26.3075 C   0  0  0  0  0  0  0  0  0  0  0  0
    9.2661  -15.6638   27.6079 O   0  0  0  0  0  0  0  0  0  0  0  0
    9.0580  -17.4014   26.2144 O   0  0  0  0  0  0  0  0  0  0  0  0
  2  1  1  6
  2  3  1  0
  4  3  1  0
  5  2  1  0
  6  5  2  0
  7  5  1  0
  8 12  1  0
  8  7  1  0
  8  9  1  6
 10  9  1  0
 11 10  2  0
 12 20  1  0
 13 12  2  0
 14 10  1  0
 16 17  1  0
 16 15  1  0
 19 18  1  1
 18 17  1  0
 20 19  1  0
 21 22  1  0
 21 19  1  0
 23 21  2  0
M  END
$$$$
