CDM.pdb
     RDKit          3D

 23 22  0  0  1  0  0  0  0  0999 V2000
    6.7688  -14.5503   18.9179 N   0  0  0  0  0  0  0  0  0  0  0  0
    8.1795  -14.5903   19.2340 C   0  0  1  0  0  0  0  0  0  0  0  0
    8.6598  -13.1629   19.3643 C   0  0  0  0  0  0  0  0  0  0  0  0
    7.9478  -12.5000   20.8987 S   0  0  0  0  0  0  0  0  0  0  0  0
    8.4203  -15.3702   20.4909 C   0  0  0  0  0  0  0  0  0  0  0  0
    7.4540  -15.6291   21.2482 O   0  0  0  0  0  0  0  0  0  0  0  0
    9.7190  -15.8259   20.8491 N   0  0  0  0  0  0  0  0  0  0  0  0
    9.9878  -16.7187   21.9580 C   0  0  1  0  0  0  0  0  0  0  0  0
   11.2654  -17.4592   21.6997 C   0  0  0  0  0  0  0  0  0  0  0  0
   11.6858  -18.3553   22.7665 C   0  0  0  0  0  0  0  0  0  0  0  0
   10.8191  -19.0018   23.4033 O   0  0  0  0  0  0  0  0  0  0  0  0
   10.1321  -15.9231   23.2096 C   0  0  0  0  0  0  0  0  0  0  0  0
   10.5232  -14.7181   23.1321 O   0  0  0  0  0  0  0  0  0  0  0  0
   13.0122  -18.5215   23.1062 O   0  0  0  0  0  0  0  0  0  0  0  0
    6.0660  -11.7363   27.3742 C   0  0  0  0  0  0  0  0  0  0  0  0
    6.5394  -12.8447   26.0197 S   0  0  0  0  0  0  0  0  0  0  0  0
    7.9794  -13.8299   26.4271 C   0  0  0  0  0  0  0  0  0  0  0  0
    8.4184  -14.6272   25.2492 C   0  0  0  0  0  0  0  0  0  0  0  0
    9.5640  -15.5115   25.5941 C   0  0  2  0  0  0  0  0  0  0  0  0
    9.8601  -16.4256   24.4879 N   0  0  0  0  0  0  0  0  0  0  0  0
    9.3987  -16.3448   26.8008 C   0  0  0  0  0  0  0  0  0  0  0  0
    9.1075  -17.7076   26.7778 O   0  0  0  0  0  0  0  0  0  0  0  0
    9.5104  -15.8663   27.9827 O   0  0  0  0  0  0  0  0  0  0  0  0
  2  1  1  1
  2  3  1  0
  4  3  1  0
  5  2  1  0
  6  5  2  0
  7  5  1  0
  8 12  1  0
  8  7  1  0
  8  9  1  6
 10  9  1  0
 11 10  2  0
 12 20  1  0
 13 12  2  0
 14 10  1  0
 16 17  1  0
 16 15  1  0
 19 18  1  6
 18 17  1  0
 20 19  1  0
 21 22  1  0
 21 19  1  0
 23 21  2  0
M  END
$$$$
