CDM.pdb
     RDKit          3D

 23 22  0  0  1  0  0  0  0  0999 V2000
    6.6788  -15.7117   20.0279 N   0  0  0  0  0  0  0  0  0  0  0  0
    7.9341  -15.1248   20.4420 C   0  0  1  0  0  0  0  0  0  0  0  0
    7.6260  -13.7923   21.0857 C   0  0  0  0  0  0  0  0  0  0  0  0
    8.0718  -12.5051   19.8836 S   0  0  0  0  0  0  0  0  0  0  0  0
    8.6621  -16.0366   21.3827 C   0  0  0  0  0  0  0  0  0  0  0  0
    8.0084  -16.7066   22.2182 O   0  0  0  0  0  0  0  0  0  0  0  0
   10.0783  -16.1628   21.3534 N   0  0  0  0  0  0  0  0  0  0  0  0
   10.8341  -17.0235   22.2404 C   0  0  1  0  0  0  0  0  0  0  0  0
   12.2013  -17.2474   21.6677 C   0  0  0  0  0  0  0  0  0  0  0  0
   13.0262  -18.2012   22.3943 C   0  0  0  0  0  0  0  0  0  0  0  0
   12.5752  -18.7346   23.4367 O   0  0  0  0  0  0  0  0  0  0  0  0
   10.9668  -16.3672   23.5717 C   0  0  0  0  0  0  0  0  0  0  0  0
   11.2028  -15.1213   23.6237 O   0  0  0  0  0  0  0  0  0  0  0  0
   14.2952  -18.5432   21.9759 O   0  0  0  0  0  0  0  0  0  0  0  0
    8.7880  -11.8061   27.8720 C   0  0  0  0  0  0  0  0  0  0  0  0
    8.1772  -13.3119   27.0679 S   0  0  0  0  0  0  0  0  0  0  0  0
    9.3081  -14.6874   27.2654 C   0  0  0  0  0  0  0  0  0  0  0  0
    9.5550  -15.3539   25.9574 C   0  0  0  0  0  0  0  0  0  0  0  0
   10.7015  -16.2983   26.0421 C   0  0  2  0  0  0  0  0  0  0  0  0
   10.8461  -17.0461   24.7904 N   0  0  0  0  0  0  0  0  0  0  0  0
   10.6402  -17.2959   27.1279 C   0  0  0  0  0  0  0  0  0  0  0  0
   10.7421  -16.9862   28.4830 O   0  0  0  0  0  0  0  0  0  0  0  0
   10.4883  -18.5462   26.8998 O   0  0  0  0  0  0  0  0  0  0  0  0
  2  1  1  1
  2  3  1  0
  4  3  1  0
  5  2  1  0
  6  5  2  0
  7  5  1  0
  8 12  1  0
  8  7  1  0
  8  9  1  6
 10  9  1  0
 11 10  2  0
 12 20  1  0
 13 12  2  0
 14 10  1  0
 16 17  1  0
 16 15  1  0
 19 18  1  6
 18 17  1  0
 20 19  1  0
 21 22  1  0
 21 19  1  0
 23 21  2  0
M  END
$$$$
