CDM.pdb
     RDKit          3D

 23 22  0  0  1  0  0  0  0  0999 V2000
    6.9689  -20.4156   22.6012 N   0  0  0  0  0  0  0  0  0  0  0  0
    7.3128  -19.0419   22.3075 C   0  0  1  0  0  0  0  0  0  0  0  0
    6.2907  -18.1591   22.9865 C   0  0  0  0  0  0  0  0  0  0  0  0
    6.4246  -18.4667   24.7721 S   0  0  0  0  0  0  0  0  0  0  0  0
    8.7040  -18.7319   22.7705 C   0  0  0  0  0  0  0  0  0  0  0  0
    9.2913  -19.5362   23.5338 O   0  0  0  0  0  0  0  0  0  0  0  0
    9.3782  -17.5467   22.3665 N   0  0  0  0  0  0  0  0  0  0  0  0
   10.6668  -17.1311   22.8821 C   0  0  1  0  0  0  0  0  0  0  0  0
   11.2978  -16.1684   21.9217 C   0  0  0  0  0  0  0  0  0  0  0  0
   11.7008  -16.7432   20.6469 C   0  0  0  0  0  0  0  0  0  0  0  0
   11.9023  -17.9792   20.5664 O   0  0  0  0  0  0  0  0  0  0  0  0
   10.4786  -16.4535   24.1958 C   0  0  0  0  0  0  0  0  0  0  0  0
   11.4974  -16.0240   24.8191 O   0  0  0  0  0  0  0  0  0  0  0  0
   11.8709  -15.9735   19.5150 O   0  0  0  0  0  0  0  0  0  0  0  0
    7.1252  -10.5928   26.5444 C   0  0  0  0  0  0  0  0  0  0  0  0
    6.7601  -12.3601   26.3698 S   0  0  0  0  0  0  0  0  0  0  0  0
    8.2503  -13.3527   26.3029 C   0  0  0  0  0  0  0  0  0  0  0  0
    7.9119  -14.8002   26.2253 C   0  0  0  0  0  0  0  0  0  0  0  0
    9.1388  -15.6354   26.1229 C   0  0  2  0  0  0  0  0  0  0  0  0
    9.2303  -16.2557   24.7986 N   0  0  0  0  0  0  0  0  0  0  0  0
    9.2659  -16.7239   27.1112 C   0  0  0  0  0  0  0  0  0  0  0  0
    9.7872  -16.5610   28.3935 O   0  0  0  0  0  0  0  0  0  0  0  0
    8.9013  -17.9243   26.8569 O   0  0  0  0  0  0  0  0  0  0  0  0
  2  1  1  1
  2  3  1  0
  4  3  1  0
  5  2  1  0
  6  5  2  0
  7  5  1  0
  8 12  1  0
  8  7  1  0
  8  9  1  6
 10  9  1  0
 11 10  2  0
 12 20  1  0
 13 12  2  0
 14 10  1  0
 16 17  1  0
 16 15  1  0
 19 18  1  6
 18 17  1  0
 20 19  1  0
 21 22  1  0
 21 19  1  0
 23 21  2  0
M  END
$$$$
