IYM.pdb
     RDKit          3D

 29 29  0  0  1  0  0  0  0  0999 V2000
    6.3258  -11.1914   26.9764 C   0  0  0  0  0  0  0  0  0  0  0  0
    5.8642  -12.4143   26.2692 C   0  0  0  0  0  0  0  0  0  0  0  0
    6.9608  -13.3324   25.7809 C   0  0  2  0  0  0  0  0  0  0  0  0
    7.9015  -12.5240   24.8959 C   0  0  0  0  0  0  0  0  0  0  0  0
    6.4018  -14.5427   25.0851 C   0  0  2  0  0  0  0  0  0  0  0  0
    5.4848  -15.1552   26.0675 N   0  0  0  0  0  0  0  0  0  0  0  0
    7.3912  -15.5730   24.7350 C   0  0  0  0  0  0  0  0  0  0  0  0
    7.7564  -16.3933   25.6385 O   0  0  0  0  0  0  0  0  0  0  0  0
   13.0578  -20.5163   19.8934 O   0  0  0  0  0  0  0  0  0  0  0  0
   12.1441  -19.5617   20.3497 C   0  0  0  0  0  0  0  0  0  0  0  0
   12.4980  -18.2319   20.4586 C   0  0  0  0  0  0  0  0  0  0  0  0
   11.5775  -17.2999   20.9130 C   0  0  0  0  0  0  0  0  0  0  0  0
   10.2986  -17.6671   21.2651 C   0  0  0  0  0  0  0  0  0  0  0  0
    9.3365  -16.6991   21.7595 C   0  0  0  0  0  0  0  0  0  0  0  0
    9.0332  -16.7656   23.2381 C   0  0  2  0  0  0  0  0  0  0  0  0
    8.0025  -15.7706   23.4750 N   0  0  0  0  0  0  0  0  0  0  0  0
   10.2735  -16.5496   23.9908 C   0  0  0  0  0  0  0  0  0  0  0  0
   10.9258  -15.5034   23.7227 O   0  0  0  0  0  0  0  0  0  0  0  0
    9.9657  -18.9946   21.1501 C   0  0  0  0  0  0  0  0  0  0  0  0
   10.8685  -19.9386   20.6993 C   0  0  0  0  0  0  0  0  0  0  0  0
    9.2284  -13.9501   28.4907 C   0  0  0  0  0  0  0  0  0  0  0  0
   10.5068  -15.1214   28.9978 S   0  0  0  0  0  0  0  0  0  0  0  0
   10.6753  -16.3654   27.6576 C   0  0  0  0  0  0  0  0  0  0  0  0
   11.7671  -15.9423   26.7007 C   0  0  0  0  0  0  0  0  0  0  0  0
   12.0017  -17.0346   25.6934 C   0  0  2  0  0  0  0  0  0  0  0  0
   10.7916  -17.4002   24.9704 N   0  0  0  0  0  0  0  0  0  0  0  0
   12.5174  -18.2761   26.4070 C   0  0  0  0  0  0  0  0  0  0  0  0
   11.8649  -19.3485   26.4051 O   0  0  0  0  0  0  0  0  0  0  0  0
   13.7274  -18.2670   27.0850 O   0  0  0  0  0  0  0  0  0  0  0  0
  2  1  1  0
  3  2  1  0
  3  4  1  6
  5  6  1  1
  5  3  1  0
  7  5  1  0
  7  8  2  0
  9 10  1  0
 10 11  2  0
 11 12  1  0
 13 12  2  0
 13 14  1  0
 15 14  1  6
 15 16  1  0
 15 17  1  0
 16  7  1  0
 17 26  1  0
 18 17  2  0
 19 13  1  0
 20 10  1  0
 20 19  2  0
 21 22  1  0
 22 23  1  0
 23 24  1  0
 25 24  1  1
 25 27  1  0
 26 25  1  0
 27 28  2  0
 27 29  1  0
M  END
$$$$
