IYM.pdb
     RDKit          3D

 29 29  0  0  1  0  0  0  0  0999 V2000
    7.2363  -12.0728   18.5312 C   0  0  0  0  0  0  0  0  0  0  0  0
    7.7260  -13.4754   18.4977 C   0  0  0  0  0  0  0  0  0  0  0  0
    7.9489  -14.1156   19.8484 C   0  0  2  0  0  0  0  0  0  0  0  0
    8.9585  -13.2714   20.6163 C   0  0  0  0  0  0  0  0  0  0  0  0
    8.3704  -15.5533   19.7179 C   0  0  2  0  0  0  0  0  0  0  0  0
    7.2410  -16.2194   19.0382 N   0  0  0  0  0  0  0  0  0  0  0  0
    8.5714  -16.2621   20.9908 C   0  0  0  0  0  0  0  0  0  0  0  0
    7.5454  -16.5766   21.6770 O   0  0  0  0  0  0  0  0  0  0  0  0
   12.0469  -21.0621   27.5982 O   0  0  0  0  0  0  0  0  0  0  0  0
   11.7962  -20.3739   26.4075 C   0  0  0  0  0  0  0  0  0  0  0  0
   12.7394  -19.5259   25.8628 C   0  0  0  0  0  0  0  0  0  0  0  0
   12.4722  -18.8523   24.6807 C   0  0  0  0  0  0  0  0  0  0  0  0
   11.2733  -19.0063   24.0222 C   0  0  0  0  0  0  0  0  0  0  0  0
   10.9805  -18.2892   22.7946 C   0  0  0  0  0  0  0  0  0  0  0  0
    9.9245  -17.2133   22.8943 C   0  0  2  0  0  0  0  0  0  0  0  0
    9.8059  -16.6515   21.5605 N   0  0  0  0  0  0  0  0  0  0  0  0
   10.3189  -16.2506   23.9283 C   0  0  0  0  0  0  0  0  0  0  0  0
   11.2562  -16.5967   24.6987 O   0  0  0  0  0  0  0  0  0  0  0  0
   10.3478  -19.8540   24.5801 C   0  0  0  0  0  0  0  0  0  0  0  0
   10.5951  -20.5344   25.7571 C   0  0  0  0  0  0  0  0  0  0  0  0
    7.2653  -10.8980   26.8811 C   0  0  0  0  0  0  0  0  0  0  0  0
    6.1854  -12.3162   26.5883 S   0  0  0  0  0  0  0  0  0  0  0  0
    7.2230  -13.8277   26.6915 C   0  0  0  0  0  0  0  0  0  0  0  0
    7.7411  -14.1879   25.3172 C   0  0  0  0  0  0  0  0  0  0  0  0
    9.1678  -14.6522   25.4252 C   0  0  2  0  0  0  0  0  0  0  0  0
    9.7461  -14.9931   24.1329 N   0  0  0  0  0  0  0  0  0  0  0  0
    9.2297  -15.8891   26.3101 C   0  0  0  0  0  0  0  0  0  0  0  0
   10.0980  -16.0057   27.2091 O   0  0  0  0  0  0  0  0  0  0  0  0
    8.3286  -16.9319   26.1547 O   0  0  0  0  0  0  0  0  0  0  0  0
  2  1  1  0
  3  2  1  0
  3  4  1  6
  5  6  1  6
  5  3  1  0
  7  5  1  0
  7  8  2  0
  9 10  1  0
 10 11  2  0
 11 12  1  0
 13 12  2  0
 13 14  1  0
 15 14  1  6
 15 16  1  0
 15 17  1  0
 16  7  1  0
 17 26  1  0
 18 17  2  0
 19 13  1  0
 20 10  1  0
 20 19  2  0
 21 22  1  0
 22 23  1  0
 23 24  1  0
 25 24  1  6
 25 27  1  0
 26 25  1  0
 27 28  2  0
 27 29  1  0
M  END
$$$$
