IYM.pdb
     RDKit          3D

 29 29  0  0  1  0  0  0  0  0999 V2000
    7.1501  -12.2738   18.9786 C   0  0  0  0  0  0  0  0  0  0  0  0
    8.0645  -13.4451   18.9929 C   0  0  0  0  0  0  0  0  0  0  0  0
    8.1437  -14.1885   20.3063 C   0  0  2  0  0  0  0  0  0  0  0  0
    8.6219  -13.2160   21.3773 C   0  0  0  0  0  0  0  0  0  0  0  0
    9.0121  -15.4117   20.1997 C   0  0  2  0  0  0  0  0  0  0  0  0
    8.3553  -16.2556   19.1810 N   0  0  0  0  0  0  0  0  0  0  0  0
    9.0999  -16.2225   21.4235 C   0  0  0  0  0  0  0  0  0  0  0  0
    8.0787  -16.8964   21.7777 O   0  0  0  0  0  0  0  0  0  0  0  0
   15.1816  -17.6503   19.5833 O   0  0  0  0  0  0  0  0  0  0  0  0
   14.2052  -17.7384   20.5800 C   0  0  0  0  0  0  0  0  0  0  0  0
   14.3892  -17.1435   21.8118 C   0  0  0  0  0  0  0  0  0  0  0  0
   13.4090  -17.2418   22.7875 C   0  0  0  0  0  0  0  0  0  0  0  0
   12.2369  -17.9271   22.5608 C   0  0  0  0  0  0  0  0  0  0  0  0
   11.2154  -18.0496   23.5847 C   0  0  0  0  0  0  0  0  0  0  0  0
   10.1516  -16.9767   23.5878 C   0  0  2  0  0  0  0  0  0  0  0  0
   10.2186  -16.3504   22.2794 N   0  0  0  0  0  0  0  0  0  0  0  0
   10.3938  -16.0666   24.7124 C   0  0  0  0  0  0  0  0  0  0  0  0
   11.5979  -15.8639   25.0300 O   0  0  0  0  0  0  0  0  0  0  0  0
   12.0728  -18.5123   21.3292 C   0  0  0  0  0  0  0  0  0  0  0  0
   13.0376  -18.4256   20.3437 C   0  0  0  0  0  0  0  0  0  0  0  0
    5.8493  -12.3091   27.4914 C   0  0  0  0  0  0  0  0  0  0  0  0
    7.0623  -12.2153   26.1562 S   0  0  0  0  0  0  0  0  0  0  0  0
    8.6840  -12.7260   26.8500 C   0  0  0  0  0  0  0  0  0  0  0  0
    8.5869  -14.1328   27.3962 C   0  0  0  0  0  0  0  0  0  0  0  0
    9.6928  -14.9725   26.8176 C   0  0  2  0  0  0  0  0  0  0  0  0
    9.4105  -15.4124   25.4584 N   0  0  0  0  0  0  0  0  0  0  0  0
    9.8912  -16.2097   27.6817 C   0  0  0  0  0  0  0  0  0  0  0  0
    9.1316  -17.2040   27.5821 O   0  0  0  0  0  0  0  0  0  0  0  0
   10.9188  -16.2827   28.6102 O   0  0  0  0  0  0  0  0  0  0  0  0
  2  1  1  0
  3  2  1  0
  3  4  1  1
  5  6  1  6
  5  3  1  0
  7  5  1  0
  7  8  2  0
  9 10  1  0
 10 11  2  0
 11 12  1  0
 13 12  2  0
 13 14  1  0
 15 14  1  6
 15 16  1  0
 15 17  1  0
 16  7  1  0
 17 26  1  0
 18 17  2  0
 19 13  1  0
 20 10  1  0
 20 19  2  0
 21 22  1  0
 22 23  1  0
 23 24  1  0
 25 24  1  1
 25 27  1  0
 26 25  1  0
 27 28  2  0
 27 29  1  0
M  END
$$$$
