IYM.pdb
     RDKit          3D

 29 29  0  0  1  0  0  0  0  0999 V2000
    6.6591  -23.2790   26.3188 C   0  0  0  0  0  0  0  0  0  0  0  0
    5.9881  -22.4128   25.3149 C   0  0  0  0  0  0  0  0  0  0  0  0
    6.8003  -21.2335   24.8316 C   0  0  2  0  0  0  0  0  0  0  0  0
    7.1588  -20.3742   26.0376 C   0  0  0  0  0  0  0  0  0  0  0  0
    6.0770  -20.4634   23.7613 C   0  0  2  0  0  0  0  0  0  0  0  0
    5.8994  -21.4263   22.6556 N   0  0  0  0  0  0  0  0  0  0  0  0
    6.8177  -19.3200   23.2074 C   0  0  0  0  0  0  0  0  0  0  0  0
    7.8936  -19.5494   22.5652 O   0  0  0  0  0  0  0  0  0  0  0  0
    8.6980  -11.6512   19.3419 O   0  0  0  0  0  0  0  0  0  0  0  0
    8.1244  -12.6518   20.1318 C   0  0  0  0  0  0  0  0  0  0  0  0
    7.7559  -12.4039   21.4387 C   0  0  0  0  0  0  0  0  0  0  0  0
    7.1881  -13.4093   22.2062 C   0  0  0  0  0  0  0  0  0  0  0  0
    6.9769  -14.6699   21.6952 C   0  0  0  0  0  0  0  0  0  0  0  0
    6.4004  -15.7317   22.4997 C   0  0  0  0  0  0  0  0  0  0  0  0
    7.3247  -16.8770   22.8416 C   0  0  2  0  0  0  0  0  0  0  0  0
    6.4659  -17.9534   23.3025 N   0  0  0  0  0  0  0  0  0  0  0  0
    8.3097  -16.4186   23.8271 C   0  0  0  0  0  0  0  0  0  0  0  0
    7.9109  -16.3057   25.0188 O   0  0  0  0  0  0  0  0  0  0  0  0
    7.3504  -14.8969   20.3932 C   0  0  0  0  0  0  0  0  0  0  0  0
    7.9176  -13.9082   19.6120 C   0  0  0  0  0  0  0  0  0  0  0  0
    9.8571  -13.0839   28.4681 C   0  0  0  0  0  0  0  0  0  0  0  0
    8.4948  -14.0343   27.7580 S   0  0  0  0  0  0  0  0  0  0  0  0
    8.9386  -14.4146   26.0172 C   0  0  0  0  0  0  0  0  0  0  0  0
    9.8333  -15.6329   25.9714 C   0  0  0  0  0  0  0  0  0  0  0  0
   10.5308  -15.6928   24.6400 C   0  0  2  0  0  0  0  0  0  0  0  0
    9.6420  -16.0955   23.5589 N   0  0  0  0  0  0  0  0  0  0  0  0
   11.6704  -16.6991   24.7127 C   0  0  0  0  0  0  0  0  0  0  0  0
   11.6326  -17.7757   24.0685 O   0  0  0  0  0  0  0  0  0  0  0  0
   12.7918  -16.4622   25.4937 O   0  0  0  0  0  0  0  0  0  0  0  0
  2  1  1  0
  3  2  1  0
  3  4  1  1
  5  6  1  6
  5  3  1  0
  7  5  1  0
  7  8  2  0
  9 10  1  0
 10 11  2  0
 11 12  1  0
 13 12  2  0
 13 14  1  0
 15 14  1  1
 15 16  1  0
 15 17  1  0
 16  7  1  0
 17 26  1  0
 18 17  2  0
 19 13  1  0
 20 10  1  0
 20 19  2  0
 21 22  1  0
 22 23  1  0
 23 24  1  0
 25 24  1  1
 25 27  1  0
 26 25  1  0
 27 28  2  0
 27 29  1  0
M  END
$$$$
