IYM.pdb
     RDKit          3D

 29 29  0  0  1  0  0  0  0  0999 V2000
    9.8806  -17.1779   16.6711 C   0  0  0  0  0  0  0  0  0  0  0  0
    9.6174  -17.2915   18.1293 C   0  0  0  0  0  0  0  0  0  0  0  0
   10.7429  -17.8833   18.9460 C   0  0  2  0  0  0  0  0  0  0  0  0
   11.1253  -19.2239   18.3312 C   0  0  0  0  0  0  0  0  0  0  0  0
   10.3750  -17.9924   20.4000 C   0  0  2  0  0  0  0  0  0  0  0  0
    9.1289  -18.7850   20.4175 N   0  0  0  0  0  0  0  0  0  0  0  0
   10.0699  -16.7157   21.0634 C   0  0  0  0  0  0  0  0  0  0  0  0
   11.0215  -15.8913   21.2565 O   0  0  0  0  0  0  0  0  0  0  0  0
    7.8956  -13.4095   16.0666 O   0  0  0  0  0  0  0  0  0  0  0  0
    7.7809  -13.6325   17.4419 C   0  0  0  0  0  0  0  0  0  0  0  0
    8.2737  -12.7218   18.3547 C   0  0  0  0  0  0  0  0  0  0  0  0
    8.1500  -12.9606   19.7149 C   0  0  0  0  0  0  0  0  0  0  0  0
    7.5398  -14.0988   20.1911 C   0  0  0  0  0  0  0  0  0  0  0  0
    7.4244  -14.3635   21.6136 C   0  0  0  0  0  0  0  0  0  0  0  0
    8.6116  -15.0406   22.2577 C   0  0  2  0  0  0  0  0  0  0  0  0
    8.8062  -16.2786   21.5242 N   0  0  0  0  0  0  0  0  0  0  0  0
    8.3436  -15.2158   23.6891 C   0  0  0  0  0  0  0  0  0  0  0  0
    7.2778  -15.8163   23.9981 O   0  0  0  0  0  0  0  0  0  0  0  0
    7.0563  -14.9928   19.2673 C   0  0  0  0  0  0  0  0  0  0  0  0
    7.1696  -14.7729   17.9078 C   0  0  0  0  0  0  0  0  0  0  0  0
    6.9583  -10.9071   27.4104 C   0  0  0  0  0  0  0  0  0  0  0  0
    7.4398  -12.2707   26.3278 S   0  0  0  0  0  0  0  0  0  0  0  0
    6.7591  -13.8145   27.0525 C   0  0  0  0  0  0  0  0  0  0  0  0
    7.2433  -15.0085   26.2608 C   0  0  0  0  0  0  0  0  0  0  0  0
    8.7390  -14.9405   26.1157 C   0  0  2  0  0  0  0  0  0  0  0  0
    9.1613  -14.7741   24.7320 N   0  0  0  0  0  0  0  0  0  0  0  0
    9.3559  -16.2273   26.6451 C   0  0  0  0  0  0  0  0  0  0  0  0
    9.5173  -17.2271   25.9035 O   0  0  0  0  0  0  0  0  0  0  0  0
    9.7619  -16.3412   27.9664 O   0  0  0  0  0  0  0  0  0  0  0  0
  2  1  1  0
  3  2  1  0
  3  4  1  6
  5  6  1  6
  5  3  1  0
  7  5  1  0
  7  8  2  0
  9 10  1  0
 10 11  2  0
 11 12  1  0
 13 12  2  0
 13 14  1  0
 15 14  1  6
 15 16  1  0
 15 17  1  0
 16  7  1  0
 17 26  1  0
 18 17  2  0
 19 13  1  0
 20 10  1  0
 20 19  2  0
 21 22  1  0
 22 23  1  0
 23 24  1  0
 25 24  1  6
 25 27  1  0
 26 25  1  0
 27 28  2  0
 27 29  1  0
M  END
$$$$
