IYM.pdb
     RDKit          3D

 29 29  0  0  1  0  0  0  0  0999 V2000
    8.3127  -14.2924   15.2229 C   0  0  0  0  0  0  0  0  0  0  0  0
    8.7969  -15.0561   16.4022 C   0  0  0  0  0  0  0  0  0  0  0  0
    8.4840  -14.4391   17.7459 C   0  0  2  0  0  0  0  0  0  0  0  0
    9.1861  -13.0893   17.8266 C   0  0  0  0  0  0  0  0  0  0  0  0
    8.8545  -15.3576   18.8776 C   0  0  2  0  0  0  0  0  0  0  0  0
    8.0937  -16.5978   18.6240 N   0  0  0  0  0  0  0  0  0  0  0  0
    8.4605  -14.8894   20.2149 C   0  0  0  0  0  0  0  0  0  0  0  0
    7.8435  -13.7791   20.3101 O   0  0  0  0  0  0  0  0  0  0  0  0
    5.9147  -12.2243   27.9243 O   0  0  0  0  0  0  0  0  0  0  0  0
    6.2473  -12.9677   26.7880 C   0  0  0  0  0  0  0  0  0  0  0  0
    6.1361  -14.3435   26.7793 C   0  0  0  0  0  0  0  0  0  0  0  0
    6.4706  -15.0633   25.6425 C   0  0  0  0  0  0  0  0  0  0  0  0
    6.9183  -14.4362   24.5019 C   0  0  0  0  0  0  0  0  0  0  0  0
    7.2880  -15.1857   23.3151 C   0  0  0  0  0  0  0  0  0  0  0  0
    8.6444  -14.8687   22.7298 C   0  0  2  0  0  0  0  0  0  0  0  0
    8.6889  -15.5464   21.4464 N   0  0  0  0  0  0  0  0  0  0  0  0
    9.6834  -15.2874   23.6767 C   0  0  0  0  0  0  0  0  0  0  0  0
   10.5986  -14.4539   23.9209 O   0  0  0  0  0  0  0  0  0  0  0  0
    7.0223  -13.0670   24.5304 C   0  0  0  0  0  0  0  0  0  0  0  0
    6.6938  -12.3317   25.6533 C   0  0  0  0  0  0  0  0  0  0  0  0
   10.2226  -14.4609   29.4675 C   0  0  0  0  0  0  0  0  0  0  0  0
   10.3351  -13.5423   27.9161 S   0  0  0  0  0  0  0  0  0  0  0  0
   11.0853  -14.6609   26.6681 C   0  0  0  0  0  0  0  0  0  0  0  0
   10.3447  -15.9793   26.6514 C   0  0  0  0  0  0  0  0  0  0  0  0
   10.7010  -16.7386   25.4027 C   0  0  2  0  0  0  0  0  0  0  0  0
    9.7466  -16.5237   24.3240 N   0  0  0  0  0  0  0  0  0  0  0  0
   10.7356  -18.2286   25.7113 C   0  0  0  0  0  0  0  0  0  0  0  0
   11.7357  -18.7600   26.2526 O   0  0  0  0  0  0  0  0  0  0  0  0
    9.6628  -19.0527   25.4054 O   0  0  0  0  0  0  0  0  0  0  0  0
  2  1  1  0
  3  2  1  0
  3  4  1  1
  5  6  1  6
  5  3  1  0
  7  5  1  0
  7  8  2  0
  9 10  1  0
 10 11  2  0
 11 12  1  0
 13 12  2  0
 13 14  1  0
 15 14  1  1
 15 16  1  0
 15 17  1  0
 16  7  1  0
 17 26  1  0
 18 17  2  0
 19 13  1  0
 20 10  1  0
 20 19  2  0
 21 22  1  0
 22 23  1  0
 23 24  1  0
 25 24  1  1
 25 27  1  0
 26 25  1  0
 27 28  2  0
 27 29  1  0
M  END
$$$$
