IYM.pdb
     RDKit          3D

 29 29  0  0  1  0  0  0  0  0999 V2000
    5.9507  -11.9326   19.3536 C   0  0  0  0  0  0  0  0  0  0  0  0
    7.1565  -12.6399   18.8496 C   0  0  0  0  0  0  0  0  0  0  0  0
    7.8740  -13.4998   19.8643 C   0  0  2  0  0  0  0  0  0  0  0  0
    8.2429  -12.6249   21.0559 C   0  0  0  0  0  0  0  0  0  0  0  0
    9.0633  -14.1946   19.2607 C   0  0  2  0  0  0  0  0  0  0  0  0
    8.5007  -15.0629   18.2068 N   0  0  0  0  0  0  0  0  0  0  0  0
    9.8037  -15.0738   20.1781 C   0  0  0  0  0  0  0  0  0  0  0  0
    9.3339  -16.2336   20.4162 O   0  0  0  0  0  0  0  0  0  0  0  0
   15.6415  -15.5230   16.7904 O   0  0  0  0  0  0  0  0  0  0  0  0
   15.0044  -15.4673   18.0336 C   0  0  0  0  0  0  0  0  0  0  0  0
   14.5691  -14.2669   18.5577 C   0  0  0  0  0  0  0  0  0  0  0  0
   13.9390  -14.2321   19.7922 C   0  0  0  0  0  0  0  0  0  0  0  0
   13.7307  -15.3790   20.5242 C   0  0  0  0  0  0  0  0  0  0  0  0
   13.0888  -15.3466   21.8257 C   0  0  0  0  0  0  0  0  0  0  0  0
   11.6094  -15.6535   21.8401 C   0  0  2  0  0  0  0  0  0  0  0  0
   11.0147  -14.7778   20.8462 N   0  0  0  0  0  0  0  0  0  0  0  0
   11.0959  -15.4680   23.2015 C   0  0  0  0  0  0  0  0  0  0  0  0
   11.7367  -14.6775   23.9475 O   0  0  0  0  0  0  0  0  0  0  0  0
   14.1712  -16.5634   19.9860 C   0  0  0  0  0  0  0  0  0  0  0  0
   14.8011  -16.6189   18.7573 C   0  0  0  0  0  0  0  0  0  0  0  0
    6.1792  -12.9050   25.4134 C   0  0  0  0  0  0  0  0  0  0  0  0
    7.1103  -13.2061   26.9318 S   0  0  0  0  0  0  0  0  0  0  0  0
    8.0346  -14.7768   26.7074 C   0  0  0  0  0  0  0  0  0  0  0  0
    8.3743  -14.9667   25.2461 C   0  0  0  0  0  0  0  0  0  0  0  0
    9.5862  -15.8494   25.1239 C   0  0  2  0  0  0  0  0  0  0  0  0
    9.9670  -16.0907   23.7392 N   0  0  0  0  0  0  0  0  0  0  0  0
    9.2975  -17.1948   25.7744 C   0  0  0  0  0  0  0  0  0  0  0  0
    8.9995  -17.2812   26.9907 O   0  0  0  0  0  0  0  0  0  0  0  0
    9.3535  -18.3739   25.0462 O   0  0  0  0  0  0  0  0  0  0  0  0
  2  1  1  0
  3  2  1  0
  3  4  1  1
  5  6  1  6
  5  3  1  0
  7  5  1  0
  7  8  2  0
  9 10  1  0
 10 11  2  0
 11 12  1  0
 13 12  2  0
 13 14  1  0
 15 14  1  1
 15 16  1  0
 15 17  1  0
 16  7  1  0
 17 26  1  0
 18 17  2  0
 19 13  1  0
 20 10  1  0
 20 19  2  0
 21 22  1  0
 22 23  1  0
 23 24  1  0
 25 24  1  6
 25 27  1  0
 26 25  1  0
 27 28  2  0
 27 29  1  0
M  END
$$$$
