IYM.pdb
     RDKit          3D

 29 29  0  0  1  0  0  0  0  0999 V2000
    8.0498  -12.2159   19.5177 C   0  0  0  0  0  0  0  0  0  0  0  0
    7.8217  -13.6780   19.6539 C   0  0  0  0  0  0  0  0  0  0  0  0
    7.6075  -14.1709   21.0664 C   0  0  2  0  0  0  0  0  0  0  0  0
    8.8141  -13.7630   21.9025 C   0  0  0  0  0  0  0  0  0  0  0  0
    7.3461  -15.6514   21.1034 C   0  0  2  0  0  0  0  0  0  0  0  0
    6.1013  -15.8362   20.3303 N   0  0  0  0  0  0  0  0  0  0  0  0
    7.0954  -16.2070   22.4418 C   0  0  0  0  0  0  0  0  0  0  0  0
    6.0284  -15.8662   23.0485 O   0  0  0  0  0  0  0  0  0  0  0  0
    7.9810  -21.0922   29.8639 O   0  0  0  0  0  0  0  0  0  0  0  0
    8.0503  -20.5549   28.5751 C   0  0  0  0  0  0  0  0  0  0  0  0
    9.2662  -20.2766   27.9839 C   0  0  0  0  0  0  0  0  0  0  0  0
    9.3144  -19.7441   26.7047 C   0  0  0  0  0  0  0  0  0  0  0  0
    8.1658  -19.4797   25.9937 C   0  0  0  0  0  0  0  0  0  0  0  0
    8.2094  -18.9045   24.6617 C   0  0  0  0  0  0  0  0  0  0  0  0
    7.6628  -17.5022   24.5298 C   0  0  2  0  0  0  0  0  0  0  0  0
    7.9213  -17.1049   23.1572 N   0  0  0  0  0  0  0  0  0  0  0  0
    8.2926  -16.6464   25.5410 C   0  0  0  0  0  0  0  0  0  0  0  0
    7.9399  -16.8284   26.7386 O   0  0  0  0  0  0  0  0  0  0  0  0
    6.9660  -19.7631   26.5990 C   0  0  0  0  0  0  0  0  0  0  0  0
    6.8969  -20.2941   27.8729 C   0  0  0  0  0  0  0  0  0  0  0  0
    5.7656  -11.8964   26.0086 C   0  0  0  0  0  0  0  0  0  0  0  0
    7.0559  -11.7111   27.2592 S   0  0  0  0  0  0  0  0  0  0  0  0
    8.5557  -12.5650   26.6321 C   0  0  0  0  0  0  0  0  0  0  0  0
    8.4982  -14.0323   26.9934 C   0  0  0  0  0  0  0  0  0  0  0  0
    9.6567  -14.7508   26.3574 C   0  0  2  0  0  0  0  0  0  0  0  0
    9.2411  -15.6517   25.2913 N   0  0  0  0  0  0  0  0  0  0  0  0
   10.3810  -15.5732   27.4136 C   0  0  0  0  0  0  0  0  0  0  0  0
   11.3205  -15.0865   28.0889 O   0  0  0  0  0  0  0  0  0  0  0  0
   10.0286  -16.8904   27.6678 O   0  0  0  0  0  0  0  0  0  0  0  0
  2  1  1  0
  3  2  1  0
  3  4  1  1
  5  6  1  6
  5  3  1  0
  7  5  1  0
  7  8  2  0
  9 10  1  0
 10 11  2  0
 11 12  1  0
 13 12  2  0
 13 14  1  0
 15 14  1  6
 15 16  1  0
 15 17  1  0
 16  7  1  0
 17 26  1  0
 18 17  2  0
 19 13  1  0
 20 10  1  0
 20 19  2  0
 21 22  1  0
 22 23  1  0
 23 24  1  0
 25 24  1  1
 25 27  1  0
 26 25  1  0
 27 28  2  0
 27 29  1  0
M  END
$$$$
