GLL.pdb
     RDKit          3D

 21 20  0  0  1  0  0  0  0  0999 V2000
    9.5176  -16.9565   19.6691 N   0  0  0  0  0  0  0  0  0  0  0  0
    8.6331  -17.0786   20.7926 C   0  0  0  0  0  0  0  0  0  0  0  0
    9.0252  -16.1773   21.9012 C   0  0  0  0  0  0  0  0  0  0  0  0
   10.1798  -15.7432   22.0639 O   0  0  0  0  0  0  0  0  0  0  0  0
    5.7627  -13.2654   26.3257 C   0  0  0  0  0  0  0  0  0  0  0  0
    7.1763  -13.5181   25.7357 C   0  0  2  0  0  0  0  0  0  0  0  0
    7.6576  -12.1564   25.2927 C   0  0  0  0  0  0  0  0  0  0  0  0
    7.0159  -14.4578   24.5944 C   0  0  0  0  0  0  0  0  0  0  0  0
    8.2593  -15.0045   23.9824 C   0  0  2  0  0  0  0  0  0  0  0  0
    7.9969  -15.7945   22.8314 N   0  0  0  0  0  0  0  0  0  0  0  0
    8.9016  -15.8514   25.0670 C   0  0  0  0  0  0  0  0  0  0  0  0
    8.6991  -17.0941   25.0351 O   0  0  0  0  0  0  0  0  0  0  0  0
   10.8666  -14.3296   30.1490 C   0  0  0  0  0  0  0  0  0  0  0  0
   10.1980  -14.7946   28.8496 C   0  0  1  0  0  0  0  0  0  0  0  0
    9.5716  -13.5761   28.1566 C   0  0  0  0  0  0  0  0  0  0  0  0
   11.2270  -15.4353   27.9669 C   0  0  0  0  0  0  0  0  0  0  0  0
   10.5938  -16.1643   26.8422 C   0  0  2  0  0  0  0  0  0  0  0  0
    9.6936  -15.2945   26.0754 N   0  0  0  0  0  0  0  0  0  0  0  0
    9.8490  -17.3446   27.3062 C   0  0  0  0  0  0  0  0  0  0  0  0
    8.6048  -17.4960   27.2324 O   0  0  0  0  0  0  0  0  0  0  0  0
   10.5866  -18.3935   27.8807 O   0  0  0  0  0  0  0  0  0  0  0  0
  2  1  1  0
  3  2  1  0
  4  3  2  0
  6  5  1  6
  6  7  1  0
  6  8  1  0
  9  8  1  1
  9 10  1  0
  9 11  1  0
 10  3  1  0
 11 18  1  0
 12 11  2  0
 14 13  1  1
 14 15  1  0
 16 14  1  0
 17 19  1  0
 17 16  1  1
 18 17  1  0
 19 21  1  0
 20 19  2  0
M  END
$$$$
