GLL.pdb
     RDKit          3D

 21 20  0  0  1  0  0  0  0  0999 V2000
    5.6252  -20.0320   22.7452 N   0  0  0  0  0  0  0  0  0  0  0  0
    5.4899  -18.6198   22.9613 C   0  0  0  0  0  0  0  0  0  0  0  0
    6.6949  -17.8786   22.5209 C   0  0  0  0  0  0  0  0  0  0  0  0
    7.8052  -18.4099   22.3387 O   0  0  0  0  0  0  0  0  0  0  0  0
    7.7722  -12.0082   20.8726 C   0  0  0  0  0  0  0  0  0  0  0  0
    8.2782  -13.4723   20.7706 C   0  0  2  0  0  0  0  0  0  0  0  0
    8.4874  -13.7052   19.2928 C   0  0  0  0  0  0  0  0  0  0  0  0
    7.2151  -14.3462   21.3340 C   0  0  0  0  0  0  0  0  0  0  0  0
    7.6474  -15.6261   21.9620 C   0  0  2  0  0  0  0  0  0  0  0  0
    6.5512  -16.4650   22.2969 N   0  0  0  0  0  0  0  0  0  0  0  0
    8.4038  -15.2227   23.2155 C   0  0  0  0  0  0  0  0  0  0  0  0
    9.6040  -14.8641   23.0841 O   0  0  0  0  0  0  0  0  0  0  0  0
    5.9194  -12.5751   26.9361 C   0  0  0  0  0  0  0  0  0  0  0  0
    7.1025  -12.9748   26.0460 C   0  0  1  0  0  0  0  0  0  0  0  0
    8.0505  -11.7735   25.9210 C   0  0  0  0  0  0  0  0  0  0  0  0
    7.8092  -14.1457   26.6607 C   0  0  0  0  0  0  0  0  0  0  0  0
    8.6148  -14.8780   25.6547 C   0  0  2  0  0  0  0  0  0  0  0  0
    7.8107  -15.2405   24.4812 N   0  0  0  0  0  0  0  0  0  0  0  0
    9.2227  -16.0922   26.2197 C   0  0  0  0  0  0  0  0  0  0  0  0
    9.0161  -17.2642   25.8195 O   0  0  0  0  0  0  0  0  0  0  0  0
   10.1097  -15.9330   27.2979 O   0  0  0  0  0  0  0  0  0  0  0  0
  2  1  1  0
  3  2  1  0
  4  3  2  0
  6  5  1  6
  6  7  1  0
  6  8  1  0
  9  8  1  1
  9 10  1  0
  9 11  1  0
 10  3  1  0
 11 18  1  0
 12 11  2  0
 14 13  1  1
 14 15  1  0
 16 14  1  0
 17 19  1  0
 17 16  1  1
 18 17  1  0
 19 21  1  0
 20 19  2  0
M  END
$$$$
