GLL.pdb
     RDKit          3D

 21 20  0  0  1  0  0  0  0  0999 V2000
    5.3279  -19.4638   22.1006 N   0  0  0  0  0  0  0  0  0  0  0  0
    5.3103  -18.0720   22.4497 C   0  0  0  0  0  0  0  0  0  0  0  0
    6.6401  -17.4437   22.2706 C   0  0  0  0  0  0  0  0  0  0  0  0
    7.7057  -18.0839   22.2170 O   0  0  0  0  0  0  0  0  0  0  0  0
    9.2754  -14.0001   19.6050 C   0  0  0  0  0  0  0  0  0  0  0  0
    7.7882  -13.7725   19.9880 C   0  0  2  0  0  0  0  0  0  0  0  0
    7.4842  -12.3650   19.5314 C   0  0  0  0  0  0  0  0  0  0  0  0
    7.6857  -13.9206   21.4641 C   0  0  0  0  0  0  0  0  0  0  0  0
    7.8931  -15.2839   22.0278 C   0  0  2  0  0  0  0  0  0  0  0  0
    6.6790  -16.0105   22.1542 N   0  0  0  0  0  0  0  0  0  0  0  0
    8.5188  -15.0625   23.3937 C   0  0  0  0  0  0  0  0  0  0  0  0
    9.7074  -14.6478   23.4320 O   0  0  0  0  0  0  0  0  0  0  0  0
    5.7938  -12.3995   26.8306 C   0  0  0  0  0  0  0  0  0  0  0  0
    7.0319  -12.9234   26.0928 C   0  0  1  0  0  0  0  0  0  0  0  0
    8.1368  -11.8602   26.1719 C   0  0  0  0  0  0  0  0  0  0  0  0
    7.4818  -14.2035   26.7310 C   0  0  0  0  0  0  0  0  0  0  0  0
    8.4349  -14.9335   25.8614 C   0  0  2  0  0  0  0  0  0  0  0  0
    7.8204  -15.3035   24.5805 N   0  0  0  0  0  0  0  0  0  0  0  0
    8.9565  -16.1427   26.5162 C   0  0  0  0  0  0  0  0  0  0  0  0
    9.5528  -16.1732   27.6207 O   0  0  0  0  0  0  0  0  0  0  0  0
    8.7750  -17.3690   25.8547 O   0  0  0  0  0  0  0  0  0  0  0  0
  2  1  1  0
  3  2  1  0
  4  3  2  0
  6  5  1  1
  6  7  1  0
  6  8  1  0
  9  8  1  1
  9 10  1  0
  9 11  1  0
 10  3  1  0
 11 18  1  0
 12 11  2  0
 14 13  1  1
 14 15  1  0
 16 14  1  0
 17 19  1  0
 17 16  1  1
 18 17  1  0
 19 21  1  0
 20 19  2  0
M  END
$$$$
