GLL.pdb
     RDKit          3D

 21 20  0  0  1  0  0  0  0  0999 V2000
    5.6429  -19.2624   21.6360 N   0  0  0  0  0  0  0  0  0  0  0  0
    5.6077  -17.8552   21.9152 C   0  0  0  0  0  0  0  0  0  0  0  0
    6.9594  -17.2506   21.8627 C   0  0  0  0  0  0  0  0  0  0  0  0
    8.0036  -17.9056   21.6926 O   0  0  0  0  0  0  0  0  0  0  0  0
    8.5244  -13.9646   19.1031 C   0  0  0  0  0  0  0  0  0  0  0  0
    7.4983  -13.5597   20.1954 C   0  0  2  0  0  0  0  0  0  0  0  0
    7.1789  -12.1119   19.9058 C   0  0  0  0  0  0  0  0  0  0  0  0
    8.1643  -13.7371   21.5131 C   0  0  0  0  0  0  0  0  0  0  0  0
    8.2856  -15.1280   22.0330 C   0  0  2  0  0  0  0  0  0  0  0  0
    7.0471  -15.8235   22.0196 N   0  0  0  0  0  0  0  0  0  0  0  0
    8.7916  -14.9813   23.4573 C   0  0  0  0  0  0  0  0  0  0  0  0
    9.9925  -14.6378   23.6186 O   0  0  0  0  0  0  0  0  0  0  0  0
    6.3988  -12.0272   26.8164 C   0  0  0  0  0  0  0  0  0  0  0  0
    7.5196  -12.7953   26.1055 C   0  0  1  0  0  0  0  0  0  0  0  0
    8.8212  -11.9902   26.2288 C   0  0  0  0  0  0  0  0  0  0  0  0
    7.6704  -14.1464   26.7382 C   0  0  0  0  0  0  0  0  0  0  0  0
    8.5245  -15.0351   25.9147 C   0  0  2  0  0  0  0  0  0  0  0  0
    7.9727  -15.2139   24.5661 N   0  0  0  0  0  0  0  0  0  0  0  0
    8.7076  -16.3525   26.5422 C   0  0  0  0  0  0  0  0  0  0  0  0
    9.1668  -16.5534   27.6934 O   0  0  0  0  0  0  0  0  0  0  0  0
    8.3393  -17.4844   25.7955 O   0  0  0  0  0  0  0  0  0  0  0  0
  2  1  1  0
  3  2  1  0
  4  3  2  0
  6  5  1  6
  6  7  1  0
  6  8  1  0
  9  8  1  1
  9 10  1  0
  9 11  1  0
 10  3  1  0
 11 18  1  0
 12 11  2  0
 14 13  1  1
 14 15  1  0
 16 14  1  0
 17 19  1  0
 17 16  1  1
 18 17  1  0
 19 21  1  0
 20 19  2  0
M  END
$$$$
