GLL.pdb
     RDKit          3D

 21 20  0  0  1  0  0  0  0  0999 V2000
    6.1751  -19.8298   23.2546 N   0  0  0  0  0  0  0  0  0  0  0  0
    6.2468  -18.9812   24.4095 C   0  0  0  0  0  0  0  0  0  0  0  0
    6.8548  -17.6684   24.0900 C   0  0  0  0  0  0  0  0  0  0  0  0
    7.6269  -17.4787   23.1328 O   0  0  0  0  0  0  0  0  0  0  0  0
    6.3019  -12.0268   26.6711 C   0  0  0  0  0  0  0  0  0  0  0  0
    7.1953  -12.9383   25.7873 C   0  0  2  0  0  0  0  0  0  0  0  0
    7.2319  -12.2531   24.4415 C   0  0  0  0  0  0  0  0  0  0  0  0
    6.5384  -14.2709   25.7235 C   0  0  0  0  0  0  0  0  0  0  0  0
    7.1976  -15.3159   24.8912 C   0  0  2  0  0  0  0  0  0  0  0  0
    6.5204  -16.5633   24.9478 N   0  0  0  0  0  0  0  0  0  0  0  0
    8.6007  -15.4526   25.4557 C   0  0  0  0  0  0  0  0  0  0  0  0
    9.5284  -14.8315   24.8727 O   0  0  0  0  0  0  0  0  0  0  0  0
   10.0351  -14.3125   30.0543 C   0  0  0  0  0  0  0  0  0  0  0  0
    9.9874  -14.6344   28.5557 C   0  0  1  0  0  0  0  0  0  0  0  0
   10.7922  -13.5681   27.7988 C   0  0  0  0  0  0  0  0  0  0  0  0
   10.5665  -15.9982   28.3251 C   0  0  0  0  0  0  0  0  0  0  0  0
   10.2754  -16.4827   26.9547 C   0  0  2  0  0  0  0  0  0  0  0  0
    8.8777  -16.2341   26.5812 N   0  0  0  0  0  0  0  0  0  0  0  0
   10.5689  -17.9164   26.8080 C   0  0  0  0  0  0  0  0  0  0  0  0
    9.7384  -18.8003   26.4834 O   0  0  0  0  0  0  0  0  0  0  0  0
   11.8874  -18.3375   27.0500 O   0  0  0  0  0  0  0  0  0  0  0  0
  2  1  1  0
  3  2  1  0
  4  3  2  0
  6  5  1  1
  6  7  1  0
  6  8  1  0
  9  8  1  1
  9 10  1  0
  9 11  1  0
 10  3  1  0
 11 18  1  0
 12 11  2  0
 14 13  1  1
 14 15  1  0
 16 14  1  0
 17 19  1  0
 17 16  1  1
 18 17  1  0
 19 21  1  0
 20 19  2  0
M  END
$$$$
