GLL.pdb
     RDKit          3D

 21 20  0  0  1  0  0  0  0  0999 V2000
    7.2096  -20.4230   21.6982 N   0  0  0  0  0  0  0  0  0  0  0  0
    6.7508  -19.1555   22.1906 C   0  0  0  0  0  0  0  0  0  0  0  0
    7.7122  -18.0688   21.8907 C   0  0  0  0  0  0  0  0  0  0  0  0
    8.9475  -18.1986   21.9651 O   0  0  0  0  0  0  0  0  0  0  0  0
    9.2215  -13.1437   20.5922 C   0  0  0  0  0  0  0  0  0  0  0  0
    7.9254  -13.5450   19.8379 C   0  0  2  0  0  0  0  0  0  0  0  0
    7.1664  -12.2509   19.6612 C   0  0  0  0  0  0  0  0  0  0  0  0
    7.1959  -14.5130   20.6995 C   0  0  0  0  0  0  0  0  0  0  0  0
    7.9751  -15.6581   21.2481 C   0  0  2  0  0  0  0  0  0  0  0  0
    7.1654  -16.7994   21.4927 N   0  0  0  0  0  0  0  0  0  0  0  0
    8.5747  -15.1498   22.5475 C   0  0  0  0  0  0  0  0  0  0  0  0
    9.5972  -14.4183   22.4727 O   0  0  0  0  0  0  0  0  0  0  0  0
    8.5405  -11.8172   26.0560 C   0  0  0  0  0  0  0  0  0  0  0  0
    7.4467  -12.8280   26.4216 C   0  0  1  0  0  0  0  0  0  0  0  0
    6.1862  -12.0573   26.8396 C   0  0  0  0  0  0  0  0  0  0  0  0
    7.1650  -13.7010   25.2355 C   0  0  0  0  0  0  0  0  0  0  0  0
    8.3081  -14.5982   24.9428 C   0  0  2  0  0  0  0  0  0  0  0  0
    8.0290  -15.4689   23.7943 N   0  0  0  0  0  0  0  0  0  0  0  0
    8.6640  -15.4269   26.1045 C   0  0  0  0  0  0  0  0  0  0  0  0
    8.9248  -14.9956   27.2544 O   0  0  0  0  0  0  0  0  0  0  0  0
    8.7180  -16.8185   25.9173 O   0  0  0  0  0  0  0  0  0  0  0  0
  2  1  1  0
  3  2  1  0
  4  3  2  0
  6  5  1  1
  6  7  1  0
  6  8  1  0
  9  8  1  1
  9 10  1  0
  9 11  1  0
 10  3  1  0
 11 18  1  0
 12 11  2  0
 14 13  1  6
 14 15  1  0
 16 14  1  0
 17 19  1  0
 17 16  1  1
 18 17  1  0
 19 21  1  0
 20 19  2  0
M  END
$$$$
