KRY.pdb
     RDKit          3D

 33 33  0  0  1  0  0  0  0  0999 V2000
    6.4047  -20.7303   23.4069 N   0  0  0  0  0  0  0  0  0  0  0  0
    6.1563  -19.3463   23.7422 C   0  0  1  0  0  0  0  0  0  0  0  0
    6.2958  -19.0498   25.1896 C   0  0  0  0  0  0  0  0  0  0  0  0
    7.3144  -19.8613   25.9324 C   0  0  0  0  0  0  0  0  0  0  0  0
    7.4336  -19.5438   27.3959 C   0  0  0  0  0  0  0  0  0  0  0  0
    8.6193  -20.3500   27.9598 C   0  0  0  0  0  0  0  0  0  0  0  0
    8.6945  -20.0771   29.3928 N   0  0  0  0  0  0  0  0  0  0  0  0
    7.0068  -18.4601   22.8952 C   0  0  0  0  0  0  0  0  0  0  0  0
    8.1222  -18.8195   22.4520 O   0  0  0  0  0  0  0  0  0  0  0  0
    7.5730  -12.7692   16.0199 N   0  0  0  0  0  0  0  0  0  0  0  0
    8.0472  -13.7288   16.9486 C   0  0  0  0  0  0  0  0  0  0  0  0
    8.6547  -14.8201   16.6182 N   0  0  0  0  0  0  0  0  0  0  0  0
    7.8550  -13.5014   18.3422 N   0  0  0  0  0  0  0  0  0  0  0  0
    7.7745  -14.5342   19.3156 C   0  0  0  0  0  0  0  0  0  0  0  0
    7.5381  -14.0027   20.7242 C   0  0  0  0  0  0  0  0  0  0  0  0
    6.7368  -15.0534   21.4192 C   0  0  0  0  0  0  0  0  0  0  0  0
    7.5267  -16.1601   22.0829 C   0  0  2  0  0  0  0  0  0  0  0  0
    6.5443  -17.1676   22.5767 N   0  0  0  0  0  0  0  0  0  0  0  0
    8.1998  -15.6258   23.2761 C   0  0  0  0  0  0  0  0  0  0  0  0
    7.7164  -14.6270   23.8625 O   0  0  0  0  0  0  0  0  0  0  0  0
    8.9210  -15.4648   17.4171 O   0  0  0  0  0  0  0  0  0  0  0  0
    5.6012  -11.5835   26.6353 C   0  0  0  0  0  0  0  0  0  0  0  0
    6.6718  -12.4540   26.4475 C   0  0  0  0  0  0  0  0  0  0  0  0
    6.5001  -13.7419   25.9910 C   0  0  0  0  0  0  0  0  0  0  0  0
    7.5732  -14.6085   25.8045 C   0  0  0  0  0  0  0  0  0  0  0  0
    8.8622  -14.1925   26.0772 C   0  0  0  0  0  0  0  0  0  0  0  0
    9.9589  -15.1359   25.8737 C   0  0  2  0  0  0  0  0  0  0  0  0
   10.3902  -15.3047   24.4316 N   0  0  0  0  0  0  0  0  0  0  0  0
    9.3844  -16.1743   23.8315 C   0  0  0  0  0  0  0  0  0  0  0  0
   11.7177  -15.9552   24.3959 O   0  0  0  0  0  0  0  0  0  0  0  0
   12.8602  -15.3356   24.8515 C   0  0  0  0  0  0  0  0  0  0  0  0
    9.0449  -12.8994   26.5365 C   0  0  0  0  0  0  0  0  0  0  0  0
    7.9658  -12.0494   26.7168 O   0  0  0  0  0  0  0  0  0  0  0  0
  2  3  1  0
  2  1  1  1
  4  3  1  0
  5  4  1  0
  6  5  1  0
  7  6  1  0
  8  2  1  0
  8  9  2  0
 10 11  1  0
 11 12  2  0
 13 11  1  0
 13 14  1  0
 14 15  1  0
 15 16  1  0
 17 16  1  1
 17 18  1  0
 18  8  1  0
 19 17  1  0
 20 19  2  0
 22 21  1  0
 23 22  2  0
 24 23  1  0
 25 31  1  0
 25 24  2  0
 26 25  1  0
 27 28  1  0
 27 26  1  6
 28 19  1  0
 29 27  1  0
 30 29  1  0
 31 32  2  0
 32 22  1  0
 33 29  2  0
M  END
$$$$
