KRY.pdb
     RDKit          3D

 33 33  0  0  1  0  0  0  0  0999 V2000
    6.9329  -21.1339   22.8643 N   0  0  0  0  0  0  0  0  0  0  0  0
    6.4939  -19.8420   23.3415 C   0  0  1  0  0  0  0  0  0  0  0  0
    6.3361  -19.7735   24.8155 C   0  0  0  0  0  0  0  0  0  0  0  0
    7.3727  -20.4959   25.6224 C   0  0  0  0  0  0  0  0  0  0  0  0
    7.2526  -20.3227   27.1099 C   0  0  0  0  0  0  0  0  0  0  0  0
    8.3297  -21.1998   27.7768 C   0  0  0  0  0  0  0  0  0  0  0  0
    8.1785  -21.0581   29.2227 N   0  0  0  0  0  0  0  0  0  0  0  0
    7.3951  -18.7755   22.8154 C   0  0  0  0  0  0  0  0  0  0  0  0
    8.5370  -19.0211   22.3623 O   0  0  0  0  0  0  0  0  0  0  0  0
    9.6834  -13.2931   18.7516 N   0  0  0  0  0  0  0  0  0  0  0  0
    8.5414  -13.3684   17.9159 C   0  0  0  0  0  0  0  0  0  0  0  0
    8.5274  -13.0171   16.6726 N   0  0  0  0  0  0  0  0  0  0  0  0
    7.3168  -13.8586   18.4550 N   0  0  0  0  0  0  0  0  0  0  0  0
    6.9236  -13.7034   19.8121 C   0  0  0  0  0  0  0  0  0  0  0  0
    7.8878  -14.3681   20.7874 C   0  0  0  0  0  0  0  0  0  0  0  0
    7.1105  -15.4683   21.4315 C   0  0  0  0  0  0  0  0  0  0  0  0
    7.8875  -16.3729   22.3626 C   0  0  2  0  0  0  0  0  0  0  0  0
    6.9517  -17.4379   22.8249 N   0  0  0  0  0  0  0  0  0  0  0  0
    8.2719  -15.6164   23.5634 C   0  0  0  0  0  0  0  0  0  0  0  0
    7.3885  -15.2735   24.3864 O   0  0  0  0  0  0  0  0  0  0  0  0
    7.5981  -13.1160   16.1714 O   0  0  0  0  0  0  0  0  0  0  0  0
    5.4319  -11.1846   27.0147 C   0  0  0  0  0  0  0  0  0  0  0  0
    6.2773  -12.2672   26.7859 C   0  0  0  0  0  0  0  0  0  0  0  0
    5.8157  -13.5641   26.7456 C   0  0  0  0  0  0  0  0  0  0  0  0
    6.6643  -14.6433   26.5163 C   0  0  0  0  0  0  0  0  0  0  0  0
    8.0166  -14.4387   26.3194 C   0  0  0  0  0  0  0  0  0  0  0  0
    8.8727  -15.5996   26.0882 C   0  0  2  0  0  0  0  0  0  0  0  0
   10.0981  -15.3247   25.2416 N   0  0  0  0  0  0  0  0  0  0  0  0
    9.6045  -15.2397   23.8715 C   0  0  0  0  0  0  0  0  0  0  0  0
   11.0437  -16.4536   25.3769 O   0  0  0  0  0  0  0  0  0  0  0  0
   11.3250  -17.3143   24.3392 C   0  0  0  0  0  0  0  0  0  0  0  0
    8.4900  -13.1384   26.3580 C   0  0  0  0  0  0  0  0  0  0  0  0
    7.6317  -12.0754   26.5875 O   0  0  0  0  0  0  0  0  0  0  0  0
  2  3  1  0
  2  1  1  1
  4  3  1  0
  5  4  1  0
  6  5  1  0
  7  6  1  0
  8  2  1  0
  8  9  2  0
 10 11  1  0
 11 12  2  0
 13 11  1  0
 13 14  1  0
 14 15  1  0
 15 16  1  0
 17 16  1  6
 17 18  1  0
 18  8  1  0
 19 17  1  0
 20 19  2  0
 22 21  1  0
 23 22  2  0
 24 23  1  0
 25 31  1  0
 25 24  2  0
 26 25  1  0
 27 28  1  0
 27 26  1  1
 28 19  1  0
 29 27  1  0
 30 29  1  0
 31 32  2  0
 32 22  1  0
 33 29  2  0
M  END
$$$$
