KRY.pdb
     RDKit          3D

 33 33  0  0  1  0  0  0  0  0999 V2000
    6.2540  -20.5762   21.7035 N   0  0  0  0  0  0  0  0  0  0  0  0
    6.0397  -19.3669   22.4658 C   0  0  1  0  0  0  0  0  0  0  0  0
    6.0757  -19.5746   23.9348 C   0  0  0  0  0  0  0  0  0  0  0  0
    5.8551  -20.9806   24.4062 C   0  0  0  0  0  0  0  0  0  0  0  0
    5.9650  -21.1760   25.8916 C   0  0  0  0  0  0  0  0  0  0  0  0
    5.8810  -22.6878   26.1774 C   0  0  0  0  0  0  0  0  0  0  0  0
    5.9296  -22.8645   27.6265 N   0  0  0  0  0  0  0  0  0  0  0  0
    6.9929  -18.3104   22.0170 C   0  0  0  0  0  0  0  0  0  0  0  0
    8.1914  -18.5550   21.7462 O   0  0  0  0  0  0  0  0  0  0  0  0
    7.6905  -13.1683   16.3069 N   0  0  0  0  0  0  0  0  0  0  0  0
    8.2525  -14.2471   17.0339 C   0  0  0  0  0  0  0  0  0  0  0  0
    8.8498  -15.2556   16.4904 N   0  0  0  0  0  0  0  0  0  0  0  0
    8.1676  -14.2456   18.4564 N   0  0  0  0  0  0  0  0  0  0  0  0
    7.4168  -13.3028   19.2100 C   0  0  0  0  0  0  0  0  0  0  0  0
    7.5427  -13.5126   20.7142 C   0  0  0  0  0  0  0  0  0  0  0  0
    6.7471  -14.7396   21.0153 C   0  0  0  0  0  0  0  0  0  0  0  0
    7.5236  -15.9156   21.5660 C   0  0  2  0  0  0  0  0  0  0  0  0
    6.5347  -16.9838   21.8899 N   0  0  0  0  0  0  0  0  0  0  0  0
    8.1435  -15.5311   22.8427 C   0  0  0  0  0  0  0  0  0  0  0  0
    7.4487  -14.9638   23.7205 O   0  0  0  0  0  0  0  0  0  0  0  0
    9.2250  -15.9894   17.1578 O   0  0  0  0  0  0  0  0  0  0  0  0
   10.5488  -14.9889   30.8751 C   0  0  0  0  0  0  0  0  0  0  0  0
   10.2264  -15.2748   29.5509 C   0  0  0  0  0  0  0  0  0  0  0  0
    9.8215  -14.2999   28.6664 C   0  0  0  0  0  0  0  0  0  0  0  0
    9.5005  -14.5901   27.3435 C   0  0  0  0  0  0  0  0  0  0  0  0
    9.5808  -15.8871   26.8740 C   0  0  0  0  0  0  0  0  0  0  0  0
    9.2288  -16.1490   25.4805 C   0  0  2  0  0  0  0  0  0  0  0  0
   10.0346  -15.3653   24.4654 N   0  0  0  0  0  0  0  0  0  0  0  0
    9.5048  -15.7653   23.1663 C   0  0  0  0  0  0  0  0  0  0  0  0
   11.4587  -15.7473   24.5780 O   0  0  0  0  0  0  0  0  0  0  0  0
   12.3601  -15.0353   25.3379 C   0  0  0  0  0  0  0  0  0  0  0  0
    9.9869  -16.8741   27.7557 C   0  0  0  0  0  0  0  0  0  0  0  0
   10.3028  -16.5682   29.0694 O   0  0  0  0  0  0  0  0  0  0  0  0
  2  3  1  0
  2  1  1  6
  4  3  1  0
  5  4  1  0
  6  5  1  0
  7  6  1  0
  8  2  1  0
  8  9  2  0
 10 11  1  0
 11 12  2  0
 13 11  1  0
 13 14  1  0
 14 15  1  0
 15 16  1  0
 17 16  1  1
 17 18  1  0
 18  8  1  0
 19 17  1  0
 20 19  2  0
 22 21  1  0
 23 22  2  0
 24 23  1  0
 25 31  1  0
 25 24  2  0
 26 25  1  0
 27 28  1  0
 27 26  1  1
 28 19  1  0
 29 27  1  0
 30 29  1  0
 31 32  2  0
 32 22  1  0
 33 29  2  0
M  END
$$$$
