KRY.pdb
     RDKit          3D

 33 33  0  0  1  0  0  0  0  0999 V2000
    9.0450  -16.5186   18.1299 N   0  0  0  0  0  0  0  0  0  0  0  0
    8.6014  -15.3085   18.7844 C   0  0  1  0  0  0  0  0  0  0  0  0
    7.7636  -14.4379   17.9227 C   0  0  0  0  0  0  0  0  0  0  0  0
    8.2989  -14.1595   16.5503 C   0  0  0  0  0  0  0  0  0  0  0  0
    7.5371  -13.1262   15.7701 C   0  0  0  0  0  0  0  0  0  0  0  0
    8.2160  -12.9761   14.3951 C   0  0  0  0  0  0  0  0  0  0  0  0
    7.3719  -12.1055   13.5808 N   0  0  0  0  0  0  0  0  0  0  0  0
    7.9313  -15.6474   20.0738 C   0  0  0  0  0  0  0  0  0  0  0  0
    7.5495  -14.7724   20.8851 O   0  0  0  0  0  0  0  0  0  0  0  0
    5.8156  -22.7388   22.1337 N   0  0  0  0  0  0  0  0  0  0  0  0
    5.3825  -22.3595   23.4286 C   0  0  0  0  0  0  0  0  0  0  0  0
    5.5220  -23.0917   24.4840 N   0  0  0  0  0  0  0  0  0  0  0  0
    4.7493  -21.0955   23.6072 N   0  0  0  0  0  0  0  0  0  0  0  0
    5.0272  -19.9454   22.8195 C   0  0  0  0  0  0  0  0  0  0  0  0
    6.4336  -19.4018   23.0413 C   0  0  0  0  0  0  0  0  0  0  0  0
    6.8522  -18.8269   21.7284 C   0  0  0  0  0  0  0  0  0  0  0  0
    7.0534  -17.3278   21.6941 C   0  0  2  0  0  0  0  0  0  0  0  0
    7.7158  -17.0016   20.3985 N   0  0  0  0  0  0  0  0  0  0  0  0
    8.0038  -16.9427   22.7479 C   0  0  0  0  0  0  0  0  0  0  0  0
    9.2233  -17.2025   22.6047 O   0  0  0  0  0  0  0  0  0  0  0  0
    5.2046  -22.6567   25.3976 O   0  0  0  0  0  0  0  0  0  0  0  0
   10.9702  -13.9747   30.6410 C   0  0  0  0  0  0  0  0  0  0  0  0
   10.2318  -14.2512   29.4931 C   0  0  0  0  0  0  0  0  0  0  0  0
   10.4413  -13.5844   28.3065 C   0  0  0  0  0  0  0  0  0  0  0  0
    9.7012  -13.8642   27.1614 C   0  0  0  0  0  0  0  0  0  0  0  0
    8.7188  -14.8357   27.1851 C   0  0  0  0  0  0  0  0  0  0  0  0
    7.9611  -15.0934   25.9629 C   0  0  1  0  0  0  0  0  0  0  0  0
    8.6120  -16.0729   25.0085 N   0  0  0  0  0  0  0  0  0  0  0  0
    7.6347  -16.2762   23.9447 C   0  0  0  0  0  0  0  0  0  0  0  0
    8.8684  -17.3441   25.7190 O   0  0  0  0  0  0  0  0  0  0  0  0
   10.1099  -17.6825   26.2098 C   0  0  0  0  0  0  0  0  0  0  0  0
    8.5009  -15.5115   28.3734 C   0  0  0  0  0  0  0  0  0  0  0  0
    9.2466  -15.2207   29.5042 O   0  0  0  0  0  0  0  0  0  0  0  0
  2  3  1  0
  2  1  1  6
  4  3  1  0
  5  4  1  0
  6  5  1  0
  7  6  1  0
  8  2  1  0
  8  9  2  0
 10 11  1  0
 11 12  2  0
 13 11  1  0
 13 14  1  0
 14 15  1  0
 15 16  1  0
 17 16  1  6
 17 18  1  0
 18  8  1  0
 19 17  1  0
 20 19  2  0
 22 21  1  0
 23 22  2  0
 24 23  1  0
 25 31  1  0
 25 24  2  0
 26 25  1  0
 27 28  1  0
 27 26  1  6
 28 19  1  0
 29 27  1  0
 30 29  1  0
 31 32  2  0
 32 22  1  0
 33 29  2  0
M  END
$$$$
