KRY.pdb
     RDKit          3D

 33 33  0  0  1  0  0  0  0  0999 V2000
    9.8521  -15.4976   19.8076 N   0  0  0  0  0  0  0  0  0  0  0  0
    8.9558  -14.7148   20.6280 C   0  0  1  0  0  0  0  0  0  0  0  0
    7.6962  -14.3364   19.9404 C   0  0  0  0  0  0  0  0  0  0  0  0
    7.7985  -14.0984   18.4638 C   0  0  0  0  0  0  0  0  0  0  0  0
    7.5461  -12.6822   18.0308 C   0  0  0  0  0  0  0  0  0  0  0  0
    7.0013  -12.7180   16.5899 C   0  0  0  0  0  0  0  0  0  0  0  0
    8.1008  -13.1149   15.7140 N   0  0  0  0  0  0  0  0  0  0  0  0
    8.7094  -15.4177   21.9209 C   0  0  0  0  0  0  0  0  0  0  0  0
    7.8908  -14.9974   22.7711 O   0  0  0  0  0  0  0  0  0  0  0  0
    9.1758  -23.0345   21.0920 N   0  0  0  0  0  0  0  0  0  0  0  0
   10.1675  -22.4516   20.2643 C   0  0  0  0  0  0  0  0  0  0  0  0
   10.5800  -22.9663   19.1534 N   0  0  0  0  0  0  0  0  0  0  0  0
   10.7652  -21.2195   20.6583 N   0  0  0  0  0  0  0  0  0  0  0  0
   10.5536  -20.5970   21.9186 C   0  0  0  0  0  0  0  0  0  0  0  0
    9.8353  -19.2577   21.8041 C   0  0  0  0  0  0  0  0  0  0  0  0
    9.6344  -18.7899   23.2077 C   0  0  0  0  0  0  0  0  0  0  0  0
    8.9943  -17.4285   23.3684 C   0  0  2  0  0  0  0  0  0  0  0  0
    9.4209  -16.6007   22.2037 N   0  0  0  0  0  0  0  0  0  0  0  0
    9.5473  -16.7715   24.5620 C   0  0  0  0  0  0  0  0  0  0  0  0
   10.7053  -16.2892   24.5208 O   0  0  0  0  0  0  0  0  0  0  0  0
   11.3619  -22.4456   18.6611 O   0  0  0  0  0  0  0  0  0  0  0  0
    6.2019  -10.8288   25.0163 C   0  0  0  0  0  0  0  0  0  0  0  0
    6.7335  -11.9338   25.6763 C   0  0  0  0  0  0  0  0  0  0  0  0
    8.0626  -12.0097   26.0288 C   0  0  0  0  0  0  0  0  0  0  0  0
    8.5897  -13.1160   26.6887 C   0  0  0  0  0  0  0  0  0  0  0  0
    7.7791  -14.1868   27.0135 C   0  0  0  0  0  0  0  0  0  0  0  0
    8.3740  -15.3307   27.7005 C   0  0  2  0  0  0  0  0  0  0  0  0
    9.4920  -16.0145   26.9412 N   0  0  0  0  0  0  0  0  0  0  0  0
    8.8474  -16.6339   25.7883 C   0  0  0  0  0  0  0  0  0  0  0  0
   10.1022  -17.0485   27.8044 O   0  0  0  0  0  0  0  0  0  0  0  0
   10.8906  -16.7380   28.8901 C   0  0  0  0  0  0  0  0  0  0  0  0
    6.4414  -14.1197   26.6634 C   0  0  0  0  0  0  0  0  0  0  0  0
    5.9328  -13.0110   26.0067 O   0  0  0  0  0  0  0  0  0  0  0  0
  2  3  1  0
  2  1  1  6
  4  3  1  0
  5  4  1  0
  6  5  1  0
  7  6  1  0
  8  2  1  0
  8  9  2  0
 10 11  1  0
 11 12  2  0
 13 11  1  0
 13 14  1  0
 14 15  1  0
 15 16  1  0
 17 16  1  6
 17 18  1  0
 18  8  1  0
 19 17  1  0
 20 19  2  0
 22 21  1  0
 23 22  2  0
 24 23  1  0
 25 31  1  0
 25 24  2  0
 26 25  1  0
 27 28  1  0
 27 26  1  6
 28 19  1  0
 29 27  1  0
 30 29  1  0
 31 32  2  0
 32 22  1  0
 33 29  2  0
M  END
$$$$
