KRY.pdb
     RDKit          3D

 33 33  0  0  1  0  0  0  0  0999 V2000
    6.4266  -16.6761   19.8244 N   0  0  0  0  0  0  0  0  0  0  0  0
    7.7147  -16.0207   19.7965 C   0  0  1  0  0  0  0  0  0  0  0  0
    7.6556  -14.5766   20.1332 C   0  0  0  0  0  0  0  0  0  0  0  0
    7.0521  -13.6824   19.0921 C   0  0  0  0  0  0  0  0  0  0  0  0
    7.8359  -13.5775   17.8147 C   0  0  0  0  0  0  0  0  0  0  0  0
    7.1277  -12.5526   16.9080 C   0  0  0  0  0  0  0  0  0  0  0  0
    7.9392  -12.3967   15.7035 N   0  0  0  0  0  0  0  0  0  0  0  0
    8.6803  -16.7663   20.6556 C   0  0  0  0  0  0  0  0  0  0  0  0
    8.3448  -17.3045   21.7361 O   0  0  0  0  0  0  0  0  0  0  0  0
   13.8169  -16.5907   15.0730 N   0  0  0  0  0  0  0  0  0  0  0  0
   12.9771  -17.3706   15.9066 C   0  0  0  0  0  0  0  0  0  0  0  0
   11.6863  -17.3554   15.8544 N   0  0  0  0  0  0  0  0  0  0  0  0
   13.5671  -18.2355   16.8733 N   0  0  0  0  0  0  0  0  0  0  0  0
   13.5282  -18.0089   18.2761 C   0  0  0  0  0  0  0  0  0  0  0  0
   12.1081  -17.9117   18.8207 C   0  0  0  0  0  0  0  0  0  0  0  0
   12.2542  -17.8041   20.3027 C   0  0  0  0  0  0  0  0  0  0  0  0
   10.9690  -17.6579   21.0876 C   0  0  2  0  0  0  0  0  0  0  0  0
   10.0232  -16.8740   20.2422 N   0  0  0  0  0  0  0  0  0  0  0  0
   11.2225  -16.8410   22.2836 C   0  0  0  0  0  0  0  0  0  0  0  0
   11.7690  -15.7180   22.1599 O   0  0  0  0  0  0  0  0  0  0  0  0
   11.1837  -17.9269   16.5930 O   0  0  0  0  0  0  0  0  0  0  0  0
   10.9966  -14.1356   30.7830 C   0  0  0  0  0  0  0  0  0  0  0  0
   10.7792  -14.7345   29.5448 C   0  0  0  0  0  0  0  0  0  0  0  0
   10.9946  -16.0777   29.3305 C   0  0  0  0  0  0  0  0  0  0  0  0
   10.7756  -16.6723   28.0912 C   0  0  0  0  0  0  0  0  0  0  0  0
   10.3286  -15.9173   27.0238 C   0  0  0  0  0  0  0  0  0  0  0  0
   10.1177  -16.5797   25.7389 C   0  0  1  0  0  0  0  0  0  0  0  0
   11.2439  -16.4017   24.7419 N   0  0  0  0  0  0  0  0  0  0  0  0
   10.8806  -17.2369   23.6023 C   0  0  0  0  0  0  0  0  0  0  0  0
   12.5060  -16.8797   25.3461 O   0  0  0  0  0  0  0  0  0  0  0  0
   12.8303  -18.2158   25.4279 C   0  0  0  0  0  0  0  0  0  0  0  0
   10.1091  -14.5661   27.2295 C   0  0  0  0  0  0  0  0  0  0  0  0
   10.3320  -13.9899   28.4695 O   0  0  0  0  0  0  0  0  0  0  0  0
  2  3  1  0
  2  1  1  1
  4  3  1  0
  5  4  1  0
  6  5  1  0
  7  6  1  0
  8  2  1  0
  8  9  2  0
 10 11  1  0
 11 12  2  0
 13 11  1  0
 13 14  1  0
 14 15  1  0
 15 16  1  0
 17 16  1  6
 17 18  1  0
 18  8  1  0
 19 17  1  0
 20 19  2  0
 22 21  1  0
 23 22  2  0
 24 23  1  0
 25 31  1  0
 25 24  2  0
 26 25  1  0
 27 28  1  0
 27 26  1  6
 28 19  1  0
 29 27  1  0
 30 29  1  0
 31 32  2  0
 32 22  1  0
 33 29  2  0
M  END
$$$$
