KRY.pdb
     RDKit          3D

 33 33  0  0  1  0  0  0  0  0999 V2000
    5.5299  -20.4243   21.0802 N   0  0  0  0  0  0  0  0  0  0  0  0
    5.4170  -19.2315   21.8889 C   0  0  1  0  0  0  0  0  0  0  0  0
    5.1673  -19.5073   23.3255 C   0  0  0  0  0  0  0  0  0  0  0  0
    6.1104  -20.4684   23.9847 C   0  0  0  0  0  0  0  0  0  0  0  0
    5.8560  -20.7048   25.4463 C   0  0  0  0  0  0  0  0  0  0  0  0
    6.7971  -21.8316   25.9141 C   0  0  0  0  0  0  0  0  0  0  0  0
    6.5098  -22.0875   27.3232 N   0  0  0  0  0  0  0  0  0  0  0  0
    6.6098  -18.3609   21.6754 C   0  0  0  0  0  0  0  0  0  0  0  0
    7.7828  -18.7799   21.8105 O   0  0  0  0  0  0  0  0  0  0  0  0
    7.0883  -12.3317   15.9989 N   0  0  0  0  0  0  0  0  0  0  0  0
    7.7301  -13.5784   16.2037 C   0  0  0  0  0  0  0  0  0  0  0  0
    8.1007  -14.3691   15.2515 N   0  0  0  0  0  0  0  0  0  0  0  0
    7.9959  -14.0129   17.5346 N   0  0  0  0  0  0  0  0  0  0  0  0
    7.7225  -13.2401   18.6959 C   0  0  0  0  0  0  0  0  0  0  0  0
    8.1819  -13.9194   19.9805 C   0  0  0  0  0  0  0  0  0  0  0  0
    7.1416  -14.9464   20.2843 C   0  0  0  0  0  0  0  0  0  0  0  0
    7.6172  -16.1715   21.0340 C   0  0  2  0  0  0  0  0  0  0  0  0
    6.4177  -17.0143   21.3071 N   0  0  0  0  0  0  0  0  0  0  0  0
    8.1384  -15.7635   22.3470 C   0  0  0  0  0  0  0  0  0  0  0  0
    7.3702  -15.2117   23.1720 O   0  0  0  0  0  0  0  0  0  0  0  0
    8.5520  -15.2805   15.5522 O   0  0  0  0  0  0  0  0  0  0  0  0
   10.6455  -14.9288   30.4340 C   0  0  0  0  0  0  0  0  0  0  0  0
   10.2674  -15.2098   29.1235 C   0  0  0  0  0  0  0  0  0  0  0  0
   10.5123  -16.4300   28.5339 C   0  0  0  0  0  0  0  0  0  0  0  0
   10.1325  -16.7067   27.2238 C   0  0  0  0  0  0  0  0  0  0  0  0
    9.4881  -15.7473   26.4662 C   0  0  0  0  0  0  0  0  0  0  0  0
    9.1125  -16.0770   25.0935 C   0  0  1  0  0  0  0  0  0  0  0  0
    9.9496  -15.4009   24.0276 N   0  0  0  0  0  0  0  0  0  0  0  0
    9.4806  -15.9577   22.7634 C   0  0  0  0  0  0  0  0  0  0  0  0
   11.3728  -15.7411   24.2411 O   0  0  0  0  0  0  0  0  0  0  0  0
   12.2067  -14.9817   25.0315 C   0  0  0  0  0  0  0  0  0  0  0  0
    9.2375  -14.5176   27.0503 C   0  0  0  0  0  0  0  0  0  0  0  0
    9.6223  -14.2585   28.3558 O   0  0  0  0  0  0  0  0  0  0  0  0
  2  3  1  0
  2  1  1  6
  4  3  1  0
  5  4  1  0
  6  5  1  0
  7  6  1  0
  8  2  1  0
  8  9  2  0
 10 11  1  0
 11 12  2  0
 13 11  1  0
 13 14  1  0
 14 15  1  0
 15 16  1  0
 17 16  1  6
 17 18  1  0
 18  8  1  0
 19 17  1  0
 20 19  2  0
 22 21  1  0
 23 22  2  0
 24 23  1  0
 25 31  1  0
 25 24  2  0
 26 25  1  0
 27 28  1  0
 27 26  1  6
 28 19  1  0
 29 27  1  0
 30 29  1  0
 31 32  2  0
 32 22  1  0
 33 29  2  0
M  END
$$$$
