KRY.pdb
     RDKit          3D

 33 33  0  0  1  0  0  0  0  0999 V2000
   12.5372  -16.7411   19.7682 N   0  0  0  0  0  0  0  0  0  0  0  0
   12.9192  -15.5297   20.4581 C   0  0  1  0  0  0  0  0  0  0  0  0
   13.3899  -14.4520   19.5529 C   0  0  0  0  0  0  0  0  0  0  0  0
   14.7664  -14.6245   18.9845 C   0  0  0  0  0  0  0  0  0  0  0  0
   15.2420  -13.4918   18.1198 C   0  0  0  0  0  0  0  0  0  0  0  0
   16.6420  -13.8567   17.5899 C   0  0  0  0  0  0  0  0  0  0  0  0
   17.1020  -12.7450   16.7616 N   0  0  0  0  0  0  0  0  0  0  0  0
   11.8075  -15.0816   21.3466 C   0  0  0  0  0  0  0  0  0  0  0  0
   11.8961  -14.0681   22.0779 O   0  0  0  0  0  0  0  0  0  0  0  0
    8.7294  -13.0497   16.0510 N   0  0  0  0  0  0  0  0  0  0  0  0
    8.2096  -14.1165   16.8257 C   0  0  0  0  0  0  0  0  0  0  0  0
    7.7962  -15.2370   16.3331 N   0  0  0  0  0  0  0  0  0  0  0  0
    8.1259  -13.9712   18.2408 N   0  0  0  0  0  0  0  0  0  0  0  0
    7.5404  -14.9329   19.1085 C   0  0  0  0  0  0  0  0  0  0  0  0
    7.5533  -14.4979   20.5691 C   0  0  0  0  0  0  0  0  0  0  0  0
    8.1995  -15.6184   21.3148 C   0  0  0  0  0  0  0  0  0  0  0  0
    9.4388  -15.2615   22.1060 C   0  0  2  0  0  0  0  0  0  0  0  0
   10.6083  -15.8213   21.3695 N   0  0  0  0  0  0  0  0  0  0  0  0
    9.4016  -15.9544   23.4024 C   0  0  0  0  0  0  0  0  0  0  0  0
    9.9482  -17.0783   23.5177 O   0  0  0  0  0  0  0  0  0  0  0  0
    7.5214  -15.9816   17.0365 O   0  0  0  0  0  0  0  0  0  0  0  0
    6.6130  -10.2143   26.9902 C   0  0  0  0  0  0  0  0  0  0  0  0
    6.8020  -11.5869   26.8507 C   0  0  0  0  0  0  0  0  0  0  0  0
    5.7777  -12.4375   26.4989 C   0  0  0  0  0  0  0  0  0  0  0  0
    5.9712  -13.8089   26.3603 C   0  0  0  0  0  0  0  0  0  0  0  0
    7.2184  -14.3634   26.5759 C   0  0  0  0  0  0  0  0  0  0  0  0
    7.3764  -15.8079   26.4259 C   0  0  2  0  0  0  0  0  0  0  0  0
    8.6737  -16.2392   25.7742 N   0  0  0  0  0  0  0  0  0  0  0  0
    8.7814  -15.4297   24.5654 C   0  0  0  0  0  0  0  0  0  0  0  0
    8.5871  -17.6734   25.4248 O   0  0  0  0  0  0  0  0  0  0  0  0
    7.9935  -18.1201   24.2651 C   0  0  0  0  0  0  0  0  0  0  0  0
    8.2544  -13.5163   26.9300 C   0  0  0  0  0  0  0  0  0  0  0  0
    8.0448  -12.1533   27.0637 O   0  0  0  0  0  0  0  0  0  0  0  0
  2  3  1  0
  2  1  1  6
  4  3  1  0
  5  4  1  0
  6  5  1  0
  7  6  1  0
  8  2  1  0
  8  9  2  0
 10 11  1  0
 11 12  2  0
 13 11  1  0
 13 14  1  0
 14 15  1  0
 15 16  1  0
 17 16  1  6
 17 18  1  0
 18  8  1  0
 19 17  1  0
 20 19  2  0
 22 21  1  0
 23 22  2  0
 24 23  1  0
 25 31  1  0
 25 24  2  0
 26 25  1  0
 27 28  1  0
 27 26  1  1
 28 19  1  0
 29 27  1  0
 30 29  1  0
 31 32  2  0
 32 22  1  0
 33 29  2  0
M  END
$$$$
