KRY.pdb
     RDKit          3D

 33 33  0  0  1  0  0  0  0  0999 V2000
    7.0787  -21.5832   23.4419 N   0  0  0  0  0  0  0  0  0  0  0  0
    6.6948  -20.2662   23.8974 C   0  0  1  0  0  0  0  0  0  0  0  0
    6.7061  -20.1198   25.3741 C   0  0  0  0  0  0  0  0  0  0  0  0
    6.3655  -21.3503   26.1599 C   0  0  0  0  0  0  0  0  0  0  0  0
    6.4496  -21.1936   27.6516 C   0  0  0  0  0  0  0  0  0  0  0  0
    6.1916  -22.5731   28.2876 C   0  0  0  0  0  0  0  0  0  0  0  0
    7.4836  -23.2389   28.4326 N   0  0  0  0  0  0  0  0  0  0  0  0
    7.5283  -19.2326   23.2166 C   0  0  0  0  0  0  0  0  0  0  0  0
    8.6835  -19.4700   22.7936 O   0  0  0  0  0  0  0  0  0  0  0  0
    8.0801  -14.4248   17.2918 N   0  0  0  0  0  0  0  0  0  0  0  0
    8.0841  -13.2588   18.0973 C   0  0  0  0  0  0  0  0  0  0  0  0
    8.8562  -12.2421   17.8988 N   0  0  0  0  0  0  0  0  0  0  0  0
    7.1902  -13.1756   19.2040 N   0  0  0  0  0  0  0  0  0  0  0  0
    6.6931  -14.3018   19.9147 C   0  0  0  0  0  0  0  0  0  0  0  0
    7.7090  -14.8801   20.8926 C   0  0  0  0  0  0  0  0  0  0  0  0
    7.0352  -16.0546   21.5218 C   0  0  0  0  0  0  0  0  0  0  0  0
    7.8848  -16.8829   22.4605 C   0  0  2  0  0  0  0  0  0  0  0  0
    7.0028  -17.9373   23.0386 N   0  0  0  0  0  0  0  0  0  0  0  0
    8.3158  -16.0455   23.5896 C   0  0  0  0  0  0  0  0  0  0  0  0
    7.5151  -15.8145   24.5281 O   0  0  0  0  0  0  0  0  0  0  0  0
    8.6994  -11.4075   18.5340 O   0  0  0  0  0  0  0  0  0  0  0  0
   10.5556  -14.8501   31.4512 C   0  0  0  0  0  0  0  0  0  0  0  0
   10.1977  -15.0157   30.1156 C   0  0  0  0  0  0  0  0  0  0  0  0
   10.0353  -16.2595   29.5474 C   0  0  0  0  0  0  0  0  0  0  0  0
    9.6772  -16.4204   28.2120 C   0  0  0  0  0  0  0  0  0  0  0  0
    9.4717  -15.3168   27.4065 C   0  0  0  0  0  0  0  0  0  0  0  0
    9.1033  -15.5304   26.0090 C   0  0  2  0  0  0  0  0  0  0  0  0
   10.2132  -15.2649   25.0133 N   0  0  0  0  0  0  0  0  0  0  0  0
    9.6068  -15.4681   23.7022 C   0  0  0  0  0  0  0  0  0  0  0  0
   11.3030  -16.2405   25.2309 O   0  0  0  0  0  0  0  0  0  0  0  0
   12.4100  -15.9572   25.9998 C   0  0  0  0  0  0  0  0  0  0  0  0
    9.6326  -14.0621   27.9687 C   0  0  0  0  0  0  0  0  0  0  0  0
    9.9893  -13.9195   29.2998 O   0  0  0  0  0  0  0  0  0  0  0  0
  2  3  1  0
  2  1  1  1
  4  3  1  0
  5  4  1  0
  6  5  1  0
  7  6  1  0
  8  2  1  0
  8  9  2  0
 10 11  1  0
 11 12  2  0
 13 11  1  0
 13 14  1  0
 14 15  1  0
 15 16  1  0
 17 16  1  6
 17 18  1  0
 18  8  1  0
 19 17  1  0
 20 19  2  0
 22 21  1  0
 23 22  2  0
 24 23  1  0
 25 31  1  0
 25 24  2  0
 26 25  1  0
 27 28  1  0
 27 26  1  6
 28 19  1  0
 29 27  1  0
 30 29  1  0
 31 32  2  0
 32 22  1  0
 33 29  2  0
M  END
$$$$
