KRY.pdb
     RDKit          3D

 33 33  0  0  1  0  0  0  0  0999 V2000
    9.9947  -14.8191   18.0373 N   0  0  0  0  0  0  0  0  0  0  0  0
    9.0822  -13.9362   18.7281 C   0  0  1  0  0  0  0  0  0  0  0  0
    8.0676  -13.3153   17.8407 C   0  0  0  0  0  0  0  0  0  0  0  0
    7.9693  -13.8819   16.4562 C   0  0  0  0  0  0  0  0  0  0  0  0
    7.0165  -13.1638   15.5434 C   0  0  0  0  0  0  0  0  0  0  0  0
    6.9669  -13.9346   14.2102 C   0  0  0  0  0  0  0  0  0  0  0  0
    6.0937  -13.1918   13.3051 N   0  0  0  0  0  0  0  0  0  0  0  0
    8.4664  -14.6496   19.8849 C   0  0  0  0  0  0  0  0  0  0  0  0
    7.7012  -14.0806   20.6976 O   0  0  0  0  0  0  0  0  0  0  0  0
    9.5690  -23.0706   21.2872 N   0  0  0  0  0  0  0  0  0  0  0  0
    8.1965  -22.8395   21.5536 C   0  0  0  0  0  0  0  0  0  0  0  0
    7.2845  -23.7536   21.5091 N   0  0  0  0  0  0  0  0  0  0  0  0
    7.7665  -21.5243   21.8945 N   0  0  0  0  0  0  0  0  0  0  0  0
    8.6178  -20.3861   21.9123 C   0  0  0  0  0  0  0  0  0  0  0  0
    7.8591  -19.0830   22.1339 C   0  0  0  0  0  0  0  0  0  0  0  0
    8.2500  -18.1943   20.9996 C   0  0  0  0  0  0  0  0  0  0  0  0
    8.1669  -16.7067   21.2628 C   0  0  2  0  0  0  0  0  0  0  0  0
    8.7513  -16.0162   20.0773 N   0  0  0  0  0  0  0  0  0  0  0  0
    9.0325  -16.3675   22.4019 C   0  0  0  0  0  0  0  0  0  0  0  0
   10.2720  -16.5417   22.3090 O   0  0  0  0  0  0  0  0  0  0  0  0
    6.2965  -23.4366   21.7287 O   0  0  0  0  0  0  0  0  0  0  0  0
   11.2252  -14.3954   30.8503 C   0  0  0  0  0  0  0  0  0  0  0  0
   10.5874  -14.5483   29.6218 C   0  0  0  0  0  0  0  0  0  0  0  0
    9.4918  -15.3668   29.4598 C   0  0  0  0  0  0  0  0  0  0  0  0
    8.8572  -15.5165   28.2301 C   0  0  0  0  0  0  0  0  0  0  0  0
    9.3177  -14.8358   27.1193 C   0  0  0  0  0  0  0  0  0  0  0  0
    8.6263  -15.0263   25.8465 C   0  0  1  0  0  0  0  0  0  0  0  0
    9.4637  -15.6691   24.7605 N   0  0  0  0  0  0  0  0  0  0  0  0
    8.5578  -15.8385   23.6297 C   0  0  0  0  0  0  0  0  0  0  0  0
    9.9443  -16.9849   25.2341 O   0  0  0  0  0  0  0  0  0  0  0  0
   11.2387  -17.1945   25.6553 C   0  0  0  0  0  0  0  0  0  0  0  0
   10.4185  -14.0105   27.2723 C   0  0  0  0  0  0  0  0  0  0  0  0
   11.0386  -13.8727   28.5035 O   0  0  0  0  0  0  0  0  0  0  0  0
  2  3  1  0
  2  1  1  6
  4  3  1  0
  5  4  1  0
  6  5  1  0
  7  6  1  0
  8  2  1  0
  8  9  2  0
 10 11  1  0
 11 12  2  0
 13 11  1  0
 13 14  1  0
 14 15  1  0
 15 16  1  0
 17 16  1  6
 17 18  1  0
 18  8  1  0
 19 17  1  0
 20 19  2  0
 22 21  1  0
 23 22  2  0
 24 23  1  0
 25 31  1  0
 25 24  2  0
 26 25  1  0
 27 28  1  0
 27 26  1  6
 28 19  1  0
 29 27  1  0
 30 29  1  0
 31 32  2  0
 32 22  1  0
 33 29  2  0
M  END
$$$$
