QFG.pdb
     RDKit          3D

 25 25  0  0  1  0  0  0  0  0999 V2000
   27.3435  -19.3365  -17.0557 N   0  0  0  0  0  0  0  0  0  0  0  0
   27.9666  -18.1599  -16.5783 C   0  0  0  0  0  0  0  0  0  0  0  0
   28.5793  -17.4509  -17.3952 O   0  0  0  0  0  0  0  0  0  0  0  0
   27.8827  -17.8037  -15.1611 C   0  0  0  0  0  0  0  0  0  0  0  0
   27.0049  -18.7038  -14.3382 C   0  0  0  0  0  0  0  0  0  0  0  0
   27.7249  -19.5563  -13.3554 C   0  0  2  0  0  0  0  0  0  0  0  0
   28.6464  -20.4105  -14.1058 N   0  0  0  0  0  0  0  0  0  0  0  0
   26.8169  -20.4812  -12.6111 C   0  0  0  0  0  0  0  0  0  0  0  0
   26.6610  -21.6393  -13.0661 O   0  0  0  0  0  0  0  0  0  0  0  0
   26.1365  -20.1053  -11.4300 N   0  0  0  0  0  0  0  0  0  0  0  0
   25.3478  -21.0003  -10.6556 C   0  0  1  0  0  0  0  0  0  0  0  0
   25.1842  -20.5984   -9.2146 C   0  0  0  0  0  0  0  0  0  0  0  0
   26.4781  -20.4075   -8.5226 C   0  0  0  0  0  0  0  0  0  0  0  0
   26.5526  -19.4440   -7.5406 C   0  0  0  0  0  0  0  0  0  0  0  0
   27.7423  -19.2095   -6.8459 C   0  0  0  0  0  0  0  0  0  0  0  0
   28.8524  -19.9398   -7.1366 C   0  0  0  0  0  0  0  0  0  0  0  0
   28.8075  -20.9017   -8.1056 C   0  0  0  0  0  0  0  0  0  0  0  0
   27.6244  -21.1246   -8.7862 C   0  0  0  0  0  0  0  0  0  0  0  0
   23.9795  -21.2217  -11.2150 C   0  0  0  0  0  0  0  0  0  0  0  0
   23.2464  -22.0265  -10.6244 O   0  0  0  0  0  0  0  0  0  0  0  0
   23.5061  -20.5542  -12.3739 N   0  0  0  0  0  0  0  0  0  0  0  0
   22.2329  -20.9156  -12.9517 C   0  0  0  0  0  0  0  0  0  0  0  0
   21.1542  -20.3871  -12.0943 C   0  0  0  0  0  0  0  0  0  0  0  0
   20.4780  -21.1776  -11.4102 O   0  0  0  0  0  0  0  0  0  0  0  0
   20.9067  -19.0315  -12.0587 O   0  0  0  0  0  0  0  0  0  0  0  0
  1  2  1  0
  2  3  2  0
  4  2  1  0
  5  6  1  0
  5  4  1  0
  6  8  1  0
  6  7  1  6
  8  9  2  0
  8 10  1  0
 10 11  1  0
 11 12  1  1
 12 13  1  0
 13 18  2  0
 14 15  2  0
 14 13  1  0
 15 16  1  0
 16 17  2  0
 18 17  1  0
 19 11  1  0
 19 20  2  0
 21 19  1  0
 22 21  1  0
 22 23  1  0
 23 24  2  0
 23 25  1  0
M  END
$$$$
