QFG.pdb
     RDKit          3D

 25 25  0  0  1  0  0  0  0  0999 V2000
   21.1446  -38.6497   -4.9516 N   0  0  0  0  0  0  0  0  0  0  0  0
   21.4484  -38.1783   -6.2501 C   0  0  0  0  0  0  0  0  0  0  0  0
   21.4075  -36.9520   -6.4505 O   0  0  0  0  0  0  0  0  0  0  0  0
   21.7979  -39.1207   -7.3141 C   0  0  0  0  0  0  0  0  0  0  0  0
   23.2640  -39.1887   -7.6363 C   0  0  0  0  0  0  0  0  0  0  0  0
   23.8683  -37.9071   -8.0870 C   0  0  2  0  0  0  0  0  0  0  0  0
   24.6617  -38.1915   -9.2835 N   0  0  0  0  0  0  0  0  0  0  0  0
   24.8183  -37.3281   -7.0889 C   0  0  0  0  0  0  0  0  0  0  0  0
   25.7647  -38.0505   -6.6949 O   0  0  0  0  0  0  0  0  0  0  0  0
   24.6924  -36.0153   -6.5790 N   0  0  0  0  0  0  0  0  0  0  0  0
   25.4633  -35.5134   -5.4943 C   0  0  1  0  0  0  0  0  0  0  0  0
   25.7650  -34.0412   -5.5739 C   0  0  0  0  0  0  0  0  0  0  0  0
   26.5595  -33.5562   -4.4236 C   0  0  0  0  0  0  0  0  0  0  0  0
   25.9027  -32.8734   -3.4234 C   0  0  0  0  0  0  0  0  0  0  0  0
   26.5897  -32.3869   -2.3078 C   0  0  0  0  0  0  0  0  0  0  0  0
   27.9308  -32.5855   -2.1978 C   0  0  0  0  0  0  0  0  0  0  0  0
   28.6079  -33.2592   -3.1745 C   0  0  0  0  0  0  0  0  0  0  0  0
   27.9171  -33.7359   -4.2737 C   0  0  0  0  0  0  0  0  0  0  0  0
   24.8451  -35.7705   -4.1579 C   0  0  0  0  0  0  0  0  0  0  0  0
   23.6126  -35.8845   -4.1134 O   0  0  0  0  0  0  0  0  0  0  0  0
   25.6084  -35.8851   -2.9676 N   0  0  0  0  0  0  0  0  0  0  0  0
   26.0387  -37.1827   -2.5022 C   0  0  0  0  0  0  0  0  0  0  0  0
   24.8779  -37.8916   -1.9295 C   0  0  0  0  0  0  0  0  0  0  0  0
   24.3608  -38.8273   -2.5676 O   0  0  0  0  0  0  0  0  0  0  0  0
   24.3799  -37.5139   -0.7009 O   0  0  0  0  0  0  0  0  0  0  0  0
  1  2  1  0
  2  3  2  0
  4  2  1  0
  5  6  1  0
  5  4  1  0
  6  8  1  0
  6  7  1  6
  8  9  2  0
  8 10  1  0
 10 11  1  0
 11 12  1  6
 12 13  1  0
 13 18  2  0
 14 15  2  0
 14 13  1  0
 15 16  1  0
 16 17  2  0
 18 17  1  0
 19 11  1  0
 19 20  2  0
 21 19  1  0
 22 21  1  0
 22 23  1  0
 23 24  2  0
 23 25  1  0
M  END
$$$$
