QFG.pdb
     RDKit          3D

 25 25  0  0  1  0  0  0  0  0999 V2000
   27.6087  -19.0371  -18.0929 N   0  0  0  0  0  0  0  0  0  0  0  0
   28.2644  -17.9511  -17.4674 C   0  0  0  0  0  0  0  0  0  0  0  0
   28.9263  -17.1786  -18.1821 O   0  0  0  0  0  0  0  0  0  0  0  0
   28.1564  -17.7584  -16.0206 C   0  0  0  0  0  0  0  0  0  0  0  0
   27.2625  -18.7428  -15.3208 C   0  0  0  0  0  0  0  0  0  0  0  0
   27.9648  -19.7141  -14.4409 C   0  0  2  0  0  0  0  0  0  0  0  0
   28.6073  -20.7056  -15.3047 N   0  0  0  0  0  0  0  0  0  0  0  0
   27.0333  -20.4780  -13.5562 C   0  0  0  0  0  0  0  0  0  0  0  0
   26.3924  -21.4288  -14.0641 O   0  0  0  0  0  0  0  0  0  0  0  0
   26.8497  -20.1738  -12.1876 N   0  0  0  0  0  0  0  0  0  0  0  0
   25.9982  -20.9148  -11.3224 C   0  0  1  0  0  0  0  0  0  0  0  0
   26.3658  -20.8308   -9.8656 C   0  0  0  0  0  0  0  0  0  0  0  0
   27.7870  -21.1565   -9.6135 C   0  0  0  0  0  0  0  0  0  0  0  0
   28.2925  -20.9226   -8.3534 C   0  0  0  0  0  0  0  0  0  0  0  0
   29.6255  -21.2064   -8.0444 C   0  0  0  0  0  0  0  0  0  0  0  0
   30.4471  -21.7231   -8.9975 C   0  0  0  0  0  0  0  0  0  0  0  0
   29.9729  -21.9652  -10.2555 C   0  0  0  0  0  0  0  0  0  0  0  0
   28.6519  -21.6801  -10.5492 C   0  0  0  0  0  0  0  0  0  0  0  0
   24.5570  -20.5367  -11.4414 C   0  0  0  0  0  0  0  0  0  0  0  0
   24.2973  -19.4349  -11.9441 O   0  0  0  0  0  0  0  0  0  0  0  0
   23.5028  -21.3807  -11.0067 N   0  0  0  0  0  0  0  0  0  0  0  0
   22.6740  -22.0641  -11.9718 C   0  0  0  0  0  0  0  0  0  0  0  0
   21.6096  -21.1455  -12.4201 C   0  0  0  0  0  0  0  0  0  0  0  0
   21.7441  -20.5382  -13.4986 O   0  0  0  0  0  0  0  0  0  0  0  0
   20.4830  -20.9692  -11.6457 O   0  0  0  0  0  0  0  0  0  0  0  0
  1  2  1  0
  2  3  2  0
  4  2  1  0
  5  6  1  0
  5  4  1  0
  6  8  1  0
  6  7  1  6
  8  9  2  0
  8 10  1  0
 10 11  1  0
 11 12  1  1
 12 13  1  0
 13 18  2  0
 14 15  2  0
 14 13  1  0
 15 16  1  0
 16 17  2  0
 18 17  1  0
 19 11  1  0
 19 20  2  0
 21 19  1  0
 22 21  1  0
 22 23  1  0
 23 24  2  0
 23 25  1  0
M  END
$$$$
