QFG.pdb
     RDKit          3D

 25 25  0  0  1  0  0  0  0  0999 V2000
   13.2252  -17.6872    5.9917 N   0  0  0  0  0  0  0  0  0  0  0  0
   12.8682  -18.9757    5.5301 C   0  0  0  0  0  0  0  0  0  0  0  0
   11.6695  -19.3019    5.5783 O   0  0  0  0  0  0  0  0  0  0  0  0
   13.8930  -19.8848    5.0148 C   0  0  0  0  0  0  0  0  0  0  0  0
   15.3026  -19.3813    5.1457 C   0  0  0  0  0  0  0  0  0  0  0  0
   15.7319  -18.4323    4.0846 C   0  0  2  0  0  0  0  0  0  0  0  0
   16.1503  -19.2255    2.9280 N   0  0  0  0  0  0  0  0  0  0  0  0
   16.9209  -17.6167    4.4786 C   0  0  0  0  0  0  0  0  0  0  0  0
   18.0433  -17.9730    4.0475 O   0  0  0  0  0  0  0  0  0  0  0  0
   16.8296  -16.4748    5.3074 N   0  0  0  0  0  0  0  0  0  0  0  0
   17.9449  -15.6668    5.6622 C   0  0  1  0  0  0  0  0  0  0  0  0
   17.6050  -14.2301    5.9539 C   0  0  0  0  0  0  0  0  0  0  0  0
   18.8029  -13.3676    6.0574 C   0  0  0  0  0  0  0  0  0  0  0  0
   19.2908  -13.0833    7.3141 C   0  0  0  0  0  0  0  0  0  0  0  0
   20.4182  -12.2758    7.4868 C   0  0  0  0  0  0  0  0  0  0  0  0
   21.0526  -11.7560    6.4015 C   0  0  0  0  0  0  0  0  0  0  0  0
   20.5907  -12.0213    5.1435 C   0  0  0  0  0  0  0  0  0  0  0  0
   19.4741  -12.8218    4.9854 C   0  0  0  0  0  0  0  0  0  0  0  0
   18.7086  -16.1915    6.8351 C   0  0  0  0  0  0  0  0  0  0  0  0
   18.0585  -16.5199    7.8368 O   0  0  0  0  0  0  0  0  0  0  0  0
   20.1213  -16.3217    6.8361 N   0  0  0  0  0  0  0  0  0  0  0  0
   20.7855  -17.0258    7.9078 C   0  0  0  0  0  0  0  0  0  0  0  0
   20.8095  -16.1601    9.1027 C   0  0  0  0  0  0  0  0  0  0  0  0
   20.7030  -14.9275    8.9635 O   0  0  0  0  0  0  0  0  0  0  0  0
   20.9485  -16.7204   10.3544 O   0  0  0  0  0  0  0  0  0  0  0  0
  1  2  1  0
  2  3  2  0
  4  2  1  0
  5  6  1  0
  5  4  1  0
  6  8  1  0
  6  7  1  6
  8  9  2  0
  8 10  1  0
 10 11  1  0
 11 12  1  1
 12 13  1  0
 13 18  2  0
 14 15  2  0
 14 13  1  0
 15 16  1  0
 16 17  2  0
 18 17  1  0
 19 11  1  0
 19 20  2  0
 21 19  1  0
 22 21  1  0
 22 23  1  0
 23 24  2  0
 23 25  1  0
M  END
$$$$
