QFG.pdb
     RDKit          3D

 25 25  0  0  1  0  0  0  0  0999 V2000
   26.3984  -22.4780  -20.2591 N   0  0  0  0  0  0  0  0  0  0  0  0
   26.2163  -21.1093  -20.5658 C   0  0  0  0  0  0  0  0  0  0  0  0
   26.5373  -20.7174  -21.7011 O   0  0  0  0  0  0  0  0  0  0  0  0
   25.6655  -20.1957  -19.5636 C   0  0  0  0  0  0  0  0  0  0  0  0
   25.2460  -20.8519  -18.2786 C   0  0  0  0  0  0  0  0  0  0  0  0
   26.3539  -21.1421  -17.3304 C   0  0  2  0  0  0  0  0  0  0  0  0
   26.9939  -22.3834  -17.7681 N   0  0  0  0  0  0  0  0  0  0  0  0
   25.8770  -21.3921  -15.9361 C   0  0  0  0  0  0  0  0  0  0  0  0
   24.9721  -22.2446  -15.7716 O   0  0  0  0  0  0  0  0  0  0  0  0
   26.3998  -20.7135  -14.8112 N   0  0  0  0  0  0  0  0  0  0  0  0
   25.9043  -20.8811  -13.4886 C   0  0  1  0  0  0  0  0  0  0  0  0
   26.8067  -20.3400  -12.4127 C   0  0  0  0  0  0  0  0  0  0  0  0
   26.2719  -20.5623  -11.0510 C   0  0  0  0  0  0  0  0  0  0  0  0
   25.9311  -19.4588  -10.2999 C   0  0  0  0  0  0  0  0  0  0  0  0
   25.4201  -19.5940   -9.0062 C   0  0  0  0  0  0  0  0  0  0  0  0
   25.2523  -20.8325   -8.4695 C   0  0  0  0  0  0  0  0  0  0  0  0
   25.5818  -21.9445   -9.1916 C   0  0  0  0  0  0  0  0  0  0  0  0
   26.0866  -21.7978  -10.4708 C   0  0  0  0  0  0  0  0  0  0  0  0
   24.5519  -20.2794  -13.2809 C   0  0  0  0  0  0  0  0  0  0  0  0
   24.3718  -19.1269  -13.6970 O   0  0  0  0  0  0  0  0  0  0  0  0
   23.4939  -20.9713  -12.6372 N   0  0  0  0  0  0  0  0  0  0  0  0
   22.2029  -20.3430  -12.4820 C   0  0  0  0  0  0  0  0  0  0  0  0
   21.1735  -21.2184  -13.0752 C   0  0  0  0  0  0  0  0  0  0  0  0
   21.3612  -21.6968  -14.2093 O   0  0  0  0  0  0  0  0  0  0  0  0
   20.0206  -21.4970  -12.3728 O   0  0  0  0  0  0  0  0  0  0  0  0
  1  2  1  0
  2  3  2  0
  4  2  1  0
  5  6  1  0
  5  4  1  0
  6  8  1  0
  6  7  1  6
  8  9  2  0
  8 10  1  0
 10 11  1  0
 11 12  1  1
 12 13  1  0
 13 18  2  0
 14 15  2  0
 14 13  1  0
 15 16  1  0
 16 17  2  0
 18 17  1  0
 19 11  1  0
 19 20  2  0
 21 19  1  0
 22 21  1  0
 22 23  1  0
 23 24  2  0
 23 25  1  0
M  END
$$$$
