QFG.pdb
     RDKit          3D

 25 25  0  0  1  0  0  0  0  0999 V2000
   22.5079  -20.8585  -11.3826 N   0  0  0  0  0  0  0  0  0  0  0  0
   22.7260  -20.2097  -12.6204 C   0  0  0  0  0  0  0  0  0  0  0  0
   22.0365  -19.2097  -12.8851 O   0  0  0  0  0  0  0  0  0  0  0  0
   23.7373  -20.7150  -13.5501 C   0  0  0  0  0  0  0  0  0  0  0  0
   24.8383  -21.5113  -12.9084 C   0  0  0  0  0  0  0  0  0  0  0  0
   25.9791  -20.7068  -12.3964 C   0  0  2  0  0  0  0  0  0  0  0  0
   27.1711  -21.1076  -13.1449 N   0  0  0  0  0  0  0  0  0  0  0  0
   26.2836  -20.9772  -10.9582 C   0  0  0  0  0  0  0  0  0  0  0  0
   26.5969  -22.1482  -10.6370 O   0  0  0  0  0  0  0  0  0  0  0  0
   26.2326  -19.9770   -9.9602 N   0  0  0  0  0  0  0  0  0  0  0  0
   26.4959  -20.2219   -8.5842 C   0  0  1  0  0  0  0  0  0  0  0  0
   26.9650  -19.0159   -7.8160 C   0  0  0  0  0  0  0  0  0  0  0  0
   27.6246  -19.3705   -6.5397 C   0  0  0  0  0  0  0  0  0  0  0  0
   26.8328  -19.8043   -5.4990 C   0  0  0  0  0  0  0  0  0  0  0  0
   27.3878  -20.1560   -4.2656 C   0  0  0  0  0  0  0  0  0  0  0  0
   28.7325  -20.0721   -4.0786 C   0  0  0  0  0  0  0  0  0  0  0  0
   29.5418  -19.6452   -5.0930 C   0  0  0  0  0  0  0  0  0  0  0  0
   28.9808  -19.3000   -6.3090 C   0  0  0  0  0  0  0  0  0  0  0  0
   25.3265  -20.7923   -7.8485 C   0  0  0  0  0  0  0  0  0  0  0  0
   24.2072  -20.3348   -8.1168 O   0  0  0  0  0  0  0  0  0  0  0  0
   25.4561  -21.8168   -6.8758 N   0  0  0  0  0  0  0  0  0  0  0  0
   24.3012  -22.5818   -6.4676 C   0  0  0  0  0  0  0  0  0  0  0  0
   23.6730  -21.9142   -5.3110 C   0  0  0  0  0  0  0  0  0  0  0  0
   22.9080  -22.5644   -4.5747 O   0  0  0  0  0  0  0  0  0  0  0  0
   23.9374  -20.5853   -5.0578 O   0  0  0  0  0  0  0  0  0  0  0  0
  1  2  1  0
  2  3  2  0
  4  2  1  0
  5  6  1  0
  5  4  1  0
  6  8  1  0
  6  7  1  6
  8  9  2  0
  8 10  1  0
 10 11  1  0
 11 12  1  1
 12 13  1  0
 13 18  2  0
 14 15  2  0
 14 13  1  0
 15 16  1  0
 16 17  2  0
 18 17  1  0
 19 11  1  0
 19 20  2  0
 21 19  1  0
 22 21  1  0
 22 23  1  0
 23 24  2  0
 23 25  1  0
M  END
$$$$
