QFG.pdb
     RDKit          3D

 25 25  0  0  1  0  0  0  0  0999 V2000
   20.6490  -10.0288  -22.0108 N   0  0  0  0  0  0  0  0  0  0  0  0
   19.9195   -9.3784  -20.9883 C   0  0  0  0  0  0  0  0  0  0  0  0
   20.1263   -8.1665  -20.8038 O   0  0  0  0  0  0  0  0  0  0  0  0
   18.9542  -10.1260  -20.1810 C   0  0  0  0  0  0  0  0  0  0  0  0
   18.9033   -9.7266  -18.7334 C   0  0  0  0  0  0  0  0  0  0  0  0
   20.0640  -10.1717  -17.9176 C   0  0  2  0  0  0  0  0  0  0  0  0
   19.9843  -11.6280  -17.7969 N   0  0  0  0  0  0  0  0  0  0  0  0
   20.0336   -9.6387  -16.5215 C   0  0  0  0  0  0  0  0  0  0  0  0
   19.3596  -10.2665  -15.6705 O   0  0  0  0  0  0  0  0  0  0  0  0
   20.7259   -8.4700  -16.1293 N   0  0  0  0  0  0  0  0  0  0  0  0
   20.7758   -7.9952  -14.7896 C   0  0  1  0  0  0  0  0  0  0  0  0
   22.1584   -7.9470  -14.1974 C   0  0  0  0  0  0  0  0  0  0  0  0
   22.8671   -9.2427  -14.2906 C   0  0  0  0  0  0  0  0  0  0  0  0
   23.8013   -9.4005  -15.2908 C   0  0  0  0  0  0  0  0  0  0  0  0
   24.5084  -10.5970  -15.4381 C   0  0  0  0  0  0  0  0  0  0  0  0
   24.2777  -11.6303  -14.5842 C   0  0  0  0  0  0  0  0  0  0  0  0
   23.3570  -11.5018  -13.5832 C   0  0  0  0  0  0  0  0  0  0  0  0
   22.6636  -10.3129  -13.4475 C   0  0  0  0  0  0  0  0  0  0  0  0
   20.1693   -6.6399  -14.6173 C   0  0  0  0  0  0  0  0  0  0  0  0
   20.1910   -6.1469  -13.4813 O   0  0  0  0  0  0  0  0  0  0  0  0
   19.5836   -5.9184  -15.6892 N   0  0  0  0  0  0  0  0  0  0  0  0
   19.0977   -4.5745  -15.4811 C   0  0  0  0  0  0  0  0  0  0  0  0
   17.6742   -4.6375  -15.0971 C   0  0  0  0  0  0  0  0  0  0  0  0
   17.1138   -5.7465  -15.0173 O   0  0  0  0  0  0  0  0  0  0  0  0
   16.9821   -3.4754  -14.8316 O   0  0  0  0  0  0  0  0  0  0  0  0
  1  2  1  0
  2  3  2  0
  4  2  1  0
  5  6  1  0
  5  4  1  0
  6  8  1  0
  6  7  1  1
  8  9  2  0
  8 10  1  0
 10 11  1  0
 11 12  1  6
 12 13  1  0
 13 18  2  0
 14 15  2  0
 14 13  1  0
 15 16  1  0
 16 17  2  0
 18 17  1  0
 19 11  1  0
 19 20  2  0
 21 19  1  0
 22 21  1  0
 22 23  1  0
 23 24  2  0
 23 25  1  0
M  END
$$$$
