QFG.pdb
     RDKit          3D

 25 25  0  0  1  0  0  0  0  0999 V2000
   18.1842  -12.6163  -17.3473 N   0  0  0  0  0  0  0  0  0  0  0  0
   18.7885  -12.4994  -18.6208 C   0  0  0  0  0  0  0  0  0  0  0  0
   18.2279  -13.0475  -19.5857 O   0  0  0  0  0  0  0  0  0  0  0  0
   20.0370  -11.7521  -18.7792 C   0  0  0  0  0  0  0  0  0  0  0  0
   20.6058  -11.2016  -17.5020 C   0  0  0  0  0  0  0  0  0  0  0  0
   22.0726  -10.9589  -17.5207 C   0  0  2  0  0  0  0  0  0  0  0  0
   22.7300  -12.2062  -17.1284 N   0  0  0  0  0  0  0  0  0  0  0  0
   22.5060   -9.9321  -16.5248 C   0  0  0  0  0  0  0  0  0  0  0  0
   22.5054  -10.2558  -15.3132 O   0  0  0  0  0  0  0  0  0  0  0  0
   22.9109   -8.6280  -16.8915 N   0  0  0  0  0  0  0  0  0  0  0  0
   23.2923   -7.6281  -15.9547 C   0  0  1  0  0  0  0  0  0  0  0  0
   24.7424   -7.2316  -16.0232 C   0  0  0  0  0  0  0  0  0  0  0  0
   25.6554   -8.3961  -16.0221 C   0  0  0  0  0  0  0  0  0  0  0  0
   25.7444   -9.1495  -14.8720 C   0  0  0  0  0  0  0  0  0  0  0  0
   26.5861  -10.2628  -14.7998 C   0  0  0  0  0  0  0  0  0  0  0  0
   27.3350  -10.6176  -15.8784 C   0  0  0  0  0  0  0  0  0  0  0  0
   27.2667   -9.8888  -17.0319 C   0  0  0  0  0  0  0  0  0  0  0  0
   26.4301   -8.7892  -17.0911 C   0  0  0  0  0  0  0  0  0  0  0  0
   22.4822   -6.3763  -16.0600 C   0  0  0  0  0  0  0  0  0  0  0  0
   23.0358   -5.3790  -16.5425 O   0  0  0  0  0  0  0  0  0  0  0  0
   21.1311   -6.2975  -15.6345 N   0  0  0  0  0  0  0  0  0  0  0  0
   20.3792   -5.0793  -15.8247 C   0  0  0  0  0  0  0  0  0  0  0  0
   19.0453   -5.2437  -15.2151 C   0  0  0  0  0  0  0  0  0  0  0  0
   18.2905   -4.2574  -15.1273 O   0  0  0  0  0  0  0  0  0  0  0  0
   18.6492   -6.4800  -14.7516 O   0  0  0  0  0  0  0  0  0  0  0  0
  1  2  1  0
  2  3  2  0
  4  2  1  0
  5  6  1  0
  5  4  1  0
  6  8  1  0
  6  7  1  1
  8  9  2  0
  8 10  1  0
 10 11  1  0
 11 12  1  6
 12 13  1  0
 13 18  2  0
 14 15  2  0
 14 13  1  0
 15 16  1  0
 16 17  2  0
 18 17  1  0
 19 11  1  0
 19 20  2  0
 21 19  1  0
 22 21  1  0
 22 23  1  0
 23 24  2  0
 23 25  1  0
M  END
$$$$
