IQQ.pdb
     RDKit          3D

 27 26  0  0  1  0  0  0  0  0999 V2000
   20.3683  -14.5341  -17.4913 C   0  0  0  0  0  0  0  0  0  0  0  0
   19.3362  -14.0848  -16.4790 C   0  0  0  0  0  0  0  0  0  0  0  0
   18.9685  -12.6393  -16.7086 C   0  0  2  0  0  0  0  0  0  0  0  0
   20.2142  -11.8205  -16.6945 C   0  0  0  0  0  0  0  0  0  0  0  0
   17.8944  -12.1428  -15.8029 C   0  0  2  0  0  0  0  0  0  0  0  0
   16.8248  -13.1231  -15.7505 N   0  0  0  0  0  0  0  0  0  0  0  0
   17.4252  -10.7826  -16.0229 C   0  0  0  0  0  0  0  0  0  0  0  0
   17.1632  -10.4231  -17.2087 O   0  0  0  0  0  0  0  0  0  0  0  0
   12.9581   -7.6033  -14.7484 N   0  0  0  0  0  0  0  0  0  0  0  0
   13.6968   -6.4617  -15.1391 C   0  0  0  0  0  0  0  0  0  0  0  0
   13.1030   -5.4433  -15.5177 O   0  0  0  0  0  0  0  0  0  0  0  0
   15.1942   -6.5851  -15.0589 C   0  0  0  0  0  0  0  0  0  0  0  0
   15.5985   -7.9705  -14.6705 C   0  0  0  0  0  0  0  0  0  0  0  0
   16.7921   -8.4263  -15.3284 C   0  0  2  0  0  0  0  0  0  0  0  0
   17.2197   -9.7834  -15.0578 N   0  0  0  0  0  0  0  0  0  0  0  0
   17.9725   -7.5852  -14.8908 C   0  0  0  0  0  0  0  0  0  0  0  0
   18.7943   -7.9558  -14.0253 O   0  0  0  0  0  0  0  0  0  0  0  0
   21.5425   -6.4236  -12.8457 N   0  0  0  0  0  0  0  0  0  0  0  0
   22.2348   -5.4566  -13.6123 C   0  0  0  0  0  0  0  0  0  0  0  0
   23.1440   -4.7817  -13.1016 O   0  0  0  0  0  0  0  0  0  0  0  0
   21.8209   -5.2911  -15.0496 C   0  0  0  0  0  0  0  0  0  0  0  0
   20.6451   -6.1749  -15.3155 C   0  0  0  0  0  0  0  0  0  0  0  0
   19.3434   -5.4537  -15.0978 C   0  0  2  0  0  0  0  0  0  0  0  0
   18.2146   -6.3018  -15.4527 N   0  0  0  0  0  0  0  0  0  0  0  0
   19.2656   -4.2190  -15.8661 C   0  0  0  0  0  0  0  0  0  0  0  0
   18.4552   -4.1410  -16.8399 O   0  0  0  0  0  0  0  0  0  0  0  0
   20.0203   -3.1095  -15.6043 O   0  0  0  0  0  0  0  0  0  0  0  0
  1  2  1  0
  3  2  1  0
  3  4  1  1
  5  3  1  0
  5  6  1  6
  7  8  2  0
  7  5  1  0
  9 10  1  0
 10 11  2  0
 10 12  1  0
 12 13  1  0
 14 13  1  1
 14 15  1  0
 15  7  1  0
 16 14  1  0
 16 24  1  0
 17 16  2  0
 19 21  1  0
 19 18  1  0
 20 19  2  0
 23 22  1  6
 22 21  1  0
 23 24  1  0
 23 25  1  0
 25 27  1  0
 26 25  2  0
M  END
$$$$
