IQQ.pdb
     RDKit          3D

 27 26  0  0  1  0  0  0  0  0999 V2000
   29.7429  -20.7389  -10.6191 C   0  0  0  0  0  0  0  0  0  0  0  0
   28.4504  -21.5016  -10.8174 C   0  0  0  0  0  0  0  0  0  0  0  0
   27.3636  -20.5766  -11.3080 C   0  0  2  0  0  0  0  0  0  0  0  0
   27.2629  -19.4187  -10.3744 C   0  0  0  0  0  0  0  0  0  0  0  0
   26.0694  -21.2634  -11.5799 C   0  0  2  0  0  0  0  0  0  0  0  0
   26.3350  -22.5692  -12.1559 N   0  0  0  0  0  0  0  0  0  0  0  0
   25.0610  -20.5035  -12.3039 C   0  0  0  0  0  0  0  0  0  0  0  0
   24.3824  -19.6463  -11.6647 O   0  0  0  0  0  0  0  0  0  0  0  0
   24.9292  -17.9938  -17.8573 N   0  0  0  0  0  0  0  0  0  0  0  0
   23.6351  -17.6100  -17.4335 C   0  0  0  0  0  0  0  0  0  0  0  0
   22.9956  -16.7742  -18.0859 O   0  0  0  0  0  0  0  0  0  0  0  0
   23.1267  -18.2728  -16.1821 C   0  0  0  0  0  0  0  0  0  0  0  0
   24.1893  -19.1119  -15.5495 C   0  0  0  0  0  0  0  0  0  0  0  0
   23.7550  -19.7860  -14.3570 C   0  0  2  0  0  0  0  0  0  0  0  0
   24.7312  -20.6023  -13.6655 N   0  0  0  0  0  0  0  0  0  0  0  0
   22.6468  -20.7612  -14.6932 C   0  0  0  0  0  0  0  0  0  0  0  0
   22.8447  -21.9772  -14.9028 O   0  0  0  0  0  0  0  0  0  0  0  0
   20.6113  -21.8364  -10.2163 N   0  0  0  0  0  0  0  0  0  0  0  0
   19.3702  -22.2622  -10.7458 C   0  0  0  0  0  0  0  0  0  0  0  0
   18.5413  -22.8380  -10.0217 O   0  0  0  0  0  0  0  0  0  0  0  0
   19.1114  -21.9870  -12.2024 C   0  0  0  0  0  0  0  0  0  0  0  0
   20.3215  -21.3354  -12.7903 C   0  0  0  0  0  0  0  0  0  0  0  0
   20.1617  -21.0874  -14.2651 C   0  0  2  0  0  0  0  0  0  0  0  0
   21.2932  -20.3373  -14.7908 N   0  0  0  0  0  0  0  0  0  0  0  0
   18.9344  -20.3651  -14.5697 C   0  0  0  0  0  0  0  0  0  0  0  0
   18.9160  -19.0996  -14.4738 O   0  0  0  0  0  0  0  0  0  0  0  0
   17.7728  -20.9685  -14.9642 O   0  0  0  0  0  0  0  0  0  0  0  0
  1  2  1  0
  3  2  1  0
  3  4  1  1
  5  3  1  0
  5  6  1  6
  7  8  2  0
  7  5  1  0
  9 10  1  0
 10 11  2  0
 10 12  1  0
 12 13  1  0
 14 13  1  6
 14 15  1  0
 15  7  1  0
 16 14  1  0
 16 24  1  0
 17 16  2  0
 19 21  1  0
 19 18  1  0
 20 19  2  0
 23 22  1  1
 22 21  1  0
 23 24  1  0
 23 25  1  0
 25 27  1  0
 26 25  2  0
M  END
$$$$
