IQQ.pdb
     RDKit          3D

 27 26  0  0  1  0  0  0  0  0999 V2000
   18.4928  -20.9278  -17.5198 C   0  0  0  0  0  0  0  0  0  0  0  0
   19.1765  -21.0924  -16.1792 C   0  0  0  0  0  0  0  0  0  0  0  0
   18.4924  -22.1654  -15.3679 C   0  0  2  0  0  0  0  0  0  0  0  0
   17.0434  -21.8323  -15.2588 C   0  0  0  0  0  0  0  0  0  0  0  0
   19.1592  -22.4492  -14.0659 C   0  0  2  0  0  0  0  0  0  0  0  0
   20.5957  -22.5031  -14.2683 N   0  0  0  0  0  0  0  0  0  0  0  0
   18.6397  -23.5662  -13.2906 C   0  0  0  0  0  0  0  0  0  0  0  0
   17.3838  -23.7117  -13.2158 O   0  0  0  0  0  0  0  0  0  0  0  0
   21.3910  -28.5518  -10.5441 N   0  0  0  0  0  0  0  0  0  0  0  0
   20.0661  -28.7279  -10.0801 C   0  0  0  0  0  0  0  0  0  0  0  0
   19.7884  -29.6978   -9.3622 O   0  0  0  0  0  0  0  0  0  0  0  0
   19.0710  -27.6858  -10.5131 C   0  0  0  0  0  0  0  0  0  0  0  0
   19.7250  -26.6340  -11.3496 C   0  0  0  0  0  0  0  0  0  0  0  0
   18.8143  -25.6288  -11.8241 C   0  0  2  0  0  0  0  0  0  0  0  0
   19.3760  -24.5355  -12.5902 N   0  0  0  0  0  0  0  0  0  0  0  0
   18.1528  -24.9398  -10.6494 C   0  0  0  0  0  0  0  0  0  0  0  0
   18.4927  -23.8098  -10.2378 O   0  0  0  0  0  0  0  0  0  0  0  0
   14.2784  -21.8975  -11.4686 N   0  0  0  0  0  0  0  0  0  0  0  0
   13.7931  -21.9667  -10.1414 C   0  0  0  0  0  0  0  0  0  0  0  0
   12.8859  -21.2075   -9.7626 O   0  0  0  0  0  0  0  0  0  0  0  0
   14.4200  -22.9873   -9.2305 C   0  0  0  0  0  0  0  0  0  0  0  0
   15.4637  -23.7364   -9.9949 C   0  0  0  0  0  0  0  0  0  0  0  0
   16.0907  -24.8235   -9.1662 C   0  0  2  0  0  0  0  0  0  0  0  0
   17.0870  -25.5540   -9.9364 N   0  0  0  0  0  0  0  0  0  0  0  0
   15.1025  -25.7656   -8.6594 C   0  0  0  0  0  0  0  0  0  0  0  0
   14.9935  -26.9072   -9.2035 O   0  0  0  0  0  0  0  0  0  0  0  0
   14.2652  -25.5019   -7.6114 O   0  0  0  0  0  0  0  0  0  0  0  0
  1  2  1  0
  3  2  1  0
  3  4  1  1
  5  3  1  0
  5  6  1  6
  7  8  2  0
  7  5  1  0
  9 10  1  0
 10 11  2  0
 10 12  1  0
 12 13  1  0
 14 13  1  1
 14 15  1  0
 15  7  1  0
 16 14  1  0
 16 24  1  0
 17 16  2  0
 19 21  1  0
 19 18  1  0
 20 19  2  0
 23 22  1  6
 22 21  1  0
 23 24  1  0
 23 25  1  0
 25 27  1  0
 26 25  2  0
M  END
$$$$
