IQQ.pdb
     RDKit          3D

 27 26  0  0  1  0  0  0  0  0999 V2000
   28.4816  -17.7352  -18.5528 C   0  0  0  0  0  0  0  0  0  0  0  0
   28.8632  -18.8633  -17.6182 C   0  0  0  0  0  0  0  0  0  0  0  0
   27.6815  -19.2670  -16.7709 C   0  0  2  0  0  0  0  0  0  0  0  0
   27.1734  -18.0631  -16.0534 C   0  0  0  0  0  0  0  0  0  0  0  0
   27.9468  -20.4414  -15.8929 C   0  0  2  0  0  0  0  0  0  0  0  0
   28.4567  -21.5345  -16.7008 N   0  0  0  0  0  0  0  0  0  0  0  0
   26.8802  -20.8385  -14.9854 C   0  0  0  0  0  0  0  0  0  0  0  0
   25.9580  -21.5823  -15.4330 O   0  0  0  0  0  0  0  0  0  0  0  0
   26.1226  -20.1986   -8.7441 N   0  0  0  0  0  0  0  0  0  0  0  0
   24.9389  -20.9078   -9.0562 C   0  0  0  0  0  0  0  0  0  0  0  0
   24.1654  -21.2450   -8.1500 O   0  0  0  0  0  0  0  0  0  0  0  0
   24.7112  -21.2032  -10.5138 C   0  0  0  0  0  0  0  0  0  0  0  0
   25.8631  -20.7345  -11.3427 C   0  0  0  0  0  0  0  0  0  0  0  0
   25.6832  -20.9525  -12.7517 C   0  0  2  0  0  0  0  0  0  0  0  0
   26.7361  -20.4906  -13.6325 N   0  0  0  0  0  0  0  0  0  0  0  0
   24.4588  -20.2043  -13.2347 C   0  0  0  0  0  0  0  0  0  0  0  0
   24.3938  -18.9574  -13.2857 O   0  0  0  0  0  0  0  0  0  0  0  0
   21.4185  -21.2158  -18.1375 N   0  0  0  0  0  0  0  0  0  0  0  0
   20.4447  -20.3511  -17.5844 C   0  0  0  0  0  0  0  0  0  0  0  0
   19.4855  -19.9621  -18.2712 O   0  0  0  0  0  0  0  0  0  0  0  0
   20.6272  -19.9352  -16.1498 C   0  0  0  0  0  0  0  0  0  0  0  0
   21.8404  -20.6163  -15.6031 C   0  0  0  0  0  0  0  0  0  0  0  0
   22.0943  -20.2394  -14.1694 C   0  0  2  0  0  0  0  0  0  0  0  0
   23.2926  -20.8945  -13.6651 N   0  0  0  0  0  0  0  0  0  0  0  0
   20.9719  -20.5796  -13.3060 C   0  0  0  0  0  0  0  0  0  0  0  0
   21.1143  -21.4828  -12.4256 O   0  0  0  0  0  0  0  0  0  0  0  0
   19.7463  -19.9780  -13.3767 O   0  0  0  0  0  0  0  0  0  0  0  0
  1  2  1  0
  3  2  1  0
  3  4  1  1
  5  3  1  0
  5  6  1  6
  7  8  2  0
  7  5  1  0
  9 10  1  0
 10 11  2  0
 10 12  1  0
 12 13  1  0
 14 13  1  1
 14 15  1  0
 15  7  1  0
 16 14  1  0
 16 24  1  0
 17 16  2  0
 19 21  1  0
 19 18  1  0
 20 19  2  0
 23 22  1  6
 22 21  1  0
 23 24  1  0
 23 25  1  0
 25 27  1  0
 26 25  2  0
M  END
$$$$
