IQQ.pdb
     RDKit          3D

 27 26  0  0  1  0  0  0  0  0999 V2000
   27.9144  -16.5558  -18.0826 C   0  0  0  0  0  0  0  0  0  0  0  0
   28.5906  -16.8609  -16.7629 C   0  0  0  0  0  0  0  0  0  0  0  0
   27.9330  -18.0442  -16.0960 C   0  0  2  0  0  0  0  0  0  0  0  0
   28.0692  -19.2322  -16.9863 C   0  0  0  0  0  0  0  0  0  0  0  0
   26.5416  -17.7757  -15.6352 C   0  0  2  0  0  0  0  0  0  0  0  0
   26.5211  -16.5368  -14.8786 N   0  0  0  0  0  0  0  0  0  0  0  0
   25.8442  -18.8702  -14.9761 C   0  0  0  0  0  0  0  0  0  0  0  0
   25.5090  -19.8735  -15.6725 O   0  0  0  0  0  0  0  0  0  0  0  0
   25.3731  -20.7192   -9.0323 N   0  0  0  0  0  0  0  0  0  0  0  0
   26.5268  -20.9037   -9.8300 C   0  0  0  0  0  0  0  0  0  0  0  0
   27.5983  -21.2247   -9.2991 O   0  0  0  0  0  0  0  0  0  0  0  0
   26.3489  -20.6866  -11.3082 C   0  0  0  0  0  0  0  0  0  0  0  0
   24.9411  -20.3002  -11.6283 C   0  0  0  0  0  0  0  0  0  0  0  0
   24.7207  -20.0371  -13.0238 C   0  0  2  0  0  0  0  0  0  0  0  0
   25.4818  -18.9599  -13.6223 N   0  0  0  0  0  0  0  0  0  0  0  0
   23.2811  -19.6254  -13.2475 C   0  0  0  0  0  0  0  0  0  0  0  0
   22.9157  -18.4338  -13.3395 O   0  0  0  0  0  0  0  0  0  0  0  0
   19.5298  -17.6625  -16.4126 N   0  0  0  0  0  0  0  0  0  0  0  0
   19.1448  -18.9921  -16.7060 C   0  0  0  0  0  0  0  0  0  0  0  0
   18.3131  -19.2240  -17.5989 O   0  0  0  0  0  0  0  0  0  0  0  0
   19.7823  -20.0888  -15.8966 C   0  0  0  0  0  0  0  0  0  0  0  0
   20.7524  -19.4765  -14.9381 C   0  0  0  0  0  0  0  0  0  0  0  0
   20.8574  -20.2709  -13.6654 C   0  0  2  0  0  0  0  0  0  0  0  0
   22.2456  -20.5923  -13.3674 N   0  0  0  0  0  0  0  0  0  0  0  0
   20.0895  -21.5069  -13.7256 C   0  0  0  0  0  0  0  0  0  0  0  0
   18.8527  -21.4866  -13.4406 O   0  0  0  0  0  0  0  0  0  0  0  0
   20.6189  -22.7168  -14.0789 O   0  0  0  0  0  0  0  0  0  0  0  0
  1  2  1  0
  3  2  1  0
  3  4  1  6
  5  3  1  0
  5  6  1  1
  7  8  2  0
  7  5  1  0
  9 10  1  0
 10 11  2  0
 10 12  1  0
 12 13  1  0
 14 13  1  1
 14 15  1  0
 15  7  1  0
 16 14  1  0
 16 24  1  0
 17 16  2  0
 19 21  1  0
 19 18  1  0
 20 19  2  0
 23 22  1  6
 22 21  1  0
 23 24  1  0
 23 25  1  0
 25 27  1  0
 26 25  2  0
M  END
$$$$
