IQQ.pdb
     RDKit          3D

 27 26  0  0  1  0  0  0  0  0999 V2000
   20.4727  -10.9003    6.3184 C   0  0  0  0  0  0  0  0  0  0  0  0
   19.2528  -11.3866    5.5652 C   0  0  0  0  0  0  0  0  0  0  0  0
   18.8187  -12.7362    6.0824 C   0  0  2  0  0  0  0  0  0  0  0  0
   19.9881  -13.6602    6.0496 C   0  0  0  0  0  0  0  0  0  0  0  0
   17.5949  -13.2672    5.4184 C   0  0  2  0  0  0  0  0  0  0  0  0
   16.4871  -12.3627    5.6679 N   0  0  0  0  0  0  0  0  0  0  0  0
   17.2691  -14.6650    5.6606 C   0  0  0  0  0  0  0  0  0  0  0  0
   16.7889  -14.9820    6.7888 O   0  0  0  0  0  0  0  0  0  0  0  0
   16.2166  -19.7113    2.0969 N   0  0  0  0  0  0  0  0  0  0  0  0
   16.3337  -20.3425    3.3577 C   0  0  0  0  0  0  0  0  0  0  0  0
   16.0860  -21.5507    3.4674 O   0  0  0  0  0  0  0  0  0  0  0  0
   16.7644  -19.4621    4.4992 C   0  0  0  0  0  0  0  0  0  0  0  0
   16.9232  -18.0445    4.0533 C   0  0  0  0  0  0  0  0  0  0  0  0
   17.2697  -17.1430    5.1174 C   0  0  2  0  0  0  0  0  0  0  0  0
   17.4248  -15.7441    4.7755 N   0  0  0  0  0  0  0  0  0  0  0  0
   18.6177  -17.5222    5.6931 C   0  0  0  0  0  0  0  0  0  0  0  0
   19.6893  -16.9857    5.3386 O   0  0  0  0  0  0  0  0  0  0  0  0
   21.3981  -15.3586    9.2413 N   0  0  0  0  0  0  0  0  0  0  0  0
   22.2374  -16.4864    9.4006 C   0  0  0  0  0  0  0  0  0  0  0  0
   23.3154  -16.3877   10.0098 O   0  0  0  0  0  0  0  0  0  0  0  0
   21.7662  -17.7859    8.8059 C   0  0  0  0  0  0  0  0  0  0  0  0
   20.4936  -17.5397    8.0613 C   0  0  0  0  0  0  0  0  0  0  0  0
   19.9602  -18.7986    7.4348 C   0  0  2  0  0  0  0  0  0  0  0  0
   18.7395  -18.5300    6.6885 N   0  0  0  0  0  0  0  0  0  0  0  0
   19.6901  -19.8319    8.4250 C   0  0  0  0  0  0  0  0  0  0  0  0
   20.6547  -20.3376    9.0769 O   0  0  0  0  0  0  0  0  0  0  0  0
   18.4399  -20.3053    8.7109 O   0  0  0  0  0  0  0  0  0  0  0  0
  1  2  1  0
  3  2  1  0
  3  4  1  6
  5  3  1  0
  5  6  1  1
  7  8  2  0
  7  5  1  0
  9 10  1  0
 10 11  2  0
 10 12  1  0
 12 13  1  0
 14 13  1  6
 14 15  1  0
 15  7  1  0
 16 14  1  0
 16 24  1  0
 17 16  2  0
 19 21  1  0
 19 18  1  0
 20 19  2  0
 23 22  1  1
 22 21  1  0
 23 24  1  0
 23 25  1  0
 25 27  1  0
 26 25  2  0
M  END
$$$$
