IQQ.pdb
     RDKit          3D

 27 26  0  0  1  0  0  0  0  0999 V2000
   24.4309  -12.2322  -19.5838 C   0  0  0  0  0  0  0  0  0  0  0  0
   25.5799  -12.8665  -18.8293 C   0  0  0  0  0  0  0  0  0  0  0  0
   25.2140  -14.2634  -18.3909 C   0  0  2  0  0  0  0  0  0  0  0  0
   23.8790  -14.2229  -17.7286 C   0  0  0  0  0  0  0  0  0  0  0  0
   26.2767  -14.9394  -17.5946 C   0  0  2  0  0  0  0  0  0  0  0  0
   27.5265  -14.8932  -18.3320 N   0  0  0  0  0  0  0  0  0  0  0  0
   25.9633  -16.2586  -17.0654 C   0  0  0  0  0  0  0  0  0  0  0  0
   25.9248  -17.2346  -17.8716 O   0  0  0  0  0  0  0  0  0  0  0  0
   28.4021  -18.7722  -15.4078 N   0  0  0  0  0  0  0  0  0  0  0  0
   27.8413  -19.9547  -14.8704 C   0  0  0  0  0  0  0  0  0  0  0  0
   28.4027  -21.0425  -15.0559 O   0  0  0  0  0  0  0  0  0  0  0  0
   26.5653  -19.7853  -14.0914 C   0  0  0  0  0  0  0  0  0  0  0  0
   26.1409  -18.3526  -14.0614 C   0  0  0  0  0  0  0  0  0  0  0  0
   25.4314  -17.9388  -15.2407 C   0  0  2  0  0  0  0  0  0  0  0  0
   25.6874  -16.6004  -15.7315 N   0  0  0  0  0  0  0  0  0  0  0  0
   23.9416  -17.9422  -14.9711 C   0  0  0  0  0  0  0  0  0  0  0  0
   23.3233  -16.9504  -14.5286 O   0  0  0  0  0  0  0  0  0  0  0  0
   19.8730  -15.9527  -15.8905 N   0  0  0  0  0  0  0  0  0  0  0  0
   18.9773  -17.0460  -15.8238 C   0  0  0  0  0  0  0  0  0  0  0  0
   17.7753  -16.8604  -15.5716 O   0  0  0  0  0  0  0  0  0  0  0  0
   19.5448  -18.4179  -16.0693 C   0  0  0  0  0  0  0  0  0  0  0  0
   21.0345  -18.3161  -16.1383 C   0  0  0  0  0  0  0  0  0  0  0  0
   21.7009  -19.1400  -15.0711 C   0  0  2  0  0  0  0  0  0  0  0  0
   23.1493  -19.0980  -15.2117 N   0  0  0  0  0  0  0  0  0  0  0  0
   21.2645  -20.5292  -15.0985 C   0  0  0  0  0  0  0  0  0  0  0  0
   22.0379  -21.4160  -15.5746 O   0  0  0  0  0  0  0  0  0  0  0  0
   20.0519  -20.9565  -14.6338 O   0  0  0  0  0  0  0  0  0  0  0  0
  1  2  1  0
  3  2  1  0
  3  4  1  1
  5  3  1  0
  5  6  1  6
  7  8  2  0
  7  5  1  0
  9 10  1  0
 10 11  2  0
 10 12  1  0
 12 13  1  0
 14 13  1  1
 14 15  1  0
 15  7  1  0
 16 14  1  0
 16 24  1  0
 17 16  2  0
 19 21  1  0
 19 18  1  0
 20 19  2  0
 23 22  1  6
 22 21  1  0
 23 24  1  0
 23 25  1  0
 25 27  1  0
 26 25  2  0
M  END
$$$$
