IQQ.pdb
     RDKit          3D

 27 26  0  0  1  0  0  0  0  0999 V2000
   29.4807  -18.0414  -17.5620 C   0  0  0  0  0  0  0  0  0  0  0  0
   28.2124  -17.7763  -18.3449 C   0  0  0  0  0  0  0  0  0  0  0  0
   27.1206  -17.2839  -17.4268 C   0  0  2  0  0  0  0  0  0  0  0  0
   27.0289  -18.2026  -16.2563 C   0  0  0  0  0  0  0  0  0  0  0  0
   25.8240  -17.0341  -18.1173 C   0  0  2  0  0  0  0  0  0  0  0  0
   26.0410  -16.1156  -19.2204 N   0  0  0  0  0  0  0  0  0  0  0  0
   24.6901  -16.6758  -17.2779 C   0  0  0  0  0  0  0  0  0  0  0  0
   24.7879  -15.6477  -16.5448 O   0  0  0  0  0  0  0  0  0  0  0  0
   19.0434  -14.8096  -16.7356 N   0  0  0  0  0  0  0  0  0  0  0  0
   20.2161  -14.0583  -16.9841 C   0  0  0  0  0  0  0  0  0  0  0  0
   20.1530  -12.8239  -17.0582 O   0  0  0  0  0  0  0  0  0  0  0  0
   21.4858  -14.8496  -17.1432 C   0  0  0  0  0  0  0  0  0  0  0  0
   21.2480  -16.3029  -16.8880 C   0  0  0  0  0  0  0  0  0  0  0  0
   22.3713  -16.9730  -16.2928 C   0  0  2  0  0  0  0  0  0  0  0  0
   23.4607  -17.3462  -17.1713 N   0  0  0  0  0  0  0  0  0  0  0  0
   21.9255  -18.2909  -15.6958 C   0  0  0  0  0  0  0  0  0  0  0  0
   22.0151  -19.3816  -16.2993 O   0  0  0  0  0  0  0  0  0  0  0  0
   20.9655  -19.2954   -9.6332 N   0  0  0  0  0  0  0  0  0  0  0  0
   20.6248  -20.5818  -10.1138 C   0  0  0  0  0  0  0  0  0  0  0  0
   20.4113  -21.5138   -9.3209 O   0  0  0  0  0  0  0  0  0  0  0  0
   20.5361  -20.7591  -11.6055 C   0  0  0  0  0  0  0  0  0  0  0  0
   20.9749  -19.4922  -12.2666 C   0  0  0  0  0  0  0  0  0  0  0  0
   20.8977  -19.5882  -13.7655 C   0  0  2  0  0  0  0  0  0  0  0  0
   21.3693  -18.3602  -14.3891 N   0  0  0  0  0  0  0  0  0  0  0  0
   19.5444  -19.8628  -14.2283 C   0  0  0  0  0  0  0  0  0  0  0  0
   18.7432  -18.8970  -14.4192 O   0  0  0  0  0  0  0  0  0  0  0  0
   19.0652  -21.1180  -14.4807 O   0  0  0  0  0  0  0  0  0  0  0  0
  1  2  1  0
  3  2  1  0
  3  4  1  1
  5  3  1  0
  5  6  1  6
  7  8  2  0
  7  5  1  0
  9 10  1  0
 10 11  2  0
 10 12  1  0
 12 13  1  0
 14 13  1  6
 14 15  1  0
 15  7  1  0
 16 14  1  0
 16 24  1  0
 17 16  2  0
 19 21  1  0
 19 18  1  0
 20 19  2  0
 23 22  1  1
 22 21  1  0
 23 24  1  0
 23 25  1  0
 25 27  1  0
 26 25  2  0
M  END
$$$$
