IQQ.pdb
     RDKit          3D

 27 26  0  0  1  0  0  0  0  0999 V2000
   16.6108  -17.2035  -17.1923 C   0  0  0  0  0  0  0  0  0  0  0  0
   17.9907  -17.7499  -16.8938 C   0  0  0  0  0  0  0  0  0  0  0  0
   18.8715  -16.6683  -16.3177 C   0  0  2  0  0  0  0  0  0  0  0  0
   18.8537  -15.4957  -17.2381 C   0  0  0  0  0  0  0  0  0  0  0  0
   20.2355  -17.1401  -15.9471 C   0  0  2  0  0  0  0  0  0  0  0  0
   20.1194  -18.2888  -15.0670 N   0  0  0  0  0  0  0  0  0  0  0  0
   21.1720  -16.1340  -15.4681 C   0  0  0  0  0  0  0  0  0  0  0  0
   20.9508  -15.5962  -14.3430 O   0  0  0  0  0  0  0  0  0  0  0  0
   27.1964  -14.9330  -16.4850 N   0  0  0  0  0  0  0  0  0  0  0  0
   26.8586  -13.7342  -15.8139 C   0  0  0  0  0  0  0  0  0  0  0  0
   27.7448  -12.9197  -15.5237 O   0  0  0  0  0  0  0  0  0  0  0  0
   25.4000  -13.5430  -15.4981 C   0  0  0  0  0  0  0  0  0  0  0  0
   24.5926  -14.7117  -15.9624 C   0  0  0  0  0  0  0  0  0  0  0  0
   23.1984  -14.6162  -15.6276 C   0  0  2  0  0  0  0  0  0  0  0  0
   22.3274  -15.6658  -16.1147 N   0  0  0  0  0  0  0  0  0  0  0  0
   22.6113  -13.3565  -16.2281 C   0  0  0  0  0  0  0  0  0  0  0  0
   22.1442  -13.3029  -17.3860 O   0  0  0  0  0  0  0  0  0  0  0  0
   21.7713   -8.0358  -13.0126 N   0  0  0  0  0  0  0  0  0  0  0  0
   21.2864   -7.5971  -14.2673 C   0  0  0  0  0  0  0  0  0  0  0  0
   20.8677   -6.4363  -14.4094 O   0  0  0  0  0  0  0  0  0  0  0  0
   21.3036   -8.5896  -15.3983 C   0  0  0  0  0  0  0  0  0  0  0  0
   21.9084   -9.8657  -14.9081 C   0  0  0  0  0  0  0  0  0  0  0  0
   21.9668  -10.9083  -15.9904 C   0  0  2  0  0  0  0  0  0  0  0  0
   22.5588  -12.1413  -15.4919 N   0  0  0  0  0  0  0  0  0  0  0  0
   22.7257  -10.4550  -17.1479 C   0  0  0  0  0  0  0  0  0  0  0  0
   23.9871  -10.5957  -17.1600 O   0  0  0  0  0  0  0  0  0  0  0  0
   22.1611   -9.8770  -18.2507 O   0  0  0  0  0  0  0  0  0  0  0  0
  1  2  1  0
  3  2  1  0
  3  4  1  6
  5  3  1  0
  5  6  1  1
  7  8  2  0
  7  5  1  0
  9 10  1  0
 10 11  2  0
 10 12  1  0
 12 13  1  0
 14 13  1  6
 14 15  1  0
 15  7  1  0
 16 14  1  0
 16 24  1  0
 17 16  2  0
 19 21  1  0
 19 18  1  0
 20 19  2  0
 23 22  1  1
 22 21  1  0
 23 24  1  0
 23 25  1  0
 25 27  1  0
 26 25  2  0
M  END
$$$$
