IQQ.pdb
     RDKit          3D

 27 26  0  0  1  0  0  0  0  0999 V2000
   18.5054  -16.8842  -20.3229 C   0  0  0  0  0  0  0  0  0  0  0  0
   19.0081  -16.2962  -19.0216 C   0  0  0  0  0  0  0  0  0  0  0  0
   18.6451  -14.8343  -18.9299 C   0  0  2  0  0  0  0  0  0  0  0  0
   19.2010  -14.1275  -20.1189 C   0  0  0  0  0  0  0  0  0  0  0  0
   18.9953  -14.2105  -17.6227 C   0  0  2  0  0  0  0  0  0  0  0  0
   18.4694  -15.0316  -16.5471 N   0  0  0  0  0  0  0  0  0  0  0  0
   18.6990  -12.7937  -17.4696 C   0  0  0  0  0  0  0  0  0  0  0  0
   19.1507  -11.9895  -18.3375 O   0  0  0  0  0  0  0  0  0  0  0  0
   13.6468   -9.8175  -15.9437 N   0  0  0  0  0  0  0  0  0  0  0  0
   14.5029   -8.6911  -15.9452 C   0  0  0  0  0  0  0  0  0  0  0  0
   14.0322   -7.5591  -15.7713 O   0  0  0  0  0  0  0  0  0  0  0  0
   15.9643   -8.9730  -16.1657 C   0  0  0  0  0  0  0  0  0  0  0  0
   16.2220  -10.4432  -16.2404 C   0  0  0  0  0  0  0  0  0  0  0  0
   17.6128  -10.7762  -16.3808 C   0  0  2  0  0  0  0  0  0  0  0  0
   17.9530  -12.1824  -16.4489 N   0  0  0  0  0  0  0  0  0  0  0  0
   18.3838  -10.2795  -15.1762 C   0  0  0  0  0  0  0  0  0  0  0  0
   18.4478  -10.9071  -14.0974 O   0  0  0  0  0  0  0  0  0  0  0  0
   22.0667   -5.2034  -15.1938 N   0  0  0  0  0  0  0  0  0  0  0  0
   22.1224   -5.4937  -13.8101 C   0  0  0  0  0  0  0  0  0  0  0  0
   22.7859   -4.7767  -13.0428 O   0  0  0  0  0  0  0  0  0  0  0  0
   21.3519   -6.6920  -13.3255 C   0  0  0  0  0  0  0  0  0  0  0  0
   20.6255   -7.2963  -14.4838 C   0  0  0  0  0  0  0  0  0  0  0  0
   19.7913   -8.4759  -14.0663 C   0  0  2  0  0  0  0  0  0  0  0  0
   19.0912   -9.0466  -15.2081 N   0  0  0  0  0  0  0  0  0  0  0  0
   18.8165   -8.1235  -13.0433 C   0  0  0  0  0  0  0  0  0  0  0  0
   19.0988   -8.3160  -11.8209 O   0  0  0  0  0  0  0  0  0  0  0  0
   17.5896   -7.5840  -13.3132 O   0  0  0  0  0  0  0  0  0  0  0  0
  1  2  1  0
  3  2  1  0
  3  4  1  6
  5  3  1  0
  5  6  1  1
  7  8  2  0
  7  5  1  0
  9 10  1  0
 10 11  2  0
 10 12  1  0
 12 13  1  0
 14 13  1  1
 14 15  1  0
 15  7  1  0
 16 14  1  0
 16 24  1  0
 17 16  2  0
 19 21  1  0
 19 18  1  0
 20 19  2  0
 23 22  1  6
 22 21  1  0
 23 24  1  0
 23 25  1  0
 25 27  1  0
 26 25  2  0
M  END
$$$$
