IQQ.pdb
     RDKit          3D

 27 26  0  0  1  0  0  0  0  0999 V2000
   29.0519  -12.1684  -16.4615 C   0  0  0  0  0  0  0  0  0  0  0  0
   27.6998  -12.8244  -16.2790 C   0  0  0  0  0  0  0  0  0  0  0  0
   26.5941  -11.8235  -16.5092 C   0  0  2  0  0  0  0  0  0  0  0  0
   26.7575  -10.6992  -15.5440 C   0  0  0  0  0  0  0  0  0  0  0  0
   25.2323  -12.4281  -16.5262 C   0  0  2  0  0  0  0  0  0  0  0  0
   25.2428  -13.6018  -17.3806 N   0  0  0  0  0  0  0  0  0  0  0  0
   24.1171  -11.5299  -16.7874 C   0  0  0  0  0  0  0  0  0  0  0  0
   23.9883  -11.0576  -17.9554 O   0  0  0  0  0  0  0  0  0  0  0  0
   18.3153  -11.3705  -14.8345 N   0  0  0  0  0  0  0  0  0  0  0  0
   18.2843  -10.2302  -15.6714 C   0  0  0  0  0  0  0  0  0  0  0  0
   17.1989   -9.7153  -15.9714 O   0  0  0  0  0  0  0  0  0  0  0  0
   19.6192   -9.7212  -16.1433 C   0  0  0  0  0  0  0  0  0  0  0  0
   20.7256  -10.6196  -15.6935 C   0  0  0  0  0  0  0  0  0  0  0  0
   22.0166  -10.2365  -16.1952 C   0  0  2  0  0  0  0  0  0  0  0  0
   23.1329  -11.1039  -15.8806 N   0  0  0  0  0  0  0  0  0  0  0  0
   22.4220   -8.9029  -15.6041 C   0  0  0  0  0  0  0  0  0  0  0  0
   23.0938   -8.7940  -14.5560 O   0  0  0  0  0  0  0  0  0  0  0  0
   24.3820   -2.0947  -17.4477 N   0  0  0  0  0  0  0  0  0  0  0  0
   23.9851   -3.4368  -17.6551 C   0  0  0  0  0  0  0  0  0  0  0  0
   24.0479   -3.9439  -18.7873 O   0  0  0  0  0  0  0  0  0  0  0  0
   23.4928   -4.2031  -16.4573 C   0  0  0  0  0  0  0  0  0  0  0  0
   23.0262   -5.5500  -16.9074 C   0  0  0  0  0  0  0  0  0  0  0  0
   22.4889   -6.3661  -15.7641 C   0  0  2  0  0  0  0  0  0  0  0  0
   22.0524   -7.6771  -16.2224 N   0  0  0  0  0  0  0  0  0  0  0  0
   21.3767   -5.7060  -15.0945 C   0  0  0  0  0  0  0  0  0  0  0  0
   20.1873   -5.9899  -15.4350 O   0  0  0  0  0  0  0  0  0  0  0  0
   21.5268   -4.7815  -14.0987 O   0  0  0  0  0  0  0  0  0  0  0  0
  1  2  1  0
  3  2  1  0
  3  4  1  1
  5  3  1  0
  5  6  1  6
  7  8  2  0
  7  5  1  0
  9 10  1  0
 10 11  2  0
 10 12  1  0
 12 13  1  0
 14 13  1  1
 14 15  1  0
 15  7  1  0
 16 14  1  0
 16 24  1  0
 17 16  2  0
 19 21  1  0
 19 18  1  0
 20 19  2  0
 23 22  1  6
 22 21  1  0
 23 24  1  0
 23 25  1  0
 25 27  1  0
 26 25  2  0
M  END
$$$$
