YMC.pdb
     RDKit          3D

 27 27  0  0  1  0  0  0  0  0999 V2000
   16.6565  -23.9940  -12.3523 O   0  0  0  0  0  0  0  0  0  0  0  0
   17.9214  -23.4677  -12.3339 C   0  0  0  0  0  0  0  0  0  0  0  0
   18.4940  -23.0571  -13.5305 C   0  0  0  0  0  0  0  0  0  0  0  0
   19.7838  -22.5275  -13.4620 C   0  0  0  0  0  0  0  0  0  0  0  0
   20.4600  -22.4155  -12.2676 C   0  0  0  0  0  0  0  0  0  0  0  0
   21.8309  -21.8415  -12.2599 C   0  0  0  0  0  0  0  0  0  0  0  0
   21.9248  -20.6387  -11.3524 C   0  0  2  0  0  0  0  0  0  0  0  0
   21.1238  -19.5790  -11.9402 N   0  0  0  0  0  0  0  0  0  0  0  0
   23.3596  -20.2342  -11.2801 C   0  0  0  0  0  0  0  0  0  0  0  0
   23.9171  -19.5076  -12.1428 O   0  0  0  0  0  0  0  0  0  0  0  0
   19.8750  -22.8296  -11.0843 C   0  0  0  0  0  0  0  0  0  0  0  0
   18.6023  -23.3548  -11.1322 C   0  0  0  0  0  0  0  0  0  0  0  0
   27.8471  -18.6944   -5.9364 C   0  0  0  0  0  0  0  0  0  0  0  0
   27.9795  -20.3039   -6.7490 S   0  0  0  0  0  0  0  0  0  0  0  0
   27.4099  -20.2468   -8.4590 C   0  0  0  0  0  0  0  0  0  0  0  0
   25.9507  -20.5645   -8.5886 C   0  0  0  0  0  0  0  0  0  0  0  0
   25.5465  -20.4053  -10.0335 C   0  0  2  0  0  0  0  0  0  0  0  0
   24.1305  -20.6998  -10.1731 N   0  0  0  0  0  0  0  0  0  0  0  0
   26.3453  -21.2658  -10.9355 C   0  0  0  0  0  0  0  0  0  0  0  0
   26.2546  -22.5083  -10.8129 O   0  0  0  0  0  0  0  0  0  0  0  0
   27.1986  -20.7221  -11.9212 N   0  0  0  0  0  0  0  0  0  0  0  0
   27.2233  -21.2793  -13.2539 C   0  0  1  0  0  0  0  0  0  0  0  0
   25.7732  -21.4228  -13.6984 C   0  0  0  0  0  0  0  0  0  0  0  0
   25.6665  -22.4170  -15.1884 S   0  0  0  0  0  0  0  0  0  0  0  0
   27.9940  -20.4053  -14.1886 C   0  0  0  0  0  0  0  0  0  0  0  0
   28.8915  -20.8388  -14.9322 O   0  0  0  0  0  0  0  0  0  0  0  0
   27.6963  -19.0606  -14.2273 O   0  0  0  0  0  0  0  0  0  0  0  0
  2  3  2  0
  2  1  1  0
  4  3  1  0
  5  4  2  0
  6  7  1  0
  6  5  1  0
  7  9  1  0
  7  8  1  6
  9 10  2  0
  9 18  1  0
 11  5  1  0
 11 12  2  0
 12  2  1  0
 14 13  1  0
 15 14  1  0
 16 15  1  0
 17 16  1  1
 17 19  1  0
 18 17  1  0
 19 20  2  0
 21 19  1  0
 21 22  1  0
 22 23  1  6
 23 24  1  0
 25 22  1  0
 25 27  1  0
 26 25  2  0
M  END
$$$$
