YMC.pdb
     RDKit          3D

 27 27  0  0  1  0  0  0  0  0999 V2000
   29.0710  -15.2183  -18.2899 O   0  0  0  0  0  0  0  0  0  0  0  0
   28.3880  -16.1534  -17.5574 C   0  0  0  0  0  0  0  0  0  0  0  0
   27.9925  -17.3317  -18.1766 C   0  0  0  0  0  0  0  0  0  0  0  0
   27.2996  -18.2540  -17.3904 C   0  0  0  0  0  0  0  0  0  0  0  0
   27.0193  -18.0115  -16.0641 C   0  0  0  0  0  0  0  0  0  0  0  0
   26.2793  -19.0339  -15.2793 C   0  0  0  0  0  0  0  0  0  0  0  0
   27.2039  -19.8257  -14.3864 C   0  0  2  0  0  0  0  0  0  0  0  0
   28.0341  -20.6588  -15.2389 N   0  0  0  0  0  0  0  0  0  0  0  0
   26.3592  -20.6688  -13.4901 C   0  0  0  0  0  0  0  0  0  0  0  0
   25.8454  -21.7595  -13.8495 O   0  0  0  0  0  0  0  0  0  0  0  0
   27.4205  -16.8321  -15.4626 C   0  0  0  0  0  0  0  0  0  0  0  0
   28.1056  -15.9098  -16.2227 C   0  0  0  0  0  0  0  0  0  0  0  0
   28.4770  -20.6713   -7.0840 C   0  0  0  0  0  0  0  0  0  0  0  0
   26.8512  -20.1596   -7.6866 S   0  0  0  0  0  0  0  0  0  0  0  0
   26.5503  -20.7159   -9.3754 C   0  0  0  0  0  0  0  0  0  0  0  0
   25.2371  -20.2329   -9.9132 C   0  0  0  0  0  0  0  0  0  0  0  0
   25.0715  -20.7475  -11.3218 C   0  0  2  0  0  0  0  0  0  0  0  0
   26.1281  -20.2065  -12.1599 N   0  0  0  0  0  0  0  0  0  0  0  0
   23.7431  -20.4161  -11.8855 C   0  0  0  0  0  0  0  0  0  0  0  0
   23.6843  -19.6246  -12.8536 O   0  0  0  0  0  0  0  0  0  0  0  0
   22.5529  -20.9671  -11.3611 N   0  0  0  0  0  0  0  0  0  0  0  0
   21.3529  -21.0120  -12.1644 C   0  0  1  0  0  0  0  0  0  0  0  0
   21.6215  -21.9875  -13.3034 C   0  0  0  0  0  0  0  0  0  0  0  0
   20.1327  -22.2535  -14.2691 S   0  0  0  0  0  0  0  0  0  0  0  0
   20.1756  -21.4388  -11.3500 C   0  0  0  0  0  0  0  0  0  0  0  0
   20.2362  -22.3434  -10.4989 O   0  0  0  0  0  0  0  0  0  0  0  0
   18.9709  -20.8014  -11.5518 O   0  0  0  0  0  0  0  0  0  0  0  0
  2  3  2  0
  2  1  1  0
  4  3  1  0
  5  4  2  0
  6  7  1  0
  6  5  1  0
  7  9  1  0
  7  8  1  6
  9 10  2  0
  9 18  1  0
 11  5  1  0
 11 12  2  0
 12  2  1  0
 14 13  1  0
 15 14  1  0
 16 15  1  0
 17 16  1  1
 17 19  1  0
 18 17  1  0
 19 20  2  0
 21 19  1  0
 21 22  1  0
 22 23  1  6
 23 24  1  0
 25 22  1  0
 25 27  1  0
 26 25  2  0
M  END
$$$$
