YMC.pdb
     RDKit          3D

 27 27  0  0  1  0  0  0  0  0999 V2000
   25.4214  -16.8210  -18.1169 O   0  0  0  0  0  0  0  0  0  0  0  0
   25.2179  -17.5105  -16.9504 C   0  0  0  0  0  0  0  0  0  0  0  0
   25.6889  -16.9697  -15.7612 C   0  0  0  0  0  0  0  0  0  0  0  0
   25.4582  -17.7080  -14.5991 C   0  0  0  0  0  0  0  0  0  0  0  0
   24.7958  -18.9150  -14.6255 C   0  0  0  0  0  0  0  0  0  0  0  0
   24.5795  -19.6530  -13.3537 C   0  0  0  0  0  0  0  0  0  0  0  0
   25.8668  -20.2377  -12.8246 C   0  0  2  0  0  0  0  0  0  0  0  0
   26.2592  -21.3173  -13.7137 N   0  0  0  0  0  0  0  0  0  0  0  0
   25.5993  -20.7588  -11.4517 C   0  0  0  0  0  0  0  0  0  0  0  0
   24.8928  -21.7745  -11.2236 O   0  0  0  0  0  0  0  0  0  0  0  0
   24.3330  -19.4397  -15.8190 C   0  0  0  0  0  0  0  0  0  0  0  0
   24.5515  -18.7252  -16.9764 C   0  0  0  0  0  0  0  0  0  0  0  0
   27.5343  -19.9397   -3.8028 C   0  0  0  0  0  0  0  0  0  0  0  0
   27.7450  -19.3178   -5.4872 S   0  0  0  0  0  0  0  0  0  0  0  0
   26.6196  -20.1160   -6.6483 C   0  0  0  0  0  0  0  0  0  0  0  0
   26.8094  -19.6338   -8.0549 C   0  0  0  0  0  0  0  0  0  0  0  0
   25.9282  -20.4483   -8.9696 C   0  0  2  0  0  0  0  0  0  0  0  0
   26.1784  -20.0635  -10.3483 N   0  0  0  0  0  0  0  0  0  0  0  0
   24.4921  -20.2971   -8.6427 C   0  0  0  0  0  0  0  0  0  0  0  0
   23.8424  -19.3877   -9.2067 O   0  0  0  0  0  0  0  0  0  0  0  0
   23.8450  -21.1471   -7.7185 N   0  0  0  0  0  0  0  0  0  0  0  0
   22.4077  -21.1130   -7.5771 C   0  0  1  0  0  0  0  0  0  0  0  0
   21.8225  -21.4735   -8.9368 C   0  0  0  0  0  0  0  0  0  0  0  0
   20.0494  -21.7204   -8.8140 S   0  0  0  0  0  0  0  0  0  0  0  0
   21.9481  -22.0621   -6.5190 C   0  0  0  0  0  0  0  0  0  0  0  0
   20.8509  -21.9520   -5.9443 O   0  0  0  0  0  0  0  0  0  0  0  0
   22.7772  -23.1042   -6.1657 O   0  0  0  0  0  0  0  0  0  0  0  0
  2  3  2  0
  2  1  1  0
  4  3  1  0
  5  4  2  0
  6  7  1  0
  6  5  1  0
  7  9  1  0
  7  8  1  6
  9 10  2  0
  9 18  1  0
 11  5  1  0
 11 12  2  0
 12  2  1  0
 14 13  1  0
 15 14  1  0
 16 15  1  0
 17 16  1  1
 17 19  1  0
 18 17  1  0
 19 20  2  0
 21 19  1  0
 21 22  1  0
 22 23  1  6
 23 24  1  0
 25 22  1  0
 25 27  1  0
 26 25  2  0
M  END
$$$$
