YMC.pdb
     RDKit          3D

 27 27  0  0  1  0  0  0  0  0999 V2000
   14.9190  -15.2940  -15.4177 O   0  0  0  0  0  0  0  0  0  0  0  0
   15.7838  -14.2314  -15.4430 C   0  0  0  0  0  0  0  0  0  0  0  0
   16.9769  -14.3213  -14.7383 C   0  0  0  0  0  0  0  0  0  0  0  0
   17.8256  -13.2143  -14.7937 C   0  0  0  0  0  0  0  0  0  0  0  0
   17.4997  -12.0850  -15.5113 C   0  0  0  0  0  0  0  0  0  0  0  0
   18.4463  -10.9395  -15.5327 C   0  0  0  0  0  0  0  0  0  0  0  0
   19.1189  -10.7993  -16.8769 C   0  0  2  0  0  0  0  0  0  0  0  0
   20.1144  -11.8517  -16.9840 N   0  0  0  0  0  0  0  0  0  0  0  0
   19.7676   -9.4559  -16.9232 C   0  0  0  0  0  0  0  0  0  0  0  0
   20.9408   -9.2409  -16.5229 O   0  0  0  0  0  0  0  0  0  0  0  0
   16.3066  -12.0118  -16.2078 C   0  0  0  0  0  0  0  0  0  0  0  0
   15.4562  -13.0948  -16.1649 C   0  0  0  0  0  0  0  0  0  0  0  0
   19.4053   -2.3047  -20.2610 C   0  0  0  0  0  0  0  0  0  0  0  0
   18.6930   -3.9614  -20.1339 S   0  0  0  0  0  0  0  0  0  0  0  0
   19.4372   -4.9166  -18.7977 C   0  0  0  0  0  0  0  0  0  0  0  0
   18.8728   -6.3018  -18.6992 C   0  0  0  0  0  0  0  0  0  0  0  0
   19.5587   -7.0253  -17.5667 C   0  0  2  0  0  0  0  0  0  0  0  0
   19.0114   -8.3662  -17.4497 N   0  0  0  0  0  0  0  0  0  0  0  0
   19.4314   -6.3006  -16.2818 C   0  0  0  0  0  0  0  0  0  0  0  0
   18.3124   -6.2676  -15.7217 O   0  0  0  0  0  0  0  0  0  0  0  0
   20.5327   -5.6523  -15.6800 N   0  0  0  0  0  0  0  0  0  0  0  0
   20.3695   -4.9414  -14.4329 C   0  0  1  0  0  0  0  0  0  0  0  0
   21.3082   -5.5954  -13.4268 C   0  0  0  0  0  0  0  0  0  0  0  0
   23.0184   -5.2387  -13.8368 S   0  0  0  0  0  0  0  0  0  0  0  0
   20.6763   -3.4886  -14.5973 C   0  0  0  0  0  0  0  0  0  0  0  0
   21.1856   -3.0194  -15.6301 O   0  0  0  0  0  0  0  0  0  0  0  0
   20.3815   -2.6329  -13.5586 O   0  0  0  0  0  0  0  0  0  0  0  0
  2  3  2  0
  2  1  1  0
  4  3  1  0
  5  4  2  0
  6  7  1  0
  6  5  1  0
  7  9  1  0
  7  8  1  1
  9 10  2  0
  9 18  1  0
 11  5  1  0
 11 12  2  0
 12  2  1  0
 14 13  1  0
 15 14  1  0
 16 15  1  0
 17 16  1  6
 17 19  1  0
 18 17  1  0
 19 20  2  0
 21 19  1  0
 21 22  1  0
 22 23  1  1
 23 24  1  0
 25 22  1  0
 25 27  1  0
 26 25  2  0
M  END
$$$$
