YMC.pdb
     RDKit          3D

 27 27  0  0  1  0  0  0  0  0999 V2000
   15.9277  -15.4205  -13.5317 O   0  0  0  0  0  0  0  0  0  0  0  0
   17.1192  -16.0911  -13.6218 C   0  0  0  0  0  0  0  0  0  0  0  0
   18.2808  -15.3659  -13.8527 C   0  0  0  0  0  0  0  0  0  0  0  0
   19.4700  -16.0922  -13.9366 C   0  0  0  0  0  0  0  0  0  0  0  0
   19.4953  -17.4620  -13.7978 C   0  0  0  0  0  0  0  0  0  0  0  0
   20.7938  -18.1783  -13.8958 C   0  0  0  0  0  0  0  0  0  0  0  0
   21.2248  -18.3538  -15.3319 C   0  0  2  0  0  0  0  0  0  0  0  0
   20.2777  -19.2514  -15.9702 N   0  0  0  0  0  0  0  0  0  0  0  0
   22.5927  -18.9509  -15.3266 C   0  0  0  0  0  0  0  0  0  0  0  0
   22.8202  -20.1548  -15.0405 O   0  0  0  0  0  0  0  0  0  0  0  0
   18.3287  -18.1694  -13.5683 C   0  0  0  0  0  0  0  0  0  0  0  0
   17.1452  -17.4696  -13.4823 C   0  0  0  0  0  0  0  0  0  0  0  0
   27.6313  -15.9656  -18.3978 C   0  0  0  0  0  0  0  0  0  0  0  0
   28.4999  -16.9916  -17.1890 S   0  0  0  0  0  0  0  0  0  0  0  0
   27.3706  -18.0538  -16.2680 C   0  0  0  0  0  0  0  0  0  0  0  0
   25.9576  -17.5543  -16.3010 C   0  0  0  0  0  0  0  0  0  0  0  0
   25.0688  -18.5696  -15.6260 C   0  0  2  0  0  0  0  0  0  0  0  0
   23.6921  -18.1061  -15.6645 N   0  0  0  0  0  0  0  0  0  0  0  0
   25.4856  -18.8379  -14.2309 C   0  0  0  0  0  0  0  0  0  0  0  0
   25.0758  -18.0753  -13.3267 O   0  0  0  0  0  0  0  0  0  0  0  0
   26.3266  -19.9236  -13.9004 N   0  0  0  0  0  0  0  0  0  0  0  0
   26.7678  -20.1176  -12.5385 C   0  0  1  0  0  0  0  0  0  0  0  0
   25.5687  -20.6395  -11.7570 C   0  0  0  0  0  0  0  0  0  0  0  0
   26.0672  -21.1652  -10.1154 S   0  0  0  0  0  0  0  0  0  0  0  0
   27.9149  -21.0725  -12.4751 C   0  0  0  0  0  0  0  0  0  0  0  0
   28.0578  -22.0096  -13.2799 O   0  0  0  0  0  0  0  0  0  0  0  0
   28.8543  -20.9064  -11.4810 O   0  0  0  0  0  0  0  0  0  0  0  0
  2  3  2  0
  2  1  1  0
  4  3  1  0
  5  4  2  0
  6  7  1  0
  6  5  1  0
  7  9  1  0
  7  8  1  6
  9 10  2  0
  9 18  1  0
 11  5  1  0
 11 12  2  0
 12  2  1  0
 14 13  1  0
 15 14  1  0
 16 15  1  0
 17 16  1  1
 17 19  1  0
 18 17  1  0
 19 20  2  0
 21 19  1  0
 21 22  1  0
 22 23  1  1
 23 24  1  0
 25 22  1  0
 25 27  1  0
 26 25  2  0
M  END
$$$$
