YMC.pdb
     RDKit          3D

 27 27  0  0  1  0  0  0  0  0999 V2000
   29.6169  -16.1789  -18.6371 O   0  0  0  0  0  0  0  0  0  0  0  0
   28.8438  -16.9695  -17.8278 C   0  0  0  0  0  0  0  0  0  0  0  0
   28.3218  -18.1485  -18.3433 C   0  0  0  0  0  0  0  0  0  0  0  0
   27.5407  -18.9207  -17.4817 C   0  0  0  0  0  0  0  0  0  0  0  0
   27.2965  -18.5359  -16.1822 C   0  0  0  0  0  0  0  0  0  0  0  0
   26.4578  -19.4023  -15.3134 C   0  0  0  0  0  0  0  0  0  0  0  0
   27.3018  -20.2394  -14.3827 C   0  0  2  0  0  0  0  0  0  0  0  0
   28.0475  -21.1855  -15.1944 N   0  0  0  0  0  0  0  0  0  0  0  0
   26.3798  -20.9567  -13.4537 C   0  0  0  0  0  0  0  0  0  0  0  0
   25.7144  -21.9711  -13.7870 O   0  0  0  0  0  0  0  0  0  0  0  0
   27.8241  -17.3578  -15.6844 C   0  0  0  0  0  0  0  0  0  0  0  0
   28.5977  -16.5826  -16.5201 C   0  0  0  0  0  0  0  0  0  0  0  0
   26.4442  -19.2563   -7.1003 C   0  0  0  0  0  0  0  0  0  0  0  0
   27.2481  -20.7725   -7.6689 S   0  0  0  0  0  0  0  0  0  0  0  0
   26.7927  -21.1843   -9.3644 C   0  0  0  0  0  0  0  0  0  0  0  0
   25.5463  -20.4812   -9.8106 C   0  0  0  0  0  0  0  0  0  0  0  0
   25.2166  -20.9234  -11.2150 C   0  0  2  0  0  0  0  0  0  0  0  0
   26.2528  -20.4596  -12.1221 N   0  0  0  0  0  0  0  0  0  0  0  0
   23.8885  -20.4400  -11.6561 C   0  0  0  0  0  0  0  0  0  0  0  0
   23.8358  -19.5837  -12.5678 O   0  0  0  0  0  0  0  0  0  0  0  0
   22.6919  -20.9183  -11.0777 N   0  0  0  0  0  0  0  0  0  0  0  0
   21.4493  -20.8548  -11.8120 C   0  0  1  0  0  0  0  0  0  0  0  0
   21.5951  -21.7895  -13.0062 C   0  0  0  0  0  0  0  0  0  0  0  0
   20.0137  -22.0204  -13.8221 S   0  0  0  0  0  0  0  0  0  0  0  0
   20.2944  -21.2499  -10.9509 C   0  0  0  0  0  0  0  0  0  0  0  0
   20.3554  -22.1763  -10.1237 O   0  0  0  0  0  0  0  0  0  0  0  0
   19.1108  -20.5566  -11.0800 O   0  0  0  0  0  0  0  0  0  0  0  0
  2  3  2  0
  2  1  1  0
  4  3  1  0
  5  4  2  0
  6  7  1  0
  6  5  1  0
  7  9  1  0
  7  8  1  6
  9 10  2  0
  9 18  1  0
 11  5  1  0
 11 12  2  0
 12  2  1  0
 14 13  1  0
 15 14  1  0
 16 15  1  0
 17 16  1  1
 17 19  1  0
 18 17  1  0
 19 20  2  0
 21 19  1  0
 21 22  1  0
 22 23  1  6
 23 24  1  0
 25 22  1  0
 25 27  1  0
 26 25  2  0
M  END
$$$$
