YMC.pdb
     RDKit          3D

 27 27  0  0  1  0  0  0  0  0999 V2000
   27.1288  -24.6261  -16.6398 O   0  0  0  0  0  0  0  0  0  0  0  0
   26.1304  -24.1649  -15.8225 C   0  0  0  0  0  0  0  0  0  0  0  0
   25.1903  -25.0653  -15.3389 C   0  0  0  0  0  0  0  0  0  0  0  0
   24.1925  -24.5492  -14.5102 C   0  0  0  0  0  0  0  0  0  0  0  0
   24.1386  -23.2121  -14.1850 C   0  0  0  0  0  0  0  0  0  0  0  0
   23.0521  -22.7238  -13.2964 C   0  0  0  0  0  0  0  0  0  0  0  0
   21.7890  -22.4336  -14.0706 C   0  0  2  0  0  0  0  0  0  0  0  0
   21.9155  -21.1024  -14.6380 N   0  0  0  0  0  0  0  0  0  0  0  0
   20.6453  -22.4900  -13.1133 C   0  0  0  0  0  0  0  0  0  0  0  0
   20.4781  -21.6559  -12.1864 O   0  0  0  0  0  0  0  0  0  0  0  0
   25.0832  -22.3283  -14.6755 C   0  0  0  0  0  0  0  0  0  0  0  0
   26.0757  -22.8194  -15.4949 C   0  0  0  0  0  0  0  0  0  0  0  0
   14.4357  -24.5874  -14.6861 C   0  0  0  0  0  0  0  0  0  0  0  0
   14.8515  -25.3274  -13.0898 S   0  0  0  0  0  0  0  0  0  0  0  0
   16.2232  -24.4759  -12.2867 C   0  0  0  0  0  0  0  0  0  0  0  0
   17.4108  -24.3233  -13.1885 C   0  0  0  0  0  0  0  0  0  0  0  0
   18.5275  -23.6690  -12.4130 C   0  0  2  0  0  0  0  0  0  0  0  0
   19.6986  -23.5471  -13.2644 N   0  0  0  0  0  0  0  0  0  0  0  0
   18.8613  -24.4138  -11.1776 C   0  0  0  0  0  0  0  0  0  0  0  0
   19.6648  -25.3706  -11.2543 O   0  0  0  0  0  0  0  0  0  0  0  0
   18.2993  -24.0726   -9.9273 N   0  0  0  0  0  0  0  0  0  0  0  0
   18.5978  -24.8597   -8.7532 C   0  0  1  0  0  0  0  0  0  0  0  0
   18.2943  -23.9819   -7.5455 C   0  0  0  0  0  0  0  0  0  0  0  0
   18.5615  -24.8920   -6.0223 S   0  0  0  0  0  0  0  0  0  0  0  0
   17.7903  -26.1162   -8.7280 C   0  0  0  0  0  0  0  0  0  0  0  0
   16.6020  -26.1620   -9.0916 O   0  0  0  0  0  0  0  0  0  0  0  0
   18.3897  -27.2739   -8.2821 O   0  0  0  0  0  0  0  0  0  0  0  0
  2  3  2  0
  2  1  1  0
  4  3  1  0
  5  4  2  0
  6  7  1  0
  6  5  1  0
  7  9  1  0
  7  8  1  1
  9 10  2  0
  9 18  1  0
 11  5  1  0
 11 12  2  0
 12  2  1  0
 14 13  1  0
 15 14  1  0
 16 15  1  0
 17 16  1  6
 17 19  1  0
 18 17  1  0
 19 20  2  0
 21 19  1  0
 21 22  1  0
 22 23  1  1
 23 24  1  0
 25 22  1  0
 25 27  1  0
 26 25  2  0
M  END
$$$$
