YMC.pdb
     RDKit          3D

 27 27  0  0  1  0  0  0  0  0999 V2000
   30.7568  -16.4426  -19.0740 O   0  0  0  0  0  0  0  0  0  0  0  0
   29.8305  -17.1682  -18.3718 C   0  0  0  0  0  0  0  0  0  0  0  0
   29.8314  -17.0932  -16.9852 C   0  0  0  0  0  0  0  0  0  0  0  0
   28.8696  -17.8497  -16.3133 C   0  0  0  0  0  0  0  0  0  0  0  0
   27.9613  -18.6341  -16.9887 C   0  0  0  0  0  0  0  0  0  0  0  0
   26.9602  -19.4153  -16.2164 C   0  0  0  0  0  0  0  0  0  0  0  0
   27.5807  -20.6319  -15.5731 C   0  0  2  0  0  0  0  0  0  0  0  0
   27.8124  -21.6137  -16.6183 N   0  0  0  0  0  0  0  0  0  0  0  0
   26.6136  -21.1566  -14.5646 C   0  0  0  0  0  0  0  0  0  0  0  0
   25.7749  -22.0601  -14.8162 O   0  0  0  0  0  0  0  0  0  0  0  0
   27.9742  -18.6975  -18.3706 C   0  0  0  0  0  0  0  0  0  0  0  0
   28.9163  -17.9577  -19.0510 C   0  0  0  0  0  0  0  0  0  0  0  0
   27.0319  -20.8685   -7.5993 C   0  0  0  0  0  0  0  0  0  0  0  0
   25.5204  -20.1050   -8.2324 S   0  0  0  0  0  0  0  0  0  0  0  0
   25.0852  -20.7232   -9.8695 C   0  0  0  0  0  0  0  0  0  0  0  0
   26.1046  -20.3641  -10.9082 C   0  0  0  0  0  0  0  0  0  0  0  0
   25.6798  -20.9562  -12.2294 C   0  0  2  0  0  0  0  0  0  0  0  0
   26.6491  -20.5993  -13.2514 N   0  0  0  0  0  0  0  0  0  0  0  0
   24.3227  -20.5181  -12.6278 C   0  0  0  0  0  0  0  0  0  0  0  0
   24.1496  -19.3192  -12.9439 O   0  0  0  0  0  0  0  0  0  0  0  0
   23.2303  -21.4130  -12.6591 N   0  0  0  0  0  0  0  0  0  0  0  0
   21.9289  -20.9619  -13.0951 C   0  0  1  0  0  0  0  0  0  0  0  0
   21.2715  -22.1368  -13.8082 C   0  0  0  0  0  0  0  0  0  0  0  0
   20.8944  -23.4492  -12.6440 S   0  0  0  0  0  0  0  0  0  0  0  0
   21.1047  -20.4982  -11.9387 C   0  0  0  0  0  0  0  0  0  0  0  0
   21.4399  -20.6803  -10.7552 O   0  0  0  0  0  0  0  0  0  0  0  0
   19.9218  -19.8405  -12.1965 O   0  0  0  0  0  0  0  0  0  0  0  0
  2  3  2  0
  2  1  1  0
  4  3  1  0
  5  4  2  0
  6  7  1  0
  6  5  1  0
  7  9  1  0
  7  8  1  6
  9 10  2  0
  9 18  1  0
 11  5  1  0
 11 12  2  0
 12  2  1  0
 14 13  1  0
 15 14  1  0
 16 15  1  0
 17 16  1  1
 17 19  1  0
 18 17  1  0
 19 20  2  0
 21 19  1  0
 21 22  1  0
 22 23  1  1
 23 24  1  0
 25 22  1  0
 25 27  1  0
 26 25  2  0
M  END
$$$$
