YMC.pdb
     RDKit          3D

 27 27  0  0  1  0  0  0  0  0999 V2000
   17.4911  -14.3025  -16.0313 O   0  0  0  0  0  0  0  0  0  0  0  0
   18.2567  -15.2642  -15.4257 C   0  0  0  0  0  0  0  0  0  0  0  0
   17.9337  -15.6642  -14.1358 C   0  0  0  0  0  0  0  0  0  0  0  0
   18.7420  -16.6463  -13.5603 C   0  0  0  0  0  0  0  0  0  0  0  0
   19.8096  -17.1950  -14.2354 C   0  0  0  0  0  0  0  0  0  0  0  0
   20.6317  -18.2384  -13.5690 C   0  0  0  0  0  0  0  0  0  0  0  0
   20.3712  -19.6069  -14.1508 C   0  0  2  0  0  0  0  0  0  0  0  0
   19.0813  -20.0576  -13.6579 N   0  0  0  0  0  0  0  0  0  0  0  0
   21.4590  -20.5151  -13.6824 C   0  0  0  0  0  0  0  0  0  0  0  0
   21.5277  -20.9632  -12.5088 O   0  0  0  0  0  0  0  0  0  0  0  0
   20.1178  -16.7849  -15.5202 C   0  0  0  0  0  0  0  0  0  0  0  0
   19.3312  -15.8166  -16.1046 C   0  0  0  0  0  0  0  0  0  0  0  0
   23.2881  -25.5354  -14.4322 C   0  0  0  0  0  0  0  0  0  0  0  0
   24.6712  -24.5539  -13.8062 S   0  0  0  0  0  0  0  0  0  0  0  0
   25.2420  -23.3426  -15.0140 C   0  0  0  0  0  0  0  0  0  0  0  0
   24.1524  -22.4102  -15.4505 C   0  0  0  0  0  0  0  0  0  0  0  0
   23.6277  -21.6777  -14.2403 C   0  0  2  0  0  0  0  0  0  0  0  0
   22.4680  -20.8887  -14.6199 N   0  0  0  0  0  0  0  0  0  0  0  0
   24.6584  -20.8162  -13.6179 C   0  0  0  0  0  0  0  0  0  0  0  0
   24.9192  -19.7141  -14.1514 O   0  0  0  0  0  0  0  0  0  0  0  0
   25.3471  -21.2055  -12.4476 N   0  0  0  0  0  0  0  0  0  0  0  0
   26.4871  -20.4483  -11.9850 C   0  0  1  0  0  0  0  0  0  0  0  0
   26.9460  -21.0938  -10.6835 C   0  0  0  0  0  0  0  0  0  0  0  0
   25.8058  -20.7078   -9.3527 S   0  0  0  0  0  0  0  0  0  0  0  0
   27.5797  -20.4437  -13.0038 C   0  0  0  0  0  0  0  0  0  0  0  0
   28.1321  -19.4009  -13.3958 O   0  0  0  0  0  0  0  0  0  0  0  0
   27.9919  -21.6480  -13.5310 O   0  0  0  0  0  0  0  0  0  0  0  0
  2  3  2  0
  2  1  1  0
  4  3  1  0
  5  4  2  0
  6  7  1  0
  6  5  1  0
  7  9  1  0
  7  8  1  1
  9 10  2  0
  9 18  1  0
 11  5  1  0
 11 12  2  0
 12  2  1  0
 14 13  1  0
 15 14  1  0
 16 15  1  0
 17 16  1  6
 17 19  1  0
 18 17  1  0
 19 20  2  0
 21 19  1  0
 21 22  1  0
 22 23  1  1
 23 24  1  0
 25 22  1  0
 25 27  1  0
 26 25  2  0
M  END
$$$$
