WDM.pdb
     RDKit          3D

 31 32  0  0  1  0  0  0  0  0999 V2000
   22.3642  -18.5147  -16.3998 N   0  0  0  0  0  0  0  0  0  0  0  0
   21.3188  -19.0404  -17.3069 C   0  0  1  0  0  0  0  0  0  0  0  0
   22.0028  -19.5907  -18.5212 C   0  0  0  0  0  0  0  0  0  0  0  0
   22.9092  -18.6786  -19.2306 C   0  0  0  0  0  0  0  0  0  0  0  0
   24.3054  -18.6227  -19.1147 C   0  0  0  0  0  0  0  0  0  0  0  0
   24.7959  -17.6560  -19.8872 N   0  0  0  0  0  0  0  0  0  0  0  0
   23.7700  -17.0491  -20.5294 C   0  0  0  0  0  0  0  0  0  0  0  0
   23.7661  -16.0106  -21.4382 C   0  0  0  0  0  0  0  0  0  0  0  0
   22.5776  -15.5702  -21.9749 C   0  0  0  0  0  0  0  0  0  0  0  0
   21.3959  -16.1970  -21.5773 C   0  0  0  0  0  0  0  0  0  0  0  0
   21.4170  -17.2253  -20.6746 C   0  0  0  0  0  0  0  0  0  0  0  0
   22.5919  -17.6827  -20.1238 C   0  0  0  0  0  0  0  0  0  0  0  0
   20.4417  -20.0050  -16.6352 C   0  0  0  0  0  0  0  0  0  0  0  0
   20.9462  -21.0164  -16.1105 O   0  0  0  0  0  0  0  0  0  0  0  0
   19.0205  -19.8470  -16.5477 N   0  0  0  0  0  0  0  0  0  0  0  0
   18.3644  -19.9185  -15.2741 C   0  0  1  0  0  0  0  0  0  0  0  0
   18.9372  -18.8084  -14.3832 C   0  0  0  0  0  0  0  0  0  0  0  0
   18.3284  -18.9783  -13.0348 C   0  0  0  0  0  0  0  0  0  0  0  0
   17.6375  -19.9817  -12.7294 O   0  0  0  0  0  0  0  0  0  0  0  0
   16.8979  -19.6622  -15.3806 C   0  0  0  0  0  0  0  0  0  0  0  0
   16.4183  -18.4986  -15.2999 O   0  0  0  0  0  0  0  0  0  0  0  0
   18.5181  -18.0065  -12.0666 O   0  0  0  0  0  0  0  0  0  0  0  0
   14.0661  -24.3630  -12.4258 C   0  0  0  0  0  0  0  0  0  0  0  0
   12.5757  -23.4142  -12.8247 S   0  0  0  0  0  0  0  0  0  0  0  0
   12.9764  -21.8903  -13.7059 C   0  0  0  0  0  0  0  0  0  0  0  0
   14.4564  -21.8477  -14.0295 C   0  0  0  0  0  0  0  0  0  0  0  0
   14.6212  -20.6963  -15.0305 C   0  0  2  0  0  0  0  0  0  0  0  0
   15.9619  -20.7135  -15.5783 N   0  0  0  0  0  0  0  0  0  0  0  0
   14.4691  -19.4433  -14.2497 C   0  0  0  0  0  0  0  0  0  0  0  0
   15.3922  -19.0974  -13.2652 O   0  0  0  0  0  0  0  0  0  0  0  0
   13.5157  -18.6337  -14.4267 O   0  0  0  0  0  0  0  0  0  0  0  0
  2  1  1  1
  2  3  1  0
  4  3  1  0
  5  4  2  0
  6  5  1  0
  7  6  1  0
  7 12  2  0
  8  7  1  0
  9  8  2  0
  9 10  1  0
 10 11  2  0
 11 12  1  0
 12  4  1  0
 13  2  1  0
 14 13  2  0
 15 13  1  0
 16 15  1  0
 16 17  1  1
 17 18  1  0
 18 22  1  0
 19 18  2  0
 20 21  2  0
 20 16  1  0
 23 24  1  0
 24 25  1  0
 25 26  1  0
 27 26  1  1
 27 29  1  0
 27 28  1  0
 28 20  1  0
 29 30  1  0
 31 29  2  0
M  END
$$$$
