WDM.pdb
     RDKit          3D

 31 32  0  0  1  0  0  0  0  0999 V2000
   25.0151  -18.8066  -11.2388 N   0  0  0  0  0  0  0  0  0  0  0  0
   24.9834  -20.1753  -11.8025 C   0  0  1  0  0  0  0  0  0  0  0  0
   25.1331  -21.1405  -10.6661 C   0  0  0  0  0  0  0  0  0  0  0  0
   26.2460  -20.8929   -9.7405 C   0  0  0  0  0  0  0  0  0  0  0  0
   26.1915  -20.1868   -8.5304 C   0  0  0  0  0  0  0  0  0  0  0  0
   27.3966  -20.1391   -7.9672 N   0  0  0  0  0  0  0  0  0  0  0  0
   28.2748  -20.7954   -8.7619 C   0  0  0  0  0  0  0  0  0  0  0  0
   29.6259  -21.0301   -8.6077 C   0  0  0  0  0  0  0  0  0  0  0  0
   30.3126  -21.7492   -9.5594 C   0  0  0  0  0  0  0  0  0  0  0  0
   29.6105  -22.2257  -10.6673 C   0  0  0  0  0  0  0  0  0  0  0  0
   28.2707  -21.9838  -10.8055 C   0  0  0  0  0  0  0  0  0  0  0  0
   27.5628  -21.2672   -9.8683 C   0  0  0  0  0  0  0  0  0  0  0  0
   23.7876  -20.4062  -12.6198 C   0  0  0  0  0  0  0  0  0  0  0  0
   22.6735  -20.0833  -12.1644 O   0  0  0  0  0  0  0  0  0  0  0  0
   23.8300  -20.9892  -13.9277 N   0  0  0  0  0  0  0  0  0  0  0  0
   22.6170  -21.1909  -14.6665 C   0  0  1  0  0  0  0  0  0  0  0  0
   22.9950  -21.5243  -16.1157 C   0  0  0  0  0  0  0  0  0  0  0  0
   23.6311  -20.3056  -16.6884 C   0  0  0  0  0  0  0  0  0  0  0  0
   23.1467  -19.1572  -16.5337 O   0  0  0  0  0  0  0  0  0  0  0  0
   21.8325  -22.3530  -14.1551 C   0  0  0  0  0  0  0  0  0  0  0  0
   22.1534  -23.5425  -14.4242 O   0  0  0  0  0  0  0  0  0  0  0  0
   24.8001  -20.4195  -17.4218 O   0  0  0  0  0  0  0  0  0  0  0  0
   17.6590  -25.3788   -8.3072 C   0  0  0  0  0  0  0  0  0  0  0  0
   18.6029  -23.9831   -8.9715 S   0  0  0  0  0  0  0  0  0  0  0  0
   18.9834  -24.2134  -10.7212 C   0  0  0  0  0  0  0  0  0  0  0  0
   19.8310  -23.0634  -11.2273 C   0  0  0  0  0  0  0  0  0  0  0  0
   19.9635  -23.2901  -12.7392 C   0  0  2  0  0  0  0  0  0  0  0  0
   20.6819  -22.1838  -13.3378 N   0  0  0  0  0  0  0  0  0  0  0  0
   18.5825  -23.2778  -13.2828 C   0  0  0  0  0  0  0  0  0  0  0  0
   18.0150  -22.1015  -13.7677 O   0  0  0  0  0  0  0  0  0  0  0  0
   17.8553  -24.3094  -13.3373 O   0  0  0  0  0  0  0  0  0  0  0  0
  2  1  1  1
  2  3  1  0
  4  3  1  0
  5  4  2  0
  6  5  1  0
  7  6  1  0
  7 12  2  0
  8  7  1  0
  9  8  2  0
  9 10  1  0
 10 11  2  0
 11 12  1  0
 12  4  1  0
 13  2  1  0
 14 13  2  0
 15 13  1  0
 16 15  1  0
 16 17  1  6
 17 18  1  0
 18 22  1  0
 19 18  2  0
 20 21  2  0
 20 16  1  0
 23 24  1  0
 24 25  1  0
 25 26  1  0
 27 26  1  1
 27 29  1  0
 27 28  1  0
 28 20  1  0
 29 30  1  0
 31 29  2  0
M  END
$$$$
