WDM.pdb
     RDKit          3D

 31 32  0  0  1  0  0  0  0  0999 V2000
   28.5326  -21.3559  -11.1344 N   0  0  0  0  0  0  0  0  0  0  0  0
   27.1952  -21.2407  -10.5096 C   0  0  1  0  0  0  0  0  0  0  0  0
   27.3000  -20.2559   -9.3851 C   0  0  0  0  0  0  0  0  0  0  0  0
   28.3105  -20.5413   -8.3584 C   0  0  0  0  0  0  0  0  0  0  0  0
   29.5083  -21.2491   -8.5318 C   0  0  0  0  0  0  0  0  0  0  0  0
   30.1660  -21.3365   -7.3778 N   0  0  0  0  0  0  0  0  0  0  0  0
   29.4480  -20.7056   -6.4187 C   0  0  0  0  0  0  0  0  0  0  0  0
   29.7114  -20.5140   -5.0777 C   0  0  0  0  0  0  0  0  0  0  0  0
   28.8219  -19.8138   -4.2948 C   0  0  0  0  0  0  0  0  0  0  0  0
   27.6639  -19.3120   -4.8904 C   0  0  0  0  0  0  0  0  0  0  0  0
   27.4174  -19.5112   -6.2217 C   0  0  0  0  0  0  0  0  0  0  0  0
   28.2908  -20.2081   -7.0246 C   0  0  0  0  0  0  0  0  0  0  0  0
   26.1564  -20.9086  -11.4904 C   0  0  0  0  0  0  0  0  0  0  0  0
   26.2838  -19.8781  -12.1793 O   0  0  0  0  0  0  0  0  0  0  0  0
   24.9899  -21.7127  -11.7027 N   0  0  0  0  0  0  0  0  0  0  0  0
   24.0758  -21.3914  -12.7605 C   0  0  1  0  0  0  0  0  0  0  0  0
   23.8054  -22.6736  -13.5586 C   0  0  0  0  0  0  0  0  0  0  0  0
   24.9814  -22.8865  -14.4471 C   0  0  0  0  0  0  0  0  0  0  0  0
   25.5581  -23.9978  -14.5461 O   0  0  0  0  0  0  0  0  0  0  0  0
   22.7551  -20.9281  -12.2424 C   0  0  0  0  0  0  0  0  0  0  0  0
   22.1646  -21.5224  -11.2998 O   0  0  0  0  0  0  0  0  0  0  0  0
   25.4739  -21.8344  -15.2008 O   0  0  0  0  0  0  0  0  0  0  0  0
   19.7041  -15.2915  -14.1643 C   0  0  0  0  0  0  0  0  0  0  0  0
   18.3606  -16.2891  -13.4712 S   0  0  0  0  0  0  0  0  0  0  0  0
   18.9928  -17.7376  -12.5987 C   0  0  0  0  0  0  0  0  0  0  0  0
   20.3916  -18.0678  -13.0796 C   0  0  0  0  0  0  0  0  0  0  0  0
   20.7864  -19.3495  -12.3338 C   0  0  2  0  0  0  0  0  0  0  0  0
   22.0903  -19.7934  -12.7820 N   0  0  0  0  0  0  0  0  0  0  0  0
   19.7972  -20.3820  -12.7316 C   0  0  0  0  0  0  0  0  0  0  0  0
   18.8105  -20.8068  -11.8445 O   0  0  0  0  0  0  0  0  0  0  0  0
   19.7904  -20.9251  -13.8721 O   0  0  0  0  0  0  0  0  0  0  0  0
  2  1  1  6
  2  3  1  0
  4  3  1  0
  5  4  2  0
  6  5  1  0
  7  6  1  0
  7 12  2  0
  8  7  1  0
  9  8  2  0
  9 10  1  0
 10 11  2  0
 11 12  1  0
 12  4  1  0
 13  2  1  0
 14 13  2  0
 15 13  1  0
 16 15  1  0
 16 17  1  6
 17 18  1  0
 18 22  1  0
 19 18  2  0
 20 21  2  0
 20 16  1  0
 23 24  1  0
 24 25  1  0
 25 26  1  0
 27 26  1  6
 27 29  1  0
 27 28  1  0
 28 20  1  0
 29 30  1  0
 31 29  2  0
M  END
$$$$
