WDM.pdb
     RDKit          3D

 31 32  0  0  1  0  0  0  0  0999 V2000
   26.9813  -19.9388   -9.8587 N   0  0  0  0  0  0  0  0  0  0  0  0
   25.8822  -20.8197   -9.4023 C   0  0  1  0  0  0  0  0  0  0  0  0
   25.8085  -20.7212   -7.9090 C   0  0  0  0  0  0  0  0  0  0  0  0
   26.9227  -20.0341   -7.2434 C   0  0  0  0  0  0  0  0  0  0  0  0
   27.7557  -19.0517   -7.7974 C   0  0  0  0  0  0  0  0  0  0  0  0
   28.6748  -18.6712   -6.9131 N   0  0  0  0  0  0  0  0  0  0  0  0
   28.4914  -19.3687   -5.7670 C   0  0  0  0  0  0  0  0  0  0  0  0
   29.1732  -19.3242   -4.5681 C   0  0  0  0  0  0  0  0  0  0  0  0
   28.7836  -20.1325   -3.5244 C   0  0  0  0  0  0  0  0  0  0  0  0
   27.6949  -20.9847   -3.7141 C   0  0  0  0  0  0  0  0  0  0  0  0
   27.0298  -21.0171   -4.9096 C   0  0  0  0  0  0  0  0  0  0  0  0
   27.4006  -20.2194   -5.9676 C   0  0  0  0  0  0  0  0  0  0  0  0
   24.6163  -20.5148  -10.0775 C   0  0  0  0  0  0  0  0  0  0  0  0
   23.9092  -19.5852   -9.6433 O   0  0  0  0  0  0  0  0  0  0  0  0
   24.1424  -21.2348  -11.2217 N   0  0  0  0  0  0  0  0  0  0  0  0
   22.8939  -20.8780  -11.8315 C   0  0  1  0  0  0  0  0  0  0  0  0
   23.1438  -20.6594  -13.3294 C   0  0  0  0  0  0  0  0  0  0  0  0
   21.9007  -20.0639  -13.8932 C   0  0  0  0  0  0  0  0  0  0  0  0
   20.9687  -19.6381  -13.1670 O   0  0  0  0  0  0  0  0  0  0  0  0
   21.8826  -21.9705  -11.7255 C   0  0  0  0  0  0  0  0  0  0  0  0
   21.8151  -22.8994  -12.5758 O   0  0  0  0  0  0  0  0  0  0  0  0
   21.7455  -19.9663  -15.2658 O   0  0  0  0  0  0  0  0  0  0  0  0
   18.6436  -24.4529   -6.2923 C   0  0  0  0  0  0  0  0  0  0  0  0
   17.4133  -24.2311   -7.6029 S   0  0  0  0  0  0  0  0  0  0  0  0
   18.1924  -24.0817   -9.2247 C   0  0  0  0  0  0  0  0  0  0  0  0
   19.2366  -22.9835   -9.2035 C   0  0  0  0  0  0  0  0  0  0  0  0
   19.8633  -22.9907  -10.6042 C   0  0  2  0  0  0  0  0  0  0  0  0
   20.9408  -22.0245  -10.6622 N   0  0  0  0  0  0  0  0  0  0  0  0
   18.8006  -22.5375  -11.5360 C   0  0  0  0  0  0  0  0  0  0  0  0
   18.1497  -23.4413  -12.3728 O   0  0  0  0  0  0  0  0  0  0  0  0
   18.4309  -21.3328  -11.6244 O   0  0  0  0  0  0  0  0  0  0  0  0
  2  1  1  6
  2  3  1  0
  4  3  1  0
  5  4  2  0
  6  5  1  0
  7  6  1  0
  7 12  2  0
  8  7  1  0
  9  8  2  0
  9 10  1  0
 10 11  2  0
 11 12  1  0
 12  4  1  0
 13  2  1  0
 14 13  2  0
 15 13  1  0
 16 15  1  0
 16 17  1  6
 17 18  1  0
 18 22  1  0
 19 18  2  0
 20 21  2  0
 20 16  1  0
 23 24  1  0
 24 25  1  0
 25 26  1  0
 27 26  1  1
 27 29  1  0
 27 28  1  0
 28 20  1  0
 29 30  1  0
 31 29  2  0
M  END
$$$$
