PVW.pdb
     RDKit          3D

 29 31  0  0  1  0  0  0  0  0999 V2000
   23.2043  -19.1574  -15.2287 N   0  0  0  0  0  0  0  0  0  0  0  0
   22.2670  -18.0512  -15.4468 C   0  0  0  0  0  0  0  0  0  0  0  0
   22.3433  -17.1804  -14.2145 C   0  0  0  0  0  0  0  0  0  0  0  0
   23.3763  -17.8862  -13.3254 C   0  0  0  0  0  0  0  0  0  0  0  0
   24.1913  -18.6301  -14.3323 C   0  0  1  0  0  0  0  0  0  0  0  0
   25.0091  -19.7352  -13.7275 C   0  0  0  0  0  0  0  0  0  0  0  0
   24.6080  -20.9230  -13.7444 O   0  0  0  0  0  0  0  0  0  0  0  0
   29.0212  -21.7911  -12.0549 C   0  0  0  0  0  0  0  0  0  0  0  0
   28.4582  -20.5713  -12.8029 C   0  0  1  0  0  0  0  0  0  0  0  0
   28.7480  -20.7678  -14.2385 C   0  0  0  0  0  0  0  0  0  0  0  0
   27.0416  -20.4359  -12.3801 C   0  0  2  0  0  0  0  0  0  0  0  0
   26.2646  -19.4702  -13.1155 N   0  0  0  0  0  0  0  0  0  0  0  0
   26.8271  -20.4063  -10.9130 C   0  0  0  0  0  0  0  0  0  0  0  0
   27.6124  -19.6965  -10.2366 O   0  0  0  0  0  0  0  0  0  0  0  0
   25.8231  -21.1076  -10.2071 N   0  0  0  0  0  0  0  0  0  0  0  0
   25.7212  -21.0186   -8.7383 C   0  0  1  0  0  0  0  0  0  0  0  0
   25.7422  -19.6292   -8.2316 C   0  0  0  0  0  0  0  0  0  0  0  0
   26.8638  -19.2340   -7.3792 C   0  0  0  0  0  0  0  0  0  0  0  0
   27.5905  -18.0545   -7.6152 C   0  0  0  0  0  0  0  0  0  0  0  0
   28.5486  -17.9165   -6.6791 N   0  0  0  0  0  0  0  0  0  0  0  0
   28.4915  -18.9548   -5.8300 C   0  0  0  0  0  0  0  0  0  0  0  0
   29.2458  -19.2797   -4.7262 C   0  0  0  0  0  0  0  0  0  0  0  0
   28.9843  -20.4276   -4.0230 C   0  0  0  0  0  0  0  0  0  0  0  0
   27.9571  -21.2237   -4.4604 C   0  0  0  0  0  0  0  0  0  0  0  0
   27.1889  -20.9172   -5.5637 C   0  0  0  0  0  0  0  0  0  0  0  0
   27.4545  -19.7656   -6.2630 C   0  0  0  0  0  0  0  0  0  0  0  0
   24.5865  -21.8591   -8.3266 C   0  0  0  0  0  0  0  0  0  0  0  0
   23.7294  -22.4135   -9.2767 O   0  0  0  0  0  0  0  0  0  0  0  0
   24.3031  -22.1384   -7.1293 O   0  0  0  0  0  0  0  0  0  0  0  0
  2  1  1  0
  3  2  1  0
  4  3  1  0
  4  5  1  0
  5  6  1  1
  5  1  1  0
  6  7  2  0
  9  8  1  1
 10  9  1  0
 11  9  1  0
 11 12  1  6
 12  6  1  0
 13 11  1  0
 14 13  2  0
 15 13  1  0
 16 15  1  0
 16 17  1  6
 18 17  1  0
 19 18  2  0
 20 19  1  0
 21 20  1  0
 21 26  2  0
 22 21  1  0
 23 22  2  0
 23 24  1  0
 24 25  2  0
 25 26  1  0
 26 18  1  0
 27 16  1  0
 27 28  1  0
 29 27  2  0
M  END
$$$$
