PVW.pdb
     RDKit          3D

 29 31  0  0  1  0  0  0  0  0999 V2000
   27.8624  -19.2992  -14.8510 N   0  0  0  0  0  0  0  0  0  0  0  0
   29.0234  -19.0542  -15.7123 C   0  0  0  0  0  0  0  0  0  0  0  0
   29.7216  -20.3844  -15.8728 C   0  0  0  0  0  0  0  0  0  0  0  0
   28.8655  -21.3543  -15.0469 C   0  0  0  0  0  0  0  0  0  0  0  0
   27.5334  -20.6785  -15.0630 C   0  0  1  0  0  0  0  0  0  0  0  0
   26.6069  -21.1779  -13.9916 C   0  0  0  0  0  0  0  0  0  0  0  0
   26.0337  -22.2881  -14.0953 O   0  0  0  0  0  0  0  0  0  0  0  0
   24.5588  -20.9080   -9.5542 C   0  0  0  0  0  0  0  0  0  0  0  0
   25.7374  -20.4474  -10.4278 C   0  0  1  0  0  0  0  0  0  0  0  0
   26.9549  -21.0924   -9.8936 C   0  0  0  0  0  0  0  0  0  0  0  0
   25.3510  -20.7231  -11.8344 C   0  0  2  0  0  0  0  0  0  0  0  0
   26.3492  -20.4075  -12.8250 N   0  0  0  0  0  0  0  0  0  0  0  0
   23.9742  -20.3080  -12.1974 C   0  0  0  0  0  0  0  0  0  0  0  0
   23.7389  -19.0743  -12.2218 O   0  0  0  0  0  0  0  0  0  0  0  0
   22.9028  -21.1742  -12.5133 N   0  0  0  0  0  0  0  0  0  0  0  0
   21.7250  -20.6890  -13.2570 C   0  0  1  0  0  0  0  0  0  0  0  0
   21.9521  -20.5881  -14.7151 C   0  0  0  0  0  0  0  0  0  0  0  0
   20.8457  -20.1071  -15.5429 C   0  0  0  0  0  0  0  0  0  0  0  0
   20.2882  -18.8300  -15.3606 C   0  0  0  0  0  0  0  0  0  0  0  0
   19.3068  -18.6302  -16.2606 N   0  0  0  0  0  0  0  0  0  0  0  0
   19.1862  -19.7207  -17.0342 C   0  0  0  0  0  0  0  0  0  0  0  0
   18.3389  -20.0163  -18.0771 C   0  0  0  0  0  0  0  0  0  0  0  0
   18.4146  -21.2323  -18.7066 C   0  0  0  0  0  0  0  0  0  0  0  0
   19.3543  -22.1250  -18.2592 C   0  0  0  0  0  0  0  0  0  0  0  0
   20.2131  -21.8493  -17.2161 C   0  0  0  0  0  0  0  0  0  0  0  0
   20.1336  -20.6294  -16.5906 C   0  0  0  0  0  0  0  0  0  0  0  0
   20.5706  -21.4879  -12.8179 C   0  0  0  0  0  0  0  0  0  0  0  0
   20.7532  -22.6579  -12.0816 O   0  0  0  0  0  0  0  0  0  0  0  0
   19.3673  -21.1955  -13.0598 O   0  0  0  0  0  0  0  0  0  0  0  0
  2  1  1  0
  3  2  1  0
  4  3  1  0
  4  5  1  0
  5  6  1  1
  5  1  1  0
  6  7  2  0
  9  8  1  1
 10  9  1  0
 11  9  1  0
 11 12  1  6
 12  6  1  0
 13 11  1  0
 14 13  2  0
 15 13  1  0
 16 15  1  0
 16 17  1  6
 18 17  1  0
 19 18  2  0
 20 19  1  0
 21 20  1  0
 21 26  2  0
 22 21  1  0
 23 22  2  0
 23 24  1  0
 24 25  2  0
 25 26  1  0
 26 18  1  0
 27 16  1  0
 27 28  1  0
 29 27  2  0
M  END
$$$$
