PVW.pdb
     RDKit          3D

 29 31  0  0  1  0  0  0  0  0999 V2000
   26.1889  -19.9104  -16.4480 N   0  0  0  0  0  0  0  0  0  0  0  0
   26.6675  -19.5945  -17.7974 C   0  0  0  0  0  0  0  0  0  0  0  0
   26.2991  -18.1515  -18.0519 C   0  0  0  0  0  0  0  0  0  0  0  0
   25.5958  -17.7151  -16.7593 C   0  0  0  0  0  0  0  0  0  0  0  0
   26.1841  -18.6540  -15.7573 C   0  0  1  0  0  0  0  0  0  0  0  0
   25.3810  -18.7429  -14.4913 C   0  0  0  0  0  0  0  0  0  0  0  0
   25.1627  -17.7277  -13.7888 O   0  0  0  0  0  0  0  0  0  0  0  0
   21.8653  -20.8663  -11.9248 C   0  0  0  0  0  0  0  0  0  0  0  0
   22.6290  -20.7517  -13.2545 C   0  0  1  0  0  0  0  0  0  0  0  0
   21.7404  -20.0576  -14.2097 C   0  0  0  0  0  0  0  0  0  0  0  0
   23.9409  -20.1353  -12.9341 C   0  0  2  0  0  0  0  0  0  0  0  0
   24.8425  -19.9816  -14.0480 N   0  0  0  0  0  0  0  0  0  0  0  0
   24.5799  -20.6351  -11.6925 C   0  0  0  0  0  0  0  0  0  0  0  0
   25.0254  -21.8094  -11.7140 O   0  0  0  0  0  0  0  0  0  0  0  0
   24.7283  -19.9120  -10.4870 N   0  0  0  0  0  0  0  0  0  0  0  0
   25.3622  -20.5248   -9.3045 C   0  0  1  0  0  0  0  0  0  0  0  0
   26.4481  -19.7024   -8.7282 C   0  0  0  0  0  0  0  0  0  0  0  0
   27.0607  -20.1632   -7.4819 C   0  0  0  0  0  0  0  0  0  0  0  0
   26.8994  -21.4819   -7.0236 C   0  0  0  0  0  0  0  0  0  0  0  0
   27.5789  -21.6491   -5.8732 N   0  0  0  0  0  0  0  0  0  0  0  0
   28.1853  -20.4971   -5.5452 C   0  0  0  0  0  0  0  0  0  0  0  0
   28.9793  -20.1504   -4.4765 C   0  0  0  0  0  0  0  0  0  0  0  0
   29.4754  -18.8766   -4.3676 C   0  0  0  0  0  0  0  0  0  0  0  0
   29.1509  -17.9793   -5.3523 C   0  0  0  0  0  0  0  0  0  0  0  0
   28.3571  -18.3055   -6.4316 C   0  0  0  0  0  0  0  0  0  0  0  0
   27.8645  -19.5831   -6.5360 C   0  0  0  0  0  0  0  0  0  0  0  0
   24.2831  -20.9343   -8.3925 C   0  0  0  0  0  0  0  0  0  0  0  0
   24.4916  -21.9393   -7.4486 O   0  0  0  0  0  0  0  0  0  0  0  0
   23.1254  -20.4327   -8.3866 O   0  0  0  0  0  0  0  0  0  0  0  0
  2  1  1  0
  3  2  1  0
  4  3  1  0
  4  5  1  0
  5  6  1  1
  5  1  1  0
  6  7  2  0
  9  8  1  1
 10  9  1  0
 11  9  1  0
 11 12  1  6
 12  6  1  0
 13 11  1  0
 14 13  2  0
 15 13  1  0
 16 15  1  0
 16 17  1  1
 18 17  1  0
 19 18  2  0
 20 19  1  0
 21 20  1  0
 21 26  2  0
 22 21  1  0
 23 22  2  0
 23 24  1  0
 24 25  2  0
 25 26  1  0
 26 18  1  0
 27 16  1  0
 27 28  1  0
 29 27  2  0
M  END
$$$$
