PVW.pdb
     RDKit          3D

 29 31  0  0  1  0  0  0  0  0999 V2000
   24.8577  -15.4794  -17.0159 N   0  0  0  0  0  0  0  0  0  0  0  0
   24.4507  -14.1395  -16.5818 C   0  0  0  0  0  0  0  0  0  0  0  0
   24.6838  -14.0871  -15.0899 C   0  0  0  0  0  0  0  0  0  0  0  0
   25.2393  -15.4776  -14.7526 C   0  0  0  0  0  0  0  0  0  0  0  0
   25.8391  -15.8934  -16.0561 C   0  0  1  0  0  0  0  0  0  0  0  0
   26.0845  -17.3723  -16.1462 C   0  0  0  0  0  0  0  0  0  0  0  0
   25.2189  -18.1459  -16.6199 O   0  0  0  0  0  0  0  0  0  0  0  0
   28.8895  -21.3470  -15.9393 C   0  0  0  0  0  0  0  0  0  0  0  0
   28.8768  -19.8161  -16.0826 C   0  0  1  0  0  0  0  0  0  0  0  0
   29.2404  -19.5057  -17.4809 C   0  0  0  0  0  0  0  0  0  0  0  0
   27.5586  -19.3573  -15.5769 C   0  0  2  0  0  0  0  0  0  0  0  0
   27.3063  -17.9434  -15.6968 N   0  0  0  0  0  0  0  0  0  0  0  0
   27.1479  -19.9455  -14.2789 C   0  0  0  0  0  0  0  0  0  0  0  0
   27.5779  -19.3873  -13.2389 O   0  0  0  0  0  0  0  0  0  0  0  0
   26.3213  -21.0791  -14.1064 N   0  0  0  0  0  0  0  0  0  0  0  0
   25.9732  -21.5700  -12.7597 C   0  0  1  0  0  0  0  0  0  0  0  0
   25.5507  -20.4962  -11.8345 C   0  0  0  0  0  0  0  0  0  0  0  0
   26.0443  -20.5524  -10.4582 C   0  0  0  0  0  0  0  0  0  0  0  0
   25.1902  -20.3587   -9.3591 C   0  0  0  0  0  0  0  0  0  0  0  0
   25.8880  -20.4832   -8.2143 N   0  0  0  0  0  0  0  0  0  0  0  0
   27.1712  -20.7507   -8.5043 C   0  0  0  0  0  0  0  0  0  0  0  0
   28.2698  -20.9546   -7.7015 C   0  0  0  0  0  0  0  0  0  0  0  0
   29.4973  -21.2053   -8.2591 C   0  0  0  0  0  0  0  0  0  0  0  0
   29.5809  -21.2426   -9.6273 C   0  0  0  0  0  0  0  0  0  0  0  0
   28.4930  -21.0412  -10.4503 C   0  0  0  0  0  0  0  0  0  0  0  0
   27.2661  -20.7921   -9.8861 C   0  0  0  0  0  0  0  0  0  0  0  0
   25.0484  -22.7009  -12.9318 C   0  0  0  0  0  0  0  0  0  0  0  0
   25.2867  -23.9187  -12.2955 O   0  0  0  0  0  0  0  0  0  0  0  0
   24.0048  -22.6676  -13.6401 O   0  0  0  0  0  0  0  0  0  0  0  0
  2  1  1  0
  3  2  1  0
  4  3  1  0
  4  5  1  0
  5  6  1  1
  5  1  1  0
  6  7  2  0
  9  8  1  6
 10  9  1  0
 11  9  1  0
 11 12  1  1
 12  6  1  0
 13 11  1  0
 14 13  2  0
 15 13  1  0
 16 15  1  0
 16 17  1  1
 18 17  1  0
 19 18  2  0
 20 19  1  0
 21 20  1  0
 21 26  2  0
 22 21  1  0
 23 22  2  0
 23 24  1  0
 24 25  2  0
 25 26  1  0
 26 18  1  0
 27 16  1  0
 27 28  1  0
 29 27  2  0
M  END
$$$$
