PVW.pdb
     RDKit          3D

 29 31  0  0  1  0  0  0  0  0999 V2000
   27.5854  -19.3980  -15.9732 N   0  0  0  0  0  0  0  0  0  0  0  0
   28.1932  -18.8328  -17.1818 C   0  0  0  0  0  0  0  0  0  0  0  0
   28.3716  -17.3561  -16.9169 C   0  0  0  0  0  0  0  0  0  0  0  0
   27.8235  -17.1656  -15.4959 C   0  0  0  0  0  0  0  0  0  0  0  0
   28.0030  -18.5289  -14.9121 C   0  0  1  0  0  0  0  0  0  0  0  0
   27.1758  -18.7548  -13.6791 C   0  0  0  0  0  0  0  0  0  0  0  0
   27.3234  -18.0410  -12.6590 O   0  0  0  0  0  0  0  0  0  0  0  0
   23.1215  -20.5380  -11.5980 C   0  0  0  0  0  0  0  0  0  0  0  0
   23.9052  -20.3757  -12.9109 C   0  0  1  0  0  0  0  0  0  0  0  0
   23.1389  -19.4438  -13.7642 C   0  0  0  0  0  0  0  0  0  0  0  0
   25.2918  -20.0070  -12.5300 C   0  0  2  0  0  0  0  0  0  0  0  0
   26.1987  -19.7861  -13.6282 N   0  0  0  0  0  0  0  0  0  0  0  0
   25.8637  -20.7957  -11.4118 C   0  0  0  0  0  0  0  0  0  0  0  0
   26.2411  -21.9648  -11.6738 O   0  0  0  0  0  0  0  0  0  0  0  0
   26.0177  -20.3530  -10.0782 N   0  0  0  0  0  0  0  0  0  0  0  0
   26.4709  -21.2729   -9.0180 C   0  0  1  0  0  0  0  0  0  0  0  0
   27.8248  -20.9618   -8.5101 C   0  0  0  0  0  0  0  0  0  0  0  0
   27.9335  -20.0047   -7.4086 C   0  0  0  0  0  0  0  0  0  0  0  0
   27.3848  -18.7139   -7.4954 C   0  0  0  0  0  0  0  0  0  0  0  0
   27.6045  -18.0488   -6.3454 N   0  0  0  0  0  0  0  0  0  0  0  0
   28.2774  -18.8418   -5.4965 C   0  0  0  0  0  0  0  0  0  0  0  0
   28.7416  -18.6325   -4.2184 C   0  0  0  0  0  0  0  0  0  0  0  0
   29.4241  -19.6227   -3.5593 C   0  0  0  0  0  0  0  0  0  0  0  0
   29.6207  -20.8091   -4.2180 C   0  0  0  0  0  0  0  0  0  0  0  0
   29.1641  -21.0400   -5.4985 C   0  0  0  0  0  0  0  0  0  0  0  0
   28.4801  -20.0452   -6.1528 C   0  0  0  0  0  0  0  0  0  0  0  0
   25.3913  -21.3591   -8.0226 C   0  0  0  0  0  0  0  0  0  0  0  0
   25.4782  -22.2496   -6.9532 O   0  0  0  0  0  0  0  0  0  0  0  0
   24.3385  -20.6642   -8.0502 O   0  0  0  0  0  0  0  0  0  0  0  0
  2  1  1  0
  3  2  1  0
  4  3  1  0
  4  5  1  0
  5  6  1  1
  5  1  1  0
  6  7  2  0
  9  8  1  1
 10  9  1  0
 11  9  1  0
 11 12  1  6
 12  6  1  0
 13 11  1  0
 14 13  2  0
 15 13  1  0
 16 15  1  0
 16 17  1  1
 18 17  1  0
 19 18  2  0
 20 19  1  0
 21 20  1  0
 21 26  2  0
 22 21  1  0
 23 22  2  0
 23 24  1  0
 24 25  2  0
 25 26  1  0
 26 18  1  0
 27 16  1  0
 27 28  1  0
 29 27  2  0
M  END
$$$$
