PVW.pdb
     RDKit          3D

 29 31  0  0  1  0  0  0  0  0999 V2000
   27.7471  -18.0716  -17.3232 N   0  0  0  0  0  0  0  0  0  0  0  0
   28.8844  -17.5983  -18.1182 C   0  0  0  0  0  0  0  0  0  0  0  0
   29.7912  -16.8573  -17.1635 C   0  0  0  0  0  0  0  0  0  0  0  0
   29.0715  -16.9626  -15.8119 C   0  0  0  0  0  0  0  0  0  0  0  0
   28.2609  -18.2045  -15.9912 C   0  0  1  0  0  0  0  0  0  0  0  0
   27.1425  -18.3264  -14.9964 C   0  0  0  0  0  0  0  0  0  0  0  0
   26.5826  -17.3099  -14.5218 O   0  0  0  0  0  0  0  0  0  0  0  0
   23.3209  -20.5382  -13.1547 C   0  0  0  0  0  0  0  0  0  0  0  0
   24.3706  -20.4329  -14.2734 C   0  0  1  0  0  0  0  0  0  0  0  0
   23.7255  -19.7499  -15.4141 C   0  0  0  0  0  0  0  0  0  0  0  0
   25.5726  -19.8097  -13.6648 C   0  0  2  0  0  0  0  0  0  0  0  0
   26.6823  -19.5987  -14.5599 N   0  0  0  0  0  0  0  0  0  0  0  0
   25.9509  -20.3481  -12.3357 C   0  0  0  0  0  0  0  0  0  0  0  0
   26.4603  -21.4960  -12.3099 O   0  0  0  0  0  0  0  0  0  0  0  0
   25.7855  -19.6891  -11.0961 N   0  0  0  0  0  0  0  0  0  0  0  0
   26.1174  -20.3615   -9.8259 C   0  0  1  0  0  0  0  0  0  0  0  0
   26.8494  -19.4950   -8.8767 C   0  0  0  0  0  0  0  0  0  0  0  0
   27.1136  -20.0247   -7.5386 C   0  0  0  0  0  0  0  0  0  0  0  0
   26.6609  -21.2957   -7.1452 C   0  0  0  0  0  0  0  0  0  0  0  0
   27.0547  -21.5471   -5.8823 N   0  0  0  0  0  0  0  0  0  0  0  0
   27.7498  -20.4968   -5.4174 C   0  0  0  0  0  0  0  0  0  0  0  0
   28.3500  -20.2594   -4.2024 C   0  0  0  0  0  0  0  0  0  0  0  0
   29.0024  -19.0752   -3.9727 C   0  0  0  0  0  0  0  0  0  0  0  0
   29.0296  -18.1543   -4.9882 C   0  0  0  0  0  0  0  0  0  0  0  0
   28.4350  -18.3718   -6.2132 C   0  0  0  0  0  0  0  0  0  0  0  0
   27.7844  -19.5601   -6.4379 C   0  0  0  0  0  0  0  0  0  0  0  0
   24.8858  -20.9963   -9.3321 C   0  0  0  0  0  0  0  0  0  0  0  0
   24.9318  -22.2271   -8.6783 O   0  0  0  0  0  0  0  0  0  0  0  0
   23.7309  -20.5027   -9.4529 O   0  0  0  0  0  0  0  0  0  0  0  0
  2  1  1  0
  3  2  1  0
  4  3  1  0
  4  5  1  0
  5  6  1  1
  5  1  1  0
  6  7  2  0
  9  8  1  1
 10  9  1  0
 11  9  1  0
 11 12  1  6
 12  6  1  0
 13 11  1  0
 14 13  2  0
 15 13  1  0
 16 15  1  0
 16 17  1  1
 18 17  1  0
 19 18  2  0
 20 19  1  0
 21 20  1  0
 21 26  2  0
 22 21  1  0
 23 22  2  0
 23 24  1  0
 24 25  2  0
 25 26  1  0
 26 18  1  0
 27 16  1  0
 27 28  1  0
 29 27  2  0
M  END
$$$$
