PVW.pdb
     RDKit          3D

 29 31  0  0  1  0  0  0  0  0999 V2000
   27.4520  -23.2496  -16.8109 N   0  0  0  0  0  0  0  0  0  0  0  0
   28.0424  -23.8595  -18.0063 C   0  0  0  0  0  0  0  0  0  0  0  0
   29.1355  -22.9228  -18.4653 C   0  0  0  0  0  0  0  0  0  0  0  0
   29.0943  -21.7770  -17.4450 C   0  0  0  0  0  0  0  0  0  0  0  0
   28.5021  -22.4505  -16.2503 C   0  0  1  0  0  0  0  0  0  0  0  0
   27.9563  -21.4832  -15.2393 C   0  0  0  0  0  0  0  0  0  0  0  0
   28.7024  -20.6555  -14.6647 O   0  0  0  0  0  0  0  0  0  0  0  0
   24.1575  -18.9275  -13.5543 C   0  0  0  0  0  0  0  0  0  0  0  0
   24.7074  -19.8749  -14.6334 C   0  0  1  0  0  0  0  0  0  0  0  0
   24.8179  -19.0949  -15.8837 C   0  0  0  0  0  0  0  0  0  0  0  0
   25.9381  -20.4846  -14.0700 C   0  0  2  0  0  0  0  0  0  0  0  0
   26.5757  -21.4750  -14.9005 N   0  0  0  0  0  0  0  0  0  0  0  0
   25.8545  -20.8496  -12.6350 C   0  0  0  0  0  0  0  0  0  0  0  0
   25.2377  -21.9064  -12.3509 O   0  0  0  0  0  0  0  0  0  0  0  0
   26.4012  -20.1140  -11.5588 N   0  0  0  0  0  0  0  0  0  0  0  0
   26.2501  -20.5759  -10.1661 C   0  0  1  0  0  0  0  0  0  0  0  0
   27.1813  -19.9166   -9.2248 C   0  0  0  0  0  0  0  0  0  0  0  0
   27.0377  -20.2228   -7.8012 C   0  0  0  0  0  0  0  0  0  0  0  0
   25.9921  -21.0302   -7.3217 C   0  0  0  0  0  0  0  0  0  0  0  0
   26.1030  -21.1715   -5.9872 N   0  0  0  0  0  0  0  0  0  0  0  0
   27.1778  -20.4915   -5.5573 C   0  0  0  0  0  0  0  0  0  0  0  0
   27.7099  -20.3160   -4.3008 C   0  0  0  0  0  0  0  0  0  0  0  0
   28.8330  -19.5487   -4.1260 C   0  0  0  0  0  0  0  0  0  0  0  0
   29.3922  -18.9737   -5.2381 C   0  0  0  0  0  0  0  0  0  0  0  0
   28.8755  -19.1365   -6.5061 C   0  0  0  0  0  0  0  0  0  0  0  0
   27.7515  -19.9072   -6.6751 C   0  0  0  0  0  0  0  0  0  0  0  0
   24.8177  -20.5133   -9.8373 C   0  0  0  0  0  0  0  0  0  0  0  0
   24.2006  -21.5528   -9.1423 O   0  0  0  0  0  0  0  0  0  0  0  0
   24.0569  -19.5544  -10.1433 O   0  0  0  0  0  0  0  0  0  0  0  0
  2  1  1  0
  3  2  1  0
  4  3  1  0
  4  5  1  0
  5  6  1  1
  5  1  1  0
  6  7  2  0
  9  8  1  1
 10  9  1  0
 11  9  1  0
 11 12  1  6
 12  6  1  0
 13 11  1  0
 14 13  2  0
 15 13  1  0
 16 15  1  0
 16 17  1  1
 18 17  1  0
 19 18  2  0
 20 19  1  0
 21 20  1  0
 21 26  2  0
 22 21  1  0
 23 22  2  0
 23 24  1  0
 24 25  2  0
 25 26  1  0
 26 18  1  0
 27 16  1  0
 27 28  1  0
 29 27  2  0
M  END
$$$$
