ARS.pdb
     RDKit          3D

 23 22  0  0  1  0  0  0  0  0999 V2000
   18.0349  -16.6125  -18.4834 C   0  0  0  0  0  0  0  0  0  0  0  0
   19.2127  -15.9329  -17.8302 C   0  0  2  0  0  0  0  0  0  0  0  0
   19.9612  -16.8138  -16.9900 N   0  0  0  0  0  0  0  0  0  0  0  0
   18.8180  -14.6771  -17.1353 C   0  0  0  0  0  0  0  0  0  0  0  0
   17.9219  -14.6607  -16.2531 O   0  0  0  0  0  0  0  0  0  0  0  0
   22.2904   -7.1266  -13.5435 N   0  0  0  0  0  0  0  0  0  0  0  0
   21.0706   -7.8619  -13.3477 C   0  0  0  0  0  0  0  0  0  0  0  0
   20.6819   -8.0958  -12.1464 N   0  0  0  0  0  0  0  0  0  0  0  0
   20.3211   -8.3151  -14.4602 N   0  0  0  0  0  0  0  0  0  0  0  0
   20.6824   -9.5246  -15.1545 C   0  0  0  0  0  0  0  0  0  0  0  0
   19.6715   -9.8247  -16.2646 C   0  0  0  0  0  0  0  0  0  0  0  0
   20.0756  -11.0959  -16.9824 C   0  0  0  0  0  0  0  0  0  0  0  0
   19.0845  -12.1991  -16.7398 C   0  0  2  0  0  0  0  0  0  0  0  0
   19.4274  -13.4248  -17.4256 N   0  0  0  0  0  0  0  0  0  0  0  0
   17.6887  -11.8028  -16.9364 C   0  0  0  0  0  0  0  0  0  0  0  0
   17.2437  -11.7019  -18.1008 O   0  0  0  0  0  0  0  0  0  0  0  0
   19.7667   -8.5702  -12.0062 O   0  0  0  0  0  0  0  0  0  0  0  0
   15.0703  -11.5645  -13.6974 C   0  0  0  0  0  0  0  0  0  0  0  0
   14.5516  -11.7735  -14.9758 C   0  0  1  0  0  0  0  0  0  0  0  0
   15.4692  -11.1478  -15.9618 N   0  0  0  0  0  0  0  0  0  0  0  0
   16.8328  -11.5317  -15.8577 C   0  0  0  0  0  0  0  0  0  0  0  0
   15.3175   -9.6708  -15.8565 O   0  0  0  0  0  0  0  0  0  0  0  0
   16.3518   -8.9951  -15.6145 O   0  0  0  0  0  0  0  0  0  0  0  0
  2  1  1  1
  2  3  1  0
  4  2  1  0
  4  5  2  0
  6  7  1  0
  7  8  2  0
  7  9  1  0
  9 10  1  0
 10 11  1  0
 11 12  1  0
 13 12  1  6
 13 15  1  0
 13 14  1  0
 14  4  1  0
 15 20  1  0
 16 15  2  0
 18 17  1  0
 19 18  1  6
 19 21  1  0
 20 19  1  0
 21 22  2  0
 21 23  1  0
M  END
$$$$
