ARS.pdb
     RDKit          3D

 23 22  0  0  1  0  0  0  0  0999 V2000
   24.4520  -20.9662   -8.6461 C   0  0  0  0  0  0  0  0  0  0  0  0
   25.2654  -20.5426   -9.8438 C   0  0  2  0  0  0  0  0  0  0  0  0
   26.1276  -19.4383   -9.5622 N   0  0  0  0  0  0  0  0  0  0  0  0
   24.4147  -20.3128  -11.0436 C   0  0  0  0  0  0  0  0  0  0  0  0
   23.7976  -19.2315  -11.2219 O   0  0  0  0  0  0  0  0  0  0  0  0
   28.3260  -21.8239  -15.2442 N   0  0  0  0  0  0  0  0  0  0  0  0
   28.0156  -21.0028  -16.3828 C   0  0  0  0  0  0  0  0  0  0  0  0
   28.9564  -20.3069  -16.9115 N   0  0  0  0  0  0  0  0  0  0  0  0
   26.6991  -20.9677  -16.9028 N   0  0  0  0  0  0  0  0  0  0  0  0
   25.6382  -21.7229  -16.2866 C   0  0  0  0  0  0  0  0  0  0  0  0
   25.1115  -20.9909  -15.0493 C   0  0  0  0  0  0  0  0  0  0  0  0
   23.9640  -21.7776  -14.4502 C   0  0  0  0  0  0  0  0  0  0  0  0
   23.4188  -21.1009  -13.2242 C   0  0  2  0  0  0  0  0  0  0  0  0
   24.2484  -21.2977  -12.0565 N   0  0  0  0  0  0  0  0  0  0  0  0
   22.0016  -21.3702  -12.9730 C   0  0  0  0  0  0  0  0  0  0  0  0
   21.6798  -22.4145  -12.3647 O   0  0  0  0  0  0  0  0  0  0  0  0
   28.7376  -19.7399  -17.7558 O   0  0  0  0  0  0  0  0  0  0  0  0
   18.3350  -18.7634  -13.6979 C   0  0  0  0  0  0  0  0  0  0  0  0
   18.9167  -19.4273  -12.6172 C   0  0  1  0  0  0  0  0  0  0  0  0
   19.6038  -20.6410  -13.1276 N   0  0  0  0  0  0  0  0  0  0  0  0
   20.9910  -20.4922  -13.3942 C   0  0  0  0  0  0  0  0  0  0  0  0
   18.8717  -21.1083  -14.3365 O   0  0  0  0  0  0  0  0  0  0  0  0
   19.4167  -20.9211  -15.4557 O   0  0  0  0  0  0  0  0  0  0  0  0
  2  1  1  1
  2  3  1  0
  4  2  1  0
  4  5  2  0
  6  7  1  0
  7  8  2  0
  7  9  1  0
  9 10  1  0
 10 11  1  0
 11 12  1  0
 13 12  1  6
 13 15  1  0
 13 14  1  0
 14  4  1  0
 15 20  1  0
 16 15  2  0
 18 17  1  0
 19 18  1  1
 19 21  1  0
 20 19  1  0
 21 22  2  0
 21 23  1  0
M  END
$$$$
