ARS.pdb
     RDKit          3D

 23 22  0  0  1  0  0  0  0  0999 V2000
   24.3184  -14.7002  -20.3250 C   0  0  0  0  0  0  0  0  0  0  0  0
   25.3111  -14.9474  -19.2163 C   0  0  2  0  0  0  0  0  0  0  0  0
   26.6487  -15.0960  -19.6967 N   0  0  0  0  0  0  0  0  0  0  0  0
   24.8927  -16.0695  -18.3321 C   0  0  0  0  0  0  0  0  0  0  0  0
   24.3069  -17.0867  -18.7835 O   0  0  0  0  0  0  0  0  0  0  0  0
   25.1260  -20.2564  -11.7710 N   0  0  0  0  0  0  0  0  0  0  0  0
   26.2194  -20.9705  -12.3722 C   0  0  0  0  0  0  0  0  0  0  0  0
   26.2508  -22.2495  -12.2619 N   0  0  0  0  0  0  0  0  0  0  0  0
   27.2351  -20.2713  -13.0680 N   0  0  0  0  0  0  0  0  0  0  0  0
   27.0550  -18.8960  -13.4575 C   0  0  0  0  0  0  0  0  0  0  0  0
   25.9940  -18.7873  -14.5560 C   0  0  0  0  0  0  0  0  0  0  0  0
   25.8195  -17.3336  -14.9443 C   0  0  0  0  0  0  0  0  0  0  0  0
   24.8335  -17.1828  -16.0683 C   0  0  2  0  0  0  0  0  0  0  0  0
   25.1286  -16.0595  -16.9293 N   0  0  0  0  0  0  0  0  0  0  0  0
   23.4326  -17.2284  -15.6448 C   0  0  0  0  0  0  0  0  0  0  0  0
   22.9277  -16.2198  -15.1045 O   0  0  0  0  0  0  0  0  0  0  0  0
   27.0847  -22.7566  -12.6220 O   0  0  0  0  0  0  0  0  0  0  0  0
   21.2532  -19.8538  -17.3881 C   0  0  0  0  0  0  0  0  0  0  0  0
   20.4148  -19.1686  -16.5080 C   0  0  1  0  0  0  0  0  0  0  0  0
   21.2584  -18.4763  -15.5006 N   0  0  0  0  0  0  0  0  0  0  0  0
   22.6369  -18.3703  -15.8258 C   0  0  0  0  0  0  0  0  0  0  0  0
   21.0661  -19.1610  -14.1929 O   0  0  0  0  0  0  0  0  0  0  0  0
   22.0812  -19.6651  -13.6450 O   0  0  0  0  0  0  0  0  0  0  0  0
  2  1  1  6
  2  3  1  0
  4  2  1  0
  4  5  2  0
  6  7  1  0
  7  8  2  0
  7  9  1  0
  9 10  1  0
 10 11  1  0
 11 12  1  0
 13 12  1  1
 13 15  1  0
 13 14  1  0
 14  4  1  0
 15 20  1  0
 16 15  2  0
 18 17  1  0
 19 18  1  6
 19 21  1  0
 20 19  1  0
 21 22  2  0
 21 23  1  0
M  END
$$$$
