ARS.pdb
     RDKit          3D

 23 22  0  0  1  0  0  0  0  0999 V2000
   26.2609  -21.5297  -15.9020 C   0  0  0  0  0  0  0  0  0  0  0  0
   25.1186  -22.1972  -16.6269 C   0  0  2  0  0  0  0  0  0  0  0  0
   23.9231  -22.2461  -15.8455 N   0  0  0  0  0  0  0  0  0  0  0  0
   25.5032  -23.5294  -17.1684 C   0  0  0  0  0  0  0  0  0  0  0  0
   26.7060  -23.8838  -17.2655 O   0  0  0  0  0  0  0  0  0  0  0  0
   27.8246  -30.9247  -17.1507 N   0  0  0  0  0  0  0  0  0  0  0  0
   27.9862  -29.8797  -16.1766 C   0  0  0  0  0  0  0  0  0  0  0  0
   29.1102  -29.7817  -15.5634 N   0  0  0  0  0  0  0  0  0  0  0  0
   26.9242  -28.9835  -15.9049 N   0  0  0  0  0  0  0  0  0  0  0  0
   25.6253  -29.1713  -16.4990 C   0  0  0  0  0  0  0  0  0  0  0  0
   25.4077  -28.1674  -17.6343 C   0  0  0  0  0  0  0  0  0  0  0  0
   25.0778  -26.8099  -17.0487 C   0  0  0  0  0  0  0  0  0  0  0  0
   24.8879  -25.7810  -18.1274 C   0  0  2  0  0  0  0  0  0  0  0  0
   24.5383  -24.4780  -17.6073 N   0  0  0  0  0  0  0  0  0  0  0  0
   24.0163  -26.2150  -19.2209 C   0  0  0  0  0  0  0  0  0  0  0  0
   22.7762  -26.1585  -19.0689 O   0  0  0  0  0  0  0  0  0  0  0  0
   29.2132  -29.0472  -14.8339 O   0  0  0  0  0  0  0  0  0  0  0  0
   23.6357  -27.5755  -23.8472 C   0  0  0  0  0  0  0  0  0  0  0  0
   24.5334  -27.3742  -22.7981 C   0  0  2  0  0  0  0  0  0  0  0  0
   23.7575  -27.0598  -21.5713 N   0  0  0  0  0  0  0  0  0  0  0  0
   24.5292  -26.6936  -20.4365 C   0  0  0  0  0  0  0  0  0  0  0  0
   22.8813  -28.2253  -21.2716 O   0  0  0  0  0  0  0  0  0  0  0  0
   23.2103  -28.9690  -20.3106 O   0  0  0  0  0  0  0  0  0  0  0  0
  2  1  1  1
  2  3  1  0
  4  2  1  0
  4  5  2  0
  6  7  1  0
  7  8  2  0
  7  9  1  0
  9 10  1  0
 10 11  1  0
 11 12  1  0
 13 12  1  1
 13 15  1  0
 13 14  1  0
 14  4  1  0
 15 20  1  0
 16 15  2  0
 18 17  1  0
 19 18  1  6
 19 21  1  0
 20 19  1  0
 21 22  2  0
 21 23  1  0
M  END
$$$$
