ARS.pdb
     RDKit          3D

 23 22  0  0  1  0  0  0  0  0999 V2000
   25.4171  -22.1824  -15.6912 C   0  0  0  0  0  0  0  0  0  0  0  0
   24.8038  -20.8514  -16.0490 C   0  0  2  0  0  0  0  0  0  0  0  0
   25.7840  -19.8529  -16.3395 N   0  0  0  0  0  0  0  0  0  0  0  0
   23.8128  -20.4020  -15.0332 C   0  0  0  0  0  0  0  0  0  0  0  0
   24.1682  -19.9473  -13.9157 O   0  0  0  0  0  0  0  0  0  0  0  0
   19.2781  -16.7563  -19.1723 N   0  0  0  0  0  0  0  0  0  0  0  0
   20.0187  -15.7653  -18.4400 C   0  0  0  0  0  0  0  0  0  0  0  0
   20.4316  -14.7224  -19.0653 N   0  0  0  0  0  0  0  0  0  0  0  0
   20.2831  -15.9434  -17.0604 N   0  0  0  0  0  0  0  0  0  0  0  0
   19.7686  -17.0852  -16.3483 C   0  0  0  0  0  0  0  0  0  0  0  0
   20.9162  -17.8967  -15.7412 C   0  0  0  0  0  0  0  0  0  0  0  0
   20.3555  -19.1265  -15.0573 C   0  0  0  0  0  0  0  0  0  0  0  0
   21.4347  -19.9006  -14.3542 C   0  0  2  0  0  0  0  0  0  0  0  0
   22.4102  -20.4594  -15.2634 N   0  0  0  0  0  0  0  0  0  0  0  0
   20.9352  -20.8731  -13.3802 C   0  0  0  0  0  0  0  0  0  0  0  0
   20.7158  -22.0472  -13.7511 O   0  0  0  0  0  0  0  0  0  0  0  0
   21.0575  -14.0603  -18.5632 O   0  0  0  0  0  0  0  0  0  0  0  0
   19.9398  -21.9108   -8.7630 C   0  0  0  0  0  0  0  0  0  0  0  0
   20.3480  -20.9024   -9.6368 C   0  0  2  0  0  0  0  0  0  0  0  0
   20.2551  -21.4199  -11.0258 N   0  0  0  0  0  0  0  0  0  0  0  0
   20.6938  -20.5290  -12.0412 C   0  0  0  0  0  0  0  0  0  0  0  0
   18.8503  -21.8525  -11.2609 O   0  0  0  0  0  0  0  0  0  0  0  0
   18.0840  -21.0465  -11.8507 O   0  0  0  0  0  0  0  0  0  0  0  0
  2  1  1  1
  2  3  1  0
  4  2  1  0
  4  5  2  0
  6  7  1  0
  7  8  2  0
  7  9  1  0
  9 10  1  0
 10 11  1  0
 11 12  1  0
 13 12  1  6
 13 15  1  0
 13 14  1  0
 14  4  1  0
 15 20  1  0
 16 15  2  0
 18 17  1  0
 19 18  1  1
 19 21  1  0
 20 19  1  0
 21 22  2  0
 21 23  1  0
M  END
$$$$
