ARS.pdb
     RDKit          3D

 23 22  0  0  1  0  0  0  0  0999 V2000
   27.8215  -20.5792  -17.0625 C   0  0  0  0  0  0  0  0  0  0  0  0
   27.7574  -21.5955  -15.9495 C   0  0  2  0  0  0  0  0  0  0  0  0
   28.1261  -22.9077  -16.3790 N   0  0  0  0  0  0  0  0  0  0  0  0
   26.4459  -21.5711  -15.2458 C   0  0  0  0  0  0  0  0  0  0  0  0
   25.4505  -22.2083  -15.6759 O   0  0  0  0  0  0  0  0  0  0  0  0
   23.3390  -21.5124   -7.1346 N   0  0  0  0  0  0  0  0  0  0  0  0
   22.2247  -21.2886   -8.0151 C   0  0  0  0  0  0  0  0  0  0  0  0
   21.0575  -21.1393   -7.5010 N   0  0  0  0  0  0  0  0  0  0  0  0
   22.4188  -21.2363   -9.4167 N   0  0  0  0  0  0  0  0  0  0  0  0
   23.7435  -21.1820   -9.9802 C   0  0  0  0  0  0  0  0  0  0  0  0
   23.7532  -20.3075  -11.2369 C   0  0  0  0  0  0  0  0  0  0  0  0
   25.1066  -20.4089  -11.9096 C   0  0  0  0  0  0  0  0  0  0  0  0
   24.9696  -20.7743  -13.3607 C   0  0  2  0  0  0  0  0  0  0  0  0
   26.2394  -20.8290  -14.0499 N   0  0  0  0  0  0  0  0  0  0  0  0
   23.9593  -19.9963  -14.0804 C   0  0  0  0  0  0  0  0  0  0  0  0
   24.1746  -18.7860  -14.3110 O   0  0  0  0  0  0  0  0  0  0  0  0
   20.2555  -20.9595   -8.1388 O   0  0  0  0  0  0  0  0  0  0  0  0
   20.9585  -21.9193  -16.0872 C   0  0  0  0  0  0  0  0  0  0  0  0
   21.2095  -20.5905  -16.4313 C   0  0  1  0  0  0  0  0  0  0  0  0
   21.7307  -19.8864  -15.2320 N   0  0  0  0  0  0  0  0  0  0  0  0
   22.7546  -20.5663  -14.5202 C   0  0  0  0  0  0  0  0  0  0  0  0
   20.5763  -19.5746  -14.3454 O   0  0  0  0  0  0  0  0  0  0  0  0
   20.6187  -20.0029  -13.1623 O   0  0  0  0  0  0  0  0  0  0  0  0
  2  1  1  6
  2  3  1  0
  4  2  1  0
  4  5  2  0
  6  7  1  0
  7  8  2  0
  7  9  1  0
  9 10  1  0
 10 11  1  0
 11 12  1  0
 13 12  1  1
 13 15  1  0
 13 14  1  0
 14  4  1  0
 15 20  1  0
 16 15  2  0
 18 17  1  0
 19 18  1  6
 19 21  1  0
 20 19  1  0
 21 22  2  0
 21 23  1  0
M  END
$$$$
