ARS.pdb
     RDKit          3D

 23 22  0  0  1  0  0  0  0  0999 V2000
   22.3891   -9.1225  -14.4575 C   0  0  0  0  0  0  0  0  0  0  0  0
   21.1449   -9.8974  -14.8139 C   0  0  2  0  0  0  0  0  0  0  0  0
   21.1628  -10.3813  -16.1584 N   0  0  0  0  0  0  0  0  0  0  0  0
   19.9042   -9.1391  -14.4952 C   0  0  0  0  0  0  0  0  0  0  0  0
   19.5115   -8.1802  -15.2079 O   0  0  0  0  0  0  0  0  0  0  0  0
   13.1928  -10.2313   -8.5070 N   0  0  0  0  0  0  0  0  0  0  0  0
   12.7719   -9.2807   -9.4999 C   0  0  0  0  0  0  0  0  0  0  0  0
   11.5415   -8.9132   -9.5141 N   0  0  0  0  0  0  0  0  0  0  0  0
   13.6996   -8.7668  -10.4381 N   0  0  0  0  0  0  0  0  0  0  0  0
   14.9867   -9.3868  -10.6238 C   0  0  0  0  0  0  0  0  0  0  0  0
   15.7578   -8.6888  -11.7473 C   0  0  0  0  0  0  0  0  0  0  0  0
   17.0999   -9.3664  -11.9323 C   0  0  0  0  0  0  0  0  0  0  0  0
   17.8939   -8.7158  -13.0298 C   0  0  2  0  0  0  0  0  0  0  0  0
   19.0914   -9.4511  -13.3702 N   0  0  0  0  0  0  0  0  0  0  0  0
   18.1369   -7.2865  -12.8255 C   0  0  0  0  0  0  0  0  0  0  0  0
   19.0796   -6.9299  -12.0849 O   0  0  0  0  0  0  0  0  0  0  0  0
   11.2345   -8.2413  -10.2466 O   0  0  0  0  0  0  0  0  0  0  0  0
   18.8079   -3.0292  -14.0429 C   0  0  0  0  0  0  0  0  0  0  0  0
   18.6579   -4.3984  -14.2660 C   0  0  2  0  0  0  0  0  0  0  0  0
   17.5780   -4.9020  -13.3795 N   0  0  0  0  0  0  0  0  0  0  0  0
   17.3440   -6.3019  -13.4350 C   0  0  0  0  0  0  0  0  0  0  0  0
   16.3383   -4.1376  -13.6872 O   0  0  0  0  0  0  0  0  0  0  0  0
   15.3798   -4.7675  -14.2061 O   0  0  0  0  0  0  0  0  0  0  0  0
  2  1  1  6
  2  3  1  0
  4  2  1  0
  4  5  2  0
  6  7  1  0
  7  8  2  0
  7  9  1  0
  9 10  1  0
 10 11  1  0
 11 12  1  0
 13 12  1  1
 13 15  1  0
 13 14  1  0
 14  4  1  0
 15 20  1  0
 16 15  2  0
 18 17  1  0
 19 18  1  1
 19 21  1  0
 20 19  1  0
 21 22  2  0
 21 23  1  0
M  END
$$$$
