VKE.pdb
     RDKit          3D

 26 25  0  0  1  0  0  0  0  0999 V2000
   13.3861  -11.0102  -19.1358 C   0  0  0  0  0  0  0  0  0  0  0  0
   14.5708  -10.7605  -18.2712 C   0  0  1  0  0  0  0  0  0  0  0  0
   14.2189  -10.9715  -16.7847 C   0  0  0  0  0  0  0  0  0  0  0  0
   15.7798  -11.5803  -18.5421 C   0  0  2  0  0  0  0  0  0  0  0  0
   15.4096  -13.0016  -18.3988 N   0  0  0  0  0  0  0  0  0  0  0  0
   16.9439  -11.2533  -17.7104 C   0  0  0  0  0  0  0  0  0  0  0  0
   16.7911  -11.0191  -16.4950 O   0  0  0  0  0  0  0  0  0  0  0  0
   18.2752  -11.1850  -18.2442 N   0  0  0  0  0  0  0  0  0  0  0  0
   19.4114  -10.9298  -17.3545 C   0  0  1  0  0  0  0  0  0  0  0  0
   20.6253  -11.6393  -17.8092 C   0  0  0  0  0  0  0  0  0  0  0  0
   20.5954  -13.1250  -17.6528 C   0  0  0  0  0  0  0  0  0  0  0  0
   21.8783  -13.6968  -18.2851 C   0  0  0  0  0  0  0  0  0  0  0  0
   21.8567  -15.1969  -18.3058 C   0  0  0  0  0  0  0  0  0  0  0  0
   23.0368  -15.6846  -19.0053 N   0  0  0  0  0  0  0  0  0  0  0  0
   19.4944   -9.4700  -17.1807 C   0  0  0  0  0  0  0  0  0  0  0  0
   19.3679   -8.7218  -18.1973 O   0  0  0  0  0  0  0  0  0  0  0  0
   19.6949   -8.7690  -15.9882 N   0  0  0  0  0  0  0  0  0  0  0  0
   19.8595   -7.3174  -15.8787 C   0  0  1  0  0  0  0  0  0  0  0  0
   18.5896   -6.6186  -15.7576 C   0  0  0  0  0  0  0  0  0  0  0  0
   18.6687   -5.1588  -15.5247 C   0  0  0  0  0  0  0  0  0  0  0  0
   17.4172   -4.4168  -15.4322 C   0  0  0  0  0  0  0  0  0  0  0  0
   16.3246   -5.0120  -15.7400 O   0  0  0  0  0  0  0  0  0  0  0  0
   20.8572   -7.0495  -14.8859 C   0  0  0  0  0  0  0  0  0  0  0  0
   21.3618   -5.7650  -14.7149 O   0  0  0  0  0  0  0  0  0  0  0  0
   17.4274   -3.0811  -15.0137 O   0  0  0  0  0  0  0  0  0  0  0  0
   21.3139   -7.9412  -14.1408 O   0  0  0  0  0  0  0  0  0  0  0  0
  2  4  1  0
  2  1  1  6
  3  2  1  0
  4  5  1  1
  6  4  1  0
  6  7  2  0
  8  6  1  0
  9  8  1  0
  9 10  1  6
 11 12  1  0
 11 10  1  0
 12 13  1  0
 13 14  1  0
 15 17  1  0
 15  9  1  0
 16 15  2  0
 18 17  1  0
 18 19  1  1
 19 20  1  0
 20 21  1  0
 21 22  2  0
 23 18  1  0
 24 23  1  0
 25 21  1  0
 26 23  2  0
M  END
$$$$
