VKE.pdb
     RDKit          3D

 26 25  0  0  1  0  0  0  0  0999 V2000
   12.3634   -9.2130  -12.4280 C   0  0  0  0  0  0  0  0  0  0  0  0
   12.3259  -10.3704  -11.4940 C   0  0  1  0  0  0  0  0  0  0  0  0
   10.8802  -10.8694  -11.2971 C   0  0  0  0  0  0  0  0  0  0  0  0
   13.1377  -11.5569  -11.8685 C   0  0  2  0  0  0  0  0  0  0  0  0
   13.0979  -12.5113  -10.7437 N   0  0  0  0  0  0  0  0  0  0  0  0
   14.5213  -11.2582  -12.2563 C   0  0  0  0  0  0  0  0  0  0  0  0
   15.3699  -11.0034  -11.3785 O   0  0  0  0  0  0  0  0  0  0  0  0
   14.9488  -11.2411  -13.6270 N   0  0  0  0  0  0  0  0  0  0  0  0
   16.3391  -10.9178  -13.9592 C   0  0  1  0  0  0  0  0  0  0  0  0
   16.9546  -11.9691  -14.7957 C   0  0  0  0  0  0  0  0  0  0  0  0
   18.3824  -11.7362  -15.1694 C   0  0  0  0  0  0  0  0  0  0  0  0
   18.8613  -12.9432  -15.9978 C   0  0  0  0  0  0  0  0  0  0  0  0
   20.3353  -12.8709  -16.2688 C   0  0  0  0  0  0  0  0  0  0  0  0
   20.7269  -14.0009  -17.0992 N   0  0  0  0  0  0  0  0  0  0  0  0
   16.3418   -9.5395  -14.4773 C   0  0  0  0  0  0  0  0  0  0  0  0
   15.4825   -9.2093  -15.3503 O   0  0  0  0  0  0  0  0  0  0  0  0
   17.1996   -8.4986  -14.1110 N   0  0  0  0  0  0  0  0  0  0  0  0
   17.2227   -7.1676  -14.7227 C   0  0  1  0  0  0  0  0  0  0  0  0
   16.5673   -6.1631  -13.8998 C   0  0  0  0  0  0  0  0  0  0  0  0
   16.6844   -4.7625  -14.3645 C   0  0  0  0  0  0  0  0  0  0  0  0
   16.0743   -3.7218  -13.5458 C   0  0  0  0  0  0  0  0  0  0  0  0
   15.4927   -4.0590  -12.4546 O   0  0  0  0  0  0  0  0  0  0  0  0
   18.5598   -6.8937  -15.1582 C   0  0  0  0  0  0  0  0  0  0  0  0
   18.8293   -5.8069  -15.9829 O   0  0  0  0  0  0  0  0  0  0  0  0
   16.1322   -2.3856  -13.9589 O   0  0  0  0  0  0  0  0  0  0  0  0
   19.5296   -7.6059  -14.8249 O   0  0  0  0  0  0  0  0  0  0  0  0
  2  4  1  0
  2  1  1  6
  3  2  1  0
  4  5  1  1
  6  4  1  0
  6  7  2  0
  8  6  1  0
  9  8  1  0
  9 10  1  6
 11 12  1  0
 11 10  1  0
 12 13  1  0
 13 14  1  0
 15 17  1  0
 15  9  1  0
 16 15  2  0
 18 17  1  0
 18 19  1  1
 19 20  1  0
 20 21  1  0
 21 22  2  0
 23 18  1  0
 24 23  1  0
 25 21  1  0
 26 23  2  0
M  END
$$$$
