VKE.pdb
     RDKit          3D

 26 25  0  0  1  0  0  0  0  0999 V2000
   26.1588  -13.7775  -17.7355 C   0  0  0  0  0  0  0  0  0  0  0  0
   24.8277  -13.1260  -17.8662 C   0  0  1  0  0  0  0  0  0  0  0  0
   23.6934  -14.1513  -17.6658 C   0  0  0  0  0  0  0  0  0  0  0  0
   24.5450  -11.9944  -16.9460 C   0  0  2  0  0  0  0  0  0  0  0  0
   24.7833  -12.4577  -15.5654 N   0  0  0  0  0  0  0  0  0  0  0  0
   23.2050  -11.4113  -17.0815 C   0  0  0  0  0  0  0  0  0  0  0  0
   22.9023  -10.7879  -18.1185 O   0  0  0  0  0  0  0  0  0  0  0  0
   22.2099  -11.5243  -16.0526 N   0  0  0  0  0  0  0  0  0  0  0  0
   20.8874  -10.9211  -16.2399 C   0  0  1  0  0  0  0  0  0  0  0  0
   19.8433  -11.6665  -15.5064 C   0  0  0  0  0  0  0  0  0  0  0  0
   18.8399  -12.3712  -16.3604 C   0  0  0  0  0  0  0  0  0  0  0  0
   17.8389  -13.0830  -15.4309 C   0  0  0  0  0  0  0  0  0  0  0  0
   16.4523  -12.5346  -15.5972 C   0  0  0  0  0  0  0  0  0  0  0  0
   15.5270  -13.3146  -14.7878 N   0  0  0  0  0  0  0  0  0  0  0  0
   21.0328   -9.4839  -15.9546 C   0  0  0  0  0  0  0  0  0  0  0  0
   21.7790   -9.1199  -14.9955 O   0  0  0  0  0  0  0  0  0  0  0  0
   20.4364   -8.4202  -16.6378 N   0  0  0  0  0  0  0  0  0  0  0  0
   20.6348   -7.0015  -16.3311 C   0  0  1  0  0  0  0  0  0  0  0  0
   20.4392   -6.1464  -17.4913 C   0  0  0  0  0  0  0  0  0  0  0  0
   20.6046   -4.6928  -17.2648 C   0  0  0  0  0  0  0  0  0  0  0  0
   20.3577   -3.7976  -18.3888 C   0  0  0  0  0  0  0  0  0  0  0  0
   20.1034   -4.3071  -19.5370 O   0  0  0  0  0  0  0  0  0  0  0  0
   19.8920   -6.6871  -15.1470 C   0  0  0  0  0  0  0  0  0  0  0  0
   20.3339   -5.7001  -14.2727 O   0  0  0  0  0  0  0  0  0  0  0  0
   20.4017   -2.4114  -18.1993 O   0  0  0  0  0  0  0  0  0  0  0  0
   18.8317   -7.2747  -14.8484 O   0  0  0  0  0  0  0  0  0  0  0  0
  2  4  1  0
  2  1  1  1
  3  2  1  0
  4  5  1  1
  6  4  1  0
  6  7  2  0
  8  6  1  0
  9  8  1  0
  9 10  1  1
 11 12  1  0
 11 10  1  0
 12 13  1  0
 13 14  1  0
 15 17  1  0
 15  9  1  0
 16 15  2  0
 18 17  1  0
 18 19  1  6
 19 20  1  0
 20 21  1  0
 21 22  2  0
 23 18  1  0
 24 23  1  0
 25 21  1  0
 26 23  2  0
M  END
$$$$
