VKE.pdb
     RDKit          3D

 26 25  0  0  1  0  0  0  0  0999 V2000
   23.8216  -14.8923  -18.3929 C   0  0  0  0  0  0  0  0  0  0  0  0
   22.3696  -14.8663  -18.7157 C   0  0  1  0  0  0  0  0  0  0  0  0
   22.0882  -13.9206  -19.9008 C   0  0  0  0  0  0  0  0  0  0  0  0
   21.7369  -16.1680  -19.0515 C   0  0  2  0  0  0  0  0  0  0  0  0
   20.3259  -15.9137  -19.4005 N   0  0  0  0  0  0  0  0  0  0  0  0
   21.8439  -17.1919  -18.0055 C   0  0  0  0  0  0  0  0  0  0  0  0
   22.9684  -17.5797  -17.6304 O   0  0  0  0  0  0  0  0  0  0  0  0
   20.6904  -17.7817  -17.3862 N   0  0  0  0  0  0  0  0  0  0  0  0
   20.8546  -18.8220  -16.3672 C   0  0  1  0  0  0  0  0  0  0  0  0
   19.5666  -19.1616  -15.7274 C   0  0  0  0  0  0  0  0  0  0  0  0
   19.5973  -20.3429  -14.8130 C   0  0  0  0  0  0  0  0  0  0  0  0
   20.1308  -19.8740  -13.4462 C   0  0  0  0  0  0  0  0  0  0  0  0
   20.1090  -20.9861  -12.4393 C   0  0  0  0  0  0  0  0  0  0  0  0
   20.4808  -20.4594  -11.1339 N   0  0  0  0  0  0  0  0  0  0  0  0
   21.6178  -19.9136  -16.9948 C   0  0  0  0  0  0  0  0  0  0  0  0
   21.2881  -20.3062  -18.1552 O   0  0  0  0  0  0  0  0  0  0  0  0
   22.7121  -20.5990  -16.4594 N   0  0  0  0  0  0  0  0  0  0  0  0
   23.4216  -21.7009  -17.1138 C   0  0  1  0  0  0  0  0  0  0  0  0
   24.8158  -21.7869  -16.7082 C   0  0  0  0  0  0  0  0  0  0  0  0
   25.6335  -22.8095  -17.3989 C   0  0  0  0  0  0  0  0  0  0  0  0
   27.0296  -22.9452  -17.0013 C   0  0  0  0  0  0  0  0  0  0  0  0
   27.4722  -22.2116  -16.0481 O   0  0  0  0  0  0  0  0  0  0  0  0
   22.6253  -22.8858  -16.9933 C   0  0  0  0  0  0  0  0  0  0  0  0
   22.6818  -23.8810  -17.9630 O   0  0  0  0  0  0  0  0  0  0  0  0
   27.8561  -23.8639  -17.6589 O   0  0  0  0  0  0  0  0  0  0  0  0
   21.8552  -23.0775  -16.0294 O   0  0  0  0  0  0  0  0  0  0  0  0
  2  4  1  0
  2  1  1  6
  3  2  1  0
  4  5  1  1
  6  4  1  0
  6  7  2  0
  8  6  1  0
  9  8  1  0
  9 10  1  6
 11 12  1  0
 11 10  1  0
 12 13  1  0
 13 14  1  0
 15 17  1  0
 15  9  1  0
 16 15  2  0
 18 17  1  0
 18 19  1  1
 19 20  1  0
 20 21  1  0
 21 22  2  0
 23 18  1  0
 24 23  1  0
 25 21  1  0
 26 23  2  0
M  END
$$$$
