VKE.pdb
     RDKit          3D

 26 25  0  0  1  0  0  0  0  0999 V2000
   21.2154   -8.4469  -24.7233 C   0  0  0  0  0  0  0  0  0  0  0  0
   20.6454   -8.8728  -23.4168 C   0  0  1  0  0  0  0  0  0  0  0  0
   19.1314   -9.1386  -23.5397 C   0  0  0  0  0  0  0  0  0  0  0  0
   21.2398  -10.0823  -22.7916 C   0  0  2  0  0  0  0  0  0  0  0  0
   21.1491  -11.1900  -23.7623 N   0  0  0  0  0  0  0  0  0  0  0  0
   20.6488  -10.4622  -21.5030 C   0  0  0  0  0  0  0  0  0  0  0  0
   19.5902  -11.1211  -21.4768 O   0  0  0  0  0  0  0  0  0  0  0  0
   21.2433  -10.0986  -20.2476 N   0  0  0  0  0  0  0  0  0  0  0  0
   20.6349  -10.5424  -18.9903 C   0  0  1  0  0  0  0  0  0  0  0  0
   21.5654  -11.3785  -18.2038 C   0  0  0  0  0  0  0  0  0  0  0  0
   21.0458  -11.8469  -16.8835 C   0  0  0  0  0  0  0  0  0  0  0  0
   20.2998  -13.1756  -17.1090 C   0  0  0  0  0  0  0  0  0  0  0  0
   19.6736  -13.6739  -15.8398 C   0  0  0  0  0  0  0  0  0  0  0  0
   18.8403  -14.8302  -16.1372 N   0  0  0  0  0  0  0  0  0  0  0  0
   20.0759   -9.3435  -18.3435 C   0  0  0  0  0  0  0  0  0  0  0  0
   20.7988   -8.3060  -18.2424 O   0  0  0  0  0  0  0  0  0  0  0  0
   18.7932   -9.1891  -17.8101 N   0  0  0  0  0  0  0  0  0  0  0  0
   18.3099   -8.0014  -17.1017 C   0  0  1  0  0  0  0  0  0  0  0  0
   16.8652   -8.0008  -16.9327 C   0  0  0  0  0  0  0  0  0  0  0  0
   16.2924   -6.8335  -16.2252 C   0  0  0  0  0  0  0  0  0  0  0  0
   14.8612   -6.8427  -15.9472 C   0  0  0  0  0  0  0  0  0  0  0  0
   14.1704   -7.8596  -16.3096 O   0  0  0  0  0  0  0  0  0  0  0  0
   19.1114   -7.8179  -15.9283 C   0  0  0  0  0  0  0  0  0  0  0  0
   19.5175   -6.5466  -15.5375 O   0  0  0  0  0  0  0  0  0  0  0  0
   14.2699   -5.7536  -15.2964 O   0  0  0  0  0  0  0  0  0  0  0  0
   19.4779   -8.7741  -15.2140 O   0  0  0  0  0  0  0  0  0  0  0  0
  2  4  1  0
  2  1  1  6
  3  2  1  0
  4  5  1  6
  6  4  1  0
  6  7  2  0
  8  6  1  0
  9  8  1  0
  9 10  1  1
 11 12  1  0
 11 10  1  0
 12 13  1  0
 13 14  1  0
 15 17  1  0
 15  9  1  0
 16 15  2  0
 18 17  1  0
 18 19  1  1
 19 20  1  0
 20 21  1  0
 21 22  2  0
 23 18  1  0
 24 23  1  0
 25 21  1  0
 26 23  2  0
M  END
$$$$
