VKE.pdb
     RDKit          3D

 26 25  0  0  1  0  0  0  0  0999 V2000
   22.8252  -10.2479  -13.7577 C   0  0  0  0  0  0  0  0  0  0  0  0
   21.5491   -9.5606  -13.4226 C   0  0  1  0  0  0  0  0  0  0  0  0
   21.4790   -8.1754  -14.0965 C   0  0  0  0  0  0  0  0  0  0  0  0
   20.2943  -10.2711  -13.7802 C   0  0  2  0  0  0  0  0  0  0  0  0
   20.3396  -10.5808  -15.2223 N   0  0  0  0  0  0  0  0  0  0  0  0
   19.0614   -9.5538  -13.4345 C   0  0  0  0  0  0  0  0  0  0  0  0
   18.5352   -8.7887  -14.2671 O   0  0  0  0  0  0  0  0  0  0  0  0
   18.4244   -9.6925  -12.1552 N   0  0  0  0  0  0  0  0  0  0  0  0
   17.1287   -9.0544  -11.9063 C   0  0  1  0  0  0  0  0  0  0  0  0
   16.2284   -9.9386  -11.1374 C   0  0  0  0  0  0  0  0  0  0  0  0
   14.9509   -9.3118  -10.6815 C   0  0  0  0  0  0  0  0  0  0  0  0
   14.1178  -10.3928   -9.9673 C   0  0  0  0  0  0  0  0  0  0  0  0
   12.8310   -9.8314   -9.4381 C   0  0  0  0  0  0  0  0  0  0  0  0
   12.1087  -10.8754   -8.7252 N   0  0  0  0  0  0  0  0  0  0  0  0
   17.4127   -7.7185  -11.3562 C   0  0  0  0  0  0  0  0  0  0  0  0
   18.2642   -7.6064  -10.4224 O   0  0  0  0  0  0  0  0  0  0  0  0
   16.8483   -6.5022  -11.7511 N   0  0  0  0  0  0  0  0  0  0  0  0
   17.2876   -5.1801  -11.2983 C   0  0  1  0  0  0  0  0  0  0  0  0
   17.8583   -4.3827  -12.3726 C   0  0  0  0  0  0  0  0  0  0  0  0
   18.2558   -3.0014  -12.0183 C   0  0  0  0  0  0  0  0  0  0  0  0
   18.7437   -2.1393  -13.0881 C   0  0  0  0  0  0  0  0  0  0  0  0
   20.0071   -2.0643  -13.2902 O   0  0  0  0  0  0  0  0  0  0  0  0
   16.2313   -4.5919  -10.5296 C   0  0  0  0  0  0  0  0  0  0  0  0
   16.5076   -3.6370   -9.5571 O   0  0  0  0  0  0  0  0  0  0  0  0
   17.8357   -1.4150  -13.8693 O   0  0  0  0  0  0  0  0  0  0  0  0
   15.0334   -4.9038  -10.6927 O   0  0  0  0  0  0  0  0  0  0  0  0
  2  4  1  0
  2  1  1  6
  3  2  1  0
  4  5  1  6
  6  4  1  0
  6  7  2  0
  8  6  1  0
  9  8  1  0
  9 10  1  1
 11 12  1  0
 11 10  1  0
 12 13  1  0
 13 14  1  0
 15 17  1  0
 15  9  1  0
 16 15  2  0
 18 17  1  0
 18 19  1  6
 19 20  1  0
 20 21  1  0
 21 22  2  0
 23 18  1  0
 24 23  1  0
 25 21  1  0
 26 23  2  0
M  END
$$$$
