VKE.pdb
     RDKit          3D

 26 25  0  0  1  0  0  0  0  0999 V2000
   25.2430  -13.7433  -18.4179 C   0  0  0  0  0  0  0  0  0  0  0  0
   24.0874  -12.8112  -18.3223 C   0  0  1  0  0  0  0  0  0  0  0  0
   22.7853  -13.5811  -18.0226 C   0  0  0  0  0  0  0  0  0  0  0  0
   24.1843  -11.7294  -17.3086 C   0  0  2  0  0  0  0  0  0  0  0  0
   24.5157  -12.3480  -16.0105 N   0  0  0  0  0  0  0  0  0  0  0  0
   22.9917  -10.8812  -17.1981 C   0  0  0  0  0  0  0  0  0  0  0  0
   22.6827  -10.1209  -18.1372 O   0  0  0  0  0  0  0  0  0  0  0  0
   22.1517  -10.8840  -16.0336 N   0  0  0  0  0  0  0  0  0  0  0  0
   21.0013   -9.9795  -15.9552 C   0  0  1  0  0  0  0  0  0  0  0  0
   19.8105  -10.6637  -15.4098 C   0  0  0  0  0  0  0  0  0  0  0  0
   18.5902   -9.8127  -15.2708 C   0  0  0  0  0  0  0  0  0  0  0  0
   17.4935  -10.6584  -14.5964 C   0  0  0  0  0  0  0  0  0  0  0  0
   16.2260   -9.8741  -14.4241 C   0  0  0  0  0  0  0  0  0  0  0  0
   15.3236  -10.6065  -13.5470 N   0  0  0  0  0  0  0  0  0  0  0  0
   21.4658   -8.7610  -15.2713 C   0  0  0  0  0  0  0  0  0  0  0  0
   22.1267   -8.8746  -14.1944 O   0  0  0  0  0  0  0  0  0  0  0  0
   21.2727   -7.4369  -15.6753 N   0  0  0  0  0  0  0  0  0  0  0  0
   21.7115   -6.2538  -14.9312 C   0  0  1  0  0  0  0  0  0  0  0  0
   21.4989   -5.0188  -15.6696 C   0  0  0  0  0  0  0  0  0  0  0  0
   21.9114   -3.7719  -14.9864 C   0  0  0  0  0  0  0  0  0  0  0  0
   21.6849   -2.5100  -15.6806 C   0  0  0  0  0  0  0  0  0  0  0  0
   22.4570   -2.1960  -16.6542 O   0  0  0  0  0  0  0  0  0  0  0  0
   21.1755   -6.3299  -13.6047 C   0  0  0  0  0  0  0  0  0  0  0  0
   19.9165   -6.8751  -13.3777 O   0  0  0  0  0  0  0  0  0  0  0  0
   20.6399   -1.6702  -15.2780 O   0  0  0  0  0  0  0  0  0  0  0  0
   21.8019   -5.9166  -12.6068 O   0  0  0  0  0  0  0  0  0  0  0  0
  2  4  1  0
  2  1  1  1
  3  2  1  0
  4  5  1  1
  6  4  1  0
  6  7  2  0
  8  6  1  0
  9  8  1  0
  9 10  1  1
 11 12  1  0
 11 10  1  0
 12 13  1  0
 13 14  1  0
 15 17  1  0
 15  9  1  0
 16 15  2  0
 18 17  1  0
 18 19  1  6
 19 20  1  0
 20 21  1  0
 21 22  2  0
 23 18  1  0
 24 23  1  0
 25 21  1  0
 26 23  2  0
M  END
$$$$
