VKE.pdb
     RDKit          3D

 26 25  0  0  1  0  0  0  0  0999 V2000
   19.2940  -12.3759  -19.0036 C   0  0  0  0  0  0  0  0  0  0  0  0
   18.9983  -13.0468  -17.7092 C   0  0  1  0  0  0  0  0  0  0  0  0
   19.7078  -14.4134  -17.6252 C   0  0  0  0  0  0  0  0  0  0  0  0
   19.3595  -12.3039  -16.4743 C   0  0  2  0  0  0  0  0  0  0  0  0
   19.1034  -13.1857  -15.3191 N   0  0  0  0  0  0  0  0  0  0  0  0
   18.6801  -11.0132  -16.3119 C   0  0  0  0  0  0  0  0  0  0  0  0
   18.9008  -10.0904  -17.1214 O   0  0  0  0  0  0  0  0  0  0  0  0
   17.7591  -10.7588  -15.2401 N   0  0  0  0  0  0  0  0  0  0  0  0
   17.1527   -9.4329  -15.0914 C   0  0  1  0  0  0  0  0  0  0  0  0
   15.9103   -9.4920  -14.2935 C   0  0  0  0  0  0  0  0  0  0  0  0
   14.6734   -9.8350  -15.0584 C   0  0  0  0  0  0  0  0  0  0  0  0
   13.5020   -9.9113  -14.0611 C   0  0  0  0  0  0  0  0  0  0  0  0
   12.2541  -10.4205  -14.7204 C   0  0  0  0  0  0  0  0  0  0  0  0
   11.1372  -10.2971  -13.7947 N   0  0  0  0  0  0  0  0  0  0  0  0
   18.2198   -8.5276  -14.6336 C   0  0  0  0  0  0  0  0  0  0  0  0
   18.9676   -8.8934  -13.6763 O   0  0  0  0  0  0  0  0  0  0  0  0
   18.5365   -7.2653  -15.1436 N   0  0  0  0  0  0  0  0  0  0  0  0
   19.6327   -6.4147  -14.6737 C   0  0  1  0  0  0  0  0  0  0  0  0
   20.7212   -6.3245  -15.6343 C   0  0  0  0  0  0  0  0  0  0  0  0
   21.8752   -5.4877  -15.2348 C   0  0  0  0  0  0  0  0  0  0  0  0
   22.9284   -5.2684  -16.2188 C   0  0  0  0  0  0  0  0  0  0  0  0
   23.5028   -6.2872  -16.7429 O   0  0  0  0  0  0  0  0  0  0  0  0
   19.0760   -5.1863  -14.1902 C   0  0  0  0  0  0  0  0  0  0  0  0
   19.7621   -4.4135  -13.2596 O   0  0  0  0  0  0  0  0  0  0  0  0
   23.2921   -3.9637  -16.5723 O   0  0  0  0  0  0  0  0  0  0  0  0
   17.9673   -4.7592  -14.5737 O   0  0  0  0  0  0  0  0  0  0  0  0
  2  4  1  0
  2  1  1  6
  3  2  1  0
  4  5  1  1
  6  4  1  0
  6  7  2  0
  8  6  1  0
  9  8  1  0
  9 10  1  1
 11 12  1  0
 11 10  1  0
 12 13  1  0
 13 14  1  0
 15 17  1  0
 15  9  1  0
 16 15  2  0
 18 17  1  0
 18 19  1  6
 19 20  1  0
 20 21  1  0
 21 22  2  0
 23 18  1  0
 24 23  1  0
 25 21  1  0
 26 23  2  0
M  END
$$$$
