VKE.pdb
     RDKit          3D

 26 25  0  0  1  0  0  0  0  0999 V2000
   10.5190  -11.9981  -10.3082 C   0  0  0  0  0  0  0  0  0  0  0  0
   11.9032  -11.5528  -10.6225 C   0  0  1  0  0  0  0  0  0  0  0  0
   12.6423  -11.1145   -9.3419 C   0  0  0  0  0  0  0  0  0  0  0  0
   12.7825  -12.5370  -11.3048 C   0  0  2  0  0  0  0  0  0  0  0  0
   12.8472  -13.7499  -10.4668 N   0  0  0  0  0  0  0  0  0  0  0  0
   14.1280  -12.0439  -11.6216 C   0  0  0  0  0  0  0  0  0  0  0  0
   15.0590  -12.2178  -10.8100 O   0  0  0  0  0  0  0  0  0  0  0  0
   14.4253  -11.3531  -12.8448 N   0  0  0  0  0  0  0  0  0  0  0  0
   15.7683  -10.8142  -13.0767 C   0  0  1  0  0  0  0  0  0  0  0  0
   16.3950  -11.4174  -14.2714 C   0  0  0  0  0  0  0  0  0  0  0  0
   17.8189  -11.0326  -14.5110 C   0  0  0  0  0  0  0  0  0  0  0  0
   17.8650  -10.1283  -15.7571 C   0  0  0  0  0  0  0  0  0  0  0  0
   19.2777   -9.8427  -16.1741 C   0  0  0  0  0  0  0  0  0  0  0  0
   19.2714   -8.8689  -17.2565 N   0  0  0  0  0  0  0  0  0  0  0  0
   15.6504   -9.3473  -13.0305 C   0  0  0  0  0  0  0  0  0  0  0  0
   14.7144   -8.7852  -13.6766 O   0  0  0  0  0  0  0  0  0  0  0  0
   16.4656   -8.4535  -12.3303 N   0  0  0  0  0  0  0  0  0  0  0  0
   16.2934   -6.9991  -12.2992 C   0  0  1  0  0  0  0  0  0  0  0  0
   16.3843   -6.4543  -10.9536 C   0  0  0  0  0  0  0  0  0  0  0  0
   16.3647   -4.9780  -10.8456 C   0  0  0  0  0  0  0  0  0  0  0  0
   16.5490   -4.3910   -9.5239 C   0  0  0  0  0  0  0  0  0  0  0  0
   16.5670   -3.1141   -9.4147 O   0  0  0  0  0  0  0  0  0  0  0  0
   17.1379   -6.4226  -13.3028 C   0  0  0  0  0  0  0  0  0  0  0  0
   16.7325   -5.2963  -14.0106 O   0  0  0  0  0  0  0  0  0  0  0  0
   16.7018   -5.2209   -8.4071 O   0  0  0  0  0  0  0  0  0  0  0  0
   18.2579   -6.8964  -13.5856 O   0  0  0  0  0  0  0  0  0  0  0  0
  2  4  1  0
  2  1  1  1
  3  2  1  0
  4  5  1  1
  6  4  1  0
  6  7  2  0
  8  6  1  0
  9  8  1  0
  9 10  1  6
 11 12  1  0
 11 10  1  0
 12 13  1  0
 13 14  1  0
 15 17  1  0
 15  9  1  0
 16 15  2  0
 18 17  1  0
 18 19  1  1
 19 20  1  0
 20 21  1  0
 21 22  2  0
 23 18  1  0
 24 23  1  0
 25 21  1  0
 26 23  2  0
M  END
$$$$
