VKE.pdb
     RDKit          3D

 26 25  0  0  1  0  0  0  0  0999 V2000
   24.9986  -10.5653  -14.5674 C   0  0  0  0  0  0  0  0  0  0  0  0
   23.6867   -9.9382  -14.8824 C   0  0  1  0  0  0  0  0  0  0  0  0
   23.7364   -9.2181  -16.2451 C   0  0  0  0  0  0  0  0  0  0  0  0
   22.5075  -10.8411  -14.9216 C   0  0  2  0  0  0  0  0  0  0  0  0
   22.8374  -11.9861  -15.7920 N   0  0  0  0  0  0  0  0  0  0  0  0
   21.2566  -10.2011  -15.3455 C   0  0  0  0  0  0  0  0  0  0  0  0
   20.9302  -10.2149  -16.5492 O   0  0  0  0  0  0  0  0  0  0  0  0
   20.3776   -9.5433  -14.4201 N   0  0  0  0  0  0  0  0  0  0  0  0
   19.1204   -8.9559  -14.8915 C   0  0  1  0  0  0  0  0  0  0  0  0
   18.0088   -9.2354  -13.9588 C   0  0  0  0  0  0  0  0  0  0  0  0
   16.6869   -8.6559  -14.3458 C   0  0  0  0  0  0  0  0  0  0  0  0
   15.9882   -9.6518  -15.2906 C   0  0  0  0  0  0  0  0  0  0  0  0
   14.6552   -9.1330  -15.7438 C   0  0  0  0  0  0  0  0  0  0  0  0
   14.0673  -10.0763  -16.6842 N   0  0  0  0  0  0  0  0  0  0  0  0
   19.4057   -7.5484  -15.2167 C   0  0  0  0  0  0  0  0  0  0  0  0
   20.1508   -6.8769  -14.4401 O   0  0  0  0  0  0  0  0  0  0  0  0
   18.9499   -6.8254  -16.3227 N   0  0  0  0  0  0  0  0  0  0  0  0
   19.2148   -5.4065  -16.5723 C   0  0  1  0  0  0  0  0  0  0  0  0
   19.1679   -5.0696  -17.9866 C   0  0  0  0  0  0  0  0  0  0  0  0
   20.3051   -5.5435  -18.8073 C   0  0  0  0  0  0  0  0  0  0  0  0
   20.3490   -5.1368  -20.2067 C   0  0  0  0  0  0  0  0  0  0  0  0
   21.3153   -5.5530  -20.9386 O   0  0  0  0  0  0  0  0  0  0  0  0
   18.4021   -4.6318  -15.6824 C   0  0  0  0  0  0  0  0  0  0  0  0
   18.7570   -3.3291  -15.3490 O   0  0  0  0  0  0  0  0  0  0  0  0
   19.3469   -4.3075  -20.7239 O   0  0  0  0  0  0  0  0  0  0  0  0
   17.3554   -5.0817  -15.1717 O   0  0  0  0  0  0  0  0  0  0  0  0
  2  4  1  0
  2  1  1  6
  3  2  1  0
  4  5  1  6
  6  4  1  0
  6  7  2  0
  8  6  1  0
  9  8  1  0
  9 10  1  1
 11 12  1  0
 11 10  1  0
 12 13  1  0
 13 14  1  0
 15 17  1  0
 15  9  1  0
 16 15  2  0
 18 17  1  0
 18 19  1  6
 19 20  1  0
 20 21  1  0
 21 22  2  0
 23 18  1  0
 24 23  1  0
 25 21  1  0
 26 23  2  0
M  END
$$$$
