DWQ.pdb
     RDKit          3D

 32 33  0  0  1  0  0  0  0  0999 V2000
   27.6407  -20.4216  -16.2795 N   0  0  0  0  0  0  0  0  0  0  0  0
   27.3499  -21.7793  -15.9192 C   0  0  1  0  0  0  0  0  0  0  0  0
   28.6013  -22.5970  -16.0359 C   0  0  0  0  0  0  0  0  0  0  0  0
   29.0210  -22.5577  -17.4620 C   0  0  0  0  0  0  0  0  0  0  0  0
   28.2219  -22.7856  -18.4131 O   0  0  0  0  0  0  0  0  0  0  0  0
   26.7094  -21.8496  -14.5856 C   0  0  0  0  0  0  0  0  0  0  0  0
   26.4437  -22.9882  -14.0932 O   0  0  0  0  0  0  0  0  0  0  0  0
   30.3303  -22.2651  -17.8414 O   0  0  0  0  0  0  0  0  0  0  0  0
   26.3706  -20.7266  -13.8149 N   0  0  0  0  0  0  0  0  0  0  0  0
   25.6376  -20.8083  -12.5351 C   0  0  1  0  0  0  0  0  0  0  0  0
   26.3500  -19.8849  -11.6175 C   0  0  0  0  0  0  0  0  0  0  0  0
   27.5016  -20.3888  -10.8845 C   0  0  0  0  0  0  0  0  0  0  0  0
   28.6014  -21.1090  -11.3862 C   0  0  0  0  0  0  0  0  0  0  0  0
   29.4144  -21.3969  -10.3674 N   0  0  0  0  0  0  0  0  0  0  0  0
   28.8910  -20.8930   -9.2169 C   0  0  0  0  0  0  0  0  0  0  0  0
   29.3497  -20.9157   -7.9184 C   0  0  0  0  0  0  0  0  0  0  0  0
   28.6440  -20.3148   -6.8874 C   0  0  0  0  0  0  0  0  0  0  0  0
   27.4562  -19.6778   -7.1565 C   0  0  0  0  0  0  0  0  0  0  0  0
   27.0164  -19.6677   -8.4615 C   0  0  0  0  0  0  0  0  0  0  0  0
   27.6896  -20.2548   -9.5157 C   0  0  0  0  0  0  0  0  0  0  0  0
   24.2012  -20.6325  -12.6908 C   0  0  0  0  0  0  0  0  0  0  0  0
   23.7324  -19.6652  -13.3436 O   0  0  0  0  0  0  0  0  0  0  0  0
   21.3758  -23.8909  -15.6785 N   0  0  0  0  0  0  0  0  0  0  0  0
   21.0031  -22.5433  -15.8253 C   0  0  0  0  0  0  0  0  0  0  0  0
   20.7309  -22.0896  -16.9560 O   0  0  0  0  0  0  0  0  0  0  0  0
   20.9113  -21.5870  -14.6581 C   0  0  0  0  0  0  0  0  0  0  0  0
   21.2662  -22.2794  -13.3780 C   0  0  0  0  0  0  0  0  0  0  0  0
   21.7892  -21.3325  -12.3682 C   0  0  2  0  0  0  0  0  0  0  0  0
   23.2210  -21.5113  -12.1367 N   0  0  0  0  0  0  0  0  0  0  0  0
   21.0635  -21.3019  -11.0750 C   0  0  0  0  0  0  0  0  0  0  0  0
   21.7743  -21.4160   -9.8557 O   0  0  0  0  0  0  0  0  0  0  0  0
   19.8276  -21.1800  -10.9310 O   0  0  0  0  0  0  0  0  0  0  0  0
  2  1  1  1
  2  3  1  0
  4  3  1  0
  4  8  1  0
  5  4  2  0
  6  7  2  0
  6  2  1  0
  9  6  1  0
 10  9  1  0
 10 11  1  1
 11 12  1  0
 12 13  2  0
 12 20  1  0
 13 14  1  0
 14 15  1  0
 15 16  2  0
 16 17  1  0
 18 17  2  0
 19 18  1  0
 20 19  2  0
 20 15  1  0
 21 10  1  0
 22 21  2  0
 23 24  1  0
 24 25  2  0
 26 24  1  0
 26 27  1  0
 28 27  1  6
 28 29  1  0
 29 21  1  0
 30 28  1  0
 31 30  1  0
 32 30  2  0
M  END
$$$$
