DWQ.pdb
     RDKit          3D

 32 33  0  0  1  0  0  0  0  0999 V2000
   27.6217  -22.8807  -15.4347 N   0  0  0  0  0  0  0  0  0  0  0  0
   27.6481  -21.6831  -14.6455 C   0  0  1  0  0  0  0  0  0  0  0  0
   27.0806  -20.5523  -15.4502 C   0  0  0  0  0  0  0  0  0  0  0  0
   28.1957  -19.9780  -16.2491 C   0  0  0  0  0  0  0  0  0  0  0  0
   29.1781  -20.6682  -16.6409 O   0  0  0  0  0  0  0  0  0  0  0  0
   26.9741  -21.8901  -13.3429 C   0  0  0  0  0  0  0  0  0  0  0  0
   25.8078  -22.3889  -13.3295 O   0  0  0  0  0  0  0  0  0  0  0  0
   28.2273  -18.6339  -16.6182 O   0  0  0  0  0  0  0  0  0  0  0  0
   27.5446  -21.5684  -12.1017 N   0  0  0  0  0  0  0  0  0  0  0  0
   26.7547  -21.3687  -10.8696 C   0  0  1  0  0  0  0  0  0  0  0  0
   27.7297  -20.9052   -9.8514 C   0  0  0  0  0  0  0  0  0  0  0  0
   27.2233  -20.4399   -8.5690 C   0  0  0  0  0  0  0  0  0  0  0  0
   26.0014  -19.7955   -8.3015 C   0  0  0  0  0  0  0  0  0  0  0  0
   25.9499  -19.5187   -6.9967 N   0  0  0  0  0  0  0  0  0  0  0  0
   27.0904  -19.9570   -6.3978 C   0  0  0  0  0  0  0  0  0  0  0  0
   27.5058  -19.9170   -5.0851 C   0  0  0  0  0  0  0  0  0  0  0  0
   28.7255  -20.4462   -4.6921 C   0  0  0  0  0  0  0  0  0  0  0  0
   29.5482  -21.0275   -5.6270 C   0  0  0  0  0  0  0  0  0  0  0  0
   29.1131  -21.0561   -6.9334 C   0  0  0  0  0  0  0  0  0  0  0  0
   27.9062  -20.5397   -7.3646 C   0  0  0  0  0  0  0  0  0  0  0  0
   25.5636  -20.5599  -11.0832 C   0  0  0  0  0  0  0  0  0  0  0  0
   25.6502  -19.3317  -11.3395 O   0  0  0  0  0  0  0  0  0  0  0  0
   23.1974  -22.7223  -14.0922 N   0  0  0  0  0  0  0  0  0  0  0  0
   21.8856  -22.2634  -13.8803 C   0  0  0  0  0  0  0  0  0  0  0  0
   20.9138  -22.9621  -14.2354 O   0  0  0  0  0  0  0  0  0  0  0  0
   21.5778  -20.9344  -13.2287 C   0  0  0  0  0  0  0  0  0  0  0  0
   22.8421  -20.2271  -12.8477 C   0  0  0  0  0  0  0  0  0  0  0  0
   23.0681  -20.2556  -11.3855 C   0  0  2  0  0  0  0  0  0  0  0  0
   24.2293  -21.0660  -11.0246 N   0  0  0  0  0  0  0  0  0  0  0  0
   21.8991  -20.6431  -10.5589 C   0  0  0  0  0  0  0  0  0  0  0  0
   21.9891  -21.7379   -9.6654 O   0  0  0  0  0  0  0  0  0  0  0  0
   20.7817  -20.0822  -10.5614 O   0  0  0  0  0  0  0  0  0  0  0  0
  2  1  1  6
  2  3  1  0
  4  3  1  0
  4  8  1  0
  5  4  2  0
  6  7  2  0
  6  2  1  0
  9  6  1  0
 10  9  1  0
 10 11  1  1
 11 12  1  0
 12 13  2  0
 12 20  1  0
 13 14  1  0
 14 15  1  0
 15 16  2  0
 16 17  1  0
 18 17  2  0
 19 18  1  0
 20 19  2  0
 20 15  1  0
 21 10  1  0
 22 21  2  0
 23 24  1  0
 24 25  2  0
 26 24  1  0
 26 27  1  0
 28 27  1  6
 28 29  1  0
 29 21  1  0
 30 28  1  0
 31 30  1  0
 32 30  2  0
M  END
$$$$
