DWQ.pdb
     RDKit          3D

 32 33  0  0  1  0  0  0  0  0999 V2000
   30.9888  -31.6203  -18.9721 N   0  0  0  0  0  0  0  0  0  0  0  0
   30.6537  -31.0699  -17.6905 C   0  0  1  0  0  0  0  0  0  0  0  0
   31.7020  -30.0735  -17.2948 C   0  0  0  0  0  0  0  0  0  0  0  0
   32.9735  -30.8225  -17.1107 C   0  0  0  0  0  0  0  0  0  0  0  0
   33.0420  -32.0802  -17.2030 O   0  0  0  0  0  0  0  0  0  0  0  0
   29.2767  -30.5243  -17.6901 C   0  0  0  0  0  0  0  0  0  0  0  0
   28.8104  -30.0398  -16.6144 O   0  0  0  0  0  0  0  0  0  0  0  0
   34.1770  -30.1801  -16.8230 O   0  0  0  0  0  0  0  0  0  0  0  0
   28.4376  -30.5045  -18.8150 N   0  0  0  0  0  0  0  0  0  0  0  0
   27.0720  -29.9416  -18.8024 C   0  0  1  0  0  0  0  0  0  0  0  0
   26.8050  -29.5336  -20.2040 C   0  0  0  0  0  0  0  0  0  0  0  0
   25.4904  -29.0030  -20.5323 C   0  0  0  0  0  0  0  0  0  0  0  0
   24.8889  -27.8223  -20.0589 C   0  0  0  0  0  0  0  0  0  0  0  0
   23.6693  -27.7293  -20.5932 N   0  0  0  0  0  0  0  0  0  0  0  0
   23.4474  -28.8030  -21.3991 C   0  0  0  0  0  0  0  0  0  0  0  0
   22.3628  -29.1566  -22.1710 C   0  0  0  0  0  0  0  0  0  0  0  0
   22.3615  -30.3122  -22.9371 C   0  0  0  0  0  0  0  0  0  0  0  0
   23.4644  -31.1322  -22.9338 C   0  0  0  0  0  0  0  0  0  0  0  0
   24.5371  -30.7595  -22.1547 C   0  0  0  0  0  0  0  0  0  0  0  0
   24.5769  -29.6176  -21.3777 C   0  0  0  0  0  0  0  0  0  0  0  0
   26.1035  -30.8149  -18.1559 C   0  0  0  0  0  0  0  0  0  0  0  0
   26.0223  -32.0324  -18.4604 O   0  0  0  0  0  0  0  0  0  0  0  0
   26.0813  -34.5174  -14.3432 N   0  0  0  0  0  0  0  0  0  0  0  0
   25.7207  -33.3405  -13.6640 C   0  0  0  0  0  0  0  0  0  0  0  0
   25.9690  -33.2202  -12.4465 O   0  0  0  0  0  0  0  0  0  0  0  0
   25.0299  -32.1808  -14.3448 C   0  0  0  0  0  0  0  0  0  0  0  0
   24.9292  -32.4178  -15.8205 C   0  0  0  0  0  0  0  0  0  0  0  0
   24.2422  -31.3031  -16.5101 C   0  0  2  0  0  0  0  0  0  0  0  0
   25.1852  -30.3876  -17.1489 N   0  0  0  0  0  0  0  0  0  0  0  0
   23.2664  -30.5418  -15.6928 C   0  0  0  0  0  0  0  0  0  0  0  0
   22.2268  -31.2183  -15.0098 O   0  0  0  0  0  0  0  0  0  0  0  0
   23.2566  -29.3023  -15.5293 O   0  0  0  0  0  0  0  0  0  0  0  0
  2  1  1  6
  2  3  1  0
  4  3  1  0
  4  8  1  0
  5  4  2  0
  6  7  2  0
  6  2  1  0
  9  6  1  0
 10  9  1  0
 10 11  1  6
 11 12  1  0
 12 13  2  0
 12 20  1  0
 13 14  1  0
 14 15  1  0
 15 16  2  0
 16 17  1  0
 18 17  2  0
 19 18  1  0
 20 19  2  0
 20 15  1  0
 21 10  1  0
 22 21  2  0
 23 24  1  0
 24 25  2  0
 26 24  1  0
 26 27  1  0
 28 27  1  1
 28 29  1  0
 29 21  1  0
 30 28  1  0
 31 30  1  0
 32 30  2  0
M  END
$$$$
