DWQ.pdb
     RDKit          3D

 32 33  0  0  1  0  0  0  0  0999 V2000
   28.6300  -21.5577  -14.9452 N   0  0  0  0  0  0  0  0  0  0  0  0
   28.3029  -20.6554  -13.8791 C   0  0  1  0  0  0  0  0  0  0  0  0
   27.6840  -19.4175  -14.4563 C   0  0  0  0  0  0  0  0  0  0  0  0
   28.6821  -18.8168  -15.3807 C   0  0  0  0  0  0  0  0  0  0  0  0
   29.5740  -19.5005  -15.9569 O   0  0  0  0  0  0  0  0  0  0  0  0
   27.4662  -21.3233  -12.8556 C   0  0  0  0  0  0  0  0  0  0  0  0
   26.5736  -22.1418  -13.2333 O   0  0  0  0  0  0  0  0  0  0  0  0
   28.6963  -17.4533  -15.6712 O   0  0  0  0  0  0  0  0  0  0  0  0
   27.5939  -21.1114  -11.4741 N   0  0  0  0  0  0  0  0  0  0  0  0
   26.5137  -21.3864  -10.5048 C   0  0  1  0  0  0  0  0  0  0  0  0
   27.2026  -21.6528   -9.2176 C   0  0  0  0  0  0  0  0  0  0  0  0
   27.1676  -20.6251   -8.1879 C   0  0  0  0  0  0  0  0  0  0  0  0
   26.4562  -19.4112   -8.1982 C   0  0  0  0  0  0  0  0  0  0  0  0
   26.7279  -18.7560   -7.0675 N   0  0  0  0  0  0  0  0  0  0  0  0
   27.5896  -19.4933   -6.3155 C   0  0  0  0  0  0  0  0  0  0  0  0
   28.1532  -19.2601   -5.0805 C   0  0  0  0  0  0  0  0  0  0  0  0
   29.0108  -20.1744   -4.4884 C   0  0  0  0  0  0  0  0  0  0  0  0
   29.3129  -21.3456   -5.1409 C   0  0  0  0  0  0  0  0  0  0  0  0
   28.7386  -21.5578   -6.3746 C   0  0  0  0  0  0  0  0  0  0  0  0
   27.8805  -20.6721   -6.9978 C   0  0  0  0  0  0  0  0  0  0  0  0
   25.4689  -20.3732  -10.5158 C   0  0  0  0  0  0  0  0  0  0  0  0
   25.7435  -19.1593  -10.6968 O   0  0  0  0  0  0  0  0  0  0  0  0
   22.4254  -23.5924  -13.6537 N   0  0  0  0  0  0  0  0  0  0  0  0
   22.0289  -22.3747  -14.2339 C   0  0  0  0  0  0  0  0  0  0  0  0
   21.2351  -22.3705  -15.1974 O   0  0  0  0  0  0  0  0  0  0  0  0
   22.5242  -21.0336  -13.7424 C   0  0  0  0  0  0  0  0  0  0  0  0
   23.5190  -21.2102  -12.6365 C   0  0  0  0  0  0  0  0  0  0  0  0
   23.1014  -20.5051  -11.4043 C   0  0  2  0  0  0  0  0  0  0  0  0
   24.0804  -20.6509  -10.3292 N   0  0  0  0  0  0  0  0  0  0  0  0
   21.7429  -20.8282  -10.9044 C   0  0  0  0  0  0  0  0  0  0  0  0
   20.6815  -19.9073  -11.0780 O   0  0  0  0  0  0  0  0  0  0  0  0
   21.4099  -21.8792  -10.3147 O   0  0  0  0  0  0  0  0  0  0  0  0
  2  1  1  6
  2  3  1  0
  4  3  1  0
  4  8  1  0
  5  4  2  0
  6  7  2  0
  6  2  1  0
  9  6  1  0
 10  9  1  0
 10 11  1  1
 11 12  1  0
 12 13  2  0
 12 20  1  0
 13 14  1  0
 14 15  1  0
 15 16  2  0
 16 17  1  0
 18 17  2  0
 19 18  1  0
 20 19  2  0
 20 15  1  0
 21 10  1  0
 22 21  2  0
 23 24  1  0
 24 25  2  0
 26 24  1  0
 26 27  1  0
 28 27  1  6
 28 29  1  0
 29 21  1  0
 30 28  1  0
 31 30  1  0
 32 30  2  0
M  END
$$$$
