DWQ.pdb
     RDKit          3D

 32 33  0  0  1  0  0  0  0  0999 V2000
   13.7177  -14.7117    7.4664 N   0  0  0  0  0  0  0  0  0  0  0  0
   15.1099  -14.6287    7.1307 C   0  0  1  0  0  0  0  0  0  0  0  0
   15.9192  -14.6140    8.3930 C   0  0  0  0  0  0  0  0  0  0  0  0
   15.9108  -13.2176    8.9045 C   0  0  0  0  0  0  0  0  0  0  0  0
   15.4085  -12.2580    8.2551 O   0  0  0  0  0  0  0  0  0  0  0  0
   15.4933  -15.7019    6.1847 C   0  0  0  0  0  0  0  0  0  0  0  0
   14.9704  -16.8502    6.3169 O   0  0  0  0  0  0  0  0  0  0  0  0
   16.4600  -12.8777   10.1401 O   0  0  0  0  0  0  0  0  0  0  0  0
   16.4090  -15.5351    5.1343 N   0  0  0  0  0  0  0  0  0  0  0  0
   16.8962  -16.6481    4.2942 C   0  0  1  0  0  0  0  0  0  0  0  0
   17.7543  -16.0128    3.2636 C   0  0  0  0  0  0  0  0  0  0  0  0
   18.4229  -16.8689    2.2954 C   0  0  0  0  0  0  0  0  0  0  0  0
   17.9821  -18.1005    1.7769 C   0  0  0  0  0  0  0  0  0  0  0  0
   18.9129  -18.5597    0.9376 N   0  0  0  0  0  0  0  0  0  0  0  0
   19.9471  -17.6769    0.8849 C   0  0  0  0  0  0  0  0  0  0  0  0
   21.1235  -17.6904    0.1687 C   0  0  0  0  0  0  0  0  0  0  0  0
   22.0439  -16.6578    0.2628 C   0  0  0  0  0  0  0  0  0  0  0  0
   21.7861  -15.5895    1.0881 C   0  0  0  0  0  0  0  0  0  0  0  0
   20.6042  -15.5970    1.7950 C   0  0  0  0  0  0  0  0  0  0  0  0
   19.6627  -16.6062    1.7290 C   0  0  0  0  0  0  0  0  0  0  0  0
   17.4669  -17.7387    5.0710 C   0  0  0  0  0  0  0  0  0  0  0  0
   18.4189  -17.5393    5.8682 O   0  0  0  0  0  0  0  0  0  0  0  0
   15.8879  -21.2196    9.4472 N   0  0  0  0  0  0  0  0  0  0  0  0
   16.6224  -20.0256    9.3421 C   0  0  0  0  0  0  0  0  0  0  0  0
   16.7645  -19.2891   10.3401 O   0  0  0  0  0  0  0  0  0  0  0  0
   17.2674  -19.5714    8.0525 C   0  0  0  0  0  0  0  0  0  0  0  0
   17.0075  -20.5577    6.9554 C   0  0  0  0  0  0  0  0  0  0  0  0
   17.6983  -20.1800    5.7023 C   0  0  2  0  0  0  0  0  0  0  0  0
   17.0156  -19.0922    5.0049 N   0  0  0  0  0  0  0  0  0  0  0  0
   17.9816  -21.2907    4.7611 C   0  0  0  0  0  0  0  0  0  0  0  0
   18.7344  -22.4118    5.1871 O   0  0  0  0  0  0  0  0  0  0  0  0
   17.6109  -21.3534    3.5688 O   0  0  0  0  0  0  0  0  0  0  0  0
  2  1  1  1
  2  3  1  0
  4  3  1  0
  4  8  1  0
  5  4  2  0
  6  7  2  0
  6  2  1  0
  9  6  1  0
 10  9  1  0
 10 11  1  6
 11 12  1  0
 12 13  2  0
 12 20  1  0
 13 14  1  0
 14 15  1  0
 15 16  2  0
 16 17  1  0
 18 17  2  0
 19 18  1  0
 20 19  2  0
 20 15  1  0
 21 10  1  0
 22 21  2  0
 23 24  1  0
 24 25  2  0
 26 24  1  0
 26 27  1  0
 28 27  1  1
 28 29  1  0
 29 21  1  0
 30 28  1  0
 31 30  1  0
 32 30  2  0
M  END
$$$$
