DWQ.pdb
     RDKit          3D

 32 33  0  0  1  0  0  0  0  0999 V2000
   27.7090  -21.7978  -14.9146 N   0  0  0  0  0  0  0  0  0  0  0  0
   27.4930  -20.6409  -14.0944 C   0  0  1  0  0  0  0  0  0  0  0  0
   26.7911  -19.5906  -14.9023 C   0  0  0  0  0  0  0  0  0  0  0  0
   27.7368  -19.1441  -15.9596 C   0  0  0  0  0  0  0  0  0  0  0  0
   28.8608  -18.6325  -15.6954 O   0  0  0  0  0  0  0  0  0  0  0  0
   26.7917  -21.0018  -12.8407 C   0  0  0  0  0  0  0  0  0  0  0  0
   25.7302  -21.6932  -12.9101 O   0  0  0  0  0  0  0  0  0  0  0  0
   27.4406  -19.2627  -17.3168 O   0  0  0  0  0  0  0  0  0  0  0  0
   27.2263  -20.6272  -11.5599 N   0  0  0  0  0  0  0  0  0  0  0  0
   26.4422  -20.8673  -10.3313 C   0  0  1  0  0  0  0  0  0  0  0  0
   27.4123  -20.7327   -9.2164 C   0  0  0  0  0  0  0  0  0  0  0  0
   26.9032  -20.7189   -7.8533 C   0  0  0  0  0  0  0  0  0  0  0  0
   25.6555  -21.1745   -7.3891 C   0  0  0  0  0  0  0  0  0  0  0  0
   25.5890  -20.9494   -6.0751 N   0  0  0  0  0  0  0  0  0  0  0  0
   26.7449  -20.3643   -5.6591 C   0  0  0  0  0  0  0  0  0  0  0  0
   27.1627  -19.9522   -4.4130 C   0  0  0  0  0  0  0  0  0  0  0  0
   28.4110  -19.3818   -4.2165 C   0  0  0  0  0  0  0  0  0  0  0  0
   29.2605  -19.2188   -5.2845 C   0  0  0  0  0  0  0  0  0  0  0  0
   28.8221  -19.6374   -6.5211 C   0  0  0  0  0  0  0  0  0  0  0  0
   27.5866  -20.2092   -6.7578 C   0  0  0  0  0  0  0  0  0  0  0  0
   25.2255  -20.0708  -10.2691 C   0  0  0  0  0  0  0  0  0  0  0  0
   25.2458  -18.8351  -10.5019 O   0  0  0  0  0  0  0  0  0  0  0  0
   22.9639  -21.1675  -14.9358 N   0  0  0  0  0  0  0  0  0  0  0  0
   22.1868  -20.0826  -14.4936 C   0  0  0  0  0  0  0  0  0  0  0  0
   21.4972  -19.4346  -15.3079 O   0  0  0  0  0  0  0  0  0  0  0  0
   22.1386  -19.6450  -13.0473 C   0  0  0  0  0  0  0  0  0  0  0  0
   22.9891  -20.5375  -12.1963 C   0  0  0  0  0  0  0  0  0  0  0  0
   22.7516  -20.3098  -10.7535 C   0  0  2  0  0  0  0  0  0  0  0  0
   23.9373  -20.5982   -9.9493 N   0  0  0  0  0  0  0  0  0  0  0  0
   21.5670  -20.9922  -10.1785 C   0  0  0  0  0  0  0  0  0  0  0  0
   21.4895  -22.4061  -10.1770 O   0  0  0  0  0  0  0  0  0  0  0  0
   20.5743  -20.4303   -9.6666 O   0  0  0  0  0  0  0  0  0  0  0  0
  2  1  1  6
  2  3  1  0
  4  3  1  0
  4  8  1  0
  5  4  2  0
  6  7  2  0
  6  2  1  0
  9  6  1  0
 10  9  1  0
 10 11  1  1
 11 12  1  0
 12 13  2  0
 12 20  1  0
 13 14  1  0
 14 15  1  0
 15 16  2  0
 16 17  1  0
 18 17  2  0
 19 18  1  0
 20 19  2  0
 20 15  1  0
 21 10  1  0
 22 21  2  0
 23 24  1  0
 24 25  2  0
 26 24  1  0
 26 27  1  0
 28 27  1  6
 28 29  1  0
 29 21  1  0
 30 28  1  0
 31 30  1  0
 32 30  2  0
M  END
$$$$
