DWQ.pdb
     RDKit          3D

 32 33  0  0  1  0  0  0  0  0999 V2000
   28.1814  -22.5753  -15.4774 N   0  0  0  0  0  0  0  0  0  0  0  0
   27.9096  -21.3096  -14.8596 C   0  0  1  0  0  0  0  0  0  0  0  0
   27.2122  -20.4214  -15.8462 C   0  0  0  0  0  0  0  0  0  0  0  0
   28.1920  -20.1000  -16.9178 C   0  0  0  0  0  0  0  0  0  0  0  0
   29.3334  -19.6176  -16.6740 O   0  0  0  0  0  0  0  0  0  0  0  0
   27.1732  -21.4868  -13.5867 C   0  0  0  0  0  0  0  0  0  0  0  0
   25.9836  -21.9259  -13.6236 O   0  0  0  0  0  0  0  0  0  0  0  0
   27.9109  -20.3121  -18.2668 O   0  0  0  0  0  0  0  0  0  0  0  0
   27.7079  -21.1989  -12.3215 N   0  0  0  0  0  0  0  0  0  0  0  0
   26.8973  -21.1460  -11.0877 C   0  0  1  0  0  0  0  0  0  0  0  0
   27.8461  -20.7614  -10.0134 C   0  0  0  0  0  0  0  0  0  0  0  0
   27.3132  -20.4659   -8.6920 C   0  0  0  0  0  0  0  0  0  0  0  0
   25.9793  -20.1947   -8.3358 C   0  0  0  0  0  0  0  0  0  0  0  0
   25.9364  -19.9515   -7.0240 N   0  0  0  0  0  0  0  0  0  0  0  0
   27.1904  -20.0533   -6.5056 C   0  0  0  0  0  0  0  0  0  0  0  0
   27.6617  -19.9054   -5.2199 C   0  0  0  0  0  0  0  0  0  0  0  0
   29.0038  -20.0708   -4.9139 C   0  0  0  0  0  0  0  0  0  0  0  0
   29.8946  -20.3903   -5.9105 C   0  0  0  0  0  0  0  0  0  0  0  0
   29.4017  -20.5329   -7.1885 C   0  0  0  0  0  0  0  0  0  0  0  0
   28.0729  -20.3759   -7.5336 C   0  0  0  0  0  0  0  0  0  0  0  0
   25.6866  -20.3520  -11.2370 C   0  0  0  0  0  0  0  0  0  0  0  0
   25.7034  -19.2500  -11.8427 O   0  0  0  0  0  0  0  0  0  0  0  0
   21.2397  -22.0653  -14.0854 N   0  0  0  0  0  0  0  0  0  0  0  0
   20.8156  -20.8221  -13.5843 C   0  0  0  0  0  0  0  0  0  0  0  0
   19.5990  -20.5977  -13.4167 O   0  0  0  0  0  0  0  0  0  0  0  0
   21.7773  -19.7116  -13.2276 C   0  0  0  0  0  0  0  0  0  0  0  0
   23.0667  -20.2738  -12.7126 C   0  0  0  0  0  0  0  0  0  0  0  0
   23.1609  -20.1714  -11.2393 C   0  0  2  0  0  0  0  0  0  0  0  0
   24.4084  -20.7353  -10.7280 N   0  0  0  0  0  0  0  0  0  0  0  0
   22.0076  -20.7120  -10.4795 C   0  0  0  0  0  0  0  0  0  0  0  0
   22.0855  -21.9928   -9.8807 O   0  0  0  0  0  0  0  0  0  0  0  0
   20.9142  -20.1337  -10.2972 O   0  0  0  0  0  0  0  0  0  0  0  0
  2  1  1  6
  2  3  1  0
  4  3  1  0
  4  8  1  0
  5  4  2  0
  6  7  2  0
  6  2  1  0
  9  6  1  0
 10  9  1  0
 10 11  1  1
 11 12  1  0
 12 13  2  0
 12 20  1  0
 13 14  1  0
 14 15  1  0
 15 16  2  0
 16 17  1  0
 18 17  2  0
 19 18  1  0
 20 19  2  0
 20 15  1  0
 21 10  1  0
 22 21  2  0
 23 24  1  0
 24 25  2  0
 26 24  1  0
 26 27  1  0
 28 27  1  6
 28 29  1  0
 29 21  1  0
 30 28  1  0
 31 30  1  0
 32 30  2  0
M  END
$$$$
