DWQ.pdb
     RDKit          3D

 32 33  0  0  1  0  0  0  0  0999 V2000
   23.5532  -14.2639  -20.1305 N   0  0  0  0  0  0  0  0  0  0  0  0
   24.0740  -13.0158  -19.6522 C   0  0  1  0  0  0  0  0  0  0  0  0
   23.8210  -11.9526  -20.6789 C   0  0  0  0  0  0  0  0  0  0  0  0
   24.6845  -12.2581  -21.8505 C   0  0  0  0  0  0  0  0  0  0  0  0
   25.8369  -12.7614  -21.7337 O   0  0  0  0  0  0  0  0  0  0  0  0
   23.5355  -12.6945  -18.3104 C   0  0  0  0  0  0  0  0  0  0  0  0
   22.2988  -12.8700  -18.0889 O   0  0  0  0  0  0  0  0  0  0  0  0
   24.2742  -12.0068  -23.1590 O   0  0  0  0  0  0  0  0  0  0  0  0
   24.3101  -12.2019  -17.2488 N   0  0  0  0  0  0  0  0  0  0  0  0
   23.7636  -11.9146  -15.9068 C   0  0  1  0  0  0  0  0  0  0  0  0
   24.6814  -12.5927  -14.9581 C   0  0  0  0  0  0  0  0  0  0  0  0
   24.7256  -14.0472  -14.9574 C   0  0  0  0  0  0  0  0  0  0  0  0
   25.8486  -14.8804  -14.8009 C   0  0  0  0  0  0  0  0  0  0  0  0
   25.4451  -16.1496  -14.8907 N   0  0  0  0  0  0  0  0  0  0  0  0
   24.1009  -16.1814  -15.0994 C   0  0  0  0  0  0  0  0  0  0  0  0
   23.2245  -17.2336  -15.2473 C   0  0  0  0  0  0  0  0  0  0  0  0
   21.8672  -17.0276  -15.4414 C   0  0  0  0  0  0  0  0  0  0  0  0
   21.3734  -15.7459  -15.4890 C   0  0  0  0  0  0  0  0  0  0  0  0
   22.2675  -14.7092  -15.3393 C   0  0  0  0  0  0  0  0  0  0  0  0
   23.6257  -14.8730  -15.1448 C   0  0  0  0  0  0  0  0  0  0  0  0
   23.4947  -10.5001  -15.6938 C   0  0  0  0  0  0  0  0  0  0  0  0
   24.0536   -9.6198  -16.3970 O   0  0  0  0  0  0  0  0  0  0  0  0
   20.8451   -7.0139  -18.4045 N   0  0  0  0  0  0  0  0  0  0  0  0
   20.8842   -6.1765  -17.2759 C   0  0  0  0  0  0  0  0  0  0  0  0
   20.5094   -4.9890  -17.3652 O   0  0  0  0  0  0  0  0  0  0  0  0
   21.3683   -6.6470  -15.9233 C   0  0  0  0  0  0  0  0  0  0  0  0
   21.7730   -8.0882  -15.9785 C   0  0  0  0  0  0  0  0  0  0  0  0
   22.1978   -8.5905  -14.6529 C   0  0  2  0  0  0  0  0  0  0  0  0
   22.6015   -9.9942  -14.7007 N   0  0  0  0  0  0  0  0  0  0  0  0
   21.2390   -8.3732  -13.5424 C   0  0  0  0  0  0  0  0  0  0  0  0
   21.1015   -7.0899  -12.9600 O   0  0  0  0  0  0  0  0  0  0  0  0
   20.4973   -9.2419  -13.0340 O   0  0  0  0  0  0  0  0  0  0  0  0
  2  1  1  6
  2  3  1  0
  4  3  1  0
  4  8  1  0
  5  4  2  0
  6  7  2  0
  6  2  1  0
  9  6  1  0
 10  9  1  0
 10 11  1  1
 11 12  1  0
 12 13  2  0
 12 20  1  0
 13 14  1  0
 14 15  1  0
 15 16  2  0
 16 17  1  0
 18 17  2  0
 19 18  1  0
 20 19  2  0
 20 15  1  0
 21 10  1  0
 22 21  2  0
 23 24  1  0
 24 25  2  0
 26 24  1  0
 26 27  1  0
 28 27  1  6
 28 29  1  0
 29 21  1  0
 30 28  1  0
 31 30  1  0
 32 30  2  0
M  END
$$$$
