DWQ.pdb
     RDKit          3D

 32 33  0  0  1  0  0  0  0  0999 V2000
   22.9282  -31.1748   -8.5706 N   0  0  0  0  0  0  0  0  0  0  0  0
   22.4783  -30.9569   -9.9151 C   0  0  1  0  0  0  0  0  0  0  0  0
   21.5425  -32.0618  -10.3048 C   0  0  0  0  0  0  0  0  0  0  0  0
   21.7977  -33.2001   -9.3824 C   0  0  0  0  0  0  0  0  0  0  0  0
   22.9318  -33.4223   -8.8732 O   0  0  0  0  0  0  0  0  0  0  0  0
   21.9031  -29.6008  -10.0698 C   0  0  0  0  0  0  0  0  0  0  0  0
   22.2332  -28.6976   -9.2424 O   0  0  0  0  0  0  0  0  0  0  0  0
   20.7955  -34.0988   -9.0196 O   0  0  0  0  0  0  0  0  0  0  0  0
   21.0039  -29.2384  -11.0847 N   0  0  0  0  0  0  0  0  0  0  0  0
   20.5761  -27.8469  -11.3348 C   0  0  1  0  0  0  0  0  0  0  0  0
   20.5556  -27.7042  -12.8118 C   0  0  0  0  0  0  0  0  0  0  0  0
   20.1624  -26.4228  -13.3783 C   0  0  0  0  0  0  0  0  0  0  0  0
   20.4869  -25.1341  -12.9159 C   0  0  0  0  0  0  0  0  0  0  0  0
   19.8981  -24.2412  -13.7144 N   0  0  0  0  0  0  0  0  0  0  0  0
   19.2003  -24.8940  -14.6831 C   0  0  0  0  0  0  0  0  0  0  0  0
   18.4438  -24.4273  -15.7353 C   0  0  0  0  0  0  0  0  0  0  0  0
   17.8211  -25.2916  -16.6227 C   0  0  0  0  0  0  0  0  0  0  0  0
   17.9553  -26.6494  -16.4578 C   0  0  0  0  0  0  0  0  0  0  0  0
   18.7157  -27.0938  -15.3990 C   0  0  0  0  0  0  0  0  0  0  0  0
   19.3510  -26.2656  -14.4936 C   0  0  0  0  0  0  0  0  0  0  0  0
   19.3717  -27.4825  -10.6033 C   0  0  0  0  0  0  0  0  0  0  0  0
   18.4175  -28.2924  -10.4791 O   0  0  0  0  0  0  0  0  0  0  0  0
   18.5064  -25.6520   -4.8357 N   0  0  0  0  0  0  0  0  0  0  0  0
   18.1247  -24.9491   -5.9919 C   0  0  0  0  0  0  0  0  0  0  0  0
   17.0963  -24.2415   -5.9823 O   0  0  0  0  0  0  0  0  0  0  0  0
   18.9118  -25.0044   -7.2814 C   0  0  0  0  0  0  0  0  0  0  0  0
   18.0324  -24.6860   -8.4516 C   0  0  0  0  0  0  0  0  0  0  0  0
   17.8928  -25.8425   -9.3643 C   0  0  2  0  0  0  0  0  0  0  0  0
   19.1657  -26.2151   -9.9780 N   0  0  0  0  0  0  0  0  0  0  0  0
   16.8417  -25.7215  -10.4037 C   0  0  0  0  0  0  0  0  0  0  0  0
   15.5042  -25.4377  -10.0355 O   0  0  0  0  0  0  0  0  0  0  0  0
   17.0114  -25.8485  -11.6358 O   0  0  0  0  0  0  0  0  0  0  0  0
  2  1  1  1
  2  3  1  0
  4  3  1  0
  4  8  1  0
  5  4  2  0
  6  7  2  0
  6  2  1  0
  9  6  1  0
 10  9  1  0
 10 11  1  6
 11 12  1  0
 12 13  2  0
 12 20  1  0
 13 14  1  0
 14 15  1  0
 15 16  2  0
 16 17  1  0
 18 17  2  0
 19 18  1  0
 20 19  2  0
 20 15  1  0
 21 10  1  0
 22 21  2  0
 23 24  1  0
 24 25  2  0
 26 24  1  0
 26 27  1  0
 28 27  1  6
 28 29  1  0
 29 21  1  0
 30 28  1  0
 31 30  1  0
 32 30  2  0
M  END
$$$$
