NEW.pdb
     RDKit          3D

 32 33  0  0  1  0  0  0  0  0999 V2000
   30.1278  -24.4118  -19.3282 N   0  0  0  0  0  0  0  0  0  0  0  0
   31.0158  -23.4208  -18.8643 C   0  0  0  0  0  0  0  0  0  0  0  0
   32.1873  -23.3811  -19.2810 O   0  0  0  0  0  0  0  0  0  0  0  0
   30.5559  -22.4236  -17.8764 C   0  0  0  0  0  0  0  0  0  0  0  0
   29.1383  -22.7393  -17.4021 C   0  0  2  0  0  0  0  0  0  0  0  0
   28.1912  -22.5326  -18.4889 N   0  0  0  0  0  0  0  0  0  0  0  0
   28.8196  -21.9386  -16.2214 C   0  0  0  0  0  0  0  0  0  0  0  0
   29.4894  -21.9219  -15.1564 O   0  0  0  0  0  0  0  0  0  0  0  0
   27.6746  -21.0953  -16.2261 N   0  0  0  0  0  0  0  0  0  0  0  0
   27.2855  -20.2516  -15.1066 C   0  0  1  0  0  0  0  0  0  0  0  0
   26.9403  -18.8707  -15.5090 C   0  0  0  0  0  0  0  0  0  0  0  0
   28.0311  -18.2617  -16.3448 C   0  0  0  0  0  0  0  0  0  0  0  0
   27.6107  -16.9069  -16.8502 C   0  0  0  0  0  0  0  0  0  0  0  0
   26.4610  -16.5041  -16.6219 O   0  0  0  0  0  0  0  0  0  0  0  0
   26.3228  -20.9457  -14.2210 C   0  0  0  0  0  0  0  0  0  0  0  0
   25.3688  -21.6588  -14.6324 O   0  0  0  0  0  0  0  0  0  0  0  0
   28.4984  -16.1375  -17.5527 O   0  0  0  0  0  0  0  0  0  0  0  0
   26.4455  -20.8288  -12.7900 N   0  0  0  0  0  0  0  0  0  0  0  0
   25.5134  -21.5221  -11.9384 C   0  0  1  0  0  0  0  0  0  0  0  0
   26.1905  -22.0384  -10.6816 C   0  0  0  0  0  0  0  0  0  0  0  0
   26.4809  -20.9106   -9.7629 C   0  0  0  0  0  0  0  0  0  0  0  0
   25.7741  -19.7718   -9.4723 C   0  0  0  0  0  0  0  0  0  0  0  0
   26.4347  -19.0188   -8.5674 N   0  0  0  0  0  0  0  0  0  0  0  0
   27.5740  -19.6400   -8.2500 C   0  0  0  0  0  0  0  0  0  0  0  0
   28.6035  -19.3224   -7.3939 C   0  0  0  0  0  0  0  0  0  0  0  0
   29.6814  -20.1546   -7.2502 C   0  0  0  0  0  0  0  0  0  0  0  0
   29.7549  -21.3263   -7.9618 C   0  0  0  0  0  0  0  0  0  0  0  0
   28.7283  -21.6425   -8.8159 C   0  0  0  0  0  0  0  0  0  0  0  0
   27.6304  -20.8223   -8.9795 C   0  0  0  0  0  0  0  0  0  0  0  0
   24.4379  -20.5760  -11.5511 C   0  0  0  0  0  0  0  0  0  0  0  0
   23.2307  -21.0671  -11.0764 O   0  0  0  0  0  0  0  0  0  0  0  0
   24.6218  -19.3142  -11.6534 O   0  0  0  0  0  0  0  0  0  0  0  0
  2  1  1  0
  3  2  2  0
  4  2  1  0
  4  5  1  0
  5  6  1  6
  7  5  1  0
  7  8  2  0
  9  7  1  0
 10  9  1  0
 10 11  1  6
 12 11  1  0
 12 13  1  0
 13 14  2  0
 15 18  1  0
 15 10  1  0
 16 15  2  0
 17 13  1  0
 19 18  1  0
 19 30  1  0
 20 21  1  0
 19 20  1  1
 21 29  1  0
 21 22  2  0
 22 23  1  0
 24 23  1  0
 24 25  2  0
 26 25  1  0
 27 26  2  0
 28 27  1  0
 28 29  2  0
 29 24  1  0
 30 31  1  0
 32 30  2  0
M  END
$$$$
