NEW.pdb
     RDKit          3D

 32 33  0  0  1  0  0  0  0  0999 V2000
   33.7263  -25.9690  -15.7338 N   0  0  0  0  0  0  0  0  0  0  0  0
   33.0149  -25.3868  -16.8017 C   0  0  0  0  0  0  0  0  0  0  0  0
   33.0414  -25.9057  -17.9321 O   0  0  0  0  0  0  0  0  0  0  0  0
   32.2338  -24.1527  -16.5807 C   0  0  0  0  0  0  0  0  0  0  0  0
   30.7992  -24.4812  -16.1711 C   0  0  2  0  0  0  0  0  0  0  0  0
   30.0647  -25.0133  -17.3105 N   0  0  0  0  0  0  0  0  0  0  0  0
   30.1626  -23.2967  -15.5979 C   0  0  0  0  0  0  0  0  0  0  0  0
   30.6599  -22.5728  -14.6968 O   0  0  0  0  0  0  0  0  0  0  0  0
   28.8818  -22.8876  -16.0607 N   0  0  0  0  0  0  0  0  0  0  0  0
   28.1772  -21.7158  -15.5637 C   0  0  1  0  0  0  0  0  0  0  0  0
   27.8035  -20.7631  -16.6316 C   0  0  0  0  0  0  0  0  0  0  0  0
   26.5946  -21.2420  -17.3857 C   0  0  0  0  0  0  0  0  0  0  0  0
   26.7124  -20.8893  -18.8448 C   0  0  0  0  0  0  0  0  0  0  0  0
   26.5782  -21.7791  -19.6971 O   0  0  0  0  0  0  0  0  0  0  0  0
   27.1105  -22.0959  -14.6094 C   0  0  0  0  0  0  0  0  0  0  0  0
   26.5661  -23.2316  -14.5710 O   0  0  0  0  0  0  0  0  0  0  0  0
   26.9648  -19.5954  -19.2135 O   0  0  0  0  0  0  0  0  0  0  0  0
   26.6329  -21.1394  -13.6432 N   0  0  0  0  0  0  0  0  0  0  0  0
   25.7829  -21.5809  -12.5674 C   0  0  1  0  0  0  0  0  0  0  0  0
   26.5975  -22.0639  -11.3810 C   0  0  0  0  0  0  0  0  0  0  0  0
   26.4557  -21.1156  -10.2493 C   0  0  0  0  0  0  0  0  0  0  0  0
   25.3732  -20.4138   -9.7837 C   0  0  0  0  0  0  0  0  0  0  0  0
   25.7166  -19.6600   -8.7178 N   0  0  0  0  0  0  0  0  0  0  0  0
   27.0147  -19.8493   -8.4655 C   0  0  0  0  0  0  0  0  0  0  0  0
   27.8646  -19.3386   -7.5112 C   0  0  0  0  0  0  0  0  0  0  0  0
   29.1827  -19.7076   -7.4727 C   0  0  0  0  0  0  0  0  0  0  0  0
   29.6826  -20.5976   -8.3907 C   0  0  0  0  0  0  0  0  0  0  0  0
   28.8349  -21.1063   -9.3426 C   0  0  0  0  0  0  0  0  0  0  0  0
   27.5025  -20.7519   -9.4039 C   0  0  0  0  0  0  0  0  0  0  0  0
   24.9382  -20.4391  -12.1377 C   0  0  0  0  0  0  0  0  0  0  0  0
   23.8035  -20.6743  -11.3752 O   0  0  0  0  0  0  0  0  0  0  0  0
   25.2535  -19.2441  -12.4674 O   0  0  0  0  0  0  0  0  0  0  0  0
  2  1  1  0
  3  2  2  0
  4  2  1  0
  4  5  1  0
  5  6  1  6
  7  5  1  0
  7  8  2  0
  9  7  1  0
 10  9  1  0
 10 11  1  6
 12 11  1  0
 12 13  1  0
 13 14  2  0
 15 18  1  0
 15 10  1  0
 16 15  2  0
 17 13  1  0
 19 18  1  0
 19 30  1  0
 20 21  1  0
 19 20  1  1
 21 29  1  0
 21 22  2  0
 22 23  1  0
 24 23  1  0
 24 25  2  0
 26 25  1  0
 27 26  2  0
 28 27  1  0
 28 29  2  0
 29 24  1  0
 30 31  1  0
 32 30  2  0
M  END
$$$$
