NEW.pdb
     RDKit          3D

 32 33  0  0  1  0  0  0  0  0999 V2000
   27.4108  -18.8102  -17.8152 N   0  0  0  0  0  0  0  0  0  0  0  0
   26.7678  -17.5571  -17.7743 C   0  0  0  0  0  0  0  0  0  0  0  0
   27.4316  -16.5070  -17.8406 O   0  0  0  0  0  0  0  0  0  0  0  0
   25.2975  -17.4873  -17.6504 C   0  0  0  0  0  0  0  0  0  0  0  0
   24.6888  -18.8869  -17.5825 C   0  0  2  0  0  0  0  0  0  0  0  0
   24.8626  -19.5686  -18.8576 N   0  0  0  0  0  0  0  0  0  0  0  0
   23.2860  -18.7996  -17.1806 C   0  0  0  0  0  0  0  0  0  0  0  0
   22.3317  -18.5024  -17.9449 O   0  0  0  0  0  0  0  0  0  0  0  0
   22.9184  -19.0627  -15.8323 N   0  0  0  0  0  0  0  0  0  0  0  0
   21.5591  -18.9488  -15.3265 C   0  0  1  0  0  0  0  0  0  0  0  0
   21.3000  -19.8086  -14.1511 C   0  0  0  0  0  0  0  0  0  0  0  0
   19.8734  -19.6851  -13.6939 C   0  0  0  0  0  0  0  0  0  0  0  0
   19.6148  -20.6018  -12.5277 C   0  0  0  0  0  0  0  0  0  0  0  0
   19.5250  -21.8224  -12.7234 O   0  0  0  0  0  0  0  0  0  0  0  0
   21.1443  -17.5315  -15.2172 C   0  0  0  0  0  0  0  0  0  0  0  0
   21.8697  -16.6155  -14.7455 O   0  0  0  0  0  0  0  0  0  0  0  0
   19.4829  -20.0804  -11.2689 O   0  0  0  0  0  0  0  0  0  0  0  0
   19.8368  -17.1259  -15.6672 N   0  0  0  0  0  0  0  0  0  0  0  0
   19.4539  -15.7401  -15.5796 C   0  0  1  0  0  0  0  0  0  0  0  0
   20.2924  -14.8749  -16.5031 C   0  0  0  0  0  0  0  0  0  0  0  0
   20.1905  -15.3742  -17.8961 C   0  0  0  0  0  0  0  0  0  0  0  0
   19.1438  -15.9294  -18.5868 C   0  0  0  0  0  0  0  0  0  0  0  0
   19.5162  -16.2420  -19.8461 N   0  0  0  0  0  0  0  0  0  0  0  0
   20.7985  -15.9028  -20.0054 C   0  0  0  0  0  0  0  0  0  0  0  0
   21.6642  -15.9983  -21.0708 C   0  0  0  0  0  0  0  0  0  0  0  0
   22.9588  -15.5648  -20.9667 C   0  0  0  0  0  0  0  0  0  0  0  0
   23.4189  -15.0249  -19.7912 C   0  0  0  0  0  0  0  0  0  0  0  0
   22.5554  -14.9303  -18.7287 C   0  0  0  0  0  0  0  0  0  0  0  0
   21.2459  -15.3590  -18.8065 C   0  0  0  0  0  0  0  0  0  0  0  0
   18.0280  -15.6213  -15.9726 C   0  0  0  0  0  0  0  0  0  0  0  0
   17.3697  -16.7197  -16.5057 O   0  0  0  0  0  0  0  0  0  0  0  0
   17.4078  -14.5129  -15.8206 O   0  0  0  0  0  0  0  0  0  0  0  0
  2  1  1  0
  3  2  2  0
  4  2  1  0
  4  5  1  0
  5  6  1  6
  7  5  1  0
  7  8  2  0
  9  7  1  0
 10  9  1  0
 10 11  1  1
 12 11  1  0
 12 13  1  0
 13 14  2  0
 15 18  1  0
 15 10  1  0
 16 15  2  0
 17 13  1  0
 19 18  1  0
 19 30  1  0
 20 21  1  0
 19 20  1  6
 21 29  1  0
 21 22  2  0
 22 23  1  0
 24 23  1  0
 24 25  2  0
 26 25  1  0
 27 26  2  0
 28 27  1  0
 28 29  2  0
 29 24  1  0
 30 31  1  0
 32 30  2  0
M  END
$$$$
