NEW.pdb
     RDKit          3D

 32 33  0  0  1  0  0  0  0  0999 V2000
   29.3267  -17.1218  -17.8983 N   0  0  0  0  0  0  0  0  0  0  0  0
   29.1738  -18.2650  -17.0889 C   0  0  0  0  0  0  0  0  0  0  0  0
   29.5836  -19.3724  -17.4807 O   0  0  0  0  0  0  0  0  0  0  0  0
   28.5222  -18.1508  -15.7682 C   0  0  0  0  0  0  0  0  0  0  0  0
   27.4988  -19.2670  -15.5666 C   0  0  2  0  0  0  0  0  0  0  0  0
   26.5110  -19.2370  -16.6362 N   0  0  0  0  0  0  0  0  0  0  0  0
   26.8930  -19.1522  -14.2412 C   0  0  0  0  0  0  0  0  0  0  0  0
   26.8345  -18.0947  -13.5618 O   0  0  0  0  0  0  0  0  0  0  0  0
   26.3097  -20.2950  -13.6282 N   0  0  0  0  0  0  0  0  0  0  0  0
   25.5348  -20.2473  -12.3979 C   0  0  1  0  0  0  0  0  0  0  0  0
   24.0802  -20.4011  -12.6182 C   0  0  0  0  0  0  0  0  0  0  0  0
   23.5121  -19.2085  -13.3354 C   0  0  0  0  0  0  0  0  0  0  0  0
   22.0184  -19.3406  -13.4719 C   0  0  0  0  0  0  0  0  0  0  0  0
   21.3258  -18.3182  -13.5771 O   0  0  0  0  0  0  0  0  0  0  0  0
   26.1412  -21.0979  -11.3484 C   0  0  0  0  0  0  0  0  0  0  0  0
   26.5830  -22.2612  -11.5470 O   0  0  0  0  0  0  0  0  0  0  0  0
   21.4433  -20.5828  -13.4790 O   0  0  0  0  0  0  0  0  0  0  0  0
   26.2563  -20.6063   -9.9987 N   0  0  0  0  0  0  0  0  0  0  0  0
   26.4686  -21.5366   -8.9198 C   0  0  1  0  0  0  0  0  0  0  0  0
   27.8147  -21.3144   -8.2542 C   0  0  0  0  0  0  0  0  0  0  0  0
   27.7595  -20.1108   -7.3890 C   0  0  0  0  0  0  0  0  0  0  0  0
   27.0578  -18.9386   -7.5087 C   0  0  0  0  0  0  0  0  0  0  0  0
   27.3247  -18.1154   -6.4727 N   0  0  0  0  0  0  0  0  0  0  0  0
   28.1960  -18.7228   -5.6625 C   0  0  0  0  0  0  0  0  0  0  0  0
   28.7951  -18.3436   -4.4830 C   0  0  0  0  0  0  0  0  0  0  0  0
   29.6710  -19.1762   -3.8392 C   0  0  0  0  0  0  0  0  0  0  0  0
   29.9692  -20.4101   -4.3619 C   0  0  0  0  0  0  0  0  0  0  0  0
   29.3720  -20.7877   -5.5384 C   0  0  0  0  0  0  0  0  0  0  0  0
   28.4855  -19.9687   -6.2076 C   0  0  0  0  0  0  0  0  0  0  0  0
   25.3962  -21.3407   -7.9131 C   0  0  0  0  0  0  0  0  0  0  0  0
   25.3079  -22.2014   -6.8289 O   0  0  0  0  0  0  0  0  0  0  0  0
   24.5575  -20.3835   -8.0427 O   0  0  0  0  0  0  0  0  0  0  0  0
  2  1  1  0
  3  2  2  0
  4  2  1  0
  4  5  1  0
  5  6  1  6
  7  5  1  0
  7  8  2  0
  9  7  1  0
 10  9  1  0
 10 11  1  6
 12 11  1  0
 12 13  1  0
 13 14  2  0
 15 18  1  0
 15 10  1  0
 16 15  2  0
 17 13  1  0
 19 18  1  0
 19 30  1  0
 20 21  1  0
 19 20  1  1
 21 29  1  0
 21 22  2  0
 22 23  1  0
 24 23  1  0
 24 25  2  0
 26 25  1  0
 27 26  2  0
 28 27  1  0
 28 29  2  0
 29 24  1  0
 30 31  1  0
 32 30  2  0
M  END
$$$$
