NEW.pdb
     RDKit          3D

 32 33  0  0  1  0  0  0  0  0999 V2000
   28.2185  -21.3638  -18.5766 N   0  0  0  0  0  0  0  0  0  0  0  0
   29.2229  -20.8848  -17.7122 C   0  0  0  0  0  0  0  0  0  0  0  0
   30.4216  -21.1169  -17.9512 O   0  0  0  0  0  0  0  0  0  0  0  0
   28.8530  -20.1041  -16.5141 C   0  0  0  0  0  0  0  0  0  0  0  0
   27.3368  -20.0743  -16.3292 C   0  0  2  0  0  0  0  0  0  0  0  0
   26.7284  -19.2158  -17.3361 N   0  0  0  0  0  0  0  0  0  0  0  0
   27.0105  -19.6577  -14.9666 C   0  0  0  0  0  0  0  0  0  0  0  0
   27.3447  -18.5622  -14.4455 O   0  0  0  0  0  0  0  0  0  0  0  0
   26.2578  -20.5209  -14.1236 N   0  0  0  0  0  0  0  0  0  0  0  0
   25.6701  -20.1073  -12.8587 C   0  0  1  0  0  0  0  0  0  0  0  0
   24.2230  -19.8162  -12.9552 C   0  0  0  0  0  0  0  0  0  0  0  0
   23.4122  -21.0812  -12.9122 C   0  0  0  0  0  0  0  0  0  0  0  0
   21.9539  -20.7777  -13.1327 C   0  0  0  0  0  0  0  0  0  0  0  0
   21.5957  -19.6014  -13.2881 O   0  0  0  0  0  0  0  0  0  0  0  0
   26.0967  -20.9952  -11.7531 C   0  0  0  0  0  0  0  0  0  0  0  0
   26.7078  -22.0852  -11.9155 O   0  0  0  0  0  0  0  0  0  0  0  0
   21.0432  -21.7992  -13.1598 O   0  0  0  0  0  0  0  0  0  0  0  0
   25.8185  -20.6307  -10.3870 N   0  0  0  0  0  0  0  0  0  0  0  0
   26.2274  -21.5082   -9.3205 C   0  0  1  0  0  0  0  0  0  0  0  0
   27.6546  -21.2256   -8.8876 C   0  0  0  0  0  0  0  0  0  0  0  0
   27.6813  -20.0775   -7.9487 C   0  0  0  0  0  0  0  0  0  0  0  0
   27.0840  -18.8442   -8.0061 C   0  0  0  0  0  0  0  0  0  0  0  0
   27.3955  -18.1126   -6.9153 N   0  0  0  0  0  0  0  0  0  0  0  0
   28.1933  -18.8414   -6.1299 C   0  0  0  0  0  0  0  0  0  0  0  0
   28.7950  -18.5887   -4.9183 C   0  0  0  0  0  0  0  0  0  0  0  0
   29.5823  -19.5315   -4.3133 C   0  0  0  0  0  0  0  0  0  0  0  0
   29.7873  -20.7518   -4.9080 C   0  0  0  0  0  0  0  0  0  0  0  0
   29.1877  -21.0033   -6.1166 C   0  0  0  0  0  0  0  0  0  0  0  0
   28.3891  -20.0715   -6.7480 C   0  0  0  0  0  0  0  0  0  0  0  0
   25.3228  -21.2946   -8.1638 C   0  0  0  0  0  0  0  0  0  0  0  0
   24.3021  -20.3598   -8.2550 O   0  0  0  0  0  0  0  0  0  0  0  0
   25.4819  -21.9684   -7.0882 O   0  0  0  0  0  0  0  0  0  0  0  0
  2  1  1  0
  3  2  2  0
  4  2  1  0
  4  5  1  0
  5  6  1  6
  7  5  1  0
  7  8  2  0
  9  7  1  0
 10  9  1  0
 10 11  1  6
 12 11  1  0
 12 13  1  0
 13 14  2  0
 15 18  1  0
 15 10  1  0
 16 15  2  0
 17 13  1  0
 19 18  1  0
 19 30  1  0
 20 21  1  0
 19 20  1  1
 21 29  1  0
 21 22  2  0
 22 23  1  0
 24 23  1  0
 24 25  2  0
 26 25  1  0
 27 26  2  0
 28 27  1  0
 28 29  2  0
 29 24  1  0
 30 31  1  0
 32 30  2  0
M  END
$$$$
