NEW.pdb
     RDKit          3D

 32 33  0  0  1  0  0  0  0  0999 V2000
   12.5463  -12.1407  -10.5350 N   0  0  0  0  0  0  0  0  0  0  0  0
   12.4641  -10.9262  -11.2448 C   0  0  0  0  0  0  0  0  0  0  0  0
   11.4672  -10.1921  -11.1221 O   0  0  0  0  0  0  0  0  0  0  0  0
   13.5658  -10.5210  -12.1415 C   0  0  0  0  0  0  0  0  0  0  0  0
   13.0595  -10.3128  -13.5678 C   0  0  2  0  0  0  0  0  0  0  0  0
   12.6551  -11.5875  -14.1445 N   0  0  0  0  0  0  0  0  0  0  0  0
   14.0821   -9.6369  -14.3643 C   0  0  0  0  0  0  0  0  0  0  0  0
   15.0961  -10.1921  -14.8611 O   0  0  0  0  0  0  0  0  0  0  0  0
   13.9681   -8.2441  -14.6277 N   0  0  0  0  0  0  0  0  0  0  0  0
   14.9079   -7.4955  -15.4479 C   0  0  1  0  0  0  0  0  0  0  0  0
   14.3497   -6.2267  -15.9642 C   0  0  0  0  0  0  0  0  0  0  0  0
   15.3041   -5.5635  -16.9175 C   0  0  0  0  0  0  0  0  0  0  0  0
   14.7745   -4.2186  -17.3397 C   0  0  0  0  0  0  0  0  0  0  0  0
   15.2395   -3.1933  -16.8212 O   0  0  0  0  0  0  0  0  0  0  0  0
   16.2404   -7.4224  -14.8061 C   0  0  0  0  0  0  0  0  0  0  0  0
   16.4260   -7.1697  -13.5857 O   0  0  0  0  0  0  0  0  0  0  0  0
   13.7901   -4.1423  -18.2877 O   0  0  0  0  0  0  0  0  0  0  0  0
   17.4303   -7.6490  -15.5868 N   0  0  0  0  0  0  0  0  0  0  0  0
   18.7176   -7.6305  -14.9408 C   0  0  1  0  0  0  0  0  0  0  0  0
   19.5908   -8.7785  -15.4139 C   0  0  0  0  0  0  0  0  0  0  0  0
   20.9025   -8.7355  -14.7226 C   0  0  0  0  0  0  0  0  0  0  0  0
   22.1107   -8.2079  -15.1007 C   0  0  0  0  0  0  0  0  0  0  0  0
   23.0393   -8.4082  -14.1417 N   0  0  0  0  0  0  0  0  0  0  0  0
   22.4668   -9.0630  -13.1278 C   0  0  0  0  0  0  0  0  0  0  0  0
   22.9448   -9.5131  -11.9183 C   0  0  0  0  0  0  0  0  0  0  0  0
   22.1269  -10.1711  -11.0391 C   0  0  0  0  0  0  0  0  0  0  0  0
   20.8087  -10.3954  -11.3505 C   0  0  0  0  0  0  0  0  0  0  0  0
   20.3325   -9.9470  -12.5569 C   0  0  0  0  0  0  0  0  0  0  0  0
   21.1346   -9.2809  -13.4611 C   0  0  0  0  0  0  0  0  0  0  0  0
   19.3891   -6.3486  -15.2690 C   0  0  0  0  0  0  0  0  0  0  0  0
   20.2770   -5.7879  -14.3627 O   0  0  0  0  0  0  0  0  0  0  0  0
   19.1519   -5.7629  -16.3812 O   0  0  0  0  0  0  0  0  0  0  0  0
  2  1  1  0
  3  2  2  0
  4  2  1  0
  4  5  1  0
  5  6  1  6
  7  5  1  0
  7  8  2  0
  9  7  1  0
 10  9  1  0
 10 11  1  1
 12 11  1  0
 12 13  1  0
 13 14  2  0
 15 18  1  0
 15 10  1  0
 16 15  2  0
 17 13  1  0
 19 18  1  0
 19 30  1  0
 20 21  1  0
 19 20  1  6
 21 29  1  0
 21 22  2  0
 22 23  1  0
 24 23  1  0
 24 25  2  0
 26 25  1  0
 27 26  2  0
 28 27  1  0
 28 29  2  0
 29 24  1  0
 30 31  1  0
 32 30  2  0
M  END
$$$$
