NEW.pdb
     RDKit          3D

 32 33  0  0  1  0  0  0  0  0999 V2000
   26.1074  -10.4462  -17.8189 N   0  0  0  0  0  0  0  0  0  0  0  0
   26.2838   -9.0482  -17.8250 C   0  0  0  0  0  0  0  0  0  0  0  0
   27.4035   -8.5566  -18.0536 O   0  0  0  0  0  0  0  0  0  0  0  0
   25.1348   -8.1595  -17.5569 C   0  0  0  0  0  0  0  0  0  0  0  0
   23.8819   -8.9710  -17.2318 C   0  0  2  0  0  0  0  0  0  0  0  0
   23.5096   -9.7930  -18.3749 N   0  0  0  0  0  0  0  0  0  0  0  0
   22.8054   -8.0757  -16.8113 C   0  0  0  0  0  0  0  0  0  0  0  0
   22.2088   -7.2599  -17.5609 O   0  0  0  0  0  0  0  0  0  0  0  0
   22.3602   -8.0897  -15.4609 N   0  0  0  0  0  0  0  0  0  0  0  0
   21.2745   -7.2624  -14.9575 C   0  0  1  0  0  0  0  0  0  0  0  0
   20.5321   -7.8892  -13.8423 C   0  0  0  0  0  0  0  0  0  0  0  0
   19.7328   -9.0694  -14.3196 C   0  0  0  0  0  0  0  0  0  0  0  0
   18.8989   -9.6272  -13.1967 C   0  0  0  0  0  0  0  0  0  0  0  0
   18.9552   -9.0972  -12.0778 O   0  0  0  0  0  0  0  0  0  0  0  0
   21.7146   -5.8625  -14.7587 C   0  0  0  0  0  0  0  0  0  0  0  0
   22.8688   -5.5301  -14.3779 O   0  0  0  0  0  0  0  0  0  0  0  0
   18.0905  -10.7085  -13.4222 O   0  0  0  0  0  0  0  0  0  0  0  0
   20.7995   -4.7769  -15.0052 N   0  0  0  0  0  0  0  0  0  0  0  0
   21.2712   -3.4184  -14.9242 C   0  0  1  0  0  0  0  0  0  0  0  0
   22.3473   -3.1436  -15.9591 C   0  0  0  0  0  0  0  0  0  0  0  0
   21.7842   -3.2816  -17.3244 C   0  0  0  0  0  0  0  0  0  0  0  0
   20.4893   -3.3740  -17.7669 C   0  0  0  0  0  0  0  0  0  0  0  0
   20.4524   -3.4921  -19.1111 N   0  0  0  0  0  0  0  0  0  0  0  0
   21.7061   -3.4799  -19.5722 C   0  0  0  0  0  0  0  0  0  0  0  0
   22.2359   -3.5675  -20.8393 C   0  0  0  0  0  0  0  0  0  0  0  0
   23.5897   -3.5274  -21.0403 C   0  0  0  0  0  0  0  0  0  0  0  0
   24.4472   -3.3990  -19.9759 C   0  0  0  0  0  0  0  0  0  0  0  0
   23.9186   -3.3122  -18.7124 C   0  0  0  0  0  0  0  0  0  0  0  0
   22.5585   -3.3496  -18.4815 C   0  0  0  0  0  0  0  0  0  0  0  0
   20.1252   -2.5081  -15.1689 C   0  0  0  0  0  0  0  0  0  0  0  0
   20.2709   -1.1469  -14.9458 O   0  0  0  0  0  0  0  0  0  0  0  0
   19.0087   -2.9746  -15.5838 O   0  0  0  0  0  0  0  0  0  0  0  0
  2  1  1  0
  3  2  2  0
  4  2  1  0
  4  5  1  0
  5  6  1  6
  7  5  1  0
  7  8  2  0
  9  7  1  0
 10  9  1  0
 10 11  1  1
 12 11  1  0
 12 13  1  0
 13 14  2  0
 15 18  1  0
 15 10  1  0
 16 15  2  0
 17 13  1  0
 19 18  1  0
 19 30  1  0
 20 21  1  0
 19 20  1  6
 21 29  1  0
 21 22  2  0
 22 23  1  0
 24 23  1  0
 24 25  2  0
 26 25  1  0
 27 26  2  0
 28 27  1  0
 28 29  2  0
 29 24  1  0
 30 31  1  0
 32 30  2  0
M  END
$$$$
