NEW.pdb
     RDKit          3D

 32 33  0  0  1  0  0  0  0  0999 V2000
   31.3449  -19.3057  -19.2411 N   0  0  0  0  0  0  0  0  0  0  0  0
   30.9662  -18.0241  -18.7942 C   0  0  0  0  0  0  0  0  0  0  0  0
   31.5702  -17.0137  -19.1966 O   0  0  0  0  0  0  0  0  0  0  0  0
   29.8473  -17.8772  -17.8411 C   0  0  0  0  0  0  0  0  0  0  0  0
   29.3007  -19.2424  -17.4269 C   0  0  2  0  0  0  0  0  0  0  0  0
   28.6072  -19.8626  -18.5473 N   0  0  0  0  0  0  0  0  0  0  0  0
   28.4466  -19.0991  -16.2493 C   0  0  0  0  0  0  0  0  0  0  0  0
   28.7869  -18.5452  -15.1720 O   0  0  0  0  0  0  0  0  0  0  0  0
   27.1187  -19.6073  -16.2721 N   0  0  0  0  0  0  0  0  0  0  0  0
   26.1598  -19.4162  -15.1948 C   0  0  1  0  0  0  0  0  0  0  0  0
   24.9310  -18.7141  -15.6252 C   0  0  0  0  0  0  0  0  0  0  0  0
   25.1901  -17.2483  -15.8346 C   0  0  0  0  0  0  0  0  0  0  0  0
   23.9282  -16.5486  -16.2653 C   0  0  0  0  0  0  0  0  0  0  0  0
   23.6688  -15.4273  -15.8055 O   0  0  0  0  0  0  0  0  0  0  0  0
   25.9748  -20.6608  -14.4141 C   0  0  0  0  0  0  0  0  0  0  0  0
   26.0885  -21.8208  -14.8929 O   0  0  0  0  0  0  0  0  0  0  0  0
   23.0847  -17.1550  -17.1567 O   0  0  0  0  0  0  0  0  0  0  0  0
   25.6439  -20.5911  -13.0133 N   0  0  0  0  0  0  0  0  0  0  0  0
   25.2729  -21.7924  -12.3107 C   0  0  1  0  0  0  0  0  0  0  0  0
   26.2760  -22.1293  -11.2222 C   0  0  0  0  0  0  0  0  0  0  0  0
   26.2795  -21.0646  -10.1894 C   0  0  0  0  0  0  0  0  0  0  0  0
   25.3487  -20.1105   -9.8666 C   0  0  0  0  0  0  0  0  0  0  0  0
   25.7874  -19.3426   -8.8467 N   0  0  0  0  0  0  0  0  0  0  0  0
   26.9994  -19.7715   -8.4842 C   0  0  0  0  0  0  0  0  0  0  0  0
   27.8863  -19.3565   -7.5172 C   0  0  0  0  0  0  0  0  0  0  0  0
   29.0909  -19.9857   -7.3504 C   0  0  0  0  0  0  0  0  0  0  0  0
   29.4376  -21.0469   -8.1495 C   0  0  0  0  0  0  0  0  0  0  0  0
   28.5533  -21.4601   -9.1141 C   0  0  0  0  0  0  0  0  0  0  0  0
   27.3328  -20.8444   -9.3034 C   0  0  0  0  0  0  0  0  0  0  0  0
   23.9421  -21.5808  -11.6893 C   0  0  0  0  0  0  0  0  0  0  0  0
   23.3886  -20.3091  -11.6702 O   0  0  0  0  0  0  0  0  0  0  0  0
   23.3075  -22.5648  -11.1741 O   0  0  0  0  0  0  0  0  0  0  0  0
  2  1  1  0
  3  2  2  0
  4  2  1  0
  4  5  1  0
  5  6  1  6
  7  5  1  0
  7  8  2  0
  9  7  1  0
 10  9  1  0
 10 11  1  6
 12 11  1  0
 12 13  1  0
 13 14  2  0
 15 18  1  0
 15 10  1  0
 16 15  2  0
 17 13  1  0
 19 18  1  0
 19 30  1  0
 20 21  1  0
 19 20  1  1
 21 29  1  0
 21 22  2  0
 22 23  1  0
 24 23  1  0
 24 25  2  0
 26 25  1  0
 27 26  2  0
 28 27  1  0
 28 29  2  0
 29 24  1  0
 30 31  1  0
 32 30  2  0
M  END
$$$$
