NEW.pdb
     RDKit          3D

 32 33  0  0  1  0  0  0  0  0999 V2000
   27.8049  -23.4710  -20.0268 N   0  0  0  0  0  0  0  0  0  0  0  0
   26.6557  -23.5693  -19.2175 C   0  0  0  0  0  0  0  0  0  0  0  0
   25.5971  -24.0294  -19.6815 O   0  0  0  0  0  0  0  0  0  0  0  0
   26.7052  -23.1224  -17.8104 C   0  0  0  0  0  0  0  0  0  0  0  0
   28.0882  -22.5762  -17.4600 C   0  0  2  0  0  0  0  0  0  0  0  0
   29.0916  -23.6195  -17.6200 N   0  0  0  0  0  0  0  0  0  0  0  0
   28.0734  -22.0154  -16.1101 C   0  0  0  0  0  0  0  0  0  0  0  0
   28.6321  -22.5300  -15.1069 O   0  0  0  0  0  0  0  0  0  0  0  0
   27.3893  -20.7945  -15.8584 N   0  0  0  0  0  0  0  0  0  0  0  0
   27.3650  -20.1318  -14.5635 C   0  0  1  0  0  0  0  0  0  0  0  0
   27.3265  -18.6565  -14.6636 C   0  0  0  0  0  0  0  0  0  0  0  0
   28.5998  -18.1207  -15.2559 C   0  0  0  0  0  0  0  0  0  0  0  0
   28.4441  -17.9187  -16.7400 C   0  0  0  0  0  0  0  0  0  0  0  0
   27.4366  -17.3399  -17.1712 O   0  0  0  0  0  0  0  0  0  0  0  0
   26.3783  -20.7620  -13.6567 C   0  0  0  0  0  0  0  0  0  0  0  0
   25.2417  -21.1679  -14.0187 O   0  0  0  0  0  0  0  0  0  0  0  0
   29.4125  -18.3737  -17.5936 O   0  0  0  0  0  0  0  0  0  0  0  0
   26.6940  -20.9451  -12.2626 N   0  0  0  0  0  0  0  0  0  0  0  0
   25.7689  -21.6483  -11.4115 C   0  0  1  0  0  0  0  0  0  0  0  0
   26.4259  -22.0710  -10.1100 C   0  0  0  0  0  0  0  0  0  0  0  0
   26.5165  -20.9121   -9.1885 C   0  0  0  0  0  0  0  0  0  0  0  0
   25.6643  -19.8608   -8.9661 C   0  0  0  0  0  0  0  0  0  0  0  0
   26.1656  -19.0316   -8.0263 N   0  0  0  0  0  0  0  0  0  0  0  0
   27.3419  -19.5155   -7.6182 C   0  0  0  0  0  0  0  0  0  0  0  0
   28.2622  -19.0765   -6.6939 C   0  0  0  0  0  0  0  0  0  0  0  0
   29.4148  -19.7779   -6.4605 C   0  0  0  0  0  0  0  0  0  0  0  0
   29.6745  -20.9373   -7.1484 C   0  0  0  0  0  0  0  0  0  0  0  0
   28.7568  -21.3745   -8.0704 C   0  0  0  0  0  0  0  0  0  0  0  0
   27.5873  -20.6875   -8.3249 C   0  0  0  0  0  0  0  0  0  0  0  0
   24.6326  -20.7445  -11.1052 C   0  0  0  0  0  0  0  0  0  0  0  0
   23.4271  -21.2797  -10.6758 O   0  0  0  0  0  0  0  0  0  0  0  0
   24.7627  -19.4786  -11.2355 O   0  0  0  0  0  0  0  0  0  0  0  0
  2  1  1  0
  3  2  2  0
  4  2  1  0
  4  5  1  0
  5  6  1  1
  7  5  1  0
  7  8  2  0
  9  7  1  0
 10  9  1  0
 10 11  1  6
 12 11  1  0
 12 13  1  0
 13 14  2  0
 15 18  1  0
 15 10  1  0
 16 15  2  0
 17 13  1  0
 19 18  1  0
 19 30  1  0
 20 21  1  0
 19 20  1  1
 21 29  1  0
 21 22  2  0
 22 23  1  0
 24 23  1  0
 24 25  2  0
 26 25  1  0
 27 26  2  0
 28 27  1  0
 28 29  2  0
 29 24  1  0
 30 31  1  0
 32 30  2  0
M  END
$$$$
