RQM.pdb
     RDKit          3D

 29 28  0  0  1  0  0  0  0  0999 V2000
    8.5402  -13.3181   17.2619 N   0  0  0  0  0  0  0  0  0  0  0  0
    8.9205  -13.0302   18.6175 C   0  0  0  0  0  0  0  0  0  0  0  0
    8.9322  -11.8159   19.0558 N   0  0  0  0  0  0  0  0  0  0  0  0
    9.2938  -14.0615   19.5164 N   0  0  0  0  0  0  0  0  0  0  0  0
    8.4395  -15.2284   19.6122 C   0  0  0  0  0  0  0  0  0  0  0  0
    7.1835  -14.7882   20.3392 C   0  0  0  0  0  0  0  0  0  0  0  0
    6.8077  -15.8171   21.3825 C   0  0  0  0  0  0  0  0  0  0  0  0
    7.7579  -16.9743   21.4109 C   0  0  2  0  0  0  0  0  0  0  0  0
    7.1868  -18.1821   20.8882 N   0  0  0  0  0  0  0  0  0  0  0  0
    8.2087  -17.1462   22.8330 C   0  0  0  0  0  0  0  0  0  0  0  0
    7.3509  -17.0813   23.7425 O   0  0  0  0  0  0  0  0  0  0  0  0
    9.2545  -11.5584   20.0170 N   0  0  0  0  0  0  0  0  0  0  0  0
   13.7507  -19.0794   24.8931 C   0  0  0  0  0  0  0  0  0  0  0  0
   13.2010  -19.4886   23.6649 O   0  0  0  0  0  0  0  0  0  0  0  0
   13.9245  -20.0649   22.8231 C   0  0  0  0  0  0  0  0  0  0  0  0
   11.7419  -19.2012   23.4329 C   0  0  0  0  0  0  0  0  0  0  0  0
   11.2647  -18.4472   24.6105 C   0  0  2  0  0  0  0  0  0  0  0  0
   10.1011  -17.5546   24.4536 N   0  0  0  0  0  0  0  0  0  0  0  0
    9.5827  -17.3784   23.1352 C   0  0  0  0  0  0  0  0  0  0  0  0
   10.1624  -16.2940   25.2626 O   0  0  0  0  0  0  0  0  0  0  0  0
   10.8146  -15.3493   24.7390 C   0  0  0  0  0  0  0  0  0  0  0  0
    6.5284  -11.9551   25.8572 S   0  0  0  0  0  0  0  0  0  0  0  0
    6.8764  -11.8909   27.6495 C   0  0  0  0  0  0  0  0  0  0  0  0
    8.3737  -12.8315   27.9768 C   0  0  0  0  0  0  0  0  0  0  0  0
    8.4850  -14.0372   27.1271 C   0  0  1  0  0  0  0  0  0  0  0  0
    9.6975  -14.8399   27.3031 N   0  0  0  0  0  0  0  0  0  0  0  0
    9.5769  -16.0995   26.5031 C   0  0  0  0  0  0  0  0  0  0  0  0
   10.0810  -15.2432   28.6484 O   0  0  0  0  0  0  0  0  0  0  0  0
   10.2384  -16.5199   29.1487 O   0  0  0  0  0  0  0  0  0  0  0  0
  2  1  1  0
  3  2  2  0
  4  2  1  0
  4  5  1  0
  6  5  1  0
  7  6  1  0
  8 10  1  0
  8  7  1  0
  8  9  1  1
 10 11  2  0
 13 12  1  0
 13 14  2  0
 15 13  1  0
 16 15  1  0
 17 16  1  1
 17 19  1  0
 18 17  1  0
 18 10  1  0
 19 20  2  0
 22 23  1  0
 22 21  1  0
 23 24  1  0
 25 24  1  6
 25 27  1  0
 26 25  1  0
 26 19  1  0
 27 29  2  0
 27 28  1  0
M  END
$$$$
