RQM.pdb
     RDKit          3D

 29 28  0  0  1  0  0  0  0  0999 V2000
    8.9146  -13.2561   14.0697 N   0  0  0  0  0  0  0  0  0  0  0  0
    7.5630  -13.7441   14.0794 C   0  0  0  0  0  0  0  0  0  0  0  0
    6.8513  -13.7377   13.0022 N   0  0  0  0  0  0  0  0  0  0  0  0
    6.9661  -14.2469   15.2634 N   0  0  0  0  0  0  0  0  0  0  0  0
    7.8334  -14.6087   16.3668 C   0  0  0  0  0  0  0  0  0  0  0  0
    7.7868  -13.4561   17.3514 C   0  0  0  0  0  0  0  0  0  0  0  0
    7.7243  -13.9914   18.7648 C   0  0  0  0  0  0  0  0  0  0  0  0
    9.0797  -14.3163   19.3124 C   0  0  2  0  0  0  0  0  0  0  0  0
    9.8745  -15.1021   18.4130 N   0  0  0  0  0  0  0  0  0  0  0  0
    8.8742  -15.0169   20.6248 C   0  0  0  0  0  0  0  0  0  0  0  0
    8.1576  -14.4642   21.4898 O   0  0  0  0  0  0  0  0  0  0  0  0
    5.8954  -14.1585   12.9464 N   0  0  0  0  0  0  0  0  0  0  0  0
   10.8051  -20.7759   21.7665 C   0  0  0  0  0  0  0  0  0  0  0  0
   10.4638  -20.4910   23.1008 O   0  0  0  0  0  0  0  0  0  0  0  0
   10.6347  -21.3602   23.9836 C   0  0  0  0  0  0  0  0  0  0  0  0
    9.9007  -19.1258   23.3918 C   0  0  0  0  0  0  0  0  0  0  0  0
    9.8486  -18.4040   22.1036 C   0  0  1  0  0  0  0  0  0  0  0  0
    9.3473  -17.0171   22.0909 N   0  0  0  0  0  0  0  0  0  0  0  0
    9.4827  -16.2819   20.8746 C   0  0  0  0  0  0  0  0  0  0  0  0
    9.6586  -16.2249   23.3248 O   0  0  0  0  0  0  0  0  0  0  0  0
   10.6447  -15.4436   23.2286 C   0  0  0  0  0  0  0  0  0  0  0  0
    6.3521  -11.1383   27.8622 S   0  0  0  0  0  0  0  0  0  0  0  0
    6.3938  -12.3004   26.4532 C   0  0  0  0  0  0  0  0  0  0  0  0
    7.6671  -13.5318   26.7632 C   0  0  0  0  0  0  0  0  0  0  0  0
    7.7957  -14.5072   25.6587 C   0  0  1  0  0  0  0  0  0  0  0  0
    9.0539  -15.2550   25.6026 N   0  0  0  0  0  0  0  0  0  0  0  0
    8.9668  -16.2890   24.5235 C   0  0  0  0  0  0  0  0  0  0  0  0
    9.5106  -15.9477   26.7989 O   0  0  0  0  0  0  0  0  0  0  0  0
    9.8221  -17.2838   26.9498 O   0  0  0  0  0  0  0  0  0  0  0  0
  2  1  1  0
  3  2  2  0
  4  2  1  0
  4  5  1  0
  6  5  1  0
  7  6  1  0
  8 10  1  0
  8  7  1  0
  8  9  1  6
 10 11  2  0
 13 12  1  0
 13 14  2  0
 15 13  1  0
 16 15  1  0
 17 16  1  6
 17 19  1  0
 18 17  1  0
 18 10  1  0
 19 20  2  0
 22 23  1  0
 22 21  1  0
 23 24  1  0
 25 24  1  6
 25 27  1  0
 26 25  1  0
 26 19  1  0
 27 29  2  0
 27 28  1  0
M  END
$$$$
