RQM.pdb
     RDKit          3D

 29 28  0  0  1  0  0  0  0  0999 V2000
    9.9475  -12.1528   18.6442 N   0  0  0  0  0  0  0  0  0  0  0  0
    8.7263  -12.6633   18.0848 C   0  0  0  0  0  0  0  0  0  0  0  0
    8.7181  -13.2300   16.9248 N   0  0  0  0  0  0  0  0  0  0  0  0
    7.4950  -12.5643   18.7812 N   0  0  0  0  0  0  0  0  0  0  0  0
    7.4346  -13.0665   20.1395 C   0  0  0  0  0  0  0  0  0  0  0  0
    7.7738  -14.5431   20.0717 C   0  0  0  0  0  0  0  0  0  0  0  0
    7.5604  -15.1809   21.4267 C   0  0  0  0  0  0  0  0  0  0  0  0
    7.8508  -16.6499   21.4180 C   0  0  2  0  0  0  0  0  0  0  0  0
    6.7736  -17.4317   20.8825 N   0  0  0  0  0  0  0  0  0  0  0  0
    8.1752  -17.0487   22.8290 C   0  0  0  0  0  0  0  0  0  0  0  0
    7.2298  -17.2389   23.6272 O   0  0  0  0  0  0  0  0  0  0  0  0
    7.8439  -13.5663   16.4593 N   0  0  0  0  0  0  0  0  0  0  0  0
   12.1762  -21.1711   26.4725 C   0  0  0  0  0  0  0  0  0  0  0  0
   12.4911  -19.8745   26.0278 O   0  0  0  0  0  0  0  0  0  0  0  0
   13.6251  -19.6393   25.5558 C   0  0  0  0  0  0  0  0  0  0  0  0
   11.4195  -18.8247   26.1501 C   0  0  0  0  0  0  0  0  0  0  0  0
   10.9234  -18.5625   24.7833 C   0  0  1  0  0  0  0  0  0  0  0  0
    9.9363  -17.4849   24.5848 N   0  0  0  0  0  0  0  0  0  0  0  0
    9.5300  -17.2063   23.2448 C   0  0  0  0  0  0  0  0  0  0  0  0
   10.1617  -16.2635   25.4242 O   0  0  0  0  0  0  0  0  0  0  0  0
   10.8507  -15.3566   24.8812 C   0  0  0  0  0  0  0  0  0  0  0  0
    6.4745  -11.2378   25.4750 S   0  0  0  0  0  0  0  0  0  0  0  0
    6.7870  -12.3719   26.8727 C   0  0  0  0  0  0  0  0  0  0  0  0
    8.3342  -13.2379   26.5735 C   0  0  0  0  0  0  0  0  0  0  0  0
    8.7426  -14.0839   27.7160 C   0  0  2  0  0  0  0  0  0  0  0  0
    9.9758  -14.8542   27.5393 N   0  0  0  0  0  0  0  0  0  0  0  0
    9.6868  -16.0670   26.7108 C   0  0  0  0  0  0  0  0  0  0  0  0
   10.6835  -15.3238   28.7217 O   0  0  0  0  0  0  0  0  0  0  0  0
   11.3942  -14.5846   29.6456 O   0  0  0  0  0  0  0  0  0  0  0  0
  2  1  1  0
  3  2  2  0
  4  2  1  0
  4  5  1  0
  6  5  1  0
  7  6  1  0
  8 10  1  0
  8  7  1  0
  8  9  1  1
 10 11  2  0
 13 12  1  0
 13 14  2  0
 15 13  1  0
 16 15  1  0
 17 16  1  1
 17 19  1  0
 18 17  1  0
 18 10  1  0
 19 20  2  0
 22 23  1  0
 22 21  1  0
 23 24  1  0
 25 24  1  6
 25 27  1  0
 26 25  1  0
 26 19  1  0
 27 29  2  0
 27 28  1  0
M  END
$$$$
