RQM.pdb
     RDKit          3D

 29 28  0  0  1  0  0  0  0  0999 V2000
    8.7357  -15.7324   17.3084 N   0  0  0  0  0  0  0  0  0  0  0  0
    8.3648  -14.4787   16.7120 C   0  0  0  0  0  0  0  0  0  0  0  0
    8.4720  -14.2965   15.4384 N   0  0  0  0  0  0  0  0  0  0  0  0
    7.8712  -13.4041   17.4946 N   0  0  0  0  0  0  0  0  0  0  0  0
    8.3031  -13.3075   18.8747 C   0  0  0  0  0  0  0  0  0  0  0  0
    7.1594  -13.8267   19.7247 C   0  0  0  0  0  0  0  0  0  0  0  0
    7.7068  -14.5186   20.9534 C   0  0  0  0  0  0  0  0  0  0  0  0
    8.1102  -15.9344   20.6790 C   0  0  2  0  0  0  0  0  0  0  0  0
    7.0227  -16.7483   20.2174 N   0  0  0  0  0  0  0  0  0  0  0  0
    8.7115  -16.4796   21.9424 C   0  0  0  0  0  0  0  0  0  0  0  0
    7.9418  -16.8455   22.8595 O   0  0  0  0  0  0  0  0  0  0  0  0
    8.3488  -13.3633   14.9822 N   0  0  0  0  0  0  0  0  0  0  0  0
   14.6512  -17.7034   22.5726 C   0  0  0  0  0  0  0  0  0  0  0  0
   13.8153  -18.6194   21.9089 O   0  0  0  0  0  0  0  0  0  0  0  0
   14.2914  -19.3656   21.0254 C   0  0  0  0  0  0  0  0  0  0  0  0
   12.3653  -18.6464   22.3116 C   0  0  0  0  0  0  0  0  0  0  0  0
   12.1489  -17.4852   23.1992 C   0  0  2  0  0  0  0  0  0  0  0  0
   10.7906  -16.9206   23.3052 N   0  0  0  0  0  0  0  0  0  0  0  0
   10.1264  -16.5770   22.0891 C   0  0  0  0  0  0  0  0  0  0  0  0
   10.6098  -15.9204   24.4070 O   0  0  0  0  0  0  0  0  0  0  0  0
   11.2479  -14.8412   24.2646 C   0  0  0  0  0  0  0  0  0  0  0  0
    6.7161  -11.5722   25.6027 S   0  0  0  0  0  0  0  0  0  0  0  0
    6.5270  -12.5098   27.1591 C   0  0  0  0  0  0  0  0  0  0  0  0
    8.0663  -13.3755   27.4975 C   0  0  0  0  0  0  0  0  0  0  0  0
    8.4173  -14.3466   26.4384 C   0  0  1  0  0  0  0  0  0  0  0  0
    9.6758  -15.0733   26.6216 N   0  0  0  0  0  0  0  0  0  0  0  0
    9.8219  -16.0912   25.5337 C   0  0  0  0  0  0  0  0  0  0  0  0
    9.9015  -15.7774   27.8756 O   0  0  0  0  0  0  0  0  0  0  0  0
   10.1595  -15.2459   29.1231 O   0  0  0  0  0  0  0  0  0  0  0  0
  2  1  1  0
  3  2  2  0
  4  2  1  0
  4  5  1  0
  6  5  1  0
  7  6  1  0
  8 10  1  0
  8  7  1  0
  8  9  1  1
 10 11  2  0
 13 12  1  0
 13 14  2  0
 15 13  1  0
 16 15  1  0
 17 16  1  6
 17 19  1  0
 18 17  1  0
 18 10  1  0
 19 20  2  0
 22 23  1  0
 22 21  1  0
 23 24  1  0
 25 24  1  6
 25 27  1  0
 26 25  1  0
 26 19  1  0
 27 29  2  0
 27 28  1  0
M  END
$$$$
