RQM.pdb
     RDKit          3D

 29 28  0  0  1  0  0  0  0  0999 V2000
    6.7782  -12.5537   14.8666 N   0  0  0  0  0  0  0  0  0  0  0  0
    7.5008  -13.7321   14.4740 C   0  0  0  0  0  0  0  0  0  0  0  0
    7.9215  -13.8749   13.2618 N   0  0  0  0  0  0  0  0  0  0  0  0
    7.7762  -14.7732   15.3966 N   0  0  0  0  0  0  0  0  0  0  0  0
    8.6482  -14.4818   16.5170 C   0  0  0  0  0  0  0  0  0  0  0  0
    7.7904  -13.8084   17.5709 C   0  0  0  0  0  0  0  0  0  0  0  0
    7.7457  -14.6629   18.8184 C   0  0  0  0  0  0  0  0  0  0  0  0
    9.1107  -14.9465   19.3650 C   0  0  2  0  0  0  0  0  0  0  0  0
    9.8629  -15.8574   18.5510 N   0  0  0  0  0  0  0  0  0  0  0  0
    8.9320  -15.4707   20.7609 C   0  0  0  0  0  0  0  0  0  0  0  0
    8.2613  -14.7920   21.5713 O   0  0  0  0  0  0  0  0  0  0  0  0
    8.4785  -14.7012   12.9438 N   0  0  0  0  0  0  0  0  0  0  0  0
   10.6960  -21.1103   22.5871 C   0  0  0  0  0  0  0  0  0  0  0  0
   10.4868  -20.6144   23.8865 O   0  0  0  0  0  0  0  0  0  0  0  0
   10.7219  -21.3448   24.8741 C   0  0  0  0  0  0  0  0  0  0  0  0
    9.9809  -19.2024   24.0122 C   0  0  0  0  0  0  0  0  0  0  0  0
    9.9160  -18.6506   22.6432 C   0  0  1  0  0  0  0  0  0  0  0  0
    9.4258  -17.2717   22.4599 N   0  0  0  0  0  0  0  0  0  0  0  0
    9.5141  -16.7131   21.1491 C   0  0  0  0  0  0  0  0  0  0  0  0
    9.7967  -16.3215   23.5584 O   0  0  0  0  0  0  0  0  0  0  0  0
   10.9730  -15.8681   23.5038 C   0  0  0  0  0  0  0  0  0  0  0  0
    5.4000  -12.9432   26.8767 S   0  0  0  0  0  0  0  0  0  0  0  0
    6.9377  -12.0367   27.2655 C   0  0  0  0  0  0  0  0  0  0  0  0
    8.3263  -13.1677   27.1045 C   0  0  0  0  0  0  0  0  0  0  0  0
    8.1715  -14.1000   25.9665 C   0  0  1  0  0  0  0  0  0  0  0  0
    9.3469  -14.9063   25.6294 N   0  0  0  0  0  0  0  0  0  0  0  0
    8.9701  -15.9215   24.5957 C   0  0  0  0  0  0  0  0  0  0  0  0
   10.0245  -15.6348   26.6923 O   0  0  0  0  0  0  0  0  0  0  0  0
   10.9594  -15.1651   27.5926 O   0  0  0  0  0  0  0  0  0  0  0  0
  2  1  1  0
  3  2  2  0
  4  2  1  0
  4  5  1  0
  6  5  1  0
  7  6  1  0
  8 10  1  0
  8  7  1  0
  8  9  1  6
 10 11  2  0
 13 12  1  0
 13 14  2  0
 15 13  1  0
 16 15  1  0
 17 16  1  6
 17 19  1  0
 18 17  1  0
 18 10  1  0
 19 20  2  0
 22 23  1  0
 22 21  1  0
 23 24  1  0
 25 24  1  6
 25 27  1  0
 26 25  1  0
 26 19  1  0
 27 29  2  0
 27 28  1  0
M  END
$$$$
