RQM.pdb
     RDKit          3D

 29 28  0  0  1  0  0  0  0  0999 V2000
    8.6809  -15.2728   17.0857 N   0  0  0  0  0  0  0  0  0  0  0  0
    8.1462  -13.9425   17.1821 C   0  0  0  0  0  0  0  0  0  0  0  0
    8.1457  -13.1557   16.1585 N   0  0  0  0  0  0  0  0  0  0  0  0
    7.6034  -13.4491   18.3957 N   0  0  0  0  0  0  0  0  0  0  0  0
    8.3485  -13.6710   19.6189 C   0  0  0  0  0  0  0  0  0  0  0  0
    8.5206  -15.1716   19.7560 C   0  0  0  0  0  0  0  0  0  0  0  0
    8.1628  -15.6025   21.1612 C   0  0  0  0  0  0  0  0  0  0  0  0
    8.3160  -17.0786   21.3618 C   0  0  2  0  0  0  0  0  0  0  0  0
    7.1956  -17.8303   20.8743 N   0  0  0  0  0  0  0  0  0  0  0  0
    8.5397  -17.3083   22.8289 C   0  0  0  0  0  0  0  0  0  0  0  0
    7.6276  -16.9956   23.6273 O   0  0  0  0  0  0  0  0  0  0  0  0
    7.8013  -12.1688   16.1965 N   0  0  0  0  0  0  0  0  0  0  0  0
   10.6141  -21.1694   26.5360 C   0  0  0  0  0  0  0  0  0  0  0  0
   10.7884  -19.9200   27.1577 O   0  0  0  0  0  0  0  0  0  0  0  0
   10.2286  -19.6884   28.2518 C   0  0  0  0  0  0  0  0  0  0  0  0
   11.6581  -18.9143   26.4521 C   0  0  0  0  0  0  0  0  0  0  0  0
   11.2062  -18.8739   25.0460 C   0  0  1  0  0  0  0  0  0  0  0  0
   10.1702  -17.8958   24.6649 N   0  0  0  0  0  0  0  0  0  0  0  0
    9.7639  -17.8704   23.2965 C   0  0  0  0  0  0  0  0  0  0  0  0
   10.3281  -16.5396   25.2836 O   0  0  0  0  0  0  0  0  0  0  0  0
   11.2781  -15.8465   24.8262 C   0  0  0  0  0  0  0  0  0  0  0  0
    5.9801  -12.2881   26.2270 S   0  0  0  0  0  0  0  0  0  0  0  0
    6.8186  -11.9349   27.8112 C   0  0  0  0  0  0  0  0  0  0  0  0
    8.4338  -12.7251   27.7936 C   0  0  0  0  0  0  0  0  0  0  0  0
    8.4429  -13.9833   27.0158 C   0  0  1  0  0  0  0  0  0  0  0  0
    9.7370  -14.6595   26.8991 N   0  0  0  0  0  0  0  0  0  0  0  0
    9.5350  -16.0117   26.2894 C   0  0  0  0  0  0  0  0  0  0  0  0
   10.5300  -14.8660   28.1024 O   0  0  0  0  0  0  0  0  0  0  0  0
   10.8790  -16.0576   28.7052 O   0  0  0  0  0  0  0  0  0  0  0  0
  2  1  1  0
  3  2  2  0
  4  2  1  0
  4  5  1  0
  6  5  1  0
  7  6  1  0
  8 10  1  0
  8  7  1  0
  8  9  1  1
 10 11  2  0
 13 12  1  0
 13 14  2  0
 15 13  1  0
 16 15  1  0
 17 16  1  1
 17 19  1  0
 18 17  1  0
 18 10  1  0
 19 20  2  0
 22 23  1  0
 22 21  1  0
 23 24  1  0
 25 24  1  6
 25 27  1  0
 26 25  1  0
 26 19  1  0
 27 29  2  0
 27 28  1  0
M  END
$$$$
