EVH.pdb
     RDKit          3D

 27 27  0  0  1  0  0  0  0  0999 V2000
   11.8017  -17.4622   17.6655 N   0  0  0  0  0  0  0  0  0  0  0  0
   11.5267  -17.9544   18.9487 C   0  0  1  0  0  0  0  0  0  0  0  0
   12.7228  -18.3705   19.7173 C   0  0  0  0  0  0  0  0  0  0  0  0
   13.5292  -19.4281   19.0858 C   0  0  0  0  0  0  0  0  0  0  0  0
   14.6693  -19.8656   19.8996 C   0  0  0  0  0  0  0  0  0  0  0  0
   15.8093  -19.3604   19.7812 O   0  0  0  0  0  0  0  0  0  0  0  0
   10.7134  -17.0350   19.8218 C   0  0  0  0  0  0  0  0  0  0  0  0
   11.1069  -15.8323   19.9422 O   0  0  0  0  0  0  0  0  0  0  0  0
   14.4976  -20.8969   20.8614 O   0  0  0  0  0  0  0  0  0  0  0  0
    6.4280  -15.7514   21.9693 C   0  0  0  0  0  0  0  0  0  0  0  0
    7.2890  -16.6361   21.1091 C   0  0  2  0  0  0  0  0  0  0  0  0
    6.8858  -18.0986   21.2275 C   0  0  0  0  0  0  0  0  0  0  0  0
    8.7559  -16.4447   21.2864 C   0  0  2  0  0  0  0  0  0  0  0  0
    9.5510  -17.3958   20.5185 N   0  0  0  0  0  0  0  0  0  0  0  0
    9.1423  -16.5517   22.7341 C   0  0  0  0  0  0  0  0  0  0  0  0
    9.5224  -17.6668   23.1771 O   0  0  0  0  0  0  0  0  0  0  0  0
    9.0842  -15.4274   23.5931 N   0  0  0  0  0  0  0  0  0  0  0  0
    9.4461  -15.4992   25.0131 C   0  0  1  0  0  0  0  0  0  0  0  0
    9.1267  -14.2425   25.7238 C   0  0  0  0  0  0  0  0  0  0  0  0
    9.4941  -14.3194   27.1575 C   0  0  0  0  0  0  0  0  0  0  0  0
   10.0390  -15.4598   27.7627 C   0  0  0  0  0  0  0  0  0  0  0  0
   10.2510  -15.1863   29.0549 N   0  0  0  0  0  0  0  0  0  0  0  0
    9.8707  -13.9312   29.3097 C   0  0  0  0  0  0  0  0  0  0  0  0
    9.4192  -13.4291   28.1552 N   0  0  0  0  0  0  0  0  0  0  0  0
    8.6674  -16.6371   25.5752 C   0  0  0  0  0  0  0  0  0  0  0  0
    7.4731  -16.8265   25.3152 O   0  0  0  0  0  0  0  0  0  0  0  0
    9.2903  -17.5611   26.4507 O   0  0  0  0  0  0  0  0  0  0  0  0
  2  3  1  0
  2  1  1  6
  3  4  1  0
  5  4  1  0
  6  5  2  0
  7  2  1  0
  8  7  2  0
  9  5  1  0
 11 13  1  0
 11 10  1  1
 12 11  1  0
 13 14  1  6
 14  7  1  0
 15 13  1  0
 15 16  2  0
 17 15  1  0
 18 17  1  0
 18 19  1  1
 20 19  1  0
 21 20  2  0
 22 21  1  0
 23 22  1  0
 23 24  2  0
 24 20  1  0
 25 18  1  0
 26 25  2  0
 27 25  1  0
M  END
$$$$
