EVH.pdb
     RDKit          3D

 27 27  0  0  1  0  0  0  0  0999 V2000
    8.0574  -14.4607   20.2716 N   0  0  0  0  0  0  0  0  0  0  0  0
    7.3433  -14.7254   21.4483 C   0  0  1  0  0  0  0  0  0  0  0  0
    6.8877  -16.1280   21.5890 C   0  0  0  0  0  0  0  0  0  0  0  0
    7.4254  -17.0588   20.5829 C   0  0  0  0  0  0  0  0  0  0  0  0
    6.4864  -18.1193   20.1994 C   0  0  0  0  0  0  0  0  0  0  0  0
    5.3364  -18.2042   20.6885 O   0  0  0  0  0  0  0  0  0  0  0  0
    8.0498  -14.3393   22.7215 C   0  0  0  0  0  0  0  0  0  0  0  0
    9.3104  -14.4952   22.7689 O   0  0  0  0  0  0  0  0  0  0  0  0
    6.8735  -19.0950   19.2421 O   0  0  0  0  0  0  0  0  0  0  0  0
    8.1629  -12.1181   27.2034 C   0  0  0  0  0  0  0  0  0  0  0  0
    7.4035  -12.5772   25.9883 C   0  0  2  0  0  0  0  0  0  0  0  0
    6.0393  -13.1407   26.3584 C   0  0  0  0  0  0  0  0  0  0  0  0
    8.1597  -13.4910   25.0865 C   0  0  2  0  0  0  0  0  0  0  0  0
    7.4304  -13.8193   23.8672 N   0  0  0  0  0  0  0  0  0  0  0  0
    8.5195  -14.7677   25.7915 C   0  0  0  0  0  0  0  0  0  0  0  0
    7.6342  -15.6516   25.9299 O   0  0  0  0  0  0  0  0  0  0  0  0
    9.8253  -14.9842   26.2946 N   0  0  0  0  0  0  0  0  0  0  0  0
   10.2078  -16.2157   26.9944 C   0  0  1  0  0  0  0  0  0  0  0  0
   11.5833  -16.6359   26.6512 C   0  0  0  0  0  0  0  0  0  0  0  0
   11.6806  -17.0815   25.2411 C   0  0  0  0  0  0  0  0  0  0  0  0
   10.5805  -17.1895   24.3799 C   0  0  0  0  0  0  0  0  0  0  0  0
   11.0210  -17.6148   23.1904 N   0  0  0  0  0  0  0  0  0  0  0  0
   12.3450  -17.7849   23.2440 C   0  0  0  0  0  0  0  0  0  0  0  0
   12.7202  -17.4585   24.4857 N   0  0  0  0  0  0  0  0  0  0  0  0
   10.0953  -15.9105   28.4474 C   0  0  0  0  0  0  0  0  0  0  0  0
   10.2811  -16.7591   29.3279 O   0  0  0  0  0  0  0  0  0  0  0  0
    9.7608  -14.6014   28.8750 O   0  0  0  0  0  0  0  0  0  0  0  0
  2  3  1  0
  2  1  1  6
  3  4  1  0
  5  4  1  0
  6  5  2  0
  7  2  1  0
  8  7  2  0
  9  5  1  0
 11 13  1  0
 11 10  1  1
 12 11  1  0
 13 14  1  6
 14  7  1  0
 15 13  1  0
 15 16  2  0
 17 15  1  0
 18 17  1  0
 18 19  1  1
 20 19  1  0
 21 20  2  0
 22 21  1  0
 23 22  1  0
 23 24  2  0
 24 20  1  0
 25 18  1  0
 26 25  2  0
 27 25  1  0
M  END
$$$$
