EVH.pdb
     RDKit          3D

 27 27  0  0  1  0  0  0  0  0999 V2000
   10.7564  -17.1226   16.4142 N   0  0  0  0  0  0  0  0  0  0  0  0
    9.7155  -17.2775   17.3400 C   0  0  1  0  0  0  0  0  0  0  0  0
    9.5195  -18.6657   17.8187 C   0  0  0  0  0  0  0  0  0  0  0  0
    9.3918  -19.6763   16.7558 C   0  0  0  0  0  0  0  0  0  0  0  0
    9.1562  -21.0346   17.2589 C   0  0  0  0  0  0  0  0  0  0  0  0
    9.9706  -21.9679   17.0730 O   0  0  0  0  0  0  0  0  0  0  0  0
    9.7993  -16.3801   18.5471 C   0  0  0  0  0  0  0  0  0  0  0  0
   10.9271  -16.2661   19.1221 O   0  0  0  0  0  0  0  0  0  0  0  0
    7.9698  -21.3245   17.9845 O   0  0  0  0  0  0  0  0  0  0  0  0
    7.5945  -12.8881   19.2909 C   0  0  0  0  0  0  0  0  0  0  0  0
    7.7487  -13.8473   20.4398 C   0  0  2  0  0  0  0  0  0  0  0  0
    7.8071  -13.1197   21.7750 C   0  0  0  0  0  0  0  0  0  0  0  0
    8.8589  -14.8297   20.2898 C   0  0  2  0  0  0  0  0  0  0  0  0
    8.7308  -15.6551   19.0944 N   0  0  0  0  0  0  0  0  0  0  0  0
    8.9482  -15.7294   21.4895 C   0  0  0  0  0  0  0  0  0  0  0  0
    8.0346  -16.5738   21.6806 O   0  0  0  0  0  0  0  0  0  0  0  0
   10.0337  -15.6389   22.3942 N   0  0  0  0  0  0  0  0  0  0  0  0
   10.2104  -16.5732   23.5115 C   0  0  1  0  0  0  0  0  0  0  0  0
   11.6293  -16.6861   23.9118 C   0  0  0  0  0  0  0  0  0  0  0  0
   12.4476  -17.3112   22.8459 C   0  0  0  0  0  0  0  0  0  0  0  0
   11.9450  -18.2296   21.9145 C   0  0  0  0  0  0  0  0  0  0  0  0
   12.9444  -18.5899   21.1016 N   0  0  0  0  0  0  0  0  0  0  0  0
   14.0608  -17.9510   21.4629 C   0  0  0  0  0  0  0  0  0  0  0  0
   13.7389  -17.1879   22.5132 N   0  0  0  0  0  0  0  0  0  0  0  0
    9.3873  -16.0331   24.6286 C   0  0  0  0  0  0  0  0  0  0  0  0
    8.8324  -14.9287   24.5804 O   0  0  0  0  0  0  0  0  0  0  0  0
    9.2126  -16.7904   25.8135 O   0  0  0  0  0  0  0  0  0  0  0  0
  2  3  1  0
  2  1  1  1
  3  4  1  0
  5  4  1  0
  6  5  2  0
  7  2  1  0
  8  7  2  0
  9  5  1  0
 11 13  1  0
 11 10  1  6
 12 11  1  0
 13 14  1  6
 14  7  1  0
 15 13  1  0
 15 16  2  0
 17 15  1  0
 18 17  1  0
 18 19  1  1
 20 19  1  0
 21 20  2  0
 22 21  1  0
 23 22  1  0
 23 24  2  0
 24 20  1  0
 25 18  1  0
 26 25  2  0
 27 25  1  0
M  END
$$$$
