EVH.pdb
     RDKit          3D

 27 27  0  0  1  0  0  0  0  0999 V2000
    9.6220  -17.2234   15.9039 N   0  0  0  0  0  0  0  0  0  0  0  0
    8.8148  -17.4305   17.0309 C   0  0  1  0  0  0  0  0  0  0  0  0
    8.7239  -18.8419   17.4716 C   0  0  0  0  0  0  0  0  0  0  0  0
    8.9274  -19.8385   16.4072 C   0  0  0  0  0  0  0  0  0  0  0  0
    9.0215  -21.2173   16.9006 C   0  0  0  0  0  0  0  0  0  0  0  0
    8.0272  -21.8412   17.3377 O   0  0  0  0  0  0  0  0  0  0  0  0
    9.1722  -16.5938   18.2316 C   0  0  0  0  0  0  0  0  0  0  0  0
   10.3816  -16.6065   18.6224 O   0  0  0  0  0  0  0  0  0  0  0  0
   10.2739  -21.8878   16.8922 O   0  0  0  0  0  0  0  0  0  0  0  0
    7.2956  -13.0035   19.4564 C   0  0  0  0  0  0  0  0  0  0  0  0
    7.6517  -14.0045   20.5219 C   0  0  2  0  0  0  0  0  0  0  0  0
    8.0040  -13.3240   21.8366 C   0  0  0  0  0  0  0  0  0  0  0  0
    8.6770  -15.0080   20.1197 C   0  0  2  0  0  0  0  0  0  0  0  0
    8.2774  -15.7968   18.9602 N   0  0  0  0  0  0  0  0  0  0  0  0
    8.9904  -15.9423   21.2535 C   0  0  0  0  0  0  0  0  0  0  0  0
    8.2088  -16.9029   21.4784 O   0  0  0  0  0  0  0  0  0  0  0  0
   10.1394  -15.7565   22.0601 N   0  0  0  0  0  0  0  0  0  0  0  0
   10.5318  -16.7072   23.1064 C   0  0  1  0  0  0  0  0  0  0  0  0
   12.0008  -16.7770   23.2599 C   0  0  0  0  0  0  0  0  0  0  0  0
   12.3866  -17.5715   24.4500 C   0  0  0  0  0  0  0  0  0  0  0  0
   12.0984  -17.1919   25.7677 C   0  0  0  0  0  0  0  0  0  0  0  0
   12.5845  -18.1297   26.5886 N   0  0  0  0  0  0  0  0  0  0  0  0
   13.1689  -19.0900   25.8666 C   0  0  0  0  0  0  0  0  0  0  0  0
   13.0380  -18.7339   24.5840 N   0  0  0  0  0  0  0  0  0  0  0  0
    9.8917  -16.2209   24.3598 C   0  0  0  0  0  0  0  0  0  0  0  0
    9.6574  -16.9594   25.3240 O   0  0  0  0  0  0  0  0  0  0  0  0
    9.5208  -14.8591   24.4865 O   0  0  0  0  0  0  0  0  0  0  0  0
  2  3  1  0
  2  1  1  6
  3  4  1  0
  5  4  1  0
  6  5  2  0
  7  2  1  0
  8  7  2  0
  9  5  1  0
 11 13  1  0
 11 10  1  6
 12 11  1  0
 13 14  1  6
 14  7  1  0
 15 13  1  0
 15 16  2  0
 17 15  1  0
 18 17  1  0
 18 19  1  1
 20 19  1  0
 21 20  2  0
 22 21  1  0
 23 22  1  0
 23 24  2  0
 24 20  1  0
 25 18  1  0
 26 25  2  0
 27 25  1  0
M  END
$$$$
