EVH.pdb
     RDKit          3D

 27 27  0  0  1  0  0  0  0  0999 V2000
    9.9560  -17.3822   15.9821 N   0  0  0  0  0  0  0  0  0  0  0  0
    9.1055  -17.4856   17.0915 C   0  0  1  0  0  0  0  0  0  0  0  0
    8.9985  -18.8495   17.6596 C   0  0  0  0  0  0  0  0  0  0  0  0
    8.8043  -19.9209   16.6687 C   0  0  0  0  0  0  0  0  0  0  0  0
    8.6003  -21.2460   17.2654 C   0  0  0  0  0  0  0  0  0  0  0  0
    8.9701  -22.2997   16.6981 O   0  0  0  0  0  0  0  0  0  0  0  0
    9.4152  -16.5378   18.2207 C   0  0  0  0  0  0  0  0  0  0  0  0
   10.6274  -16.4314   18.5879 O   0  0  0  0  0  0  0  0  0  0  0  0
    7.9629  -21.3621   18.5297 O   0  0  0  0  0  0  0  0  0  0  0  0
    8.1776  -12.7718   21.2619 C   0  0  0  0  0  0  0  0  0  0  0  0
    7.7883  -13.8196   20.2546 C   0  0  2  0  0  0  0  0  0  0  0  0
    6.4369  -14.4381   20.5814 C   0  0  0  0  0  0  0  0  0  0  0  0
    8.8283  -14.8543   19.9945 C   0  0  2  0  0  0  0  0  0  0  0  0
    8.4729  -15.7576   18.9064 N   0  0  0  0  0  0  0  0  0  0  0  0
    9.0991  -15.6681   21.2277 C   0  0  0  0  0  0  0  0  0  0  0  0
    8.4242  -16.7125   21.4225 O   0  0  0  0  0  0  0  0  0  0  0  0
   10.0914  -15.2784   22.1598 N   0  0  0  0  0  0  0  0  0  0  0  0
   10.4954  -16.1289   23.2849 C   0  0  1  0  0  0  0  0  0  0  0  0
   11.7008  -15.6049   23.9622 C   0  0  0  0  0  0  0  0  0  0  0  0
   12.9222  -15.8353   23.1550 C   0  0  0  0  0  0  0  0  0  0  0  0
   12.9617  -16.6498   22.0156 C   0  0  0  0  0  0  0  0  0  0  0  0
   14.2096  -16.6348   21.5340 N   0  0  0  0  0  0  0  0  0  0  0  0
   14.9718  -15.8537   22.3046 C   0  0  0  0  0  0  0  0  0  0  0  0
   14.1775  -15.3836   23.2726 N   0  0  0  0  0  0  0  0  0  0  0  0
    9.3337  -16.1519   24.2161 C   0  0  0  0  0  0  0  0  0  0  0  0
    8.5360  -15.2121   24.3175 O   0  0  0  0  0  0  0  0  0  0  0  0
    9.1035  -17.2835   25.0375 O   0  0  0  0  0  0  0  0  0  0  0  0
  2  3  1  0
  2  1  1  6
  3  4  1  0
  5  4  1  0
  6  5  2  0
  7  2  1  0
  8  7  2  0
  9  5  1  0
 11 13  1  0
 11 10  1  1
 12 11  1  0
 13 14  1  6
 14  7  1  0
 15 13  1  0
 15 16  2  0
 17 15  1  0
 18 17  1  0
 18 19  1  1
 20 19  1  0
 21 20  2  0
 22 21  1  0
 23 22  1  0
 23 24  2  0
 24 20  1  0
 25 18  1  0
 26 25  2  0
 27 25  1  0
M  END
$$$$
