EVH.pdb
     RDKit          3D

 27 27  0  0  1  0  0  0  0  0999 V2000
    8.1702  -18.4042   17.4078 N   0  0  0  0  0  0  0  0  0  0  0  0
    7.3486  -17.8623   18.4057 C   0  0  1  0  0  0  0  0  0  0  0  0
    6.7045  -18.8660   19.2845 C   0  0  0  0  0  0  0  0  0  0  0  0
    7.6338  -19.6566   20.1085 C   0  0  0  0  0  0  0  0  0  0  0  0
    6.9691  -20.6566   20.9521 C   0  0  0  0  0  0  0  0  0  0  0  0
    6.4046  -21.6672   20.4738 O   0  0  0  0  0  0  0  0  0  0  0  0
    8.0106  -16.8346   19.2859 C   0  0  0  0  0  0  0  0  0  0  0  0
    9.2089  -17.0517   19.6502 O   0  0  0  0  0  0  0  0  0  0  0  0
    6.9524  -20.4933   22.3632 O   0  0  0  0  0  0  0  0  0  0  0  0
    7.1949  -12.7440   19.3322 C   0  0  0  0  0  0  0  0  0  0  0  0
    7.4244  -13.3777   20.6775 C   0  0  2  0  0  0  0  0  0  0  0  0
    8.1263  -12.4252   21.6345 C   0  0  0  0  0  0  0  0  0  0  0  0
    8.0828  -14.7136   20.6355 C   0  0  2  0  0  0  0  0  0  0  0  0
    7.4127  -15.6505   19.7413 N   0  0  0  0  0  0  0  0  0  0  0  0
    8.1537  -15.3228   22.0068 C   0  0  0  0  0  0  0  0  0  0  0  0
    7.0872  -15.4674   22.6594 O   0  0  0  0  0  0  0  0  0  0  0  0
    9.3897  -15.7303   22.5647 N   0  0  0  0  0  0  0  0  0  0  0  0
    9.4980  -16.3017   23.9116 C   0  0  1  0  0  0  0  0  0  0  0  0
    9.4942  -17.7800   23.8813 C   0  0  0  0  0  0  0  0  0  0  0  0
    8.1238  -18.3175   23.7092 C   0  0  0  0  0  0  0  0  0  0  0  0
    6.9695  -17.5230   23.7045 C   0  0  0  0  0  0  0  0  0  0  0  0
    5.9121  -18.3230   23.5271 N   0  0  0  0  0  0  0  0  0  0  0  0
    6.3278  -19.5879   23.4178 C   0  0  0  0  0  0  0  0  0  0  0  0
    7.6603  -19.5611   23.5301 N   0  0  0  0  0  0  0  0  0  0  0  0
   10.7787  -15.7877   24.4708 C   0  0  0  0  0  0  0  0  0  0  0  0
   11.1083  -15.9492   25.6519 O   0  0  0  0  0  0  0  0  0  0  0  0
   11.6818  -15.0769   23.6416 O   0  0  0  0  0  0  0  0  0  0  0  0
  2  3  1  0
  2  1  1  6
  3  4  1  0
  5  4  1  0
  6  5  2  0
  7  2  1  0
  8  7  2  0
  9  5  1  0
 11 13  1  0
 11 10  1  6
 12 11  1  0
 13 14  1  6
 14  7  1  0
 15 13  1  0
 15 16  2  0
 17 15  1  0
 18 17  1  0
 18 19  1  6
 20 19  1  0
 21 20  2  0
 22 21  1  0
 23 22  1  0
 23 24  2  0
 24 20  1  0
 25 18  1  0
 26 25  2  0
 27 25  1  0
M  END
$$$$
