EVH.pdb
     RDKit          3D

 27 27  0  0  1  0  0  0  0  0999 V2000
    8.9315  -17.3689   16.7032 N   0  0  0  0  0  0  0  0  0  0  0  0
    8.5033  -17.6852   17.9998 C   0  0  1  0  0  0  0  0  0  0  0  0
    8.7867  -19.0776   18.4187 C   0  0  0  0  0  0  0  0  0  0  0  0
    8.0201  -20.1096   17.7009 C   0  0  0  0  0  0  0  0  0  0  0  0
    8.2777  -21.4734   18.1775 C   0  0  0  0  0  0  0  0  0  0  0  0
    7.5772  -22.0168   19.0623 O   0  0  0  0  0  0  0  0  0  0  0  0
    9.0113  -16.7656   19.0794 C   0  0  0  0  0  0  0  0  0  0  0  0
   10.2415  -16.8411   19.3900 O   0  0  0  0  0  0  0  0  0  0  0  0
    9.3540  -22.2224   17.6309 O   0  0  0  0  0  0  0  0  0  0  0  0
    6.5948  -13.9596   21.5732 C   0  0  0  0  0  0  0  0  0  0  0  0
    7.9684  -13.7171   21.0087 C   0  0  2  0  0  0  0  0  0  0  0  0
    7.9173  -12.8475   19.7611 C   0  0  0  0  0  0  0  0  0  0  0  0
    8.7849  -14.9458   20.8005 C   0  0  2  0  0  0  0  0  0  0  0  0
    8.2365  -15.8269   19.7761 N   0  0  0  0  0  0  0  0  0  0  0  0
    8.9260  -15.7221   22.0788 C   0  0  0  0  0  0  0  0  0  0  0  0
    7.9715  -16.4540   22.4496 O   0  0  0  0  0  0  0  0  0  0  0  0
   10.1045  -15.6405   22.8596 N   0  0  0  0  0  0  0  0  0  0  0  0
   10.2387  -16.3084   24.1590 C   0  0  1  0  0  0  0  0  0  0  0  0
   11.6077  -16.8256   24.3701 C   0  0  0  0  0  0  0  0  0  0  0  0
   11.8783  -18.0116   23.5236 C   0  0  0  0  0  0  0  0  0  0  0  0
   10.9044  -18.6542   22.7477 C   0  0  0  0  0  0  0  0  0  0  0  0
   11.4848  -19.6788   22.1129 N   0  0  0  0  0  0  0  0  0  0  0  0
   12.7790  -19.7266   22.4412 C   0  0  0  0  0  0  0  0  0  0  0  0
   12.9935  -18.7154   23.2899 N   0  0  0  0  0  0  0  0  0  0  0  0
    9.8976  -15.2818   25.1822 C   0  0  0  0  0  0  0  0  0  0  0  0
    9.7018  -14.0933   24.9012 O   0  0  0  0  0  0  0  0  0  0  0  0
    9.7861  -15.6478   26.5467 O   0  0  0  0  0  0  0  0  0  0  0  0
  2  3  1  0
  2  1  1  6
  3  4  1  0
  5  4  1  0
  6  5  2  0
  7  2  1  0
  8  7  2  0
  9  5  1  0
 11 13  1  0
 11 10  1  6
 12 11  1  0
 13 14  1  6
 14  7  1  0
 15 13  1  0
 15 16  2  0
 17 15  1  0
 18 17  1  0
 18 19  1  1
 20 19  1  0
 21 20  2  0
 22 21  1  0
 23 22  1  0
 23 24  2  0
 24 20  1  0
 25 18  1  0
 26 25  2  0
 27 25  1  0
M  END
$$$$
