EVH.pdb
     RDKit          3D

 27 27  0  0  1  0  0  0  0  0999 V2000
    9.9015  -16.3977   18.5705 N   0  0  0  0  0  0  0  0  0  0  0  0
    9.2688  -16.9723   19.6813 C   0  0  1  0  0  0  0  0  0  0  0  0
    9.4679  -18.4342   19.8146 C   0  0  0  0  0  0  0  0  0  0  0  0
    9.0862  -19.2228   18.6314 C   0  0  0  0  0  0  0  0  0  0  0  0
    9.2325  -20.6713   18.8160 C   0  0  0  0  0  0  0  0  0  0  0  0
   10.2722  -21.2866   18.4854 O   0  0  0  0  0  0  0  0  0  0  0  0
    9.6070  -16.3375   21.0049 C   0  0  0  0  0  0  0  0  0  0  0  0
   10.8358  -16.2254   21.3101 O   0  0  0  0  0  0  0  0  0  0  0  0
    8.1707  -21.4226   19.3873 O   0  0  0  0  0  0  0  0  0  0  0  0
    8.4011  -13.6554   25.0425 C   0  0  0  0  0  0  0  0  0  0  0  0
    8.0284  -14.3285   23.7494 C   0  0  2  0  0  0  0  0  0  0  0  0
    6.6550  -14.9787   23.8302 C   0  0  0  0  0  0  0  0  0  0  0  0
    9.0576  -15.2615   23.2107 C   0  0  2  0  0  0  0  0  0  0  0  0
    8.6747  -15.8566   21.9357 N   0  0  0  0  0  0  0  0  0  0  0  0
    9.3506  -16.3636   24.1885 C   0  0  0  0  0  0  0  0  0  0  0  0
    8.5430  -17.3252   24.2745 O   0  0  0  0  0  0  0  0  0  0  0  0
   10.5089  -16.3326   25.0024 N   0  0  0  0  0  0  0  0  0  0  0  0
   10.8005  -17.3676   26.0005 C   0  0  1  0  0  0  0  0  0  0  0  0
   12.2387  -17.4098   26.3415 C   0  0  0  0  0  0  0  0  0  0  0  0
   13.0271  -18.0970   25.2915 C   0  0  0  0  0  0  0  0  0  0  0  0
   12.5309  -18.3996   24.0164 C   0  0  0  0  0  0  0  0  0  0  0  0
   13.4984  -19.0141   23.3264 N   0  0  0  0  0  0  0  0  0  0  0  0
   14.5881  -19.1212   24.0919 C   0  0  0  0  0  0  0  0  0  0  0  0
   14.2823  -18.5633   25.2685 N   0  0  0  0  0  0  0  0  0  0  0  0
    9.9835  -17.0221   27.1965 C   0  0  0  0  0  0  0  0  0  0  0  0
    9.4774  -15.9061   27.3641 O   0  0  0  0  0  0  0  0  0  0  0  0
    9.7577  -17.9900   28.2067 O   0  0  0  0  0  0  0  0  0  0  0  0
  2  3  1  0
  2  1  1  6
  3  4  1  0
  5  4  1  0
  6  5  2  0
  7  2  1  0
  8  7  2  0
  9  5  1  0
 11 13  1  0
 11 10  1  1
 12 11  1  0
 13 14  1  6
 14  7  1  0
 15 13  1  0
 15 16  2  0
 17 15  1  0
 18 17  1  0
 18 19  1  1
 20 19  1  0
 21 20  2  0
 22 21  1  0
 23 22  1  0
 23 24  2  0
 24 20  1  0
 25 18  1  0
 26 25  2  0
 27 25  1  0
M  END
$$$$
