EVH.pdb
     RDKit          3D

 27 27  0  0  1  0  0  0  0  0999 V2000
    8.5702  -17.0486   16.2415 N   0  0  0  0  0  0  0  0  0  0  0  0
    8.3365  -17.4866   17.5523 C   0  0  1  0  0  0  0  0  0  0  0  0
    8.7416  -18.8872   17.8143 C   0  0  0  0  0  0  0  0  0  0  0  0
    7.7022  -19.8945   17.5447 C   0  0  0  0  0  0  0  0  0  0  0  0
    8.2181  -21.1251   16.9338 C   0  0  0  0  0  0  0  0  0  0  0  0
    9.0824  -21.8385   17.4930 O   0  0  0  0  0  0  0  0  0  0  0  0
    8.9395  -16.6222   18.6287 C   0  0  0  0  0  0  0  0  0  0  0  0
   10.1978  -16.4435   18.6078 O   0  0  0  0  0  0  0  0  0  0  0  0
    7.7351  -21.5410   15.6642 O   0  0  0  0  0  0  0  0  0  0  0  0
    6.7123  -14.2749   21.6869 C   0  0  0  0  0  0  0  0  0  0  0  0
    7.9944  -13.9323   20.9779 C   0  0  2  0  0  0  0  0  0  0  0  0
    7.7487  -13.0287   19.7785 C   0  0  0  0  0  0  0  0  0  0  0  0
    8.8489  -15.1024   20.6304 C   0  0  2  0  0  0  0  0  0  0  0  0
    8.2256  -15.9940   19.6594 N   0  0  0  0  0  0  0  0  0  0  0  0
    9.2011  -15.8955   21.8565 C   0  0  0  0  0  0  0  0  0  0  0  0
    8.4546  -16.8516   22.1926 O   0  0  0  0  0  0  0  0  0  0  0  0
   10.3476  -15.5835   22.6269 N   0  0  0  0  0  0  0  0  0  0  0  0
   10.7304  -16.3490   23.8186 C   0  0  1  0  0  0  0  0  0  0  0  0
   12.1951  -16.3509   24.0210 C   0  0  0  0  0  0  0  0  0  0  0  0
   12.8825  -17.1954   23.0156 C   0  0  0  0  0  0  0  0  0  0  0  0
   12.2901  -18.2998   22.3889 C   0  0  0  0  0  0  0  0  0  0  0  0
   13.1821  -18.8292   21.5441 N   0  0  0  0  0  0  0  0  0  0  0  0
   14.3146  -18.1224   21.5965 C   0  0  0  0  0  0  0  0  0  0  0  0
   14.1120  -17.1454   22.4872 N   0  0  0  0  0  0  0  0  0  0  0  0
   10.0393  -15.6937   24.9632 C   0  0  0  0  0  0  0  0  0  0  0  0
    9.4405  -14.6166   24.8583 O   0  0  0  0  0  0  0  0  0  0  0  0
   10.0498  -16.3027   26.2428 O   0  0  0  0  0  0  0  0  0  0  0  0
  2  3  1  0
  2  1  1  6
  3  4  1  0
  5  4  1  0
  6  5  2  0
  7  2  1  0
  8  7  2  0
  9  5  1  0
 11 13  1  0
 11 10  1  6
 12 11  1  0
 13 14  1  6
 14  7  1  0
 15 13  1  0
 15 16  2  0
 17 15  1  0
 18 17  1  0
 18 19  1  1
 20 19  1  0
 21 20  2  0
 22 21  1  0
 23 22  1  0
 23 24  2  0
 24 20  1  0
 25 18  1  0
 26 25  2  0
 27 25  1  0
M  END
$$$$
