EVH.pdb
     RDKit          3D

 27 27  0  0  1  0  0  0  0  0999 V2000
   11.3951  -22.3066   22.5701 N   0  0  0  0  0  0  0  0  0  0  0  0
   11.4699  -21.2242   23.4575 C   0  0  1  0  0  0  0  0  0  0  0  0
   12.6091  -20.3085   23.2162 C   0  0  0  0  0  0  0  0  0  0  0  0
   13.1819  -20.3745   21.8615 C   0  0  0  0  0  0  0  0  0  0  0  0
   14.3046  -19.4533   21.6506 C   0  0  0  0  0  0  0  0  0  0  0  0
   14.8878  -19.3504   20.5468 O   0  0  0  0  0  0  0  0  0  0  0  0
   10.2187  -20.3904   23.5506 C   0  0  0  0  0  0  0  0  0  0  0  0
    9.4472  -20.3670   22.5407 O   0  0  0  0  0  0  0  0  0  0  0  0
   14.7635  -18.6403   22.7214 O   0  0  0  0  0  0  0  0  0  0  0  0
    7.8286  -20.1454   26.8524 C   0  0  0  0  0  0  0  0  0  0  0  0
    8.0416  -18.8325   26.1490 C   0  0  2  0  0  0  0  0  0  0  0  0
    6.8124  -17.9403   26.2409 C   0  0  0  0  0  0  0  0  0  0  0  0
    8.5465  -18.9462   24.7518 C   0  0  2  0  0  0  0  0  0  0  0  0
    9.8303  -19.6321   24.6646 N   0  0  0  0  0  0  0  0  0  0  0  0
    8.6792  -17.5921   24.1149 C   0  0  0  0  0  0  0  0  0  0  0  0
    9.6127  -16.8365   24.4912 O   0  0  0  0  0  0  0  0  0  0  0  0
    7.7782  -17.1634   23.1102 N   0  0  0  0  0  0  0  0  0  0  0  0
    7.9310  -15.8856   22.4056 C   0  0  1  0  0  0  0  0  0  0  0  0
    7.0340  -15.7958   21.2335 C   0  0  0  0  0  0  0  0  0  0  0  0
    7.1875  -14.5013   20.5284 C   0  0  0  0  0  0  0  0  0  0  0  0
    8.1022  -13.5102   20.9084 C   0  0  0  0  0  0  0  0  0  0  0  0
    7.9788  -12.4811   20.0626 N   0  0  0  0  0  0  0  0  0  0  0  0
    7.0335  -12.7605   19.1609 C   0  0  0  0  0  0  0  0  0  0  0  0
    6.5715  -13.9796   19.4598 N   0  0  0  0  0  0  0  0  0  0  0  0
    7.6054  -14.8288   23.4027 C   0  0  0  0  0  0  0  0  0  0  0  0
    6.6514  -14.9152   24.1851 O   0  0  0  0  0  0  0  0  0  0  0  0
    8.4017  -13.6594   23.4847 O   0  0  0  0  0  0  0  0  0  0  0  0
  2  3  1  0
  2  1  1  6
  3  4  1  0
  5  4  1  0
  6  5  2  0
  7  2  1  0
  8  7  2  0
  9  5  1  0
 11 13  1  0
 11 10  1  6
 12 11  1  0
 13 14  1  1
 14  7  1  0
 15 13  1  0
 15 16  2  0
 17 15  1  0
 18 17  1  0
 18 19  1  6
 20 19  1  0
 21 20  2  0
 22 21  1  0
 23 22  1  0
 23 24  2  0
 24 20  1  0
 25 18  1  0
 26 25  2  0
 27 25  1  0
M  END
$$$$
