EVH.pdb
     RDKit          3D

 27 27  0  0  1  0  0  0  0  0999 V2000
   10.4076  -17.1782   16.0457 N   0  0  0  0  0  0  0  0  0  0  0  0
    9.3323  -17.1793   16.9448 C   0  0  1  0  0  0  0  0  0  0  0  0
    8.8916  -18.5265   17.3752 C   0  0  0  0  0  0  0  0  0  0  0  0
    8.4791  -19.4229   16.2825 C   0  0  0  0  0  0  0  0  0  0  0  0
    8.0002  -20.7316   16.7424 C   0  0  0  0  0  0  0  0  0  0  0  0
    8.5483  -21.8038   16.3979 O   0  0  0  0  0  0  0  0  0  0  0  0
    9.5362  -16.3431   18.1811 C   0  0  0  0  0  0  0  0  0  0  0  0
   10.7088  -16.2836   18.6680 O   0  0  0  0  0  0  0  0  0  0  0  0
    6.8770  -20.8094   17.6087 O   0  0  0  0  0  0  0  0  0  0  0  0
    7.5186  -12.8032   19.2227 C   0  0  0  0  0  0  0  0  0  0  0  0
    7.7183  -13.8232   20.3107 C   0  0  2  0  0  0  0  0  0  0  0  0
    7.8820  -13.1659   21.6734 C   0  0  0  0  0  0  0  0  0  0  0  0
    8.7883  -14.8242   20.0409 C   0  0  2  0  0  0  0  0  0  0  0  0
    8.5349  -15.6200   18.8455 N   0  0  0  0  0  0  0  0  0  0  0  0
    8.9653  -15.7520   21.2090 C   0  0  0  0  0  0  0  0  0  0  0  0
    8.0921  -16.6342   21.4175 O   0  0  0  0  0  0  0  0  0  0  0  0
   10.0879  -15.6461   22.0656 N   0  0  0  0  0  0  0  0  0  0  0  0
   10.3249  -16.5760   23.1753 C   0  0  1  0  0  0  0  0  0  0  0  0
   11.6986  -17.1224   23.1481 C   0  0  0  0  0  0  0  0  0  0  0  0
   11.8763  -18.0938   22.0430 C   0  0  0  0  0  0  0  0  0  0  0  0
   11.1469  -19.2846   21.9267 C   0  0  0  0  0  0  0  0  0  0  0  0
   11.5548  -19.9183   20.8215 N   0  0  0  0  0  0  0  0  0  0  0  0
   12.5068  -19.1966   20.2235 C   0  0  0  0  0  0  0  0  0  0  0  0
   12.6839  -18.1043   20.9747 N   0  0  0  0  0  0  0  0  0  0  0  0
   10.0921  -15.7928   24.4201 C   0  0  0  0  0  0  0  0  0  0  0  0
    9.8684  -14.5763   24.4158 O   0  0  0  0  0  0  0  0  0  0  0  0
   10.1226  -16.4375   25.6817 O   0  0  0  0  0  0  0  0  0  0  0  0
  2  3  1  0
  2  1  1  1
  3  4  1  0
  5  4  1  0
  6  5  2  0
  7  2  1  0
  8  7  2  0
  9  5  1  0
 11 13  1  0
 11 10  1  6
 12 11  1  0
 13 14  1  6
 14  7  1  0
 15 13  1  0
 15 16  2  0
 17 15  1  0
 18 17  1  0
 18 19  1  1
 20 19  1  0
 21 20  2  0
 22 21  1  0
 23 22  1  0
 23 24  2  0
 24 20  1  0
 25 18  1  0
 26 25  2  0
 27 25  1  0
M  END
$$$$
