MGG.pdb
     RDKit          3D

 17 16  0  0  1  0  0  0  0  0999 V2000
   28.3198  -18.9493   -3.8146 C   0  0  0  0  0  0  0  0  0  0  0  0
   28.4579  -19.2961   -5.5924 S   0  0  0  0  0  0  0  0  0  0  0  0
   27.0119  -20.2322   -6.1506 C   0  0  0  0  0  0  0  0  0  0  0  0
   27.1649  -20.5806   -7.6035 C   0  0  0  0  0  0  0  0  0  0  0  0
   25.9137  -20.2782   -8.3990 C   0  0  2  0  0  0  0  0  0  0  0  0
   24.7868  -21.0564   -7.9640 N   0  0  0  0  0  0  0  0  0  0  0  0
   26.1312  -20.4670   -9.8539 C   0  0  0  0  0  0  0  0  0  0  0  0
   26.9948  -19.7255  -10.4116 O   0  0  0  0  0  0  0  0  0  0  0  0
   25.4145  -21.4304  -10.6094 N   0  0  0  0  0  0  0  0  0  0  0  0
   25.4448  -21.3237  -12.0371 C   0  0  0  0  0  0  0  0  0  0  0  0
   24.2260  -20.7799  -12.6497 C   0  0  0  0  0  0  0  0  0  0  0  0
   24.1529  -20.8442  -13.9247 O   0  0  0  0  0  0  0  0  0  0  0  0
   23.1397  -20.2002  -11.9819 N   0  0  0  0  0  0  0  0  0  0  0  0
   21.9271  -19.7623  -12.6624 C   0  0  0  0  0  0  0  0  0  0  0  0
   21.0406  -20.9371  -12.8175 C   0  0  0  0  0  0  0  0  0  0  0  0
   21.2313  -21.7235  -13.7698 O   0  0  0  0  0  0  0  0  0  0  0  0
   19.9970  -21.1742  -11.9130 O   0  0  0  0  0  0  0  0  0  0  0  0
  1  2  1  0
  2  3  1  0
  4  3  1  0
  5  4  1  0
  5  6  1  1
  7  9  1  0
  7  5  1  0
  8  7  2  0
 10 11  1  0
 10  9  1  0
 11 13  1  0
 12 11  2  0
 13 14  1  0
 14 15  1  0
 15 16  2  0
 15 17  1  0
M  END
$$$$
