MGG.pdb
     RDKit          3D

 17 16  0  0  1  0  0  0  0  0999 V2000
   23.0247  -24.8154  -13.9116 C   0  0  0  0  0  0  0  0  0  0  0  0
   22.6813  -24.3020  -15.6200 S   0  0  0  0  0  0  0  0  0  0  0  0
   23.9547  -23.1436  -16.1818 C   0  0  0  0  0  0  0  0  0  0  0  0
   24.2727  -22.1698  -15.0834 C   0  0  0  0  0  0  0  0  0  0  0  0
   25.6164  -22.4467  -14.4451 C   0  0  2  0  0  0  0  0  0  0  0  0
   25.7867  -23.8327  -14.1066 N   0  0  0  0  0  0  0  0  0  0  0  0
   25.8385  -21.5997  -13.2480 C   0  0  0  0  0  0  0  0  0  0  0  0
   25.7696  -20.3439  -13.4060 O   0  0  0  0  0  0  0  0  0  0  0  0
   26.1175  -22.1499  -11.9705 N   0  0  0  0  0  0  0  0  0  0  0  0
   26.1492  -21.2614  -10.8479 C   0  0  0  0  0  0  0  0  0  0  0  0
   24.8649  -20.6342  -10.5101 C   0  0  0  0  0  0  0  0  0  0  0  0
   24.9113  -19.4168  -10.1220 O   0  0  0  0  0  0  0  0  0  0  0  0
   23.5996  -21.2319  -10.5697 N   0  0  0  0  0  0  0  0  0  0  0  0
   22.3621  -20.5062  -10.3101 C   0  0  0  0  0  0  0  0  0  0  0  0
   21.7205  -20.2167  -11.6120 C   0  0  0  0  0  0  0  0  0  0  0  0
   22.3503  -20.4464  -12.6666 O   0  0  0  0  0  0  0  0  0  0  0  0
   20.4229  -19.6914  -11.6724 O   0  0  0  0  0  0  0  0  0  0  0  0
  1  2  1  0
  2  3  1  0
  4  3  1  0
  5  4  1  0
  5  6  1  1
  7  9  1  0
  7  5  1  0
  8  7  2  0
 10 11  1  0
 10  9  1  0
 11 13  1  0
 12 11  2  0
 13 14  1  0
 14 15  1  0
 15 16  2  0
 15 17  1  0
M  END
$$$$
