MGG.pdb
     RDKit          3D

 17 16  0  0  1  0  0  0  0  0999 V2000
   24.1605  -16.3320  -18.3860 C   0  0  0  0  0  0  0  0  0  0  0  0
   23.6794  -17.9254  -19.1139 S   0  0  0  0  0  0  0  0  0  0  0  0
   23.5972  -19.1918  -17.8223 C   0  0  0  0  0  0  0  0  0  0  0  0
   24.5389  -18.8385  -16.7068 C   0  0  0  0  0  0  0  0  0  0  0  0
   24.4819  -19.8380  -15.5722 C   0  0  2  0  0  0  0  0  0  0  0  0
   23.2072  -19.8418  -14.9092 N   0  0  0  0  0  0  0  0  0  0  0  0
   25.5670  -19.6101  -14.5871 C   0  0  0  0  0  0  0  0  0  0  0  0
   25.4390  -18.6229  -13.8023 O   0  0  0  0  0  0  0  0  0  0  0  0
   26.7087  -20.4484  -14.5085 N   0  0  0  0  0  0  0  0  0  0  0  0
   27.6518  -20.2037  -13.4589 C   0  0  0  0  0  0  0  0  0  0  0  0
   27.1883  -20.5480  -12.1086 C   0  0  0  0  0  0  0  0  0  0  0  0
   27.7786  -21.5280  -11.5374 O   0  0  0  0  0  0  0  0  0  0  0  0
   26.1694  -19.9145  -11.3859 N   0  0  0  0  0  0  0  0  0  0  0  0
   25.7727  -20.3216  -10.0434 C   0  0  0  0  0  0  0  0  0  0  0  0
   24.3498  -20.7259  -10.0903 C   0  0  0  0  0  0  0  0  0  0  0  0
   23.7603  -20.7556  -11.1918 O   0  0  0  0  0  0  0  0  0  0  0  0
   23.6626  -21.0734   -8.9197 O   0  0  0  0  0  0  0  0  0  0  0  0
  1  2  1  0
  2  3  1  0
  4  3  1  0
  5  4  1  0
  5  6  1  1
  7  9  1  0
  7  5  1  0
  8  7  2  0
 10 11  1  0
 10  9  1  0
 11 13  1  0
 12 11  2  0
 13 14  1  0
 14 15  1  0
 15 16  2  0
 15 17  1  0
M  END
$$$$
