MGG.pdb
     RDKit          3D

 17 16  0  0  1  0  0  0  0  0999 V2000
   20.8149  -16.4247  -15.0306 C   0  0  0  0  0  0  0  0  0  0  0  0
   19.7294  -15.0087  -14.6893 S   0  0  0  0  0  0  0  0  0  0  0  0
   19.9601  -13.7370  -15.9575 C   0  0  0  0  0  0  0  0  0  0  0  0
   19.1323  -12.5301  -15.6201 C   0  0  0  0  0  0  0  0  0  0  0  0
   19.2886  -11.4254  -16.6422 C   0  0  2  0  0  0  0  0  0  0  0  0
   20.6621  -11.1994  -16.9986 N   0  0  0  0  0  0  0  0  0  0  0  0
   18.6684  -10.1600  -16.1797 C   0  0  0  0  0  0  0  0  0  0  0  0
   17.4698  -10.2178  -15.7712 O   0  0  0  0  0  0  0  0  0  0  0  0
   19.3678   -8.9258  -16.1855 N   0  0  0  0  0  0  0  0  0  0  0  0
   18.7200   -7.7830  -15.6152 C   0  0  0  0  0  0  0  0  0  0  0  0
   19.5398   -7.0007  -14.6811 C   0  0  0  0  0  0  0  0  0  0  0  0
   19.8965   -7.5919  -13.6049 O   0  0  0  0  0  0  0  0  0  0  0  0
   19.9688   -5.6779  -14.8487 N   0  0  0  0  0  0  0  0  0  0  0  0
   20.7076   -4.9441  -13.8284 C   0  0  0  0  0  0  0  0  0  0  0  0
   22.1421   -5.2774  -13.9746 C   0  0  0  0  0  0  0  0  0  0  0  0
   22.9842   -4.6635  -13.2850 O   0  0  0  0  0  0  0  0  0  0  0  0
   22.5617   -6.2677  -14.8727 O   0  0  0  0  0  0  0  0  0  0  0  0
  1  2  1  0
  2  3  1  0
  4  3  1  0
  5  4  1  0
  5  6  1  1
  7  9  1  0
  7  5  1  0
  8  7  2  0
 10 11  1  0
 10  9  1  0
 11 13  1  0
 12 11  2  0
 13 14  1  0
 14 15  1  0
 15 16  2  0
 15 17  1  0
M  END
$$$$
