MGG.pdb
     RDKit          3D

 17 16  0  0  1  0  0  0  0  0999 V2000
   29.2493  -20.9831   -4.8963 C   0  0  0  0  0  0  0  0  0  0  0  0
   28.8098  -19.2354   -5.1251 S   0  0  0  0  0  0  0  0  0  0  0  0
   27.3884  -19.0993   -6.2387 C   0  0  0  0  0  0  0  0  0  0  0  0
   27.4539  -20.1825   -7.2771 C   0  0  0  0  0  0  0  0  0  0  0  0
   26.3539  -20.0535   -8.3082 C   0  0  2  0  0  0  0  0  0  0  0  0
   25.0444  -20.0712   -7.7170 N   0  0  0  0  0  0  0  0  0  0  0  0
   26.4555  -21.1033   -9.3510 C   0  0  0  0  0  0  0  0  0  0  0  0
   25.4693  -21.8892   -9.4797 O   0  0  0  0  0  0  0  0  0  0  0  0
   27.5980  -21.2406  -10.1806 N   0  0  0  0  0  0  0  0  0  0  0  0
   27.6073  -20.5459  -11.4328 C   0  0  0  0  0  0  0  0  0  0  0  0
   26.6067  -20.9996  -12.4073 C   0  0  0  0  0  0  0  0  0  0  0  0
   26.7941  -20.6455  -13.6216 O   0  0  0  0  0  0  0  0  0  0  0  0
   25.4726  -21.7778  -12.1428 N   0  0  0  0  0  0  0  0  0  0  0  0
   24.5127  -22.1631  -13.1702 C   0  0  0  0  0  0  0  0  0  0  0  0
   23.4592  -21.1251  -13.2234 C   0  0  0  0  0  0  0  0  0  0  0  0
   23.0206  -20.7577  -14.3344 O   0  0  0  0  0  0  0  0  0  0  0  0
   22.9526  -20.5546  -12.0481 O   0  0  0  0  0  0  0  0  0  0  0  0
  1  2  1  0
  2  3  1  0
  4  3  1  0
  5  4  1  0
  5  6  1  1
  7  9  1  0
  7  5  1  0
  8  7  2  0
 10 11  1  0
 10  9  1  0
 11 13  1  0
 12 11  2  0
 13 14  1  0
 14 15  1  0
 15 16  2  0
 15 17  1  0
M  END
$$$$
