MGG.pdb
     RDKit          3D

 17 16  0  0  1  0  0  0  0  0999 V2000
   18.4815  -25.9462   -9.9508 C   0  0  0  0  0  0  0  0  0  0  0  0
   18.9668  -24.5356   -8.9142 S   0  0  0  0  0  0  0  0  0  0  0  0
   18.8108  -22.9973   -9.8567 C   0  0  0  0  0  0  0  0  0  0  0  0
   19.4143  -23.1761  -11.2203 C   0  0  0  0  0  0  0  0  0  0  0  0
   20.1233  -21.9285  -11.7001 C   0  0  2  0  0  0  0  0  0  0  0  0
   19.2889  -20.7611  -11.6246 N   0  0  0  0  0  0  0  0  0  0  0  0
   20.6461  -22.0918  -13.0784 C   0  0  0  0  0  0  0  0  0  0  0  0
   20.0679  -22.9416  -13.8204 O   0  0  0  0  0  0  0  0  0  0  0  0
   21.7453  -21.3398  -13.5670 N   0  0  0  0  0  0  0  0  0  0  0  0
   21.6349  -20.7564  -14.8702 C   0  0  0  0  0  0  0  0  0  0  0  0
   22.0903  -19.3641  -14.9729 C   0  0  0  0  0  0  0  0  0  0  0  0
   21.2828  -18.5408  -15.5253 O   0  0  0  0  0  0  0  0  0  0  0  0
   23.3146  -18.8484  -14.5290 N   0  0  0  0  0  0  0  0  0  0  0  0
   24.0547  -17.8198  -15.2498 C   0  0  0  0  0  0  0  0  0  0  0  0
   24.7644  -18.4704  -16.3738 C   0  0  0  0  0  0  0  0  0  0  0  0
   24.6881  -19.7106  -16.5069 O   0  0  0  0  0  0  0  0  0  0  0  0
   25.5155  -17.7142  -17.2834 O   0  0  0  0  0  0  0  0  0  0  0  0
  1  2  1  0
  2  3  1  0
  4  3  1  0
  5  4  1  0
  5  6  1  6
  7  9  1  0
  7  5  1  0
  8  7  2  0
 10 11  1  0
 10  9  1  0
 11 13  1  0
 12 11  2  0
 13 14  1  0
 14 15  1  0
 15 16  2  0
 15 17  1  0
M  END
$$$$
