FYQ.pdb
     RDKit          3D

 33 34  0  0  1  0  0  0  0  0999 V2000
    6.1680  -18.8549   23.1020 N   0  0  0  0  0  0  0  0  0  0  0  0
    6.3604  -17.6470   22.3485 C   0  0  1  0  0  0  0  0  0  0  0  0
    5.6966  -16.4518   22.9310 C   0  0  0  0  0  0  0  0  0  0  0  0
    6.4012  -15.8480   24.0731 C   0  0  0  0  0  0  0  0  0  0  0  0
    6.7051  -16.6843   25.1338 C   0  0  0  0  0  0  0  0  0  0  0  0
    7.3632  -16.2129   26.2502 C   0  0  0  0  0  0  0  0  0  0  0  0
    7.7422  -14.8760   26.3420 C   0  0  0  0  0  0  0  0  0  0  0  0
    7.4175  -14.0838   25.2612 C   0  0  0  0  0  0  0  0  0  0  0  0
    6.7655  -14.5281   24.1435 C   0  0  0  0  0  0  0  0  0  0  0  0
    7.8028  -17.3445   22.1314 C   0  0  0  0  0  0  0  0  0  0  0  0
    8.6878  -18.2291   22.2529 O   0  0  0  0  0  0  0  0  0  0  0  0
    7.0685  -13.4417   15.8910 O   0  0  0  0  0  0  0  0  0  0  0  0
    7.7299  -13.6776   17.1012 C   0  0  0  0  0  0  0  0  0  0  0  0
    7.6049  -12.8000   18.1573 C   0  0  0  0  0  0  0  0  0  0  0  0
    8.2643  -13.0344   19.3651 C   0  0  0  0  0  0  0  0  0  0  0  0
    9.0590  -14.1416   19.5487 C   0  0  0  0  0  0  0  0  0  0  0  0
    9.7542  -14.3845   20.8340 C   0  0  0  0  0  0  0  0  0  0  0  0
    9.6256  -15.7782   21.3481 C   0  0  2  0  0  0  0  0  0  0  0  0
    8.2482  -16.0400   21.7761 N   0  0  0  0  0  0  0  0  0  0  0  0
   10.5422  -16.1465   22.4318 C   0  0  0  0  0  0  0  0  0  0  0  0
   10.4489  -15.5709   23.5466 O   0  0  0  0  0  0  0  0  0  0  0  0
    9.1745  -15.0119   18.4814 C   0  0  0  0  0  0  0  0  0  0  0  0
    8.5266  -14.7882   17.2843 C   0  0  0  0  0  0  0  0  0  0  0  0
   10.6247  -21.4723   23.8803 N   0  0  0  0  0  0  0  0  0  0  0  0
   12.0511  -21.3168   23.7088 C   0  0  0  0  0  0  0  0  0  0  0  0
   12.6711  -22.3672   23.4853 O   0  0  0  0  0  0  0  0  0  0  0  0
   12.6888  -20.0126   23.7994 C   0  0  0  0  0  0  0  0  0  0  0  0
   11.8730  -18.8107   24.0133 C   0  0  0  0  0  0  0  0  0  0  0  0
   12.3509  -17.5275   23.4018 C   0  0  2  0  0  0  0  0  0  0  0  0
   11.5419  -17.1362   22.2815 N   0  0  0  0  0  0  0  0  0  0  0  0
   13.7952  -17.4540   23.2162 C   0  0  0  0  0  0  0  0  0  0  0  0
   14.2937  -17.1976   22.1027 O   0  0  0  0  0  0  0  0  0  0  0  0
   14.6410  -17.6652   24.2906 O   0  0  0  0  0  0  0  0  0  0  0  0
  2  1  1  1
  3  2  1  0
  4  5  2  0
  4  3  1  0
  6  5  1  0
  7  6  2  0
  8  7  1  0
  8  9  2  0
  9  4  1  0
 10  2  1  0
 11 10  2  0
 13 12  1  0
 13 14  2  0
 15 14  1  0
 16 15  2  0
 17 16  1  0
 18 17  1  1
 18 19  1  0
 19 10  1  0
 20 21  2  0
 20 18  1  0
 22 23  2  0
 22 16  1  0
 23 13  1  0
 25 24  1  0
 26 25  2  0
 27 25  1  0
 28 27  1  0
 29 28  1  6
 29 30  1  0
 30 20  1  0
 31 33  1  0
 31 29  1  0
 32 31  2  0
M  END
$$$$
