FYQ.pdb
     RDKit          3D

 33 34  0  0  1  0  0  0  0  0999 V2000
    8.6106  -17.3275   26.5666 N   0  0  0  0  0  0  0  0  0  0  0  0
    7.3736  -16.7735   26.0906 C   0  0  1  0  0  0  0  0  0  0  0  0
    6.9832  -15.4985   26.7467 C   0  0  0  0  0  0  0  0  0  0  0  0
    8.0752  -14.8035   27.4468 C   0  0  0  0  0  0  0  0  0  0  0  0
    9.2626  -15.4989   27.5998 C   0  0  0  0  0  0  0  0  0  0  0  0
   10.3442  -14.9341   28.2424 C   0  0  0  0  0  0  0  0  0  0  0  0
   10.2717  -13.6423   28.7577 C   0  0  0  0  0  0  0  0  0  0  0  0
    9.0691  -12.9914   28.5803 C   0  0  0  0  0  0  0  0  0  0  0  0
    7.9828  -13.5303   27.9469 C   0  0  0  0  0  0  0  0  0  0  0  0
    7.3768  -16.5791   24.6137 C   0  0  0  0  0  0  0  0  0  0  0  0
    6.3868  -16.0928   24.0104 O   0  0  0  0  0  0  0  0  0  0  0  0
    8.1941  -11.8388   17.8696 O   0  0  0  0  0  0  0  0  0  0  0  0
    8.2787  -12.5551   19.0684 C   0  0  0  0  0  0  0  0  0  0  0  0
    9.3322  -12.3584   19.9360 C   0  0  0  0  0  0  0  0  0  0  0  0
    9.4176  -13.0726   21.1323 C   0  0  0  0  0  0  0  0  0  0  0  0
    8.4619  -13.9939   21.4909 C   0  0  0  0  0  0  0  0  0  0  0  0
    8.5584  -14.7466   22.7631 C   0  0  0  0  0  0  0  0  0  0  0  0
    8.8521  -16.1989   22.5967 C   0  0  2  0  0  0  0  0  0  0  0  0
    8.5001  -16.9345   23.8149 N   0  0  0  0  0  0  0  0  0  0  0  0
   10.2284  -16.5329   22.2163 C   0  0  0  0  0  0  0  0  0  0  0  0
   10.5841  -17.7387   22.1680 O   0  0  0  0  0  0  0  0  0  0  0  0
    7.4122  -14.1801   20.6114 C   0  0  0  0  0  0  0  0  0  0  0  0
    7.3198  -13.4788   19.4271 C   0  0  0  0  0  0  0  0  0  0  0  0
   13.7905  -13.3186   17.9888 N   0  0  0  0  0  0  0  0  0  0  0  0
   14.4841  -14.5421   18.3209 C   0  0  0  0  0  0  0  0  0  0  0  0
   15.4738  -14.7928   17.6171 O   0  0  0  0  0  0  0  0  0  0  0  0
   14.0319  -15.4008   19.4045 C   0  0  0  0  0  0  0  0  0  0  0  0
   12.8240  -15.0508   20.1622 C   0  0  0  0  0  0  0  0  0  0  0  0
   12.4538  -15.9243   21.3236 C   0  0  2  0  0  0  0  0  0  0  0  0
   11.1907  -15.5473   21.8939 N   0  0  0  0  0  0  0  0  0  0  0  0
   13.5430  -16.1664   22.2621 C   0  0  0  0  0  0  0  0  0  0  0  0
   13.4611  -15.8146   23.4554 O   0  0  0  0  0  0  0  0  0  0  0  0
   14.6942  -16.8036   21.8343 O   0  0  0  0  0  0  0  0  0  0  0  0
  2  1  1  1
  3  2  1  0
  4  5  2  0
  4  3  1  0
  6  5  1  0
  7  6  2  0
  8  7  1  0
  8  9  2  0
  9  4  1  0
 10  2  1  0
 11 10  2  0
 13 12  1  0
 13 14  2  0
 15 14  1  0
 16 15  2  0
 17 16  1  0
 18 17  1  1
 18 19  1  0
 19 10  1  0
 20 21  2  0
 20 18  1  0
 22 23  2  0
 22 16  1  0
 23 13  1  0
 25 24  1  0
 26 25  2  0
 27 25  1  0
 28 27  1  0
 29 28  1  6
 29 30  1  0
 30 20  1  0
 31 33  1  0
 31 29  1  0
 32 31  2  0
M  END
$$$$
