FYQ.pdb
     RDKit          3D

 33 34  0  0  1  0  0  0  0  0999 V2000
    9.0230  -15.3319   22.1239 N   0  0  0  0  0  0  0  0  0  0  0  0
   10.1971  -15.2557   21.2996 C   0  0  1  0  0  0  0  0  0  0  0  0
   10.3633  -13.9593   20.5924 C   0  0  0  0  0  0  0  0  0  0  0  0
    9.1773  -13.5031   19.8501 C   0  0  0  0  0  0  0  0  0  0  0  0
    8.5666  -12.3440   20.2981 C   0  0  0  0  0  0  0  0  0  0  0  0
    7.4490  -11.8360   19.6700 C   0  0  0  0  0  0  0  0  0  0  0  0
    6.9010  -12.4779   18.5622 C   0  0  0  0  0  0  0  0  0  0  0  0
    7.5444  -13.6273   18.1546 C   0  0  0  0  0  0  0  0  0  0  0  0
    8.6536  -14.1505   18.7610 C   0  0  0  0  0  0  0  0  0  0  0  0
   11.4402  -15.5554   22.0638 C   0  0  0  0  0  0  0  0  0  0  0  0
   11.7388  -14.9261   23.1104 O   0  0  0  0  0  0  0  0  0  0  0  0
   12.9069  -22.5715   26.7200 O   0  0  0  0  0  0  0  0  0  0  0  0
   12.5898  -21.5051   25.8716 C   0  0  0  0  0  0  0  0  0  0  0  0
   12.4920  -20.2192   26.3596 C   0  0  0  0  0  0  0  0  0  0  0  0
   12.1757  -19.1545   25.5141 C   0  0  0  0  0  0  0  0  0  0  0  0
   11.9507  -19.3438   24.1708 C   0  0  0  0  0  0  0  0  0  0  0  0
   11.6172  -18.2086   23.2794 C   0  0  0  0  0  0  0  0  0  0  0  0
   12.7839  -17.6417   22.5443 C   0  0  2  0  0  0  0  0  0  0  0  0
   12.3493  -16.5679   21.6459 N   0  0  0  0  0  0  0  0  0  0  0  0
   13.5899  -18.6038   21.7858 C   0  0  0  0  0  0  0  0  0  0  0  0
   14.0846  -19.5997   22.3742 O   0  0  0  0  0  0  0  0  0  0  0  0
   12.0522  -20.6380   23.6965 C   0  0  0  0  0  0  0  0  0  0  0  0
   12.3643  -21.6961   24.5247 C   0  0  0  0  0  0  0  0  0  0  0  0
   15.4287  -14.1936   18.4683 N   0  0  0  0  0  0  0  0  0  0  0  0
   14.2711  -15.0378   18.6576 C   0  0  0  0  0  0  0  0  0  0  0  0
   13.2216  -14.4369   18.9313 O   0  0  0  0  0  0  0  0  0  0  0  0
   14.3584  -16.4845   18.5333 C   0  0  0  0  0  0  0  0  0  0  0  0
   15.4890  -17.2051   19.1316 C   0  0  0  0  0  0  0  0  0  0  0  0
   15.1875  -18.4554   19.9029 C   0  0  2  0  0  0  0  0  0  0  0  0
   13.8402  -18.4639   20.4004 N   0  0  0  0  0  0  0  0  0  0  0  0
   16.2297  -18.8436   20.8457 C   0  0  0  0  0  0  0  0  0  0  0  0
   17.4239  -18.9218   20.4962 O   0  0  0  0  0  0  0  0  0  0  0  0
   15.9014  -19.1280   22.1593 O   0  0  0  0  0  0  0  0  0  0  0  0
  2  1  1  1
  3  2  1  0
  4  5  2  0
  4  3  1  0
  6  5  1  0
  7  6  2  0
  8  7  1  0
  8  9  2  0
  9  4  1  0
 10  2  1  0
 11 10  2  0
 13 12  1  0
 13 14  2  0
 15 14  1  0
 16 15  2  0
 17 16  1  0
 18 17  1  6
 18 19  1  0
 19 10  1  0
 20 21  2  0
 20 18  1  0
 22 23  2  0
 22 16  1  0
 23 13  1  0
 25 24  1  0
 26 25  2  0
 27 25  1  0
 28 27  1  0
 29 28  1  1
 29 30  1  0
 30 20  1  0
 31 33  1  0
 31 29  1  0
 32 31  2  0
M  END
$$$$
