FYQ.pdb
     RDKit          3D

 33 34  0  0  1  0  0  0  0  0999 V2000
    7.2103  -18.6412   26.6665 N   0  0  0  0  0  0  0  0  0  0  0  0
    7.7801  -17.3532   26.3837 C   0  0  1  0  0  0  0  0  0  0  0  0
    9.1207  -17.1331   26.9861 C   0  0  0  0  0  0  0  0  0  0  0  0
    9.2584  -15.8821   27.7486 C   0  0  0  0  0  0  0  0  0  0  0  0
    9.6518  -15.9956   29.0712 C   0  0  0  0  0  0  0  0  0  0  0  0
    9.8082  -14.8816   29.8687 C   0  0  0  0  0  0  0  0  0  0  0  0
    9.5739  -13.6052   29.3634 C   0  0  0  0  0  0  0  0  0  0  0  0
    9.1845  -13.5443   28.0421 C   0  0  0  0  0  0  0  0  0  0  0  0
    9.0225  -14.6344   27.2314 C   0  0  0  0  0  0  0  0  0  0  0  0
    7.8538  -17.0806   24.9211 C   0  0  0  0  0  0  0  0  0  0  0  0
    7.9471  -18.0110   24.0807 O   0  0  0  0  0  0  0  0  0  0  0  0
    7.6866  -12.5582   17.2034 O   0  0  0  0  0  0  0  0  0  0  0  0
    7.7213  -12.9173   18.5553 C   0  0  0  0  0  0  0  0  0  0  0  0
    8.7461  -12.4909   19.3734 C   0  0  0  0  0  0  0  0  0  0  0  0
    8.7817  -12.8485   20.7222 C   0  0  0  0  0  0  0  0  0  0  0  0
    7.8036  -13.6344   21.2849 C   0  0  0  0  0  0  0  0  0  0  0  0
    7.8472  -14.0083   22.7177 C   0  0  0  0  0  0  0  0  0  0  0  0
    7.9036  -15.4771   22.9677 C   0  0  2  0  0  0  0  0  0  0  0  0
    7.8222  -15.7545   24.4048 N   0  0  0  0  0  0  0  0  0  0  0  0
    9.0661  -16.1758   22.4102 C   0  0  0  0  0  0  0  0  0  0  0  0
    8.9046  -17.0016   21.4748 O   0  0  0  0  0  0  0  0  0  0  0  0
    6.7832  -14.0540   20.4526 C   0  0  0  0  0  0  0  0  0  0  0  0
    6.7400  -13.7055   19.1186 C   0  0  0  0  0  0  0  0  0  0  0  0
   12.0135  -15.1977   17.9103 N   0  0  0  0  0  0  0  0  0  0  0  0
   12.8278  -14.6306   18.9608 C   0  0  0  0  0  0  0  0  0  0  0  0
   13.7048  -13.8419   18.5782 O   0  0  0  0  0  0  0  0  0  0  0  0
   12.6154  -14.9784   20.3572 C   0  0  0  0  0  0  0  0  0  0  0  0
   11.5149  -15.8758   20.7302 C   0  0  0  0  0  0  0  0  0  0  0  0
   11.5102  -16.4290   22.1242 C   0  0  2  0  0  0  0  0  0  0  0  0
   10.3828  -15.9605   22.8806 N   0  0  0  0  0  0  0  0  0  0  0  0
   12.8053  -16.3801   22.7922 C   0  0  0  0  0  0  0  0  0  0  0  0
   13.8283  -16.8527   22.2588 O   0  0  0  0  0  0  0  0  0  0  0  0
   12.9163  -15.7953   24.0411 O   0  0  0  0  0  0  0  0  0  0  0  0
  2  1  1  6
  3  2  1  0
  4  5  2  0
  4  3  1  0
  6  5  1  0
  7  6  2  0
  8  7  1  0
  8  9  2  0
  9  4  1  0
 10  2  1  0
 11 10  2  0
 13 12  1  0
 13 14  2  0
 15 14  1  0
 16 15  2  0
 17 16  1  0
 18 17  1  1
 18 19  1  0
 19 10  1  0
 20 21  2  0
 20 18  1  0
 22 23  2  0
 22 16  1  0
 23 13  1  0
 25 24  1  0
 26 25  2  0
 27 25  1  0
 28 27  1  0
 29 28  1  6
 29 30  1  0
 30 20  1  0
 31 33  1  0
 31 29  1  0
 32 31  2  0
M  END
$$$$
