FYQ.pdb
     RDKit          3D

 33 34  0  0  1  0  0  0  0  0999 V2000
    5.6196  -16.1766   26.5289 N   0  0  0  0  0  0  0  0  0  0  0  0
    6.6868  -16.0872   25.5715 C   0  0  1  0  0  0  0  0  0  0  0  0
    7.6883  -15.0307   25.8705 C   0  0  0  0  0  0  0  0  0  0  0  0
    7.1278  -13.6837   26.0625 C   0  0  0  0  0  0  0  0  0  0  0  0
    6.6451  -13.0406   24.9353 C   0  0  0  0  0  0  0  0  0  0  0  0
    6.1013  -11.7756   25.0117 C   0  0  0  0  0  0  0  0  0  0  0  0
    6.0221  -11.1068   26.2306 C   0  0  0  0  0  0  0  0  0  0  0  0
    6.5156  -11.7882   27.3231 C   0  0  0  0  0  0  0  0  0  0  0  0
    7.0594  -13.0425   27.2724 C   0  0  0  0  0  0  0  0  0  0  0  0
    7.3910  -17.3877   25.3924 C   0  0  0  0  0  0  0  0  0  0  0  0
    7.6867  -18.1179   26.3722 O   0  0  0  0  0  0  0  0  0  0  0  0
    9.7251  -25.1291   21.7550 O   0  0  0  0  0  0  0  0  0  0  0  0
    9.2490  -23.8347   21.9905 C   0  0  0  0  0  0  0  0  0  0  0  0
    9.7162  -22.7656   21.2556 C   0  0  0  0  0  0  0  0  0  0  0  0
    9.2420  -21.4738   21.4897 C   0  0  0  0  0  0  0  0  0  0  0  0
    8.2969  -21.2175   22.4552 C   0  0  0  0  0  0  0  0  0  0  0  0
    7.7971  -19.8440   22.6966 C   0  0  0  0  0  0  0  0  0  0  0  0
    8.3647  -19.1882   23.9094 C   0  0  2  0  0  0  0  0  0  0  0  0
    7.7627  -17.8658   24.1043 N   0  0  0  0  0  0  0  0  0  0  0  0
    9.8250  -19.0592   23.9416 C   0  0  0  0  0  0  0  0  0  0  0  0
   10.4783  -19.6238   24.8567 O   0  0  0  0  0  0  0  0  0  0  0  0
    7.8384  -22.2988   23.1835 C   0  0  0  0  0  0  0  0  0  0  0  0
    8.3014  -23.5787   22.9590 C   0  0  0  0  0  0  0  0  0  0  0  0
   13.3209  -16.0259   19.4259 N   0  0  0  0  0  0  0  0  0  0  0  0
   12.8185  -15.3805   20.6173 C   0  0  0  0  0  0  0  0  0  0  0  0
   12.7705  -14.1426   20.5638 O   0  0  0  0  0  0  0  0  0  0  0  0
   12.4084  -16.1497   21.7818 C   0  0  0  0  0  0  0  0  0  0  0  0
   12.5416  -17.6119   21.7788 C   0  0  0  0  0  0  0  0  0  0  0  0
   11.9817  -18.3639   22.9493 C   0  0  2  0  0  0  0  0  0  0  0  0
   10.5465  -18.3193   22.9754 N   0  0  0  0  0  0  0  0  0  0  0  0
   12.6622  -18.1001   24.2116 C   0  0  0  0  0  0  0  0  0  0  0  0
   12.2458  -17.2320   25.0036 O   0  0  0  0  0  0  0  0  0  0  0  0
   13.7906  -18.8246   24.5522 O   0  0  0  0  0  0  0  0  0  0  0  0
  2  1  1  1
  3  2  1  0
  4  5  2  0
  4  3  1  0
  6  5  1  0
  7  6  2  0
  8  7  1  0
  8  9  2  0
  9  4  1  0
 10  2  1  0
 11 10  2  0
 13 12  1  0
 13 14  2  0
 15 14  1  0
 16 15  2  0
 17 16  1  0
 18 17  1  6
 18 19  1  0
 19 10  1  0
 20 21  2  0
 20 18  1  0
 22 23  2  0
 22 16  1  0
 23 13  1  0
 25 24  1  0
 26 25  2  0
 27 25  1  0
 28 27  1  0
 29 28  1  6
 29 30  1  0
 30 20  1  0
 31 33  1  0
 31 29  1  0
 32 31  2  0
M  END
$$$$
