FYQ.pdb
     RDKit          3D

 33 34  0  0  1  0  0  0  0  0999 V2000
    6.1731  -18.5328   26.2184 N   0  0  0  0  0  0  0  0  0  0  0  0
    6.4116  -17.1302   26.0198 C   0  0  1  0  0  0  0  0  0  0  0  0
    7.1721  -16.4788   27.1180 C   0  0  0  0  0  0  0  0  0  0  0  0
    7.2354  -15.0107   27.0404 C   0  0  0  0  0  0  0  0  0  0  0  0
    8.4901  -14.4328   27.1344 C   0  0  0  0  0  0  0  0  0  0  0  0
    8.6536  -13.0649   27.0734 C   0  0  0  0  0  0  0  0  0  0  0  0
    7.5559  -12.2227   26.9148 C   0  0  0  0  0  0  0  0  0  0  0  0
    6.3288  -12.8453   26.8262 C   0  0  0  0  0  0  0  0  0  0  0  0
    6.1414  -14.1992   26.8840 C   0  0  0  0  0  0  0  0  0  0  0  0
    7.0951  -16.8545   24.7252 C   0  0  0  0  0  0  0  0  0  0  0  0
    7.9544  -17.6411   24.2526 O   0  0  0  0  0  0  0  0  0  0  0  0
    9.0225  -13.0700   16.8672 O   0  0  0  0  0  0  0  0  0  0  0  0
    8.4791  -13.3639   18.1226 C   0  0  0  0  0  0  0  0  0  0  0  0
    7.7375  -14.5093   18.3208 C   0  0  0  0  0  0  0  0  0  0  0  0
    7.1950  -14.8035   19.5728 C   0  0  0  0  0  0  0  0  0  0  0  0
    7.3770  -13.9692   20.6507 C   0  0  0  0  0  0  0  0  0  0  0  0
    6.7996  -14.2891   21.9768 C   0  0  0  0  0  0  0  0  0  0  0  0
    7.4841  -15.4040   22.6920 C   0  0  2  0  0  0  0  0  0  0  0  0
    6.8084  -15.6880   23.9615 N   0  0  0  0  0  0  0  0  0  0  0  0
    8.9168  -15.2176   22.9431 C   0  0  0  0  0  0  0  0  0  0  0  0
    9.2923  -14.3875   23.8107 O   0  0  0  0  0  0  0  0  0  0  0  0
    8.1223  -12.8253   20.4366 C   0  0  0  0  0  0  0  0  0  0  0  0
    8.6622  -12.5266   19.2028 C   0  0  0  0  0  0  0  0  0  0  0  0
   10.7162  -17.7735   25.5445 N   0  0  0  0  0  0  0  0  0  0  0  0
   11.0984  -18.4950   24.3522 C   0  0  0  0  0  0  0  0  0  0  0  0
   10.7635  -19.6887   24.3302 O   0  0  0  0  0  0  0  0  0  0  0  0
   11.8250  -17.8456   23.2722 C   0  0  0  0  0  0  0  0  0  0  0  0
   12.0522  -16.3955   23.3094 C   0  0  0  0  0  0  0  0  0  0  0  0
   11.2918  -15.5469   22.3344 C   0  0  2  0  0  0  0  0  0  0  0  0
    9.9133  -15.9404   22.2460 N   0  0  0  0  0  0  0  0  0  0  0  0
   11.9839  -15.3194   21.0714 C   0  0  0  0  0  0  0  0  0  0  0  0
   13.1644  -14.9197   21.0417 O   0  0  0  0  0  0  0  0  0  0  0  0
   11.3308  -15.5533   19.8744 O   0  0  0  0  0  0  0  0  0  0  0  0
  2  1  1  1
  3  2  1  0
  4  5  2  0
  4  3  1  0
  6  5  1  0
  7  6  2  0
  8  7  1  0
  8  9  2  0
  9  4  1  0
 10  2  1  0
 11 10  2  0
 13 12  1  0
 13 14  2  0
 15 14  1  0
 16 15  2  0
 17 16  1  0
 18 17  1  1
 18 19  1  0
 19 10  1  0
 20 21  2  0
 20 18  1  0
 22 23  2  0
 22 16  1  0
 23 13  1  0
 25 24  1  0
 26 25  2  0
 27 25  1  0
 28 27  1  0
 29 28  1  6
 29 30  1  0
 30 20  1  0
 31 33  1  0
 31 29  1  0
 32 31  2  0
M  END
$$$$
