FYQ.pdb
     RDKit          3D

 33 34  0  0  1  0  0  0  0  0999 V2000
    6.3160  -18.5651   26.1031 N   0  0  0  0  0  0  0  0  0  0  0  0
    6.6019  -17.1638   25.9682 C   0  0  1  0  0  0  0  0  0  0  0  0
    7.4396  -16.6037   27.0604 C   0  0  0  0  0  0  0  0  0  0  0  0
    7.4255  -15.1356   27.1600 C   0  0  0  0  0  0  0  0  0  0  0  0
    8.6206  -14.5196   27.4905 C   0  0  0  0  0  0  0  0  0  0  0  0
    8.7095  -13.1485   27.6088 C   0  0  0  0  0  0  0  0  0  0  0  0
    7.5941  -12.3416   27.3980 C   0  0  0  0  0  0  0  0  0  0  0  0
    6.4283  -13.0015   27.0714 C   0  0  0  0  0  0  0  0  0  0  0  0
    6.3154  -14.3594   26.9484 C   0  0  0  0  0  0  0  0  0  0  0  0
    7.2339  -16.8433   24.6578 C   0  0  0  0  0  0  0  0  0  0  0  0
    8.1027  -17.5926   24.1438 O   0  0  0  0  0  0  0  0  0  0  0  0
    8.5794  -12.9663   16.7246 O   0  0  0  0  0  0  0  0  0  0  0  0
    8.1493  -13.2664   18.0217 C   0  0  0  0  0  0  0  0  0  0  0  0
    8.4299  -12.4192   19.0728 C   0  0  0  0  0  0  0  0  0  0  0  0
    8.0013  -12.7177   20.3672 C   0  0  0  0  0  0  0  0  0  0  0  0
    7.2874  -13.8598   20.6442 C   0  0  0  0  0  0  0  0  0  0  0  0
    6.8343  -14.1688   22.0203 C   0  0  0  0  0  0  0  0  0  0  0  0
    7.5051  -15.3489   22.6373 C   0  0  2  0  0  0  0  0  0  0  0  0
    6.8847  -15.6740   23.9251 N   0  0  0  0  0  0  0  0  0  0  0  0
    8.9558  -15.2362   22.8194 C   0  0  0  0  0  0  0  0  0  0  0  0
    9.4115  -14.7366   23.8803 O   0  0  0  0  0  0  0  0  0  0  0  0
    7.0138  -14.6990   19.5807 C   0  0  0  0  0  0  0  0  0  0  0  0
    7.4334  -14.4121   18.2983 C   0  0  0  0  0  0  0  0  0  0  0  0
   12.5953  -17.1910   26.4076 N   0  0  0  0  0  0  0  0  0  0  0  0
   13.0477  -17.6487   25.1137 C   0  0  0  0  0  0  0  0  0  0  0  0
   13.6383  -18.7390   25.1190 O   0  0  0  0  0  0  0  0  0  0  0  0
   12.8169  -16.8671   23.9088 C   0  0  0  0  0  0  0  0  0  0  0  0
   11.4480  -16.6594   23.4204 C   0  0  0  0  0  0  0  0  0  0  0  0
   11.2693  -15.8353   22.1803 C   0  0  2  0  0  0  0  0  0  0  0  0
    9.8828  -15.6715   21.8434 N   0  0  0  0  0  0  0  0  0  0  0  0
   12.1643  -16.1959   21.0873 C   0  0  0  0  0  0  0  0  0  0  0  0
   11.7222  -16.5371   19.9727 O   0  0  0  0  0  0  0  0  0  0  0  0
   13.5345  -16.1576   21.2757 O   0  0  0  0  0  0  0  0  0  0  0  0
  2  1  1  1
  3  2  1  0
  4  5  2  0
  4  3  1  0
  6  5  1  0
  7  6  2  0
  8  7  1  0
  8  9  2  0
  9  4  1  0
 10  2  1  0
 11 10  2  0
 13 12  1  0
 13 14  2  0
 15 14  1  0
 16 15  2  0
 17 16  1  0
 18 17  1  1
 18 19  1  0
 19 10  1  0
 20 21  2  0
 20 18  1  0
 22 23  2  0
 22 16  1  0
 23 13  1  0
 25 24  1  0
 26 25  2  0
 27 25  1  0
 28 27  1  0
 29 28  1  1
 29 30  1  0
 30 20  1  0
 31 33  1  0
 31 29  1  0
 32 31  2  0
M  END
$$$$
