CGI.pdb
     RDKit          3D

 19 18  0  0  1  0  0  0  0  0999 V2000
   11.0233  -17.4307   19.7966 N   0  0  0  0  0  0  0  0  0  0  0  0
    9.5840  -17.4772   19.6779 C   0  0  1  0  0  0  0  0  0  0  0  0
    9.1474  -18.7641   18.9769 C   0  0  0  0  0  0  0  0  0  0  0  0
    9.3283  -18.6452   17.1993 S   0  0  0  0  0  0  0  0  0  0  0  0
    8.9927  -17.3988   21.0366 C   0  0  0  0  0  0  0  0  0  0  0  0
    9.4312  -18.1102   21.9780 O   0  0  0  0  0  0  0  0  0  0  0  0
    7.9086  -16.5089   21.3013 N   0  0  0  0  0  0  0  0  0  0  0  0
    7.2872  -16.4350   22.6086 C   0  0  0  0  0  0  0  0  0  0  0  0
    8.0547  -15.4746   23.4597 C   0  0  0  0  0  0  0  0  0  0  0  0
    9.1257  -14.9385   23.0495 O   0  0  0  0  0  0  0  0  0  0  0  0
    5.6877  -11.7415   27.0337 C   0  0  0  0  0  0  0  0  0  0  0  0
    6.3352  -12.9871   26.5852 C   0  0  0  0  0  0  0  0  0  0  0  0
    7.5783  -12.8851   25.7692 C   0  0  2  0  0  0  0  0  0  0  0  0
    7.3081  -12.0346   24.5514 C   0  0  0  0  0  0  0  0  0  0  0  0
    8.3272  -14.1172   25.5909 C   0  0  2  0  0  0  0  0  0  0  0  0
    7.6549  -15.1023   24.7500 N   0  0  0  0  0  0  0  0  0  0  0  0
    8.8398  -14.8302   26.7575 C   0  0  0  0  0  0  0  0  0  0  0  0
    8.5784  -16.1344   27.1319 O   0  0  0  0  0  0  0  0  0  0  0  0
    9.6239  -14.2078   27.5556 O   0  0  0  0  0  0  0  0  0  0  0  0
  2  1  1  1
  3  2  1  0
  3  4  1  0
  5  6  2  0
  5  2  1  0
  7  5  1  0
  8  7  1  0
  9  8  1  0
  9 10  2  0
 11 12  1  0
 12 13  1  0
 13 14  1  6
 15 13  1  0
 15 16  1  1
 16  9  1  0
 17 15  1  0
 18 17  1  0
 19 17  2  0
M  END
$$$$
