CGI.pdb
     RDKit          3D

 19 18  0  0  1  0  0  0  0  0999 V2000
    5.5258  -18.6834   19.5508 N   0  0  0  0  0  0  0  0  0  0  0  0
    6.6642  -18.2685   20.3381 C   0  0  1  0  0  0  0  0  0  0  0  0
    7.4993  -17.2433   19.5702 C   0  0  0  0  0  0  0  0  0  0  0  0
    6.8289  -15.5903   19.7276 S   0  0  0  0  0  0  0  0  0  0  0  0
    6.1739  -17.6895   21.6133 C   0  0  0  0  0  0  0  0  0  0  0  0
    5.0166  -17.2025   21.7033 O   0  0  0  0  0  0  0  0  0  0  0  0
    7.0123  -17.6748   22.7684 N   0  0  0  0  0  0  0  0  0  0  0  0
    6.5425  -17.1688   24.0427 C   0  0  0  0  0  0  0  0  0  0  0  0
    7.5966  -16.2906   24.6372 C   0  0  0  0  0  0  0  0  0  0  0  0
    8.6980  -16.0883   24.0468 O   0  0  0  0  0  0  0  0  0  0  0  0
    5.8110  -11.8568   26.8248 C   0  0  0  0  0  0  0  0  0  0  0  0
    6.6697  -12.8721   26.1893 C   0  0  0  0  0  0  0  0  0  0  0  0
    7.7488  -13.4980   27.0049 C   0  0  2  0  0  0  0  0  0  0  0  0
    8.6338  -12.4167   27.5768 C   0  0  0  0  0  0  0  0  0  0  0  0
    8.3856  -14.6699   26.4288 C   0  0  2  0  0  0  0  0  0  0  0  0
    7.4483  -15.6377   25.8681 N   0  0  0  0  0  0  0  0  0  0  0  0
    9.3613  -15.4239   27.2108 C   0  0  0  0  0  0  0  0  0  0  0  0
   10.7079  -15.1555   27.3656 O   0  0  0  0  0  0  0  0  0  0  0  0
    8.9636  -16.4661   27.8392 O   0  0  0  0  0  0  0  0  0  0  0  0
  2  1  1  6
  3  2  1  0
  3  4  1  0
  5  6  2  0
  5  2  1  0
  7  5  1  0
  8  7  1  0
  9  8  1  0
  9 10  2  0
 11 12  1  0
 12 13  1  0
 13 14  1  6
 15 13  1  0
 15 16  1  1
 16  9  1  0
 17 15  1  0
 18 17  1  0
 19 17  2  0
M  END
$$$$
