CGI.pdb
     RDKit          3D

 19 18  0  0  1  0  0  0  0  0999 V2000
-71532.0078-1496134.8750917270.8125 N   0  0  0  0  0  0  0  0  0  0  0  0
-71533.0781-1496133.8750917271.5625 C   0  0  1  0  0  0  0  0  0  0  0  0
-71533.6094-1496133.2500917270.6875 C   0  0  0  0  0  0  0  0  0  0  0  0
-71533.0156-1496133.0000917270.0625 S   0  0  0  0  0  0  0  0  0  0  0  0
-71534.2031-1496135.5000917270.8750 C   0  0  0  0  0  0  0  0  0  0  0  0
-71533.8672-1496136.3750917270.4375 O   0  0  0  0  0  0  0  0  0  0  0  0
-71535.2969-1496135.6250917271.1250 N   0  0  0  0  0  0  0  0  0  0  0  0
-71536.2578-1496136.1250917271.6875 C   0  0  0  0  0  0  0  0  0  0  0  0
-71537.7656-1496137.0000917271.4375 C   0  0  0  0  0  0  0  0  0  0  0  0
-71537.7812-1496138.1250917271.1875 O   0  0  0  0  0  0  0  0  0  0  0  0
-71536.4062-1496138.2500917269.1250 C   0  0  0  0  0  0  0  0  0  0  0  0
-71535.7812-1496136.8750917269.5000 C   0  0  0  0  0  0  0  0  0  0  0  0
-71537.1562-1496136.5000917268.5625 C   0  0  2  0  0  0  0  0  0  0  0  0
-71537.3750-1496135.1250917266.8125 C   0  0  0  0  0  0  0  0  0  0  0  0
-71538.6562-1496135.8750917268.8750 C   0  0  2  0  0  0  0  0  0  0  0  0
-71538.4844-1496136.3750917270.5625 N   0  0  0  0  0  0  0  0  0  0  0  0
-71540.0156-1496135.8750917268.5000 C   0  0  0  0  0  0  0  0  0  0  0  0
-71541.1953-1496135.2500917269.5625 O   0  0  0  0  0  0  0  0  0  0  0  0
-71539.9688-1496136.5000917267.8125 O   0  0  0  0  0  0  0  0  0  0  0  0
  2  1  1  6
  3  2  1  0
  3  4  1  0
  5  6  2  0
  5  2  1  0
  7  5  1  0
  8  7  1  0
  9  8  1  0
  9 10  2  0
 11 12  1  0
 12 13  1  0
 13 14  1  6
 15 13  1  0
 15 16  1  1
 16  9  1  0
 17 15  1  0
 18 17  1  0
 19 17  2  0
M  END
$$$$
