CGI.pdb
     RDKit          3D

 19 18  0  0  1  0  0  0  0  0999 V2000
    4.6086  -18.4317   23.7754 N   0  0  0  0  0  0  0  0  0  0  0  0
    4.9887  -19.0432   22.5227 C   0  0  1  0  0  0  0  0  0  0  0  0
    3.7816  -19.1433   21.5894 C   0  0  0  0  0  0  0  0  0  0  0  0
    3.2308  -17.5296   21.0423 S   0  0  0  0  0  0  0  0  0  0  0  0
    6.0601  -18.2261   21.9011 C   0  0  0  0  0  0  0  0  0  0  0  0
    6.6719  -18.6276   20.8769 O   0  0  0  0  0  0  0  0  0  0  0  0
    6.4179  -16.9616   22.4581 N   0  0  0  0  0  0  0  0  0  0  0  0
    7.4511  -16.1350   21.8666 C   0  0  0  0  0  0  0  0  0  0  0  0
    8.1269  -15.3520   22.9465 C   0  0  0  0  0  0  0  0  0  0  0  0
    9.2142  -14.7389   22.7361 O   0  0  0  0  0  0  0  0  0  0  0  0
    5.8718  -12.2561   27.2482 C   0  0  0  0  0  0  0  0  0  0  0  0
    6.3010  -13.3759   26.3915 C   0  0  0  0  0  0  0  0  0  0  0  0
    7.6084  -13.2661   25.6845 C   0  0  2  0  0  0  0  0  0  0  0  0
    7.5109  -12.2037   24.6161 C   0  0  0  0  0  0  0  0  0  0  0  0
    8.2572  -14.5208   25.3446 C   0  0  2  0  0  0  0  0  0  0  0  0
    7.6181  -15.2397   24.2472 N   0  0  0  0  0  0  0  0  0  0  0  0
    8.5369  -15.4999   26.3910 C   0  0  0  0  0  0  0  0  0  0  0  0
    8.1079  -16.8118   26.4561 O   0  0  0  0  0  0  0  0  0  0  0  0
    9.2577  -15.1391   27.3858 O   0  0  0  0  0  0  0  0  0  0  0  0
  2  1  1  1
  3  2  1  0
  3  4  1  0
  5  6  2  0
  5  2  1  0
  7  5  1  0
  8  7  1  0
  9  8  1  0
  9 10  2  0
 11 12  1  0
 12 13  1  0
 13 14  1  6
 15 13  1  0
 15 16  1  6
 16  9  1  0
 17 15  1  0
 18 17  1  0
 19 17  2  0
M  END
$$$$
