CGI.pdb
     RDKit          3D

 19 18  0  0  1  0  0  0  0  0999 V2000
    6.9756  -18.1377   19.4843 N   0  0  0  0  0  0  0  0  0  0  0  0
    7.7837  -18.9797   20.3362 C   0  0  1  0  0  0  0  0  0  0  0  0
    9.2695  -18.6937   20.1151 C   0  0  0  0  0  0  0  0  0  0  0  0
    9.6715  -16.9804   20.4465 S   0  0  0  0  0  0  0  0  0  0  0  0
    7.4096  -18.7239   21.7492 C   0  0  0  0  0  0  0  0  0  0  0  0
    7.7856  -19.4948   22.6706 O   0  0  0  0  0  0  0  0  0  0  0  0
    6.6113  -17.5910   22.0904 N   0  0  0  0  0  0  0  0  0  0  0  0
    6.3606  -17.2250   23.4702 C   0  0  0  0  0  0  0  0  0  0  0  0
    7.3950  -16.2384   23.9086 C   0  0  0  0  0  0  0  0  0  0  0  0
    8.4116  -15.9870   23.1972 O   0  0  0  0  0  0  0  0  0  0  0  0
    6.2187  -11.6353   27.1620 C   0  0  0  0  0  0  0  0  0  0  0  0
    6.5403  -12.9945   26.6918 C   0  0  0  0  0  0  0  0  0  0  0  0
    7.5372  -13.1470   25.5943 C   0  0  2  0  0  0  0  0  0  0  0  0
    6.9780  -12.5504   24.3251 C   0  0  0  0  0  0  0  0  0  0  0  0
    8.2006  -14.4367   25.5099 C   0  0  2  0  0  0  0  0  0  0  0  0
    7.3194  -15.5312   25.1159 N   0  0  0  0  0  0  0  0  0  0  0  0
    9.0010  -14.9160   26.6330 C   0  0  0  0  0  0  0  0  0  0  0  0
   10.2059  -14.4136   27.0862 O   0  0  0  0  0  0  0  0  0  0  0  0
    8.5734  -15.9214   27.3005 O   0  0  0  0  0  0  0  0  0  0  0  0
  2  1  1  6
  3  2  1  0
  3  4  1  0
  5  6  2  0
  5  2  1  0
  7  5  1  0
  8  7  1  0
  9  8  1  0
  9 10  2  0
 11 12  1  0
 12 13  1  0
 13 14  1  6
 15 13  1  0
 15 16  1  1
 16  9  1  0
 17 15  1  0
 18 17  1  0
 19 17  2  0
M  END
$$$$
