CGI.pdb
     RDKit          3D

 19 18  0  0  1  0  0  0  0  0999 V2000
    5.1461  -18.3548   20.0015 N   0  0  0  0  0  0  0  0  0  0  0  0
    5.5802  -17.9832   21.3286 C   0  0  1  0  0  0  0  0  0  0  0  0
    5.4311  -19.1635   22.2891 C   0  0  0  0  0  0  0  0  0  0  0  0
    6.9888  -19.5896   23.0630 S   0  0  0  0  0  0  0  0  0  0  0  0
    6.9961  -17.5446   21.2596 C   0  0  0  0  0  0  0  0  0  0  0  0
    7.7291  -17.8659   20.2880 O   0  0  0  0  0  0  0  0  0  0  0  0
    7.5552  -16.7450   22.3013 N   0  0  0  0  0  0  0  0  0  0  0  0
    8.8719  -16.1514   22.1810 C   0  0  0  0  0  0  0  0  0  0  0  0
    9.1917  -15.4146   23.4423 C   0  0  0  0  0  0  0  0  0  0  0  0
   10.3296  -14.8938   23.6327 O   0  0  0  0  0  0  0  0  0  0  0  0
    5.9113  -11.8923   25.5116 C   0  0  0  0  0  0  0  0  0  0  0  0
    7.0498  -12.7639   25.1708 C   0  0  0  0  0  0  0  0  0  0  0  0
    7.5846  -13.6743   26.2227 C   0  0  2  0  0  0  0  0  0  0  0  0
    7.8772  -12.8774   27.4713 C   0  0  0  0  0  0  0  0  0  0  0  0
    8.5716  -14.6458   25.7840 C   0  0  2  0  0  0  0  0  0  0  0  0
    8.2745  -15.2481   24.4884 N   0  0  0  0  0  0  0  0  0  0  0  0
    8.9701  -15.7297   26.6775 C   0  0  0  0  0  0  0  0  0  0  0  0
    9.7527  -15.6430   27.8131 O   0  0  0  0  0  0  0  0  0  0  0  0
    8.5719  -16.9168   26.4104 O   0  0  0  0  0  0  0  0  0  0  0  0
  2  1  1  6
  3  2  1  0
  3  4  1  0
  5  6  2  0
  5  2  1  0
  7  5  1  0
  8  7  1  0
  9  8  1  0
  9 10  2  0
 11 12  1  0
 12 13  1  0
 13 14  1  1
 15 13  1  0
 15 16  1  6
 16  9  1  0
 17 15  1  0
 18 17  1  0
 19 17  2  0
M  END
$$$$
