CGI.pdb
     RDKit          3D

 19 18  0  0  1  0  0  0  0  0999 V2000
    6.0780  -19.3350   23.0583 N   0  0  0  0  0  0  0  0  0  0  0  0
    7.2595  -18.5755   22.7194 C   0  0  1  0  0  0  0  0  0  0  0  0
    7.8916  -19.1156   21.4361 C   0  0  0  0  0  0  0  0  0  0  0  0
    6.9161  -18.7035   19.9921 S   0  0  0  0  0  0  0  0  0  0  0  0
    6.8767  -17.1517   22.5513 C   0  0  0  0  0  0  0  0  0  0  0  0
    5.7100  -16.7575   22.8121 O   0  0  0  0  0  0  0  0  0  0  0  0
    7.8317  -16.1979   22.0874 N   0  0  0  0  0  0  0  0  0  0  0  0
    7.4804  -14.8063   21.8855 C   0  0  0  0  0  0  0  0  0  0  0  0
    7.9384  -14.0115   23.0663 C   0  0  0  0  0  0  0  0  0  0  0  0
    8.0145  -12.7486   23.0233 O   0  0  0  0  0  0  0  0  0  0  0  0
    5.6421  -12.2523   27.1997 C   0  0  0  0  0  0  0  0  0  0  0  0
    6.4755  -13.2625   26.5237 C   0  0  0  0  0  0  0  0  0  0  0  0
    7.7286  -12.8132   25.8532 C   0  0  2  0  0  0  0  0  0  0  0  0
    7.3927  -11.7722   24.8125 C   0  0  0  0  0  0  0  0  0  0  0  0
    8.6709  -13.8595   25.4952 C   0  0  2  0  0  0  0  0  0  0  0  0
    8.3106  -14.5925   24.2859 N   0  0  0  0  0  0  0  0  0  0  0  0
    9.0693  -14.8494   26.4919 C   0  0  0  0  0  0  0  0  0  0  0  0
    8.9310  -16.2224   26.4202 O   0  0  0  0  0  0  0  0  0  0  0  0
    9.6106  -14.4377   27.5766 O   0  0  0  0  0  0  0  0  0  0  0  0
  2  1  1  6
  3  2  1  0
  3  4  1  0
  5  6  2  0
  5  2  1  0
  7  5  1  0
  8  7  1  0
  9  8  1  0
  9 10  2  0
 11 12  1  0
 12 13  1  0
 13 14  1  6
 15 13  1  0
 15 16  1  6
 16  9  1  0
 17 15  1  0
 18 17  1  0
 19 17  2  0
M  END
$$$$
