GLH.pdb
     RDKit          3D

 23 23  0  0  1  0  0  0  0  0999 V2000
    7.7001  -18.6014   17.3465 N   0  0  0  0  0  0  0  0  0  0  0  0
    7.3557  -18.3477   18.7102 C   0  0  0  0  0  0  0  0  0  0  0  0
    8.4167  -17.5371   19.4088 C   0  0  0  0  0  0  0  0  0  0  0  0
    9.5977  -17.9094   19.3171 O   0  0  0  0  0  0  0  0  0  0  0  0
    8.4555  -13.0409   19.3129 C   0  0  0  0  0  0  0  0  0  0  0  0
    7.5224  -13.6647   20.2947 C   0  0  2  0  0  0  0  0  0  0  0  0
    6.6129  -12.5621   20.8413 C   0  0  0  0  0  0  0  0  0  0  0  0
    8.2283  -14.3266   21.4595 C   0  0  0  0  0  0  0  0  0  0  0  0
    8.8549  -15.5909   21.0008 C   0  0  2  0  0  0  0  0  0  0  0  0
    8.0509  -16.3866   20.1433 N   0  0  0  0  0  0  0  0  0  0  0  0
    9.5645  -16.3516   22.0879 C   0  0  0  0  0  0  0  0  0  0  0  0
    8.9308  -16.8628   23.0425 O   0  0  0  0  0  0  0  0  0  0  0  0
   10.9650  -16.5196   22.0755 N   0  0  0  0  0  0  0  0  0  0  0  0
   11.6964  -17.2858   23.0950 C   0  0  1  0  0  0  0  0  0  0  0  0
   12.4629  -18.3299   22.3881 C   0  0  0  0  0  0  0  0  0  0  0  0
   11.6858  -19.4680   21.8759 C   0  0  0  0  0  0  0  0  0  0  0  0
   10.4568  -19.9522   22.2214 C   0  0  0  0  0  0  0  0  0  0  0  0
   10.1779  -20.9802   21.3966 N   0  0  0  0  0  0  0  0  0  0  0  0
   11.2097  -21.1185   20.5685 C   0  0  0  0  0  0  0  0  0  0  0  0
   12.1413  -20.2122   20.8365 N   0  0  0  0  0  0  0  0  0  0  0  0
   12.5504  -16.2820   23.8029 C   0  0  0  0  0  0  0  0  0  0  0  0
   12.6790  -15.0073   23.2544 O   0  0  0  0  0  0  0  0  0  0  0  0
   13.1484  -16.5189   24.8527 O   0  0  0  0  0  0  0  0  0  0  0  0
  1  2  1  0
  3  2  1  0
  3  4  2  0
  6  5  1  6
  6  8  1  0
  7  6  1  0
  9  8  1  1
  9 10  1  0
 10  3  1  0
 11  9  1  0
 11 12  2  0
 13 11  1  0
 14 13  1  0
 14 15  1  6
 14 21  1  0
 16 17  2  0
 16 15  1  0
 18 17  1  0
 19 20  2  0
 19 18  1  0
 20 16  1  0
 21 22  1  0
 23 21  2  0
M  END
$$$$
