GLH.pdb
     RDKit          3D

 23 23  0  0  1  0  0  0  0  0999 V2000
    8.6265  -14.4109   20.4923 N   0  0  0  0  0  0  0  0  0  0  0  0
    7.7526  -14.8708   21.5254 C   0  0  0  0  0  0  0  0  0  0  0  0
    8.3757  -14.7162   22.8888 C   0  0  0  0  0  0  0  0  0  0  0  0
    9.6111  -14.7955   22.9839 O   0  0  0  0  0  0  0  0  0  0  0  0
    7.8040  -11.5387   26.0018 C   0  0  0  0  0  0  0  0  0  0  0  0
    6.6296  -12.4466   25.8594 C   0  0  2  0  0  0  0  0  0  0  0  0
    5.4982  -11.8870   26.7245 C   0  0  0  0  0  0  0  0  0  0  0  0
    6.9113  -13.8685   26.2978 C   0  0  0  0  0  0  0  0  0  0  0  0
    7.9140  -14.4745   25.3873 C   0  0  2  0  0  0  0  0  0  0  0  0
    7.5528  -14.4874   24.0146 N   0  0  0  0  0  0  0  0  0  0  0  0
    8.5054  -15.7604   25.8976 C   0  0  0  0  0  0  0  0  0  0  0  0
    8.7882  -15.9086   27.1109 O   0  0  0  0  0  0  0  0  0  0  0  0
    8.7633  -16.8460   25.0345 N   0  0  0  0  0  0  0  0  0  0  0  0
    9.3025  -18.1340   25.4943 C   0  0  1  0  0  0  0  0  0  0  0  0
    9.0485  -19.1188   24.4252 C   0  0  0  0  0  0  0  0  0  0  0  0
    7.6390  -19.4560   24.1777 C   0  0  0  0  0  0  0  0  0  0  0  0
    6.5415  -19.4053   24.9884 C   0  0  0  0  0  0  0  0  0  0  0  0
    5.4732  -19.7629   24.2495 N   0  0  0  0  0  0  0  0  0  0  0  0
    5.9078  -20.0236   23.0197 C   0  0  0  0  0  0  0  0  0  0  0  0
    7.2208  -19.8451   22.9467 N   0  0  0  0  0  0  0  0  0  0  0  0
   10.7542  -17.8820   25.7534 C   0  0  0  0  0  0  0  0  0  0  0  0
   11.5013  -18.8700   26.3921 O   0  0  0  0  0  0  0  0  0  0  0  0
   11.3319  -16.8443   25.4290 O   0  0  0  0  0  0  0  0  0  0  0  0
  1  2  1  0
  3  2  1  0
  3  4  2  0
  6  5  1  1
  6  8  1  0
  7  6  1  0
  9  8  1  1
  9 10  1  0
 10  3  1  0
 11  9  1  0
 11 12  2  0
 13 11  1  0
 14 13  1  0
 14 15  1  6
 14 21  1  0
 16 17  2  0
 16 15  1  0
 18 17  1  0
 19 20  2  0
 19 18  1  0
 20 16  1  0
 21 22  1  0
 23 21  2  0
M  END
$$$$
