GLH.pdb
     RDKit          3D

 23 23  0  0  1  0  0  0  0  0999 V2000
    5.6117  -16.3631   20.8152 N   0  0  0  0  0  0  0  0  0  0  0  0
    5.4695  -16.2999   22.2359 C   0  0  0  0  0  0  0  0  0  0  0  0
    6.7006  -15.7297   22.8920 C   0  0  0  0  0  0  0  0  0  0  0  0
    7.7501  -15.6784   22.2303 O   0  0  0  0  0  0  0  0  0  0  0  0
    7.3791  -11.9718   24.9462 C   0  0  0  0  0  0  0  0  0  0  0  0
    6.5637  -12.9050   25.7758 C   0  0  2  0  0  0  0  0  0  0  0  0
    6.0545  -12.1271   26.9912 C   0  0  0  0  0  0  0  0  0  0  0  0
    7.3401  -14.1089   26.2668 C   0  0  0  0  0  0  0  0  0  0  0  0
    7.7040  -14.9646   25.1104 C   0  0  2  0  0  0  0  0  0  0  0  0
    6.6362  -15.2719   24.2273 N   0  0  0  0  0  0  0  0  0  0  0  0
    8.5860  -16.1306   25.4659 C   0  0  0  0  0  0  0  0  0  0  0  0
    8.1153  -17.1590   26.0089 O   0  0  0  0  0  0  0  0  0  0  0  0
    9.9717  -16.1131   25.2023 N   0  0  0  0  0  0  0  0  0  0  0  0
   10.8663  -17.2399   25.5042 C   0  0  1  0  0  0  0  0  0  0  0  0
   12.0465  -17.1052   24.6287 C   0  0  0  0  0  0  0  0  0  0  0  0
   11.8152  -17.3217   23.1931 C   0  0  0  0  0  0  0  0  0  0  0  0
   10.7079  -17.7320   22.5075 C   0  0  0  0  0  0  0  0  0  0  0  0
   11.0085  -17.7031   21.1946 N   0  0  0  0  0  0  0  0  0  0  0  0
   12.2661  -17.2846   21.0823 C   0  0  0  0  0  0  0  0  0  0  0  0
   12.7816  -17.0449   22.2814 N   0  0  0  0  0  0  0  0  0  0  0  0
   11.1764  -17.1155   26.9624 C   0  0  0  0  0  0  0  0  0  0  0  0
   11.9041  -18.1305   27.5808 O   0  0  0  0  0  0  0  0  0  0  0  0
   10.8251  -16.1581   27.6522 O   0  0  0  0  0  0  0  0  0  0  0  0
  1  2  1  0
  3  2  1  0
  3  4  2  0
  6  5  1  1
  6  8  1  0
  7  6  1  0
  9  8  1  1
  9 10  1  0
 10  3  1  0
 11  9  1  0
 11 12  2  0
 13 11  1  0
 14 13  1  0
 14 15  1  6
 14 21  1  0
 16 17  2  0
 16 15  1  0
 18 17  1  0
 19 20  2  0
 19 18  1  0
 20 16  1  0
 21 22  1  0
 23 21  2  0
M  END
$$$$
