IRA.pdb
     RDKit          3D

 25 24  0  0  1  0  0  0  0  0999 V2000
    7.6988  -11.4745   19.2665 C   0  0  0  0  0  0  0  0  0  0  0  0
    8.1040  -12.7790   18.6760 C   0  0  0  0  0  0  0  0  0  0  0  0
    8.4368  -13.8471   19.7352 C   0  0  2  0  0  0  0  0  0  0  0  0
    9.3776  -13.3030   20.7550 C   0  0  0  0  0  0  0  0  0  0  0  0
    8.8907  -15.0537   18.9912 C   0  0  2  0  0  0  0  0  0  0  0  0
    7.7576  -15.5478   18.1735 N   0  0  0  0  0  0  0  0  0  0  0  0
    9.4007  -16.1697   19.7603 C   0  0  0  0  0  0  0  0  0  0  0  0
    8.6068  -17.0259   20.2591 O   0  0  0  0  0  0  0  0  0  0  0  0
   12.0985  -17.9663   15.7254 N   0  0  0  0  0  0  0  0  0  0  0  0
   12.3992  -19.3488   15.7366 C   0  0  0  0  0  0  0  0  0  0  0  0
   12.1576  -20.0761   14.7011 N   0  0  0  0  0  0  0  0  0  0  0  0
   12.9776  -20.0359   16.8428 N   0  0  0  0  0  0  0  0  0  0  0  0
   13.2693  -19.3718   18.0702 C   0  0  0  0  0  0  0  0  0  0  0  0
   12.0197  -18.8593   18.7719 C   0  0  0  0  0  0  0  0  0  0  0  0
   12.3992  -18.1310   20.0304 C   0  0  0  0  0  0  0  0  0  0  0  0
   11.2404  -17.5717   20.7762 C   0  0  2  0  0  0  0  0  0  0  0  0
   10.7705  -16.3863   20.0058 N   0  0  0  0  0  0  0  0  0  0  0  0
   11.4475  -17.2264   22.1764 C   0  0  0  0  0  0  0  0  0  0  0  0
   12.1329  -16.1753   22.4134 O   0  0  0  0  0  0  0  0  0  0  0  0
   12.3815  -21.0637   14.5927 C   0  0  0  0  0  0  0  0  0  0  0  0
    9.9774  -17.7235   25.5173 C   0  0  1  0  0  0  0  0  0  0  0  0
   11.2210  -17.5273   24.6677 N   0  0  0  0  0  0  0  0  0  0  0  0
   10.9711  -17.9216   23.3030 C   0  0  0  0  0  0  0  0  0  0  0  0
   12.3584  -18.2982   25.2767 O   0  0  0  0  0  0  0  0  0  0  0  0
   12.9673  -17.9382   26.4471 O   0  0  0  0  0  0  0  0  0  0  0  0
  2  3  1  0
  2  1  1  0
  3  4  1  1
  5  7  1  0
  5  3  1  0
  5  6  1  1
  7  8  2  0
 10 12  1  0
 10  9  1  0
 11 10  2  0
 13 12  1  0
 13 14  1  0
 14 15  1  0
 16 15  1  6
 17 16  1  0
 17  7  1  0
 18 19  2  0
 18 16  1  0
 21 20  1  6
 21 23  1  0
 21 22  1  0
 22 18  1  0
 23 24  1  0
 25 23  2  0
M  END
$$$$
