IRA.pdb
     RDKit          3D

 25 24  0  0  1  0  0  0  0  0999 V2000
    6.8579  -11.8001   28.5065 C   0  0  0  0  0  0  0  0  0  0  0  0
    6.2649  -12.9665   27.7974 C   0  0  0  0  0  0  0  0  0  0  0  0
    7.2072  -13.5789   26.7437 C   0  0  2  0  0  0  0  0  0  0  0  0
    7.7554  -12.5212   25.8484 C   0  0  0  0  0  0  0  0  0  0  0  0
    6.4487  -14.6774   26.0853 C   0  0  2  0  0  0  0  0  0  0  0  0
    6.2795  -15.7763   27.0654 N   0  0  0  0  0  0  0  0  0  0  0  0
    6.9996  -15.2470   24.8732 C   0  0  0  0  0  0  0  0  0  0  0  0
    7.5916  -16.3699   24.8991 O   0  0  0  0  0  0  0  0  0  0  0  0
    9.8549  -13.0923   17.9295 N   0  0  0  0  0  0  0  0  0  0  0  0
    8.9885  -13.8637   17.1195 C   0  0  0  0  0  0  0  0  0  0  0  0
    9.3317  -14.1836   15.9198 N   0  0  0  0  0  0  0  0  0  0  0  0
    7.7136  -14.3437   17.5375 N   0  0  0  0  0  0  0  0  0  0  0  0
    7.1589  -13.9969   18.8042 C   0  0  0  0  0  0  0  0  0  0  0  0
    7.7622  -14.7984   19.9488 C   0  0  0  0  0  0  0  0  0  0  0  0
    7.0631  -14.4624   21.2359 C   0  0  0  0  0  0  0  0  0  0  0  0
    7.5633  -15.2249   22.4107 C   0  0  2  0  0  0  0  0  0  0  0  0
    6.9234  -14.6219   23.6133 N   0  0  0  0  0  0  0  0  0  0  0  0
    9.0068  -15.3151   22.5864 C   0  0  0  0  0  0  0  0  0  0  0  0
    9.6183  -14.2332   22.8805 O   0  0  0  0  0  0  0  0  0  0  0  0
    8.7843  -14.7379   15.2637 C   0  0  0  0  0  0  0  0  0  0  0  0
   11.6989  -17.9075   22.9967 C   0  0  1  0  0  0  0  0  0  0  0  0
   11.2310  -16.4934   22.6996 N   0  0  0  0  0  0  0  0  0  0  0  0
    9.8070  -16.4668   22.4727 C   0  0  0  0  0  0  0  0  0  0  0  0
   11.9983  -15.9595   21.5227 O   0  0  0  0  0  0  0  0  0  0  0  0
   13.2593  -15.4398   21.6222 O   0  0  0  0  0  0  0  0  0  0  0  0
  2  3  1  0
  2  1  1  0
  3  4  1  6
  5  7  1  0
  5  3  1  0
  5  6  1  1
  7  8  2  0
 10 12  1  0
 10  9  1  0
 11 10  2  0
 13 12  1  0
 13 14  1  0
 14 15  1  0
 16 15  1  6
 17 16  1  0
 17  7  1  0
 18 19  2  0
 18 16  1  0
 21 20  1  1
 21 23  1  0
 21 22  1  0
 22 18  1  0
 23 24  1  0
 25 23  2  0
M  END
$$$$
