IRA.pdb
     RDKit          3D

 25 24  0  0  1  0  0  0  0  0999 V2000
    6.6380  -10.6157   27.1641 C   0  0  0  0  0  0  0  0  0  0  0  0
    5.9890  -11.7512   26.4541 C   0  0  0  0  0  0  0  0  0  0  0  0
    6.9896  -12.8242   25.9842 C   0  0  2  0  0  0  0  0  0  0  0  0
    8.1120  -12.2026   25.2262 C   0  0  0  0  0  0  0  0  0  0  0  0
    6.1954  -13.8572   25.2648 C   0  0  2  0  0  0  0  0  0  0  0  0
    5.1787  -14.3949   26.1996 N   0  0  0  0  0  0  0  0  0  0  0  0
    6.9081  -14.9806   24.6928 C   0  0  0  0  0  0  0  0  0  0  0  0
    7.2335  -15.9733   25.4145 O   0  0  0  0  0  0  0  0  0  0  0  0
   11.2637  -18.0545   19.6457 N   0  0  0  0  0  0  0  0  0  0  0  0
   10.4054  -18.6750   18.7076 C   0  0  0  0  0  0  0  0  0  0  0  0
   10.7911  -19.7237   18.0666 N   0  0  0  0  0  0  0  0  0  0  0  0
    9.0895  -18.2226   18.4011 N   0  0  0  0  0  0  0  0  0  0  0  0
    8.4750  -17.1567   19.1214 C   0  0  0  0  0  0  0  0  0  0  0  0
    8.7009  -17.2560   20.6233 C   0  0  0  0  0  0  0  0  0  0  0  0
    7.9540  -16.1592   21.3289 C   0  0  0  0  0  0  0  0  0  0  0  0
    8.0490  -16.2224   22.8117 C   0  0  2  0  0  0  0  0  0  0  0  0
    7.2823  -15.0581   23.3372 N   0  0  0  0  0  0  0  0  0  0  0  0
    9.3825  -16.2670   23.3970 C   0  0  0  0  0  0  0  0  0  0  0  0
   10.1081  -15.2261   23.2528 O   0  0  0  0  0  0  0  0  0  0  0  0
   10.2402  -20.2569   17.3960 C   0  0  0  0  0  0  0  0  0  0  0  0
   11.4416  -18.2632   25.8062 C   0  0  1  0  0  0  0  0  0  0  0  0
   11.3150  -17.3337   24.6117 N   0  0  0  0  0  0  0  0  0  0  0  0
    9.9625  -17.3316   24.1110 C   0  0  0  0  0  0  0  0  0  0  0  0
   12.3040  -17.7495   23.5591 O   0  0  0  0  0  0  0  0  0  0  0  0
   11.9369  -18.2373   22.3354 O   0  0  0  0  0  0  0  0  0  0  0  0
  2  3  1  0
  2  1  1  0
  3  4  1  6
  5  7  1  0
  5  3  1  0
  5  6  1  1
  7  8  2  0
 10 12  1  0
 10  9  1  0
 11 10  2  0
 13 12  1  0
 13 14  1  0
 14 15  1  0
 16 15  1  6
 17 16  1  0
 17  7  1  0
 18 19  2  0
 18 16  1  0
 21 20  1  1
 21 23  1  0
 21 22  1  0
 22 18  1  0
 23 24  1  0
 25 23  2  0
M  END
$$$$
