IRA.pdb
     RDKit          3D

 25 24  0  0  1  0  0  0  0  0999 V2000
    7.9227  -12.4061   19.0797 C   0  0  0  0  0  0  0  0  0  0  0  0
    7.9082  -13.8185   19.5484 C   0  0  0  0  0  0  0  0  0  0  0  0
    7.6420  -13.9534   21.0598 C   0  0  2  0  0  0  0  0  0  0  0  0
    8.6005  -13.1208   21.8403 C   0  0  0  0  0  0  0  0  0  0  0  0
    7.6334  -15.4113   21.3594 C   0  0  2  0  0  0  0  0  0  0  0  0
    6.6003  -16.0527   20.5121 N   0  0  0  0  0  0  0  0  0  0  0  0
    7.3972  -15.8184   22.7290 C   0  0  0  0  0  0  0  0  0  0  0  0
    6.2677  -15.6221   23.2748 O   0  0  0  0  0  0  0  0  0  0  0  0
    6.8237  -20.6346   22.0632 N   0  0  0  0  0  0  0  0  0  0  0  0
    5.7934  -21.0419   22.9432 C   0  0  0  0  0  0  0  0  0  0  0  0
    4.6582  -21.4356   22.4786 N   0  0  0  0  0  0  0  0  0  0  0  0
    5.9106  -21.0604   24.3631 N   0  0  0  0  0  0  0  0  0  0  0  0
    6.9004  -20.2937   25.0450 C   0  0  0  0  0  0  0  0  0  0  0  0
    7.1612  -18.9488   24.3818 C   0  0  0  0  0  0  0  0  0  0  0  0
    8.1971  -18.1853   25.1581 C   0  0  0  0  0  0  0  0  0  0  0  0
    8.1193  -16.7110   24.9793 C   0  0  2  0  0  0  0  0  0  0  0  0
    8.3683  -16.4437   23.5350 N   0  0  0  0  0  0  0  0  0  0  0  0
    8.9863  -15.8878   25.8121 C   0  0  0  0  0  0  0  0  0  0  0  0
   10.2263  -15.8694   25.5075 O   0  0  0  0  0  0  0  0  0  0  0  0
    3.8701  -21.7798   23.0244 C   0  0  0  0  0  0  0  0  0  0  0  0
    8.7915  -13.2402   28.4746 C   0  0  1  0  0  0  0  0  0  0  0  0
    9.5271  -14.3341   27.7203 N   0  0  0  0  0  0  0  0  0  0  0  0
    8.6087  -15.1029   26.9170 C   0  0  0  0  0  0  0  0  0  0  0  0
   10.2703  -15.1941   28.7037 O   0  0  0  0  0  0  0  0  0  0  0  0
   11.3259  -14.7433   29.4471 O   0  0  0  0  0  0  0  0  0  0  0  0
  2  3  1  0
  2  1  1  0
  3  4  1  1
  5  7  1  0
  5  3  1  0
  5  6  1  6
  7  8  2  0
 10 12  1  0
 10  9  1  0
 11 10  2  0
 13 12  1  0
 13 14  1  0
 14 15  1  0
 16 15  1  6
 17 16  1  0
 17  7  1  0
 18 19  2  0
 18 16  1  0
 21 20  1  6
 21 23  1  0
 21 22  1  0
 22 18  1  0
 23 24  1  0
 25 23  2  0
M  END
$$$$
