IRA.pdb
     RDKit          3D

 25 24  0  0  1  0  0  0  0  0999 V2000
    6.0001  -11.2977   27.9548 C   0  0  0  0  0  0  0  0  0  0  0  0
    5.5490  -12.5205   27.2364 C   0  0  0  0  0  0  0  0  0  0  0  0
    6.6553  -13.1622   26.3775 C   0  0  2  0  0  0  0  0  0  0  0  0
    7.3101  -12.1408   25.5121 C   0  0  0  0  0  0  0  0  0  0  0  0
    6.0318  -14.3203   25.6808 C   0  0  2  0  0  0  0  0  0  0  0  0
    5.4960  -15.2454   26.7073 N   0  0  0  0  0  0  0  0  0  0  0  0
    6.8608  -15.0928   24.7790 C   0  0  0  0  0  0  0  0  0  0  0  0
    7.6254  -16.0028   25.2254 O   0  0  0  0  0  0  0  0  0  0  0  0
    8.1365  -12.8653   18.8159 N   0  0  0  0  0  0  0  0  0  0  0  0
    8.9603  -13.7688   18.1040 C   0  0  0  0  0  0  0  0  0  0  0  0
   10.0774  -13.3724   17.5995 N   0  0  0  0  0  0  0  0  0  0  0  0
    8.6492  -15.1432   17.8923 N   0  0  0  0  0  0  0  0  0  0  0  0
    7.6789  -15.8242   18.6842 C   0  0  0  0  0  0  0  0  0  0  0  0
    8.1883  -16.1569   20.0793 C   0  0  0  0  0  0  0  0  0  0  0  0
    7.4239  -15.3703   21.1066 C   0  0  0  0  0  0  0  0  0  0  0  0
    7.8014  -15.6847   22.5103 C   0  0  2  0  0  0  0  0  0  0  0  0
    6.8823  -14.9025   23.3837 N   0  0  0  0  0  0  0  0  0  0  0  0
    9.1891  -15.4657   22.8966 C   0  0  0  0  0  0  0  0  0  0  0  0
    9.4161  -14.4982   23.6987 O   0  0  0  0  0  0  0  0  0  0  0  0
   10.6998  -13.9202   17.0080 C   0  0  0  0  0  0  0  0  0  0  0  0
   11.6467  -16.6726   24.4704 C   0  0  1  0  0  0  0  0  0  0  0  0
   11.6257  -16.0825   23.0710 N   0  0  0  0  0  0  0  0  0  0  0  0
   10.3128  -16.2067   22.4872 C   0  0  0  0  0  0  0  0  0  0  0  0
   12.6783  -16.7580   22.2375 O   0  0  0  0  0  0  0  0  0  0  0  0
   14.0161  -16.6792   22.5099 O   0  0  0  0  0  0  0  0  0  0  0  0
  2  3  1  0
  2  1  1  0
  3  4  1  6
  5  7  1  0
  5  3  1  0
  5  6  1  1
  7  8  2  0
 10 12  1  0
 10  9  1  0
 11 10  2  0
 13 12  1  0
 13 14  1  0
 14 15  1  0
 16 15  1  6
 17 16  1  0
 17  7  1  0
 18 19  2  0
 18 16  1  0
 21 20  1  1
 21 23  1  0
 21 22  1  0
 22 18  1  0
 23 24  1  0
 25 23  2  0
M  END
$$$$
