IRA.pdb
     RDKit          3D

 25 24  0  0  1  0  0  0  0  0999 V2000
    7.8997  -12.2281   18.0528 C   0  0  0  0  0  0  0  0  0  0  0  0
    8.2504  -13.5765   18.5759 C   0  0  0  0  0  0  0  0  0  0  0  0
    7.7554  -13.8165   20.0149 C   0  0  2  0  0  0  0  0  0  0  0  0
    8.2500  -12.7474   20.9277 C   0  0  0  0  0  0  0  0  0  0  0  0
    8.1319  -15.2134   20.3644 C   0  0  2  0  0  0  0  0  0  0  0  0
    7.4006  -16.1311   19.4591 N   0  0  0  0  0  0  0  0  0  0  0  0
    7.9005  -15.6558   21.7238 C   0  0  0  0  0  0  0  0  0  0  0  0
    6.7268  -15.9330   22.1210 O   0  0  0  0  0  0  0  0  0  0  0  0
   11.0263  -19.9909   20.7128 N   0  0  0  0  0  0  0  0  0  0  0  0
   11.4558  -20.3245   22.0189 C   0  0  0  0  0  0  0  0  0  0  0  0
   12.7103  -20.4660   22.2755 N   0  0  0  0  0  0  0  0  0  0  0  0
   10.5810  -20.5207   23.1264 N   0  0  0  0  0  0  0  0  0  0  0  0
   10.3419  -19.4936   24.0858 C   0  0  0  0  0  0  0  0  0  0  0  0
    9.6254  -18.2897   23.4909 C   0  0  0  0  0  0  0  0  0  0  0  0
    9.4869  -17.2103   24.5274 C   0  0  0  0  0  0  0  0  0  0  0  0
    8.6125  -16.0821   24.1098 C   0  0  2  0  0  0  0  0  0  0  0  0
    8.9242  -15.8092   22.6788 N   0  0  0  0  0  0  0  0  0  0  0  0
    8.6794  -14.8560   24.8941 C   0  0  0  0  0  0  0  0  0  0  0  0
    9.7868  -14.2204   24.8727 O   0  0  0  0  0  0  0  0  0  0  0  0
   13.1214  -20.6542   23.1881 C   0  0  0  0  0  0  0  0  0  0  0  0
    6.4456  -12.4978   26.7968 C   0  0  1  0  0  0  0  0  0  0  0  0
    7.8034  -13.0921   26.4655 N   0  0  0  0  0  0  0  0  0  0  0  0
    7.6547  -14.2878   25.6728 C   0  0  0  0  0  0  0  0  0  0  0  0
    8.5500  -13.3536   27.7434 O   0  0  0  0  0  0  0  0  0  0  0  0
    9.0460  -12.3586   28.5398 O   0  0  0  0  0  0  0  0  0  0  0  0
  2  3  1  0
  2  1  1  0
  3  4  1  1
  5  7  1  0
  5  3  1  0
  5  6  1  6
  7  8  2  0
 10 12  1  0
 10  9  1  0
 11 10  2  0
 13 12  1  0
 13 14  1  0
 14 15  1  0
 16 15  1  1
 17 16  1  0
 17  7  1  0
 18 19  2  0
 18 16  1  0
 21 20  1  6
 21 23  1  0
 21 22  1  0
 22 18  1  0
 23 24  1  0
 25 23  2  0
M  END
$$$$
