IRA.pdb
     RDKit          3D

 25 24  0  0  1  0  0  0  0  0999 V2000
    6.6453  -11.5327   27.7439 C   0  0  0  0  0  0  0  0  0  0  0  0
    6.1597  -12.7630   27.0617 C   0  0  0  0  0  0  0  0  0  0  0  0
    7.2242  -13.4172   26.1605 C   0  0  2  0  0  0  0  0  0  0  0  0
    7.7925  -12.4219   25.2080 C   0  0  0  0  0  0  0  0  0  0  0  0
    6.5881  -14.6215   25.5601 C   0  0  2  0  0  0  0  0  0  0  0  0
    6.1523  -15.5132   26.6608 N   0  0  0  0  0  0  0  0  0  0  0  0
    7.3748  -15.4116   24.6360 C   0  0  0  0  0  0  0  0  0  0  0  0
    8.1406  -16.3302   25.0625 O   0  0  0  0  0  0  0  0  0  0  0  0
    8.0530  -12.9683   17.1516 N   0  0  0  0  0  0  0  0  0  0  0  0
    8.8922  -13.8232   17.9044 C   0  0  0  0  0  0  0  0  0  0  0  0
    9.6909  -13.3365   18.7903 N   0  0  0  0  0  0  0  0  0  0  0  0
    8.9274  -15.2408   17.7647 N   0  0  0  0  0  0  0  0  0  0  0  0
    8.0612  -16.0909   18.5126 C   0  0  0  0  0  0  0  0  0  0  0  0
    8.6113  -16.4220   19.8925 C   0  0  0  0  0  0  0  0  0  0  0  0
    7.8305  -15.6886   20.9466 C   0  0  0  0  0  0  0  0  0  0  0  0
    8.2060  -16.0537   22.3385 C   0  0  2  0  0  0  0  0  0  0  0  0
    7.3520  -15.2302   23.2396 N   0  0  0  0  0  0  0  0  0  0  0  0
    9.6102  -15.9328   22.7078 C   0  0  0  0  0  0  0  0  0  0  0  0
   10.0651  -14.7488   22.8561 O   0  0  0  0  0  0  0  0  0  0  0  0
   10.4011  -13.8505   19.3089 C   0  0  0  0  0  0  0  0  0  0  0  0
   12.4005  -17.9588   24.1309 C   0  0  1  0  0  0  0  0  0  0  0  0
   11.9050  -16.7882   23.2996 N   0  0  0  0  0  0  0  0  0  0  0  0
   10.5253  -16.9791   22.9254 C   0  0  0  0  0  0  0  0  0  0  0  0
   12.7960  -16.6259   22.1001 O   0  0  0  0  0  0  0  0  0  0  0  0
   14.1020  -16.2291   22.1837 O   0  0  0  0  0  0  0  0  0  0  0  0
  2  3  1  0
  2  1  1  0
  3  4  1  6
  5  7  1  0
  5  3  1  0
  5  6  1  1
  7  8  2  0
 10 12  1  0
 10  9  1  0
 11 10  2  0
 13 12  1  0
 13 14  1  0
 14 15  1  0
 16 15  1  6
 17 16  1  0
 17  7  1  0
 18 19  2  0
 18 16  1  0
 21 20  1  1
 21 23  1  0
 21 22  1  0
 22 18  1  0
 23 24  1  0
 25 23  2  0
M  END
$$$$
