IRA.pdb
     RDKit          3D

 25 24  0  0  1  0  0  0  0  0999 V2000
   20.8071  -23.2083   40.0426 C   0  0  0  0  0  0  0  0  0  0  0  0
   20.1967  -24.3560   39.3181 C   0  0  0  0  0  0  0  0  0  0  0  0
   19.5251  -23.9488   37.9928 C   0  0  2  0  0  0  0  0  0  0  0  0
   18.4404  -22.9559   38.2347 C   0  0  0  0  0  0  0  0  0  0  0  0
   19.1280  -25.2124   37.3139 C   0  0  2  0  0  0  0  0  0  0  0  0
   20.3596  -25.9653   36.9780 N   0  0  0  0  0  0  0  0  0  0  0  0
   18.3296  -25.1108   36.1100 C   0  0  0  0  0  0  0  0  0  0  0  0
   18.8809  -24.8964   34.9865 O   0  0  0  0  0  0  0  0  0  0  0  0
   11.3420  -29.3702   32.9234 N   0  0  0  0  0  0  0  0  0  0  0  0
   11.4929  -28.2046   32.1358 C   0  0  0  0  0  0  0  0  0  0  0  0
   10.8194  -28.0631   31.0467 N   0  0  0  0  0  0  0  0  0  0  0  0
   12.3606  -27.1222   32.4611 N   0  0  0  0  0  0  0  0  0  0  0  0
   13.2877  -27.2015   33.5412 C   0  0  0  0  0  0  0  0  0  0  0  0
   14.0614  -25.9071   33.7472 C   0  0  0  0  0  0  0  0  0  0  0  0
   15.0872  -26.0883   34.8304 C   0  0  0  0  0  0  0  0  0  0  0  0
   16.1497  -25.0477   34.8349 C   0  0  2  0  0  0  0  0  0  0  0  0
   16.9272  -25.2387   36.0913 N   0  0  0  0  0  0  0  0  0  0  0  0
   15.7294  -23.6596   34.6957 C   0  0  0  0  0  0  0  0  0  0  0  0
   15.1249  -23.1398   35.6933 O   0  0  0  0  0  0  0  0  0  0  0  0
   10.8482  -27.2605   30.4202 C   0  0  0  0  0  0  0  0  0  0  0  0
   16.2842  -20.6636   32.5136 C   0  0  1  0  0  0  0  0  0  0  0  0
   15.4459  -21.4616   33.4972 N   0  0  0  0  0  0  0  0  0  0  0  0
   15.9196  -22.8212   33.5820 C   0  0  0  0  0  0  0  0  0  0  0  0
   14.0033  -21.3933   33.0812 O   0  0  0  0  0  0  0  0  0  0  0  0
   13.2289  -20.2772   33.2386 O   0  0  0  0  0  0  0  0  0  0  0  0
  2  3  1  0
  2  1  1  0
  3  4  1  1
  5  7  1  0
  5  3  1  0
  5  6  1  6
  7  8  2  0
 10 12  1  0
 10  9  1  0
 11 10  2  0
 13 12  1  0
 13 14  1  0
 14 15  1  0
 16 15  1  1
 17 16  1  0
 17  7  1  0
 18 19  2  0
 18 16  1  0
 21 20  1  1
 21 23  1  0
 21 22  1  0
 22 18  1  0
 23 24  1  0
 25 23  2  0
M  END
$$$$
