AQV.pdb
     RDKit          3D

 22 21  0  0  1  0  0  0  0  0999 V2000
    7.0573  -12.8840   19.2080 C   0  0  0  0  0  0  0  0  0  0  0  0
    8.4411  -13.1832   19.7688 C   0  0  2  0  0  0  0  0  0  0  0  0
    9.1299  -14.1720   18.9907 N   0  0  0  0  0  0  0  0  0  0  0  0
    8.2344  -13.7435   21.1302 C   0  0  0  0  0  0  0  0  0  0  0  0
    7.5367  -13.0961   21.9337 O   0  0  0  0  0  0  0  0  0  0  0  0
   10.1670  -19.5412   22.7949 N   0  0  0  0  0  0  0  0  0  0  0  0
    9.4418  -19.1485   21.6620 C   0  0  0  0  0  0  0  0  0  0  0  0
    9.3062  -19.9348   20.7035 O   0  0  0  0  0  0  0  0  0  0  0  0
    8.8357  -17.8059   21.5960 C   0  0  0  0  0  0  0  0  0  0  0  0
    9.1264  -17.0053   22.8626 C   0  0  0  0  0  0  0  0  0  0  0  0
    8.5147  -15.6328   22.7940 C   0  0  2  0  0  0  0  0  0  0  0  0
    8.8010  -14.9778   21.5357 N   0  0  0  0  0  0  0  0  0  0  0  0
    8.8785  -14.8130   23.9524 C   0  0  0  0  0  0  0  0  0  0  0  0
   10.0387  -14.3656   24.1298 O   0  0  0  0  0  0  0  0  0  0  0  0
    5.8228  -13.3808   26.3915 C   0  0  0  0  0  0  0  0  0  0  0  0
    7.1863  -12.6887   26.3555 C   0  0  2  0  0  0  0  0  0  0  0  0
    7.1509  -11.7383   25.1846 C   0  0  0  0  0  0  0  0  0  0  0  0
    8.2169  -13.7692   26.1215 C   0  0  2  0  0  0  0  0  0  0  0  0
    7.8945  -14.4987   24.9277 N   0  0  0  0  0  0  0  0  0  0  0  0
    8.3682  -14.6636   27.2827 C   0  0  0  0  0  0  0  0  0  0  0  0
    8.0269  -15.8654   27.1568 O   0  0  0  0  0  0  0  0  0  0  0  0
    8.8663  -14.2437   28.4998 O   0  0  0  0  0  0  0  0  0  0  0  0
  2  4  1  0
  2  1  1  6
  2  3  1  0
  4 12  1  0
  5  4  2  0
  6  7  1  0
  7  8  2  0
  7  9  1  0
  9 10  1  0
 11 10  1  6
 12 11  1  0
 13 11  1  0
 13 19  1  0
 14 13  2  0
 16 15  1  6
 16 17  1  0
 18 19  1  6
 18 16  1  0
 20 18  1  0
 21 20  2  0
 22 20  1  0
M  END
$$$$
