AQV.pdb
     RDKit          3D

 22 21  0  0  1  0  0  0  0  0999 V2000
    7.1093  -12.9873   19.3092 C   0  0  0  0  0  0  0  0  0  0  0  0
    8.2309  -13.8567   19.8613 C   0  0  2  0  0  0  0  0  0  0  0  0
    8.2975  -15.1268   19.1979 N   0  0  0  0  0  0  0  0  0  0  0  0
    7.9065  -14.1099   21.2898 C   0  0  0  0  0  0  0  0  0  0  0  0
    7.7069  -13.1290   22.0312 O   0  0  0  0  0  0  0  0  0  0  0  0
    7.4500  -19.4963   26.2611 N   0  0  0  0  0  0  0  0  0  0  0  0
    6.8633  -18.9606   25.1068 C   0  0  0  0  0  0  0  0  0  0  0  0
    6.3037  -19.7124   24.2840 O   0  0  0  0  0  0  0  0  0  0  0  0
    6.9038  -17.5078   24.8582 C   0  0  0  0  0  0  0  0  0  0  0  0
    7.3539  -17.2033   23.4318 C   0  0  0  0  0  0  0  0  0  0  0  0
    7.3582  -15.7231   23.1643 C   0  0  2  0  0  0  0  0  0  0  0  0
    7.8188  -15.4189   21.8264 N   0  0  0  0  0  0  0  0  0  0  0  0
    8.0904  -14.9828   24.1949 C   0  0  0  0  0  0  0  0  0  0  0  0
    9.3450  -14.9542   24.2480 O   0  0  0  0  0  0  0  0  0  0  0  0
    5.8638  -12.7432   26.9841 C   0  0  0  0  0  0  0  0  0  0  0  0
    7.2839  -12.3162   26.6094 C   0  0  2  0  0  0  0  0  0  0  0  0
    7.1558  -11.4285   25.3965 C   0  0  0  0  0  0  0  0  0  0  0  0
    8.0390  -13.5772   26.2575 C   0  0  2  0  0  0  0  0  0  0  0  0
    7.3721  -14.2605   25.1852 N   0  0  0  0  0  0  0  0  0  0  0  0
    8.2398  -14.4566   27.4227 C   0  0  0  0  0  0  0  0  0  0  0  0
    7.6771  -15.5791   27.4253 O   0  0  0  0  0  0  0  0  0  0  0  0
    9.0157  -14.1055   28.5092 O   0  0  0  0  0  0  0  0  0  0  0  0
  2  4  1  0
  2  1  1  6
  2  3  1  0
  4 12  1  0
  5  4  2  0
  6  7  1  0
  7  8  2  0
  7  9  1  0
  9 10  1  0
 11 10  1  1
 12 11  1  0
 13 11  1  0
 13 19  1  0
 14 13  2  0
 16 15  1  6
 16 17  1  0
 18 19  1  6
 18 16  1  0
 20 18  1  0
 21 20  2  0
 22 20  1  0
M  END
$$$$
