AQV.pdb
     RDKit          3D

 22 21  0  0  1  0  0  0  0  0999 V2000
    7.2557  -16.1711   18.9229 C   0  0  0  0  0  0  0  0  0  0  0  0
    8.3111  -15.4104   19.7142 C   0  0  2  0  0  0  0  0  0  0  0  0
    9.6201  -15.9680   19.5315 N   0  0  0  0  0  0  0  0  0  0  0  0
    7.9533  -15.5589   21.1494 C   0  0  0  0  0  0  0  0  0  0  0  0
    6.8544  -15.1140   21.5315 O   0  0  0  0  0  0  0  0  0  0  0  0
   10.4308  -19.8829   24.9303 N   0  0  0  0  0  0  0  0  0  0  0  0
   11.2297  -18.7624   24.6661 C   0  0  0  0  0  0  0  0  0  0  0  0
   12.4586  -18.8085   24.8731 O   0  0  0  0  0  0  0  0  0  0  0  0
   10.6236  -17.5242   24.1427 C   0  0  0  0  0  0  0  0  0  0  0  0
    9.1096  -17.6635   24.0090 C   0  0  0  0  0  0  0  0  0  0  0  0
    8.4893  -16.4003   23.4779 C   0  0  2  0  0  0  0  0  0  0  0  0
    8.8155  -16.1845   22.0845 N   0  0  0  0  0  0  0  0  0  0  0  0
    8.8040  -15.2413   24.3169 C   0  0  0  0  0  0  0  0  0  0  0  0
    9.8765  -14.5965   24.2091 O   0  0  0  0  0  0  0  0  0  0  0  0
    6.6012  -12.2553   24.8425 C   0  0  0  0  0  0  0  0  0  0  0  0
    6.8666  -12.8292   26.2352 C   0  0  2  0  0  0  0  0  0  0  0  0
    7.1019  -11.6489   27.1446 C   0  0  0  0  0  0  0  0  0  0  0  0
    8.1205  -13.6663   26.1293 C   0  0  2  0  0  0  0  0  0  0  0  0
    7.8723  -14.8114   25.2995 N   0  0  0  0  0  0  0  0  0  0  0  0
    8.6515  -14.0537   27.4481 C   0  0  0  0  0  0  0  0  0  0  0  0
    8.5373  -15.2514   27.8074 O   0  0  0  0  0  0  0  0  0  0  0  0
    9.2673  -13.1640   28.3055 O   0  0  0  0  0  0  0  0  0  0  0  0
  2  4  1  0
  2  1  1  6
  2  3  1  0
  4 12  1  0
  5  4  2  0
  6  7  1  0
  7  8  2  0
  7  9  1  0
  9 10  1  0
 11 10  1  1
 12 11  1  0
 13 11  1  0
 13 19  1  0
 14 13  2  0
 16 15  1  6
 16 17  1  0
 18 19  1  6
 18 16  1  0
 20 18  1  0
 21 20  2  0
 22 20  1  0
M  END
$$$$
