AQV.pdb
     RDKit          3D

 22 21  0  0  1  0  0  0  0  0999 V2000
    8.1089  -12.4971   19.0610 C   0  0  0  0  0  0  0  0  0  0  0  0
    8.4489  -13.9793   18.9821 C   0  0  2  0  0  0  0  0  0  0  0  0
    7.7413  -14.6334   17.9196 N   0  0  0  0  0  0  0  0  0  0  0  0
    8.0006  -14.5854   20.2634 C   0  0  0  0  0  0  0  0  0  0  0  0
    6.7885  -14.8355   20.4043 O   0  0  0  0  0  0  0  0  0  0  0  0
   10.9391  -19.3120   22.9773 N   0  0  0  0  0  0  0  0  0  0  0  0
   11.0752  -18.1685   22.1789 C   0  0  0  0  0  0  0  0  0  0  0  0
   11.6152  -18.2500   21.0578 O   0  0  0  0  0  0  0  0  0  0  0  0
   10.5819  -16.8643   22.6584 C   0  0  0  0  0  0  0  0  0  0  0  0
    9.0588  -16.8520   22.7580 C   0  0  0  0  0  0  0  0  0  0  0  0
    8.5110  -15.4619   22.5846 C   0  0  2  0  0  0  0  0  0  0  0  0
    8.9011  -14.8835   21.3166 N   0  0  0  0  0  0  0  0  0  0  0  0
    8.8376  -14.5990   23.7225 C   0  0  0  0  0  0  0  0  0  0  0  0
    9.9074  -13.9445   23.7931 O   0  0  0  0  0  0  0  0  0  0  0  0
    7.3720  -11.6846   27.1981 C   0  0  0  0  0  0  0  0  0  0  0  0
    7.0283  -12.6075   26.0277 C   0  0  2  0  0  0  0  0  0  0  0  0
    5.7513  -13.3164   26.4049 C   0  0  0  0  0  0  0  0  0  0  0  0
    8.1620  -13.5997   25.9083 C   0  0  2  0  0  0  0  0  0  0  0  0
    7.9213  -14.4826   24.8019 N   0  0  0  0  0  0  0  0  0  0  0  0
    8.3928  -14.3437   27.1591 C   0  0  0  0  0  0  0  0  0  0  0  0
    8.7654  -13.7031   28.1727 O   0  0  0  0  0  0  0  0  0  0  0  0
    8.2192  -15.7089   27.2690 O   0  0  0  0  0  0  0  0  0  0  0  0
  2  4  1  0
  2  1  1  1
  2  3  1  0
  4 12  1  0
  5  4  2  0
  6  7  1  0
  7  8  2  0
  7  9  1  0
  9 10  1  0
 11 10  1  1
 12 11  1  0
 13 11  1  0
 13 19  1  0
 14 13  2  0
 16 15  1  1
 16 17  1  0
 18 19  1  6
 18 16  1  0
 20 18  1  0
 21 20  2  0
 22 20  1  0
M  END
$$$$
