AQV.pdb
     RDKit          3D

 22 21  0  0  1  0  0  0  0  0999 V2000
    8.3546  -12.6460   19.4110 C   0  0  0  0  0  0  0  0  0  0  0  0
    8.1774  -14.1562   19.4929 C   0  0  2  0  0  0  0  0  0  0  0  0
    7.2466  -14.6382   18.5136 N   0  0  0  0  0  0  0  0  0  0  0  0
    7.6089  -14.4437   20.8361 C   0  0  0  0  0  0  0  0  0  0  0  0
    6.4045  -14.1934   21.0318 O   0  0  0  0  0  0  0  0  0  0  0  0
    7.9350  -19.6179   23.8007 N   0  0  0  0  0  0  0  0  0  0  0  0
    7.3296  -18.8227   24.7829 C   0  0  0  0  0  0  0  0  0  0  0  0
    6.7664  -19.3564   25.7592 O   0  0  0  0  0  0  0  0  0  0  0  0
    7.3545  -17.3528   24.6685 C   0  0  0  0  0  0  0  0  0  0  0  0
    7.9183  -16.9127   23.3201 C   0  0  0  0  0  0  0  0  0  0  0  0
    7.8522  -15.4184   23.1615 C   0  0  2  0  0  0  0  0  0  0  0  0
    8.3879  -14.9877   21.8879 N   0  0  0  0  0  0  0  0  0  0  0  0
    8.4627  -14.7201   24.2955 C   0  0  0  0  0  0  0  0  0  0  0  0
    9.7028  -14.7035   24.4946 O   0  0  0  0  0  0  0  0  0  0  0  0
    5.8749  -12.8685   27.0136 C   0  0  0  0  0  0  0  0  0  0  0  0
    7.2748  -12.2772   26.8407 C   0  0  2  0  0  0  0  0  0  0  0  0
    7.1678  -11.2408   25.7498 C   0  0  0  0  0  0  0  0  0  0  0  0
    8.1742  -13.4093   26.4005 C   0  0  2  0  0  0  0  0  0  0  0  0
    7.6372  -14.0266   25.2207 N   0  0  0  0  0  0  0  0  0  0  0  0
    8.4066  -14.3929   27.4727 C   0  0  0  0  0  0  0  0  0  0  0  0
    7.9034  -15.5368   27.3504 O   0  0  0  0  0  0  0  0  0  0  0  0
    9.1498  -14.1170   28.6029 O   0  0  0  0  0  0  0  0  0  0  0  0
  2  4  1  0
  2  1  1  6
  2  3  1  0
  4 12  1  0
  5  4  2  0
  6  7  1  0
  7  8  2  0
  7  9  1  0
  9 10  1  0
 11 10  1  1
 12 11  1  0
 13 11  1  0
 13 19  1  0
 14 13  2  0
 16 15  1  6
 16 17  1  0
 18 19  1  6
 18 16  1  0
 20 18  1  0
 21 20  2  0
 22 20  1  0
M  END
$$$$
