AQV.pdb
     RDKit          3D

 22 21  0  0  1  0  0  0  0  0999 V2000
    8.1743  -12.8951   19.8373 C   0  0  0  0  0  0  0  0  0  0  0  0
    8.0004  -14.4065   19.7732 C   0  0  2  0  0  0  0  0  0  0  0  0
    7.0898  -14.7955   18.7354 N   0  0  0  0  0  0  0  0  0  0  0  0
    7.4077  -14.8200   21.0724 C   0  0  0  0  0  0  0  0  0  0  0  0
    6.1848  -14.6537   21.2414 O   0  0  0  0  0  0  0  0  0  0  0  0
    7.4145  -19.8714   24.3105 N   0  0  0  0  0  0  0  0  0  0  0  0
    7.1992  -18.9594   25.3523 C   0  0  0  0  0  0  0  0  0  0  0  0
    7.0679  -19.3681   26.5232 O   0  0  0  0  0  0  0  0  0  0  0  0
    7.1265  -17.5137   25.0714 C   0  0  0  0  0  0  0  0  0  0  0  0
    7.7630  -17.1796   23.7249 C   0  0  0  0  0  0  0  0  0  0  0  0
    7.6765  -15.7071   23.4298 C   0  0  2  0  0  0  0  0  0  0  0  0
    8.1839  -15.3912   22.1118 N   0  0  0  0  0  0  0  0  0  0  0  0
    8.2992  -14.9005   24.4824 C   0  0  0  0  0  0  0  0  0  0  0  0
    9.5428  -14.8467   24.6501 O   0  0  0  0  0  0  0  0  0  0  0  0
    5.7927  -12.9836   27.2899 C   0  0  0  0  0  0  0  0  0  0  0  0
    7.0562  -12.2639   26.8155 C   0  0  2  0  0  0  0  0  0  0  0  0
    6.6541  -11.4437   25.6150 C   0  0  0  0  0  0  0  0  0  0  0  0
    8.0417  -13.3358   26.4106 C   0  0  2  0  0  0  0  0  0  0  0  0
    7.4820  -14.1398   25.3610 N   0  0  0  0  0  0  0  0  0  0  0  0
    8.4798  -14.1579   27.5523 C   0  0  0  0  0  0  0  0  0  0  0  0
    8.1423  -15.3670   27.5794 O   0  0  0  0  0  0  0  0  0  0  0  0
    9.2420  -13.6627   28.5913 O   0  0  0  0  0  0  0  0  0  0  0  0
  2  4  1  0
  2  1  1  1
  2  3  1  0
  4 12  1  0
  5  4  2  0
  6  7  1  0
  7  8  2  0
  7  9  1  0
  9 10  1  0
 11 10  1  1
 12 11  1  0
 13 11  1  0
 13 19  1  0
 14 13  2  0
 16 15  1  6
 16 17  1  0
 18 19  1  6
 18 16  1  0
 20 18  1  0
 21 20  2  0
 22 20  1  0
M  END
$$$$
