AQV.pdb
     RDKit          3D

 22 21  0  0  1  0  0  0  0  0999 V2000
    7.5041  -16.3271   19.1754 C   0  0  0  0  0  0  0  0  0  0  0  0
    8.4317  -16.5711   20.3581 C   0  0  2  0  0  0  0  0  0  0  0  0
    8.6758  -17.9693   20.5655 N   0  0  0  0  0  0  0  0  0  0  0  0
    7.7294  -16.0520   21.5612 C   0  0  0  0  0  0  0  0  0  0  0  0
    7.2974  -14.8840   21.5329 O   0  0  0  0  0  0  0  0  0  0  0  0
    7.1290  -19.1612   26.8392 N   0  0  0  0  0  0  0  0  0  0  0  0
    7.4064  -19.6238   25.5459 C   0  0  0  0  0  0  0  0  0  0  0  0
    7.9824  -20.7179   25.3839 O   0  0  0  0  0  0  0  0  0  0  0  0
    7.0198  -18.8214   24.3708 C   0  0  0  0  0  0  0  0  0  0  0  0
    6.4025  -17.4897   24.7895 C   0  0  0  0  0  0  0  0  0  0  0  0
    6.9143  -16.3589   23.9399 C   0  0  2  0  0  0  0  0  0  0  0  0
    7.5393  -16.8377   22.7255 N   0  0  0  0  0  0  0  0  0  0  0  0
    7.7782  -15.4515   24.6992 C   0  0  0  0  0  0  0  0  0  0  0  0
    9.0222  -15.6063   24.7783 O   0  0  0  0  0  0  0  0  0  0  0  0
    5.9534  -12.4062   27.0106 C   0  0  0  0  0  0  0  0  0  0  0  0
    7.3068  -12.1380   26.3504 C   0  0  2  0  0  0  0  0  0  0  0  0
    7.0097  -11.5581   24.9899 C   0  0  0  0  0  0  0  0  0  0  0  0
    7.9954  -13.4759   26.2099 C   0  0  2  0  0  0  0  0  0  0  0  0
    7.2070  -14.3443   25.3818 N   0  0  0  0  0  0  0  0  0  0  0  0
    8.2982  -14.0927   27.5134 C   0  0  0  0  0  0  0  0  0  0  0  0
    7.6830  -15.1393   27.8341 O   0  0  0  0  0  0  0  0  0  0  0  0
    9.2242  -13.5754   28.3971 O   0  0  0  0  0  0  0  0  0  0  0  0
  2  4  1  0
  2  1  1  6
  2  3  1  0
  4 12  1  0
  5  4  2  0
  6  7  1  0
  7  8  2  0
  7  9  1  0
  9 10  1  0
 11 10  1  1
 12 11  1  0
 13 11  1  0
 13 19  1  0
 14 13  2  0
 16 15  1  6
 16 17  1  0
 18 19  1  6
 18 16  1  0
 20 18  1  0
 21 20  2  0
 22 20  1  0
M  END
$$$$
