QQD.pdb
     RDKit          3D

 27 26  0  0  1  0  0  0  0  0999 V2000
    8.4368  -15.1213   13.3887 N   0  0  0  0  0  0  0  0  0  0  0  0
    7.6351  -14.3300   14.2175 C   0  0  0  0  0  0  0  0  0  0  0  0
    6.4677  -14.0292   13.8601 O   0  0  0  0  0  0  0  0  0  0  0  0
    8.0972  -13.8135   15.5267 C   0  0  0  0  0  0  0  0  0  0  0  0
    9.5460  -14.1619   15.7902 C   0  0  0  0  0  0  0  0  0  0  0  0
    9.6133  -14.7452   17.1811 C   0  0  2  0  0  0  0  0  0  0  0  0
    8.9726  -13.8348   18.0790 N   0  0  0  0  0  0  0  0  0  0  0  0
   10.9614  -15.1417   17.5894 C   0  0  0  0  0  0  0  0  0  0  0  0
   11.6482  -15.8728   16.8323 O   0  0  0  0  0  0  0  0  0  0  0  0
   16.0646  -13.0082   17.0567 N   0  0  0  0  0  0  0  0  0  0  0  0
   16.4253  -13.7515   18.2018 C   0  0  0  0  0  0  0  0  0  0  0  0
   17.6268  -13.8543   18.5098 O   0  0  0  0  0  0  0  0  0  0  0  0
   15.3840  -14.3901   19.0188 C   0  0  0  0  0  0  0  0  0  0  0  0
   13.9800  -14.1386   18.6184 C   0  0  0  0  0  0  0  0  0  0  0  0
   12.9286  -15.0381   19.1659 C   0  0  2  0  0  0  0  0  0  0  0  0
   11.5758  -14.7427   18.8328 N   0  0  0  0  0  0  0  0  0  0  0  0
   13.0140  -15.2180   20.6321 C   0  0  0  0  0  0  0  0  0  0  0  0
   12.6840  -14.2852   21.3935 O   0  0  0  0  0  0  0  0  0  0  0  0
   13.4619  -16.4243   21.2211 N   0  0  0  0  0  0  0  0  0  0  0  0
   13.5052  -16.5339   22.6928 C   0  0  1  0  0  0  0  0  0  0  0  0
   13.3859  -17.9951   23.0622 C   0  0  0  0  0  0  0  0  0  0  0  0
   11.9907  -18.4670   23.0739 C   0  0  0  0  0  0  0  0  0  0  0  0
   10.9936  -17.7404   23.3050 O   0  0  0  0  0  0  0  0  0  0  0  0
   14.8912  -16.0978   23.0489 C   0  0  0  0  0  0  0  0  0  0  0  0
   15.8238  -15.9857   22.2291 O   0  0  0  0  0  0  0  0  0  0  0  0
   11.7203  -19.8153   22.8131 O   0  0  0  0  0  0  0  0  0  0  0  0
   15.2278  -15.7799   24.3739 O   0  0  0  0  0  0  0  0  0  0  0  0
  1  2  1  0
  2  3  2  0
  2  4  1  0
  4  5  1  0
  5  6  1  0
  6  8  1  0
  6  7  1  1
  8  9  2  0
 11 10  1  0
 11 12  2  0
 13 11  1  0
 14 13  1  0
 15 14  1  1
 16 15  1  0
 16  8  1  0
 17 15  1  0
 17 18  2  0
 19 17  1  0
 20 19  1  0
 20 24  1  0
 20 21  1  6
 22 21  1  0
 22 26  1  0
 23 22  2  0
 24 25  2  0
 24 27  1  0
M  END
$$$$
