QQD.pdb
     RDKit          3D

 27 26  0  0  1  0  0  0  0  0999 V2000
    8.3358  -12.6291   18.1443 N   0  0  0  0  0  0  0  0  0  0  0  0
    7.9771  -13.6869   17.3027 C   0  0  0  0  0  0  0  0  0  0  0  0
    8.0263  -13.5405   16.0548 O   0  0  0  0  0  0  0  0  0  0  0  0
    7.5310  -15.0039   17.8134 C   0  0  0  0  0  0  0  0  0  0  0  0
    7.5040  -15.0419   19.3259 C   0  0  0  0  0  0  0  0  0  0  0  0
    7.0340  -16.4203   19.7240 C   0  0  2  0  0  0  0  0  0  0  0  0
    5.7096  -16.6048   19.2165 N   0  0  0  0  0  0  0  0  0  0  0  0
    7.1731  -16.7004   21.1535 C   0  0  0  0  0  0  0  0  0  0  0  0
    6.6783  -15.9054   21.9917 O   0  0  0  0  0  0  0  0  0  0  0  0
    6.1115  -21.5360   24.8061 N   0  0  0  0  0  0  0  0  0  0  0  0
    6.9357  -20.7506   25.6413 C   0  0  0  0  0  0  0  0  0  0  0  0
    7.1143  -21.0970   26.8234 O   0  0  0  0  0  0  0  0  0  0  0  0
    7.5763  -19.5397   25.1094 C   0  0  0  0  0  0  0  0  0  0  0  0
    7.2801  -19.1982   23.6986 C   0  0  0  0  0  0  0  0  0  0  0  0
    8.0422  -18.0806   23.0785 C   0  0  2  0  0  0  0  0  0  0  0  0
    7.8562  -17.8555   21.6846 N   0  0  0  0  0  0  0  0  0  0  0  0
    9.4963  -18.1411   23.3461 C   0  0  0  0  0  0  0  0  0  0  0  0
   10.1964  -19.0094   22.7853 O   0  0  0  0  0  0  0  0  0  0  0  0
   10.1411  -17.2405   24.2269 N   0  0  0  0  0  0  0  0  0  0  0  0
   11.5719  -17.4349   24.5346 C   0  0  1  0  0  0  0  0  0  0  0  0
   12.3167  -16.1817   24.1338 C   0  0  0  0  0  0  0  0  0  0  0  0
   13.0345  -16.3304   22.8564 C   0  0  0  0  0  0  0  0  0  0  0  0
   13.0732  -17.3859   22.1782 O   0  0  0  0  0  0  0  0  0  0  0  0
   11.6143  -17.5182   26.0277 C   0  0  0  0  0  0  0  0  0  0  0  0
   10.6596  -17.2254   26.7741 O   0  0  0  0  0  0  0  0  0  0  0  0
   13.7341  -15.2377   22.3313 O   0  0  0  0  0  0  0  0  0  0  0  0
   12.7741  -17.9462   26.6922 O   0  0  0  0  0  0  0  0  0  0  0  0
  1  2  1  0
  2  3  2  0
  2  4  1  0
  4  5  1  0
  5  6  1  0
  6  8  1  0
  6  7  1  1
  8  9  2  0
 11 10  1  0
 11 12  2  0
 13 11  1  0
 14 13  1  0
 15 14  1  6
 16 15  1  0
 16  8  1  0
 17 15  1  0
 17 18  2  0
 19 17  1  0
 20 19  1  0
 20 24  1  0
 20 21  1  1
 22 21  1  0
 22 26  1  0
 23 22  2  0
 24 25  2  0
 24 27  1  0
M  END
$$$$
