QQD.pdb
     RDKit          3D

 27 26  0  0  1  0  0  0  0  0999 V2000
    7.8831  -13.0074   17.2092 N   0  0  0  0  0  0  0  0  0  0  0  0
    7.7267  -14.3958   17.1482 C   0  0  0  0  0  0  0  0  0  0  0  0
    7.5118  -14.9552   16.0428 O   0  0  0  0  0  0  0  0  0  0  0  0
    7.8022  -15.2659   18.3447 C   0  0  0  0  0  0  0  0  0  0  0  0
    8.0376  -14.4672   19.6082 C   0  0  0  0  0  0  0  0  0  0  0  0
    8.9567  -15.2860   20.4825 C   0  0  2  0  0  0  0  0  0  0  0  0
    8.4075  -16.6013   20.5998 N   0  0  0  0  0  0  0  0  0  0  0  0
    9.2725  -14.6513   21.7626 C   0  0  0  0  0  0  0  0  0  0  0  0
    9.7277  -13.4800   21.7779 O   0  0  0  0  0  0  0  0  0  0  0  0
    6.1045  -12.7748   26.3326 N   0  0  0  0  0  0  0  0  0  0  0  0
    6.0183  -14.1584   26.0641 C   0  0  0  0  0  0  0  0  0  0  0  0
    5.0019  -14.7861   26.4130 O   0  0  0  0  0  0  0  0  0  0  0  0
    7.1217  -14.8410   25.3742 C   0  0  0  0  0  0  0  0  0  0  0  0
    8.2989  -14.0122   25.0247 C   0  0  0  0  0  0  0  0  0  0  0  0
    9.4121  -14.6629   24.2819 C   0  0  2  0  0  0  0  0  0  0  0  0
    9.0939  -15.2911   23.0439 N   0  0  0  0  0  0  0  0  0  0  0  0
   10.1835  -15.6233   25.1016 C   0  0  0  0  0  0  0  0  0  0  0  0
   10.2374  -15.4808   26.3407 O   0  0  0  0  0  0  0  0  0  0  0  0
   10.8767  -16.7177   24.5319 N   0  0  0  0  0  0  0  0  0  0  0  0
   11.4893  -17.7237   25.4220 C   0  0  1  0  0  0  0  0  0  0  0  0
   10.3821  -18.4285   26.1725 C   0  0  0  0  0  0  0  0  0  0  0  0
   10.8760  -19.5391   27.0044 C   0  0  0  0  0  0  0  0  0  0  0  0
   12.0820  -19.8709   27.1089 O   0  0  0  0  0  0  0  0  0  0  0  0
   12.0931  -18.7197   24.4832 C   0  0  0  0  0  0  0  0  0  0  0  0
   11.7465  -18.8630   23.2943 O   0  0  0  0  0  0  0  0  0  0  0  0
    9.9638  -20.3002   27.7445 O   0  0  0  0  0  0  0  0  0  0  0  0
   13.1200  -19.5777   24.9068 O   0  0  0  0  0  0  0  0  0  0  0  0
  1  2  1  0
  2  3  2  0
  2  4  1  0
  4  5  1  0
  5  6  1  0
  6  8  1  0
  6  7  1  1
  8  9  2  0
 11 10  1  0
 11 12  2  0
 13 11  1  0
 14 13  1  0
 15 14  1  1
 16 15  1  0
 16  8  1  0
 17 15  1  0
 17 18  2  0
 19 17  1  0
 20 19  1  0
 20 24  1  0
 20 21  1  1
 22 21  1  0
 22 26  1  0
 23 22  2  0
 24 25  2  0
 24 27  1  0
M  END
$$$$
