QQD.pdb
     RDKit          3D

 27 26  0  0  1  0  0  0  0  0999 V2000
   17.4280  -13.6103   17.2799 N   0  0  0  0  0  0  0  0  0  0  0  0
   16.7353  -14.1016   16.1687 C   0  0  0  0  0  0  0  0  0  0  0  0
   17.3130  -14.1832   15.0548 O   0  0  0  0  0  0  0  0  0  0  0  0
   15.3226  -14.5424   16.2334 C   0  0  0  0  0  0  0  0  0  0  0  0
   14.7734  -14.4690   17.6415 C   0  0  0  0  0  0  0  0  0  0  0  0
   13.3650  -15.0108   17.5942 C   0  0  2  0  0  0  0  0  0  0  0  0
   12.8511  -14.8055   16.2754 N   0  0  0  0  0  0  0  0  0  0  0  0
   12.5016  -14.5018   18.6604 C   0  0  0  0  0  0  0  0  0  0  0  0
   12.6237  -13.3102   19.0408 O   0  0  0  0  0  0  0  0  0  0  0  0
    7.5529  -12.6764   19.6288 N   0  0  0  0  0  0  0  0  0  0  0  0
    7.8368  -13.5192   18.5320 C   0  0  0  0  0  0  0  0  0  0  0  0
    7.4396  -13.1990   17.3968 O   0  0  0  0  0  0  0  0  0  0  0  0
    8.5989  -14.7586   18.7383 C   0  0  0  0  0  0  0  0  0  0  0  0
    9.1473  -14.9814   20.0965 C   0  0  0  0  0  0  0  0  0  0  0  0
   10.6042  -14.7604   20.3034 C   0  0  2  0  0  0  0  0  0  0  0  0
   11.4924  -15.2912   19.3247 N   0  0  0  0  0  0  0  0  0  0  0  0
   11.0799  -15.1875   21.6379 C   0  0  0  0  0  0  0  0  0  0  0  0
   10.4792  -14.8062   22.6637 O   0  0  0  0  0  0  0  0  0  0  0  0
   12.2079  -16.0254   21.8061 N   0  0  0  0  0  0  0  0  0  0  0  0
   12.6603  -16.3578   23.1715 C   0  0  1  0  0  0  0  0  0  0  0  0
   12.5454  -17.8539   23.3570 C   0  0  0  0  0  0  0  0  0  0  0  0
   13.0765  -18.3089   24.6532 C   0  0  0  0  0  0  0  0  0  0  0  0
   14.1495  -18.9430   24.8018 O   0  0  0  0  0  0  0  0  0  0  0  0
   14.1182  -16.0224   23.1629 C   0  0  0  0  0  0  0  0  0  0  0  0
   14.7634  -15.7242   22.1387 O   0  0  0  0  0  0  0  0  0  0  0  0
   12.3602  -18.0322   25.8235 O   0  0  0  0  0  0  0  0  0  0  0  0
   14.8647  -16.0256   24.3514 O   0  0  0  0  0  0  0  0  0  0  0  0
  1  2  1  0
  2  3  2  0
  2  4  1  0
  4  5  1  0
  5  6  1  0
  6  8  1  0
  6  7  1  6
  8  9  2  0
 11 10  1  0
 11 12  2  0
 13 11  1  0
 14 13  1  0
 15 14  1  6
 16 15  1  0
 16  8  1  0
 17 15  1  0
 17 18  2  0
 19 17  1  0
 20 19  1  0
 20 24  1  0
 20 21  1  6
 22 21  1  0
 22 26  1  0
 23 22  2  0
 24 25  2  0
 24 27  1  0
M  END
$$$$
