QQD.pdb
     RDKit          3D

 27 26  0  0  1  0  0  0  0  0999 V2000
    7.7338  -12.3850   17.5238 N   0  0  0  0  0  0  0  0  0  0  0  0
    7.6489  -13.7160   17.1031 C   0  0  0  0  0  0  0  0  0  0  0  0
    7.2116  -13.9848   15.9552 O   0  0  0  0  0  0  0  0  0  0  0  0
    8.0560  -14.8559   17.9572 C   0  0  0  0  0  0  0  0  0  0  0  0
    8.4438  -14.4065   19.3491 C   0  0  0  0  0  0  0  0  0  0  0  0
    8.7967  -15.6489   20.1311 C   0  0  2  0  0  0  0  0  0  0  0  0
    7.7158  -16.5772   20.0070 N   0  0  0  0  0  0  0  0  0  0  0  0
    9.2019  -15.3811   21.5115 C   0  0  0  0  0  0  0  0  0  0  0  0
   10.1211  -14.5545   21.7381 O   0  0  0  0  0  0  0  0  0  0  0  0
    5.7533  -13.8103   26.2241 N   0  0  0  0  0  0  0  0  0  0  0  0
    6.4208  -13.0425   25.2449 C   0  0  0  0  0  0  0  0  0  0  0  0
    6.0708  -11.8642   25.0495 O   0  0  0  0  0  0  0  0  0  0  0  0
    7.5204  -13.6366   24.4719 C   0  0  0  0  0  0  0  0  0  0  0  0
    7.9156  -15.0174   24.8350 C   0  0  0  0  0  0  0  0  0  0  0  0
    8.9536  -15.6853   24.0039 C   0  0  2  0  0  0  0  0  0  0  0  0
    8.6059  -16.0153   22.6628 N   0  0  0  0  0  0  0  0  0  0  0  0
    9.5311  -16.8898   24.6404 C   0  0  0  0  0  0  0  0  0  0  0  0
    8.9599  -17.9930   24.5171 O   0  0  0  0  0  0  0  0  0  0  0  0
   10.7257  -16.8456   25.3978 N   0  0  0  0  0  0  0  0  0  0  0  0
   11.2340  -18.0876   26.0133 C   0  0  1  0  0  0  0  0  0  0  0  0
   12.7435  -18.0130   26.0525 C   0  0  0  0  0  0  0  0  0  0  0  0
   13.3486  -18.0206   24.7097 C   0  0  0  0  0  0  0  0  0  0  0  0
   12.8452  -18.5766   23.7033 O   0  0  0  0  0  0  0  0  0  0  0  0
   10.7493  -18.0173   27.4269 C   0  0  0  0  0  0  0  0  0  0  0  0
   10.1850  -17.0241   27.9265 O   0  0  0  0  0  0  0  0  0  0  0  0
   14.5716  -17.3715   24.5047 O   0  0  0  0  0  0  0  0  0  0  0  0
   10.9100  -19.1059   28.2980 O   0  0  0  0  0  0  0  0  0  0  0  0
  1  2  1  0
  2  3  2  0
  2  4  1  0
  4  5  1  0
  5  6  1  0
  6  8  1  0
  6  7  1  1
  8  9  2  0
 11 10  1  0
 11 12  2  0
 13 11  1  0
 14 13  1  0
 15 14  1  1
 16 15  1  0
 16  8  1  0
 17 15  1  0
 17 18  2  0
 19 17  1  0
 20 19  1  0
 20 24  1  0
 20 21  1  1
 22 21  1  0
 22 26  1  0
 23 22  2  0
 24 25  2  0
 24 27  1  0
M  END
$$$$
