QQD.pdb
     RDKit          3D

 27 26  0  0  1  0  0  0  0  0999 V2000
    6.4346  -16.0063   19.8730 N   0  0  0  0  0  0  0  0  0  0  0  0
    6.8085  -15.2237   20.9700 C   0  0  0  0  0  0  0  0  0  0  0  0
    6.1347  -14.2066   21.2743 O   0  0  0  0  0  0  0  0  0  0  0  0
    7.9848  -15.5348   21.8150 C   0  0  0  0  0  0  0  0  0  0  0  0
    8.6710  -16.8106   21.3776 C   0  0  0  0  0  0  0  0  0  0  0  0
    9.8980  -16.9701   22.2426 C   0  0  2  0  0  0  0  0  0  0  0  0
   10.6488  -15.7543   22.1820 N   0  0  0  0  0  0  0  0  0  0  0  0
   10.6775  -18.1720   21.9440 C   0  0  0  0  0  0  0  0  0  0  0  0
   10.2925  -19.2851   22.3826 O   0  0  0  0  0  0  0  0  0  0  0  0
   12.4461  -20.6567   16.7060 N   0  0  0  0  0  0  0  0  0  0  0  0
   11.6515  -19.5536   17.0877 C   0  0  0  0  0  0  0  0  0  0  0  0
   10.9182  -19.0078   16.2430 O   0  0  0  0  0  0  0  0  0  0  0  0
   11.6931  -19.0649   18.4729 C   0  0  0  0  0  0  0  0  0  0  0  0
   12.5754  -19.7999   19.4090 C   0  0  0  0  0  0  0  0  0  0  0  0
   12.6063  -19.3565   20.8291 C   0  0  2  0  0  0  0  0  0  0  0  0
   11.8896  -18.1713   21.1606 N   0  0  0  0  0  0  0  0  0  0  0  0
   13.9752  -19.2366   21.3780 C   0  0  0  0  0  0  0  0  0  0  0  0
   14.8551  -20.0548   21.0392 O   0  0  0  0  0  0  0  0  0  0  0  0
   14.3382  -18.2153   22.2879 N   0  0  0  0  0  0  0  0  0  0  0  0
   15.7272  -18.1538   22.7841 C   0  0  1  0  0  0  0  0  0  0  0  0
   16.3120  -16.8165   22.3898 C   0  0  0  0  0  0  0  0  0  0  0  0
   17.6771  -16.6180   22.9060 C   0  0  0  0  0  0  0  0  0  0  0  0
   17.9509  -16.2100   24.0610 O   0  0  0  0  0  0  0  0  0  0  0  0
   15.5814  -18.1529   24.2730 C   0  0  0  0  0  0  0  0  0  0  0  0
   14.5056  -17.9585   24.8724 O   0  0  0  0  0  0  0  0  0  0  0  0
   18.7707  -16.8938   22.0772 O   0  0  0  0  0  0  0  0  0  0  0  0
   16.6888  -18.3792   25.1050 O   0  0  0  0  0  0  0  0  0  0  0  0
  1  2  1  0
  2  3  2  0
  2  4  1  0
  4  5  1  0
  5  6  1  0
  6  8  1  0
  6  7  1  6
  8  9  2  0
 11 10  1  0
 11 12  2  0
 13 11  1  0
 14 13  1  0
 15 14  1  6
 16 15  1  0
 16  8  1  0
 17 15  1  0
 17 18  2  0
 19 17  1  0
 20 19  1  0
 20 24  1  0
 20 21  1  6
 22 21  1  0
 22 26  1  0
 23 22  2  0
 24 25  2  0
 24 27  1  0
M  END
$$$$
