QQD.pdb
     RDKit          3D

 27 26  0  0  1  0  0  0  0  0999 V2000
    6.2327  -13.2304   17.2880 N   0  0  0  0  0  0  0  0  0  0  0  0
    7.5522  -13.3720   16.8468 C   0  0  0  0  0  0  0  0  0  0  0  0
    7.8076  -13.3551   15.6157 O   0  0  0  0  0  0  0  0  0  0  0  0
    8.6947  -13.5453   17.7735 C   0  0  0  0  0  0  0  0  0  0  0  0
    8.2422  -13.6381   19.2145 C   0  0  0  0  0  0  0  0  0  0  0  0
    9.4796  -13.8546   20.0521 C   0  0  2  0  0  0  0  0  0  0  0  0
   10.2962  -14.8305   19.3992 N   0  0  0  0  0  0  0  0  0  0  0  0
    9.1960  -14.1523   21.4564 C   0  0  0  0  0  0  0  0  0  0  0  0
    8.4635  -13.3750   22.1189 O   0  0  0  0  0  0  0  0  0  0  0  0
    5.8068  -17.3690   24.8362 N   0  0  0  0  0  0  0  0  0  0  0  0
    6.3522  -17.7740   23.5983 C   0  0  0  0  0  0  0  0  0  0  0  0
    5.7687  -18.6471   22.9303 O   0  0  0  0  0  0  0  0  0  0  0  0
    7.5952  -17.1611   23.1096 C   0  0  0  0  0  0  0  0  0  0  0  0
    8.1876  -16.0986   23.9551 C   0  0  0  0  0  0  0  0  0  0  0  0
    9.5022  -15.5349   23.5447 C   0  0  2  0  0  0  0  0  0  0  0  0
    9.7110  -15.3056   22.1547 N   0  0  0  0  0  0  0  0  0  0  0  0
   10.6576  -16.2990   24.0648 C   0  0  0  0  0  0  0  0  0  0  0  0
   10.7060  -16.6078   25.2735 O   0  0  0  0  0  0  0  0  0  0  0  0
   11.7314  -16.7033   23.2364 N   0  0  0  0  0  0  0  0  0  0  0  0
   13.0448  -16.9873   23.8479 C   0  0  1  0  0  0  0  0  0  0  0  0
   13.8738  -15.7240   23.7968 C   0  0  0  0  0  0  0  0  0  0  0  0
   14.8676  -15.7391   22.7099 C   0  0  0  0  0  0  0  0  0  0  0  0
   16.0972  -15.9338   22.8699 O   0  0  0  0  0  0  0  0  0  0  0  0
   12.7266  -17.2516   25.2856 C   0  0  0  0  0  0  0  0  0  0  0  0
   11.6471  -16.9510   25.8319 O   0  0  0  0  0  0  0  0  0  0  0  0
   14.4465  -15.5248   21.3924 O   0  0  0  0  0  0  0  0  0  0  0  0
   13.6611  -17.8752   26.1269 O   0  0  0  0  0  0  0  0  0  0  0  0
  1  2  1  0
  2  3  2  0
  2  4  1  0
  4  5  1  0
  5  6  1  0
  6  8  1  0
  6  7  1  6
  8  9  2  0
 11 10  1  0
 11 12  2  0
 13 11  1  0
 14 13  1  0
 15 14  1  6
 16 15  1  0
 16  8  1  0
 17 15  1  0
 17 18  2  0
 19 17  1  0
 20 19  1  0
 20 24  1  0
 20 21  1  1
 22 21  1  0
 22 26  1  0
 23 22  2  0
 24 25  2  0
 24 27  1  0
M  END
$$$$
