QQD.pdb
     RDKit          3D

 27 26  0  0  1  0  0  0  0  0999 V2000
    5.6518  -18.7084   12.9051 N   0  0  0  0  0  0  0  0  0  0  0  0
    6.4174  -19.4198   13.8344 C   0  0  0  0  0  0  0  0  0  0  0  0
    5.9378  -20.4386   14.3941 O   0  0  0  0  0  0  0  0  0  0  0  0
    7.7973  -19.0293   14.2053 C   0  0  0  0  0  0  0  0  0  0  0  0
    7.8403  -18.3053   15.5333 C   0  0  0  0  0  0  0  0  0  0  0  0
    8.1030  -16.8491   15.2333 C   0  0  2  0  0  0  0  0  0  0  0  0
    8.9208  -16.7745   14.0623 N   0  0  0  0  0  0  0  0  0  0  0  0
    8.6214  -16.0962   16.3759 C   0  0  0  0  0  0  0  0  0  0  0  0
    9.8578  -16.0848   16.6011 O   0  0  0  0  0  0  0  0  0  0  0  0
    9.8587  -12.1496   19.1541 N   0  0  0  0  0  0  0  0  0  0  0  0
    9.2506  -12.5384   20.3677 C   0  0  0  0  0  0  0  0  0  0  0  0
    9.8841  -12.4232   21.4327 O   0  0  0  0  0  0  0  0  0  0  0  0
    7.8800  -13.0685   20.3636 C   0  0  0  0  0  0  0  0  0  0  0  0
    7.4107  -13.6832   19.0999 C   0  0  0  0  0  0  0  0  0  0  0  0
    8.3040  -14.6681   18.4317 C   0  0  2  0  0  0  0  0  0  0  0  0
    7.7924  -15.3451   17.2879 N   0  0  0  0  0  0  0  0  0  0  0  0
    8.8593  -15.6805   19.3570 C   0  0  0  0  0  0  0  0  0  0  0  0
    8.2576  -16.7604   19.5312 O   0  0  0  0  0  0  0  0  0  0  0  0
   10.0660  -15.4746   20.0671 N   0  0  0  0  0  0  0  0  0  0  0  0
   10.5619  -16.5354   20.9662 C   0  0  1  0  0  0  0  0  0  0  0  0
   11.5497  -17.3837   20.1978 C   0  0  0  0  0  0  0  0  0  0  0  0
   12.1893  -18.4122   21.0358 C   0  0  0  0  0  0  0  0  0  0  0  0
   13.4277  -18.5252   21.2062 O   0  0  0  0  0  0  0  0  0  0  0  0
   11.3328  -15.7941   22.0122 C   0  0  0  0  0  0  0  0  0  0  0  0
   11.5085  -14.5598   22.0113 O   0  0  0  0  0  0  0  0  0  0  0  0
   11.3900  -19.3466   21.7046 O   0  0  0  0  0  0  0  0  0  0  0  0
   11.9210  -16.4738   23.0901 O   0  0  0  0  0  0  0  0  0  0  0  0
  1  2  1  0
  2  3  2  0
  2  4  1  0
  4  5  1  0
  5  6  1  0
  6  8  1  0
  6  7  1  6
  8  9  2  0
 11 10  1  0
 11 12  2  0
 13 11  1  0
 14 13  1  0
 15 14  1  1
 16 15  1  0
 16  8  1  0
 17 15  1  0
 17 18  2  0
 19 17  1  0
 20 19  1  0
 20 24  1  0
 20 21  1  6
 22 21  1  0
 22 26  1  0
 23 22  2  0
 24 25  2  0
 24 27  1  0
M  END
$$$$
