QQD.pdb
     RDKit          3D

 27 26  0  0  1  0  0  0  0  0999 V2000
    8.7593  -16.2632   14.7137 N   0  0  0  0  0  0  0  0  0  0  0  0
    8.1882  -15.0045   14.9269 C   0  0  0  0  0  0  0  0  0  0  0  0
    8.0068  -14.2252   13.9569 O   0  0  0  0  0  0  0  0  0  0  0  0
    7.7747  -14.5267   16.2666 C   0  0  0  0  0  0  0  0  0  0  0  0
    8.9650  -14.2631   17.1629 C   0  0  0  0  0  0  0  0  0  0  0  0
    8.4204  -13.8635   18.5131 C   0  0  2  0  0  0  0  0  0  0  0  0
    7.7598  -12.6027   18.3732 N   0  0  0  0  0  0  0  0  0  0  0  0
    9.4152  -13.9037   19.5854 C   0  0  0  0  0  0  0  0  0  0  0  0
   10.0223  -12.8514   19.9073 O   0  0  0  0  0  0  0  0  0  0  0  0
    9.4497  -16.9791   25.1034 N   0  0  0  0  0  0  0  0  0  0  0  0
   10.7818  -16.5222   25.0005 C   0  0  0  0  0  0  0  0  0  0  0  0
   11.5558  -16.6745   25.9632 O   0  0  0  0  0  0  0  0  0  0  0  0
   11.2421  -15.8784   23.7623 C   0  0  0  0  0  0  0  0  0  0  0  0
   10.2557  -15.7768   22.6616 C   0  0  0  0  0  0  0  0  0  0  0  0
   10.6843  -15.1093   21.4027 C   0  0  2  0  0  0  0  0  0  0  0  0
    9.7590  -15.0975   20.3201 N   0  0  0  0  0  0  0  0  0  0  0  0
   11.9850  -15.5964   20.8924 C   0  0  0  0  0  0  0  0  0  0  0  0
   12.0482  -16.6900   20.2936 O   0  0  0  0  0  0  0  0  0  0  0  0
   13.1842  -14.8630   21.0564 N   0  0  0  0  0  0  0  0  0  0  0  0
   14.4532  -15.4405   20.5709 C   0  0  1  0  0  0  0  0  0  0  0  0
   15.2145  -14.3603   19.8365 C   0  0  0  0  0  0  0  0  0  0  0  0
   14.8258  -14.2532   18.4199 C   0  0  0  0  0  0  0  0  0  0  0  0
   14.2930  -15.1744   17.7545 O   0  0  0  0  0  0  0  0  0  0  0  0
   15.2143  -15.7479   21.8216 C   0  0  0  0  0  0  0  0  0  0  0  0
   14.7742  -15.5651   22.9736 O   0  0  0  0  0  0  0  0  0  0  0  0
   15.0519  -13.0534   17.7354 O   0  0  0  0  0  0  0  0  0  0  0  0
   16.5125  -16.2782   21.7624 O   0  0  0  0  0  0  0  0  0  0  0  0
  1  2  1  0
  2  3  2  0
  2  4  1  0
  4  5  1  0
  5  6  1  0
  6  8  1  0
  6  7  1  6
  8  9  2  0
 11 10  1  0
 11 12  2  0
 13 11  1  0
 14 13  1  0
 15 14  1  1
 16 15  1  0
 16  8  1  0
 17 15  1  0
 17 18  2  0
 19 17  1  0
 20 19  1  0
 20 24  1  0
 20 21  1  6
 22 21  1  0
 22 26  1  0
 23 22  2  0
 24 25  2  0
 24 27  1  0
M  END
$$$$
