MDD.pdb
     RDKit          3D

 25 24  0  0  1  0  0  0  0  0999 V2000
    6.3900  -11.5009   19.6527 C   0  0  0  0  0  0  0  0  0  0  0  0
    7.4944  -12.8872   19.9165 S   0  0  0  0  0  0  0  0  0  0  0  0
    6.8200  -14.2719   20.7952 C   0  0  0  0  0  0  0  0  0  0  0  0
    7.7218  -15.4273   21.0278 C   0  0  0  0  0  0  0  0  0  0  0  0
    8.0686  -16.2107   19.8263 C   0  0  2  0  0  0  0  0  0  0  0  0
    6.9696  -17.1316   19.5176 N   0  0  0  0  0  0  0  0  0  0  0  0
    9.2421  -17.1398   20.1155 C   0  0  0  0  0  0  0  0  0  0  0  0
    9.0786  -18.2173   20.7302 O   0  0  0  0  0  0  0  0  0  0  0  0
   10.5419  -16.8070   19.6969 N   0  0  0  0  0  0  0  0  0  0  0  0
   11.7093  -17.6577   20.0499 C   0  0  1  0  0  0  0  0  0  0  0  0
   12.6933  -17.5782   18.9197 C   0  0  0  0  0  0  0  0  0  0  0  0
   12.2621  -18.3365   17.7442 C   0  0  0  0  0  0  0  0  0  0  0  0
   12.4494  -17.9386   16.5825 O   0  0  0  0  0  0  0  0  0  0  0  0
   12.2627  -17.1388   21.3472 C   0  0  0  0  0  0  0  0  0  0  0  0
   12.6796  -15.9686   21.4652 O   0  0  0  0  0  0  0  0  0  0  0  0
   11.6036  -19.5729   17.8545 O   0  0  0  0  0  0  0  0  0  0  0  0
   12.3362  -17.9611   22.5009 N   0  0  0  0  0  0  0  0  0  0  0  0
   12.9033  -17.5895   23.7751 C   0  0  1  0  0  0  0  0  0  0  0  0
   12.4840  -18.4741   24.8934 C   0  0  0  0  0  0  0  0  0  0  0  0
   13.0896  -18.1291   26.1903 C   0  0  0  0  0  0  0  0  0  0  0  0
   13.8386  -17.1257   26.3166 O   0  0  0  0  0  0  0  0  0  0  0  0
   14.3492  -17.2943   23.7541 C   0  0  0  0  0  0  0  0  0  0  0  0
   15.1396  -18.1951   23.4060 O   0  0  0  0  0  0  0  0  0  0  0  0
   12.8805  -18.8754   27.3497 O   0  0  0  0  0  0  0  0  0  0  0  0
   14.8296  -16.0687   24.1081 O   0  0  0  0  0  0  0  0  0  0  0  0
  2  1  1  0
  3  2  1  0
  4  5  1  0
  4  3  1  0
  5  7  1  0
  5  6  1  1
  7  9  1  0
  8  7  2  0
  9 10  1  0
 10 11  1  6
 12 11  1  0
 13 12  2  0
 14 10  1  0
 14 15  2  0
 16 12  1  0
 17 14  1  0
 18 17  1  0
 18 22  1  0
 19 20  1  0
 18 19  1  1
 20 21  2  0
 22 23  2  0
 22 25  1  0
 24 20  1  0
M  END
$$$$
