MDD.pdb
     RDKit          3D

 25 24  0  0  1  0  0  0  0  0999 V2000
    7.8808  -12.0548   27.5076 C   0  0  0  0  0  0  0  0  0  0  0  0
    6.2810  -12.3345   26.7502 S   0  0  0  0  0  0  0  0  0  0  0  0
    6.2410  -13.4866   25.4029 C   0  0  0  0  0  0  0  0  0  0  0  0
    7.3686  -14.4461   25.3021 C   0  0  0  0  0  0  0  0  0  0  0  0
    7.3001  -15.3853   24.1660 C   0  0  2  0  0  0  0  0  0  0  0  0
    6.0934  -16.2091   24.2937 N   0  0  0  0  0  0  0  0  0  0  0  0
    8.4349  -16.4003   24.2437 C   0  0  0  0  0  0  0  0  0  0  0  0
    8.2596  -17.5298   24.7525 O   0  0  0  0  0  0  0  0  0  0  0  0
    9.7113  -16.0903   23.7434 N   0  0  0  0  0  0  0  0  0  0  0  0
   10.7923  -17.1105   23.6977 C   0  0  1  0  0  0  0  0  0  0  0  0
   11.8449  -16.6211   22.7466 C   0  0  0  0  0  0  0  0  0  0  0  0
   11.3508  -16.5017   21.3739 C   0  0  0  0  0  0  0  0  0  0  0  0
   10.9137  -17.4704   20.7308 O   0  0  0  0  0  0  0  0  0  0  0  0
   11.3031  -17.2815   25.1007 C   0  0  0  0  0  0  0  0  0  0  0  0
   12.2345  -18.0662   25.3722 O   0  0  0  0  0  0  0  0  0  0  0  0
   11.3387  -15.2745   20.6896 O   0  0  0  0  0  0  0  0  0  0  0  0
   10.7457  -16.5545   26.1838 N   0  0  0  0  0  0  0  0  0  0  0  0
   11.1004  -16.6972   27.5757 C   0  0  1  0  0  0  0  0  0  0  0  0
   12.5162  -17.0948   27.7909 C   0  0  0  0  0  0  0  0  0  0  0  0
   12.6855  -18.4811   28.2570 C   0  0  0  0  0  0  0  0  0  0  0  0
   11.6958  -19.2394   28.4283 O   0  0  0  0  0  0  0  0  0  0  0  0
   10.6457  -15.6006   28.4527 C   0  0  0  0  0  0  0  0  0  0  0  0
   10.8251  -15.7042   29.6833 O   0  0  0  0  0  0  0  0  0  0  0  0
   13.9311  -19.0424   28.5368 O   0  0  0  0  0  0  0  0  0  0  0  0
   10.0369  -14.4913   27.9461 O   0  0  0  0  0  0  0  0  0  0  0  0
  2  1  1  0
  3  2  1  0
  4  5  1  0
  4  3  1  0
  5  7  1  0
  5  6  1  1
  7  9  1  0
  8  7  2  0
  9 10  1  0
 10 11  1  6
 12 11  1  0
 13 12  2  0
 14 10  1  0
 14 15  2  0
 16 12  1  0
 17 14  1  0
 18 17  1  0
 18 22  1  0
 19 20  1  0
 18 19  1  6
 20 21  2  0
 22 23  2  0
 22 25  1  0
 24 20  1  0
M  END
$$$$
