MDD.pdb
     RDKit          3D

 25 24  0  0  1  0  0  0  0  0999 V2000
    7.4152  -11.0020   27.3846 C   0  0  0  0  0  0  0  0  0  0  0  0
    6.0501  -11.8239   26.5647 S   0  0  0  0  0  0  0  0  0  0  0  0
    6.1090  -13.5957   26.5271 C   0  0  0  0  0  0  0  0  0  0  0  0
    6.4092  -14.2331   25.2210 C   0  0  0  0  0  0  0  0  0  0  0  0
    7.3480  -15.3704   25.2733 C   0  0  2  0  0  0  0  0  0  0  0  0
    8.5956  -14.9366   25.9107 N   0  0  0  0  0  0  0  0  0  0  0  0
    7.7846  -15.7670   23.8676 C   0  0  0  0  0  0  0  0  0  0  0  0
    6.9856  -16.3048   23.0689 O   0  0  0  0  0  0  0  0  0  0  0  0
    9.1013  -15.5371   23.4328 N   0  0  0  0  0  0  0  0  0  0  0  0
    9.6959  -16.3230   22.3192 C   0  0  1  0  0  0  0  0  0  0  0  0
   10.1403  -15.3557   21.2614 C   0  0  0  0  0  0  0  0  0  0  0  0
   10.7253  -16.0243   20.0980 C   0  0  0  0  0  0  0  0  0  0  0  0
   10.2809  -17.0911   19.6425 O   0  0  0  0  0  0  0  0  0  0  0  0
   10.8294  -17.1243   22.8948 C   0  0  0  0  0  0  0  0  0  0  0  0
   11.2300  -18.1784   22.3604 O   0  0  0  0  0  0  0  0  0  0  0  0
   11.8357  -15.4988   19.4158 O   0  0  0  0  0  0  0  0  0  0  0  0
   11.4974  -16.7155   24.0777 N   0  0  0  0  0  0  0  0  0  0  0  0
   12.5358  -17.4466   24.7637 C   0  0  1  0  0  0  0  0  0  0  0  0
   13.7966  -16.6769   24.9273 C   0  0  0  0  0  0  0  0  0  0  0  0
   14.5033  -16.4082   23.6640 C   0  0  0  0  0  0  0  0  0  0  0  0
   14.0082  -16.7366   22.5545 O   0  0  0  0  0  0  0  0  0  0  0  0
   12.1015  -18.1523   25.9851 C   0  0  0  0  0  0  0  0  0  0  0  0
   10.9168  -18.0309   26.3579 O   0  0  0  0  0  0  0  0  0  0  0  0
   15.7483  -15.7825   23.6074 O   0  0  0  0  0  0  0  0  0  0  0  0
   12.9648  -18.9226   26.7058 O   0  0  0  0  0  0  0  0  0  0  0  0
  2  1  1  0
  3  2  1  0
  4  5  1  0
  4  3  1  0
  5  7  1  0
  5  6  1  1
  7  9  1  0
  8  7  2  0
  9 10  1  0
 10 11  1  6
 12 11  1  0
 13 12  2  0
 14 10  1  0
 14 15  2  0
 16 12  1  0
 17 14  1  0
 18 17  1  0
 18 22  1  0
 19 20  1  0
 18 19  1  1
 20 21  2  0
 22 23  2  0
 22 25  1  0
 24 20  1  0
M  END
$$$$
