MDD.pdb
     RDKit          3D

 25 24  0  0  1  0  0  0  0  0999 V2000
    7.6010  -11.7574   27.2949 C   0  0  0  0  0  0  0  0  0  0  0  0
    6.5059  -12.4966   26.0842 S   0  0  0  0  0  0  0  0  0  0  0  0
    6.3213  -14.2583   26.1650 C   0  0  0  0  0  0  0  0  0  0  0  0
    7.4207  -15.0785   25.5986 C   0  0  0  0  0  0  0  0  0  0  0  0
    7.1414  -15.6898   24.2849 C   0  0  2  0  0  0  0  0  0  0  0  0
    6.1293  -16.7388   24.4469 N   0  0  0  0  0  0  0  0  0  0  0  0
    8.3632  -16.4480   23.7786 C   0  0  0  0  0  0  0  0  0  0  0  0
    8.6767  -17.5621   24.2539 O   0  0  0  0  0  0  0  0  0  0  0  0
    9.1707  -15.9113   22.7611 N   0  0  0  0  0  0  0  0  0  0  0  0
   10.4565  -16.5516   22.3761 C   0  0  1  0  0  0  0  0  0  0  0  0
   11.0022  -15.8089   21.1918 C   0  0  0  0  0  0  0  0  0  0  0  0
   10.1955  -16.0028   19.9858 C   0  0  0  0  0  0  0  0  0  0  0  0
   10.0668  -15.1257   19.1156 O   0  0  0  0  0  0  0  0  0  0  0  0
   11.3611  -16.4905   23.5746 C   0  0  0  0  0  0  0  0  0  0  0  0
   11.3860  -15.4994   24.3322 O   0  0  0  0  0  0  0  0  0  0  0  0
    9.5094  -17.2026   19.7323 O   0  0  0  0  0  0  0  0  0  0  0  0
   12.2315  -17.5628   23.8988 N   0  0  0  0  0  0  0  0  0  0  0  0
   12.5398  -18.0357   25.2272 C   0  0  1  0  0  0  0  0  0  0  0  0
   11.3453  -18.1777   26.1001 C   0  0  0  0  0  0  0  0  0  0  0  0
   11.6485  -18.6607   27.4575 C   0  0  0  0  0  0  0  0  0  0  0  0
   12.5618  -18.1394   28.1488 O   0  0  0  0  0  0  0  0  0  0  0  0
   13.4633  -19.1857   25.2833 C   0  0  0  0  0  0  0  0  0  0  0  0
   13.8159  -19.6169   26.3999 O   0  0  0  0  0  0  0  0  0  0  0  0
   10.9584  -19.7105   28.0628 O   0  0  0  0  0  0  0  0  0  0  0  0
   13.9344  -19.7748   24.1480 O   0  0  0  0  0  0  0  0  0  0  0  0
  2  1  1  0
  3  2  1  0
  4  5  1  0
  4  3  1  0
  5  7  1  0
  5  6  1  1
  7  9  1  0
  8  7  2  0
  9 10  1  0
 10 11  1  6
 12 11  1  0
 13 12  2  0
 14 10  1  0
 14 15  2  0
 16 12  1  0
 17 14  1  0
 18 17  1  0
 18 22  1  0
 19 20  1  0
 18 19  1  6
 20 21  2  0
 22 23  2  0
 22 25  1  0
 24 20  1  0
M  END
$$$$
