MDD.pdb
     RDKit          3D

 25 24  0  0  1  0  0  0  0  0999 V2000
    7.6910  -11.3303   26.1924 C   0  0  0  0  0  0  0  0  0  0  0  0
    7.0397  -12.8984   26.7653 S   0  0  0  0  0  0  0  0  0  0  0  0
    6.0871  -13.8278   25.5937 C   0  0  0  0  0  0  0  0  0  0  0  0
    6.7664  -14.2250   24.3356 C   0  0  0  0  0  0  0  0  0  0  0  0
    6.5875  -15.6348   23.9381 C   0  0  2  0  0  0  0  0  0  0  0  0
    5.9850  -16.3765   25.0509 N   0  0  0  0  0  0  0  0  0  0  0  0
    7.9402  -16.3118   23.7491 C   0  0  0  0  0  0  0  0  0  0  0  0
    8.2224  -17.3734   24.3482 O   0  0  0  0  0  0  0  0  0  0  0  0
    8.9076  -15.7571   22.8935 N   0  0  0  0  0  0  0  0  0  0  0  0
   10.1652  -16.4838   22.5745 C   0  0  1  0  0  0  0  0  0  0  0  0
   10.9441  -15.6475   21.6019 C   0  0  0  0  0  0  0  0  0  0  0  0
   11.7307  -16.4561   20.6690 C   0  0  0  0  0  0  0  0  0  0  0  0
   12.1326  -17.5988   20.9443 O   0  0  0  0  0  0  0  0  0  0  0  0
   10.8924  -16.7061   23.8708 C   0  0  0  0  0  0  0  0  0  0  0  0
   11.4220  -15.7671   24.4992 O   0  0  0  0  0  0  0  0  0  0  0  0
   12.0846  -15.9888   19.3920 O   0  0  0  0  0  0  0  0  0  0  0  0
   11.0096  -18.0003   24.4398 N   0  0  0  0  0  0  0  0  0  0  0  0
   11.6739  -18.3273   25.6788 C   0  0  1  0  0  0  0  0  0  0  0  0
   10.7402  -18.6912   26.7764 C   0  0  0  0  0  0  0  0  0  0  0  0
   11.4088  -19.0580   28.0357 C   0  0  0  0  0  0  0  0  0  0  0  0
   12.1296  -18.2350   28.6578 O   0  0  0  0  0  0  0  0  0  0  0  0
   12.8290  -19.2368   25.5482 C   0  0  0  0  0  0  0  0  0  0  0  0
   12.6299  -20.4060   25.1602 O   0  0  0  0  0  0  0  0  0  0  0  0
   11.2935  -20.3197   28.6184 O   0  0  0  0  0  0  0  0  0  0  0  0
   14.0943  -18.8257   25.8446 O   0  0  0  0  0  0  0  0  0  0  0  0
  2  1  1  0
  3  2  1  0
  4  5  1  0
  4  3  1  0
  5  7  1  0
  5  6  1  1
  7  9  1  0
  8  7  2  0
  9 10  1  0
 10 11  1  6
 12 11  1  0
 13 12  2  0
 14 10  1  0
 14 15  2  0
 16 12  1  0
 17 14  1  0
 18 17  1  0
 18 22  1  0
 19 20  1  0
 18 19  1  1
 20 21  2  0
 22 23  2  0
 22 25  1  0
 24 20  1  0
M  END
$$$$
