MDD.pdb
     RDKit          3D

 25 24  0  0  1  0  0  0  0  0999 V2000
    7.4991  -12.3136   27.9986 C   0  0  0  0  0  0  0  0  0  0  0  0
    6.8314  -12.6709   26.3744 S   0  0  0  0  0  0  0  0  0  0  0  0
    6.9650  -14.3508   25.8231 C   0  0  0  0  0  0  0  0  0  0  0  0
    6.5146  -14.6447   24.4400 C   0  0  0  0  0  0  0  0  0  0  0  0
    6.5556  -16.0674   24.0504 C   0  0  2  0  0  0  0  0  0  0  0  0
    5.9609  -16.8770   25.1190 N   0  0  0  0  0  0  0  0  0  0  0  0
    7.9962  -16.5622   23.9877 C   0  0  0  0  0  0  0  0  0  0  0  0
    8.3950  -17.4898   24.7267 O   0  0  0  0  0  0  0  0  0  0  0  0
    8.9154  -15.9856   23.0944 N   0  0  0  0  0  0  0  0  0  0  0  0
   10.2718  -16.5637   22.9009 C   0  0  1  0  0  0  0  0  0  0  0  0
   10.8546  -15.9596   21.6569 C   0  0  0  0  0  0  0  0  0  0  0  0
   12.0605  -16.6558   21.2054 C   0  0  0  0  0  0  0  0  0  0  0  0
   13.1112  -16.6775   21.8677 O   0  0  0  0  0  0  0  0  0  0  0  0
   11.0701  -16.2499   24.1348 C   0  0  0  0  0  0  0  0  0  0  0  0
   11.3268  -15.0766   24.4735 O   0  0  0  0  0  0  0  0  0  0  0  0
   12.1082  -17.3499   19.9846 O   0  0  0  0  0  0  0  0  0  0  0  0
   11.5699  -17.2793   24.9733 N   0  0  0  0  0  0  0  0  0  0  0  0
   11.7618  -17.1947   26.4013 C   0  0  1  0  0  0  0  0  0  0  0  0
   10.6516  -16.5071   27.1109 C   0  0  0  0  0  0  0  0  0  0  0  0
   11.0793  -15.3505   27.9154 C   0  0  0  0  0  0  0  0  0  0  0  0
   12.2954  -15.0483   28.0320 O   0  0  0  0  0  0  0  0  0  0  0  0
   12.2031  -18.4456   27.0484 C   0  0  0  0  0  0  0  0  0  0  0  0
   11.9476  -19.5317   26.4895 O   0  0  0  0  0  0  0  0  0  0  0  0
   10.1844  -14.5229   28.5929 O   0  0  0  0  0  0  0  0  0  0  0  0
   12.8744  -18.4337   28.2347 O   0  0  0  0  0  0  0  0  0  0  0  0
  2  1  1  0
  3  2  1  0
  4  5  1  0
  4  3  1  0
  5  7  1  0
  5  6  1  1
  7  9  1  0
  8  7  2  0
  9 10  1  0
 10 11  1  6
 12 11  1  0
 13 12  2  0
 14 10  1  0
 14 15  2  0
 16 12  1  0
 17 14  1  0
 18 17  1  0
 18 22  1  0
 19 20  1  0
 18 19  1  1
 20 21  2  0
 22 23  2  0
 22 25  1  0
 24 20  1  0
M  END
$$$$
