MDD.pdb
     RDKit          3D

 25 24  0  0  1  0  0  0  0  0999 V2000
    7.3809  -12.2428   27.4762 C   0  0  0  0  0  0  0  0  0  0  0  0
    6.9672  -12.5610   25.7618 S   0  0  0  0  0  0  0  0  0  0  0  0
    6.0199  -14.0254   25.4418 C   0  0  0  0  0  0  0  0  0  0  0  0
    6.7661  -15.3047   25.3490 C   0  0  0  0  0  0  0  0  0  0  0  0
    7.4848  -15.5269   24.0795 C   0  0  2  0  0  0  0  0  0  0  0  0
    6.5739  -16.1482   23.1124 N   0  0  0  0  0  0  0  0  0  0  0  0
    8.5789  -16.5727   24.2618 C   0  0  0  0  0  0  0  0  0  0  0  0
    8.3029  -17.7898   24.3519 O   0  0  0  0  0  0  0  0  0  0  0  0
    9.9304  -16.1932   24.3335 N   0  0  0  0  0  0  0  0  0  0  0  0
   11.0070  -17.2008   24.5261 C   0  0  1  0  0  0  0  0  0  0  0  0
   12.2758  -16.6294   23.9644 C   0  0  0  0  0  0  0  0  0  0  0  0
   12.2964  -16.6370   22.5007 C   0  0  0  0  0  0  0  0  0  0  0  0
   11.7522  -17.5268   21.8260 O   0  0  0  0  0  0  0  0  0  0  0  0
   11.0932  -17.4847   25.9994 C   0  0  0  0  0  0  0  0  0  0  0  0
   11.3879  -16.5973   26.8257 O   0  0  0  0  0  0  0  0  0  0  0  0
   12.9378  -15.6310   21.7585 O   0  0  0  0  0  0  0  0  0  0  0  0
   10.8423  -18.7810   26.5181 N   0  0  0  0  0  0  0  0  0  0  0  0
   11.1578  -19.2396   27.8499 C   0  0  1  0  0  0  0  0  0  0  0  0
   10.7276  -20.6372   28.1152 C   0  0  0  0  0  0  0  0  0  0  0  0
    9.3942  -20.9653   27.5840 C   0  0  0  0  0  0  0  0  0  0  0  0
    8.4045  -20.2163   27.7921 O   0  0  0  0  0  0  0  0  0  0  0  0
   12.5280  -18.9370   28.3075 C   0  0  0  0  0  0  0  0  0  0  0  0
   12.7868  -19.0283   29.5248 O   0  0  0  0  0  0  0  0  0  0  0  0
    9.1375  -22.1079   26.8268 O   0  0  0  0  0  0  0  0  0  0  0  0
   13.5027  -18.5604   27.4322 O   0  0  0  0  0  0  0  0  0  0  0  0
  2  1  1  0
  3  2  1  0
  4  5  1  0
  4  3  1  0
  5  7  1  0
  5  6  1  6
  7  9  1  0
  8  7  2  0
  9 10  1  0
 10 11  1  1
 12 11  1  0
 13 12  2  0
 14 10  1  0
 14 15  2  0
 16 12  1  0
 17 14  1  0
 18 17  1  0
 18 22  1  0
 19 20  1  0
 18 19  1  6
 20 21  2  0
 22 23  2  0
 22 25  1  0
 24 20  1  0
M  END
$$$$
