MDD.pdb
     RDKit          3D

 25 24  0  0  1  0  0  0  0  0999 V2000
    8.0241  -11.9110   26.4866 C   0  0  0  0  0  0  0  0  0  0  0  0
    6.6817  -13.0611   26.1923 S   0  0  0  0  0  0  0  0  0  0  0  0
    6.8666  -14.1438   24.8003 C   0  0  0  0  0  0  0  0  0  0  0  0
    7.6148  -13.6180   23.6315 C   0  0  0  0  0  0  0  0  0  0  0  0
    7.6746  -14.5168   22.4626 C   0  0  2  0  0  0  0  0  0  0  0  0
    6.3777  -15.1817   22.2990 N   0  0  0  0  0  0  0  0  0  0  0  0
    8.6363  -15.6702   22.7251 C   0  0  0  0  0  0  0  0  0  0  0  0
    8.2383  -16.7421   23.2331 O   0  0  0  0  0  0  0  0  0  0  0  0
    9.9993  -15.5567   22.4014 N   0  0  0  0  0  0  0  0  0  0  0  0
   10.9462  -16.6783   22.6394 C   0  0  1  0  0  0  0  0  0  0  0  0
   12.2469  -16.3287   21.9775 C   0  0  0  0  0  0  0  0  0  0  0  0
   12.4095  -16.9813   20.6773 C   0  0  0  0  0  0  0  0  0  0  0  0
   11.9140  -18.0899   20.4156 O   0  0  0  0  0  0  0  0  0  0  0  0
   11.0720  -16.8472   24.1274 C   0  0  0  0  0  0  0  0  0  0  0  0
   11.3565  -15.8916   24.8777 O   0  0  0  0  0  0  0  0  0  0  0  0
   13.1419  -16.3916   19.6331 O   0  0  0  0  0  0  0  0  0  0  0  0
   10.8720  -18.1072   24.7476 N   0  0  0  0  0  0  0  0  0  0  0  0
   11.0633  -18.4061   26.1467 C   0  0  1  0  0  0  0  0  0  0  0  0
   10.0080  -19.2835   26.7172 C   0  0  0  0  0  0  0  0  0  0  0  0
   10.2566  -19.6931   28.1093 C   0  0  0  0  0  0  0  0  0  0  0  0
   10.1920  -18.8665   29.0561 O   0  0  0  0  0  0  0  0  0  0  0  0
   12.4361  -18.7986   26.5206 C   0  0  0  0  0  0  0  0  0  0  0  0
   13.1333  -19.4087   25.6846 O   0  0  0  0  0  0  0  0  0  0  0  0
   10.5752  -21.0016   28.4716 O   0  0  0  0  0  0  0  0  0  0  0  0
   12.9470  -18.5117   27.7513 O   0  0  0  0  0  0  0  0  0  0  0  0
  2  1  1  0
  3  2  1  0
  4  5  1  0
  4  3  1  0
  5  7  1  0
  5  6  1  1
  7  9  1  0
  8  7  2  0
  9 10  1  0
 10 11  1  1
 12 11  1  0
 13 12  2  0
 14 10  1  0
 14 15  2  0
 16 12  1  0
 17 14  1  0
 18 17  1  0
 18 22  1  0
 19 20  1  0
 18 19  1  6
 20 21  2  0
 22 23  2  0
 22 25  1  0
 24 20  1  0
M  END
$$$$
