YYL.pdb
     RDKit          3D

 33 34  0  0  1  0  0  0  0  0999 V2000
   21.0368  -11.6301  -26.9430 O   0  0  0  0  0  0  0  0  0  0  0  0
   21.1160  -10.8333  -25.8082 C   0  0  0  0  0  0  0  0  0  0  0  0
   22.3353  -10.7137  -25.1561 C   0  0  0  0  0  0  0  0  0  0  0  0
   22.4148   -9.9252  -24.0328 C   0  0  0  0  0  0  0  0  0  0  0  0
   21.3128   -9.2552  -23.5449 C   0  0  0  0  0  0  0  0  0  0  0  0
   21.4037   -8.4046  -22.3311 C   0  0  0  0  0  0  0  0  0  0  0  0
   21.1292   -9.3361  -21.1431 C   0  0  2  0  0  0  0  0  0  0  0  0
   19.7518   -9.7601  -21.1410 N   0  0  0  0  0  0  0  0  0  0  0  0
   21.3802   -8.5099  -19.9236 C   0  0  0  0  0  0  0  0  0  0  0  0
   22.5103   -8.0426  -19.7475 O   0  0  0  0  0  0  0  0  0  0  0  0
   20.1160   -9.3980  -24.2202 C   0  0  0  0  0  0  0  0  0  0  0  0
   20.0089  -10.1875  -25.3560 C   0  0  0  0  0  0  0  0  0  0  0  0
   20.6833   -2.4633  -21.7465 O   0  0  0  0  0  0  0  0  0  0  0  0
   20.4521   -3.4069  -20.7380 C   0  0  0  0  0  0  0  0  0  0  0  0
   21.2335   -3.3611  -19.6037 C   0  0  0  0  0  0  0  0  0  0  0  0
   21.0185   -4.2885  -18.5936 C   0  0  0  0  0  0  0  0  0  0  0  0
   20.0411   -5.2249  -18.7410 C   0  0  0  0  0  0  0  0  0  0  0  0
   19.7663   -6.2151  -17.7048 C   0  0  0  0  0  0  0  0  0  0  0  0
   20.5778   -7.4937  -17.8261 C   0  0  2  0  0  0  0  0  0  0  0  0
   20.3419   -8.2666  -18.9864 N   0  0  0  0  0  0  0  0  0  0  0  0
   20.4061   -8.2357  -16.5570 C   0  0  0  0  0  0  0  0  0  0  0  0
   19.3221   -8.8900  -16.4274 O   0  0  0  0  0  0  0  0  0  0  0  0
   19.2627   -5.2482  -19.9034 C   0  0  0  0  0  0  0  0  0  0  0  0
   19.4664   -4.3445  -20.8972 C   0  0  0  0  0  0  0  0  0  0  0  0
   21.7077  -11.8990  -15.1587 C   0  0  0  0  0  0  0  0  0  0  0  0
   22.7368  -10.8530  -14.9795 C   0  0  2  0  0  0  0  0  0  0  0  0
   24.0651  -11.4476  -14.4831 C   0  0  0  0  0  0  0  0  0  0  0  0
   22.3726   -9.7847  -14.0382 C   0  0  0  0  0  0  0  0  0  0  0  0
   21.1022   -9.0775  -14.2548 C   0  0  2  0  0  0  0  0  0  0  0  0
   21.3204   -8.2715  -15.5173 N   0  0  0  0  0  0  0  0  0  0  0  0
   20.6220   -8.0907  -13.3115 C   0  0  0  0  0  0  0  0  0  0  0  0
   19.8928   -8.4676  -12.1626 O   0  0  0  0  0  0  0  0  0  0  0  0
   20.8015   -6.8657  -13.4241 O   0  0  0  0  0  0  0  0  0  0  0  0
  2  3  2  0
  2  1  1  0
  4  3  1  0
  5  4  2  0
  6  5  1  0
  7  6  1  0
  7  8  1  1
  9 10  2  0
  9  7  1  0
 11  5  1  0
 11 12  2  0
 12  2  1  0
 13 14  1  0
 14 24  2  0
 15 14  1  0
 15 16  2  0
 16 17  1  0
 17 23  2  0
 17 18  1  0
 19 18  1  1
 19 20  1  0
 20  9  1  0
 21 19  1  0
 21 30  1  0
 22 21  2  0
 24 23  1  0
 26 25  1  1
 26 28  1  0
 27 26  1  0
 29 28  1  1
 29 30  1  0
 29 31  1  0
 31 33  2  0
 31 32  1  0
M  END
$$$$
