YYL.pdb
     RDKit          3D

 33 34  0  0  1  0  0  0  0  0999 V2000
   21.0082  -10.7866    5.6932 O   0  0  0  0  0  0  0  0  0  0  0  0
   20.9427  -12.0983    6.1453 C   0  0  0  0  0  0  0  0  0  0  0  0
   21.6144  -12.4408    7.3106 C   0  0  0  0  0  0  0  0  0  0  0  0
   21.5502  -13.7387    7.7589 C   0  0  0  0  0  0  0  0  0  0  0  0
   20.8355  -14.7007    7.0769 C   0  0  0  0  0  0  0  0  0  0  0  0
   20.7691  -16.1014    7.5653 C   0  0  0  0  0  0  0  0  0  0  0  0
   19.3449  -16.2922    8.1036 C   0  0  2  0  0  0  0  0  0  0  0  0
   19.1509  -15.5202    9.3049 N   0  0  0  0  0  0  0  0  0  0  0  0
   19.2388  -17.7437    8.4421 C   0  0  0  0  0  0  0  0  0  0  0  0
   19.2310  -18.0750    9.6323 O   0  0  0  0  0  0  0  0  0  0  0  0
   20.1796  -14.3230    5.9210 C   0  0  0  0  0  0  0  0  0  0  0  0
   20.2284  -13.0200    5.4471 C   0  0  0  0  0  0  0  0  0  0  0  0
   18.7754  -26.4542    7.9821 O   0  0  0  0  0  0  0  0  0  0  0  0
   18.7915  -25.0976    7.6350 C   0  0  0  0  0  0  0  0  0  0  0  0
   19.8699  -24.6133    6.9267 C   0  0  0  0  0  0  0  0  0  0  0  0
   19.9028  -23.2713    6.5741 C   0  0  0  0  0  0  0  0  0  0  0  0
   18.8709  -22.4589    6.9331 C   0  0  0  0  0  0  0  0  0  0  0  0
   18.8504  -21.0437    6.5776 C   0  0  0  0  0  0  0  0  0  0  0  0
   19.1632  -20.1019    7.7280 C   0  0  2  0  0  0  0  0  0  0  0  0
   19.1489  -18.7225    7.4175 N   0  0  0  0  0  0  0  0  0  0  0  0
   20.4254  -20.5733    8.3405 C   0  0  0  0  0  0  0  0  0  0  0  0
   21.5012  -20.2274    7.7550 O   0  0  0  0  0  0  0  0  0  0  0  0
   17.7885  -22.9775    7.6522 C   0  0  0  0  0  0  0  0  0  0  0  0
   17.7480  -24.2897    8.0018 C   0  0  0  0  0  0  0  0  0  0  0  0
   21.3323  -20.0321   13.4060 C   0  0  0  0  0  0  0  0  0  0  0  0
   21.0813  -20.9884   12.3070 C   0  0  2  0  0  0  0  0  0  0  0  0
   21.0319  -22.4370   12.8200 C   0  0  0  0  0  0  0  0  0  0  0  0
   22.0735  -20.9562   11.2233 C   0  0  0  0  0  0  0  0  0  0  0  0
   21.8453  -21.8161   10.0529 C   0  0  2  0  0  0  0  0  0  0  0  0
   20.5228  -21.3491    9.4837 N   0  0  0  0  0  0  0  0  0  0  0  0
   21.6580  -23.2439   10.1957 C   0  0  0  0  0  0  0  0  0  0  0  0
   20.4092  -23.8498    9.9367 O   0  0  0  0  0  0  0  0  0  0  0  0
   22.5482  -24.0374   10.5473 O   0  0  0  0  0  0  0  0  0  0  0  0
  2  3  2  0
  2  1  1  0
  4  3  1  0
  5  4  2  0
  6  5  1  0
  7  6  1  0
  7  8  1  1
  9 10  2  0
  9  7  1  0
 11  5  1  0
 11 12  2  0
 12  2  1  0
 13 14  1  0
 14 24  2  0
 15 14  1  0
 15 16  2  0
 16 17  1  0
 17 23  2  0
 17 18  1  0
 19 18  1  6
 19 20  1  0
 20  9  1  0
 21 19  1  0
 21 30  1  0
 22 21  2  0
 24 23  1  0
 26 25  1  1
 26 28  1  0
 27 26  1  0
 29 28  1  1
 29 30  1  0
 29 31  1  0
 31 33  2  0
 31 32  1  0
M  END
$$$$
