YYL.pdb
     RDKit          3D

 33 34  0  0  1  0  0  0  0  0999 V2000
   20.1956  -10.7424  -17.5579 O   0  0  0  0  0  0  0  0  0  0  0  0
   20.2782  -12.1259  -17.4682 C   0  0  0  0  0  0  0  0  0  0  0  0
   20.0311  -12.8877  -18.6018 C   0  0  0  0  0  0  0  0  0  0  0  0
   20.1126  -14.2572  -18.5140 C   0  0  0  0  0  0  0  0  0  0  0  0
   20.4332  -14.8842  -17.3286 C   0  0  0  0  0  0  0  0  0  0  0  0
   20.5200  -16.3639  -17.2390 C   0  0  0  0  0  0  0  0  0  0  0  0
   22.0169  -16.6998  -17.2651 C   0  0  2  0  0  0  0  0  0  0  0  0
   22.5589  -16.4911  -18.5841 N   0  0  0  0  0  0  0  0  0  0  0  0
   22.1040  -18.1543  -16.9338 C   0  0  0  0  0  0  0  0  0  0  0  0
   21.9291  -18.9788  -17.8372 O   0  0  0  0  0  0  0  0  0  0  0  0
   20.6725  -14.0935  -16.2212 C   0  0  0  0  0  0  0  0  0  0  0  0
   20.5969  -12.7096  -16.2829 C   0  0  0  0  0  0  0  0  0  0  0  0
   24.2034  -25.8937  -13.7599 O   0  0  0  0  0  0  0  0  0  0  0  0
   24.0407  -24.5110  -13.9106 C   0  0  0  0  0  0  0  0  0  0  0  0
   23.1280  -23.8651  -13.1049 C   0  0  0  0  0  0  0  0  0  0  0  0
   22.9535  -22.4948  -13.2402 C   0  0  0  0  0  0  0  0  0  0  0  0
   23.6859  -21.8144  -14.1646 C   0  0  0  0  0  0  0  0  0  0  0  0
   23.5495  -20.3720  -14.3394 C   0  0  0  0  0  0  0  0  0  0  0  0
   22.4349  -19.9559  -15.2842 C   0  0  2  0  0  0  0  0  0  0  0  0
   22.3820  -18.5806  -15.6084 N   0  0  0  0  0  0  0  0  0  0  0  0
   21.1743  -20.4979  -14.7297 C   0  0  0  0  0  0  0  0  0  0  0  0
   20.7549  -19.9637  -13.6532 O   0  0  0  0  0  0  0  0  0  0  0  0
   24.6055  -22.4957  -14.9695 C   0  0  0  0  0  0  0  0  0  0  0  0
   24.7827  -23.8368  -14.8439 C   0  0  0  0  0  0  0  0  0  0  0  0
   19.1143  -21.8672  -17.9014 C   0  0  0  0  0  0  0  0  0  0  0  0
   18.0744  -22.3129  -16.9498 C   0  0  2  0  0  0  0  0  0  0  0  0
   16.6623  -22.1219  -17.5273 C   0  0  0  0  0  0  0  0  0  0  0  0
   18.0961  -21.6301  -15.6486 C   0  0  0  0  0  0  0  0  0  0  0  0
   19.1319  -22.0209  -14.6813 C   0  0  2  0  0  0  0  0  0  0  0  0
   20.4287  -21.5250  -15.2842 N   0  0  0  0  0  0  0  0  0  0  0  0
   19.4092  -23.4131  -14.4000 C   0  0  0  0  0  0  0  0  0  0  0  0
   20.4630  -24.0964  -15.0451 O   0  0  0  0  0  0  0  0  0  0  0  0
   18.7669  -24.1082  -13.5938 O   0  0  0  0  0  0  0  0  0  0  0  0
  2  3  2  0
  2  1  1  0
  4  3  1  0
  5  4  2  0
  6  5  1  0
  7  6  1  0
  7  8  1  6
  9 10  2  0
  9  7  1  0
 11  5  1  0
 11 12  2  0
 12  2  1  0
 13 14  1  0
 14 24  2  0
 15 14  1  0
 15 16  2  0
 16 17  1  0
 17 23  2  0
 17 18  1  0
 19 18  1  1
 19 20  1  0
 20  9  1  0
 21 19  1  0
 21 30  1  0
 22 21  2  0
 24 23  1  0
 26 25  1  6
 26 28  1  0
 27 26  1  0
 29 28  1  6
 29 30  1  0
 29 31  1  0
 31 33  2  0
 31 32  1  0
M  END
$$$$
