YYL.pdb
     RDKit          3D

 33 34  0  0  1  0  0  0  0  0999 V2000
   26.1301   -4.7447  -25.2510 O   0  0  0  0  0  0  0  0  0  0  0  0
   25.2558   -5.0086  -24.2046 C   0  0  0  0  0  0  0  0  0  0  0  0
   23.9026   -5.1483  -24.4798 C   0  0  0  0  0  0  0  0  0  0  0  0
   23.0365   -5.4095  -23.4448 C   0  0  0  0  0  0  0  0  0  0  0  0
   23.4840   -5.5346  -22.1465 C   0  0  0  0  0  0  0  0  0  0  0  0
   22.5443   -5.8168  -21.0319 C   0  0  0  0  0  0  0  0  0  0  0  0
   22.6588   -7.3219  -20.7561 C   0  0  2  0  0  0  0  0  0  0  0  0
   22.0564   -8.0788  -21.8244 N   0  0  0  0  0  0  0  0  0  0  0  0
   21.8811   -7.5567  -19.5020 C   0  0  0  0  0  0  0  0  0  0  0  0
   20.8695   -8.2640  -19.5564 O   0  0  0  0  0  0  0  0  0  0  0  0
   24.8375   -5.3892  -21.9107 C   0  0  0  0  0  0  0  0  0  0  0  0
   25.7327   -5.1253  -22.9372 C   0  0  0  0  0  0  0  0  0  0  0  0
   19.6520  -12.6065  -20.0446 O   0  0  0  0  0  0  0  0  0  0  0  0
   20.2056  -11.6461  -19.1889 C   0  0  0  0  0  0  0  0  0  0  0  0
   19.3549  -10.8899  -18.4119 C   0  0  0  0  0  0  0  0  0  0  0  0
   19.8859   -9.9332  -17.5580 C   0  0  0  0  0  0  0  0  0  0  0  0
   21.2352   -9.7595  -17.5030 C   0  0  0  0  0  0  0  0  0  0  0  0
   21.8454   -8.7760  -16.6141 C   0  0  0  0  0  0  0  0  0  0  0  0
   21.6680   -7.3334  -17.0564 C   0  0  2  0  0  0  0  0  0  0  0  0
   22.2955   -6.9793  -18.2729 N   0  0  0  0  0  0  0  0  0  0  0  0
   22.0457   -6.4803  -15.9075 C   0  0  0  0  0  0  0  0  0  0  0  0
   23.2923   -6.3512  -15.6855 O   0  0  0  0  0  0  0  0  0  0  0  0
   22.0754  -10.5412  -18.3033 C   0  0  0  0  0  0  0  0  0  0  0  0
   21.5643  -11.4798  -19.1421 C   0  0  0  0  0  0  0  0  0  0  0  0
   21.8973   -2.3009  -15.4317 C   0  0  0  0  0  0  0  0  0  0  0  0
   20.6071   -2.9366  -15.0897 C   0  0  2  0  0  0  0  0  0  0  0  0
   19.5171   -1.8878  -14.8139 C   0  0  0  0  0  0  0  0  0  0  0  0
   20.6482   -3.8233  -13.9185 C   0  0  0  0  0  0  0  0  0  0  0  0
   21.6094   -4.9356  -13.9284 C   0  0  2  0  0  0  0  0  0  0  0  0
   21.1603   -5.8226  -15.0697 N   0  0  0  0  0  0  0  0  0  0  0  0
   21.7060   -5.8541  -12.8143 C   0  0  0  0  0  0  0  0  0  0  0  0
   22.3724   -5.4946  -11.6225 O   0  0  0  0  0  0  0  0  0  0  0  0
   21.2283   -7.0019  -12.8067 O   0  0  0  0  0  0  0  0  0  0  0  0
  2  3  2  0
  2  1  1  0
  4  3  1  0
  5  4  2  0
  6  5  1  0
  7  6  1  0
  7  8  1  6
  9 10  2  0
  9  7  1  0
 11  5  1  0
 11 12  2  0
 12  2  1  0
 13 14  1  0
 14 24  2  0
 15 14  1  0
 15 16  2  0
 16 17  1  0
 17 23  2  0
 17 18  1  0
 19 18  1  1
 19 20  1  0
 20  9  1  0
 21 19  1  0
 21 30  1  0
 22 21  2  0
 24 23  1  0
 26 25  1  1
 26 28  1  0
 27 26  1  0
 29 28  1  1
 29 30  1  0
 29 31  1  0
 31 33  2  0
 31 32  1  0
M  END
$$$$
