YYL.pdb
     RDKit          3D

 33 34  0  0  1  0  0  0  0  0999 V2000
   29.3188  -16.5830  -22.2053 O   0  0  0  0  0  0  0  0  0  0  0  0
   28.5798  -17.2346  -21.2263 C   0  0  0  0  0  0  0  0  0  0  0  0
   27.5873  -18.1235  -21.6152 C   0  0  0  0  0  0  0  0  0  0  0  0
   26.8553  -18.7688  -20.6470 C   0  0  0  0  0  0  0  0  0  0  0  0
   27.0870  -18.5511  -19.3053 C   0  0  0  0  0  0  0  0  0  0  0  0
   26.2936  -19.2507  -18.2633 C   0  0  0  0  0  0  0  0  0  0  0  0
   27.2528  -20.2514  -17.6053 C   0  0  2  0  0  0  0  0  0  0  0  0
   27.4361  -21.4055  -18.4488 N   0  0  0  0  0  0  0  0  0  0  0  0
   26.5765  -20.6801  -16.3437 C   0  0  0  0  0  0  0  0  0  0  0  0
   25.6522  -21.4969  -16.4155 O   0  0  0  0  0  0  0  0  0  0  0  0
   28.0829  -17.6594  -18.9560 C   0  0  0  0  0  0  0  0  0  0  0  0
   28.8360  -16.9951  -19.9132 C   0  0  0  0  0  0  0  0  0  0  0  0
   23.9562  -21.2508   -8.0338 O   0  0  0  0  0  0  0  0  0  0  0  0
   24.7001  -20.9370   -9.1781 C   0  0  0  0  0  0  0  0  0  0  0  0
   25.6937  -21.8057   -9.5746 C   0  0  0  0  0  0  0  0  0  0  0  0
   26.4411  -21.5108  -10.7064 C   0  0  0  0  0  0  0  0  0  0  0  0
   26.1796  -20.3709  -11.4035 C   0  0  0  0  0  0  0  0  0  0  0  0
   26.9277  -20.0198  -12.6063 C   0  0  0  0  0  0  0  0  0  0  0  0
   26.2899  -20.4892  -13.9028 C   0  0  2  0  0  0  0  0  0  0  0  0
   26.9871  -20.1599  -15.0880 N   0  0  0  0  0  0  0  0  0  0  0  0
   24.8817  -20.0343  -13.8804 C   0  0  0  0  0  0  0  0  0  0  0  0
   24.6706  -18.8319  -14.2403 O   0  0  0  0  0  0  0  0  0  0  0  0
   25.1648  -19.5067  -10.9780 C   0  0  0  0  0  0  0  0  0  0  0  0
   24.4284  -19.7873   -9.8714 C   0  0  0  0  0  0  0  0  0  0  0  0
   21.1354  -18.3084  -15.6137 C   0  0  0  0  0  0  0  0  0  0  0  0
   22.0552  -19.4146  -15.9539 C   0  0  2  0  0  0  0  0  0  0  0  0
   21.7773  -19.9665  -17.3619 C   0  0  0  0  0  0  0  0  0  0  0  0
   22.0096  -20.5593  -15.0334 C   0  0  0  0  0  0  0  0  0  0  0  0
   22.3633  -20.3272  -13.6255 C   0  0  2  0  0  0  0  0  0  0  0  0
   23.7943  -20.8051  -13.5039 N   0  0  0  0  0  0  0  0  0  0  0  0
   21.6880  -21.0305  -12.5561 C   0  0  0  0  0  0  0  0  0  0  0  0
   20.6226  -20.4364  -11.8450 O   0  0  0  0  0  0  0  0  0  0  0  0
   21.9753  -22.1803  -12.1803 O   0  0  0  0  0  0  0  0  0  0  0  0
  2  3  2  0
  2  1  1  0
  4  3  1  0
  5  4  2  0
  6  5  1  0
  7  6  1  0
  7  8  1  6
  9 10  2  0
  9  7  1  0
 11  5  1  0
 11 12  2  0
 12  2  1  0
 13 14  1  0
 14 24  2  0
 15 14  1  0
 15 16  2  0
 16 17  1  0
 17 23  2  0
 17 18  1  0
 19 18  1  1
 19 20  1  0
 20  9  1  0
 21 19  1  0
 21 30  1  0
 22 21  2  0
 24 23  1  0
 26 25  1  1
 26 28  1  0
 27 26  1  0
 29 28  1  6
 29 30  1  0
 29 31  1  0
 31 33  2  0
 31 32  1  0
M  END
$$$$
