YYL.pdb
     RDKit          3D

 33 34  0  0  1  0  0  0  0  0999 V2000
   25.6897  -15.1607  -21.7382 O   0  0  0  0  0  0  0  0  0  0  0  0
   24.7968  -14.2583  -21.1747 C   0  0  0  0  0  0  0  0  0  0  0  0
   24.8750  -12.9211  -21.5384 C   0  0  0  0  0  0  0  0  0  0  0  0
   23.9918  -12.0272  -20.9812 C   0  0  0  0  0  0  0  0  0  0  0  0
   23.0357  -12.4314  -20.0735 C   0  0  0  0  0  0  0  0  0  0  0  0
   22.0838  -11.4618  -19.4745 C   0  0  0  0  0  0  0  0  0  0  0  0
   20.7103  -11.7979  -20.0702 C   0  0  2  0  0  0  0  0  0  0  0  0
   20.6632  -11.4402  -21.4655 N   0  0  0  0  0  0  0  0  0  0  0  0
   19.7340  -10.9489  -19.3227 C   0  0  0  0  0  0  0  0  0  0  0  0
   19.4844   -9.8171  -19.7508 O   0  0  0  0  0  0  0  0  0  0  0  0
   22.9879  -13.7701  -19.7355 C   0  0  0  0  0  0  0  0  0  0  0  0
   23.8675  -14.6927  -20.2831 C   0  0  0  0  0  0  0  0  0  0  0  0
   13.5468  -12.2131  -21.3573 O   0  0  0  0  0  0  0  0  0  0  0  0
   14.3843  -11.9546  -20.2652 C   0  0  0  0  0  0  0  0  0  0  0  0
   15.4263  -12.8216  -20.0165 C   0  0  0  0  0  0  0  0  0  0  0  0
   16.2667  -12.5811  -18.9383 C   0  0  0  0  0  0  0  0  0  0  0  0
   16.0472  -11.4949  -18.1473 C   0  0  0  0  0  0  0  0  0  0  0  0
   16.9075  -11.1899  -17.0086 C   0  0  0  0  0  0  0  0  0  0  0  0
   18.2568  -10.5990  -17.3805 C   0  0  2  0  0  0  0  0  0  0  0  0
   19.1058  -11.4323  -18.1447 N   0  0  0  0  0  0  0  0  0  0  0  0
   18.8665  -10.0945  -16.1298 C   0  0  0  0  0  0  0  0  0  0  0  0
   19.7299  -10.8493  -15.5777 O   0  0  0  0  0  0  0  0  0  0  0  0
   14.9815  -10.6312  -18.4230 C   0  0  0  0  0  0  0  0  0  0  0  0
   14.1539  -10.8590  -19.4760 C   0  0  0  0  0  0  0  0  0  0  0  0
   23.1195   -7.3933  -14.9005 C   0  0  0  0  0  0  0  0  0  0  0  0
   21.8509   -7.6361  -14.1813 C   0  0  2  0  0  0  0  0  0  0  0  0
   22.0550   -8.5696  -12.9767 C   0  0  0  0  0  0  0  0  0  0  0  0
   20.7822   -8.2270  -14.9990 C   0  0  0  0  0  0  0  0  0  0  0  0
   19.4277   -8.2810  -14.4301 C   0  0  2  0  0  0  0  0  0  0  0  0
   18.5737   -8.8835  -15.5249 N   0  0  0  0  0  0  0  0  0  0  0  0
   18.7120   -7.0730  -14.0796 C   0  0  0  0  0  0  0  0  0  0  0  0
   18.6305   -6.6304  -12.7413 O   0  0  0  0  0  0  0  0  0  0  0  0
   18.1248   -6.3424  -14.8964 O   0  0  0  0  0  0  0  0  0  0  0  0
  2  3  2  0
  2  1  1  0
  4  3  1  0
  5  4  2  0
  6  5  1  0
  7  6  1  0
  7  8  1  6
  9 10  2  0
  9  7  1  0
 11  5  1  0
 11 12  2  0
 12  2  1  0
 13 14  1  0
 14 24  2  0
 15 14  1  0
 15 16  2  0
 16 17  1  0
 17 23  2  0
 17 18  1  0
 19 18  1  1
 19 20  1  0
 20  9  1  0
 21 19  1  0
 21 30  1  0
 22 21  2  0
 24 23  1  0
 26 25  1  6
 26 28  1  0
 27 26  1  0
 29 28  1  6
 29 30  1  0
 29 31  1  0
 31 33  2  0
 31 32  1  0
M  END
$$$$
