YYL.pdb
     RDKit          3D

 33 34  0  0  1  0  0  0  0  0999 V2000
   16.2508  -21.4803   -0.5878 O   0  0  0  0  0  0  0  0  0  0  0  0
   16.5909  -20.7748    0.5593 C   0  0  0  0  0  0  0  0  0  0  0  0
   16.6078  -19.3878    0.5137 C   0  0  0  0  0  0  0  0  0  0  0  0
   16.9443  -18.6887    1.6485 C   0  0  0  0  0  0  0  0  0  0  0  0
   17.2632  -19.3356    2.8238 C   0  0  0  0  0  0  0  0  0  0  0  0
   17.6259  -18.5759    4.0470 C   0  0  0  0  0  0  0  0  0  0  0  0
   16.3762  -18.5901    4.9372 C   0  0  2  0  0  0  0  0  0  0  0  0
   15.3794  -17.6848    4.4235 N   0  0  0  0  0  0  0  0  0  0  0  0
   16.8327  -18.0964    6.2715 C   0  0  0  0  0  0  0  0  0  0  0  0
   16.8683  -16.8777    6.4714 O   0  0  0  0  0  0  0  0  0  0  0  0
   17.2356  -20.7169    2.8314 C   0  0  0  0  0  0  0  0  0  0  0  0
   16.8995  -21.4461    1.7001 C   0  0  0  0  0  0  0  0  0  0  0  0
   11.4256  -17.4250    9.4697 O   0  0  0  0  0  0  0  0  0  0  0  0
   12.7661  -17.8240    9.5400 C   0  0  0  0  0  0  0  0  0  0  0  0
   13.0625  -19.1613    9.3879 C   0  0  0  0  0  0  0  0  0  0  0  0
   14.3857  -19.5750    9.4546 C   0  0  0  0  0  0  0  0  0  0  0  0
   15.3654  -18.6540    9.6683 C   0  0  0  0  0  0  0  0  0  0  0  0
   16.7728  -19.0341    9.7354 C   0  0  0  0  0  0  0  0  0  0  0  0
   17.6120  -18.5472    8.5663 C   0  0  2  0  0  0  0  0  0  0  0  0
   17.2176  -19.0085    7.2893 N   0  0  0  0  0  0  0  0  0  0  0  0
   19.0255  -18.8276    8.9034 C   0  0  0  0  0  0  0  0  0  0  0  0
   19.5395  -19.8618    8.3682 O   0  0  0  0  0  0  0  0  0  0  0  0
   15.0358  -17.3027    9.8193 C   0  0  0  0  0  0  0  0  0  0  0  0
   13.7434  -16.8889    9.7557 C   0  0  0  0  0  0  0  0  0  0  0  0
   23.2569  -17.0088    8.1922 C   0  0  0  0  0  0  0  0  0  0  0  0
   22.2992  -16.3377    9.0967 C   0  0  2  0  0  0  0  0  0  0  0  0
   22.8520  -14.9978    9.6099 C   0  0  0  0  0  0  0  0  0  0  0  0
   21.9176  -17.1202   10.2807 C   0  0  0  0  0  0  0  0  0  0  0  0
   21.2541  -18.4146   10.0680 C   0  0  2  0  0  0  0  0  0  0  0  0
   19.8183  -18.0627    9.7429 N   0  0  0  0  0  0  0  0  0  0  0  0
   21.1238  -19.3766   11.1411 C   0  0  0  0  0  0  0  0  0  0  0  0
   19.8840  -19.6023   11.7780 O   0  0  0  0  0  0  0  0  0  0  0  0
   22.0589  -20.0662   11.5837 O   0  0  0  0  0  0  0  0  0  0  0  0
  2  3  2  0
  2  1  1  0
  4  3  1  0
  5  4  2  0
  6  5  1  0
  7  6  1  0
  7  8  1  6
  9 10  2  0
  9  7  1  0
 11  5  1  0
 11 12  2  0
 12  2  1  0
 13 14  1  0
 14 24  2  0
 15 14  1  0
 15 16  2  0
 16 17  1  0
 17 23  2  0
 17 18  1  0
 19 18  1  1
 19 20  1  0
 20  9  1  0
 21 19  1  0
 21 30  1  0
 22 21  2  0
 24 23  1  0
 26 25  1  1
 26 28  1  0
 27 26  1  0
 29 28  1  1
 29 30  1  0
 29 31  1  0
 31 33  2  0
 31 32  1  0
M  END
$$$$
