YYL.pdb
     RDKit          3D

 33 34  0  0  1  0  0  0  0  0999 V2000
   44.4909   -8.9987   -1.4670 O   0  0  0  0  0  0  0  0  0  0  0  0
   44.4854   -9.2661   -2.8299 C   0  0  0  0  0  0  0  0  0  0  0  0
   45.6857   -9.2296   -3.5258 C   0  0  0  0  0  0  0  0  0  0  0  0
   45.6813   -9.4941   -4.8748 C   0  0  0  0  0  0  0  0  0  0  0  0
   44.5141   -9.7931   -5.5453 C   0  0  0  0  0  0  0  0  0  0  0  0
   44.5146  -10.0781   -7.0026 C   0  0  0  0  0  0  0  0  0  0  0  0
   44.2568  -11.5847   -7.1367 C   0  0  2  0  0  0  0  0  0  0  0  0
   45.4236  -12.3341   -6.7439 N   0  0  0  0  0  0  0  0  0  0  0  0
   44.0029  -11.8169   -8.5908 C   0  0  0  0  0  0  0  0  0  0  0  0
   44.9463  -12.1662   -9.3081 O   0  0  0  0  0  0  0  0  0  0  0  0
   43.3386   -9.8202   -4.8198 C   0  0  0  0  0  0  0  0  0  0  0  0
   43.3156   -9.5571   -3.4579 C   0  0  0  0  0  0  0  0  0  0  0  0
   40.0820  -13.0168  -16.3131 O   0  0  0  0  0  0  0  0  0  0  0  0
   40.3558  -12.9194  -14.9432 C   0  0  0  0  0  0  0  0  0  0  0  0
   41.4096  -13.6447  -14.4306 C   0  0  0  0  0  0  0  0  0  0  0  0
   41.6957  -13.5605  -13.0750 C   0  0  0  0  0  0  0  0  0  0  0  0
   40.9319  -12.7641  -12.2775 C   0  0  0  0  0  0  0  0  0  0  0  0
   41.1971  -12.6308  -10.8486 C   0  0  0  0  0  0  0  0  0  0  0  0
   42.4604  -11.8564  -10.5132 C   0  0  2  0  0  0  0  0  0  0  0  0
   42.7045  -11.6401   -9.1374 N   0  0  0  0  0  0  0  0  0  0  0  0
   42.4381  -10.6208  -11.3276 C   0  0  0  0  0  0  0  0  0  0  0  0
   41.6049   -9.7261  -10.9740 O   0  0  0  0  0  0  0  0  0  0  0  0
   39.8679  -12.0388  -12.8247 C   0  0  0  0  0  0  0  0  0  0  0  0
   39.5806  -12.1154  -14.1503 C   0  0  0  0  0  0  0  0  0  0  0  0
   44.3002   -6.6766  -11.6702 C   0  0  0  0  0  0  0  0  0  0  0  0
   45.0626   -7.8857  -12.0476 C   0  0  2  0  0  0  0  0  0  0  0  0
   46.5414   -7.5597  -12.3144 C   0  0  0  0  0  0  0  0  0  0  0  0
   44.5608   -8.5838  -13.2395 C   0  0  0  0  0  0  0  0  0  0  0  0
   43.1769   -9.0795  -13.2174 C   0  0  2  0  0  0  0  0  0  0  0  0
   43.2421  -10.3686  -12.4268 N   0  0  0  0  0  0  0  0  0  0  0  0
   42.5009   -9.4723  -14.4351 C   0  0  0  0  0  0  0  0  0  0  0  0
   41.5972   -8.6041  -15.0856 O   0  0  0  0  0  0  0  0  0  0  0  0
   42.6492  -10.5710  -14.9977 O   0  0  0  0  0  0  0  0  0  0  0  0
  2  3  2  0
  2  1  1  0
  4  3  1  0
  5  4  2  0
  6  5  1  0
  7  6  1  0
  7  8  1  6
  9 10  2  0
  9  7  1  0
 11  5  1  0
 11 12  2  0
 12  2  1  0
 13 14  1  0
 14 24  2  0
 15 14  1  0
 15 16  2  0
 16 17  1  0
 17 23  2  0
 17 18  1  0
 19 18  1  1
 19 20  1  0
 20  9  1  0
 21 19  1  0
 21 30  1  0
 22 21  2  0
 24 23  1  0
 26 25  1  6
 26 28  1  0
 27 26  1  0
 29 28  1  6
 29 30  1  0
 29 31  1  0
 31 33  2  0
 31 32  1  0
M  END
$$$$
