YYL.pdb
     RDKit          3D

 33 34  0  0  1  0  0  0  0  0999 V2000
   17.8598  -17.8129  -15.5428 O   0  0  0  0  0  0  0  0  0  0  0  0
   18.9513  -18.4535  -14.9708 C   0  0  0  0  0  0  0  0  0  0  0  0
   20.0852  -17.7104  -14.6731 C   0  0  0  0  0  0  0  0  0  0  0  0
   21.1661  -18.3435  -14.1069 C   0  0  0  0  0  0  0  0  0  0  0  0
   21.1451  -19.6944  -13.8309 C   0  0  0  0  0  0  0  0  0  0  0  0
   22.3153  -20.3736  -13.2192 C   0  0  0  0  0  0  0  0  0  0  0  0
   23.5002  -20.0930  -14.1529 C   0  0  2  0  0  0  0  0  0  0  0  0
   23.2612  -20.6586  -15.4567 N   0  0  0  0  0  0  0  0  0  0  0  0
   24.6684  -20.7887  -13.5333 C   0  0  0  0  0  0  0  0  0  0  0  0
   24.8221  -21.9953  -13.7503 O   0  0  0  0  0  0  0  0  0  0  0  0
   19.9994  -20.4015  -14.1409 C   0  0  0  0  0  0  0  0  0  0  0  0
   18.8950  -19.7867  -14.7127 C   0  0  0  0  0  0  0  0  0  0  0  0
   28.4147  -19.2758  -18.1195 O   0  0  0  0  0  0  0  0  0  0  0  0
   28.3224  -19.5125  -16.7424 C   0  0  0  0  0  0  0  0  0  0  0  0
   28.6256  -20.7712  -16.2702 C   0  0  0  0  0  0  0  0  0  0  0  0
   28.5396  -21.0241  -14.9082 C   0  0  0  0  0  0  0  0  0  0  0  0
   28.1583  -20.0259  -14.0644 C   0  0  0  0  0  0  0  0  0  0  0  0
   28.0631  -20.2354  -12.6234 C   0  0  0  0  0  0  0  0  0  0  0  0
   26.7062  -20.7263  -12.1477 C   0  0  2  0  0  0  0  0  0  0  0  0
   25.5832  -20.0785  -12.7120 N   0  0  0  0  0  0  0  0  0  0  0  0
   26.7362  -20.7109  -10.6681 C   0  0  0  0  0  0  0  0  0  0  0  0
   27.2885  -19.7011  -10.1247 O   0  0  0  0  0  0  0  0  0  0  0  0
   27.8561  -18.7573  -14.5713 C   0  0  0  0  0  0  0  0  0  0  0  0
   27.9374  -18.5009  -15.9030 C   0  0  0  0  0  0  0  0  0  0  0  0
   27.5876  -18.5513   -6.4894 C   0  0  0  0  0  0  0  0  0  0  0  0
   27.1113  -19.9414   -6.6513 C   0  0  2  0  0  0  0  0  0  0  0  0
   27.9984  -20.9348   -5.8830 C   0  0  0  0  0  0  0  0  0  0  0  0
   27.0510  -20.4144   -8.0414 C   0  0  0  0  0  0  0  0  0  0  0  0
   26.2254  -21.5952   -8.3335 C   0  0  2  0  0  0  0  0  0  0  0  0
   26.2173  -21.6955   -9.8438 N   0  0  0  0  0  0  0  0  0  0  0  0
   24.8196  -21.6312   -7.9922 C   0  0  0  0  0  0  0  0  0  0  0  0
   23.8465  -21.0387   -8.8263 O   0  0  0  0  0  0  0  0  0  0  0  0
   24.3585  -22.1676   -6.9698 O   0  0  0  0  0  0  0  0  0  0  0  0
  2  3  2  0
  2  1  1  0
  4  3  1  0
  5  4  2  0
  6  5  1  0
  7  6  1  0
  7  8  1  6
  9 10  2  0
  9  7  1  0
 11  5  1  0
 11 12  2  0
 12  2  1  0
 13 14  1  0
 14 24  2  0
 15 14  1  0
 15 16  2  0
 16 17  1  0
 17 23  2  0
 17 18  1  0
 19 18  1  6
 19 20  1  0
 20  9  1  0
 21 19  1  0
 21 30  1  0
 22 21  2  0
 24 23  1  0
 26 25  1  6
 26 28  1  0
 27 26  1  0
 29 28  1  6
 29 30  1  0
 29 31  1  0
 31 33  2  0
 31 32  1  0
M  END
$$$$
