VMY.pdb
     RDKit          3D

 28 28  0  0  1  0  0  0  0  0999 V2000
   18.9261  -22.0237  -16.8858 C   0  0  0  0  0  0  0  0  0  0  0  0
   19.5762  -22.0375  -18.2282 C   0  0  2  0  0  0  0  0  0  0  0  0
   19.8660  -23.4824  -18.6181 C   0  0  0  0  0  0  0  0  0  0  0  0
   20.8797  -21.2902  -18.2970 C   0  0  2  0  0  0  0  0  0  0  0  0
   21.8842  -21.9471  -17.4796 N   0  0  0  0  0  0  0  0  0  0  0  0
   20.7820  -19.8800  -17.9179 C   0  0  0  0  0  0  0  0  0  0  0  0
   21.7035  -19.3236  -17.2677 O   0  0  0  0  0  0  0  0  0  0  0  0
   21.3153  -16.0788  -22.9547 C   0  0  0  0  0  0  0  0  0  0  0  0
   21.6658  -16.0164  -21.1966 S   0  0  0  0  0  0  0  0  0  0  0  0
   20.4738  -16.9736  -20.2549 C   0  0  0  0  0  0  0  0  0  0  0  0
   20.6996  -16.9440  -18.7919 C   0  0  0  0  0  0  0  0  0  0  0  0
   19.6274  -17.6453  -18.0114 C   0  0  2  0  0  0  0  0  0  0  0  0
   19.6563  -19.0527  -18.2527 N   0  0  0  0  0  0  0  0  0  0  0  0
   18.3140  -17.0264  -18.3045 C   0  0  0  0  0  0  0  0  0  0  0  0
   17.6774  -17.2534  -19.3625 O   0  0  0  0  0  0  0  0  0  0  0  0
   10.5334  -13.1152  -17.2551 O   0  0  0  0  0  0  0  0  0  0  0  0
   11.7416  -13.7897  -17.1050 C   0  0  0  0  0  0  0  0  0  0  0  0
   12.6011  -13.5173  -16.0657 C   0  0  0  0  0  0  0  0  0  0  0  0
   13.7928  -14.2058  -15.9464 C   0  0  0  0  0  0  0  0  0  0  0  0
   14.1826  -15.1864  -16.8440 C   0  0  0  0  0  0  0  0  0  0  0  0
   15.4642  -15.8984  -16.6847 C   0  0  0  0  0  0  0  0  0  0  0  0
   16.5339  -15.3732  -17.5962 C   0  0  2  0  0  0  0  0  0  0  0  0
   17.7552  -16.1471  -17.3591 N   0  0  0  0  0  0  0  0  0  0  0  0
   16.7961  -13.9327  -17.4723 C   0  0  0  0  0  0  0  0  0  0  0  0
   17.8119  -13.5547  -16.8399 O   0  0  0  0  0  0  0  0  0  0  0  0
   13.3102  -15.4550  -17.8891 C   0  0  0  0  0  0  0  0  0  0  0  0
   12.1207  -14.7686  -18.0092 C   0  0  0  0  0  0  0  0  0  0  0  0
   15.9725  -12.9699  -18.0229 O   0  0  0  0  0  0  0  0  0  0  0  0
  2  1  1  1
  2  3  1  0
  4  2  1  0
  4  5  1  1
  6  4  1  0
  6  7  2  0
  9  8  1  0
 10 11  1  0
 10  9  1  0
 12 11  1  6
 13 12  1  0
 13  6  1  0
 14 15  2  0
 14 12  1  0
 16 17  1  0
 17 18  2  0
 18 19  1  0
 20 21  1  0
 20 19  2  0
 22 21  1  1
 22 23  1  0
 22 24  1  0
 23 14  1  0
 24 25  2  0
 24 28  1  0
 26 20  1  0
 27 26  2  0
 27 17  1  0
M  END
$$$$
