VMY.pdb
     RDKit          3D

 28 28  0  0  1  0  0  0  0  0999 V2000
   26.6231  -20.7824   -5.3679 C   0  0  0  0  0  0  0  0  0  0  0  0
   28.0960  -20.5722   -5.2614 C   0  0  2  0  0  0  0  0  0  0  0  0
   28.4281  -20.1388   -3.8381 C   0  0  0  0  0  0  0  0  0  0  0  0
   28.6434  -19.5183   -6.1844 C   0  0  2  0  0  0  0  0  0  0  0  0
   28.0767  -18.2202   -5.8640 N   0  0  0  0  0  0  0  0  0  0  0  0
   28.4439  -19.8050   -7.6057 C   0  0  0  0  0  0  0  0  0  0  0  0
   27.6787  -19.0923   -8.3042 O   0  0  0  0  0  0  0  0  0  0  0  0
   32.7152  -23.8684   -9.4708 C   0  0  0  0  0  0  0  0  0  0  0  0
   32.8441  -22.3371  -10.3961 S   0  0  0  0  0  0  0  0  0  0  0  0
   31.4429  -21.2594  -10.0811 C   0  0  0  0  0  0  0  0  0  0  0  0
   30.1286  -21.9305  -10.2021 C   0  0  0  0  0  0  0  0  0  0  0  0
   28.9881  -21.0979   -9.6957 C   0  0  2  0  0  0  0  0  0  0  0  0
   29.0910  -20.8923   -8.2860 N   0  0  0  0  0  0  0  0  0  0  0  0
   27.7041  -21.7112  -10.1071 C   0  0  0  0  0  0  0  0  0  0  0  0
   27.0392  -22.4641   -9.3540 O   0  0  0  0  0  0  0  0  0  0  0  0
   19.6538  -19.4133  -11.6702 O   0  0  0  0  0  0  0  0  0  0  0  0
   21.0164  -19.6135  -11.4684 C   0  0  0  0  0  0  0  0  0  0  0  0
   21.9189  -19.5653  -12.5059 C   0  0  0  0  0  0  0  0  0  0  0  0
   23.2648  -19.7685  -12.2704 C   0  0  0  0  0  0  0  0  0  0  0  0
   23.7721  -20.0265  -11.0073 C   0  0  0  0  0  0  0  0  0  0  0  0
   25.2158  -20.2405  -10.7957 C   0  0  0  0  0  0  0  0  0  0  0  0
   25.7816  -21.2962  -11.6993 C   0  0  2  0  0  0  0  0  0  0  0  0
   27.2076  -21.4400  -11.3951 N   0  0  0  0  0  0  0  0  0  0  0  0
   25.5754  -21.0541  -13.1339 C   0  0  0  0  0  0  0  0  0  0  0  0
   26.3804  -20.3093  -13.7438 O   0  0  0  0  0  0  0  0  0  0  0  0
   22.8554  -20.0733   -9.9668 C   0  0  0  0  0  0  0  0  0  0  0  0
   21.5119  -19.8706  -10.2005 C   0  0  0  0  0  0  0  0  0  0  0  0
   24.5316  -21.6118  -13.8466 O   0  0  0  0  0  0  0  0  0  0  0  0
  2  1  1  1
  2  3  1  0
  4  2  1  0
  4  5  1  1
  6  4  1  0
  6  7  2  0
  9  8  1  0
 10 11  1  0
 10  9  1  0
 12 11  1  1
 13 12  1  0
 13  6  1  0
 14 15  2  0
 14 12  1  0
 16 17  1  0
 17 18  2  0
 18 19  1  0
 20 21  1  0
 20 19  2  0
 22 21  1  1
 22 23  1  0
 22 24  1  0
 23 14  1  0
 24 25  2  0
 24 28  1  0
 26 20  1  0
 27 26  2  0
 27 17  1  0
M  END
$$$$
