VMY.pdb
     RDKit          3D

 28 28  0  0  1  0  0  0  0  0999 V2000
   21.5043  -14.7462  -16.8564 C   0  0  0  0  0  0  0  0  0  0  0  0
   20.6635  -13.8843  -17.7369 C   0  0  2  0  0  0  0  0  0  0  0  0
   20.3443  -14.6520  -19.0147 C   0  0  0  0  0  0  0  0  0  0  0  0
   21.3133  -12.5915  -18.1475 C   0  0  2  0  0  0  0  0  0  0  0  0
   22.3295  -12.8331  -19.1563 N   0  0  0  0  0  0  0  0  0  0  0  0
   21.8923  -11.8334  -17.0374 C   0  0  0  0  0  0  0  0  0  0  0  0
   21.1972  -11.5302  -16.0342 O   0  0  0  0  0  0  0  0  0  0  0  0
   27.7021  -14.1626  -14.8085 C   0  0  0  0  0  0  0  0  0  0  0  0
   27.3673  -12.4844  -15.3462 S   0  0  0  0  0  0  0  0  0  0  0  0
   25.6031  -12.1747  -15.4721 C   0  0  0  0  0  0  0  0  0  0  0  0
   25.2609  -10.7757  -15.8158 C   0  0  0  0  0  0  0  0  0  0  0  0
   23.7881  -10.5506  -15.9906 C   0  0  2  0  0  0  0  0  0  0  0  0
   23.2596  -11.3935  -17.0154 N   0  0  0  0  0  0  0  0  0  0  0  0
   23.5297   -9.1108  -16.2236 C   0  0  0  0  0  0  0  0  0  0  0  0
   23.7257   -8.5567  -17.3330 O   0  0  0  0  0  0  0  0  0  0  0  0
   19.4721   -1.5930  -16.9571 O   0  0  0  0  0  0  0  0  0  0  0  0
   19.9843   -2.8795  -16.8153 C   0  0  0  0  0  0  0  0  0  0  0  0
   19.1682   -3.9870  -16.7877 C   0  0  0  0  0  0  0  0  0  0  0  0
   19.7098   -5.2499  -16.6458 C   0  0  0  0  0  0  0  0  0  0  0  0
   21.0723   -5.4698  -16.5257 C   0  0  0  0  0  0  0  0  0  0  0  0
   21.6130   -6.8334  -16.3733 C   0  0  0  0  0  0  0  0  0  0  0  0
   22.6543   -6.9248  -15.2972 C   0  0  2  0  0  0  0  0  0  0  0  0
   23.0444   -8.3303  -15.1586 N   0  0  0  0  0  0  0  0  0  0  0  0
   22.2505   -6.3646  -14.0001 C   0  0  0  0  0  0  0  0  0  0  0  0
   21.5507   -7.0655  -13.2296 O   0  0  0  0  0  0  0  0  0  0  0  0
   21.8881   -4.3477  -16.5546 C   0  0  0  0  0  0  0  0  0  0  0  0
   21.3489   -3.0869  -16.6963 C   0  0  0  0  0  0  0  0  0  0  0  0
   22.6077   -5.0957  -13.5867 O   0  0  0  0  0  0  0  0  0  0  0  0
  2  1  1  1
  2  3  1  0
  4  2  1  0
  4  5  1  6
  6  4  1  0
  6  7  2  0
  9  8  1  0
 10 11  1  0
 10  9  1  0
 12 11  1  6
 13 12  1  0
 13  6  1  0
 14 15  2  0
 14 12  1  0
 16 17  1  0
 17 18  2  0
 18 19  1  0
 20 21  1  0
 20 19  2  0
 22 21  1  6
 22 23  1  0
 22 24  1  0
 23 14  1  0
 24 25  2  0
 24 28  1  0
 26 20  1  0
 27 26  2  0
 27 17  1  0
M  END
$$$$
