VMY.pdb
     RDKit          3D

 28 28  0  0  1  0  0  0  0  0999 V2000
   26.1191  -19.4629  -16.8356 C   0  0  0  0  0  0  0  0  0  0  0  0
   27.3912  -19.3122  -16.0713 C   0  0  2  0  0  0  0  0  0  0  0  0
   28.4728  -18.7992  -17.0151 C   0  0  0  0  0  0  0  0  0  0  0  0
   27.9052  -20.5865  -15.4595 C   0  0  2  0  0  0  0  0  0  0  0  0
   28.1657  -21.5748  -16.4911 N   0  0  0  0  0  0  0  0  0  0  0  0
   27.0244  -21.1592  -14.4406 C   0  0  0  0  0  0  0  0  0  0  0  0
   26.1382  -21.9950  -14.7528 O   0  0  0  0  0  0  0  0  0  0  0  0
   24.6376  -20.9552   -6.8590 C   0  0  0  0  0  0  0  0  0  0  0  0
   25.7970  -20.3299   -8.0767 S   0  0  0  0  0  0  0  0  0  0  0  0
   25.3783  -20.8903   -9.7305 C   0  0  0  0  0  0  0  0  0  0  0  0
   26.4283  -20.6236  -10.7398 C   0  0  0  0  0  0  0  0  0  0  0  0
   26.0474  -21.0627  -12.1228 C   0  0  2  0  0  0  0  0  0  0  0  0
   27.1073  -20.8164  -13.0479 N   0  0  0  0  0  0  0  0  0  0  0  0
   24.7685  -20.4247  -12.5122 C   0  0  0  0  0  0  0  0  0  0  0  0
   24.6814  -19.2108  -12.8200 O   0  0  0  0  0  0  0  0  0  0  0  0
   17.2797  -19.2117  -16.7036 O   0  0  0  0  0  0  0  0  0  0  0  0
   18.4923  -19.6292  -16.1625 C   0  0  0  0  0  0  0  0  0  0  0  0
   18.6721  -20.9060  -15.6824 C   0  0  0  0  0  0  0  0  0  0  0  0
   19.8891  -21.2875  -15.1517 C   0  0  0  0  0  0  0  0  0  0  0  0
   20.9729  -20.4280  -15.0737 C   0  0  0  0  0  0  0  0  0  0  0  0
   22.2563  -20.8714  -14.4980 C   0  0  0  0  0  0  0  0  0  0  0  0
   22.3040  -20.7171  -13.0064 C   0  0  2  0  0  0  0  0  0  0  0  0
   23.6019  -21.2105  -12.5385 N   0  0  0  0  0  0  0  0  0  0  0  0
   21.2050  -21.3723  -12.2839 C   0  0  0  0  0  0  0  0  0  0  0  0
   21.3097  -22.5896  -11.9976 O   0  0  0  0  0  0  0  0  0  0  0  0
   20.7833  -19.1424  -15.5601 C   0  0  0  0  0  0  0  0  0  0  0  0
   19.5692  -18.7606  -16.0900 C   0  0  0  0  0  0  0  0  0  0  0  0
   20.0558  -20.7070  -11.9024 O   0  0  0  0  0  0  0  0  0  0  0  0
  2  1  1  6
  2  3  1  0
  4  2  1  0
  4  5  1  6
  6  4  1  0
  6  7  2  0
  9  8  1  0
 10 11  1  0
 10  9  1  0
 12 11  1  1
 13 12  1  0
 13  6  1  0
 14 15  2  0
 14 12  1  0
 16 17  1  0
 17 18  2  0
 18 19  1  0
 20 21  1  0
 20 19  2  0
 22 21  1  6
 22 23  1  0
 22 24  1  0
 23 14  1  0
 24 25  2  0
 24 28  1  0
 26 20  1  0
 27 26  2  0
 27 17  1  0
M  END
$$$$
