FHK.pdb
     RDKit          3D

 31 32  0  0  1  0  0  0  0  0999 V2000
   26.8971  -20.7095  -13.9237 N   0  0  0  0  0  0  0  0  0  0  0  0
   26.1346  -21.4124  -12.9078 C   0  0  1  0  0  0  0  0  0  0  0  0
   26.4636  -20.6939  -11.5916 C   0  0  0  0  0  0  0  0  0  0  0  0
   27.8986  -20.8321  -11.2634 C   0  0  0  0  0  0  0  0  0  0  0  0
   28.3067  -21.6311  -10.2108 C   0  0  0  0  0  0  0  0  0  0  0  0
   29.6442  -21.7644   -9.9025 C   0  0  0  0  0  0  0  0  0  0  0  0
   30.6165  -21.1092  -10.6293 C   0  0  0  0  0  0  0  0  0  0  0  0
   30.2046  -20.3121  -11.6798 C   0  0  0  0  0  0  0  0  0  0  0  0
   28.8511  -20.1674  -12.0041 C   0  0  0  0  0  0  0  0  0  0  0  0
   24.6933  -21.1339  -13.1669 C   0  0  0  0  0  0  0  0  0  0  0  0
   23.7705  -21.7184  -12.5489 O   0  0  0  0  0  0  0  0  0  0  0  0
   24.2787  -20.1661  -14.1530 N   0  0  0  0  0  0  0  0  0  0  0  0
   22.8995  -19.9342  -14.4048 C   0  0  1  0  0  0  0  0  0  0  0  0
   22.1832  -19.0376  -13.4691 C   0  0  0  0  0  0  0  0  0  0  0  0
   21.6520  -19.6216  -12.2438 C   0  0  0  0  0  0  0  0  0  0  0  0
   21.7210  -20.8464  -11.6656 C   0  0  0  0  0  0  0  0  0  0  0  0
   21.0382  -20.8137  -10.4911 N   0  0  0  0  0  0  0  0  0  0  0  0
   20.5551  -19.5876  -10.3454 C   0  0  0  0  0  0  0  0  0  0  0  0
   20.9096  -18.8538  -11.3833 N   0  0  0  0  0  0  0  0  0  0  0  0
   22.6925  -19.5221  -15.8406 C   0  0  0  0  0  0  0  0  0  0  0  0
   23.5031  -18.6986  -16.3186 O   0  0  0  0  0  0  0  0  0  0  0  0
   21.6534  -20.0187  -16.6243 N   0  0  0  0  0  0  0  0  0  0  0  0
   21.5438  -19.6618  -18.1120 C   0  0  1  0  0  0  0  0  0  0  0  0
   20.7324  -20.7022  -18.7109 C   0  0  0  0  0  0  0  0  0  0  0  0
   19.3073  -20.8131  -18.9105 C   0  0  0  0  0  0  0  0  0  0  0  0
   18.5194  -22.0241  -19.0537 C   0  0  0  0  0  0  0  0  0  0  0  0
   17.0720  -22.0531  -19.3109 C   0  0  0  0  0  0  0  0  0  0  0  0
   16.5058  -23.3862  -19.3644 N   0  0  0  0  0  0  0  0  0  0  0  0
   21.2791  -18.2464  -18.1815 C   0  0  0  0  0  0  0  0  0  0  0  0
   20.6699  -17.5394  -17.3649 O   0  0  0  0  0  0  0  0  0  0  0  0
   21.7610  -17.5371  -19.3119 O   0  0  0  0  0  0  0  0  0  0  0  0
  2  1  1  6
  2  3  1  0
  3  4  1  0
  4  9  1  0
  4  5  2  0
  5  6  1  0
  6  7  2  0
  8  7  1  0
  9  8  2  0
 10  2  1  0
 10 12  1  0
 11 10  2  0
 13 12  1  0
 13 14  1  1
 15 14  1  0
 15 16  2  0
 17 16  1  0
 18 17  1  0
 19 18  2  0
 19 15  1  0
 20 13  1  0
 21 20  2  0
 22 20  1  0
 23 24  1  1
 23 22  1  0
 25 24  1  0
 26 25  1  0
 26 27  1  0
 27 28  1  0
 29 23  1  0
 30 29  2  0
 31 29  1  0
M  END
$$$$
