FHK.pdb
     RDKit          3D

 31 32  0  0  1  0  0  0  0  0999 V2000
   24.9819  -10.9246  -17.8765 N   0  0  0  0  0  0  0  0  0  0  0  0
   24.5843  -10.5279  -16.5378 C   0  0  1  0  0  0  0  0  0  0  0  0
   25.5474   -9.3958  -16.1532 C   0  0  0  0  0  0  0  0  0  0  0  0
   26.9420   -9.8850  -16.1129 C   0  0  0  0  0  0  0  0  0  0  0  0
   27.2889  -10.9592  -15.3136 C   0  0  0  0  0  0  0  0  0  0  0  0
   28.5881  -11.4199  -15.2746 C   0  0  0  0  0  0  0  0  0  0  0  0
   29.5816  -10.8290  -16.0273 C   0  0  0  0  0  0  0  0  0  0  0  0
   29.2308   -9.7563  -16.8242 C   0  0  0  0  0  0  0  0  0  0  0  0
   27.9168   -9.2779  -16.8738 C   0  0  0  0  0  0  0  0  0  0  0  0
   23.2409   -9.8912  -16.6474 C   0  0  0  0  0  0  0  0  0  0  0  0
   22.7495   -9.5354  -17.7461 O   0  0  0  0  0  0  0  0  0  0  0  0
   22.4253   -9.6483  -15.4827 N   0  0  0  0  0  0  0  0  0  0  0  0
   21.0837   -9.2000  -15.6188 C   0  0  1  0  0  0  0  0  0  0  0  0
   20.0449   -9.9380  -14.8648 C   0  0  0  0  0  0  0  0  0  0  0  0
   19.7185  -11.2884  -15.3057 C   0  0  0  0  0  0  0  0  0  0  0  0
   20.1319  -12.0831  -16.3240 C   0  0  0  0  0  0  0  0  0  0  0  0
   19.4898  -13.2774  -16.2340 N   0  0  0  0  0  0  0  0  0  0  0  0
   18.6921  -13.2219  -15.1764 C   0  0  0  0  0  0  0  0  0  0  0  0
   18.8114  -12.0395  -14.6028 N   0  0  0  0  0  0  0  0  0  0  0  0
   21.0017   -7.7144  -15.3728 C   0  0  0  0  0  0  0  0  0  0  0  0
   21.6830   -7.2555  -14.4300 O   0  0  0  0  0  0  0  0  0  0  0  0
   20.2106   -6.8659  -16.1439 N   0  0  0  0  0  0  0  0  0  0  0  0
   20.1856   -5.3544  -15.8849 C   0  0  1  0  0  0  0  0  0  0  0  0
   20.5545   -4.7307  -17.1397 C   0  0  0  0  0  0  0  0  0  0  0  0
   20.9845   -3.3896  -17.4555 C   0  0  0  0  0  0  0  0  0  0  0  0
   21.3598   -2.8567  -18.7529 C   0  0  0  0  0  0  0  0  0  0  0  0
   21.7685   -1.4657  -18.9977 C   0  0  0  0  0  0  0  0  0  0  0  0
   21.9004   -1.1245  -20.4001 N   0  0  0  0  0  0  0  0  0  0  0  0
   18.9867   -5.0813  -15.1324 C   0  0  0  0  0  0  0  0  0  0  0  0
   17.9246   -5.7213  -15.1236 O   0  0  0  0  0  0  0  0  0  0  0  0
   18.9826   -3.9453  -14.2824 O   0  0  0  0  0  0  0  0  0  0  0  0
  2  1  1  6
  2  3  1  0
  3  4  1  0
  4  9  1  0
  4  5  2  0
  5  6  1  0
  6  7  2  0
  8  7  1  0
  9  8  2  0
 10  2  1  0
 10 12  1  0
 11 10  2  0
 13 12  1  0
 13 14  1  1
 15 14  1  0
 15 16  2  0
 17 16  1  0
 18 17  1  0
 19 18  2  0
 19 15  1  0
 20 13  1  0
 21 20  2  0
 22 20  1  0
 23 24  1  6
 23 22  1  0
 25 24  1  0
 26 25  1  0
 26 27  1  0
 27 28  1  0
 29 23  1  0
 30 29  2  0
 31 29  1  0
M  END
$$$$
