FHK.pdb
     RDKit          3D

 31 32  0  0  1  0  0  0  0  0999 V2000
   29.2056  -19.7769  -12.5818 N   0  0  0  0  0  0  0  0  0  0  0  0
   28.2268  -20.8220  -12.3423 C   0  0  1  0  0  0  0  0  0  0  0  0
   28.3149  -21.1158  -10.8380 C   0  0  0  0  0  0  0  0  0  0  0  0
   29.6570  -21.6226  -10.4805 C   0  0  0  0  0  0  0  0  0  0  0  0
   30.3073  -22.5308  -11.2960 C   0  0  0  0  0  0  0  0  0  0  0  0
   31.5600  -23.0045  -10.9674 C   0  0  0  0  0  0  0  0  0  0  0  0
   32.2049  -22.5912   -9.8201 C   0  0  0  0  0  0  0  0  0  0  0  0
   31.5518  -21.6840   -9.0083 C   0  0  0  0  0  0  0  0  0  0  0  0
   30.2806  -21.1948   -9.3290 C   0  0  0  0  0  0  0  0  0  0  0  0
   26.8793  -20.2212  -12.5550 C   0  0  0  0  0  0  0  0  0  0  0  0
   26.5307  -19.1389  -12.0238 O   0  0  0  0  0  0  0  0  0  0  0  0
   25.8938  -20.8596  -13.3929 N   0  0  0  0  0  0  0  0  0  0  0  0
   24.7130  -20.1686  -13.7772 C   0  0  1  0  0  0  0  0  0  0  0  0
   24.7458  -19.4396  -15.0656 C   0  0  0  0  0  0  0  0  0  0  0  0
   25.7392  -18.3845  -15.2220 C   0  0  0  0  0  0  0  0  0  0  0  0
   25.8268  -17.0925  -14.8190 C   0  0  0  0  0  0  0  0  0  0  0  0
   27.0136  -16.5830  -15.2417 N   0  0  0  0  0  0  0  0  0  0  0  0
   27.6498  -17.5452  -15.8954 C   0  0  0  0  0  0  0  0  0  0  0  0
   26.9063  -18.6354  -15.8973 N   0  0  0  0  0  0  0  0  0  0  0  0
   23.5183  -21.0842  -13.6848 C   0  0  0  0  0  0  0  0  0  0  0  0
   23.6406  -22.2298  -14.1711 O   0  0  0  0  0  0  0  0  0  0  0  0
   22.3186  -20.6992  -13.0908 N   0  0  0  0  0  0  0  0  0  0  0  0
   21.1127  -21.6464  -13.0562 C   0  0  1  0  0  0  0  0  0  0  0  0
   20.6459  -21.6443  -11.6845 C   0  0  0  0  0  0  0  0  0  0  0  0
   19.6167  -22.4069  -11.0193 C   0  0  0  0  0  0  0  0  0  0  0  0
   19.6653  -23.0058   -9.6976 C   0  0  0  0  0  0  0  0  0  0  0  0
   18.6276  -23.8863   -9.1412 C   0  0  0  0  0  0  0  0  0  0  0  0
   18.9912  -24.5110   -7.8850 N   0  0  0  0  0  0  0  0  0  0  0  0
   20.3120  -21.3425  -14.2158 C   0  0  0  0  0  0  0  0  0  0  0  0
   20.1152  -20.2377  -14.7435 O   0  0  0  0  0  0  0  0  0  0  0  0
   19.6496  -22.4172  -14.8635 O   0  0  0  0  0  0  0  0  0  0  0  0
  2  1  1  1
  2  3  1  0
  3  4  1  0
  4  9  1  0
  4  5  2  0
  5  6  1  0
  6  7  2  0
  8  7  1  0
  9  8  2  0
 10  2  1  0
 10 12  1  0
 11 10  2  0
 13 12  1  0
 13 14  1  6
 15 14  1  0
 15 16  2  0
 17 16  1  0
 18 17  1  0
 19 18  2  0
 19 15  1  0
 20 13  1  0
 21 20  2  0
 22 20  1  0
 23 24  1  1
 23 22  1  0
 25 24  1  0
 26 25  1  0
 26 27  1  0
 27 28  1  0
 29 23  1  0
 30 29  2  0
 31 29  1  0
M  END
$$$$
