FHK.pdb
     RDKit          3D

 31 32  0  0  1  0  0  0  0  0999 V2000
   24.5257  -20.6928   -8.8782 N   0  0  0  0  0  0  0  0  0  0  0  0
   25.7890  -20.4536   -9.5523 C   0  0  1  0  0  0  0  0  0  0  0  0
   26.7957  -21.3811   -8.8572 C   0  0  0  0  0  0  0  0  0  0  0  0
   27.3491  -20.7400   -7.6453 C   0  0  0  0  0  0  0  0  0  0  0  0
   28.7165  -20.6407   -7.4630 C   0  0  0  0  0  0  0  0  0  0  0  0
   29.2370  -20.0416   -6.3352 C   0  0  0  0  0  0  0  0  0  0  0  0
   28.4165  -19.5233   -5.3549 C   0  0  0  0  0  0  0  0  0  0  0  0
   27.0513  -19.6246   -5.5410 C   0  0  0  0  0  0  0  0  0  0  0  0
   26.5090  -20.2298   -6.6801 C   0  0  0  0  0  0  0  0  0  0  0  0
   25.6538  -20.9778  -10.9411 C   0  0  0  0  0  0  0  0  0  0  0  0
   25.0788  -22.0628  -11.2008 O   0  0  0  0  0  0  0  0  0  0  0  0
   26.1825  -20.2568  -12.0731 N   0  0  0  0  0  0  0  0  0  0  0  0
   25.7850  -20.5926  -13.3955 C   0  0  1  0  0  0  0  0  0  0  0  0
   24.7704  -19.7256  -14.0368 C   0  0  0  0  0  0  0  0  0  0  0  0
   23.3881  -19.8586  -13.5940 C   0  0  0  0  0  0  0  0  0  0  0  0
   22.7580  -20.6035  -12.6520 C   0  0  0  0  0  0  0  0  0  0  0  0
   21.4343  -20.2963  -12.6661 N   0  0  0  0  0  0  0  0  0  0  0  0
   21.2491  -19.3756  -13.6020 C   0  0  0  0  0  0  0  0  0  0  0  0
   22.4057  -19.0962  -14.1726 N   0  0  0  0  0  0  0  0  0  0  0  0
   26.9965  -20.7772  -14.2743 C   0  0  0  0  0  0  0  0  0  0  0  0
   27.9307  -19.9577  -14.1347 O   0  0  0  0  0  0  0  0  0  0  0  0
   27.0990  -21.8046  -15.2095 N   0  0  0  0  0  0  0  0  0  0  0  0
   28.3554  -21.9650  -16.0745 C   0  0  1  0  0  0  0  0  0  0  0  0
   28.6684  -23.3797  -16.0611 C   0  0  0  0  0  0  0  0  0  0  0  0
   29.8068  -24.1159  -16.5561 C   0  0  0  0  0  0  0  0  0  0  0  0
   30.0351  -25.5486  -16.4978 C   0  0  0  0  0  0  0  0  0  0  0  0
   31.1655  -26.2406  -17.1343 C   0  0  0  0  0  0  0  0  0  0  0  0
   31.1939  -27.6704  -16.8990 N   0  0  0  0  0  0  0  0  0  0  0  0
   28.1532  -21.1612  -17.2541 C   0  0  0  0  0  0  0  0  0  0  0  0
   29.0106  -20.6731  -18.0054 O   0  0  0  0  0  0  0  0  0  0  0  0
   26.8183  -20.8704  -17.6368 O   0  0  0  0  0  0  0  0  0  0  0  0
  2  1  1  1
  2  3  1  0
  3  4  1  0
  4  9  1  0
  4  5  2  0
  5  6  1  0
  6  7  2  0
  8  7  1  0
  9  8  2  0
 10  2  1  0
 10 12  1  0
 11 10  2  0
 13 12  1  0
 13 14  1  6
 15 14  1  0
 15 16  2  0
 17 16  1  0
 18 17  1  0
 19 18  2  0
 19 15  1  0
 20 13  1  0
 21 20  2  0
 22 20  1  0
 23 24  1  6
 23 22  1  0
 25 24  1  0
 26 25  1  0
 26 27  1  0
 27 28  1  0
 29 23  1  0
 30 29  2  0
 31 29  1  0
M  END
$$$$
