FHK.pdb
     RDKit          3D

 31 32  0  0  1  0  0  0  0  0999 V2000
   25.9978  -22.3703  -12.6420 N   0  0  0  0  0  0  0  0  0  0  0  0
   25.4671  -21.6829  -11.4786 C   0  0  1  0  0  0  0  0  0  0  0  0
   26.3505  -20.4385  -11.3114 C   0  0  0  0  0  0  0  0  0  0  0  0
   27.7395  -20.8222  -10.9806 C   0  0  0  0  0  0  0  0  0  0  0  0
   28.0643  -21.2666   -9.7118 C   0  0  0  0  0  0  0  0  0  0  0  0
   29.3581  -21.6275   -9.3995 C   0  0  0  0  0  0  0  0  0  0  0  0
   30.3681  -21.5583  -10.3367 C   0  0  0  0  0  0  0  0  0  0  0  0
   30.0393  -21.1139  -11.6027 C   0  0  0  0  0  0  0  0  0  0  0  0
   28.7309  -20.7443  -11.9339 C   0  0  0  0  0  0  0  0  0  0  0  0
   24.1173  -21.1694  -11.8477 C   0  0  0  0  0  0  0  0  0  0  0  0
   23.5413  -20.2591  -11.2036 O   0  0  0  0  0  0  0  0  0  0  0  0
   23.3937  -21.6978  -12.9783 N   0  0  0  0  0  0  0  0  0  0  0  0
   22.0859  -21.2326  -13.2826 C   0  0  1  0  0  0  0  0  0  0  0  0
   21.8704  -20.6548  -14.6287 C   0  0  0  0  0  0  0  0  0  0  0  0
   22.8734  -19.7270  -15.1363 C   0  0  0  0  0  0  0  0  0  0  0  0
   23.5339  -18.6621  -14.6175 C   0  0  0  0  0  0  0  0  0  0  0  0
   24.3877  -18.1779  -15.5573 N   0  0  0  0  0  0  0  0  0  0  0  0
   24.2572  -18.9319  -16.6401 C   0  0  0  0  0  0  0  0  0  0  0  0
   23.3552  -19.8679  -16.4126 N   0  0  0  0  0  0  0  0  0  0  0  0
   21.0654  -22.2958  -12.9623 C   0  0  0  0  0  0  0  0  0  0  0  0
   21.2741  -23.4408  -13.4199 O   0  0  0  0  0  0  0  0  0  0  0  0
   19.9309  -22.0438  -12.1943 N   0  0  0  0  0  0  0  0  0  0  0  0
   18.9798  -23.1776  -11.7916 C   0  0  1  0  0  0  0  0  0  0  0  0
   18.9440  -23.1698  -10.3431 C   0  0  0  0  0  0  0  0  0  0  0  0
   18.2333  -23.9946   -9.3957 C   0  0  0  0  0  0  0  0  0  0  0  0
   18.2595  -23.9115   -7.9464 C   0  0  0  0  0  0  0  0  0  0  0  0
   17.4774  -24.7717   -7.0464 C   0  0  0  0  0  0  0  0  0  0  0  0
   18.2277  -25.8750   -6.4803 N   0  0  0  0  0  0  0  0  0  0  0  0
   17.8327  -23.0863  -12.6600 C   0  0  0  0  0  0  0  0  0  0  0  0
   17.1406  -24.0089  -13.1155 O   0  0  0  0  0  0  0  0  0  0  0  0
   17.4112  -21.7940  -13.0669 O   0  0  0  0  0  0  0  0  0  0  0  0
  2  1  1  6
  2  3  1  0
  3  4  1  0
  4  9  1  0
  4  5  2  0
  5  6  1  0
  6  7  2  0
  8  7  1  0
  9  8  2  0
 10  2  1  0
 10 12  1  0
 11 10  2  0
 13 12  1  0
 13 14  1  6
 15 14  1  0
 15 16  2  0
 17 16  1  0
 18 17  1  0
 19 18  2  0
 19 15  1  0
 20 13  1  0
 21 20  2  0
 22 20  1  0
 23 24  1  1
 23 22  1  0
 25 24  1  0
 26 25  1  0
 26 27  1  0
 27 28  1  0
 29 23  1  0
 30 29  2  0
 31 29  1  0
M  END
$$$$
