FHK.pdb
     RDKit          3D

 31 32  0  0  1  0  0  0  0  0999 V2000
   27.1174  -19.6980  -18.0549 N   0  0  0  0  0  0  0  0  0  0  0  0
   26.0647  -19.0190  -17.3211 C   0  0  1  0  0  0  0  0  0  0  0  0
   25.0715  -18.5459  -18.3919 C   0  0  0  0  0  0  0  0  0  0  0  0
   25.6843  -17.5147  -19.2563 C   0  0  0  0  0  0  0  0  0  0  0  0
   25.8778  -16.2276  -18.7884 C   0  0  0  0  0  0  0  0  0  0  0  0
   26.4508  -15.2633  -19.5906 C   0  0  0  0  0  0  0  0  0  0  0  0
   26.8489  -15.5471  -20.8805 C   0  0  0  0  0  0  0  0  0  0  0  0
   26.6537  -16.8339  -21.3438 C   0  0  0  0  0  0  0  0  0  0  0  0
   26.0736  -17.8226  -20.5413 C   0  0  0  0  0  0  0  0  0  0  0  0
   25.3394  -20.0545  -16.5314 C   0  0  0  0  0  0  0  0  0  0  0  0
   25.7581  -21.2320  -16.4155 O   0  0  0  0  0  0  0  0  0  0  0  0
   24.1039  -19.7537  -15.8503 N   0  0  0  0  0  0  0  0  0  0  0  0
   23.9054  -20.1520  -14.5007 C   0  0  1  0  0  0  0  0  0  0  0  0
   24.9301  -19.7364  -13.5160 C   0  0  0  0  0  0  0  0  0  0  0  0
   24.7944  -20.2254  -12.1496 C   0  0  0  0  0  0  0  0  0  0  0  0
   23.8930  -21.0059  -11.5032 C   0  0  0  0  0  0  0  0  0  0  0  0
   24.2884  -21.1511  -10.2112 N   0  0  0  0  0  0  0  0  0  0  0  0
   25.4168  -20.4713  -10.0614 C   0  0  0  0  0  0  0  0  0  0  0  0
   25.7411  -19.9074  -11.2096 N   0  0  0  0  0  0  0  0  0  0  0  0
   22.5148  -19.7853  -14.0468 C   0  0  0  0  0  0  0  0  0  0  0  0
   22.2949  -18.5782  -13.8054 O   0  0  0  0  0  0  0  0  0  0  0  0
   21.4999  -20.7271  -13.8933 N   0  0  0  0  0  0  0  0  0  0  0  0
   20.1107  -20.3184  -13.3879 C   0  0  1  0  0  0  0  0  0  0  0  0
   19.2452  -21.4513  -13.6467 C   0  0  0  0  0  0  0  0  0  0  0  0
   19.3948  -22.8585  -13.3632 C   0  0  0  0  0  0  0  0  0  0  0  0
   19.3533  -23.9657  -14.3015 C   0  0  0  0  0  0  0  0  0  0  0  0
   18.2067  -24.8693  -14.4765 C   0  0  0  0  0  0  0  0  0  0  0  0
   18.3924  -25.8699  -15.5085 N   0  0  0  0  0  0  0  0  0  0  0  0
   20.3040  -19.6852  -12.1073 C   0  0  0  0  0  0  0  0  0  0  0  0
   21.3194  -19.6893  -11.3955 O   0  0  0  0  0  0  0  0  0  0  0  0
   19.2181  -18.9550  -11.5588 O   0  0  0  0  0  0  0  0  0  0  0  0
  2  1  1  6
  2  3  1  0
  3  4  1  0
  4  9  1  0
  4  5  2  0
  5  6  1  0
  6  7  2  0
  8  7  1  0
  9  8  2  0
 10  2  1  0
 10 12  1  0
 11 10  2  0
 13 12  1  0
 13 14  1  1
 15 14  1  0
 15 16  2  0
 17 16  1  0
 18 17  1  0
 19 18  2  0
 19 15  1  0
 20 13  1  0
 21 20  2  0
 22 20  1  0
 23 24  1  1
 23 22  1  0
 25 24  1  0
 26 25  1  0
 26 27  1  0
 27 28  1  0
 29 23  1  0
 30 29  2  0
 31 29  1  0
M  END
$$$$
