FHK.pdb
     RDKit          3D

 31 32  0  0  1  0  0  0  0  0999 V2000
   26.5381  -19.8932  -12.1845 N   0  0  0  0  0  0  0  0  0  0  0  0
   25.8036  -21.0935  -11.8276 C   0  0  1  0  0  0  0  0  0  0  0  0
   25.8482  -21.1490  -10.2940 C   0  0  0  0  0  0  0  0  0  0  0  0
   27.2430  -21.2447   -9.8132 C   0  0  0  0  0  0  0  0  0  0  0  0
   28.2032  -21.8993  -10.5631 C   0  0  0  0  0  0  0  0  0  0  0  0
   29.5058  -21.9891  -10.1194 C   0  0  0  0  0  0  0  0  0  0  0  0
   29.8946  -21.4322   -8.9186 C   0  0  0  0  0  0  0  0  0  0  0  0
   28.9323  -20.7793   -8.1728 C   0  0  0  0  0  0  0  0  0  0  0  0
   27.6068  -20.6803   -8.6103 C   0  0  0  0  0  0  0  0  0  0  0  0
   24.3744  -20.8565  -12.1787 C   0  0  0  0  0  0  0  0  0  0  0  0
   23.8241  -19.7359  -12.0504 O   0  0  0  0  0  0  0  0  0  0  0  0
   23.5391  -21.9153  -12.6907 N   0  0  0  0  0  0  0  0  0  0  0  0
   22.2380  -21.6346  -13.1885 C   0  0  1  0  0  0  0  0  0  0  0  0
   22.0978  -21.4591  -14.6521 C   0  0  0  0  0  0  0  0  0  0  0  0
   22.8005  -20.3420  -15.2709 C   0  0  0  0  0  0  0  0  0  0  0  0
   22.6279  -18.9968  -15.2801 C   0  0  0  0  0  0  0  0  0  0  0  0
   23.6168  -18.4350  -16.0239 N   0  0  0  0  0  0  0  0  0  0  0  0
   24.3888  -19.4176  -16.4671 C   0  0  0  0  0  0  0  0  0  0  0  0
   23.9202  -20.5708  -16.0290 N   0  0  0  0  0  0  0  0  0  0  0  0
   21.2454  -22.6337  -12.6491 C   0  0  0  0  0  0  0  0  0  0  0  0
   21.5505  -23.8432  -12.7375 O   0  0  0  0  0  0  0  0  0  0  0  0
   20.0344  -22.2564  -12.0733 N   0  0  0  0  0  0  0  0  0  0  0  0
   19.0549  -23.3049  -11.5314 C   0  0  1  0  0  0  0  0  0  0  0  0
   18.7528  -22.9010  -10.1730 C   0  0  0  0  0  0  0  0  0  0  0  0
   18.7421  -23.6379   -8.9321 C   0  0  0  0  0  0  0  0  0  0  0  0
   17.6679  -24.4479   -8.3862 C   0  0  0  0  0  0  0  0  0  0  0  0
   17.7129  -25.1253   -7.0820 C   0  0  0  0  0  0  0  0  0  0  0  0
   16.5064  -25.8576   -6.7523 N   0  0  0  0  0  0  0  0  0  0  0  0
   18.0855  -23.5448  -12.5711 C   0  0  0  0  0  0  0  0  0  0  0  0
   17.6867  -22.7589  -13.4435 O   0  0  0  0  0  0  0  0  0  0  0  0
   17.4902  -24.8310  -12.6377 O   0  0  0  0  0  0  0  0  0  0  0  0
  2  1  1  1
  2  3  1  0
  3  4  1  0
  4  9  1  0
  4  5  2  0
  5  6  1  0
  6  7  2  0
  8  7  1  0
  9  8  2  0
 10  2  1  0
 10 12  1  0
 11 10  2  0
 13 12  1  0
 13 14  1  6
 15 14  1  0
 15 16  2  0
 17 16  1  0
 18 17  1  0
 19 18  2  0
 19 15  1  0
 20 13  1  0
 21 20  2  0
 22 20  1  0
 23 24  1  1
 23 22  1  0
 25 24  1  0
 26 25  1  0
 26 27  1  0
 27 28  1  0
 29 23  1  0
 30 29  2  0
 31 29  1  0
M  END
$$$$
