FHK.pdb
     RDKit          3D

 31 32  0  0  1  0  0  0  0  0999 V2000
   24.5172  -19.8272  -17.0660 N   0  0  0  0  0  0  0  0  0  0  0  0
   23.5110  -18.9798  -16.4518 C   0  0  1  0  0  0  0  0  0  0  0  0
   22.3793  -18.8887  -17.4852 C   0  0  0  0  0  0  0  0  0  0  0  0
   22.7591  -17.9965  -18.6014 C   0  0  0  0  0  0  0  0  0  0  0  0
   23.0833  -18.5178  -19.8407 C   0  0  0  0  0  0  0  0  0  0  0  0
   23.4362  -17.6892  -20.8850 C   0  0  0  0  0  0  0  0  0  0  0  0
   23.4779  -16.3189  -20.7309 C   0  0  0  0  0  0  0  0  0  0  0  0
   23.1534  -15.8025  -19.4913 C   0  0  0  0  0  0  0  0  0  0  0  0
   22.7935  -16.6310  -18.4226 C   0  0  0  0  0  0  0  0  0  0  0  0
   22.9419  -19.7353  -15.2998 C   0  0  0  0  0  0  0  0  0  0  0  0
   22.7852  -20.9804  -15.3195 O   0  0  0  0  0  0  0  0  0  0  0  0
   22.5369  -19.0671  -14.0872 N   0  0  0  0  0  0  0  0  0  0  0  0
   22.0610  -19.8118  -12.9744 C   0  0  1  0  0  0  0  0  0  0  0  0
   22.2286  -19.2054  -11.6340 C   0  0  0  0  0  0  0  0  0  0  0  0
   21.7756  -19.9738  -10.4812 C   0  0  0  0  0  0  0  0  0  0  0  0
   22.3295  -20.9349   -9.7010 C   0  0  0  0  0  0  0  0  0  0  0  0
   21.4366  -21.2832   -8.7375 N   0  0  0  0  0  0  0  0  0  0  0  0
   20.3480  -20.5484   -8.9191 C   0  0  0  0  0  0  0  0  0  0  0  0
   20.5266  -19.7552   -9.9585 N   0  0  0  0  0  0  0  0  0  0  0  0
   20.6393  -20.2553  -13.2119 C   0  0  0  0  0  0  0  0  0  0  0  0
   19.8714  -19.4345  -13.7601 O   0  0  0  0  0  0  0  0  0  0  0  0
   20.1729  -21.5162  -12.8473 N   0  0  0  0  0  0  0  0  0  0  0  0
   18.6880  -21.8784  -12.9753 C   0  0  1  0  0  0  0  0  0  0  0  0
   18.6444  -23.3148  -13.1606 C   0  0  0  0  0  0  0  0  0  0  0  0
   17.6724  -24.1719  -13.7960 C   0  0  0  0  0  0  0  0  0  0  0  0
   17.6807  -25.6215  -13.8769 C   0  0  0  0  0  0  0  0  0  0  0  0
   16.6113  -26.4302  -14.4803 C   0  0  0  0  0  0  0  0  0  0  0  0
   16.7738  -27.8589  -14.2983 N   0  0  0  0  0  0  0  0  0  0  0  0
   17.9909  -21.1428  -11.9500 C   0  0  0  0  0  0  0  0  0  0  0  0
   18.4254  -20.7541  -10.8555 O   0  0  0  0  0  0  0  0  0  0  0  0
   16.6341  -20.8013  -12.1860 O   0  0  0  0  0  0  0  0  0  0  0  0
  2  1  1  6
  2  3  1  0
  3  4  1  0
  4  9  1  0
  4  5  2  0
  5  6  1  0
  6  7  2  0
  8  7  1  0
  9  8  2  0
 10  2  1  0
 10 12  1  0
 11 10  2  0
 13 12  1  0
 13 14  1  1
 15 14  1  0
 15 16  2  0
 17 16  1  0
 18 17  1  0
 19 18  2  0
 19 15  1  0
 20 13  1  0
 21 20  2  0
 22 20  1  0
 23 24  1  1
 23 22  1  0
 25 24  1  0
 26 25  1  0
 26 27  1  0
 27 28  1  0
 29 23  1  0
 30 29  2  0
 31 29  1  0
M  END
$$$$
