CCE.pdb
     RDKit          3D

 22 21  0  0  1  0  0  0  0  0999 V2000
   24.0299  -12.1858  -14.5935 N   0  0  0  0  0  0  0  0  0  0  0  0
   23.0890  -11.3531  -15.2731 C   0  0  1  0  0  0  0  0  0  0  0  0
   21.6942  -11.6538  -14.7938 C   0  0  0  0  0  0  0  0  0  0  0  0
   21.2292  -13.2948  -15.4499 S   0  0  0  0  0  0  0  0  0  0  0  0
   23.4173   -9.9123  -15.1982 C   0  0  0  0  0  0  0  0  0  0  0  0
   23.6348   -9.4039  -14.0687 O   0  0  0  0  0  0  0  0  0  0  0  0
   23.5049   -9.0548  -16.3224 N   0  0  0  0  0  0  0  0  0  0  0  0
   23.7907   -7.6379  -16.2358 C   0  0  1  0  0  0  0  0  0  0  0  0
   24.7921   -7.1997  -17.2813 C   0  0  0  0  0  0  0  0  0  0  0  0
   25.2099   -5.4666  -16.9461 S   0  0  0  0  0  0  0  0  0  0  0  0
   22.5903   -6.8033  -16.3693 C   0  0  0  0  0  0  0  0  0  0  0  0
   21.7194   -6.9540  -17.2598 O   0  0  0  0  0  0  0  0  0  0  0  0
   22.3977   -5.7537  -15.4293 N   0  0  0  0  0  0  0  0  0  0  0  0
   21.2140   -4.9169  -15.4249 C   0  0  1  0  0  0  0  0  0  0  0  0
   21.3037   -3.9250  -14.2836 C   0  0  0  0  0  0  0  0  0  0  0  0
   21.4487   -2.5026  -14.8123 C   0  0  0  0  0  0  0  0  0  0  0  0
   20.9698   -1.5960  -13.7095 C   0  0  0  0  0  0  0  0  0  0  0  0
   19.7946   -1.5609  -13.3189 O   0  0  0  0  0  0  0  0  0  0  0  0
   21.1998   -4.1334  -16.6878 C   0  0  0  0  0  0  0  0  0  0  0  0
   22.2410   -3.6942  -17.2385 O   0  0  0  0  0  0  0  0  0  0  0  0
   21.9174   -0.7681  -13.1190 O   0  0  0  0  0  0  0  0  0  0  0  0
   19.9915   -3.8452  -17.3327 O   0  0  0  0  0  0  0  0  0  0  0  0
  2  1  1  1
  2  5  1  0
  3  2  1  0
  4  3  1  0
  5  6  2  0
  7  5  1  0
  7  8  1  0
  8 11  1  0
  8  9  1  6
 10  9  1  0
 11 13  1  0
 11 12  2  0
 13 14  1  0
 14 15  1  1
 15 16  1  0
 17 16  1  0
 18 17  2  0
 19 14  1  0
 19 22  1  0
 20 19  2  0
 21 17  1  0
M  END
$$$$
