CCE.pdb
     RDKit          3D

 22 21  0  0  1  0  0  0  0  0999 V2000
   26.3955  -13.5143  -18.1182 N   0  0  0  0  0  0  0  0  0  0  0  0
   26.0726  -12.6040  -17.0658 C   0  0  1  0  0  0  0  0  0  0  0  0
   27.3015  -11.8417  -16.6486 C   0  0  0  0  0  0  0  0  0  0  0  0
   26.8239  -10.7401  -15.2708 S   0  0  0  0  0  0  0  0  0  0  0  0
   24.9339  -11.7151  -17.3859 C   0  0  0  0  0  0  0  0  0  0  0  0
   25.0387  -10.9344  -18.3662 O   0  0  0  0  0  0  0  0  0  0  0  0
   23.7195  -11.6808  -16.6573 N   0  0  0  0  0  0  0  0  0  0  0  0
   22.6527  -10.7351  -16.9115 C   0  0  1  0  0  0  0  0  0  0  0  0
   21.3478  -11.4298  -17.2315 C   0  0  0  0  0  0  0  0  0  0  0  0
   20.0036  -10.3812  -16.6115 S   0  0  0  0  0  0  0  0  0  0  0  0
   22.4229   -9.8172  -15.7890 C   0  0  0  0  0  0  0  0  0  0  0  0
   22.3966  -10.1659  -14.5841 O   0  0  0  0  0  0  0  0  0  0  0  0
   22.2161   -8.4412  -16.0821 N   0  0  0  0  0  0  0  0  0  0  0  0
   22.0608   -7.4373  -15.0479 C   0  0  1  0  0  0  0  0  0  0  0  0
   22.4507   -6.0818  -15.6002 C   0  0  0  0  0  0  0  0  0  0  0  0
   22.2893   -4.9981  -14.5404 C   0  0  0  0  0  0  0  0  0  0  0  0
   22.6063   -3.6944  -15.2240 C   0  0  0  0  0  0  0  0  0  0  0  0
   23.2543   -3.6176  -16.2772 O   0  0  0  0  0  0  0  0  0  0  0  0
   20.6206   -7.3670  -14.6876 C   0  0  0  0  0  0  0  0  0  0  0  0
   19.6932   -7.4709  -15.5299 O   0  0  0  0  0  0  0  0  0  0  0  0
   22.1346   -2.5353  -14.6189 O   0  0  0  0  0  0  0  0  0  0  0  0
   20.2284   -7.1769  -13.3575 O   0  0  0  0  0  0  0  0  0  0  0  0
  2  1  1  6
  2  5  1  0
  3  2  1  0
  4  3  1  0
  5  6  2  0
  7  5  1  0
  7  8  1  0
  8 11  1  0
  8  9  1  1
 10  9  1  0
 11 13  1  0
 11 12  2  0
 13 14  1  0
 14 15  1  6
 15 16  1  0
 17 16  1  0
 18 17  2  0
 19 14  1  0
 19 22  1  0
 20 19  2  0
 21 17  1  0
M  END
$$$$
