CCE.pdb
     RDKit          3D

 22 21  0  0  1  0  0  0  0  0999 V2000
   18.7071  -13.0576  -17.3468 N   0  0  0  0  0  0  0  0  0  0  0  0
   19.4706  -11.8911  -17.6581 C   0  0  1  0  0  0  0  0  0  0  0  0
   18.7496  -11.0628  -18.6874 C   0  0  0  0  0  0  0  0  0  0  0  0
   19.8130   -9.6302  -19.0834 S   0  0  0  0  0  0  0  0  0  0  0  0
   19.8564  -11.1053  -16.4652 C   0  0  0  0  0  0  0  0  0  0  0  0
   18.9524  -10.7275  -15.6768 O   0  0  0  0  0  0  0  0  0  0  0  0
   21.1882  -10.7441  -16.1447 N   0  0  0  0  0  0  0  0  0  0  0  0
   21.5481   -9.9048  -15.0209 C   0  0  1  0  0  0  0  0  0  0  0  0
   22.6038  -10.5498  -14.1508 C   0  0  0  0  0  0  0  0  0  0  0  0
   22.8658   -9.4696  -12.7171 S   0  0  0  0  0  0  0  0  0  0  0  0
   22.0332   -8.5805  -15.4287 C   0  0  0  0  0  0  0  0  0  0  0  0
   22.9548   -8.3894  -16.2584 O   0  0  0  0  0  0  0  0  0  0  0  0
   21.4210   -7.4361  -14.8477 N   0  0  0  0  0  0  0  0  0  0  0  0
   21.8050   -6.0827  -15.1977 C   0  0  1  0  0  0  0  0  0  0  0  0
   20.6980   -5.4394  -16.0071 C   0  0  0  0  0  0  0  0  0  0  0  0
   19.4890   -5.1388  -15.1286 C   0  0  0  0  0  0  0  0  0  0  0  0
   18.2989   -5.1107  -16.0508 C   0  0  0  0  0  0  0  0  0  0  0  0
   17.1426   -5.3528  -15.6778 O   0  0  0  0  0  0  0  0  0  0  0  0
   21.9395   -5.3028  -13.9397 C   0  0  0  0  0  0  0  0  0  0  0  0
   21.5689   -5.7335  -12.8184 O   0  0  0  0  0  0  0  0  0  0  0  0
   18.5416   -4.7939  -17.3822 O   0  0  0  0  0  0  0  0  0  0  0  0
   22.5005   -4.0206  -13.9541 O   0  0  0  0  0  0  0  0  0  0  0  0
  2  1  1  1
  2  5  1  0
  3  2  1  0
  4  3  1  0
  5  6  2  0
  7  5  1  0
  7  8  1  0
  8 11  1  0
  8  9  1  6
 10  9  1  0
 11 13  1  0
 11 12  2  0
 13 14  1  0
 14 15  1  6
 15 16  1  0
 17 16  1  0
 18 17  2  0
 19 14  1  0
 19 22  1  0
 20 19  2  0
 21 17  1  0
M  END
$$$$
