CCE.pdb
     RDKit          3D

 22 21  0  0  1  0  0  0  0  0999 V2000
   26.7342  -13.2912  -17.3890 N   0  0  0  0  0  0  0  0  0  0  0  0
   26.5083  -12.2193  -16.4722 C   0  0  1  0  0  0  0  0  0  0  0  0
   27.8216  -11.6195  -16.0468 C   0  0  0  0  0  0  0  0  0  0  0  0
   28.7397  -12.9033  -15.1256 S   0  0  0  0  0  0  0  0  0  0  0  0
   25.5571  -11.2045  -16.9769 C   0  0  0  0  0  0  0  0  0  0  0  0
   25.4005  -11.0938  -18.2198 O   0  0  0  0  0  0  0  0  0  0  0  0
   24.8014  -10.3382  -16.1491 N   0  0  0  0  0  0  0  0  0  0  0  0
   23.8012   -9.4166  -16.6461 C   0  0  1  0  0  0  0  0  0  0  0  0
   22.6215  -10.1402  -17.2565 C   0  0  0  0  0  0  0  0  0  0  0  0
   21.9996  -11.3128  -16.0200 S   0  0  0  0  0  0  0  0  0  0  0  0
   23.2975   -8.5063  -15.6103 C   0  0  0  0  0  0  0  0  0  0  0  0
   23.1404   -8.8224  -14.4063 O   0  0  0  0  0  0  0  0  0  0  0  0
   22.9646   -7.1776  -15.9922 N   0  0  0  0  0  0  0  0  0  0  0  0
   22.5147   -6.1810  -15.0404 C   0  0  1  0  0  0  0  0  0  0  0  0
   22.4088   -4.8373  -15.7316 C   0  0  0  0  0  0  0  0  0  0  0  0
   22.0623   -3.7398  -14.7320 C   0  0  0  0  0  0  0  0  0  0  0  0
   21.9547   -2.4669  -15.5294 C   0  0  0  0  0  0  0  0  0  0  0  0
   21.1206   -1.5825  -15.2910 O   0  0  0  0  0  0  0  0  0  0  0  0
   21.1469   -6.5548  -14.5949 C   0  0  0  0  0  0  0  0  0  0  0  0
   20.6715   -6.2263  -13.4786 O   0  0  0  0  0  0  0  0  0  0  0  0
   22.8503   -2.3047  -16.5799 O   0  0  0  0  0  0  0  0  0  0  0  0
   20.3097   -7.3094  -15.4248 O   0  0  0  0  0  0  0  0  0  0  0  0
  2  1  1  6
  2  5  1  0
  3  2  1  0
  4  3  1  0
  5  6  2  0
  7  5  1  0
  7  8  1  0
  8 11  1  0
  8  9  1  1
 10  9  1  0
 11 13  1  0
 11 12  2  0
 13 14  1  0
 14 15  1  6
 15 16  1  0
 17 16  1  0
 18 17  2  0
 19 14  1  0
 19 22  1  0
 20 19  2  0
 21 17  1  0
M  END
$$$$
