CCE.pdb
     RDKit          3D

 22 21  0  0  1  0  0  0  0  0999 V2000
   23.1177  -13.3309  -17.5786 N   0  0  0  0  0  0  0  0  0  0  0  0
   22.8699  -12.5435  -18.7444 C   0  0  1  0  0  0  0  0  0  0  0  0
   22.2318  -13.3906  -19.8125 C   0  0  0  0  0  0  0  0  0  0  0  0
   20.5985  -13.9232  -19.1892 S   0  0  0  0  0  0  0  0  0  0  0  0
   22.1053  -11.3074  -18.4674 C   0  0  0  0  0  0  0  0  0  0  0  0
   21.9301  -10.4871  -19.4044 O   0  0  0  0  0  0  0  0  0  0  0  0
   21.5501  -10.9787  -17.2063 N   0  0  0  0  0  0  0  0  0  0  0  0
   20.8454   -9.7437  -16.9323 C   0  0  1  0  0  0  0  0  0  0  0  0
   19.5201   -9.9910  -16.2465 C   0  0  0  0  0  0  0  0  0  0  0  0
   19.8556  -10.9275  -14.7296 S   0  0  0  0  0  0  0  0  0  0  0  0
   21.6242   -8.8119  -16.1074 C   0  0  0  0  0  0  0  0  0  0  0  0
   22.5264   -9.1594  -15.3076 O   0  0  0  0  0  0  0  0  0  0  0  0
   21.3409   -7.4229  -16.2189 N   0  0  0  0  0  0  0  0  0  0  0  0
   22.0012   -6.4232  -15.4027 C   0  0  1  0  0  0  0  0  0  0  0  0
   21.7437   -5.0487  -15.9847 C   0  0  0  0  0  0  0  0  0  0  0  0
   22.4710   -3.9758  -15.1825 C   0  0  0  0  0  0  0  0  0  0  0  0
   22.0189   -2.6544  -15.7457 C   0  0  0  0  0  0  0  0  0  0  0  0
   21.5648   -2.5218  -16.8908 O   0  0  0  0  0  0  0  0  0  0  0  0
   21.3828   -6.4510  -14.0515 C   0  0  0  0  0  0  0  0  0  0  0  0
   20.1824   -6.7644  -13.8489 O   0  0  0  0  0  0  0  0  0  0  0  0
   22.1289   -1.5453  -14.9151 O   0  0  0  0  0  0  0  0  0  0  0  0
   22.1343   -6.1195  -12.9182 O   0  0  0  0  0  0  0  0  0  0  0  0
  2  1  1  1
  2  5  1  0
  3  2  1  0
  4  3  1  0
  5  6  2  0
  7  5  1  0
  7  8  1  0
  8 11  1  0
  8  9  1  1
 10  9  1  0
 11 13  1  0
 11 12  2  0
 13 14  1  0
 14 15  1  6
 15 16  1  0
 17 16  1  0
 18 17  2  0
 19 14  1  0
 19 22  1  0
 20 19  2  0
 21 17  1  0
M  END
$$$$
