CCE.pdb
     RDKit          3D

 22 21  0  0  1  0  0  0  0  0999 V2000
   20.5906  -12.2928  -18.3419 N   0  0  0  0  0  0  0  0  0  0  0  0
   19.8191  -11.9457  -17.1909 C   0  0  1  0  0  0  0  0  0  0  0  0
   19.2338  -13.1855  -16.5697 C   0  0  0  0  0  0  0  0  0  0  0  0
   18.7639  -14.3125  -17.9294 S   0  0  0  0  0  0  0  0  0  0  0  0
   20.5599  -11.1166  -16.2147 C   0  0  0  0  0  0  0  0  0  0  0  0
   19.9977  -10.8202  -15.1296 O   0  0  0  0  0  0  0  0  0  0  0  0
   21.8735  -10.6270  -16.4185 N   0  0  0  0  0  0  0  0  0  0  0  0
   22.5472   -9.7224  -15.5104 C   0  0  1  0  0  0  0  0  0  0  0  0
   24.0335   -9.9945  -15.4428 C   0  0  0  0  0  0  0  0  0  0  0  0
   24.2581  -11.6132  -14.6554 S   0  0  0  0  0  0  0  0  0  0  0  0
   22.3529   -8.3102  -15.8613 C   0  0  0  0  0  0  0  0  0  0  0  0
   22.5358   -7.8345  -17.0078 O   0  0  0  0  0  0  0  0  0  0  0  0
   21.9293   -7.4189  -14.8373 N   0  0  0  0  0  0  0  0  0  0  0  0
   21.6733   -6.0132  -15.0823 C   0  0  1  0  0  0  0  0  0  0  0  0
   20.1882   -5.8019  -15.2929 C   0  0  0  0  0  0  0  0  0  0  0  0
   19.8783   -4.3274  -15.5241 C   0  0  0  0  0  0  0  0  0  0  0  0
   18.3953   -4.2460  -15.7725 C   0  0  0  0  0  0  0  0  0  0  0  0
   17.7755   -3.1761  -15.8500 O   0  0  0  0  0  0  0  0  0  0  0  0
   22.0560   -5.2564  -13.8618 C   0  0  0  0  0  0  0  0  0  0  0  0
   22.1101   -5.7746  -12.7178 O   0  0  0  0  0  0  0  0  0  0  0  0
   17.7144   -5.4490  -15.9180 O   0  0  0  0  0  0  0  0  0  0  0  0
   22.3807   -3.8972  -13.9401 O   0  0  0  0  0  0  0  0  0  0  0  0
  2  1  1  6
  2  5  1  0
  3  2  1  0
  4  3  1  0
  5  6  2  0
  7  5  1  0
  7  8  1  0
  8 11  1  0
  8  9  1  6
 10  9  1  0
 11 13  1  0
 11 12  2  0
 13 14  1  0
 14 15  1  1
 15 16  1  0
 17 16  1  0
 18 17  2  0
 19 14  1  0
 19 22  1  0
 20 19  2  0
 21 17  1  0
M  END
$$$$
