CCE.pdb
     RDKit          3D

 22 21  0  0  1  0  0  0  0  0999 V2000
   18.3244  -12.2053  -16.6857 N   0  0  0  0  0  0  0  0  0  0  0  0
   18.9196  -11.0214  -17.2191 C   0  0  1  0  0  0  0  0  0  0  0  0
   17.8945  -10.2292  -17.9853 C   0  0  0  0  0  0  0  0  0  0  0  0
   17.5517  -11.1299  -19.5380 S   0  0  0  0  0  0  0  0  0  0  0  0
   19.6230  -10.2077  -16.2029 C   0  0  0  0  0  0  0  0  0  0  0  0
   18.9860   -9.8383  -15.1834 O   0  0  0  0  0  0  0  0  0  0  0  0
   20.9795   -9.8107  -16.2984 N   0  0  0  0  0  0  0  0  0  0  0  0
   21.6536   -8.9975  -15.3079 C   0  0  1  0  0  0  0  0  0  0  0  0
   23.0838   -9.4405  -15.0932 C   0  0  0  0  0  0  0  0  0  0  0  0
   23.2166  -10.0550  -13.3917 S   0  0  0  0  0  0  0  0  0  0  0  0
   21.6599   -7.5696  -15.6487 C   0  0  0  0  0  0  0  0  0  0  0  0
   22.0372   -7.1074  -16.7524 O   0  0  0  0  0  0  0  0  0  0  0  0
   21.2092   -6.6456  -14.6661 N   0  0  0  0  0  0  0  0  0  0  0  0
   21.1530   -5.2169  -14.9052 C   0  0  1  0  0  0  0  0  0  0  0  0
   19.7806   -4.6979  -14.5291 C   0  0  0  0  0  0  0  0  0  0  0  0
   19.6927   -3.1917  -14.7467 C   0  0  0  0  0  0  0  0  0  0  0  0
   18.2886   -2.7965  -14.3727 C   0  0  0  0  0  0  0  0  0  0  0  0
   17.8595   -1.6380  -14.4659 O   0  0  0  0  0  0  0  0  0  0  0  0
   22.1337   -4.5604  -14.0018 C   0  0  0  0  0  0  0  0  0  0  0  0
   22.6815   -3.4593  -14.2624 O   0  0  0  0  0  0  0  0  0  0  0  0
   17.4551   -3.8046  -13.9024 O   0  0  0  0  0  0  0  0  0  0  0  0
   22.4968   -5.1594  -12.7901 O   0  0  0  0  0  0  0  0  0  0  0  0
  2  1  1  1
  2  5  1  0
  3  2  1  0
  4  3  1  0
  5  6  2  0
  7  5  1  0
  7  8  1  0
  8 11  1  0
  8  9  1  6
 10  9  1  0
 11 13  1  0
 11 12  2  0
 13 14  1  0
 14 15  1  1
 15 16  1  0
 17 16  1  0
 18 17  2  0
 19 14  1  0
 19 22  1  0
 20 19  2  0
 21 17  1  0
M  END
$$$$
