TGV.pdb
     RDKit          3D

 19 18  0  0  1  0  0  0  0  0999 V2000
   34.6453  -28.0997  -18.3875 C   0  0  0  0  0  0  0  0  0  0  0  0
   35.0407  -27.0577  -17.3860 C   0  0  1  0  0  0  0  0  0  0  0  0
   36.3820  -26.6550  -17.5813 O   0  0  0  0  0  0  0  0  0  0  0  0
   34.2041  -25.8082  -17.6136 C   0  0  2  0  0  0  0  0  0  0  0  0
   34.8566  -24.7420  -16.8922 N   0  0  0  0  0  0  0  0  0  0  0  0
   32.8326  -25.9677  -17.0880 C   0  0  0  0  0  0  0  0  0  0  0  0
   32.0680  -26.9116  -17.4930 O   0  0  0  0  0  0  0  0  0  0  0  0
   32.2779  -25.1097  -16.1224 N   0  0  0  0  0  0  0  0  0  0  0  0
   30.9498  -25.2938  -15.5633 C   0  0  0  0  0  0  0  0  0  0  0  0
   29.9489  -24.7829  -16.5532 C   0  0  0  0  0  0  0  0  0  0  0  0
   30.3400  -24.1285  -17.5723 O   0  0  0  0  0  0  0  0  0  0  0  0
   26.0183  -26.3378  -16.7793 C   0  0  0  0  0  0  0  0  0  0  0  0
   26.7777  -25.6854  -17.9357 C   0  0  2  0  0  0  0  0  0  0  0  0
   27.6898  -26.6990  -18.5950 C   0  0  0  0  0  0  0  0  0  0  0  0
   27.6478  -24.5571  -17.4285 C   0  0  2  0  0  0  0  0  0  0  0  0
   28.5623  -24.9972  -16.4066 N   0  0  0  0  0  0  0  0  0  0  0  0
   26.7811  -23.4740  -16.9307 C   0  0  0  0  0  0  0  0  0  0  0  0
   26.6127  -23.2681  -15.7161 O   0  0  0  0  0  0  0  0  0  0  0  0
   26.1360  -22.6625  -17.8450 O   0  0  0  0  0  0  0  0  0  0  0  0
  2  1  1  6
  2  3  1  0
  4  6  1  0
  4  2  1  0
  4  5  1  1
  6  7  2  0
  6  8  1  0
  8  9  1  0
  9 10  1  0
 10 11  2  0
 13 12  1  1
 13 15  1  0
 14 13  1  0
 15 17  1  0
 16 10  1  0
 15 16  1  1
 17 18  2  0
 17 19  1  0
M  END
$$$$
