TGV.pdb
     RDKit          3D

 19 18  0  0  1  0  0  0  0  0999 V2000
   24.2356  -16.2287  -17.9157 C   0  0  0  0  0  0  0  0  0  0  0  0
   25.1517  -15.2433  -18.5751 C   0  0  1  0  0  0  0  0  0  0  0  0
   24.9664  -13.9477  -18.0401 O   0  0  0  0  0  0  0  0  0  0  0  0
   26.5916  -15.6133  -18.2544 C   0  0  2  0  0  0  0  0  0  0  0  0
   26.7587  -15.4136  -16.8348 N   0  0  0  0  0  0  0  0  0  0  0  0
   27.5494  -14.7471  -18.9721 C   0  0  0  0  0  0  0  0  0  0  0  0
   27.9085  -15.0019  -20.1745 O   0  0  0  0  0  0  0  0  0  0  0  0
   28.1254  -13.6011  -18.3968 N   0  0  0  0  0  0  0  0  0  0  0  0
   29.0880  -12.7615  -19.0888 C   0  0  0  0  0  0  0  0  0  0  0  0
   29.8174  -11.9441  -18.0678 C   0  0  0  0  0  0  0  0  0  0  0  0
   29.5441  -12.0794  -16.8322 O   0  0  0  0  0  0  0  0  0  0  0  0
   33.5286  -10.0797  -18.9278 C   0  0  0  0  0  0  0  0  0  0  0  0
   33.0604  -10.5571  -17.5521 C   0  0  2  0  0  0  0  0  0  0  0  0
   33.3180  -12.0421  -17.4027 C   0  0  0  0  0  0  0  0  0  0  0  0
   31.5723  -10.3384  -17.3937 C   0  0  2  0  0  0  0  0  0  0  0  0
   30.8151  -11.0103  -18.4181 N   0  0  0  0  0  0  0  0  0  0  0  0
   31.3002   -8.8899  -17.4004 C   0  0  0  0  0  0  0  0  0  0  0  0
   30.7938   -8.3174  -18.3811 O   0  0  0  0  0  0  0  0  0  0  0  0
   31.6191   -8.1463  -16.2796 O   0  0  0  0  0  0  0  0  0  0  0  0
  2  1  1  1
  2  3  1  0
  4  6  1  0
  4  2  1  0
  4  5  1  1
  6  7  2  0
  6  8  1  0
  8  9  1  0
  9 10  1  0
 10 11  2  0
 13 12  1  6
 13 15  1  0
 14 13  1  0
 15 17  1  0
 16 10  1  0
 15 16  1  6
 17 18  2  0
 17 19  1  0
M  END
$$$$
