TGV.pdb
     RDKit          3D

 19 18  0  0  1  0  0  0  0  0999 V2000
   24.0972  -21.2715  -16.5867 C   0  0  0  0  0  0  0  0  0  0  0  0
   23.6448  -22.4345  -15.7573 C   0  0  1  0  0  0  0  0  0  0  0  0
   23.4913  -23.5920  -16.5547 O   0  0  0  0  0  0  0  0  0  0  0  0
   24.7306  -22.7767  -14.7489 C   0  0  2  0  0  0  0  0  0  0  0  0
   24.2913  -23.9685  -14.0635 N   0  0  0  0  0  0  0  0  0  0  0  0
   24.9120  -21.6974  -13.7563 C   0  0  0  0  0  0  0  0  0  0  0  0
   23.9152  -21.1869  -13.1356 O   0  0  0  0  0  0  0  0  0  0  0  0
   26.1699  -21.1627  -13.4277 N   0  0  0  0  0  0  0  0  0  0  0  0
   26.3513  -20.0872  -12.4682 C   0  0  0  0  0  0  0  0  0  0  0  0
   26.4668  -20.6910  -11.1026 C   0  0  0  0  0  0  0  0  0  0  0  0
   26.4363  -21.9556  -10.9623 O   0  0  0  0  0  0  0  0  0  0  0  0
   27.5125  -20.4881   -6.3059 C   0  0  0  0  0  0  0  0  0  0  0  0
   27.4172  -19.7331   -7.6327 C   0  0  2  0  0  0  0  0  0  0  0  0
   26.6992  -18.4151   -7.4295 C   0  0  0  0  0  0  0  0  0  0  0  0
   26.6201  -20.5312   -8.6403 C   0  0  2  0  0  0  0  0  0  0  0  0
   26.6110  -19.9075   -9.9385 N   0  0  0  0  0  0  0  0  0  0  0  0
   25.2488  -20.7085   -8.1301 C   0  0  0  0  0  0  0  0  0  0  0  0
   24.2919  -20.0426   -8.5623 O   0  0  0  0  0  0  0  0  0  0  0  0
   25.0218  -21.6456   -7.1395 O   0  0  0  0  0  0  0  0  0  0  0  0
  2  1  1  6
  2  3  1  0
  4  6  1  0
  4  2  1  0
  4  5  1  1
  6  7  2  0
  6  8  1  0
  8  9  1  0
  9 10  1  0
 10 11  2  0
 13 12  1  1
 13 15  1  0
 14 13  1  0
 15 17  1  0
 16 10  1  0
 15 16  1  6
 17 18  2  0
 17 19  1  0
M  END
$$$$
