TGV.pdb
     RDKit          3D

 19 18  0  0  1  0  0  0  0  0999 V2000
   16.5796  -13.0322  -17.9306 C   0  0  0  0  0  0  0  0  0  0  0  0
   17.1800  -13.1909  -16.5670 C   0  0  1  0  0  0  0  0  0  0  0  0
   17.4086  -14.5549  -16.2732 O   0  0  0  0  0  0  0  0  0  0  0  0
   18.5524  -12.5360  -16.5501 C   0  0  2  0  0  0  0  0  0  0  0  0
   19.1784  -12.9300  -15.3107 N   0  0  0  0  0  0  0  0  0  0  0  0
   18.4534  -11.0623  -16.5849 C   0  0  0  0  0  0  0  0  0  0  0  0
   18.2011  -10.4357  -17.6728 O   0  0  0  0  0  0  0  0  0  0  0  0
   18.6259  -10.2560  -15.4464 N   0  0  0  0  0  0  0  0  0  0  0  0
   18.5314   -8.8067  -15.4760 C   0  0  0  0  0  0  0  0  0  0  0  0
   19.8671   -8.2415  -15.1035 C   0  0  0  0  0  0  0  0  0  0  0  0
   20.7245   -8.9734  -14.5126 O   0  0  0  0  0  0  0  0  0  0  0  0
   23.5139   -5.0887  -15.8841 C   0  0  0  0  0  0  0  0  0  0  0  0
   22.1427   -5.6544  -16.2571 C   0  0  2  0  0  0  0  0  0  0  0  0
   21.1806   -4.5250  -16.5618 C   0  0  0  0  0  0  0  0  0  0  0  0
   21.5633   -6.4427  -15.1036 C   0  0  2  0  0  0  0  0  0  0  0  0
   20.2286   -6.9067  -15.3824 N   0  0  0  0  0  0  0  0  0  0  0  0
   21.5882   -5.6031  -13.8927 C   0  0  0  0  0  0  0  0  0  0  0  0
   20.5847   -4.9848  -13.4967 O   0  0  0  0  0  0  0  0  0  0  0  0
   22.7658   -5.5012  -13.1759 O   0  0  0  0  0  0  0  0  0  0  0  0
  2  1  1  6
  2  3  1  0
  4  6  1  0
  4  2  1  0
  4  5  1  1
  6  7  2  0
  6  8  1  0
  8  9  1  0
  9 10  1  0
 10 11  2  0
 13 12  1  1
 13 15  1  0
 14 13  1  0
 15 17  1  0
 16 10  1  0
 15 16  1  6
 17 18  2  0
 17 19  1  0
M  END
$$$$
