TGV.pdb
     RDKit          3D

 19 18  0  0  1  0  0  0  0  0999 V2000
   18.8960  -13.7742  -22.8789 C   0  0  0  0  0  0  0  0  0  0  0  0
   19.5266  -12.4902  -22.4331 C   0  0  1  0  0  0  0  0  0  0  0  0
   18.6645  -11.7805  -21.5658 O   0  0  0  0  0  0  0  0  0  0  0  0
   20.7640  -12.8059  -21.6072 C   0  0  2  0  0  0  0  0  0  0  0  0
   20.3185  -13.6081  -20.4931 N   0  0  0  0  0  0  0  0  0  0  0  0
   21.3984  -11.5780  -21.0850 C   0  0  0  0  0  0  0  0  0  0  0  0
   21.8937  -10.6966  -21.8708 O   0  0  0  0  0  0  0  0  0  0  0  0
   21.5022  -11.2940  -19.7122 N   0  0  0  0  0  0  0  0  0  0  0  0
   22.0886  -10.0696  -19.1951 C   0  0  0  0  0  0  0  0  0  0  0  0
   21.4367   -9.7540  -17.8845 C   0  0  0  0  0  0  0  0  0  0  0  0
   20.1926   -9.9704  -17.7250 O   0  0  0  0  0  0  0  0  0  0  0  0
   21.3861  -10.0325  -13.1731 C   0  0  0  0  0  0  0  0  0  0  0  0
   22.0699  -10.1596  -14.5353 C   0  0  2  0  0  0  0  0  0  0  0  0
   23.5584   -9.9182  -14.3935 C   0  0  0  0  0  0  0  0  0  0  0  0
   21.5334   -9.1220  -15.4962 C   0  0  2  0  0  0  0  0  0  0  0  0
   22.1515   -9.2161  -16.7937 N   0  0  0  0  0  0  0  0  0  0  0  0
   21.7328   -7.7836  -14.9122 C   0  0  0  0  0  0  0  0  0  0  0  0
   22.6896   -7.0580  -15.2346 O   0  0  0  0  0  0  0  0  0  0  0  0
   20.8259   -7.3225  -13.9764 O   0  0  0  0  0  0  0  0  0  0  0  0
  2  1  1  1
  2  3  1  0
  4  6  1  0
  4  2  1  0
  4  5  1  1
  6  7  2  0
  6  8  1  0
  8  9  1  0
  9 10  1  0
 10 11  2  0
 13 12  1  1
 13 15  1  0
 14 13  1  0
 15 17  1  0
 16 10  1  0
 15 16  1  6
 17 18  2  0
 17 19  1  0
M  END
$$$$
