TGV.pdb
     RDKit          3D

 19 18  0  0  1  0  0  0  0  0999 V2000
   25.2174  -23.1826  -12.0996 C   0  0  0  0  0  0  0  0  0  0  0  0
   24.5849  -22.1451  -12.9761 C   0  0  1  0  0  0  0  0  0  0  0  0
   23.4503  -22.6687  -13.6378 O   0  0  0  0  0  0  0  0  0  0  0  0
   24.0613  -21.0129  -12.1060 C   0  0  2  0  0  0  0  0  0  0  0  0
   23.3073  -20.1431  -12.9766 N   0  0  0  0  0  0  0  0  0  0  0  0
   25.1631  -20.2383  -11.4986 C   0  0  0  0  0  0  0  0  0  0  0  0
   25.7010  -19.2505  -12.1105 O   0  0  0  0  0  0  0  0  0  0  0  0
   25.6908  -20.5249  -10.2276 N   0  0  0  0  0  0  0  0  0  0  0  0
   26.7787  -19.7707   -9.6293 C   0  0  0  0  0  0  0  0  0  0  0  0
   27.0171  -20.3043   -8.2505 C   0  0  0  0  0  0  0  0  0  0  0  0
   26.5868  -21.4592   -7.9328 O   0  0  0  0  0  0  0  0  0  0  0  0
   29.8231  -20.2052   -4.1831 C   0  0  0  0  0  0  0  0  0  0  0  0
   29.3075  -19.4538   -5.4116 C   0  0  2  0  0  0  0  0  0  0  0  0
   28.7438  -18.1099   -4.9992 C   0  0  0  0  0  0  0  0  0  0  0  0
   28.1907  -20.2277   -6.0758 C   0  0  2  0  0  0  0  0  0  0  0  0
   27.7112  -19.5716   -7.2650 N   0  0  0  0  0  0  0  0  0  0  0  0
   27.1004  -20.4203   -5.1030 C   0  0  0  0  0  0  0  0  0  0  0  0
   26.1363  -19.6387   -5.0279 O   0  0  0  0  0  0  0  0  0  0  0  0
   27.1535  -21.5051   -4.2479 O   0  0  0  0  0  0  0  0  0  0  0  0
  2  1  1  1
  2  3  1  0
  4  6  1  0
  4  2  1  0
  4  5  1  6
  6  7  2  0
  6  8  1  0
  8  9  1  0
  9 10  1  0
 10 11  2  0
 13 12  1  1
 13 15  1  0
 14 13  1  0
 15 17  1  0
 16 10  1  0
 15 16  1  6
 17 18  2  0
 17 19  1  0
M  END
$$$$
