TGV.pdb
     RDKit          3D

 19 18  0  0  1  0  0  0  0  0999 V2000
   17.7064  -16.5045  -17.2267 C   0  0  0  0  0  0  0  0  0  0  0  0
   18.5717  -16.0604  -18.3665 C   0  0  1  0  0  0  0  0  0  0  0  0
   18.3062  -16.8232  -19.5270 O   0  0  0  0  0  0  0  0  0  0  0  0
   18.2146  -14.6278  -18.7313 C   0  0  2  0  0  0  0  0  0  0  0  0
   18.9355  -14.3227  -19.9439 N   0  0  0  0  0  0  0  0  0  0  0  0
   18.6308  -13.6777  -17.6793 C   0  0  0  0  0  0  0  0  0  0  0  0
   18.1391  -13.7322  -16.4982 O   0  0  0  0  0  0  0  0  0  0  0  0
   19.5797  -12.6633  -17.8953 N   0  0  0  0  0  0  0  0  0  0  0  0
   20.0788  -11.8022  -16.8371 C   0  0  0  0  0  0  0  0  0  0  0  0
   19.1481  -10.6368  -16.7021 C   0  0  0  0  0  0  0  0  0  0  0  0
   18.4031  -10.3021  -17.6783 O   0  0  0  0  0  0  0  0  0  0  0  0
   17.6383   -9.3417  -13.0321 C   0  0  0  0  0  0  0  0  0  0  0  0
   17.0267   -9.0707  -14.4077 C   0  0  2  0  0  0  0  0  0  0  0  0
   16.2621  -10.2880  -14.8846 C   0  0  0  0  0  0  0  0  0  0  0  0
   18.1115   -8.7917  -15.4240 C   0  0  2  0  0  0  0  0  0  0  0  0
   19.0556   -9.8753  -15.5183 N   0  0  0  0  0  0  0  0  0  0  0  0
   18.7874   -7.5321  -15.0657 C   0  0  0  0  0  0  0  0  0  0  0  0
   19.9379   -7.5106  -14.5944 O   0  0  0  0  0  0  0  0  0  0  0  0
   18.1192   -6.3378  -15.2606 O   0  0  0  0  0  0  0  0  0  0  0  0
  2  1  1  1
  2  3  1  0
  4  6  1  0
  4  2  1  0
  4  5  1  6
  6  7  2  0
  6  8  1  0
  8  9  1  0
  9 10  1  0
 10 11  2  0
 13 12  1  1
 13 15  1  0
 14 13  1  0
 15 17  1  0
 16 10  1  0
 15 16  1  1
 17 18  2  0
 17 19  1  0
M  END
$$$$
