TGV.pdb
     RDKit          3D

 19 18  0  0  1  0  0  0  0  0999 V2000
   15.8991  -10.9735  -18.4098 C   0  0  0  0  0  0  0  0  0  0  0  0
   16.4194  -12.3715  -18.5508 C   0  0  1  0  0  0  0  0  0  0  0  0
   15.3643  -13.2783  -18.8032 O   0  0  0  0  0  0  0  0  0  0  0  0
   17.3196  -12.4446  -19.7744 C   0  0  2  0  0  0  0  0  0  0  0  0
   17.4568  -13.8444  -20.0982 N   0  0  0  0  0  0  0  0  0  0  0  0
   18.6598  -11.8870  -19.4990 C   0  0  0  0  0  0  0  0  0  0  0  0
   19.6622  -12.1576  -20.2484 O   0  0  0  0  0  0  0  0  0  0  0  0
   18.9263  -11.0343  -18.4136 N   0  0  0  0  0  0  0  0  0  0  0  0
   20.2190  -10.4105  -18.1906 C   0  0  0  0  0  0  0  0  0  0  0  0
   20.1294   -9.5746  -16.9513 C   0  0  0  0  0  0  0  0  0  0  0  0
   18.9905   -9.2558  -16.4808 O   0  0  0  0  0  0  0  0  0  0  0  0
   23.2115   -9.7600  -14.2231 C   0  0  0  0  0  0  0  0  0  0  0  0
   21.7538   -9.4418  -13.8866 C   0  0  2  0  0  0  0  0  0  0  0  0
   20.9388  -10.7179  -13.8512 C   0  0  0  0  0  0  0  0  0  0  0  0
   21.1484   -8.5483  -14.9462 C   0  0  2  0  0  0  0  0  0  0  0  0
   21.2724   -9.1134  -16.2651 N   0  0  0  0  0  0  0  0  0  0  0  0
   21.7913   -7.2239  -14.8767 C   0  0  0  0  0  0  0  0  0  0  0  0
   22.6450   -6.8597  -15.7041 O   0  0  0  0  0  0  0  0  0  0  0  0
   21.4321   -6.3608  -13.8584 O   0  0  0  0  0  0  0  0  0  0  0  0
  2  1  1  6
  2  3  1  0
  4  6  1  0
  4  2  1  0
  4  5  1  1
  6  7  2  0
  6  8  1  0
  8  9  1  0
  9 10  1  0
 10 11  2  0
 13 12  1  6
 13 15  1  0
 14 13  1  0
 15 17  1  0
 16 10  1  0
 15 16  1  6
 17 18  2  0
 17 19  1  0
M  END
$$$$
