TGV.pdb
     RDKit          3D

 19 18  0  0  1  0  0  0  0  0999 V2000
   25.6475  -22.8831  -13.9474 C   0  0  0  0  0  0  0  0  0  0  0  0
   26.1274  -21.8081  -13.0206 C   0  0  1  0  0  0  0  0  0  0  0  0
   26.1612  -20.5560  -13.6766 O   0  0  0  0  0  0  0  0  0  0  0  0
   25.1259  -21.6463  -11.8877 C   0  0  2  0  0  0  0  0  0  0  0  0
   23.8498  -21.3759  -12.5053 N   0  0  0  0  0  0  0  0  0  0  0  0
   25.4774  -20.5131  -11.0073 C   0  0  0  0  0  0  0  0  0  0  0  0
   25.1828  -19.3073  -11.3217 O   0  0  0  0  0  0  0  0  0  0  0  0
   26.1487  -20.6742   -9.7827 N   0  0  0  0  0  0  0  0  0  0  0  0
   26.4716  -19.5661   -8.9006 C   0  0  0  0  0  0  0  0  0  0  0  0
   27.1416  -20.1175   -7.6801 C   0  0  0  0  0  0  0  0  0  0  0  0
   27.2921  -21.3747   -7.5510 O   0  0  0  0  0  0  0  0  0  0  0  0
   30.5771  -19.2978   -6.2834 C   0  0  0  0  0  0  0  0  0  0  0  0
   29.5603  -19.1537   -5.1499 C   0  0  2  0  0  0  0  0  0  0  0  0
   30.1024  -19.7830   -3.8833 C   0  0  0  0  0  0  0  0  0  0  0  0
   28.2750  -19.8715   -5.4967 C   0  0  2  0  0  0  0  0  0  0  0  0
   27.6246  -19.2916   -6.6435 N   0  0  0  0  0  0  0  0  0  0  0  0
   27.3869  -19.8533   -4.3207 C   0  0  0  0  0  0  0  0  0  0  0  0
   27.6396  -20.5042   -3.2919 O   0  0  0  0  0  0  0  0  0  0  0  0
   26.2369  -19.0876   -4.3653 O   0  0  0  0  0  0  0  0  0  0  0  0
  2  1  1  6
  2  3  1  0
  4  6  1  0
  4  2  1  0
  4  5  1  6
  6  7  2  0
  6  8  1  0
  8  9  1  0
  9 10  1  0
 10 11  2  0
 13 12  1  6
 13 15  1  0
 14 13  1  0
 15 17  1  0
 16 10  1  0
 15 16  1  6
 17 18  2  0
 17 19  1  0
M  END
$$$$
