TGV.pdb
     RDKit          3D

 19 18  0  0  1  0  0  0  0  0999 V2000
   29.7989  -22.1833  -17.3203 C   0  0  0  0  0  0  0  0  0  0  0  0
   28.4351  -21.7314  -17.7458 C   0  0  1  0  0  0  0  0  0  0  0  0
   27.7578  -22.7601  -18.4402 O   0  0  0  0  0  0  0  0  0  0  0  0
   27.5955  -21.4554  -16.5081 C   0  0  2  0  0  0  0  0  0  0  0  0
   27.3899  -22.7290  -15.8610 N   0  0  0  0  0  0  0  0  0  0  0  0
   26.2796  -20.8829  -16.8591 C   0  0  0  0  0  0  0  0  0  0  0  0
   26.0552  -20.3864  -18.0179 O   0  0  0  0  0  0  0  0  0  0  0  0
   25.1980  -20.8425  -15.9619 N   0  0  0  0  0  0  0  0  0  0  0  0
   23.9025  -20.2803  -16.3022 C   0  0  0  0  0  0  0  0  0  0  0  0
   22.9771  -20.4998  -15.1455 C   0  0  0  0  0  0  0  0  0  0  0  0
   23.3466  -21.2210  -14.1641 O   0  0  0  0  0  0  0  0  0  0  0  0
   19.0370  -18.7025  -14.8768 C   0  0  0  0  0  0  0  0  0  0  0  0
   19.9338  -18.9813  -13.6695 C   0  0  2  0  0  0  0  0  0  0  0  0
   20.8170  -17.7828  -13.3913 C   0  0  0  0  0  0  0  0  0  0  0  0
   20.8428  -20.1582  -13.9453 C   0  0  2  0  0  0  0  0  0  0  0  0
   21.6866  -19.9327  -15.0905 N   0  0  0  0  0  0  0  0  0  0  0  0
   20.0172  -21.3654  -14.1273 C   0  0  0  0  0  0  0  0  0  0  0  0
   19.8066  -21.8588  -15.2490 O   0  0  0  0  0  0  0  0  0  0  0  0
   19.4604  -21.9666  -13.0141 O   0  0  0  0  0  0  0  0  0  0  0  0
  2  1  1  1
  2  3  1  0
  4  6  1  0
  4  2  1  0
  4  5  1  6
  6  7  2  0
  6  8  1  0
  8  9  1  0
  9 10  1  0
 10 11  2  0
 13 12  1  6
 13 15  1  0
 14 13  1  0
 15 17  1  0
 16 10  1  0
 15 16  1  6
 17 18  2  0
 17 19  1  0
M  END
$$$$
