IKF.pdb
     RDKit          3D

 29 29  0  0  1  0  0  0  0  0999 V2000
    7.9853  -11.7469   19.2958 C   0  0  0  0  0  0  0  0  0  0  0  0
    7.9068  -13.2439   19.1042 C   0  0  0  0  0  0  0  0  0  0  0  0
    8.0791  -13.9686   20.4393 C   0  0  2  0  0  0  0  0  0  0  0  0
    9.3385  -13.4795   21.1050 C   0  0  0  0  0  0  0  0  0  0  0  0
    8.0709  -15.4753   20.2019 C   0  0  2  0  0  0  0  0  0  0  0  0
    6.6998  -15.7341   19.7092 N   0  0  0  0  0  0  0  0  0  0  0  0
    8.1413  -16.1660   21.5089 C   0  0  0  0  0  0  0  0  0  0  0  0
    7.2006  -16.0754   22.3760 O   0  0  0  0  0  0  0  0  0  0  0  0
    9.2645  -16.9671   21.8524 N   0  0  0  0  0  0  0  0  0  0  0  0
    9.4213  -17.5400   23.1763 C   0  0  1  0  0  0  0  0  0  0  0  0
   10.1537  -18.8876   23.0790 C   0  0  0  0  0  0  0  0  0  0  0  0
   10.4115  -19.4620   24.4383 C   0  0  0  0  0  0  0  0  0  0  0  0
   11.2088  -20.7352   24.2573 C   0  0  0  0  0  0  0  0  0  0  0  0
   11.4867  -21.4071   25.5854 C   0  0  0  0  0  0  0  0  0  0  0  0
   12.1213  -22.6812   25.3200 N   0  0  0  0  0  0  0  0  0  0  0  0
   10.1297  -16.6570   24.1247 C   0  0  0  0  0  0  0  0  0  0  0  0
   11.1691  -16.0020   23.7709 O   0  0  0  0  0  0  0  0  0  0  0  0
    9.7050  -16.4845   25.4629 N   0  0  0  0  0  0  0  0  0  0  0  0
   10.4866  -15.7470   26.4473 C   0  0  1  0  0  0  0  0  0  0  0  0
   10.1565  -14.2919   26.4323 C   0  0  0  0  0  0  0  0  0  0  0  0
    8.7388  -14.0219   26.7231 C   0  0  0  0  0  0  0  0  0  0  0  0
    7.6994  -14.6545   26.0587 C   0  0  0  0  0  0  0  0  0  0  0  0
    6.3755  -14.4082   26.3518 C   0  0  0  0  0  0  0  0  0  0  0  0
    6.0515  -13.4983   27.3438 C   0  0  0  0  0  0  0  0  0  0  0  0
    7.0599  -12.8546   28.0209 C   0  0  0  0  0  0  0  0  0  0  0  0
    8.3894  -13.1235   27.7034 C   0  0  0  0  0  0  0  0  0  0  0  0
   10.2447  -16.3371   27.7761 C   0  0  0  0  0  0  0  0  0  0  0  0
   10.9007  -15.8402   28.8971 O   0  0  0  0  0  0  0  0  0  0  0  0
    9.4602  -17.2919   27.9798 O   0  0  0  0  0  0  0  0  0  0  0  0
  2  1  1  0
  3  2  1  0
  3  4  1  6
  5  3  1  0
  5  6  1  1
  7  8  2  0
  7  5  1  0
  9  7  1  0
 10  9  1  0
 11 12  1  0
 10 11  1  6
 12 13  1  0
 13 14  1  0
 14 15  1  0
 16 17  2  0
 16 10  1  0
 18 16  1  0
 19 20  1  1
 19 18  1  0
 20 21  1  0
 21 26  2  0
 21 22  1  0
 22 23  2  0
 23 24  1  0
 25 24  2  0
 26 25  1  0
 27 19  1  0
 28 27  1  0
 29 27  2  0
M  END
$$$$
