IKF.pdb
     RDKit          3D

 29 29  0  0  1  0  0  0  0  0999 V2000
    6.4173  -11.3795   27.1314 C   0  0  0  0  0  0  0  0  0  0  0  0
    5.8750  -12.5779   26.3873 C   0  0  0  0  0  0  0  0  0  0  0  0
    7.0156  -13.4709   25.8985 C   0  0  2  0  0  0  0  0  0  0  0  0
    7.9772  -12.6412   25.0891 C   0  0  0  0  0  0  0  0  0  0  0  0
    6.4379  -14.6499   25.1220 C   0  0  2  0  0  0  0  0  0  0  0  0
    5.6936  -15.4048   26.1544 N   0  0  0  0  0  0  0  0  0  0  0  0
    7.5446  -15.5466   24.7201 C   0  0  0  0  0  0  0  0  0  0  0  0
    7.9856  -16.4694   25.4939 O   0  0  0  0  0  0  0  0  0  0  0  0
    8.1626  -15.4188   23.4461 N   0  0  0  0  0  0  0  0  0  0  0  0
    9.1876  -16.3416   22.9952 C   0  0  1  0  0  0  0  0  0  0  0  0
    9.4196  -16.1681   21.4860 C   0  0  0  0  0  0  0  0  0  0  0  0
    8.3181  -16.8026   20.6933 C   0  0  0  0  0  0  0  0  0  0  0  0
    8.6072  -16.5623   19.2276 C   0  0  0  0  0  0  0  0  0  0  0  0
    7.5026  -17.1105   18.3491 C   0  0  0  0  0  0  0  0  0  0  0  0
    7.7548  -16.6805   16.9898 N   0  0  0  0  0  0  0  0  0  0  0  0
   10.4697  -16.2016   23.7143 C   0  0  0  0  0  0  0  0  0  0  0  0
   11.2359  -15.1978   23.5143 O   0  0  0  0  0  0  0  0  0  0  0  0
   10.9199  -17.1564   24.6559 N   0  0  0  0  0  0  0  0  0  0  0  0
   12.1911  -17.0306   25.3574 C   0  0  1  0  0  0  0  0  0  0  0  0
   12.0025  -17.0158   26.8375 C   0  0  0  0  0  0  0  0  0  0  0  0
   11.2076  -15.8676   27.3034 C   0  0  0  0  0  0  0  0  0  0  0  0
   11.7268  -14.5869   27.4141 C   0  0  0  0  0  0  0  0  0  0  0  0
   10.9686  -13.5151   27.8335 C   0  0  0  0  0  0  0  0  0  0  0  0
    9.6368  -13.7047   28.1608 C   0  0  0  0  0  0  0  0  0  0  0  0
    9.0927  -14.9631   28.0613 C   0  0  0  0  0  0  0  0  0  0  0  0
    9.8829  -16.0279   27.6344 C   0  0  0  0  0  0  0  0  0  0  0  0
   13.0688  -18.1390   24.9406 C   0  0  0  0  0  0  0  0  0  0  0  0
   12.6071  -19.1087   24.0573 O   0  0  0  0  0  0  0  0  0  0  0  0
   14.2479  -18.2787   25.3390 O   0  0  0  0  0  0  0  0  0  0  0  0
  2  1  1  0
  3  2  1  0
  3  4  1  6
  5  3  1  0
  5  6  1  1
  7  8  2  0
  7  5  1  0
  9  7  1  0
 10  9  1  0
 11 12  1  0
 10 11  1  6
 12 13  1  0
 13 14  1  0
 14 15  1  0
 16 17  2  0
 16 10  1  0
 18 16  1  0
 19 20  1  1
 19 18  1  0
 20 21  1  0
 21 26  2  0
 21 22  1  0
 22 23  2  0
 23 24  1  0
 25 24  2  0
 26 25  1  0
 27 19  1  0
 28 27  1  0
 29 27  2  0
M  END
$$$$
