IKF.pdb
     RDKit          3D

 29 29  0  0  1  0  0  0  0  0999 V2000
    7.4579  -12.1527   17.9720 C   0  0  0  0  0  0  0  0  0  0  0  0
    8.3241  -13.3183   18.3904 C   0  0  0  0  0  0  0  0  0  0  0  0
    7.8681  -13.8722   19.7404 C   0  0  2  0  0  0  0  0  0  0  0  0
    7.9202  -12.7709   20.7664 C   0  0  0  0  0  0  0  0  0  0  0  0
    8.7268  -15.0779   20.1087 C   0  0  2  0  0  0  0  0  0  0  0  0
    8.2850  -16.1151   19.1502 N   0  0  0  0  0  0  0  0  0  0  0  0
    8.3023  -15.5805   21.4344 C   0  0  0  0  0  0  0  0  0  0  0  0
    8.5132  -14.9168   22.5113 O   0  0  0  0  0  0  0  0  0  0  0  0
    7.6341  -16.8288   21.5628 N   0  0  0  0  0  0  0  0  0  0  0  0
    7.3048  -17.3924   22.8588 C   0  0  1  0  0  0  0  0  0  0  0  0
    6.9325  -18.8754   22.7043 C   0  0  0  0  0  0  0  0  0  0  0  0
    6.5904  -19.4875   24.0280 C   0  0  0  0  0  0  0  0  0  0  0  0
    6.1910  -20.9260   23.7815 C   0  0  0  0  0  0  0  0  0  0  0  0
    5.8528  -21.6355   25.0756 C   0  0  0  0  0  0  0  0  0  0  0  0
    5.5379  -23.0137   24.7632 N   0  0  0  0  0  0  0  0  0  0  0  0
    8.3832  -17.2523   23.8578 C   0  0  0  0  0  0  0  0  0  0  0  0
    9.5430  -17.7509   23.6558 O   0  0  0  0  0  0  0  0  0  0  0  0
    8.2000  -16.5660   25.0810 N   0  0  0  0  0  0  0  0  0  0  0  0
    9.2895  -16.3240   26.0181 C   0  0  1  0  0  0  0  0  0  0  0  0
    9.5984  -14.8690   26.1374 C   0  0  0  0  0  0  0  0  0  0  0  0
    8.3912  -14.0322   26.2362 C   0  0  0  0  0  0  0  0  0  0  0  0
    7.7895  -13.7172   27.4448 C   0  0  0  0  0  0  0  0  0  0  0  0
    6.6703  -12.9173   27.5276 C   0  0  0  0  0  0  0  0  0  0  0  0
    6.1116  -12.3995   26.3715 C   0  0  0  0  0  0  0  0  0  0  0  0
    6.6854  -12.6937   25.1574 C   0  0  0  0  0  0  0  0  0  0  0  0
    7.8165  -13.5050   25.1041 C   0  0  0  0  0  0  0  0  0  0  0  0
    8.9230  -16.9023   27.3234 C   0  0  0  0  0  0  0  0  0  0  0  0
    7.6746  -17.4860   27.5092 O   0  0  0  0  0  0  0  0  0  0  0  0
    9.6830  -16.9074   28.3188 O   0  0  0  0  0  0  0  0  0  0  0  0
  2  1  1  0
  3  2  1  0
  3  4  1  1
  5  3  1  0
  5  6  1  6
  7  8  2  0
  7  5  1  0
  9  7  1  0
 10  9  1  0
 11 12  1  0
 10 11  1  6
 12 13  1  0
 13 14  1  0
 14 15  1  0
 16 17  2  0
 16 10  1  0
 18 16  1  0
 19 20  1  1
 19 18  1  0
 20 21  1  0
 21 26  2  0
 21 22  1  0
 22 23  2  0
 23 24  1  0
 25 24  2  0
 26 25  1  0
 27 19  1  0
 28 27  1  0
 29 27  2  0
M  END
$$$$
