IKF.pdb
     RDKit          3D

 29 29  0  0  1  0  0  0  0  0999 V2000
    7.2558  -12.6099   27.4729 C   0  0  0  0  0  0  0  0  0  0  0  0
    7.2142  -14.0350   26.9715 C   0  0  0  0  0  0  0  0  0  0  0  0
    5.8944  -14.3158   26.2528 C   0  0  2  0  0  0  0  0  0  0  0  0
    4.7578  -14.1371   27.2246 C   0  0  0  0  0  0  0  0  0  0  0  0
    5.9422  -15.7089   25.6333 C   0  0  2  0  0  0  0  0  0  0  0  0
    6.4259  -16.5584   26.7443 N   0  0  0  0  0  0  0  0  0  0  0  0
    7.0259  -15.7477   24.6262 C   0  0  0  0  0  0  0  0  0  0  0  0
    8.0909  -16.4406   24.8015 O   0  0  0  0  0  0  0  0  0  0  0  0
    6.9224  -15.0140   23.4129 N   0  0  0  0  0  0  0  0  0  0  0  0
    8.0072  -14.9674   22.4502 C   0  0  1  0  0  0  0  0  0  0  0  0
    7.8378  -13.7475   21.5309 C   0  0  0  0  0  0  0  0  0  0  0  0
    8.8459  -13.7616   20.4229 C   0  0  0  0  0  0  0  0  0  0  0  0
    8.1838  -13.1871   19.1896 C   0  0  0  0  0  0  0  0  0  0  0  0
    9.0621  -13.3444   17.9664 C   0  0  0  0  0  0  0  0  0  0  0  0
    8.2860  -12.9650   16.8045 N   0  0  0  0  0  0  0  0  0  0  0  0
    9.3481  -14.9414   23.0683 C   0  0  0  0  0  0  0  0  0  0  0  0
    9.7917  -13.8905   23.6457 O   0  0  0  0  0  0  0  0  0  0  0  0
   10.2095  -16.0633   23.0597 N   0  0  0  0  0  0  0  0  0  0  0  0
   11.3035  -16.2224   24.0092 C   0  0  1  0  0  0  0  0  0  0  0  0
   10.8005  -16.5256   25.3810 C   0  0  0  0  0  0  0  0  0  0  0  0
   10.8960  -15.3752   26.2946 C   0  0  0  0  0  0  0  0  0  0  0  0
   10.5248  -14.0903   25.9299 C   0  0  0  0  0  0  0  0  0  0  0  0
   10.6005  -13.0236   26.7993 C   0  0  0  0  0  0  0  0  0  0  0  0
   11.0620  -13.2229   28.0893 C   0  0  0  0  0  0  0  0  0  0  0  0
   11.4377  -14.4858   28.4812 C   0  0  0  0  0  0  0  0  0  0  0  0
   11.3504  -15.5453   27.5810 C   0  0  0  0  0  0  0  0  0  0  0  0
   12.1986  -17.2863   23.5199 C   0  0  0  0  0  0  0  0  0  0  0  0
   11.8980  -17.9769   22.3509 O   0  0  0  0  0  0  0  0  0  0  0  0
   13.2531  -17.6292   24.1022 O   0  0  0  0  0  0  0  0  0  0  0  0
  2  1  1  0
  3  2  1  0
  3  4  1  1
  5  3  1  0
  5  6  1  1
  7  8  2  0
  7  5  1  0
  9  7  1  0
 10  9  1  0
 11 12  1  0
 10 11  1  1
 12 13  1  0
 13 14  1  0
 14 15  1  0
 16 17  2  0
 16 10  1  0
 18 16  1  0
 19 20  1  1
 19 18  1  0
 20 21  1  0
 21 26  2  0
 21 22  1  0
 22 23  2  0
 23 24  1  0
 25 24  2  0
 26 25  1  0
 27 19  1  0
 28 27  1  0
 29 27  2  0
M  END
$$$$
