GKE.pdb
     RDKit          3D

 23 22  0  0  1  0  0  0  0  0999 V2000
    9.1946  -16.8965   18.9079 N   0  0  0  0  0  0  0  0  0  0  0  0
    8.1094  -16.7965   19.8624 C   0  0  0  0  0  0  0  0  0  0  0  0
    8.5867  -16.0702   21.0907 C   0  0  0  0  0  0  0  0  0  0  0  0
    9.8008  -15.8490   21.2299 O   0  0  0  0  0  0  0  0  0  0  0  0
    7.6799  -15.6352   22.0886 N   0  0  0  0  0  0  0  0  0  0  0  0
    8.1300  -14.9502   23.2799 C   0  0  1  0  0  0  0  0  0  0  0  0
    6.9650  -14.2475   23.9805 C   0  0  0  0  0  0  0  0  0  0  0  0
    7.4432  -13.5100   25.2024 C   0  0  0  0  0  0  0  0  0  0  0  0
    6.3810  -12.7551   25.9159 C   0  0  0  0  0  0  0  0  0  0  0  0
    6.9341  -12.0027   27.0895 C   0  0  0  0  0  0  0  0  0  0  0  0
    5.8694  -11.2655   27.7858 N   0  0  0  0  0  0  0  0  0  0  0  0
    8.7854  -15.9205   24.1741 C   0  0  0  0  0  0  0  0  0  0  0  0
    8.1801  -16.9839   24.4824 O   0  0  0  0  0  0  0  0  0  0  0  0
   10.0669  -15.7535   24.7277 N   0  0  0  0  0  0  0  0  0  0  0  0
   10.7340  -16.7672   25.5752 C   0  0  1  0  0  0  0  0  0  0  0  0
   12.1867  -16.7420   25.3387 C   0  0  0  0  0  0  0  0  0  0  0  0
   12.6045  -16.8651   23.9257 C   0  0  0  0  0  0  0  0  0  0  0  0
   13.8218  -16.1225   23.5357 C   0  0  0  0  0  0  0  0  0  0  0  0
   14.5154  -15.4081   24.3097 O   0  0  0  0  0  0  0  0  0  0  0  0
   10.3007  -16.7097   26.9542 C   0  0  0  0  0  0  0  0  0  0  0  0
    9.4984  -15.8687   27.4464 O   0  0  0  0  0  0  0  0  0  0  0  0
   14.2457  -16.2105   22.2132 O   0  0  0  0  0  0  0  0  0  0  0  0
   10.8360  -17.6967   27.8203 O   0  0  0  0  0  0  0  0  0  0  0  0
  2  1  1  0
  2  3  1  0
  3  4  2  0
  5  3  1  0
  5  6  1  0
  6  7  1  1
  8  7  1  0
  9  8  1  0
  9 10  1  0
 10 11  1  0
 12  6  1  0
 12 14  1  0
 13 12  2  0
 15 14  1  0
 15 16  1  1
 16 17  1  0
 17 18  1  0
 18 22  1  0
 19 18  2  0
 20 23  1  0
 20 15  1  0
 21 20  2  0
M  END
$$$$
