GKE.pdb
     RDKit          3D

 23 22  0  0  1  0  0  0  0  0999 V2000
    4.9483  -20.2894   21.9597 N   0  0  0  0  0  0  0  0  0  0  0  0
    4.9451  -19.0422   22.6967 C   0  0  0  0  0  0  0  0  0  0  0  0
    6.1282  -18.2106   22.2810 C   0  0  0  0  0  0  0  0  0  0  0  0
    7.0331  -18.7364   21.6124 O   0  0  0  0  0  0  0  0  0  0  0  0
    6.2292  -16.8429   22.6369 N   0  0  0  0  0  0  0  0  0  0  0  0
    7.3684  -16.0387   22.2541 C   0  0  1  0  0  0  0  0  0  0  0  0
    7.0220  -14.5485   22.2864 C   0  0  0  0  0  0  0  0  0  0  0  0
    8.1080  -13.7337   21.6365 C   0  0  0  0  0  0  0  0  0  0  0  0
    8.0116  -13.6560   20.1560 C   0  0  0  0  0  0  0  0  0  0  0  0
    9.0677  -12.7592   19.5818 C   0  0  0  0  0  0  0  0  0  0  0  0
    8.9028  -12.6233   18.1271 N   0  0  0  0  0  0  0  0  0  0  0  0
    8.4968  -16.3454   23.1504 C   0  0  0  0  0  0  0  0  0  0  0  0
    8.2859  -16.4749   24.3877 O   0  0  0  0  0  0  0  0  0  0  0  0
    9.8273  -16.5104   22.7273 N   0  0  0  0  0  0  0  0  0  0  0  0
   10.9380  -16.8770   23.6343 C   0  0  1  0  0  0  0  0  0  0  0  0
   12.1936  -16.9829   22.8733 C   0  0  0  0  0  0  0  0  0  0  0  0
   12.1809  -16.3589   21.5329 C   0  0  0  0  0  0  0  0  0  0  0  0
   13.4064  -15.6331   21.1368 C   0  0  0  0  0  0  0  0  0  0  0  0
   14.3430  -15.3102   21.9171 O   0  0  0  0  0  0  0  0  0  0  0  0
   10.9711  -16.0621   24.8291 C   0  0  0  0  0  0  0  0  0  0  0  0
   10.2411  -15.0597   25.0650 O   0  0  0  0  0  0  0  0  0  0  0  0
   13.5492  -15.2720   19.8005 O   0  0  0  0  0  0  0  0  0  0  0  0
   11.9166  -16.4372   25.8170 O   0  0  0  0  0  0  0  0  0  0  0  0
  2  1  1  0
  2  3  1  0
  3  4  2  0
  5  3  1  0
  5  6  1  0
  6  7  1  1
  8  7  1  0
  9  8  1  0
  9 10  1  0
 10 11  1  0
 12  6  1  0
 12 14  1  0
 13 12  2  0
 15 14  1  0
 15 16  1  6
 16 17  1  0
 17 18  1  0
 18 22  1  0
 19 18  2  0
 20 23  1  0
 20 15  1  0
 21 20  2  0
M  END
$$$$
