GKE.pdb
     RDKit          3D

 23 22  0  0  1  0  0  0  0  0999 V2000
    8.2534  -13.4076   17.0609 N   0  0  0  0  0  0  0  0  0  0  0  0
    7.6543  -14.3114   18.0216 C   0  0  0  0  0  0  0  0  0  0  0  0
    8.2325  -14.0489   19.3858 C   0  0  0  0  0  0  0  0  0  0  0  0
    9.3740  -13.5682   19.4775 O   0  0  0  0  0  0  0  0  0  0  0  0
    7.5015  -14.3392   20.5642 N   0  0  0  0  0  0  0  0  0  0  0  0
    8.0450  -14.0832   21.8797 C   0  0  1  0  0  0  0  0  0  0  0  0
    6.9265  -13.8720   22.9024 C   0  0  0  0  0  0  0  0  0  0  0  0
    7.4965  -13.5683   24.2620 C   0  0  0  0  0  0  0  0  0  0  0  0
    6.4749  -13.3290   25.3139 C   0  0  0  0  0  0  0  0  0  0  0  0
    7.1075  -12.9421   26.6176 C   0  0  0  0  0  0  0  0  0  0  0  0
    6.1067  -12.9102   27.6943 N   0  0  0  0  0  0  0  0  0  0  0  0
    8.9185  -15.2050   22.2659 C   0  0  0  0  0  0  0  0  0  0  0  0
    8.5263  -16.3887   22.0730 O   0  0  0  0  0  0  0  0  0  0  0  0
   10.1899  -15.0599   22.8483 N   0  0  0  0  0  0  0  0  0  0  0  0
   11.0472  -16.1999   23.2434 C   0  0  1  0  0  0  0  0  0  0  0  0
   12.4454  -15.9295   22.8709 C   0  0  0  0  0  0  0  0  0  0  0  0
   13.4040  -17.0173   23.1609 C   0  0  0  0  0  0  0  0  0  0  0  0
   14.8120  -16.7662   22.7869 C   0  0  0  0  0  0  0  0  0  0  0  0
   15.4378  -17.3659   21.8708 O   0  0  0  0  0  0  0  0  0  0  0  0
   10.8102  -16.6269   24.6051 C   0  0  0  0  0  0  0  0  0  0  0  0
   10.1602  -15.9910   25.4806 O   0  0  0  0  0  0  0  0  0  0  0  0
   15.5129  -15.7942   23.4944 O   0  0  0  0  0  0  0  0  0  0  0  0
   11.3663  -17.8778   24.9749 O   0  0  0  0  0  0  0  0  0  0  0  0
  2  1  1  0
  2  3  1  0
  3  4  2  0
  5  3  1  0
  5  6  1  0
  6  7  1  1
  8  7  1  0
  9  8  1  0
  9 10  1  0
 10 11  1  0
 12  6  1  0
 12 14  1  0
 13 12  2  0
 15 14  1  0
 15 16  1  1
 16 17  1  0
 17 18  1  0
 18 22  1  0
 19 18  2  0
 20 23  1  0
 20 15  1  0
 21 20  2  0
M  END
$$$$
