GKE.pdb
     RDKit          3D

 23 22  0  0  1  0  0  0  0  0999 V2000
    8.0788  -18.7458   17.7813 N   0  0  0  0  0  0  0  0  0  0  0  0
    7.4923  -18.5143   19.0857 C   0  0  0  0  0  0  0  0  0  0  0  0
    8.2995  -17.4799   19.8224 C   0  0  0  0  0  0  0  0  0  0  0  0
    9.5385  -17.5085   19.7419 O   0  0  0  0  0  0  0  0  0  0  0  0
    7.6746  -16.4769   20.6039 N   0  0  0  0  0  0  0  0  0  0  0  0
    8.4422  -15.5098   21.3567 C   0  0  1  0  0  0  0  0  0  0  0  0
    7.5481  -14.3757   21.8628 C   0  0  0  0  0  0  0  0  0  0  0  0
    7.5111  -13.2426   20.8728 C   0  0  0  0  0  0  0  0  0  0  0  0
    7.6702  -13.6624   19.4565 C   0  0  0  0  0  0  0  0  0  0  0  0
    7.6735  -12.4831   18.5299 C   0  0  0  0  0  0  0  0  0  0  0  0
    7.8816  -12.9126   17.1391 N   0  0  0  0  0  0  0  0  0  0  0  0
    9.1193  -16.1955   22.4712 C   0  0  0  0  0  0  0  0  0  0  0  0
    8.4532  -16.9586   23.2237 O   0  0  0  0  0  0  0  0  0  0  0  0
   10.4862  -16.0652   22.7732 N   0  0  0  0  0  0  0  0  0  0  0  0
   11.1691  -16.8341   23.8376 C   0  0  1  0  0  0  0  0  0  0  0  0
   12.6008  -16.9663   23.5219 C   0  0  0  0  0  0  0  0  0  0  0  0
   13.4100  -15.7428   23.7083 C   0  0  0  0  0  0  0  0  0  0  0  0
   14.8287  -15.8278   23.3015 C   0  0  0  0  0  0  0  0  0  0  0  0
   15.2641  -15.6146   22.1372 O   0  0  0  0  0  0  0  0  0  0  0  0
   10.8390  -16.3598   25.1638 C   0  0  0  0  0  0  0  0  0  0  0  0
   10.2522  -15.2771   25.4409 O   0  0  0  0  0  0  0  0  0  0  0  0
   15.7673  -16.1694   24.2705 O   0  0  0  0  0  0  0  0  0  0  0  0
   11.2162  -17.2007   26.2415 O   0  0  0  0  0  0  0  0  0  0  0  0
  2  1  1  0
  2  3  1  0
  3  4  2  0
  5  3  1  0
  5  6  1  0
  6  7  1  1
  8  7  1  0
  9  8  1  0
  9 10  1  0
 10 11  1  0
 12  6  1  0
 12 14  1  0
 13 12  2  0
 15 14  1  0
 15 16  1  6
 16 17  1  0
 17 18  1  0
 18 22  1  0
 19 18  2  0
 20 23  1  0
 20 15  1  0
 21 20  2  0
M  END
$$$$
