GKE.pdb
     RDKit          3D

 23 22  0  0  1  0  0  0  0  0999 V2000
    5.8718  -19.8696   23.5433 N   0  0  0  0  0  0  0  0  0  0  0  0
    5.6794  -18.4868   23.9300 C   0  0  0  0  0  0  0  0  0  0  0  0
    6.6149  -17.6105   23.1417 C   0  0  0  0  0  0  0  0  0  0  0  0
    7.5327  -18.1361   22.4906 O   0  0  0  0  0  0  0  0  0  0  0  0
    6.4689  -16.2013   23.1284 N   0  0  0  0  0  0  0  0  0  0  0  0
    7.4170  -15.3441   22.4519 C   0  0  1  0  0  0  0  0  0  0  0  0
    6.8191  -13.9582   22.2000 C   0  0  0  0  0  0  0  0  0  0  0  0
    7.7045  -13.1525   21.2876 C   0  0  0  0  0  0  0  0  0  0  0  0
    7.8222  -13.6983   19.9108 C   0  0  0  0  0  0  0  0  0  0  0  0
    8.6098  -12.7829   19.0213 C   0  0  0  0  0  0  0  0  0  0  0  0
    8.6506  -13.2998   17.6454 N   0  0  0  0  0  0  0  0  0  0  0  0
    8.6475  -15.2577   23.2576 C   0  0  0  0  0  0  0  0  0  0  0  0
    8.6245  -14.6384   24.3567 O   0  0  0  0  0  0  0  0  0  0  0  0
    9.8804  -15.8254   22.8911 N   0  0  0  0  0  0  0  0  0  0  0  0
   11.1190  -15.6845   23.6890 C   0  0  1  0  0  0  0  0  0  0  0  0
   10.9100  -16.2280   25.0409 C   0  0  0  0  0  0  0  0  0  0  0  0
   10.3788  -17.6068   25.0983 C   0  0  0  0  0  0  0  0  0  0  0  0
   10.2636  -18.2086   26.4437 C   0  0  0  0  0  0  0  0  0  0  0  0
    9.8635  -19.3804   26.6828 O   0  0  0  0  0  0  0  0  0  0  0  0
   12.2920  -16.1458   22.9792 C   0  0  0  0  0  0  0  0  0  0  0  0
   13.4849  -16.0649   23.3839 O   0  0  0  0  0  0  0  0  0  0  0  0
   10.6218  -17.4308   27.5406 O   0  0  0  0  0  0  0  0  0  0  0  0
   12.0636  -16.7418   21.7129 O   0  0  0  0  0  0  0  0  0  0  0  0
  2  1  1  0
  2  3  1  0
  3  4  2  0
  5  3  1  0
  5  6  1  0
  6  7  1  1
  8  7  1  0
  9  8  1  0
  9 10  1  0
 10 11  1  0
 12  6  1  0
 12 14  1  0
 13 12  2  0
 15 14  1  0
 15 16  1  1
 16 17  1  0
 17 18  1  0
 18 22  1  0
 19 18  2  0
 20 23  1  0
 20 15  1  0
 21 20  2  0
M  END
$$$$
