GKE.pdb
     RDKit          3D

 23 22  0  0  1  0  0  0  0  0999 V2000
    8.9159  -20.7756   18.7991 N   0  0  0  0  0  0  0  0  0  0  0  0
    8.3508  -19.9988   19.8836 C   0  0  0  0  0  0  0  0  0  0  0  0
    9.1744  -18.7572   20.0939 C   0  0  0  0  0  0  0  0  0  0  0  0
   10.3271  -18.7100   19.6341 O   0  0  0  0  0  0  0  0  0  0  0  0
    8.6611  -17.6441   20.8045 N   0  0  0  0  0  0  0  0  0  0  0  0
    9.4792  -16.4904   21.1061 C   0  0  1  0  0  0  0  0  0  0  0  0
    8.6123  -15.2521   21.3449 C   0  0  0  0  0  0  0  0  0  0  0  0
    8.1245  -14.6821   20.0401 C   0  0  0  0  0  0  0  0  0  0  0  0
    7.2018  -13.5266   20.1843 C   0  0  0  0  0  0  0  0  0  0  0  0
    6.8425  -12.9395   18.8518 C   0  0  0  0  0  0  0  0  0  0  0  0
    5.9436  -11.7873   19.0143 N   0  0  0  0  0  0  0  0  0  0  0  0
   10.3194  -16.7897   22.2788 C   0  0  0  0  0  0  0  0  0  0  0  0
    9.8692  -17.5426   23.1859 O   0  0  0  0  0  0  0  0  0  0  0  0
   11.6191  -16.2908   22.4750 N   0  0  0  0  0  0  0  0  0  0  0  0
   12.5417  -16.7905   23.5189 C   0  0  1  0  0  0  0  0  0  0  0  0
   13.9268  -16.4226   23.1827 C   0  0  0  0  0  0  0  0  0  0  0  0
   14.9556  -16.8628   24.1492 C   0  0  0  0  0  0  0  0  0  0  0  0
   16.3514  -16.4910   23.8346 C   0  0  0  0  0  0  0  0  0  0  0  0
   17.3254  -16.5886   24.6297 O   0  0  0  0  0  0  0  0  0  0  0  0
   12.0925  -16.4704   24.8562 C   0  0  0  0  0  0  0  0  0  0  0  0
   11.3088  -15.5326   25.1721 O   0  0  0  0  0  0  0  0  0  0  0  0
   16.6247  -15.9927   22.5644 O   0  0  0  0  0  0  0  0  0  0  0  0
   12.5874  -17.2960   25.8975 O   0  0  0  0  0  0  0  0  0  0  0  0
  2  1  1  0
  2  3  1  0
  3  4  2  0
  5  3  1  0
  5  6  1  0
  6  7  1  1
  8  7  1  0
  9  8  1  0
  9 10  1  0
 10 11  1  0
 12  6  1  0
 12 14  1  0
 13 12  2  0
 15 14  1  0
 15 16  1  6
 16 17  1  0
 17 18  1  0
 18 22  1  0
 19 18  2  0
 20 23  1  0
 20 15  1  0
 21 20  2  0
M  END
$$$$
