GKE.pdb
     RDKit          3D

 23 22  0  0  1  0  0  0  0  0999 V2000
   -1.8645  -21.5591   25.3754 N   0  0  0  0  0  0  0  0  0  0  0  0
   -1.7960  -22.9877   25.6061 C   0  0  0  0  0  0  0  0  0  0  0  0
   -3.1267  -23.6124   25.2847 C   0  0  0  0  0  0  0  0  0  0  0  0
   -4.0823  -22.8794   24.9815 O   0  0  0  0  0  0  0  0  0  0  0  0
   -3.3095  -25.0169   25.3215 N   0  0  0  0  0  0  0  0  0  0  0  0
   -4.5961  -25.6241   25.0626 C   0  0  1  0  0  0  0  0  0  0  0  0
   -4.4349  -27.0792   24.6170 C   0  0  0  0  0  0  0  0  0  0  0  0
   -3.8311  -27.1522   23.2401 C   0  0  0  0  0  0  0  0  0  0  0  0
   -3.6244  -28.5342   22.7354 C   0  0  0  0  0  0  0  0  0  0  0  0
   -2.9973  -28.5345   21.3730 C   0  0  0  0  0  0  0  0  0  0  0  0
   -2.8943  -29.9034   20.8461 N   0  0  0  0  0  0  0  0  0  0  0  0
   -5.4276  -25.5246   26.2747 C   0  0  0  0  0  0  0  0  0  0  0  0
   -4.9329  -25.8413   27.3915 O   0  0  0  0  0  0  0  0  0  0  0  0
   -6.7657  -25.0933   26.2889 N   0  0  0  0  0  0  0  0  0  0  0  0
   -7.5934  -25.0242   27.5140 C   0  0  1  0  0  0  0  0  0  0  0  0
   -7.4017  -23.7239   28.1768 C   0  0  0  0  0  0  0  0  0  0  0  0
   -8.2270  -23.4953   29.3823 C   0  0  0  0  0  0  0  0  0  0  0  0
   -8.1141  -22.1615   30.0098 C   0  0  0  0  0  0  0  0  0  0  0  0
   -7.3265  -21.2492   29.6390 O   0  0  0  0  0  0  0  0  0  0  0  0
   -8.9599  -25.4396   27.2847 C   0  0  0  0  0  0  0  0  0  0  0  0
   -9.7872  -25.7939   28.1699 O   0  0  0  0  0  0  0  0  0  0  0  0
   -8.9363  -21.8787   31.0963 O   0  0  0  0  0  0  0  0  0  0  0  0
   -9.3951  -25.4437   25.9352 O   0  0  0  0  0  0  0  0  0  0  0  0
  2  1  1  0
  2  3  1  0
  3  4  2  0
  5  3  1  0
  5  6  1  0
  6  7  1  1
  8  7  1  0
  9  8  1  0
  9 10  1  0
 10 11  1  0
 12  6  1  0
 12 14  1  0
 13 12  2  0
 15 14  1  0
 15 16  1  6
 16 17  1  0
 17 18  1  0
 18 22  1  0
 19 18  2  0
 20 23  1  0
 20 15  1  0
 21 20  2  0
M  END
$$$$
