LAR.pdb
     RDKit          3D

 25 24  0  0  1  0  0  0  0  0999 V2000
   27.8819  -14.9670  -16.3702 C   0  0  0  0  0  0  0  0  0  0  0  0
   26.7901  -15.7958  -17.0598 C   0  0  2  0  0  0  0  0  0  0  0  0
   25.5721  -14.9026  -17.0852 C   0  0  0  0  0  0  0  0  0  0  0  0
   26.5632  -17.0478  -16.2828 C   0  0  0  0  0  0  0  0  0  0  0  0
   27.7654  -17.9791  -16.3065 C   0  0  2  0  0  0  0  0  0  0  0  0
   27.8824  -18.4979  -17.6541 N   0  0  0  0  0  0  0  0  0  0  0  0
   27.5853  -19.0688  -15.3134 C   0  0  0  0  0  0  0  0  0  0  0  0
   26.6154  -19.8687  -15.5504 O   0  0  0  0  0  0  0  0  0  0  0  0
   29.1440  -20.4291  -12.2343 C   0  0  0  0  0  0  0  0  0  0  0  0
   28.0093  -20.3610  -13.2670 C   0  0  2  0  0  0  0  0  0  0  0  0
   28.3796  -19.2738  -14.1707 N   0  0  0  0  0  0  0  0  0  0  0  0
   26.7874  -20.0185  -12.4937 C   0  0  0  0  0  0  0  0  0  0  0  0
   26.5946  -18.8034  -12.2332 O   0  0  0  0  0  0  0  0  0  0  0  0
   19.6630  -21.8002   -9.7889 N   0  0  0  0  0  0  0  0  0  0  0  0
   19.2087  -20.7134  -10.5670 C   0  0  0  0  0  0  0  0  0  0  0  0
   18.2223  -19.9634  -10.1501 N   0  0  0  0  0  0  0  0  0  0  0  0
   19.7738  -20.3685  -11.8207 N   0  0  0  0  0  0  0  0  0  0  0  0
   20.9143  -21.1866  -12.3403 C   0  0  0  0  0  0  0  0  0  0  0  0
   22.1321  -20.6873  -11.6595 C   0  0  0  0  0  0  0  0  0  0  0  0
   23.4676  -21.1737  -11.9462 C   0  0  0  0  0  0  0  0  0  0  0  0
   24.6336  -20.5723  -11.2515 C   0  0  2  0  0  0  0  0  0  0  0  0
   25.8564  -20.9502  -12.0463 N   0  0  0  0  0  0  0  0  0  0  0  0
   24.9057  -21.2980   -9.9684 C   0  0  0  0  0  0  0  0  0  0  0  0
   24.4943  -20.9752   -8.7157 O   0  0  0  0  0  0  0  0  0  0  0  0
   25.6197  -22.3557  -10.0516 O   0  0  0  0  0  0  0  0  0  0  0  0
  2  1  1  1
  3  2  1  0
  4  2  1  0
  5  6  1  6
  5  4  1  0
  7  8  2  0
  7  5  1  0
 10  9  1  1
 10 11  1  0
 11  7  1  0
 12 10  1  0
 12 22  1  0
 13 12  2  0
 15 14  1  0
 16 15  2  0
 17 15  1  0
 18 17  1  0
 19 20  1  0
 19 18  1  0
 21 20  1  6
 21 22  1  0
 21 23  1  0
 23 25  2  0
 23 24  1  0
M  END
$$$$
