LAR.pdb
     RDKit          3D

 25 24  0  0  1  0  0  0  0  0999 V2000
   23.2213  -16.5714  -20.9000 C   0  0  0  0  0  0  0  0  0  0  0  0
   24.6211  -17.0777  -21.2728 C   0  0  2  0  0  0  0  0  0  0  0  0
   24.4141  -18.4942  -21.7548 C   0  0  0  0  0  0  0  0  0  0  0  0
   25.5020  -17.0067  -20.0721 C   0  0  0  0  0  0  0  0  0  0  0  0
   25.3973  -18.2438  -19.1936 C   0  0  2  0  0  0  0  0  0  0  0  0
   24.0143  -18.3620  -18.7784 N   0  0  0  0  0  0  0  0  0  0  0  0
   26.3105  -18.1202  -18.0287 C   0  0  0  0  0  0  0  0  0  0  0  0
   27.5578  -18.0967  -18.3128 O   0  0  0  0  0  0  0  0  0  0  0  0
   26.8716  -16.6478  -14.9989 C   0  0  0  0  0  0  0  0  0  0  0  0
   26.9555  -18.0316  -15.6594 C   0  0  2  0  0  0  0  0  0  0  0  0
   25.9121  -18.0308  -16.6826 N   0  0  0  0  0  0  0  0  0  0  0  0
   26.6446  -19.0066  -14.5818 C   0  0  0  0  0  0  0  0  0  0  0  0
   25.4363  -19.3130  -14.4160 O   0  0  0  0  0  0  0  0  0  0  0  0
   21.8752  -20.8019   -9.8784 N   0  0  0  0  0  0  0  0  0  0  0  0
   22.8275  -21.1092   -8.8826 C   0  0  0  0  0  0  0  0  0  0  0  0
   22.4574  -21.2904   -7.6419 N   0  0  0  0  0  0  0  0  0  0  0  0
   24.2138  -21.2387   -9.1501 N   0  0  0  0  0  0  0  0  0  0  0  0
   24.6898  -21.0635  -10.5581 C   0  0  0  0  0  0  0  0  0  0  0  0
   25.6794  -19.9608  -10.5313 C   0  0  0  0  0  0  0  0  0  0  0  0
   26.3412  -19.4483  -11.7154 C   0  0  0  0  0  0  0  0  0  0  0  0
   27.2466  -20.3323  -12.4917 C   0  0  2  0  0  0  0  0  0  0  0  0
   27.5984  -19.5925  -13.7562 N   0  0  0  0  0  0  0  0  0  0  0  0
   26.4832  -21.4921  -13.0563 C   0  0  0  0  0  0  0  0  0  0  0  0
   26.6700  -22.8163  -12.8224 O   0  0  0  0  0  0  0  0  0  0  0  0
   25.5348  -21.2108  -13.8668 O   0  0  0  0  0  0  0  0  0  0  0  0
  2  1  1  1
  3  2  1  0
  4  2  1  0
  5  6  1  1
  5  4  1  0
  7  8  2  0
  7  5  1  0
 10  9  1  1
 10 11  1  0
 11  7  1  0
 12 10  1  0
 12 22  1  0
 13 12  2  0
 15 14  1  0
 16 15  2  0
 17 15  1  0
 18 17  1  0
 19 20  1  0
 19 18  1  0
 21 20  1  1
 21 22  1  0
 21 23  1  0
 23 25  2  0
 23 24  1  0
M  END
$$$$
