LAR.pdb
     RDKit          3D

 25 24  0  0  1  0  0  0  0  0999 V2000
   31.7636  -14.7885  -20.2880 C   0  0  0  0  0  0  0  0  0  0  0  0
   32.2448  -15.0766  -18.8597 C   0  0  2  0  0  0  0  0  0  0  0  0
   31.3736  -16.2092  -18.3697 C   0  0  0  0  0  0  0  0  0  0  0  0
   32.0945  -13.8435  -18.0355 C   0  0  0  0  0  0  0  0  0  0  0  0
   32.8793  -12.6659  -18.5927 C   0  0  2  0  0  0  0  0  0  0  0  0
   34.2721  -13.0615  -18.6439 N   0  0  0  0  0  0  0  0  0  0  0  0
   32.6805  -11.4696  -17.7351 C   0  0  0  0  0  0  0  0  0  0  0  0
   31.4695  -11.0714  -17.6257 O   0  0  0  0  0  0  0  0  0  0  0  0
   34.5941   -9.1429  -15.5705 C   0  0  0  0  0  0  0  0  0  0  0  0
   33.3202   -9.5695  -16.3146 C   0  0  2  0  0  0  0  0  0  0  0  0
   33.6962  -10.7694  -17.0595 N   0  0  0  0  0  0  0  0  0  0  0  0
   33.0029   -8.4477  -17.2361 C   0  0  0  0  0  0  0  0  0  0  0  0
   33.7004   -8.3454  -18.2775 O   0  0  0  0  0  0  0  0  0  0  0  0
   25.2557   -5.2736  -18.8792 N   0  0  0  0  0  0  0  0  0  0  0  0
   26.1223   -6.3719  -19.0680 C   0  0  0  0  0  0  0  0  0  0  0  0
   25.6469   -7.5463  -19.3906 N   0  0  0  0  0  0  0  0  0  0  0  0
   27.5299   -6.2817  -18.9243 N   0  0  0  0  0  0  0  0  0  0  0  0
   28.1548   -4.9242  -18.8425 C   0  0  0  0  0  0  0  0  0  0  0  0
   29.6166   -5.1421  -18.7355 C   0  0  0  0  0  0  0  0  0  0  0  0
   30.2117   -6.2448  -18.0057 C   0  0  0  0  0  0  0  0  0  0  0  0
   31.6883   -6.3960  -17.9783 C   0  0  2  0  0  0  0  0  0  0  0  0
   31.9934   -7.5159  -17.0178 N   0  0  0  0  0  0  0  0  0  0  0  0
   32.3163   -5.2401  -17.2596 C   0  0  0  0  0  0  0  0  0  0  0  0
   32.6378   -4.0170  -17.7531 O   0  0  0  0  0  0  0  0  0  0  0  0
   32.5932   -5.4189  -16.0240 O   0  0  0  0  0  0  0  0  0  0  0  0
  2  1  1  6
  3  2  1  0
  4  2  1  0
  5  6  1  1
  5  4  1  0
  7  8  2  0
  7  5  1  0
 10  9  1  1
 10 11  1  0
 11  7  1  0
 12 10  1  0
 12 22  1  0
 13 12  2  0
 15 14  1  0
 16 15  2  0
 17 15  1  0
 18 17  1  0
 19 20  1  0
 19 18  1  0
 21 20  1  1
 21 22  1  0
 21 23  1  0
 23 25  2  0
 23 24  1  0
M  END
$$$$
