LAR.pdb
     RDKit          3D

 25 24  0  0  1  0  0  0  0  0999 V2000
   32.0041  -23.3768   -9.4102 C   0  0  0  0  0  0  0  0  0  0  0  0
   31.9487  -22.0584  -10.1933 C   0  0  2  0  0  0  0  0  0  0  0  0
   33.1346  -21.2591   -9.7069 C   0  0  0  0  0  0  0  0  0  0  0  0
   30.6507  -21.3795   -9.9157 C   0  0  0  0  0  0  0  0  0  0  0  0
   29.4584  -22.1436  -10.4704 C   0  0  2  0  0  0  0  0  0  0  0  0
   29.9747  -23.1514  -11.3742 N   0  0  0  0  0  0  0  0  0  0  0  0
   28.5321  -21.2106  -11.1614 C   0  0  0  0  0  0  0  0  0  0  0  0
   27.9295  -20.3765  -10.4011 O   0  0  0  0  0  0  0  0  0  0  0  0
   27.5924  -20.0681  -14.5332 C   0  0  0  0  0  0  0  0  0  0  0  0
   27.2807  -20.2384  -13.0392 C   0  0  2  0  0  0  0  0  0  0  0  0
   28.2806  -21.1826  -12.5451 N   0  0  0  0  0  0  0  0  0  0  0  0
   25.9174  -20.8270  -12.9816 C   0  0  0  0  0  0  0  0  0  0  0  0
   25.8182  -22.0655  -13.1757 O   0  0  0  0  0  0  0  0  0  0  0  0
   20.1001  -23.2511   -7.4625 N   0  0  0  0  0  0  0  0  0  0  0  0
   19.5633  -23.2165   -8.7677 C   0  0  0  0  0  0  0  0  0  0  0  0
   18.5477  -23.9743   -9.0894 N   0  0  0  0  0  0  0  0  0  0  0  0
   20.0739  -22.3814   -9.7934 N   0  0  0  0  0  0  0  0  0  0  0  0
   21.3634  -21.6607   -9.5532 C   0  0  0  0  0  0  0  0  0  0  0  0
   21.6238  -20.8526  -10.7676 C   0  0  0  0  0  0  0  0  0  0  0  0
   22.9494  -20.4432  -11.1894 C   0  0  0  0  0  0  0  0  0  0  0  0
   23.4050  -20.7393  -12.5710 C   0  0  2  0  0  0  0  0  0  0  0  0
   24.7594  -20.0988  -12.7294 N   0  0  0  0  0  0  0  0  0  0  0  0
   22.6089  -19.9455  -13.5625 C   0  0  0  0  0  0  0  0  0  0  0  0
   22.9799  -18.8273  -14.2370 O   0  0  0  0  0  0  0  0  0  0  0  0
   21.4256  -20.3631  -13.8094 O   0  0  0  0  0  0  0  0  0  0  0  0
  2  1  1  1
  3  2  1  0
  4  2  1  0
  5  6  1  6
  5  4  1  0
  7  8  2  0
  7  5  1  0
 10  9  1  6
 10 11  1  0
 11  7  1  0
 12 10  1  0
 12 22  1  0
 13 12  2  0
 15 14  1  0
 16 15  2  0
 17 15  1  0
 18 17  1  0
 19 20  1  0
 19 18  1  0
 21 20  1  1
 21 22  1  0
 21 23  1  0
 23 25  2  0
 23 24  1  0
M  END
$$$$
