ETT.pdb
     RDKit          3D

 24 23  0  0  1  0  0  0  0  0999 V2000
   14.6184  -10.2075  -15.7377 N   0  0  0  0  0  0  0  0  0  0  0  0
   15.8753  -10.1435  -15.0226 C   0  0  1  0  0  0  0  0  0  0  0  0
   16.6522  -11.4305  -15.1706 C   0  0  0  0  0  0  0  0  0  0  0  0
   15.9790  -12.6037  -14.5398 C   0  0  0  0  0  0  0  0  0  0  0  0
   16.7471  -13.8222  -14.9022 C   0  0  0  0  0  0  0  0  0  0  0  0
   17.6239  -13.8014  -15.8278 O   0  0  0  0  0  0  0  0  0  0  0  0
   16.6277   -8.9692  -15.5084 C   0  0  0  0  0  0  0  0  0  0  0  0
   16.7736   -8.8123  -16.7423 O   0  0  0  0  0  0  0  0  0  0  0  0
   16.5596  -15.0308  -14.2676 O   0  0  0  0  0  0  0  0  0  0  0  0
   16.0676   -5.7238  -16.1437 C   0  0  0  0  0  0  0  0  0  0  0  0
   17.1137   -5.6333  -15.0697 C   0  0  1  0  0  0  0  0  0  0  0  0
   16.4764   -5.5070  -13.8535 O   0  0  0  0  0  0  0  0  0  0  0  0
   18.0029   -6.8762  -15.1095 C   0  0  2  0  0  0  0  0  0  0  0  0
   17.2063   -7.9900  -14.6570 N   0  0  0  0  0  0  0  0  0  0  0  0
   19.1526   -6.5917  -14.2090 C   0  0  0  0  0  0  0  0  0  0  0  0
   18.9304   -6.6929  -12.9859 O   0  0  0  0  0  0  0  0  0  0  0  0
   22.4700   -8.2537  -13.6737 C   0  0  0  0  0  0  0  0  0  0  0  0
   22.6740   -6.8131  -14.1044 C   0  0  1  0  0  0  0  0  0  0  0  0
   22.8205   -6.7586  -15.5002 O   0  0  0  0  0  0  0  0  0  0  0  0
   21.5036   -5.9463  -13.7611 C   0  0  2  0  0  0  0  0  0  0  0  0
   20.4261   -6.2284  -14.6715 N   0  0  0  0  0  0  0  0  0  0  0  0
   21.9086   -4.5186  -13.9184 C   0  0  0  0  0  0  0  0  0  0  0  0
   22.8270   -3.9495  -13.0216 O   0  0  0  0  0  0  0  0  0  0  0  0
   21.4810   -3.7590  -14.8171 O   0  0  0  0  0  0  0  0  0  0  0  0
  2  1  1  6
  3  2  1  0
  3  4  1  0
  4  5  1  0
  5  9  1  0
  5  6  2  0
  7  8  2  0
  7  2  1  0
 11 10  1  6
 11 13  1  0
 12 11  1  0
 13 14  1  1
 13 15  1  0
 14  7  1  0
 15 21  1  0
 16 15  2  0
 18 20  1  0
 18 19  1  0
 18 17  1  6
 20 22  1  0
 20 21  1  6
 22 24  2  0
 22 23  1  0
M  END
$$$$
