ETT.pdb
     RDKit          3D

 24 23  0  0  1  0  0  0  0  0999 V2000
   27.3236  -21.4667  -10.3011 N   0  0  0  0  0  0  0  0  0  0  0  0
   25.9474  -21.1077  -10.5704 C   0  0  1  0  0  0  0  0  0  0  0  0
   25.4030  -20.1945   -9.4973 C   0  0  0  0  0  0  0  0  0  0  0  0
   25.5886  -20.7283   -8.1160 C   0  0  0  0  0  0  0  0  0  0  0  0
   26.5760  -19.8645   -7.4197 C   0  0  0  0  0  0  0  0  0  0  0  0
   27.6097  -20.3587   -6.8600 O   0  0  0  0  0  0  0  0  0  0  0  0
   25.8789  -20.5034  -11.9162 C   0  0  0  0  0  0  0  0  0  0  0  0
   26.5518  -19.4738  -12.1519 O   0  0  0  0  0  0  0  0  0  0  0  0
   26.4347  -18.4963   -7.3387 O   0  0  0  0  0  0  0  0  0  0  0  0
   26.7474  -21.8217  -15.1865 C   0  0  0  0  0  0  0  0  0  0  0  0
   25.3018  -21.4388  -15.3259 C   0  0  1  0  0  0  0  0  0  0  0  0
   24.5368  -22.5782  -15.1922 O   0  0  0  0  0  0  0  0  0  0  0  0
   24.9404  -20.3945  -14.2695 C   0  0  2  0  0  0  0  0  0  0  0  0
   25.0888  -21.0193  -12.9782 N   0  0  0  0  0  0  0  0  0  0  0  0
   23.5368  -19.9892  -14.5511 C   0  0  0  0  0  0  0  0  0  0  0  0
   22.6555  -20.5534  -13.8725 O   0  0  0  0  0  0  0  0  0  0  0  0
   22.4431  -17.3911  -17.8093 C   0  0  0  0  0  0  0  0  0  0  0  0
   21.7666  -17.3521  -16.4516 C   0  0  1  0  0  0  0  0  0  0  0  0
   20.4092  -17.0302  -16.6146 O   0  0  0  0  0  0  0  0  0  0  0  0
   21.8137  -18.6755  -15.7551 C   0  0  2  0  0  0  0  0  0  0  0  0
   23.1864  -19.0326  -15.5154 N   0  0  0  0  0  0  0  0  0  0  0  0
   21.1952  -19.7018  -16.6447 C   0  0  0  0  0  0  0  0  0  0  0  0
   19.8004  -19.7424  -16.8009 O   0  0  0  0  0  0  0  0  0  0  0  0
   21.8416  -20.5607  -17.2865 O   0  0  0  0  0  0  0  0  0  0  0  0
  2  1  1  1
  3  2  1  0
  3  4  1  0
  4  5  1  0
  5  9  1  0
  5  6  2  0
  7  8  2  0
  7  2  1  0
 11 10  1  1
 11 13  1  0
 12 11  1  0
 13 14  1  1
 13 15  1  0
 14  7  1  0
 15 21  1  0
 16 15  2  0
 18 20  1  0
 18 19  1  0
 18 17  1  6
 20 22  1  0
 20 21  1  6
 22 24  2  0
 22 23  1  0
M  END
$$$$
