ETT.pdb
     RDKit          3D

 24 23  0  0  1  0  0  0  0  0999 V2000
   18.6788  -12.7912  -16.6357 N   0  0  0  0  0  0  0  0  0  0  0  0
   19.2880  -11.6068  -17.2027 C   0  0  1  0  0  0  0  0  0  0  0  0
   18.3017  -10.8412  -18.0531 C   0  0  0  0  0  0  0  0  0  0  0  0
   16.8836  -11.0277  -17.6272 C   0  0  0  0  0  0  0  0  0  0  0  0
   16.0231  -10.2283  -18.5364 C   0  0  0  0  0  0  0  0  0  0  0  0
   15.7691  -10.6207  -19.7227 O   0  0  0  0  0  0  0  0  0  0  0  0
   19.8363  -10.7921  -16.0997 C   0  0  0  0  0  0  0  0  0  0  0  0
   19.2459  -10.7936  -14.9952 O   0  0  0  0  0  0  0  0  0  0  0  0
   15.4563   -9.0314  -18.1561 O   0  0  0  0  0  0  0  0  0  0  0  0
   22.7969  -11.3134  -14.3807 C   0  0  0  0  0  0  0  0  0  0  0  0
   22.9754   -9.8977  -14.8494 C   0  0  1  0  0  0  0  0  0  0  0  0
   23.7573   -9.9125  -15.9850 O   0  0  0  0  0  0  0  0  0  0  0  0
   21.6090   -9.2671  -15.1185 C   0  0  2  0  0  0  0  0  0  0  0  0
   21.0067   -9.9941  -16.2087 N   0  0  0  0  0  0  0  0  0  0  0  0
   21.8701   -7.8419  -15.4563 C   0  0  0  0  0  0  0  0  0  0  0  0
   22.4276   -7.6302  -16.5517 O   0  0  0  0  0  0  0  0  0  0  0  0
   19.7191   -5.3469  -16.5152 C   0  0  0  0  0  0  0  0  0  0  0  0
   20.3967   -4.7721  -15.2851 C   0  0  1  0  0  0  0  0  0  0  0  0
   19.6003   -5.0180  -14.1546 O   0  0  0  0  0  0  0  0  0  0  0  0
   21.7259   -5.4059  -15.0203 C   0  0  2  0  0  0  0  0  0  0  0  0
   21.5240   -6.7721  -14.6175 N   0  0  0  0  0  0  0  0  0  0  0  0
   22.3906   -4.6666  -13.9073 C   0  0  0  0  0  0  0  0  0  0  0  0
   22.8598   -3.3602  -14.1178 O   0  0  0  0  0  0  0  0  0  0  0  0
   22.5705   -5.1329  -12.7593 O   0  0  0  0  0  0  0  0  0  0  0  0
  2  1  1  1
  3  2  1  0
  3  4  1  0
  4  5  1  0
  5  9  1  0
  5  6  2  0
  7  8  2  0
  7  2  1  0
 11 10  1  6
 11 13  1  0
 12 11  1  0
 13 14  1  6
 13 15  1  0
 14  7  1  0
 15 21  1  0
 16 15  2  0
 18 20  1  0
 18 19  1  0
 18 17  1  6
 20 22  1  0
 20 21  1  1
 22 24  2  0
 22 23  1  0
M  END
$$$$
