ETT.pdb
     RDKit          3D

 24 23  0  0  1  0  0  0  0  0999 V2000
   25.0183  -20.7944   -9.8196 N   0  0  0  0  0  0  0  0  0  0  0  0
   24.5546  -20.9939  -11.1762 C   0  0  1  0  0  0  0  0  0  0  0  0
   23.0645  -20.7687  -11.2810 C   0  0  0  0  0  0  0  0  0  0  0  0
   22.3382  -21.9044  -11.9214 C   0  0  0  0  0  0  0  0  0  0  0  0
   20.9142  -21.5103  -12.0732 C   0  0  0  0  0  0  0  0  0  0  0  0
   20.4837  -20.3971  -11.6244 O   0  0  0  0  0  0  0  0  0  0  0  0
   25.3255  -20.1034  -12.0671 C   0  0  0  0  0  0  0  0  0  0  0  0
   25.9388  -19.1321  -11.5684 O   0  0  0  0  0  0  0  0  0  0  0  0
   19.9870  -22.3141  -12.6999 O   0  0  0  0  0  0  0  0  0  0  0  0
   28.0568  -21.1843  -13.8720 C   0  0  0  0  0  0  0  0  0  0  0  0
   27.7187  -19.7211  -13.8475 C   0  0  1  0  0  0  0  0  0  0  0  0
   28.6265  -19.0530  -14.6417 O   0  0  0  0  0  0  0  0  0  0  0  0
   26.2859  -19.5143  -14.3390 C   0  0  2  0  0  0  0  0  0  0  0  0
   25.4199  -20.2770  -13.4740 N   0  0  0  0  0  0  0  0  0  0  0  0
   26.2575  -19.9961  -15.7463 C   0  0  0  0  0  0  0  0  0  0  0  0
   26.3845  -21.2262  -15.9085 O   0  0  0  0  0  0  0  0  0  0  0  0
   23.5413  -18.9645  -18.4781 C   0  0  0  0  0  0  0  0  0  0  0  0
   24.9781  -18.7872  -18.9327 C   0  0  1  0  0  0  0  0  0  0  0  0
   25.3841  -17.4639  -18.6945 O   0  0  0  0  0  0  0  0  0  0  0  0
   25.9248  -19.6689  -18.1808 C   0  0  2  0  0  0  0  0  0  0  0  0
   26.0990  -19.1471  -16.8516 N   0  0  0  0  0  0  0  0  0  0  0  0
   27.2423  -19.6568  -18.8818 C   0  0  0  0  0  0  0  0  0  0  0  0
   27.3575  -20.2182  -20.1636 O   0  0  0  0  0  0  0  0  0  0  0  0
   28.2915  -19.1693  -18.4031 O   0  0  0  0  0  0  0  0  0  0  0  0
  2  1  1  1
  3  2  1  0
  3  4  1  0
  4  5  1  0
  5  9  1  0
  5  6  2  0
  7  8  2  0
  7  2  1  0
 11 10  1  6
 11 13  1  0
 12 11  1  0
 13 14  1  1
 13 15  1  0
 14  7  1  0
 15 21  1  0
 16 15  2  0
 18 20  1  0
 18 19  1  0
 18 17  1  1
 20 22  1  0
 20 21  1  1
 22 24  2  0
 22 23  1  0
M  END
$$$$
