ETT.pdb
     RDKit          3D

 24 23  0  0  1  0  0  0  0  0999 V2000
   19.5293  -12.9750  -16.4945 N   0  0  0  0  0  0  0  0  0  0  0  0
   19.2619  -11.5668  -16.6962 C   0  0  1  0  0  0  0  0  0  0  0  0
   17.7794  -11.2810  -16.6436 C   0  0  0  0  0  0  0  0  0  0  0  0
   17.0158  -11.9100  -17.7610 C   0  0  0  0  0  0  0  0  0  0  0  0
   15.5705  -11.6618  -17.5251 C   0  0  0  0  0  0  0  0  0  0  0  0
   15.0908  -10.4804  -17.5383 O   0  0  0  0  0  0  0  0  0  0  0  0
   20.0221  -10.7999  -15.6887 C   0  0  0  0  0  0  0  0  0  0  0  0
   19.8614  -11.0686  -14.4761 O   0  0  0  0  0  0  0  0  0  0  0  0
   14.6751  -12.6803  -17.2814 O   0  0  0  0  0  0  0  0  0  0  0  0
   23.1770  -10.9617  -14.5864 C   0  0  0  0  0  0  0  0  0  0  0  0
   23.1396   -9.5476  -15.0911 C   0  0  1  0  0  0  0  0  0  0  0  0
   23.6367   -9.5332  -16.3772 O   0  0  0  0  0  0  0  0  0  0  0  0
   21.7062   -9.0188  -15.0388 C   0  0  2  0  0  0  0  0  0  0  0  0
   20.9379   -9.7615  -16.0073 N   0  0  0  0  0  0  0  0  0  0  0  0
   21.7877   -7.5690  -15.3631 C   0  0  0  0  0  0  0  0  0  0  0  0
   22.1652   -7.2847  -16.5173 O   0  0  0  0  0  0  0  0  0  0  0  0
   19.1839   -5.1258  -15.7358 C   0  0  0  0  0  0  0  0  0  0  0  0
   20.1453   -4.5760  -14.6985 C   0  0  1  0  0  0  0  0  0  0  0  0
   19.6830   -4.9025  -13.4130 O   0  0  0  0  0  0  0  0  0  0  0  0
   21.5150   -5.1648  -14.8248 C   0  0  2  0  0  0  0  0  0  0  0  0
   21.4669   -6.5530  -14.4507 N   0  0  0  0  0  0  0  0  0  0  0  0
   22.4292   -4.4436  -13.8914 C   0  0  0  0  0  0  0  0  0  0  0  0
   22.7688   -3.1043  -14.1409 O   0  0  0  0  0  0  0  0  0  0  0  0
   22.9365   -4.9535  -12.8666 O   0  0  0  0  0  0  0  0  0  0  0  0
  2  1  1  1
  3  2  1  0
  3  4  1  0
  4  5  1  0
  5  9  1  0
  5  6  2  0
  7  8  2  0
  7  2  1  0
 11 10  1  6
 11 13  1  0
 12 11  1  0
 13 14  1  6
 13 15  1  0
 14  7  1  0
 15 21  1  0
 16 15  2  0
 18 20  1  0
 18 19  1  0
 18 17  1  6
 20 22  1  0
 20 21  1  1
 22 24  2  0
 22 23  1  0
M  END
$$$$
