ETT.pdb
     RDKit          3D

 24 23  0  0  1  0  0  0  0  0999 V2000
   19.4880  -13.1137  -17.0157 N   0  0  0  0  0  0  0  0  0  0  0  0
   18.9853  -11.7631  -16.8802 C   0  0  1  0  0  0  0  0  0  0  0  0
   17.8681  -11.6972  -15.8655 C   0  0  0  0  0  0  0  0  0  0  0  0
   16.6873  -12.5338  -16.2304 C   0  0  0  0  0  0  0  0  0  0  0  0
   16.1704  -13.1635  -14.9885 C   0  0  0  0  0  0  0  0  0  0  0  0
   15.2058  -12.6452  -14.3352 O   0  0  0  0  0  0  0  0  0  0  0  0
   20.1161  -10.8780  -16.5352 C   0  0  0  0  0  0  0  0  0  0  0  0
   21.0953  -11.3593  -15.9205 O   0  0  0  0  0  0  0  0  0  0  0  0
   16.6962  -14.3296  -14.4763 O   0  0  0  0  0  0  0  0  0  0  0  0
   22.3782   -9.1339  -18.6824 C   0  0  0  0  0  0  0  0  0  0  0  0
   21.7928   -8.0360  -17.8412 C   0  0  1  0  0  0  0  0  0  0  0  0
   20.7900   -7.4243  -18.5634 O   0  0  0  0  0  0  0  0  0  0  0  0
   21.2640   -8.6168  -16.5297 C   0  0  2  0  0  0  0  0  0  0  0  0
   20.1690   -9.4957  -16.8588 N   0  0  0  0  0  0  0  0  0  0  0  0
   20.8370   -7.4548  -15.7046 C   0  0  0  0  0  0  0  0  0  0  0  0
   19.7667   -6.9080  -16.0380 O   0  0  0  0  0  0  0  0  0  0  0  0
   19.8888   -7.2173  -12.1716 C   0  0  0  0  0  0  0  0  0  0  0  0
   21.0063   -6.2190  -12.4108 C   0  0  1  0  0  0  0  0  0  0  0  0
   22.2340   -6.7950  -12.0450 O   0  0  0  0  0  0  0  0  0  0  0  0
   21.1250   -5.8336  -13.8516 C   0  0  2  0  0  0  0  0  0  0  0  0
   21.5686   -6.9735  -14.6088 N   0  0  0  0  0  0  0  0  0  0  0  0
   22.1427   -4.7484  -13.9700 C   0  0  0  0  0  0  0  0  0  0  0  0
   21.9009   -3.4961  -13.3828 O   0  0  0  0  0  0  0  0  0  0  0  0
   23.2341   -4.8676  -14.5718 O   0  0  0  0  0  0  0  0  0  0  0  0
  2  1  1  1
  3  2  1  0
  3  4  1  0
  4  5  1  0
  5  9  1  0
  5  6  2  0
  7  8  2  0
  7  2  1  0
 11 10  1  6
 11 13  1  0
 12 11  1  0
 13 14  1  6
 13 15  1  0
 14  7  1  0
 15 21  1  0
 16 15  2  0
 18 20  1  0
 18 19  1  0
 18 17  1  6
 20 22  1  0
 20 21  1  6
 22 24  2  0
 22 23  1  0
M  END
$$$$
