ETT.pdb
     RDKit          3D

 24 23  0  0  1  0  0  0  0  0999 V2000
   22.3191  -12.2282  -19.1788 N   0  0  0  0  0  0  0  0  0  0  0  0
   21.8677  -10.8551  -19.2562 C   0  0  1  0  0  0  0  0  0  0  0  0
   20.3603  -10.7801  -19.3191 C   0  0  0  0  0  0  0  0  0  0  0  0
   19.7813  -11.4909  -20.4969 C   0  0  0  0  0  0  0  0  0  0  0  0
   18.6309  -12.3018  -20.0227 C   0  0  0  0  0  0  0  0  0  0  0  0
   18.0347  -13.1214  -20.7966 O   0  0  0  0  0  0  0  0  0  0  0  0
   22.4234  -10.1169  -18.1040 C   0  0  0  0  0  0  0  0  0  0  0  0
   22.6768  -10.7433  -17.0495 O   0  0  0  0  0  0  0  0  0  0  0  0
   18.1467  -12.2171  -18.7355 O   0  0  0  0  0  0  0  0  0  0  0  0
   25.5544   -8.7333  -17.6706 C   0  0  0  0  0  0  0  0  0  0  0  0
   24.6704   -7.5374  -17.4603 C   0  0  1  0  0  0  0  0  0  0  0  0
   24.6129   -6.8278  -18.6413 O   0  0  0  0  0  0  0  0  0  0  0  0
   23.2817   -7.9944  -17.0135 C   0  0  2  0  0  0  0  0  0  0  0  0
   22.6943   -8.7223  -18.1112 N   0  0  0  0  0  0  0  0  0  0  0  0
   22.5266   -6.7571  -16.6781 C   0  0  0  0  0  0  0  0  0  0  0  0
   22.1950   -6.0379  -17.6416 O   0  0  0  0  0  0  0  0  0  0  0  0
   19.2303   -6.3713  -15.5405 C   0  0  0  0  0  0  0  0  0  0  0  0
   20.0831   -5.6274  -14.5296 C   0  0  1  0  0  0  0  0  0  0  0  0
   20.3578   -6.4695  -13.4397 O   0  0  0  0  0  0  0  0  0  0  0  0
   21.4045   -5.2133  -15.0964 C   0  0  2  0  0  0  0  0  0  0  0  0
   22.1892   -6.3880  -15.3675 N   0  0  0  0  0  0  0  0  0  0  0  0
   22.1152   -4.3801  -14.0825 C   0  0  0  0  0  0  0  0  0  0  0  0
   21.6011   -3.1232  -13.7259 O   0  0  0  0  0  0  0  0  0  0  0  0
   23.1707   -4.7226  -13.5027 O   0  0  0  0  0  0  0  0  0  0  0  0
  2  1  1  1
  3  2  1  0
  3  4  1  0
  4  5  1  0
  5  9  1  0
  5  6  2  0
  7  8  2  0
  7  2  1  0
 11 10  1  6
 11 13  1  0
 12 11  1  0
 13 14  1  6
 13 15  1  0
 14  7  1  0
 15 21  1  0
 16 15  2  0
 18 20  1  0
 18 19  1  0
 18 17  1  6
 20 22  1  0
 20 21  1  1
 22 24  2  0
 22 23  1  0
M  END
$$$$
