ETT.pdb
     RDKit          3D

 24 23  0  0  1  0  0  0  0  0999 V2000
   20.1676  -13.0364  -17.5821 N   0  0  0  0  0  0  0  0  0  0  0  0
   20.2906  -11.6212  -17.8605 C   0  0  1  0  0  0  0  0  0  0  0  0
   19.0049  -11.0633  -18.4240 C   0  0  0  0  0  0  0  0  0  0  0  0
   18.6115  -11.6813  -19.7242 C   0  0  0  0  0  0  0  0  0  0  0  0
   17.4081  -10.9691  -20.2247 C   0  0  0  0  0  0  0  0  0  0  0  0
   17.4301   -9.7159  -20.4594 O   0  0  0  0  0  0  0  0  0  0  0  0
   20.7085  -10.9376  -16.6198 C   0  0  0  0  0  0  0  0  0  0  0  0
   20.1727  -11.2681  -15.5371 O   0  0  0  0  0  0  0  0  0  0  0  0
   16.2129  -11.6124  -20.4617 O   0  0  0  0  0  0  0  0  0  0  0  0
   23.5127  -11.1848  -14.7263 C   0  0  0  0  0  0  0  0  0  0  0  0
   23.5340   -9.7190  -15.0529 C   0  0  1  0  0  0  0  0  0  0  0  0
   24.3826   -9.5254  -16.1223 O   0  0  0  0  0  0  0  0  0  0  0  0
   22.1169   -9.2401  -15.3686 C   0  0  2  0  0  0  0  0  0  0  0  0
   21.6927   -9.9142  -16.5708 N   0  0  0  0  0  0  0  0  0  0  0  0
   22.2072   -7.7651  -15.5410 C   0  0  0  0  0  0  0  0  0  0  0  0
   22.8106   -7.3668  -16.5573 O   0  0  0  0  0  0  0  0  0  0  0  0
   19.8731   -5.3312  -16.4669 C   0  0  0  0  0  0  0  0  0  0  0  0
   20.4201   -4.8612  -15.1318 C   0  0  1  0  0  0  0  0  0  0  0  0
   19.5724   -5.2963  -14.0999 O   0  0  0  0  0  0  0  0  0  0  0  0
   21.7748   -5.4264  -14.8422 C   0  0  2  0  0  0  0  0  0  0  0  0
   21.6583   -6.8453  -14.6353 N   0  0  0  0  0  0  0  0  0  0  0  0
   22.2943   -4.7965  -13.5930 C   0  0  0  0  0  0  0  0  0  0  0  0
   22.6218   -3.4312  -13.5825 O   0  0  0  0  0  0  0  0  0  0  0  0
   22.4685   -5.4079  -12.5144 O   0  0  0  0  0  0  0  0  0  0  0  0
  2  1  1  1
  3  2  1  0
  3  4  1  0
  4  5  1  0
  5  9  1  0
  5  6  2  0
  7  8  2  0
  7  2  1  0
 11 10  1  6
 11 13  1  0
 12 11  1  0
 13 14  1  6
 13 15  1  0
 14  7  1  0
 15 21  1  0
 16 15  2  0
 18 20  1  0
 18 19  1  0
 18 17  1  6
 20 22  1  0
 20 21  1  1
 22 24  2  0
 22 23  1  0
M  END
$$$$
