ETT.pdb
     RDKit          3D

 24 23  0  0  1  0  0  0  0  0999 V2000
   18.4930  -13.4405  -17.0255 N   0  0  0  0  0  0  0  0  0  0  0  0
   18.1253  -12.0577  -16.8069 C   0  0  1  0  0  0  0  0  0  0  0  0
   17.2570  -11.9126  -15.5793 C   0  0  0  0  0  0  0  0  0  0  0  0
   15.9937  -12.7040  -15.6513 C   0  0  0  0  0  0  0  0  0  0  0  0
   15.2279  -12.4594  -14.4024 C   0  0  0  0  0  0  0  0  0  0  0  0
   14.0857  -12.9928  -14.2109 O   0  0  0  0  0  0  0  0  0  0  0  0
   19.3621  -11.2549  -16.7235 C   0  0  0  0  0  0  0  0  0  0  0  0
   20.3790  -11.7633  -16.1982 O   0  0  0  0  0  0  0  0  0  0  0  0
   15.7008  -11.6523  -13.3908 O   0  0  0  0  0  0  0  0  0  0  0  0
   21.3943   -9.6981  -19.4047 C   0  0  0  0  0  0  0  0  0  0  0  0
   20.9687   -8.5732  -18.5051 C   0  0  1  0  0  0  0  0  0  0  0  0
   19.8611   -7.9688  -19.0612 O   0  0  0  0  0  0  0  0  0  0  0  0
   20.6683   -9.1156  -17.1077 C   0  0  2  0  0  0  0  0  0  0  0  0
   19.4781   -9.9239  -17.2064 N   0  0  0  0  0  0  0  0  0  0  0  0
   20.4814   -7.9263  -16.2334 C   0  0  0  0  0  0  0  0  0  0  0  0
   19.3172   -7.4880  -16.1437 O   0  0  0  0  0  0  0  0  0  0  0  0
   22.0968   -5.0954  -12.5540 C   0  0  0  0  0  0  0  0  0  0  0  0
   22.2908   -6.2324  -13.5400 C   0  0  1  0  0  0  0  0  0  0  0  0
   22.1167   -7.4594  -12.8791 O   0  0  0  0  0  0  0  0  0  0  0  0
   21.2898   -6.1974  -14.6516 C   0  0  2  0  0  0  0  0  0  0  0  0
   21.5288   -7.3072  -15.5352 N   0  0  0  0  0  0  0  0  0  0  0  0
   21.4699   -4.9260  -15.4121 C   0  0  0  0  0  0  0  0  0  0  0  0
   20.7480   -3.7806  -15.0402 O   0  0  0  0  0  0  0  0  0  0  0  0
   22.2401   -4.7922  -16.3902 O   0  0  0  0  0  0  0  0  0  0  0  0
  2  1  1  1
  3  2  1  0
  3  4  1  0
  4  5  1  0
  5  9  1  0
  5  6  2  0
  7  8  2  0
  7  2  1  0
 11 10  1  6
 11 13  1  0
 12 11  1  0
 13 14  1  6
 13 15  1  0
 14  7  1  0
 15 21  1  0
 16 15  2  0
 18 20  1  0
 18 19  1  0
 18 17  1  1
 20 22  1  0
 20 21  1  6
 22 24  2  0
 22 23  1  0
M  END
$$$$
