SVD.pdb
     RDKit          3D

 22 21  0  0  1  0  0  0  0  0999 V2000
    6.0046  -19.1175   17.3676 O   0  0  0  0  0  0  0  0  0  0  0  0
    6.9761  -18.5509   18.1523 C   0  0  0  0  0  0  0  0  0  0  0  0
    7.4316  -17.2090   17.6320 C   0  0  2  0  0  0  0  0  0  0  0  0
    8.2532  -17.4741   16.4488 N   0  0  0  0  0  0  0  0  0  0  0  0
    8.3353  -16.4996   18.6012 C   0  0  0  0  0  0  0  0  0  0  0  0
    9.5782  -16.6727   18.6263 O   0  0  0  0  0  0  0  0  0  0  0  0
    6.6935  -13.7446   21.5658 C   0  0  0  0  0  0  0  0  0  0  0  0
    7.9925  -13.5374   20.8281 C   0  0  2  0  0  0  0  0  0  0  0  0
    7.8217  -12.6867   19.5926 C   0  0  0  0  0  0  0  0  0  0  0  0
    8.6233  -14.8787   20.5183 C   0  0  2  0  0  0  0  0  0  0  0  0
    7.8081  -15.5799   19.5539 N   0  0  0  0  0  0  0  0  0  0  0  0
    8.7460  -15.6242   21.7966 C   0  0  0  0  0  0  0  0  0  0  0  0
    7.7715  -16.3349   22.1517 O   0  0  0  0  0  0  0  0  0  0  0  0
    9.9059  -15.5620   22.6151 N   0  0  0  0  0  0  0  0  0  0  0  0
   10.5390  -16.7741   23.0878 C   0  0  1  0  0  0  0  0  0  0  0  0
   11.0002  -17.6448   21.9407 C   0  0  0  0  0  0  0  0  0  0  0  0
   11.5569  -18.8880   22.5156 C   0  0  0  0  0  0  0  0  0  0  0  0
   12.2791  -18.8193   23.5652 O   0  0  0  0  0  0  0  0  0  0  0  0
   11.6828  -16.4604   23.9968 C   0  0  0  0  0  0  0  0  0  0  0  0
   11.7136  -16.9973   25.1318 O   0  0  0  0  0  0  0  0  0  0  0  0
   11.3086  -20.1119   21.9334 O   0  0  0  0  0  0  0  0  0  0  0  0
   12.6979  -15.6039   23.6295 O   0  0  0  0  0  0  0  0  0  0  0  0
  1  2  1  0
  3  2  1  0
  3  4  1  6
  5  6  2  0
  5  3  1  0
  8  7  1  6
  8 10  1  0
  9  8  1  0
 10 11  1  6
 11  5  1  0
 12 10  1  0
 12 14  1  0
 13 12  2  0
 15 14  1  0
 15 19  1  0
 16 17  1  0
 15 16  1  6
 17 21  1  0
 18 17  2  0
 19 20  2  0
 19 22  1  0
M  END
$$$$
