SVD.pdb
     RDKit          3D

 22 21  0  0  1  0  0  0  0  0999 V2000
    6.4513  -16.9947   22.0420 O   0  0  0  0  0  0  0  0  0  0  0  0
    7.1629  -16.3435   21.0672 C   0  0  0  0  0  0  0  0  0  0  0  0
    7.2843  -14.8620   21.3304 C   0  0  2  0  0  0  0  0  0  0  0  0
    8.1837  -14.3258   20.3064 N   0  0  0  0  0  0  0  0  0  0  0  0
    7.9498  -14.5702   22.6462 C   0  0  0  0  0  0  0  0  0  0  0  0
    9.1949  -14.6003   22.8020 O   0  0  0  0  0  0  0  0  0  0  0  0
    6.6645  -11.7890   25.0045 C   0  0  0  0  0  0  0  0  0  0  0  0
    6.8998  -13.0103   25.8576 C   0  0  2  0  0  0  0  0  0  0  0  0
    7.4815  -12.6645   27.2071 C   0  0  0  0  0  0  0  0  0  0  0  0
    7.7561  -14.0042   25.1013 C   0  0  2  0  0  0  0  0  0  0  0  0
    7.1787  -14.2397   23.7984 N   0  0  0  0  0  0  0  0  0  0  0  0
    7.8302  -15.2445   25.9143 C   0  0  0  0  0  0  0  0  0  0  0  0
    7.0153  -16.1642   25.6485 O   0  0  0  0  0  0  0  0  0  0  0  0
    8.7736  -15.4222   26.9620 N   0  0  0  0  0  0  0  0  0  0  0  0
    9.3928  -16.7110   27.1841 C   0  0  1  0  0  0  0  0  0  0  0  0
   10.1595  -17.1770   25.9669 C   0  0  0  0  0  0  0  0  0  0  0  0
   10.7741  -18.4812   26.2949 C   0  0  0  0  0  0  0  0  0  0  0  0
   11.9974  -18.5194   26.6557 O   0  0  0  0  0  0  0  0  0  0  0  0
   10.2865  -16.6756   28.3811 C   0  0  0  0  0  0  0  0  0  0  0  0
   10.9815  -15.6489   28.5824 O   0  0  0  0  0  0  0  0  0  0  0  0
   10.0467  -19.6485   26.2137 O   0  0  0  0  0  0  0  0  0  0  0  0
   10.3712  -17.7296   29.2646 O   0  0  0  0  0  0  0  0  0  0  0  0
  1  2  1  0
  3  2  1  0
  3  4  1  6
  5  6  2  0
  5  3  1  0
  8  7  1  6
  8 10  1  0
  9  8  1  0
 10 11  1  6
 11  5  1  0
 12 10  1  0
 12 14  1  0
 13 12  2  0
 15 14  1  0
 15 19  1  0
 16 17  1  0
 15 16  1  6
 17 21  1  0
 18 17  2  0
 19 20  2  0
 19 22  1  0
M  END
$$$$
