SVD.pdb
     RDKit          3D

 22 21  0  0  1  0  0  0  0  0999 V2000
    8.0504  -19.1879   18.1898 O   0  0  0  0  0  0  0  0  0  0  0  0
    7.1940  -18.2891   17.6073 C   0  0  0  0  0  0  0  0  0  0  0  0
    7.8774  -16.9960   17.2337 C   0  0  2  0  0  0  0  0  0  0  0  0
    8.9286  -17.3386   16.2730 N   0  0  0  0  0  0  0  0  0  0  0  0
    8.5858  -16.3685   18.4016 C   0  0  0  0  0  0  0  0  0  0  0  0
    9.7958  -16.5808   18.6592 O   0  0  0  0  0  0  0  0  0  0  0  0
    7.3622  -12.7639   20.1084 C   0  0  0  0  0  0  0  0  0  0  0  0
    7.5578  -13.9036   21.0766 C   0  0  2  0  0  0  0  0  0  0  0  0
    8.0193  -13.4309   22.4341 C   0  0  0  0  0  0  0  0  0  0  0  0
    8.4971  -14.9283   20.4761 C   0  0  2  0  0  0  0  0  0  0  0  0
    7.8990  -15.4863   19.2855 N   0  0  0  0  0  0  0  0  0  0  0  0
    8.7565  -15.9616   21.5104 C   0  0  0  0  0  0  0  0  0  0  0  0
    7.8310  -16.7727   21.7678 O   0  0  0  0  0  0  0  0  0  0  0  0
    9.9923  -16.0617   22.2047 N   0  0  0  0  0  0  0  0  0  0  0  0
   10.2000  -17.0991   23.1917 C   0  0  1  0  0  0  0  0  0  0  0  0
   11.3757  -17.9801   22.8338 C   0  0  0  0  0  0  0  0  0  0  0  0
   12.5467  -17.1028   22.6211 C   0  0  0  0  0  0  0  0  0  0  0  0
   12.7106  -16.5488   21.4834 O   0  0  0  0  0  0  0  0  0  0  0  0
   10.3840  -16.5122   24.5536 C   0  0  0  0  0  0  0  0  0  0  0  0
   10.4033  -15.2620   24.6719 O   0  0  0  0  0  0  0  0  0  0  0  0
   13.4583  -16.8797   23.6298 O   0  0  0  0  0  0  0  0  0  0  0  0
   10.5333  -17.2970   25.6763 O   0  0  0  0  0  0  0  0  0  0  0  0
  1  2  1  0
  3  2  1  0
  3  4  1  6
  5  6  2  0
  5  3  1  0
  8  7  1  6
  8 10  1  0
  9  8  1  0
 10 11  1  6
 11  5  1  0
 12 10  1  0
 12 14  1  0
 13 12  2  0
 15 14  1  0
 15 19  1  0
 16 17  1  0
 15 16  1  6
 17 21  1  0
 18 17  2  0
 19 20  2  0
 19 22  1  0
M  END
$$$$
