SVD.pdb
     RDKit          3D

 22 21  0  0  1  0  0  0  0  0999 V2000
   -2.7159  -29.2944   29.8887 O   0  0  0  0  0  0  0  0  0  0  0  0
   -3.0704  -27.9775   30.0323 C   0  0  0  0  0  0  0  0  0  0  0  0
   -2.1117  -27.0404   29.3383 C   0  0  2  0  0  0  0  0  0  0  0  0
   -0.8624  -27.0763   30.1020 N   0  0  0  0  0  0  0  0  0  0  0  0
   -2.5756  -25.6116   29.3886 C   0  0  0  0  0  0  0  0  0  0  0  0
   -2.3658  -24.8609   30.3724 O   0  0  0  0  0  0  0  0  0  0  0  0
   -1.9902  -22.9294   26.8064 C   0  0  0  0  0  0  0  0  0  0  0  0
   -3.4851  -23.0185   26.9851 C   0  0  2  0  0  0  0  0  0  0  0  0
   -4.1610  -21.6758   26.8450 C   0  0  0  0  0  0  0  0  0  0  0  0
   -3.8025  -23.6853   28.3070 C   0  0  2  0  0  0  0  0  0  0  0  0
   -3.2891  -25.0354   28.2976 N   0  0  0  0  0  0  0  0  0  0  0  0
   -5.2758  -23.6469   28.4880 C   0  0  0  0  0  0  0  0  0  0  0  0
   -5.9628  -24.4834   27.8486 O   0  0  0  0  0  0  0  0  0  0  0  0
   -5.9216  -22.7141   29.3437 N   0  0  0  0  0  0  0  0  0  0  0  0
   -7.3320  -22.8414   29.6402 C   0  0  1  0  0  0  0  0  0  0  0  0
   -7.6040  -24.0106   30.5598 C   0  0  0  0  0  0  0  0  0  0  0  0
   -9.0671  -24.0992   30.7537 C   0  0  0  0  0  0  0  0  0  0  0  0
   -9.6080  -23.4535   31.7120 O   0  0  0  0  0  0  0  0  0  0  0  0
   -7.8705  -21.5783   30.2299 C   0  0  0  0  0  0  0  0  0  0  0  0
   -7.0790  -20.8101   30.8307 O   0  0  0  0  0  0  0  0  0  0  0  0
   -9.8480  -24.8679   29.9184 O   0  0  0  0  0  0  0  0  0  0  0  0
   -9.2014  -21.2339   30.1356 O   0  0  0  0  0  0  0  0  0  0  0  0
  1  2  1  0
  3  2  1  0
  3  4  1  1
  5  6  2  0
  5  3  1  0
  8  7  1  1
  8 10  1  0
  9  8  1  0
 10 11  1  6
 11  5  1  0
 12 10  1  0
 12 14  1  0
 13 12  2  0
 15 14  1  0
 15 19  1  0
 16 17  1  0
 15 16  1  1
 17 21  1  0
 18 17  2  0
 19 20  2  0
 19 22  1  0
M  END
$$$$
