SVD.pdb
     RDKit          3D

 22 21  0  0  1  0  0  0  0  0999 V2000
    6.4700  -19.3482   16.5611 O   0  0  0  0  0  0  0  0  0  0  0  0
    7.1247  -18.6236   17.5239 C   0  0  0  0  0  0  0  0  0  0  0  0
    7.5407  -17.2565   17.0373 C   0  0  2  0  0  0  0  0  0  0  0  0
    8.4564  -17.4710   15.9145 N   0  0  0  0  0  0  0  0  0  0  0  0
    8.3338  -16.5025   18.0678 C   0  0  0  0  0  0  0  0  0  0  0  0
    9.5884  -16.5131   18.1044 O   0  0  0  0  0  0  0  0  0  0  0  0
    7.0475  -13.0019   19.7743 C   0  0  0  0  0  0  0  0  0  0  0  0
    7.4580  -14.0430   20.7854 C   0  0  2  0  0  0  0  0  0  0  0  0
    8.0609  -13.4311   22.0270 C   0  0  0  0  0  0  0  0  0  0  0  0
    8.3832  -15.0498   20.1348 C   0  0  2  0  0  0  0  0  0  0  0  0
    7.6810  -15.7264   19.0692 N   0  0  0  0  0  0  0  0  0  0  0  0
    8.8398  -15.9890   21.1903 C   0  0  0  0  0  0  0  0  0  0  0  0
    7.9820  -16.7542   21.6994 O   0  0  0  0  0  0  0  0  0  0  0  0
   10.1882  -16.0501   21.6347 N   0  0  0  0  0  0  0  0  0  0  0  0
   10.5733  -16.9560   22.6952 C   0  0  1  0  0  0  0  0  0  0  0  0
   11.9624  -17.5115   22.4752 C   0  0  0  0  0  0  0  0  0  0  0  0
   11.9210  -18.3594   21.2646 C   0  0  0  0  0  0  0  0  0  0  0  0
   10.8563  -19.0093   20.9963 O   0  0  0  0  0  0  0  0  0  0  0  0
   10.4845  -16.2870   24.0284 C   0  0  0  0  0  0  0  0  0  0  0  0
   10.3890  -17.0036   25.0555 O   0  0  0  0  0  0  0  0  0  0  0  0
   13.0125  -18.4571   20.4295 O   0  0  0  0  0  0  0  0  0  0  0  0
   10.5030  -14.9158   24.1636 O   0  0  0  0  0  0  0  0  0  0  0  0
  1  2  1  0
  3  2  1  0
  3  4  1  6
  5  6  2  0
  5  3  1  0
  8  7  1  6
  8 10  1  0
  9  8  1  0
 10 11  1  6
 11  5  1  0
 12 10  1  0
 12 14  1  0
 13 12  2  0
 15 14  1  0
 15 19  1  0
 16 17  1  0
 15 16  1  6
 17 21  1  0
 18 17  2  0
 19 20  2  0
 19 22  1  0
M  END
$$$$
