SVD.pdb
     RDKit          3D

 22 21  0  0  1  0  0  0  0  0999 V2000
    7.1290  -17.9339   20.9049 O   0  0  0  0  0  0  0  0  0  0  0  0
    7.6846  -17.2783   21.9737 C   0  0  0  0  0  0  0  0  0  0  0  0
    7.5368  -15.7794   21.8746 C   0  0  2  0  0  0  0  0  0  0  0  0
    8.2392  -15.3676   20.6570 N   0  0  0  0  0  0  0  0  0  0  0  0
    8.2274  -15.0634   23.0015 C   0  0  0  0  0  0  0  0  0  0  0  0
    9.4508  -14.7835   22.9833 O   0  0  0  0  0  0  0  0  0  0  0  0
    6.4446  -12.3180   25.3564 C   0  0  0  0  0  0  0  0  0  0  0  0
    7.1024  -13.3969   26.1797 C   0  0  2  0  0  0  0  0  0  0  0  0
    7.6786  -12.8639   27.4694 C   0  0  0  0  0  0  0  0  0  0  0  0
    8.1386  -14.1174   25.3430 C   0  0  2  0  0  0  0  0  0  0  0  0
    7.5069  -14.6631   24.1643 N   0  0  0  0  0  0  0  0  0  0  0  0
    8.7482  -15.1722   26.1919 C   0  0  0  0  0  0  0  0  0  0  0  0
    8.1345  -16.2649   26.2929 O   0  0  0  0  0  0  0  0  0  0  0  0
    9.9782  -14.9905   26.8799 N   0  0  0  0  0  0  0  0  0  0  0  0
   10.5870  -16.0872   27.6012 C   0  0  1  0  0  0  0  0  0  0  0  0
   12.0117  -16.3246   27.1537 C   0  0  0  0  0  0  0  0  0  0  0  0
   12.0091  -17.4909   26.2450 C   0  0  0  0  0  0  0  0  0  0  0  0
   10.9033  -18.0684   25.9770 O   0  0  0  0  0  0  0  0  0  0  0  0
   10.5362  -15.8508   29.0758 C   0  0  0  0  0  0  0  0  0  0  0  0
   10.6797  -16.8315   29.8472 O   0  0  0  0  0  0  0  0  0  0  0  0
   13.1795  -17.9600   25.6896 O   0  0  0  0  0  0  0  0  0  0  0  0
   10.3368  -14.5968   29.6111 O   0  0  0  0  0  0  0  0  0  0  0  0
  1  2  1  0
  3  2  1  0
  3  4  1  6
  5  6  2  0
  5  3  1  0
  8  7  1  6
  8 10  1  0
  9  8  1  0
 10 11  1  6
 11  5  1  0
 12 10  1  0
 12 14  1  0
 13 12  2  0
 15 14  1  0
 15 19  1  0
 16 17  1  0
 15 16  1  6
 17 21  1  0
 18 17  2  0
 19 20  2  0
 19 22  1  0
M  END
$$$$
