SVD.pdb
     RDKit          3D

 22 21  0  0  1  0  0  0  0  0999 V2000
    7.1443  -19.5805   17.1615 O   0  0  0  0  0  0  0  0  0  0  0  0
    7.9881  -18.8544   17.9624 C   0  0  0  0  0  0  0  0  0  0  0  0
    8.0963  -17.4115   17.5323 C   0  0  2  0  0  0  0  0  0  0  0  0
    8.9935  -17.3843   16.3750 N   0  0  0  0  0  0  0  0  0  0  0  0
    8.7563  -16.5543   18.5759 C   0  0  0  0  0  0  0  0  0  0  0  0
    9.9926  -16.3391   18.5993 O   0  0  0  0  0  0  0  0  0  0  0  0
    7.0269  -13.2683   20.1590 C   0  0  0  0  0  0  0  0  0  0  0  0
    7.5124  -14.2134   21.2293 C   0  0  2  0  0  0  0  0  0  0  0  0
    7.9925  -13.4866   22.4624 C   0  0  0  0  0  0  0  0  0  0  0  0
    8.5707  -15.1329   20.6569 C   0  0  2  0  0  0  0  0  0  0  0  0
    7.9898  -15.9357   19.6061 N   0  0  0  0  0  0  0  0  0  0  0  0
    9.0964  -15.9623   21.7707 C   0  0  0  0  0  0  0  0  0  0  0  0
    8.3700  -16.8974   22.1932 O   0  0  0  0  0  0  0  0  0  0  0  0
   10.3686  -15.7381   22.3627 N   0  0  0  0  0  0  0  0  0  0  0  0
   10.8061  -16.5324   23.4902 C   0  0  1  0  0  0  0  0  0  0  0  0
   12.2878  -16.3691   23.7443 C   0  0  0  0  0  0  0  0  0  0  0  0
   13.0075  -16.9172   22.5748 C   0  0  0  0  0  0  0  0  0  0  0  0
   12.9086  -18.1616   22.3105 O   0  0  0  0  0  0  0  0  0  0  0  0
   10.0259  -16.1924   24.7185 C   0  0  0  0  0  0  0  0  0  0  0  0
    9.6250  -15.0116   24.8684 O   0  0  0  0  0  0  0  0  0  0  0  0
   13.7808  -16.1057   21.7737 O   0  0  0  0  0  0  0  0  0  0  0  0
    9.7361  -17.1297   25.6861 O   0  0  0  0  0  0  0  0  0  0  0  0
  1  2  1  0
  3  2  1  0
  3  4  1  6
  5  6  2  0
  5  3  1  0
  8  7  1  6
  8 10  1  0
  9  8  1  0
 10 11  1  6
 11  5  1  0
 12 10  1  0
 12 14  1  0
 13 12  2  0
 15 14  1  0
 15 19  1  0
 16 17  1  0
 15 16  1  1
 17 21  1  0
 18 17  2  0
 19 20  2  0
 19 22  1  0
M  END
$$$$
