SVD.pdb
     RDKit          3D

 22 21  0  0  1  0  0  0  0  0999 V2000
    7.3583  -19.2539   15.9977 O   0  0  0  0  0  0  0  0  0  0  0  0
    7.5732  -18.4484   17.0866 C   0  0  0  0  0  0  0  0  0  0  0  0
    7.8747  -17.0206   16.7007 C   0  0  2  0  0  0  0  0  0  0  0  0
    8.8101  -17.0783   15.5751 N   0  0  0  0  0  0  0  0  0  0  0  0
    8.5971  -16.2771   17.7891 C   0  0  0  0  0  0  0  0  0  0  0  0
    9.8486  -16.2450   17.8781 O   0  0  0  0  0  0  0  0  0  0  0  0
    7.1364  -12.8460   19.4634 C   0  0  0  0  0  0  0  0  0  0  0  0
    7.5276  -13.8816   20.4877 C   0  0  2  0  0  0  0  0  0  0  0  0
    8.0515  -13.2609   21.7604 C   0  0  0  0  0  0  0  0  0  0  0  0
    8.5122  -14.8569   19.8776 C   0  0  2  0  0  0  0  0  0  0  0  0
    7.8760  -15.5610   18.7885 N   0  0  0  0  0  0  0  0  0  0  0  0
    8.9605  -15.7763   20.9539 C   0  0  0  0  0  0  0  0  0  0  0  0
    8.1676  -16.6839   21.3118 O   0  0  0  0  0  0  0  0  0  0  0  0
   10.2314  -15.6660   21.5799 N   0  0  0  0  0  0  0  0  0  0  0  0
   10.5861  -16.5323   22.6831 C   0  0  1  0  0  0  0  0  0  0  0  0
   12.0840  -16.7068   22.7942 C   0  0  0  0  0  0  0  0  0  0  0  0
   12.5428  -17.4316   21.5900 C   0  0  0  0  0  0  0  0  0  0  0  0
   11.8198  -18.3697   21.1153 O   0  0  0  0  0  0  0  0  0  0  0  0
   10.0244  -16.0180   23.9688 C   0  0  0  0  0  0  0  0  0  0  0  0
    9.5906  -14.8399   24.0068 O   0  0  0  0  0  0  0  0  0  0  0  0
   13.7353  -17.1096   20.9796 O   0  0  0  0  0  0  0  0  0  0  0  0
    9.9696  -16.7926   25.1071 O   0  0  0  0  0  0  0  0  0  0  0  0
  1  2  1  0
  3  2  1  0
  3  4  1  6
  5  6  2  0
  5  3  1  0
  8  7  1  6
  8 10  1  0
  9  8  1  0
 10 11  1  6
 11  5  1  0
 12 10  1  0
 12 14  1  0
 13 12  2  0
 15 14  1  0
 15 19  1  0
 16 17  1  0
 15 16  1  1
 17 21  1  0
 18 17  2  0
 19 20  2  0
 19 22  1  0
M  END
$$$$
