SSF.pdb
     RDKit          3D

 24 24  0  0  1  0  0  0  0  0999 V2000
   28.8452  -17.5455  -15.8037 O   0  0  0  0  0  0  0  0  0  0  0  0
   28.2496  -17.8763  -14.6033 C   0  0  0  0  0  0  0  0  0  0  0  0
   26.8920  -18.4845  -14.9132 C   0  0  2  0  0  0  0  0  0  0  0  0
   26.0452  -17.5271  -15.5831 N   0  0  0  0  0  0  0  0  0  0  0  0
   26.2665  -18.8416  -13.6196 C   0  0  0  0  0  0  0  0  0  0  0  0
   25.6240  -17.9801  -12.9717 O   0  0  0  0  0  0  0  0  0  0  0  0
   25.6780  -22.7426  -12.6400 O   0  0  0  0  0  0  0  0  0  0  0  0
   24.8056  -21.7730  -12.1558 C   0  0  0  0  0  0  0  0  0  0  0  0
   25.6160  -20.5059  -11.8940 C   0  0  2  0  0  0  0  0  0  0  0  0
   26.3652  -20.1583  -13.0628 N   0  0  0  0  0  0  0  0  0  0  0  0
   26.4713  -20.6633  -10.6906 C   0  0  0  0  0  0  0  0  0  0  0  0
   27.6114  -21.1873  -10.7782 O   0  0  0  0  0  0  0  0  0  0  0  0
   26.0681  -20.2421   -9.3885 N   0  0  0  0  0  0  0  0  0  0  0  0
   26.7691  -20.6407   -8.1805 C   0  0  1  0  0  0  0  0  0  0  0  0
   27.5632  -19.4403   -7.7238 C   0  0  0  0  0  0  0  0  0  0  0  0
   28.1829  -19.5864   -6.4140 C   0  0  0  0  0  0  0  0  0  0  0  0
   29.3114  -20.3573   -6.2828 C   0  0  0  0  0  0  0  0  0  0  0  0
   29.9630  -20.5472   -5.0721 C   0  0  0  0  0  0  0  0  0  0  0  0
   29.4465  -19.9289   -3.9522 C   0  0  0  0  0  0  0  0  0  0  0  0
   28.3174  -19.1553   -4.0733 C   0  0  0  0  0  0  0  0  0  0  0  0
   27.6796  -18.9769   -5.2914 C   0  0  0  0  0  0  0  0  0  0  0  0
   25.8481  -21.1648   -7.1740 C   0  0  0  0  0  0  0  0  0  0  0  0
   26.3358  -21.9633   -6.1559 O   0  0  0  0  0  0  0  0  0  0  0  0
   24.6211  -20.9130   -7.2024 O   0  0  0  0  0  0  0  0  0  0  0  0
  1  2  1  0
  2  3  1  0
  3  5  1  0
  3  4  1  1
  5  6  2  0
  7  8  1  0
  9  8  1  6
  9 11  1  0
 10  5  1  0
 10  9  1  0
 11 12  2  0
 11 13  1  0
 13 14  1  0
 14 22  1  0
 14 15  1  1
 16 15  1  0
 16 17  2  0
 18 17  1  0
 19 18  2  0
 20 21  2  0
 20 19  1  0
 21 16  1  0
 22 24  2  0
 22 23  1  0
M  END
$$$$
