SSF.pdb
     RDKit          3D

 24 24  0  0  1  0  0  0  0  0999 V2000
   18.5153  -14.8525  -14.7782 O   0  0  0  0  0  0  0  0  0  0  0  0
   18.5846  -13.5057  -15.0719 C   0  0  0  0  0  0  0  0  0  0  0  0
   18.0453  -13.3112  -16.4791 C   0  0  2  0  0  0  0  0  0  0  0  0
   19.0131  -13.7400  -17.4599 N   0  0  0  0  0  0  0  0  0  0  0  0
   17.8037  -11.8617  -16.6592 C   0  0  0  0  0  0  0  0  0  0  0  0
   18.6970  -11.1307  -17.1513 O   0  0  0  0  0  0  0  0  0  0  0  0
   14.6617   -9.9223  -14.8575 O   0  0  0  0  0  0  0  0  0  0  0  0
   14.9350   -9.4594  -16.1408 C   0  0  0  0  0  0  0  0  0  0  0  0
   16.3759   -9.8372  -16.4754 C   0  0  2  0  0  0  0  0  0  0  0  0
   16.5656  -11.2432  -16.2874 N   0  0  0  0  0  0  0  0  0  0  0  0
   17.3341   -9.0193  -15.6897 C   0  0  0  0  0  0  0  0  0  0  0  0
   17.9590   -9.5193  -14.7194 O   0  0  0  0  0  0  0  0  0  0  0  0
   17.6032   -7.6476  -15.9749 N   0  0  0  0  0  0  0  0  0  0  0  0
   18.4510   -6.8208  -15.1339 C   0  0  1  0  0  0  0  0  0  0  0  0
   19.8704   -7.0403  -15.6001 C   0  0  0  0  0  0  0  0  0  0  0  0
   20.8467   -6.1293  -15.0190 C   0  0  0  0  0  0  0  0  0  0  0  0
   21.3625   -6.3957  -13.7747 C   0  0  0  0  0  0  0  0  0  0  0  0
   22.2963   -5.5802  -13.1508 C   0  0  0  0  0  0  0  0  0  0  0  0
   22.7216   -4.4505  -13.8186 C   0  0  0  0  0  0  0  0  0  0  0  0
   22.2113   -4.1751  -15.0643 C   0  0  0  0  0  0  0  0  0  0  0  0
   21.2787   -5.0016  -15.6722 C   0  0  0  0  0  0  0  0  0  0  0  0
   18.0262   -5.4226  -15.1536 C   0  0  0  0  0  0  0  0  0  0  0  0
   17.2962   -4.9486  -16.2281 O   0  0  0  0  0  0  0  0  0  0  0  0
   18.3032   -4.6319  -14.2220 O   0  0  0  0  0  0  0  0  0  0  0  0
  1  2  1  0
  2  3  1  0
  3  5  1  0
  3  4  1  6
  5  6  2  0
  7  8  1  0
  9  8  1  1
  9 11  1  0
 10  5  1  0
 10  9  1  0
 11 12  2  0
 11 13  1  0
 13 14  1  0
 14 22  1  0
 14 15  1  6
 16 15  1  0
 16 17  2  0
 18 17  1  0
 19 18  2  0
 20 21  2  0
 20 19  1  0
 21 16  1  0
 22 24  2  0
 22 23  1  0
M  END
$$$$
