SSF.pdb
     RDKit          3D

 24 24  0  0  1  0  0  0  0  0999 V2000
   15.5634  -10.1643  -18.9468 O   0  0  0  0  0  0  0  0  0  0  0  0
   15.6747  -10.3252  -17.5805 C   0  0  0  0  0  0  0  0  0  0  0  0
   16.7367  -11.3815  -17.3246 C   0  0  2  0  0  0  0  0  0  0  0  0
   16.1523  -12.5575  -16.7261 N   0  0  0  0  0  0  0  0  0  0  0  0
   17.7097  -10.8023  -16.3708 C   0  0  0  0  0  0  0  0  0  0  0  0
   17.4275  -10.7284  -15.1503 O   0  0  0  0  0  0  0  0  0  0  0  0
   21.7439  -10.3000  -17.1648 O   0  0  0  0  0  0  0  0  0  0  0  0
   21.2288  -10.4312  -15.8791 C   0  0  0  0  0  0  0  0  0  0  0  0
   19.8803   -9.7162  -15.8422 C   0  0  2  0  0  0  0  0  0  0  0  0
   18.9888  -10.3113  -16.7905 N   0  0  0  0  0  0  0  0  0  0  0  0
   20.0491   -8.2560  -16.0519 C   0  0  0  0  0  0  0  0  0  0  0  0
   19.9570   -7.7587  -17.2036 O   0  0  0  0  0  0  0  0  0  0  0  0
   20.3197   -7.3432  -14.9895 N   0  0  0  0  0  0  0  0  0  0  0  0
   20.6104   -5.9380  -15.2144 C   0  0  1  0  0  0  0  0  0  0  0  0
   20.0786   -5.1881  -14.0166 C   0  0  0  0  0  0  0  0  0  0  0  0
   20.3249   -3.7529  -14.0419 C   0  0  0  0  0  0  0  0  0  0  0  0
   21.5692   -3.2751  -13.7128 C   0  0  0  0  0  0  0  0  0  0  0  0
   21.8866   -1.9240  -13.7127 C   0  0  0  0  0  0  0  0  0  0  0  0
   20.9001   -1.0247  -14.0608 C   0  0  0  0  0  0  0  0  0  0  0  0
   19.6515   -1.4930  -14.3918 C   0  0  0  0  0  0  0  0  0  0  0  0
   19.3525   -2.8469  -14.3864 C   0  0  0  0  0  0  0  0  0  0  0  0
   22.0321   -5.7188  -15.4725 C   0  0  0  0  0  0  0  0  0  0  0  0
   22.9724   -6.4126  -14.7332 O   0  0  0  0  0  0  0  0  0  0  0  0
   22.4315   -4.9167  -16.3482 O   0  0  0  0  0  0  0  0  0  0  0  0
  1  2  1  0
  2  3  1  0
  3  5  1  0
  3  4  1  1
  5  6  2  0
  7  8  1  0
  9  8  1  6
  9 11  1  0
 10  5  1  0
 10  9  1  0
 11 12  2  0
 11 13  1  0
 13 14  1  0
 14 22  1  0
 14 15  1  1
 16 15  1  0
 16 17  2  0
 18 17  1  0
 19 18  2  0
 20 21  2  0
 20 19  1  0
 21 16  1  0
 22 24  2  0
 22 23  1  0
M  END
$$$$
