SSF.pdb
     RDKit          3D

 24 24  0  0  1  0  0  0  0  0999 V2000
   18.5259  -11.7600  -14.3123 O   0  0  0  0  0  0  0  0  0  0  0  0
   18.1388  -10.9787  -15.3822 C   0  0  0  0  0  0  0  0  0  0  0  0
   19.2363   -9.9574  -15.6298 C   0  0  2  0  0  0  0  0  0  0  0  0
   20.5263  -10.6010  -15.6958 N   0  0  0  0  0  0  0  0  0  0  0  0
   19.2343   -9.0248  -14.4799 C   0  0  0  0  0  0  0  0  0  0  0  0
   20.1224   -9.1109  -13.5977 O   0  0  0  0  0  0  0  0  0  0  0  0
   17.6745   -5.3968  -14.6254 O   0  0  0  0  0  0  0  0  0  0  0  0
   18.5282   -5.7214  -13.5759 C   0  0  0  0  0  0  0  0  0  0  0  0
   18.2388   -7.1642  -13.1691 C   0  0  2  0  0  0  0  0  0  0  0  0
   18.2392   -8.0049  -14.3273 N   0  0  0  0  0  0  0  0  0  0  0  0
   16.9740   -7.2532  -12.3965 C   0  0  0  0  0  0  0  0  0  0  0  0
   15.8854   -7.5027  -12.9751 O   0  0  0  0  0  0  0  0  0  0  0  0
   16.9102   -7.0668  -10.9836 N   0  0  0  0  0  0  0  0  0  0  0  0
   15.6557   -6.9417  -10.2624 C   0  0  1  0  0  0  0  0  0  0  0  0
   15.8706   -7.5702   -8.9063 C   0  0  0  0  0  0  0  0  0  0  0  0
   14.7340   -7.4636   -8.0021 C   0  0  0  0  0  0  0  0  0  0  0  0
   13.7824   -8.4532   -7.9935 C   0  0  0  0  0  0  0  0  0  0  0  0
   12.6706   -8.4285   -7.1630 C   0  0  0  0  0  0  0  0  0  0  0  0
   12.5215   -7.3556   -6.3086 C   0  0  0  0  0  0  0  0  0  0  0  0
   13.4685   -6.3601   -6.3098 C   0  0  0  0  0  0  0  0  0  0  0  0
   14.5731   -6.4017   -7.1467 C   0  0  0  0  0  0  0  0  0  0  0  0
   15.2023   -5.5533  -10.2113 C   0  0  0  0  0  0  0  0  0  0  0  0
   13.8517   -5.2747  -10.3134 O   0  0  0  0  0  0  0  0  0  0  0  0
   16.0025   -4.5986  -10.0770 O   0  0  0  0  0  0  0  0  0  0  0  0
  1  2  1  0
  2  3  1  0
  3  5  1  0
  3  4  1  1
  5  6  2  0
  7  8  1  0
  9  8  1  6
  9 11  1  0
 10  5  1  0
 10  9  1  0
 11 12  2  0
 11 13  1  0
 13 14  1  0
 14 22  1  0
 14 15  1  1
 16 15  1  0
 16 17  2  0
 18 17  1  0
 19 18  2  0
 20 21  2  0
 20 19  1  0
 21 16  1  0
 22 24  2  0
 22 23  1  0
M  END
$$$$
