SSF.pdb
     RDKit          3D

 24 24  0  0  1  0  0  0  0  0999 V2000
   25.5031  -11.7395  -15.7127 O   0  0  0  0  0  0  0  0  0  0  0  0
   24.3612  -12.5086  -15.6147 C   0  0  0  0  0  0  0  0  0  0  0  0
   23.6143  -12.3972  -16.9333 C   0  0  2  0  0  0  0  0  0  0  0  0
   24.5337  -12.4363  -18.0450 N   0  0  0  0  0  0  0  0  0  0  0  0
   22.9265  -11.0861  -16.9377 C   0  0  0  0  0  0  0  0  0  0  0  0
   23.5036  -10.0737  -17.4030 O   0  0  0  0  0  0  0  0  0  0  0  0
   19.1773  -10.4724  -15.1801 O   0  0  0  0  0  0  0  0  0  0  0  0
   19.4385   -9.8289  -16.3856 C   0  0  0  0  0  0  0  0  0  0  0  0
   20.9502   -9.6467  -16.4985 C   0  0  2  0  0  0  0  0  0  0  0  0
   21.6000  -10.9195  -16.4218 N   0  0  0  0  0  0  0  0  0  0  0  0
   21.4456   -8.6876  -15.4790 C   0  0  0  0  0  0  0  0  0  0  0  0
   21.8336   -9.0921  -14.3530 O   0  0  0  0  0  0  0  0  0  0  0  0
   21.5132   -7.2802  -15.7022 N   0  0  0  0  0  0  0  0  0  0  0  0
   21.9234   -6.3394  -14.6745 C   0  0  1  0  0  0  0  0  0  0  0  0
   23.4122   -6.5160  -14.4942 C   0  0  0  0  0  0  0  0  0  0  0  0
   24.2100   -6.1601  -15.6594 C   0  0  0  0  0  0  0  0  0  0  0  0
   24.7605   -7.1539  -16.4304 C   0  0  0  0  0  0  0  0  0  0  0  0
   25.5320   -6.9004  -17.5560 C   0  0  0  0  0  0  0  0  0  0  0  0
   25.7516   -5.5855  -17.9105 C   0  0  0  0  0  0  0  0  0  0  0  0
   25.2050   -4.5837  -17.1453 C   0  0  0  0  0  0  0  0  0  0  0  0
   24.4366   -4.8559  -16.0237 C   0  0  0  0  0  0  0  0  0  0  0  0
   21.5204   -4.9741  -15.0052 C   0  0  0  0  0  0  0  0  0  0  0  0
   20.8593   -4.7293  -16.1948 O   0  0  0  0  0  0  0  0  0  0  0  0
   21.7554   -4.0094  -14.2410 O   0  0  0  0  0  0  0  0  0  0  0  0
  1  2  1  0
  2  3  1  0
  3  5  1  0
  3  4  1  6
  5  6  2  0
  7  8  1  0
  9  8  1  1
  9 11  1  0
 10  5  1  0
 10  9  1  0
 11 12  2  0
 11 13  1  0
 13 14  1  0
 14 22  1  0
 14 15  1  6
 16 15  1  0
 16 17  2  0
 18 17  1  0
 19 18  2  0
 20 21  2  0
 20 19  1  0
 21 16  1  0
 22 24  2  0
 22 23  1  0
M  END
$$$$
