IAA.pdb
     RDKit          3D

 19 18  0  0  1  0  0  0  0  0999 V2000
   23.8586  -15.0591  -15.9937 C   0  0  0  0  0  0  0  0  0  0  0  0
   23.6807  -13.7719  -15.2684 C   0  0  0  0  0  0  0  0  0  0  0  0
   23.3962  -12.5770  -16.0972 C   0  0  2  0  0  0  0  0  0  0  0  0
   24.5427  -12.4286  -17.1007 C   0  0  0  0  0  0  0  0  0  0  0  0
   23.2109  -11.2827  -15.4269 C   0  0  2  0  0  0  0  0  0  0  0  0
   22.2169  -11.3367  -14.3809 N   0  0  0  0  0  0  0  0  0  0  0  0
   23.0193  -10.1209  -16.3207 C   0  0  0  0  0  0  0  0  0  0  0  0
   23.8838   -9.7663  -17.1740 O   0  0  0  0  0  0  0  0  0  0  0  0
   20.1460   -8.3326  -17.6342 C   0  0  0  0  0  0  0  0  0  0  0  0
   21.6007   -8.2627  -17.2730 C   0  0  2  0  0  0  0  0  0  0  0  0
   21.8447   -9.3196  -16.2813 N   0  0  0  0  0  0  0  0  0  0  0  0
   21.9689   -6.9342  -16.6849 C   0  0  0  0  0  0  0  0  0  0  0  0
   21.7709   -5.8647  -17.3115 O   0  0  0  0  0  0  0  0  0  0  0  0
   24.0204   -4.8983  -15.6511 C   0  0  0  0  0  0  0  0  0  0  0  0
   23.0268   -5.6311  -14.7802 C   0  0  2  0  0  0  0  0  0  0  0  0
   22.5527   -6.8489  -15.4005 N   0  0  0  0  0  0  0  0  0  0  0  0
   21.8941   -4.8042  -14.3759 C   0  0  0  0  0  0  0  0  0  0  0  0
   20.7258   -5.1488  -14.6591 O   0  0  0  0  0  0  0  0  0  0  0  0
   22.0791   -3.6252  -13.6735 O   0  0  0  0  0  0  0  0  0  0  0  0
  1  2  1  0
  2  3  1  0
  3  4  1  6
  5  3  1  0
  5  7  1  0
  5  6  1  1
  7  8  2  0
 10  9  1  1
 11  7  1  0
 11 10  1  0
 12 10  1  0
 12 16  1  0
 13 12  2  0
 15 14  1  6
 16 15  1  0
 17 15  1  0
 18 17  2  0
 19 17  1  0
M  END
$$$$
