IAA.pdb
     RDKit          3D

 19 18  0  0  1  0  0  0  0  0999 V2000
   25.6807  -23.2160  -20.0910 C   0  0  0  0  0  0  0  0  0  0  0  0
   26.0677  -23.3384  -18.6593 C   0  0  0  0  0  0  0  0  0  0  0  0
   27.4998  -23.1327  -18.3390 C   0  0  2  0  0  0  0  0  0  0  0  0
   28.3050  -24.1460  -19.1566 C   0  0  0  0  0  0  0  0  0  0  0  0
   27.9303  -23.2369  -16.9382 C   0  0  2  0  0  0  0  0  0  0  0  0
   27.2795  -22.2713  -16.0842 N   0  0  0  0  0  0  0  0  0  0  0  0
   29.3917  -23.2813  -16.7195 C   0  0  0  0  0  0  0  0  0  0  0  0
   30.1307  -22.2610  -16.8376 O   0  0  0  0  0  0  0  0  0  0  0  0
   31.8611  -25.5403  -15.1974 C   0  0  0  0  0  0  0  0  0  0  0  0
   31.5340  -24.5362  -16.2634 C   0  0  2  0  0  0  0  0  0  0  0  0
   30.0686  -24.4796  -16.3601 N   0  0  0  0  0  0  0  0  0  0  0  0
   32.1056  -24.9245  -17.5934 C   0  0  0  0  0  0  0  0  0  0  0  0
   31.5228  -25.7485  -18.3398 O   0  0  0  0  0  0  0  0  0  0  0  0
   35.0239  -23.6368  -19.6574 C   0  0  0  0  0  0  0  0  0  0  0  0
   33.9270  -24.6249  -19.3363 C   0  0  2  0  0  0  0  0  0  0  0  0
   33.3243  -24.3699  -18.0463 N   0  0  0  0  0  0  0  0  0  0  0  0
   34.3618  -26.0159  -19.4169 C   0  0  0  0  0  0  0  0  0  0  0  0
   34.8762  -26.5767  -18.4246 O   0  0  0  0  0  0  0  0  0  0  0  0
   34.2184  -26.7475  -20.5838 O   0  0  0  0  0  0  0  0  0  0  0  0
  1  2  1  0
  2  3  1  0
  3  4  1  6
  5  3  1  0
  5  7  1  0
  5  6  1  1
  7  8  2  0
 10  9  1  1
 11  7  1  0
 11 10  1  0
 12 10  1  0
 12 16  1  0
 13 12  2  0
 15 14  1  1
 16 15  1  0
 17 15  1  0
 18 17  2  0
 19 17  1  0
M  END
$$$$
