IAA.pdb
     RDKit          3D

 19 18  0  0  1  0  0  0  0  0999 V2000
   22.4832  -17.5662  -19.4687 C   0  0  0  0  0  0  0  0  0  0  0  0
   23.2007  -17.8523  -18.1967 C   0  0  0  0  0  0  0  0  0  0  0  0
   22.5544  -18.8127  -17.2717 C   0  0  2  0  0  0  0  0  0  0  0  0
   21.1685  -18.2603  -16.9283 C   0  0  0  0  0  0  0  0  0  0  0  0
   23.2345  -19.1440  -16.0122 C   0  0  2  0  0  0  0  0  0  0  0  0
   24.6171  -19.5119  -16.2081 N   0  0  0  0  0  0  0  0  0  0  0  0
   22.5227  -20.0943  -15.1314 C   0  0  0  0  0  0  0  0  0  0  0  0
   22.4058  -21.3239  -15.4068 O   0  0  0  0  0  0  0  0  0  0  0  0
   20.9174  -19.9459  -11.7595 C   0  0  0  0  0  0  0  0  0  0  0  0
   21.1750  -20.6359  -13.0668 C   0  0  2  0  0  0  0  0  0  0  0  0
   21.9182  -19.6885  -13.9094 N   0  0  0  0  0  0  0  0  0  0  0  0
   19.9019  -21.0225  -13.7567 C   0  0  0  0  0  0  0  0  0  0  0  0
   19.2718  -20.2055  -14.4716 O   0  0  0  0  0  0  0  0  0  0  0  0
   18.0719  -24.2983  -14.2837 C   0  0  0  0  0  0  0  0  0  0  0  0
   18.1386  -22.7905  -14.2150 C   0  0  2  0  0  0  0  0  0  0  0  0
   19.3726  -22.3261  -13.6202 N   0  0  0  0  0  0  0  0  0  0  0  0
   16.9982  -22.1932  -13.5272 C   0  0  0  0  0  0  0  0  0  0  0  0
   17.0771  -21.8903  -12.3165 O   0  0  0  0  0  0  0  0  0  0  0  0
   15.8073  -21.9473  -14.1895 O   0  0  0  0  0  0  0  0  0  0  0  0
  1  2  1  0
  2  3  1  0
  3  4  1  1
  5  3  1  0
  5  7  1  0
  5  6  1  6
  7  8  2  0
 10  9  1  1
 11  7  1  0
 11 10  1  0
 12 10  1  0
 12 16  1  0
 13 12  2  0
 15 14  1  1
 16 15  1  0
 17 15  1  0
 18 17  2  0
 19 17  1  0
M  END
$$$$
