IAA.pdb
     RDKit          3D

 19 18  0  0  1  0  0  0  0  0999 V2000
   24.1130  -14.6098  -17.2102 C   0  0  0  0  0  0  0  0  0  0  0  0
   23.0993  -13.8681  -16.4121 C   0  0  0  0  0  0  0  0  0  0  0  0
   22.9780  -12.4155  -16.6787 C   0  0  2  0  0  0  0  0  0  0  0  0
   24.3399  -11.7787  -16.3899 C   0  0  0  0  0  0  0  0  0  0  0  0
   21.9566  -11.6489  -15.9523 C   0  0  2  0  0  0  0  0  0  0  0  0
   20.6497  -12.2590  -16.0235 N   0  0  0  0  0  0  0  0  0  0  0  0
   21.9142  -10.2007  -16.2461 C   0  0  0  0  0  0  0  0  0  0  0  0
   22.9597   -9.5031  -16.3928 O   0  0  0  0  0  0  0  0  0  0  0  0
   19.2246   -7.6595  -16.8217 C   0  0  0  0  0  0  0  0  0  0  0  0
   20.6637   -8.0434  -16.6388 C   0  0  2  0  0  0  0  0  0  0  0  0
   20.6894   -9.4905  -16.3839 N   0  0  0  0  0  0  0  0  0  0  0  0
   21.2933   -7.3237  -15.4847 C   0  0  0  0  0  0  0  0  0  0  0  0
   21.1997   -7.7615  -14.3120 O   0  0  0  0  0  0  0  0  0  0  0  0
   23.5911   -4.3093  -15.1976 C   0  0  0  0  0  0  0  0  0  0  0  0
   22.6383   -5.3422  -14.6425 C   0  0  2  0  0  0  0  0  0  0  0  0
   22.0142   -6.1247  -15.6867 N   0  0  0  0  0  0  0  0  0  0  0  0
   21.6174   -4.7742  -13.7676 C   0  0  0  0  0  0  0  0  0  0  0  0
   20.4919   -4.4722  -14.2212 O   0  0  0  0  0  0  0  0  0  0  0  0
   21.8638   -4.5555  -12.4226 O   0  0  0  0  0  0  0  0  0  0  0  0
  1  2  1  0
  2  3  1  0
  3  4  1  1
  5  3  1  0
  5  7  1  0
  5  6  1  6
  7  8  2  0
 10  9  1  1
 11  7  1  0
 11 10  1  0
 12 10  1  0
 12 16  1  0
 13 12  2  0
 15 14  1  6
 16 15  1  0
 17 15  1  0
 18 17  2  0
 19 17  1  0
M  END
$$$$
