IAA.pdb
     RDKit          3D

 19 18  0  0  1  0  0  0  0  0999 V2000
   27.6792  -12.4708  -16.3770 C   0  0  0  0  0  0  0  0  0  0  0  0
   26.7631  -11.5063  -15.7097 C   0  0  0  0  0  0  0  0  0  0  0  0
   26.0004  -10.5947  -16.5946 C   0  0  2  0  0  0  0  0  0  0  0  0
   27.0149   -9.7659  -17.3869 C   0  0  0  0  0  0  0  0  0  0  0  0
   25.0347   -9.6686  -15.9875 C   0  0  2  0  0  0  0  0  0  0  0  0
   24.1306  -10.3286  -15.0753 N   0  0  0  0  0  0  0  0  0  0  0  0
   24.3259   -8.7756  -16.9287 C   0  0  0  0  0  0  0  0  0  0  0  0
   24.7728   -8.5058  -18.0814 O   0  0  0  0  0  0  0  0  0  0  0  0
   21.0397   -7.8830  -17.7916 C   0  0  0  0  0  0  0  0  0  0  0  0
   22.3913   -7.2778  -17.5500 C   0  0  2  0  0  0  0  0  0  0  0  0
   23.0880   -8.1567  -16.6002 N   0  0  0  0  0  0  0  0  0  0  0  0
   22.2925   -5.8988  -16.9712 C   0  0  0  0  0  0  0  0  0  0  0  0
   21.6391   -4.9941  -17.5458 O   0  0  0  0  0  0  0  0  0  0  0  0
   23.3491   -3.1820  -16.0916 C   0  0  0  0  0  0  0  0  0  0  0  0
   22.9353   -4.2723  -15.1310 C   0  0  2  0  0  0  0  0  0  0  0  0
   22.9366   -5.5774  -15.7547 N   0  0  0  0  0  0  0  0  0  0  0  0
   21.6439   -4.0239  -14.4978 C   0  0  0  0  0  0  0  0  0  0  0  0
   20.6951   -4.8219  -14.6609 O   0  0  0  0  0  0  0  0  0  0  0  0
   21.4345   -2.9076  -13.7057 O   0  0  0  0  0  0  0  0  0  0  0  0
  1  2  1  0
  2  3  1  0
  3  4  1  1
  5  3  1  0
  5  7  1  0
  5  6  1  6
  7  8  2  0
 10  9  1  1
 11  7  1  0
 11 10  1  0
 12 10  1  0
 12 16  1  0
 13 12  2  0
 15 14  1  6
 16 15  1  0
 17 15  1  0
 18 17  2  0
 19 17  1  0
M  END
$$$$
