CPR.pdb
     RDKit          3D

 25 25  0  0  1  0  0  0  0  0999 V2000
   24.5500  -20.9126   -9.6682 N   0  0  0  0  0  0  0  0  0  0  0  0
   24.6321  -21.1094  -11.0871 C   0  0  1  0  0  0  0  0  0  0  0  0
   23.2431  -21.2160  -11.6844 C   0  0  0  0  0  0  0  0  0  0  0  0
   22.7663  -22.9414  -11.9497 S   0  0  0  0  0  0  0  0  0  0  0  0
   25.4227  -20.0590  -11.7508 C   0  0  0  0  0  0  0  0  0  0  0  0
   25.3290  -18.8958  -11.2867 O   0  0  0  0  0  0  0  0  0  0  0  0
   26.2775  -20.2980  -12.8803 N   0  0  0  0  0  0  0  0  0  0  0  0
   26.4973  -21.5594  -13.5507 C   0  0  0  0  0  0  0  0  0  0  0  0
   27.5292  -21.3091  -14.6148 C   0  0  0  0  0  0  0  0  0  0  0  0
   28.1884  -20.0266  -14.1643 C   0  0  0  0  0  0  0  0  0  0  0  0
   27.0498  -19.2893  -13.5180 C   0  0  1  0  0  0  0  0  0  0  0  0
   26.2324  -18.6617  -14.5965 C   0  0  0  0  0  0  0  0  0  0  0  0
   25.4597  -19.4456  -15.2255 O   0  0  0  0  0  0  0  0  0  0  0  0
   22.5876  -10.9675  -14.7822 N   0  0  0  0  0  0  0  0  0  0  0  0
   21.7660  -12.0380  -15.1996 C   0  0  0  0  0  0  0  0  0  0  0  0
   20.4745  -11.9742  -15.1151 N   0  0  0  0  0  0  0  0  0  0  0  0
   22.3842  -13.2012  -15.7204 N   0  0  0  0  0  0  0  0  0  0  0  0
   23.8118  -13.2991  -15.7539 C   0  0  0  0  0  0  0  0  0  0  0  0
   24.1759  -14.6166  -16.4534 C   0  0  0  0  0  0  0  0  0  0  0  0
   24.9512  -15.4117  -15.4354 C   0  0  0  0  0  0  0  0  0  0  0  0
   25.4296  -16.7458  -15.9270 C   0  0  2  0  0  0  0  0  0  0  0  0
   26.3018  -17.2887  -14.9110 N   0  0  0  0  0  0  0  0  0  0  0  0
   26.1377  -16.7234  -17.2083 C   0  0  0  0  0  0  0  0  0  0  0  0
   27.3921  -16.7174  -17.2435 O   0  0  0  0  0  0  0  0  0  0  0  0
   25.5037  -16.7081  -18.4452 O   0  0  0  0  0  0  0  0  0  0  0  0
  2  1  1  1
  2  3  1  0
  4  3  1  0
  5  2  1  0
  6  5  2  0
  7  5  1  0
  7  8  1  0
  9  8  1  0
 10  9  1  0
 10 11  1  0
 11  7  1  0
 11 12  1  6
 12 22  1  0
 13 12  2  0
 15 16  2  0
 15 14  1  0
 17 15  1  0
 18 17  1  0
 19 18  1  0
 20 19  1  0
 21 22  1  0
 21 20  1  1
 23 21  1  0
 24 23  2  0
 25 23  1  0
M  END
$$$$
