CPR.pdb
     RDKit          3D

 25 25  0  0  1  0  0  0  0  0999 V2000
   28.0996  -23.0912  -15.8177 N   0  0  0  0  0  0  0  0  0  0  0  0
   27.3839  -23.1084  -17.0612 C   0  0  1  0  0  0  0  0  0  0  0  0
   26.6729  -24.4350  -17.2403 C   0  0  0  0  0  0  0  0  0  0  0  0
   25.4732  -24.7280  -15.9177 S   0  0  0  0  0  0  0  0  0  0  0  0
   26.4483  -21.9775  -17.1816 C   0  0  0  0  0  0  0  0  0  0  0  0
   26.0857  -21.4214  -16.1155 O   0  0  0  0  0  0  0  0  0  0  0  0
   25.9419  -21.4913  -18.4349 N   0  0  0  0  0  0  0  0  0  0  0  0
   26.2086  -22.0339  -19.7477 C   0  0  0  0  0  0  0  0  0  0  0  0
   25.5187  -21.1346  -20.7352 C   0  0  0  0  0  0  0  0  0  0  0  0
   25.3055  -19.8596  -19.9535 C   0  0  0  0  0  0  0  0  0  0  0  0
   25.0757  -20.3713  -18.5596 C   0  0  1  0  0  0  0  0  0  0  0  0
   23.6622  -20.8384  -18.4645 C   0  0  0  0  0  0  0  0  0  0  0  0
   23.4424  -22.0114  -18.8920 O   0  0  0  0  0  0  0  0  0  0  0  0
   18.1936  -23.3574  -12.9160 N   0  0  0  0  0  0  0  0  0  0  0  0
   19.4692  -23.7537  -13.3754 C   0  0  0  0  0  0  0  0  0  0  0  0
   19.9865  -24.8934  -13.0397 N   0  0  0  0  0  0  0  0  0  0  0  0
   20.1863  -22.8732  -14.2219 N   0  0  0  0  0  0  0  0  0  0  0  0
   19.6575  -21.5767  -14.5189 C   0  0  0  0  0  0  0  0  0  0  0  0
   19.6847  -21.3964  -16.0436 C   0  0  0  0  0  0  0  0  0  0  0  0
   21.0658  -20.8868  -16.3638 C   0  0  0  0  0  0  0  0  0  0  0  0
   21.2945  -20.5924  -17.8169 C   0  0  2  0  0  0  0  0  0  0  0  0
   22.6248  -20.0413  -17.9378 N   0  0  0  0  0  0  0  0  0  0  0  0
   20.3341  -19.6715  -18.4276 C   0  0  0  0  0  0  0  0  0  0  0  0
   20.6530  -18.4806  -18.6617 O   0  0  0  0  0  0  0  0  0  0  0  0
   19.0387  -20.0263  -18.7857 O   0  0  0  0  0  0  0  0  0  0  0  0
  2  1  1  1
  2  3  1  0
  4  3  1  0
  5  2  1  0
  6  5  2  0
  7  5  1  0
  7  8  1  0
  9  8  1  0
 10  9  1  0
 10 11  1  0
 11  7  1  0
 11 12  1  6
 12 22  1  0
 13 12  2  0
 15 16  2  0
 15 14  1  0
 17 15  1  0
 18 17  1  0
 19 18  1  0
 20 19  1  0
 21 22  1  0
 21 20  1  1
 23 21  1  0
 24 23  2  0
 25 23  1  0
M  END
$$$$
