CPR.pdb
     RDKit          3D

 25 25  0  0  1  0  0  0  0  0999 V2000
   26.2180  -23.2547  -15.0630 N   0  0  0  0  0  0  0  0  0  0  0  0
   25.3268  -22.2080  -14.6520 C   0  0  1  0  0  0  0  0  0  0  0  0
   24.4960  -21.7331  -15.8275 C   0  0  0  0  0  0  0  0  0  0  0  0
   23.2221  -20.5580  -15.3070 S   0  0  0  0  0  0  0  0  0  0  0  0
   24.4747  -22.6132  -13.5213 C   0  0  0  0  0  0  0  0  0  0  0  0
   23.9492  -23.7522  -13.5828 O   0  0  0  0  0  0  0  0  0  0  0  0
   24.2220  -21.7838  -12.3759 N   0  0  0  0  0  0  0  0  0  0  0  0
   24.6472  -20.4158  -12.1843 C   0  0  0  0  0  0  0  0  0  0  0  0
   24.2080  -20.0163  -10.8033 C   0  0  0  0  0  0  0  0  0  0  0  0
   23.9860  -21.3414  -10.1127 C   0  0  0  0  0  0  0  0  0  0  0  0
   23.4902  -22.2097  -11.2342 C   0  0  1  0  0  0  0  0  0  0  0  0
   22.0440  -21.9121  -11.4463 C   0  0  0  0  0  0  0  0  0  0  0  0
   21.7865  -21.0552  -12.3444 O   0  0  0  0  0  0  0  0  0  0  0  0
   18.4711  -25.4575   -6.6633 N   0  0  0  0  0  0  0  0  0  0  0  0
   17.2816  -24.6957   -6.6546 C   0  0  0  0  0  0  0  0  0  0  0  0
   16.6759  -24.3973   -5.5486 N   0  0  0  0  0  0  0  0  0  0  0  0
   16.7519  -24.2555   -7.8923 N   0  0  0  0  0  0  0  0  0  0  0  0
   17.3992  -24.6165   -9.1168 C   0  0  0  0  0  0  0  0  0  0  0  0
   18.6394  -23.7246   -9.2731 C   0  0  0  0  0  0  0  0  0  0  0  0
   19.2343  -24.0929  -10.6073 C   0  0  0  0  0  0  0  0  0  0  0  0
   19.7997  -22.9335  -11.3731 C   0  0  2  0  0  0  0  0  0  0  0  0
   21.0166  -22.5321  -10.7054 N   0  0  0  0  0  0  0  0  0  0  0  0
   18.9139  -21.7745  -11.4983 C   0  0  0  0  0  0  0  0  0  0  0  0
   19.0641  -20.7740  -10.7557 O   0  0  0  0  0  0  0  0  0  0  0  0
   17.8728  -21.6889  -12.4153 O   0  0  0  0  0  0  0  0  0  0  0  0
  2  1  1  6
  2  3  1  0
  4  3  1  0
  5  2  1  0
  6  5  2  0
  7  5  1  0
  7  8  1  0
  9  8  1  0
 10  9  1  0
 10 11  1  0
 11  7  1  0
 11 12  1  6
 12 22  1  0
 13 12  2  0
 15 16  2  0
 15 14  1  0
 17 15  1  0
 18 17  1  0
 19 18  1  0
 20 19  1  0
 21 22  1  0
 21 20  1  1
 23 21  1  0
 24 23  2  0
 25 23  1  0
M  END
$$$$
