CPR.pdb
     RDKit          3D

 25 25  0  0  1  0  0  0  0  0999 V2000
   25.8118  -20.5274   -8.7758 N   0  0  0  0  0  0  0  0  0  0  0  0
   25.3563  -20.9065  -10.0825 C   0  0  1  0  0  0  0  0  0  0  0  0
   23.8473  -20.7915  -10.1671 C   0  0  0  0  0  0  0  0  0  0  0  0
   23.0317  -21.8779   -8.9716 S   0  0  0  0  0  0  0  0  0  0  0  0
   26.0143  -20.1324  -11.1486 C   0  0  0  0  0  0  0  0  0  0  0  0
   26.2863  -18.9324  -10.8970 O   0  0  0  0  0  0  0  0  0  0  0  0
   26.3520  -20.6744  -12.4354 N   0  0  0  0  0  0  0  0  0  0  0  0
   26.0035  -21.9811  -12.9451 C   0  0  0  0  0  0  0  0  0  0  0  0
   26.6496  -22.1040  -14.2969 C   0  0  0  0  0  0  0  0  0  0  0  0
   27.7276  -21.0462  -14.2638 C   0  0  0  0  0  0  0  0  0  0  0  0
   27.0997  -19.9731  -13.4200 C   0  0  1  0  0  0  0  0  0  0  0  0
   26.1606  -19.1969  -14.2806 C   0  0  0  0  0  0  0  0  0  0  0  0
   25.0549  -19.7627  -14.5347 O   0  0  0  0  0  0  0  0  0  0  0  0
   21.0483  -13.7608  -14.4986 N   0  0  0  0  0  0  0  0  0  0  0  0
   21.3663  -13.5762  -15.8625 C   0  0  0  0  0  0  0  0  0  0  0  0
   20.5023  -13.0971  -16.7011 N   0  0  0  0  0  0  0  0  0  0  0  0
   22.6642  -13.9278  -16.3075 N   0  0  0  0  0  0  0  0  0  0  0  0
   23.5397  -14.6660  -15.4487 C   0  0  0  0  0  0  0  0  0  0  0  0
   24.8891  -14.8117  -16.1669 C   0  0  0  0  0  0  0  0  0  0  0  0
   25.7107  -15.7277  -15.2976 C   0  0  0  0  0  0  0  0  0  0  0  0
   25.4634  -17.1886  -15.5321 C   0  0  2  0  0  0  0  0  0  0  0  0
   26.4655  -17.9170  -14.7884 N   0  0  0  0  0  0  0  0  0  0  0  0
   25.4999  -17.6125  -16.9329 C   0  0  0  0  0  0  0  0  0  0  0  0
   26.5917  -17.8845  -17.4885 O   0  0  0  0  0  0  0  0  0  0  0  0
   24.3711  -17.7446  -17.7334 O   0  0  0  0  0  0  0  0  0  0  0  0
  2  1  1  1
  2  3  1  0
  4  3  1  0
  5  2  1  0
  6  5  2  0
  7  5  1  0
  7  8  1  0
  9  8  1  0
 10  9  1  0
 10 11  1  0
 11  7  1  0
 11 12  1  6
 12 22  1  0
 13 12  2  0
 15 16  2  0
 15 14  1  0
 17 15  1  0
 18 17  1  0
 19 18  1  0
 20 19  1  0
 21 22  1  0
 21 20  1  6
 23 21  1  0
 24 23  2  0
 25 23  1  0
M  END
$$$$
