CPR.pdb
     RDKit          3D

 25 25  0  0  1  0  0  0  0  0999 V2000
   25.0052  -19.4807   -8.5729 N   0  0  0  0  0  0  0  0  0  0  0  0
   25.1171  -20.4603   -9.6153 C   0  0  1  0  0  0  0  0  0  0  0  0
   23.8928  -21.3538   -9.6307 C   0  0  0  0  0  0  0  0  0  0  0  0
   23.6434  -22.1640   -8.0319 S   0  0  0  0  0  0  0  0  0  0  0  0
   25.3509  -19.8472  -10.9337 C   0  0  0  0  0  0  0  0  0  0  0  0
   24.7442  -18.7754  -11.1798 O   0  0  0  0  0  0  0  0  0  0  0  0
   26.2218  -20.4062  -11.9300 N   0  0  0  0  0  0  0  0  0  0  0  0
   26.9508  -21.6513  -11.8453 C   0  0  0  0  0  0  0  0  0  0  0  0
   27.7759  -21.7549  -13.0976 C   0  0  0  0  0  0  0  0  0  0  0  0
   27.8339  -20.3294  -13.5940 C   0  0  0  0  0  0  0  0  0  0  0  0
   26.4932  -19.7903  -13.1819 C   0  0  1  0  0  0  0  0  0  0  0  0
   25.4827  -20.2503  -14.1781 C   0  0  0  0  0  0  0  0  0  0  0  0
   24.7634  -21.2298  -13.8172 O   0  0  0  0  0  0  0  0  0  0  0  0
   19.0945  -17.0442  -15.8299 N   0  0  0  0  0  0  0  0  0  0  0  0
   18.7955  -18.4091  -16.0371 C   0  0  0  0  0  0  0  0  0  0  0  0
   17.7705  -18.7797  -16.7380 N   0  0  0  0  0  0  0  0  0  0  0  0
   19.6462  -19.3827  -15.4585 N   0  0  0  0  0  0  0  0  0  0  0  0
   20.7765  -18.9744  -14.6810 C   0  0  0  0  0  0  0  0  0  0  0  0
   21.8112  -18.3674  -15.6395 C   0  0  0  0  0  0  0  0  0  0  0  0
   23.1547  -18.7614  -15.0833 C   0  0  0  0  0  0  0  0  0  0  0  0
   24.0058  -19.5568  -16.0284 C   0  0  2  0  0  0  0  0  0  0  0  0
   25.3240  -19.6484  -15.4436 N   0  0  0  0  0  0  0  0  0  0  0  0
   24.1162  -19.0103  -17.3822 C   0  0  0  0  0  0  0  0  0  0  0  0
   25.0946  -18.2926  -17.7023 O   0  0  0  0  0  0  0  0  0  0  0  0
   23.1823  -19.2329  -18.3874 O   0  0  0  0  0  0  0  0  0  0  0  0
  2  1  1  1
  2  3  1  0
  4  3  1  0
  5  2  1  0
  6  5  2  0
  7  5  1  0
  7  8  1  0
  9  8  1  0
 10  9  1  0
 10 11  1  0
 11  7  1  0
 11 12  1  6
 12 22  1  0
 13 12  2  0
 15 16  2  0
 15 14  1  0
 17 15  1  0
 18 17  1  0
 19 18  1  0
 20 19  1  0
 21 22  1  0
 21 20  1  1
 23 21  1  0
 24 23  2  0
 25 23  1  0
M  END
$$$$
