CPR.pdb
     RDKit          3D

 25 25  0  0  1  0  0  0  0  0999 V2000
   25.3285  -20.7484  -18.8713 N   0  0  0  0  0  0  0  0  0  0  0  0
   25.4512  -19.7476  -17.8506 C   0  0  1  0  0  0  0  0  0  0  0  0
   24.1561  -18.9714  -17.7168 C   0  0  0  0  0  0  0  0  0  0  0  0
   24.3073  -17.6329  -16.5085 S   0  0  0  0  0  0  0  0  0  0  0  0
   25.8716  -20.3169  -16.5592 C   0  0  0  0  0  0  0  0  0  0  0  0
   25.3083  -21.3781  -16.1934 O   0  0  0  0  0  0  0  0  0  0  0  0
   26.8746  -19.7275  -15.7164 N   0  0  0  0  0  0  0  0  0  0  0  0
   27.5948  -18.4974  -15.9548 C   0  0  0  0  0  0  0  0  0  0  0  0
   28.5838  -18.3513  -14.8322 C   0  0  0  0  0  0  0  0  0  0  0  0
   28.6979  -19.7548  -14.2851 C   0  0  0  0  0  0  0  0  0  0  0  0
   27.3094  -20.2926  -14.4868 C   0  0  1  0  0  0  0  0  0  0  0  0
   26.4477  -19.7762  -13.3841 C   0  0  0  0  0  0  0  0  0  0  0  0
   25.9147  -18.6443  -13.5888 O   0  0  0  0  0  0  0  0  0  0  0  0
   19.6355  -20.4497  -14.3967 N   0  0  0  0  0  0  0  0  0  0  0  0
   19.3505  -20.6018  -13.0215 C   0  0  0  0  0  0  0  0  0  0  0  0
   18.1327  -20.6895  -12.5874 N   0  0  0  0  0  0  0  0  0  0  0  0
   20.4326  -20.6578  -12.1093 N   0  0  0  0  0  0  0  0  0  0  0  0
   21.7666  -20.4099  -12.5650 C   0  0  0  0  0  0  0  0  0  0  0  0
   22.6466  -21.5792  -12.1001 C   0  0  0  0  0  0  0  0  0  0  0  0
   24.0308  -21.2670  -12.6063 C   0  0  0  0  0  0  0  0  0  0  0  0
   24.8997  -20.5411  -11.6222 C   0  0  2  0  0  0  0  0  0  0  0  0
   26.2295  -20.4856  -12.1849 N   0  0  0  0  0  0  0  0  0  0  0  0
   24.9660  -21.1376  -10.2868 C   0  0  0  0  0  0  0  0  0  0  0  0
   24.3298  -20.6323   -9.3304 O   0  0  0  0  0  0  0  0  0  0  0  0
   25.7104  -22.2705   -9.9790 O   0  0  0  0  0  0  0  0  0  0  0  0
  2  1  1  6
  2  3  1  0
  4  3  1  0
  5  2  1  0
  6  5  2  0
  7  5  1  0
  7  8  1  0
  9  8  1  0
 10  9  1  0
 10 11  1  0
 11  7  1  0
 11 12  1  1
 12 22  1  0
 13 12  2  0
 15 16  2  0
 15 14  1  0
 17 15  1  0
 18 17  1  0
 19 18  1  0
 20 19  1  0
 21 22  1  0
 21 20  1  6
 23 21  1  0
 24 23  2  0
 25 23  1  0
M  END
$$$$
