CPR.pdb
     RDKit          3D

 25 25  0  0  1  0  0  0  0  0999 V2000
   21.3452  -17.2505  -17.0285 N   0  0  0  0  0  0  0  0  0  0  0  0
   22.3314  -17.3718  -15.9934 C   0  0  1  0  0  0  0  0  0  0  0  0
   21.8318  -18.2906  -14.8963 C   0  0  0  0  0  0  0  0  0  0  0  0
   20.6086  -17.4667  -13.8476 S   0  0  0  0  0  0  0  0  0  0  0  0
   23.6347  -17.8172  -16.5146 C   0  0  0  0  0  0  0  0  0  0  0  0
   23.6185  -18.6167  -17.4830 O   0  0  0  0  0  0  0  0  0  0  0  0
   24.8967  -17.3891  -15.9782 N   0  0  0  0  0  0  0  0  0  0  0  0
   25.1069  -16.5163  -14.8455 C   0  0  0  0  0  0  0  0  0  0  0  0
   26.5912  -16.3082  -14.7300 C   0  0  0  0  0  0  0  0  0  0  0  0
   27.1025  -16.6866  -16.1002 C   0  0  0  0  0  0  0  0  0  0  0  0
   26.1569  -17.7819  -16.5054 C   0  0  1  0  0  0  0  0  0  0  0  0
   26.5920  -19.0413  -15.8349 C   0  0  0  0  0  0  0  0  0  0  0  0
   26.3075  -19.1332  -14.6029 O   0  0  0  0  0  0  0  0  0  0  0  0
   21.8625  -24.8957  -15.1908 N   0  0  0  0  0  0  0  0  0  0  0  0
   22.9853  -25.6458  -14.7761 C   0  0  0  0  0  0  0  0  0  0  0  0
   22.8622  -26.8486  -14.3098 N   0  0  0  0  0  0  0  0  0  0  0  0
   24.2684  -25.0548  -14.8791 N   0  0  0  0  0  0  0  0  0  0  0  0
   24.3992  -23.7012  -15.3258 C   0  0  0  0  0  0  0  0  0  0  0  0
   25.8974  -23.3712  -15.3919 C   0  0  0  0  0  0  0  0  0  0  0  0
   25.9730  -21.9276  -15.8159 C   0  0  0  0  0  0  0  0  0  0  0  0
   27.3676  -21.3821  -15.9058 C   0  0  2  0  0  0  0  0  0  0  0  0
   27.2769  -20.0727  -16.5102 N   0  0  0  0  0  0  0  0  0  0  0  0
   28.3118  -22.2006  -16.6686 C   0  0  0  0  0  0  0  0  0  0  0  0
   28.4653  -22.0160  -17.9004 O   0  0  0  0  0  0  0  0  0  0  0  0
   29.0876  -23.2115  -16.1132 O   0  0  0  0  0  0  0  0  0  0  0  0
  2  1  1  6
  2  3  1  0
  4  3  1  0
  5  2  1  0
  6  5  2  0
  7  5  1  0
  7  8  1  0
  9  8  1  0
 10  9  1  0
 10 11  1  0
 11  7  1  0
 11 12  1  1
 12 22  1  0
 13 12  2  0
 15 16  2  0
 15 14  1  0
 17 15  1  0
 18 17  1  0
 19 18  1  0
 20 19  1  0
 21 22  1  0
 21 20  1  6
 23 21  1  0
 24 23  2  0
 25 23  1  0
M  END
$$$$
