CPR.pdb
     RDKit          3D

 25 25  0  0  1  0  0  0  0  0999 V2000
   26.8735  -19.4924  -17.8368 N   0  0  0  0  0  0  0  0  0  0  0  0
   27.4616  -19.0846  -16.5933 C   0  0  1  0  0  0  0  0  0  0  0  0
   27.0600  -17.6607  -16.2636 C   0  0  0  0  0  0  0  0  0  0  0  0
   25.5166  -17.1996  -17.0881 S   0  0  0  0  0  0  0  0  0  0  0  0
   27.1304  -20.0044  -15.4918 C   0  0  0  0  0  0  0  0  0  0  0  0
   26.1104  -20.7228  -15.6360 O   0  0  0  0  0  0  0  0  0  0  0  0
   27.9033  -20.1156  -14.2860 N   0  0  0  0  0  0  0  0  0  0  0  0
   29.0058  -19.2733  -13.8812 C   0  0  0  0  0  0  0  0  0  0  0  0
   29.5300  -19.8383  -12.5906 C   0  0  0  0  0  0  0  0  0  0  0  0
   29.0019  -21.2537  -12.5914 C   0  0  0  0  0  0  0  0  0  0  0  0
   27.6793  -21.1032  -13.2886 C   0  0  1  0  0  0  0  0  0  0  0  0
   26.6916  -20.5799  -12.3009 C   0  0  0  0  0  0  0  0  0  0  0  0
   26.7377  -19.3310  -12.0884 O   0  0  0  0  0  0  0  0  0  0  0  0
   19.6156  -19.6088  -13.1370 N   0  0  0  0  0  0  0  0  0  0  0  0
   19.4778  -20.8946  -12.5687 C   0  0  0  0  0  0  0  0  0  0  0  0
   18.4894  -21.6719  -12.8821 N   0  0  0  0  0  0  0  0  0  0  0  0
   20.4514  -21.3292  -11.6361 N   0  0  0  0  0  0  0  0  0  0  0  0
   21.5126  -20.4508  -11.2475 C   0  0  0  0  0  0  0  0  0  0  0  0
   22.3274  -21.1544  -10.1526 C   0  0  0  0  0  0  0  0  0  0  0  0
   23.5445  -21.7057  -10.8485 C   0  0  0  0  0  0  0  0  0  0  0  0
   24.7428  -20.8043  -10.8050 C   0  0  2  0  0  0  0  0  0  0  0  0
   25.7607  -21.4050  -11.6363 N   0  0  0  0  0  0  0  0  0  0  0  0
   25.2933  -20.5589   -9.4707 C   0  0  0  0  0  0  0  0  0  0  0  0
   26.0805  -21.3824   -8.9444 O   0  0  0  0  0  0  0  0  0  0  0  0
   25.0013  -19.4360   -8.7052 O   0  0  0  0  0  0  0  0  0  0  0  0
  2  1  1  6
  2  3  1  0
  4  3  1  0
  5  2  1  0
  6  5  2  0
  7  5  1  0
  7  8  1  0
  9  8  1  0
 10  9  1  0
 10 11  1  0
 11  7  1  0
 11 12  1  1
 12 22  1  0
 13 12  2  0
 15 16  2  0
 15 14  1  0
 17 15  1  0
 18 17  1  0
 19 18  1  0
 20 19  1  0
 21 22  1  0
 21 20  1  1
 23 21  1  0
 24 23  2  0
 25 23  1  0
M  END
$$$$
