WIS.pdb
     RDKit          3D

 29 30  0  0  1  0  0  0  0  0999 V2000
    5.6310  -18.1138   24.2298 N   0  0  0  0  0  0  0  0  0  0  0  0
    6.2363  -16.8035   24.1140 C   0  0  1  0  0  0  0  0  0  0  0  0
    6.9764  -16.5033   25.4151 C   0  0  0  0  0  0  0  0  0  0  0  0
    6.4891  -15.2620   26.0532 C   0  0  0  0  0  0  0  0  0  0  0  0
    5.2366  -14.9955   26.5401 C   0  0  0  0  0  0  0  0  0  0  0  0
    5.2524  -13.7424   27.0293 N   0  0  0  0  0  0  0  0  0  0  0  0
    6.4905  -13.1991   26.8661 C   0  0  0  0  0  0  0  0  0  0  0  0
    7.0032  -11.9542   27.2010 C   0  0  0  0  0  0  0  0  0  0  0  0
    8.3261  -11.6544   26.9163 C   0  0  0  0  0  0  0  0  0  0  0  0
    9.0914  -12.6251   26.3004 C   0  0  0  0  0  0  0  0  0  0  0  0
    8.6079  -13.8566   25.9618 C   0  0  0  0  0  0  0  0  0  0  0  0
    7.2668  -14.1428   26.2574 C   0  0  0  0  0  0  0  0  0  0  0  0
    7.2103  -16.8345   23.0070 C   0  0  0  0  0  0  0  0  0  0  0  0
    7.6317  -17.9472   22.6006 O   0  0  0  0  0  0  0  0  0  0  0  0
    7.2992  -12.4232   19.6751 C   0  0  0  0  0  0  0  0  0  0  0  0
    7.1677  -13.9223   20.0355 C   0  0  0  0  0  0  0  0  0  0  0  0
    8.5244  -14.3853   20.4786 C   0  0  2  0  0  0  0  0  0  0  0  0
    9.4131  -14.3522   19.2513 C   0  0  0  0  0  0  0  0  0  0  0  0
    8.5595  -15.7261   21.1642 C   0  0  2  0  0  0  0  0  0  0  0  0
    7.7028  -15.6645   22.3691 N   0  0  0  0  0  0  0  0  0  0  0  0
    9.9041  -16.2040   21.5297 C   0  0  0  0  0  0  0  0  0  0  0  0
   10.6098  -15.5848   22.4107 O   0  0  0  0  0  0  0  0  0  0  0  0
   11.4641  -19.6032   20.0113 O   0  0  0  0  0  0  0  0  0  0  0  0
   12.0400  -19.2872   21.2454 C   0  0  0  0  0  0  0  0  0  0  0  0
   11.8578  -17.7988   21.4510 C   0  0  2  0  0  0  0  0  0  0  0  0
   10.5609  -17.3434   20.9989 N   0  0  0  0  0  0  0  0  0  0  0  0
   12.9151  -17.0303   20.8080 C   0  0  0  0  0  0  0  0  0  0  0  0
   14.1225  -17.1134   21.1624 O   0  0  0  0  0  0  0  0  0  0  0  0
   12.6206  -16.1692   19.7680 O   0  0  0  0  0  0  0  0  0  0  0  0
  2  1  1  1
  2 13  1  0
  3  2  1  0
  4  3  1  0
  4 12  1  0
  5  6  1  0
  5  4  2  0
  6  7  1  0
  7  8  1  0
  7 12  2  0
  8  9  2  0
  9 10  1  0
 11 10  2  0
 12 11  1  0
 13 14  2  0
 16 15  1  0
 17 16  1  0
 17 19  1  0
 17 18  1  6
 19 21  1  0
 19 20  1  1
 20 13  1  0
 21 22  2  0
 23 24  1  0
 25 24  1  6
 25 27  1  0
 26 21  1  0
 26 25  1  0
 27 28  2  0
 27 29  1  0
M  END
$$$$
