WIS.pdb
     RDKit          3D

 29 30  0  0  1  0  0  0  0  0999 V2000
    6.3705  -17.1455   25.2700 N   0  0  0  0  0  0  0  0  0  0  0  0
    7.0878  -15.9971   24.7569 C   0  0  1  0  0  0  0  0  0  0  0  0
    8.3341  -15.7911   25.6143 C   0  0  0  0  0  0  0  0  0  0  0  0
    8.0772  -14.8824   26.7518 C   0  0  0  0  0  0  0  0  0  0  0  0
    8.4088  -15.0600   28.0692 C   0  0  0  0  0  0  0  0  0  0  0  0
    7.9782  -13.9780   28.7426 N   0  0  0  0  0  0  0  0  0  0  0  0
    7.3767  -13.1091   27.8837 C   0  0  0  0  0  0  0  0  0  0  0  0
    6.7818  -11.8726   28.0882 C   0  0  0  0  0  0  0  0  0  0  0  0
    6.2347  -11.1852   27.0162 C   0  0  0  0  0  0  0  0  0  0  0  0
    6.3062  -11.7710   25.7675 C   0  0  0  0  0  0  0  0  0  0  0  0
    6.8867  -12.9865   25.5430 C   0  0  0  0  0  0  0  0  0  0  0  0
    7.4354  -13.6681   26.6395 C   0  0  0  0  0  0  0  0  0  0  0  0
    7.5037  -16.2861   23.3718 C   0  0  0  0  0  0  0  0  0  0  0  0
    7.4797  -17.4762   22.9668 O   0  0  0  0  0  0  0  0  0  0  0  0
    7.4748  -12.0397   19.9650 C   0  0  0  0  0  0  0  0  0  0  0  0
    7.0799  -13.4863   20.3468 C   0  0  0  0  0  0  0  0  0  0  0  0
    8.3295  -14.3136   20.2737 C   0  0  2  0  0  0  0  0  0  0  0  0
    8.5983  -14.5590   18.8024 C   0  0  0  0  0  0  0  0  0  0  0  0
    8.3049  -15.5958   21.0639 C   0  0  2  0  0  0  0  0  0  0  0  0
    7.9341  -15.2834   22.4620 N   0  0  0  0  0  0  0  0  0  0  0  0
    9.5596  -16.3672   21.0390 C   0  0  0  0  0  0  0  0  0  0  0  0
   10.6101  -15.9423   21.6503 O   0  0  0  0  0  0  0  0  0  0  0  0
    9.7783  -20.0552   19.4490 O   0  0  0  0  0  0  0  0  0  0  0  0
   10.8323  -19.8195   20.3368 C   0  0  0  0  0  0  0  0  0  0  0  0
   11.0265  -18.3200   20.4056 C   0  0  2  0  0  0  0  0  0  0  0  0
    9.7668  -17.6082   20.3847 N   0  0  0  0  0  0  0  0  0  0  0  0
   11.8965  -17.8377   19.3414 C   0  0  0  0  0  0  0  0  0  0  0  0
   11.5052  -17.0162   18.4682 O   0  0  0  0  0  0  0  0  0  0  0  0
   13.2046  -18.2749   19.2552 O   0  0  0  0  0  0  0  0  0  0  0  0
  2  1  1  1
  2 13  1  0
  3  2  1  0
  4  3  1  0
  4 12  1  0
  5  6  1  0
  5  4  2  0
  6  7  1  0
  7  8  1  0
  7 12  2  0
  8  9  2  0
  9 10  1  0
 11 10  2  0
 12 11  1  0
 13 14  2  0
 16 15  1  0
 17 16  1  0
 17 19  1  0
 17 18  1  6
 19 21  1  0
 19 20  1  1
 20 13  1  0
 21 22  2  0
 23 24  1  0
 25 24  1  6
 25 27  1  0
 26 21  1  0
 26 25  1  0
 27 28  2  0
 27 29  1  0
M  END
$$$$
