WIS.pdb
     RDKit          3D

 29 30  0  0  1  0  0  0  0  0999 V2000
    5.9497  -17.8445   24.6538 N   0  0  0  0  0  0  0  0  0  0  0  0
    6.6608  -16.5965   24.4711 C   0  0  1  0  0  0  0  0  0  0  0  0
    7.6812  -16.4595   25.5983 C   0  0  0  0  0  0  0  0  0  0  0  0
    7.2277  -15.5150   26.6413 C   0  0  0  0  0  0  0  0  0  0  0  0
    6.6189  -15.8000   27.8351 C   0  0  0  0  0  0  0  0  0  0  0  0
    6.3872  -14.6308   28.4587 N   0  0  0  0  0  0  0  0  0  0  0  0
    6.8351  -13.6006   27.6889 C   0  0  0  0  0  0  0  0  0  0  0  0
    6.8265  -12.2278   27.8889 C   0  0  0  0  0  0  0  0  0  0  0  0
    7.3590  -11.3874   26.9239 C   0  0  0  0  0  0  0  0  0  0  0  0
    7.8850  -11.9626   25.7838 C   0  0  0  0  0  0  0  0  0  0  0  0
    7.9040  -13.3107   25.5659 C   0  0  0  0  0  0  0  0  0  0  0  0
    7.3609  -14.1462   26.5532 C   0  0  0  0  0  0  0  0  0  0  0  0
    7.3769  -16.6505   23.1829 C   0  0  0  0  0  0  0  0  0  0  0  0
    7.6475  -17.7732   22.6857 O   0  0  0  0  0  0  0  0  0  0  0  0
    7.3000  -12.1257   19.9688 C   0  0  0  0  0  0  0  0  0  0  0  0
    7.0917  -13.6197   20.3134 C   0  0  0  0  0  0  0  0  0  0  0  0
    8.4540  -14.2147   20.5171 C   0  0  2  0  0  0  0  0  0  0  0  0
    9.1292  -14.2198   19.1603 C   0  0  0  0  0  0  0  0  0  0  0  0
    8.4768  -15.5752   21.1634 C   0  0  2  0  0  0  0  0  0  0  0  0
    7.7813  -15.4920   22.4668 N   0  0  0  0  0  0  0  0  0  0  0  0
    9.8184  -16.1549   21.3479 C   0  0  0  0  0  0  0  0  0  0  0  0
   10.6518  -15.6420   22.1847 O   0  0  0  0  0  0  0  0  0  0  0  0
   10.8825  -19.4474   19.4301 O   0  0  0  0  0  0  0  0  0  0  0  0
   11.8114  -19.2423   20.4546 C   0  0  0  0  0  0  0  0  0  0  0  0
   11.6768  -17.7996   20.8922 C   0  0  2  0  0  0  0  0  0  0  0  0
   10.3402  -17.2894   20.6757 N   0  0  0  0  0  0  0  0  0  0  0  0
   12.6564  -16.9423   20.2385 C   0  0  0  0  0  0  0  0  0  0  0  0
   12.3234  -15.9885   19.4836 O   0  0  0  0  0  0  0  0  0  0  0  0
   14.0087  -17.1526   20.4302 O   0  0  0  0  0  0  0  0  0  0  0  0
  2  1  1  1
  2 13  1  0
  3  2  1  0
  4  3  1  0
  4 12  1  0
  5  6  1  0
  5  4  2  0
  6  7  1  0
  7  8  1  0
  7 12  2  0
  8  9  2  0
  9 10  1  0
 11 10  2  0
 12 11  1  0
 13 14  2  0
 16 15  1  0
 17 16  1  0
 17 19  1  0
 17 18  1  6
 19 21  1  0
 19 20  1  1
 20 13  1  0
 21 22  2  0
 23 24  1  0
 25 24  1  6
 25 27  1  0
 26 21  1  0
 26 25  1  0
 27 28  2  0
 27 29  1  0
M  END
$$$$
