WIS.pdb
     RDKit          3D

 29 30  0  0  1  0  0  0  0  0999 V2000
    6.0031  -18.3241   24.6365 N   0  0  0  0  0  0  0  0  0  0  0  0
    6.3826  -16.9417   24.4324 C   0  0  1  0  0  0  0  0  0  0  0  0
    7.0382  -16.4329   25.7138 C   0  0  0  0  0  0  0  0  0  0  0  0
    6.4464  -15.1563   26.1670 C   0  0  0  0  0  0  0  0  0  0  0  0
    5.1290  -14.8750   26.4166 C   0  0  0  0  0  0  0  0  0  0  0  0
    5.0581  -13.5894   26.8065 N   0  0  0  0  0  0  0  0  0  0  0  0
    6.3041  -13.0397   26.8123 C   0  0  0  0  0  0  0  0  0  0  0  0
    6.7490  -11.7657   27.1341 C   0  0  0  0  0  0  0  0  0  0  0  0
    8.0998  -11.4663   27.0528 C   0  0  0  0  0  0  0  0  0  0  0  0
    8.9611  -12.4670   26.6476 C   0  0  0  0  0  0  0  0  0  0  0  0
    8.5455  -13.7276   26.3260 C   0  0  0  0  0  0  0  0  0  0  0  0
    7.1749  -14.0128   26.4140 C   0  0  0  0  0  0  0  0  0  0  0  0
    7.3679  -16.8842   23.3366 C   0  0  0  0  0  0  0  0  0  0  0  0
    8.0297  -17.9170   23.0608 O   0  0  0  0  0  0  0  0  0  0  0  0
    7.2136  -12.4747   19.8506 C   0  0  0  0  0  0  0  0  0  0  0  0
    7.1227  -13.9574   20.2836 C   0  0  0  0  0  0  0  0  0  0  0  0
    8.4886  -14.3582   20.7580 C   0  0  2  0  0  0  0  0  0  0  0  0
    9.4037  -14.2793   19.5524 C   0  0  0  0  0  0  0  0  0  0  0  0
    8.5700  -15.6983   21.4410 C   0  0  2  0  0  0  0  0  0  0  0  0
    7.6122  -15.7140   22.5688 N   0  0  0  0  0  0  0  0  0  0  0  0
    9.9120  -16.0737   21.9185 C   0  0  0  0  0  0  0  0  0  0  0  0
   10.5004  -15.3947   22.8407 O   0  0  0  0  0  0  0  0  0  0  0  0
   11.5873  -19.5471   20.9263 O   0  0  0  0  0  0  0  0  0  0  0  0
   12.2143  -18.9995   22.0494 C   0  0  0  0  0  0  0  0  0  0  0  0
   11.9894  -17.5036   21.9969 C   0  0  2  0  0  0  0  0  0  0  0  0
   10.6878  -17.1692   21.4608 N   0  0  0  0  0  0  0  0  0  0  0  0
   13.0353  -16.8254   21.2431 C   0  0  0  0  0  0  0  0  0  0  0  0
   14.2488  -16.8658   21.5839 O   0  0  0  0  0  0  0  0  0  0  0  0
   12.7226  -16.1024   20.1077 O   0  0  0  0  0  0  0  0  0  0  0  0
  2  1  1  1
  2 13  1  0
  3  2  1  0
  4  3  1  0
  4 12  1  0
  5  6  1  0
  5  4  2  0
  6  7  1  0
  7  8  1  0
  7 12  2  0
  8  9  2  0
  9 10  1  0
 11 10  2  0
 12 11  1  0
 13 14  2  0
 16 15  1  0
 17 16  1  0
 17 19  1  0
 17 18  1  6
 19 21  1  0
 19 20  1  1
 20 13  1  0
 21 22  2  0
 23 24  1  0
 25 24  1  6
 25 27  1  0
 26 21  1  0
 26 25  1  0
 27 28  2  0
 27 29  1  0
M  END
$$$$
