WIS.pdb
     RDKit          3D

 29 30  0  0  1  0  0  0  0  0999 V2000
    6.5816  -17.1108   25.5367 N   0  0  0  0  0  0  0  0  0  0  0  0
    7.2051  -15.9573   24.9225 C   0  0  1  0  0  0  0  0  0  0  0  0
    8.4848  -15.6404   25.6923 C   0  0  0  0  0  0  0  0  0  0  0  0
    8.2424  -14.6895   26.7980 C   0  0  0  0  0  0  0  0  0  0  0  0
    8.5296  -14.8466   28.1283 C   0  0  0  0  0  0  0  0  0  0  0  0
    8.1346  -13.7271   28.7610 N   0  0  0  0  0  0  0  0  0  0  0  0
    7.5995  -12.8541   27.8631 C   0  0  0  0  0  0  0  0  0  0  0  0
    7.0605  -11.5853   28.0186 C   0  0  0  0  0  0  0  0  0  0  0  0
    6.5764  -10.9020   26.9141 C   0  0  0  0  0  0  0  0  0  0  0  0
    6.6526  -11.5246   25.6836 C   0  0  0  0  0  0  0  0  0  0  0  0
    7.1787  -12.7724   25.5073 C   0  0  0  0  0  0  0  0  0  0  0  0
    7.6639  -13.4492   26.6361 C   0  0  0  0  0  0  0  0  0  0  0  0
    7.5571  -16.3008   23.5321 C   0  0  0  0  0  0  0  0  0  0  0  0
    7.4622  -17.4982   23.1604 O   0  0  0  0  0  0  0  0  0  0  0  0
    7.4428  -12.2820   19.7962 C   0  0  0  0  0  0  0  0  0  0  0  0
    7.1080  -13.6705   20.3913 C   0  0  0  0  0  0  0  0  0  0  0  0
    8.3695  -14.4815   20.3436 C   0  0  2  0  0  0  0  0  0  0  0  0
    8.6220  -14.8000   18.8835 C   0  0  0  0  0  0  0  0  0  0  0  0
    8.3761  -15.7205   21.2004 C   0  0  2  0  0  0  0  0  0  0  0  0
    8.0017  -15.3433   22.5813 N   0  0  0  0  0  0  0  0  0  0  0  0
    9.6480  -16.4635   21.2115 C   0  0  0  0  0  0  0  0  0  0  0  0
   10.6944  -15.9758   21.7815 O   0  0  0  0  0  0  0  0  0  0  0  0
   10.0220  -20.1460   19.5794 O   0  0  0  0  0  0  0  0  0  0  0  0
   10.9719  -19.9367   20.5835 C   0  0  0  0  0  0  0  0  0  0  0  0
   11.1407  -18.4396   20.7283 C   0  0  2  0  0  0  0  0  0  0  0  0
    9.8774  -17.7399   20.6375 N   0  0  0  0  0  0  0  0  0  0  0  0
   12.0849  -17.9050   19.7564 C   0  0  0  0  0  0  0  0  0  0  0  0
   13.2955  -18.2569   19.7256 O   0  0  0  0  0  0  0  0  0  0  0  0
   11.6736  -16.9768   18.8189 O   0  0  0  0  0  0  0  0  0  0  0  0
  2  1  1  1
  2 13  1  0
  3  2  1  0
  4  3  1  0
  4 12  1  0
  5  6  1  0
  5  4  2  0
  6  7  1  0
  7  8  1  0
  7 12  2  0
  8  9  2  0
  9 10  1  0
 11 10  2  0
 12 11  1  0
 13 14  2  0
 16 15  1  0
 17 16  1  0
 17 19  1  0
 17 18  1  6
 19 21  1  0
 19 20  1  1
 20 13  1  0
 21 22  2  0
 23 24  1  0
 25 24  1  6
 25 27  1  0
 26 21  1  0
 26 25  1  0
 27 28  2  0
 27 29  1  0
M  END
$$$$
