WIS.pdb
     RDKit          3D

 29 30  0  0  1  0  0  0  0  0999 V2000
    6.2553  -18.4428   24.6007 N   0  0  0  0  0  0  0  0  0  0  0  0
    6.4844  -17.0312   24.3743 C   0  0  1  0  0  0  0  0  0  0  0  0
    7.2824  -16.4822   25.5543 C   0  0  0  0  0  0  0  0  0  0  0  0
    6.6817  -15.2462   26.0994 C   0  0  0  0  0  0  0  0  0  0  0  0
    5.3692  -15.0093   26.4124 C   0  0  0  0  0  0  0  0  0  0  0  0
    5.2864  -13.7490   26.8756 N   0  0  0  0  0  0  0  0  0  0  0  0
    6.5199  -13.1720   26.8663 C   0  0  0  0  0  0  0  0  0  0  0  0
    6.9501  -11.9077   27.2420 C   0  0  0  0  0  0  0  0  0  0  0  0
    8.2904  -11.5736   27.1281 C   0  0  0  0  0  0  0  0  0  0  0  0
    9.1563  -12.5306   26.6364 C   0  0  0  0  0  0  0  0  0  0  0  0
    8.7552  -13.7807   26.2606 C   0  0  0  0  0  0  0  0  0  0  0  0
    7.3951  -14.1017   26.3828 C   0  0  0  0  0  0  0  0  0  0  0  0
    7.2843  -16.8785   23.1447 C   0  0  0  0  0  0  0  0  0  0  0  0
    8.0269  -17.8262   22.7824 O   0  0  0  0  0  0  0  0  0  0  0  0
    7.8032  -12.7613   18.5137 C   0  0  0  0  0  0  0  0  0  0  0  0
    8.3526  -14.0947   19.0745 C   0  0  0  0  0  0  0  0  0  0  0  0
    7.7112  -14.3017   20.4151 C   0  0  2  0  0  0  0  0  0  0  0  0
    8.0137  -13.0624   21.2334 C   0  0  0  0  0  0  0  0  0  0  0  0
    8.1080  -15.5637   21.1354 C   0  0  2  0  0  0  0  0  0  0  0  0
    7.2610  -15.7078   22.3401 N   0  0  0  0  0  0  0  0  0  0  0  0
    9.5302  -15.6461   21.5103 C   0  0  0  0  0  0  0  0  0  0  0  0
    9.9021  -15.4947   22.7337 O   0  0  0  0  0  0  0  0  0  0  0  0
   12.0543  -19.1675   21.3115 O   0  0  0  0  0  0  0  0  0  0  0  0
   11.0046  -18.2812   21.0525 C   0  0  0  0  0  0  0  0  0  0  0  0
   11.6180  -16.9096   20.8691 C   0  0  2  0  0  0  0  0  0  0  0  0
   10.6151  -15.8941   20.6312 N   0  0  0  0  0  0  0  0  0  0  0  0
   12.6102  -16.8989   19.8027 C   0  0  0  0  0  0  0  0  0  0  0  0
   12.2915  -16.8638   18.5830 O   0  0  0  0  0  0  0  0  0  0  0  0
   13.9591  -16.9269   20.1018 O   0  0  0  0  0  0  0  0  0  0  0  0
  2  1  1  1
  2 13  1  0
  3  2  1  0
  4  3  1  0
  4 12  1  0
  5  6  1  0
  5  4  2  0
  6  7  1  0
  7  8  1  0
  7 12  2  0
  8  9  2  0
  9 10  1  0
 11 10  2  0
 12 11  1  0
 13 14  2  0
 16 15  1  0
 17 16  1  0
 17 19  1  0
 17 18  1  1
 19 21  1  0
 19 20  1  1
 20 13  1  0
 21 22  2  0
 23 24  1  0
 25 24  1  6
 25 27  1  0
 26 21  1  0
 26 25  1  0
 27 28  2  0
 27 29  1  0
M  END
$$$$
