WIS.pdb
     RDKit          3D

 29 30  0  0  1  0  0  0  0  0999 V2000
    7.7884  -17.9874   23.6508 N   0  0  0  0  0  0  0  0  0  0  0  0
    7.3503  -16.6222   23.4491 C   0  0  1  0  0  0  0  0  0  0  0  0
    8.0293  -15.7436   24.4969 C   0  0  0  0  0  0  0  0  0  0  0  0
    7.0470  -15.0731   25.3750 C   0  0  0  0  0  0  0  0  0  0  0  0
    5.8202  -15.5309   25.7780 C   0  0  0  0  0  0  0  0  0  0  0  0
    5.2780  -14.5877   26.5693 N   0  0  0  0  0  0  0  0  0  0  0  0
    6.1325  -13.5334   26.6825 C   0  0  0  0  0  0  0  0  0  0  0  0
    6.0336  -12.3360   27.3762 C   0  0  0  0  0  0  0  0  0  0  0  0
    7.0713  -11.4189   27.3195 C   0  0  0  0  0  0  0  0  0  0  0  0
    8.1795  -11.7419   26.5612 C   0  0  0  0  0  0  0  0  0  0  0  0
    8.2983  -12.9140   25.8705 C   0  0  0  0  0  0  0  0  0  0  0  0
    7.2384  -13.8304   25.9392 C   0  0  0  0  0  0  0  0  0  0  0  0
    7.7819  -16.1858   22.1081 C   0  0  0  0  0  0  0  0  0  0  0  0
    6.9228  -15.7245   21.3144 O   0  0  0  0  0  0  0  0  0  0  0  0
    7.9437  -12.1578   20.6215 C   0  0  0  0  0  0  0  0  0  0  0  0
    7.9300  -13.7038   20.5583 C   0  0  0  0  0  0  0  0  0  0  0  0
    9.3606  -14.1503   20.4841 C   0  0  2  0  0  0  0  0  0  0  0  0
    9.9809  -13.4160   19.3123 C   0  0  0  0  0  0  0  0  0  0  0  0
    9.5708  -15.6390   20.3918 C   0  0  2  0  0  0  0  0  0  0  0  0
    9.1282  -16.2593   21.6603 N   0  0  0  0  0  0  0  0  0  0  0  0
   10.9501  -16.0556   20.0852 C   0  0  0  0  0  0  0  0  0  0  0  0
   11.9162  -15.7935   20.8949 O   0  0  0  0  0  0  0  0  0  0  0  0
   12.0884  -17.7528   16.5527 O   0  0  0  0  0  0  0  0  0  0  0  0
   12.8041  -18.2783   17.6326 C   0  0  0  0  0  0  0  0  0  0  0  0
   12.7196  -17.2659   18.7546 C   0  0  2  0  0  0  0  0  0  0  0  0
   11.3744  -16.7633   18.9317 N   0  0  0  0  0  0  0  0  0  0  0  0
   13.6493  -16.1618   18.5582 C   0  0  0  0  0  0  0  0  0  0  0  0
   13.2624  -14.9710   18.4063 O   0  0  0  0  0  0  0  0  0  0  0  0
   15.0118  -16.3907   18.5323 O   0  0  0  0  0  0  0  0  0  0  0  0
  2  1  1  1
  2 13  1  0
  3  2  1  0
  4  3  1  0
  4 12  1  0
  5  6  1  0
  5  4  2  0
  6  7  1  0
  7  8  1  0
  7 12  2  0
  8  9  2  0
  9 10  1  0
 11 10  2  0
 12 11  1  0
 13 14  2  0
 16 15  1  0
 17 16  1  0
 17 19  1  0
 17 18  1  6
 19 21  1  0
 19 20  1  1
 20 13  1  0
 21 22  2  0
 23 24  1  0
 25 24  1  6
 25 27  1  0
 26 21  1  0
 26 25  1  0
 27 28  2  0
 27 29  1  0
M  END
$$$$
