WIS.pdb
     RDKit          3D

 29 30  0  0  1  0  0  0  0  0999 V2000
    5.7573  -18.3358   24.1311 N   0  0  0  0  0  0  0  0  0  0  0  0
    6.2586  -16.9774   24.1200 C   0  0  1  0  0  0  0  0  0  0  0  0
    6.8776  -16.6862   25.4848 C   0  0  0  0  0  0  0  0  0  0  0  0
    6.5496  -15.3254   25.9604 C   0  0  0  0  0  0  0  0  0  0  0  0
    5.3140  -14.7473   26.0863 C   0  0  0  0  0  0  0  0  0  0  0  0
    5.4984  -13.5001   26.5556 N   0  0  0  0  0  0  0  0  0  0  0  0
    6.8281  -13.2660   26.7335 C   0  0  0  0  0  0  0  0  0  0  0  0
    7.5157  -12.1508   27.1897 C   0  0  0  0  0  0  0  0  0  0  0  0
    8.8988  -12.1810   27.2749 C   0  0  0  0  0  0  0  0  0  0  0  0
    9.5453  -13.3408   26.8952 C   0  0  0  0  0  0  0  0  0  0  0  0
    8.8891  -14.4500   26.4433 C   0  0  0  0  0  0  0  0  0  0  0  0
    7.4894  -14.4017   26.3636 C   0  0  0  0  0  0  0  0  0  0  0  0
    7.3075  -16.8744   23.0883 C   0  0  0  0  0  0  0  0  0  0  0  0
    7.9400  -17.9104   22.7606 O   0  0  0  0  0  0  0  0  0  0  0  0
    6.8944  -12.6373   19.4738 C   0  0  0  0  0  0  0  0  0  0  0  0
    6.9513  -14.0953   19.9889 C   0  0  0  0  0  0  0  0  0  0  0  0
    8.3299  -14.3096   20.5411 C   0  0  2  0  0  0  0  0  0  0  0  0
    9.2900  -14.1404   19.3806 C   0  0  0  0  0  0  0  0  0  0  0  0
    8.5429  -15.6141   21.2635 C   0  0  2  0  0  0  0  0  0  0  0  0
    7.6450  -15.6567   22.4389 N   0  0  0  0  0  0  0  0  0  0  0  0
    9.9306  -15.8741   21.6838 C   0  0  0  0  0  0  0  0  0  0  0  0
   10.8677  -16.0281   20.8145 O   0  0  0  0  0  0  0  0  0  0  0  0
   11.0921  -17.0733   25.4128 O   0  0  0  0  0  0  0  0  0  0  0  0
   12.0041  -16.1666   24.8647 C   0  0  0  0  0  0  0  0  0  0  0  0
   11.7870  -16.1709   23.3668 C   0  0  2  0  0  0  0  0  0  0  0  0
   10.3957  -15.9776   23.0196 N   0  0  0  0  0  0  0  0  0  0  0  0
   12.2969  -17.3879   22.7496 C   0  0  0  0  0  0  0  0  0  0  0  0
   11.5625  -18.1668   22.0829 O   0  0  0  0  0  0  0  0  0  0  0  0
   13.6289  -17.7327   22.8786 O   0  0  0  0  0  0  0  0  0  0  0  0
  2  1  1  1
  2 13  1  0
  3  2  1  0
  4  3  1  0
  4 12  1  0
  5  6  1  0
  5  4  2  0
  6  7  1  0
  7  8  1  0
  7 12  2  0
  8  9  2  0
  9 10  1  0
 11 10  2  0
 12 11  1  0
 13 14  2  0
 16 15  1  0
 17 16  1  0
 17 19  1  0
 17 18  1  6
 19 21  1  0
 19 20  1  1
 20 13  1  0
 21 22  2  0
 23 24  1  0
 25 24  1  1
 25 27  1  0
 26 21  1  0
 26 25  1  0
 27 28  2  0
 27 29  1  0
M  END
$$$$
