PMY.pdb
     RDKit          3D

 28 29  0  0  1  0  0  0  0  0999 V2000
   28.2942  -18.1908  -16.2321 N   0  0  0  0  0  0  0  0  0  0  0  0
   28.8402  -17.4512  -17.3796 C   0  0  0  0  0  0  0  0  0  0  0  0
   30.1000  -18.2366  -17.7412 C   0  0  0  0  0  0  0  0  0  0  0  0
   29.7669  -19.6600  -17.3615 C   0  0  0  0  0  0  0  0  0  0  0  0
   28.4231  -19.5850  -16.6639 C   0  0  1  0  0  0  0  0  0  0  0  0
   28.3730  -20.4857  -15.4810 C   0  0  0  0  0  0  0  0  0  0  0  0
   28.2559  -21.7512  -15.6137 O   0  0  0  0  0  0  0  0  0  0  0  0
   32.2684  -21.9452  -10.6034 C   0  0  0  0  0  0  0  0  0  0  0  0
   30.8595  -21.1634   -9.7731 S   0  0  0  0  0  0  0  0  0  0  0  0
   29.3793  -21.3390  -10.7998 C   0  0  0  0  0  0  0  0  0  0  0  0
   29.4935  -20.6067  -12.0957 C   0  0  0  0  0  0  0  0  0  0  0  0
   28.3107  -20.7484  -12.9896 C   0  0  2  0  0  0  0  0  0  0  0  0
   28.4578  -19.9141  -14.1955 N   0  0  0  0  0  0  0  0  0  0  0  0
   27.0699  -20.2786  -12.3259 C   0  0  0  0  0  0  0  0  0  0  0  0
   26.8469  -19.0495  -12.0704 O   0  0  0  0  0  0  0  0  0  0  0  0
   18.8537  -18.8400  -10.1222 O   0  0  0  0  0  0  0  0  0  0  0  0
   20.0193  -19.4289  -10.5810 C   0  0  0  0  0  0  0  0  0  0  0  0
   20.6116  -19.0895  -11.7748 C   0  0  0  0  0  0  0  0  0  0  0  0
   21.7718  -19.6778  -12.2285 C   0  0  0  0  0  0  0  0  0  0  0  0
   22.3606  -20.6487  -11.4487 C   0  0  0  0  0  0  0  0  0  0  0  0
   23.5989  -21.3753  -11.8117 C   0  0  0  0  0  0  0  0  0  0  0  0
   24.8439  -20.7181  -11.2578 C   0  0  2  0  0  0  0  0  0  0  0  0
   26.0328  -21.1614  -11.9224 N   0  0  0  0  0  0  0  0  0  0  0  0
   24.9829  -20.9027   -9.8108 C   0  0  0  0  0  0  0  0  0  0  0  0
   24.5532  -19.8983   -8.9317 O   0  0  0  0  0  0  0  0  0  0  0  0
   21.7620  -20.9915  -10.2421 C   0  0  0  0  0  0  0  0  0  0  0  0
   20.6131  -20.4069   -9.7950 C   0  0  0  0  0  0  0  0  0  0  0  0
   25.4801  -21.9406   -9.2997 O   0  0  0  0  0  0  0  0  0  0  0  0
  1  5  1  0
  1  2  1  0
  2  3  1  0
  4  3  1  0
  5  4  1  0
  6 13  1  0
  5  6  1  1
  7  6  2  0
  9  8  1  0
 10  9  1  0
 12 11  1  1
 11 10  1  0
 12 13  1  0
 14 12  1  0
 15 14  2  0
 17 16  1  0
 17 27  2  0
 18 17  1  0
 19 18  2  0
 19 20  1  0
 20 26  2  0
 21 20  1  0
 22 21  1  6
 22 24  1  0
 22 23  1  0
 23 14  1  0
 24 25  1  0
 26 27  1  0
 28 24  2  0
M  END
$$$$
