PMY.pdb
     RDKit          3D

 28 29  0  0  1  0  0  0  0  0999 V2000
   22.7430  -21.3329  -18.5540 N   0  0  0  0  0  0  0  0  0  0  0  0
   21.9535  -21.4300  -19.7906 C   0  0  0  0  0  0  0  0  0  0  0  0
   22.9969  -21.2525  -20.8927 C   0  0  0  0  0  0  0  0  0  0  0  0
   24.2582  -21.8362  -20.3015 C   0  0  0  0  0  0  0  0  0  0  0  0
   23.9141  -22.1583  -18.8607 C   0  0  1  0  0  0  0  0  0  0  0  0
   25.0315  -21.8087  -17.9431 C   0  0  0  0  0  0  0  0  0  0  0  0
   26.1611  -22.4017  -18.0151 O   0  0  0  0  0  0  0  0  0  0  0  0
   28.0112  -16.1832  -16.1718 C   0  0  0  0  0  0  0  0  0  0  0  0
   27.4170  -16.8914  -17.7309 S   0  0  0  0  0  0  0  0  0  0  0  0
   27.0847  -18.6563  -17.5053 C   0  0  0  0  0  0  0  0  0  0  0  0
   26.2377  -18.9289  -16.3066 C   0  0  0  0  0  0  0  0  0  0  0  0
   25.9164  -20.3674  -16.0938 C   0  0  2  0  0  0  0  0  0  0  0  0
   24.8221  -20.8004  -16.9808 N   0  0  0  0  0  0  0  0  0  0  0  0
   25.4358  -20.6174  -14.7127 C   0  0  0  0  0  0  0  0  0  0  0  0
   24.2003  -20.5988  -14.3981 O   0  0  0  0  0  0  0  0  0  0  0  0
   25.6816  -20.1637   -5.9110 O   0  0  0  0  0  0  0  0  0  0  0  0
   26.0020  -20.4281   -7.2314 C   0  0  0  0  0  0  0  0  0  0  0  0
   25.8302  -21.6628   -7.8122 C   0  0  0  0  0  0  0  0  0  0  0  0
   26.1503  -21.9224   -9.1267 C   0  0  0  0  0  0  0  0  0  0  0  0
   26.6653  -20.8970   -9.8890 C   0  0  0  0  0  0  0  0  0  0  0  0
   27.0658  -21.0303  -11.3084 C   0  0  0  0  0  0  0  0  0  0  0  0
   25.9027  -20.8592  -12.2607 C   0  0  2  0  0  0  0  0  0  0  0  0
   26.3144  -20.8966  -13.6321 N   0  0  0  0  0  0  0  0  0  0  0  0
   25.1377  -19.6364  -12.0025 C   0  0  0  0  0  0  0  0  0  0  0  0
   25.5883  -18.4081  -12.5069 O   0  0  0  0  0  0  0  0  0  0  0  0
   26.8386  -19.6492   -9.3018 C   0  0  0  0  0  0  0  0  0  0  0  0
   26.5203  -19.3947   -7.9997 C   0  0  0  0  0  0  0  0  0  0  0  0
   24.0699  -19.6275  -11.3350 O   0  0  0  0  0  0  0  0  0  0  0  0
  1  5  1  0
  1  2  1  0
  2  3  1  0
  4  3  1  0
  5  4  1  0
  6 13  1  0
  5  6  1  1
  7  6  2  0
  9  8  1  0
 10  9  1  0
 12 11  1  1
 11 10  1  0
 12 13  1  0
 14 12  1  0
 15 14  2  0
 17 16  1  0
 17 27  2  0
 18 17  1  0
 19 18  2  0
 19 20  1  0
 20 26  2  0
 21 20  1  0
 22 21  1  1
 22 24  1  0
 22 23  1  0
 23 14  1  0
 24 25  1  0
 26 27  1  0
 28 24  2  0
M  END
$$$$
