PMY.pdb
     RDKit          3D

 28 29  0  0  1  0  0  0  0  0999 V2000
   22.0913  -13.5811  -19.5754 N   0  0  0  0  0  0  0  0  0  0  0  0
   21.6636  -14.7748  -20.3198 C   0  0  0  0  0  0  0  0  0  0  0  0
   21.7618  -15.8934  -19.2835 C   0  0  0  0  0  0  0  0  0  0  0  0
   21.4652  -15.2058  -17.9718 C   0  0  0  0  0  0  0  0  0  0  0  0
   21.3789  -13.7292  -18.3036 C   0  0  1  0  0  0  0  0  0  0  0  0
   22.0343  -12.8974  -17.2590 C   0  0  0  0  0  0  0  0  0  0  0  0
   21.6068  -12.8841  -16.0548 O   0  0  0  0  0  0  0  0  0  0  0  0
   28.6713  -13.3512  -15.0193 C   0  0  0  0  0  0  0  0  0  0  0  0
   27.8423  -12.3281  -16.2649 S   0  0  0  0  0  0  0  0  0  0  0  0
   26.0926  -12.1530  -15.8362 C   0  0  0  0  0  0  0  0  0  0  0  0
   25.3349  -11.3554  -16.8453 C   0  0  0  0  0  0  0  0  0  0  0  0
   23.8640  -11.3101  -16.6162 C   0  0  2  0  0  0  0  0  0  0  0  0
   23.1483  -12.1143  -17.6227 N   0  0  0  0  0  0  0  0  0  0  0  0
   23.3355   -9.9309  -16.7553 C   0  0  0  0  0  0  0  0  0  0  0  0
   23.0232   -9.4220  -17.8819 O   0  0  0  0  0  0  0  0  0  0  0  0
   20.0254   -1.9525  -15.1036 O   0  0  0  0  0  0  0  0  0  0  0  0
   20.4645   -3.2601  -14.9885 C   0  0  0  0  0  0  0  0  0  0  0  0
   19.6969   -4.3434  -15.3470 C   0  0  0  0  0  0  0  0  0  0  0  0
   20.1372   -5.6436  -15.2310 C   0  0  0  0  0  0  0  0  0  0  0  0
   21.4026   -5.8634  -14.7329 C   0  0  0  0  0  0  0  0  0  0  0  0
   22.0042   -7.2028  -14.5403 C   0  0  0  0  0  0  0  0  0  0  0  0
   22.7130   -7.7069  -15.7782 C   0  0  2  0  0  0  0  0  0  0  0  0
   23.1363   -9.0687  -15.6443 N   0  0  0  0  0  0  0  0  0  0  0  0
   23.8510   -6.8656  -16.1582 C   0  0  0  0  0  0  0  0  0  0  0  0
   23.6906   -5.8660  -17.1285 O   0  0  0  0  0  0  0  0  0  0  0  0
   22.1782   -4.7684  -14.3709 C   0  0  0  0  0  0  0  0  0  0  0  0
   21.7399   -3.4816  -14.4872 C   0  0  0  0  0  0  0  0  0  0  0  0
   24.9953   -6.9943  -15.6485 O   0  0  0  0  0  0  0  0  0  0  0  0
  1  5  1  0
  1  2  1  0
  2  3  1  0
  4  3  1  0
  5  4  1  0
  6 13  1  0
  5  6  1  1
  7  6  2  0
  9  8  1  0
 10  9  1  0
 12 11  1  6
 11 10  1  0
 12 13  1  0
 14 12  1  0
 15 14  2  0
 17 16  1  0
 17 27  2  0
 18 17  1  0
 19 18  2  0
 19 20  1  0
 20 26  2  0
 21 20  1  0
 22 21  1  1
 22 24  1  0
 22 23  1  0
 23 14  1  0
 24 25  1  0
 26 27  1  0
 28 24  2  0
M  END
$$$$
