PMY.pdb
     RDKit          3D

 28 29  0  0  1  0  0  0  0  0999 V2000
   26.9470  -21.9694  -17.4199 N   0  0  0  0  0  0  0  0  0  0  0  0
   25.7132  -21.3997  -16.8586 C   0  0  0  0  0  0  0  0  0  0  0  0
   24.9658  -22.6231  -16.3300 C   0  0  0  0  0  0  0  0  0  0  0  0
   26.0642  -23.5769  -15.9233 C   0  0  0  0  0  0  0  0  0  0  0  0
   27.3524  -22.9259  -16.3867 C   0  0  1  0  0  0  0  0  0  0  0  0
   28.2899  -23.9256  -16.9653 C   0  0  0  0  0  0  0  0  0  0  0  0
   28.2495  -24.2354  -18.2043 O   0  0  0  0  0  0  0  0  0  0  0  0
   35.3077  -27.3972  -16.1463 C   0  0  0  0  0  0  0  0  0  0  0  0
   34.1339  -26.1424  -15.5690 S   0  0  0  0  0  0  0  0  0  0  0  0
   32.5457  -26.3692  -16.4071 C   0  0  0  0  0  0  0  0  0  0  0  0
   31.5265  -25.3657  -15.9797 C   0  0  0  0  0  0  0  0  0  0  0  0
   30.2005  -25.5145  -16.6411 C   0  0  2  0  0  0  0  0  0  0  0  0
   29.2353  -24.5332  -16.1146 N   0  0  0  0  0  0  0  0  0  0  0  0
   29.6060  -26.8465  -16.3709 C   0  0  0  0  0  0  0  0  0  0  0  0
   29.1149  -27.1660  -15.2384 O   0  0  0  0  0  0  0  0  0  0  0  0
   25.1397  -34.2066  -16.3774 O   0  0  0  0  0  0  0  0  0  0  0  0
   25.7031  -32.9641  -16.6117 C   0  0  0  0  0  0  0  0  0  0  0  0
   26.0139  -32.5069  -17.8709 C   0  0  0  0  0  0  0  0  0  0  0  0
   26.5747  -31.2697  -18.1004 C   0  0  0  0  0  0  0  0  0  0  0  0
   26.8341  -30.4585  -17.0177 C   0  0  0  0  0  0  0  0  0  0  0  0
   27.4442  -29.1122  -17.1089 C   0  0  0  0  0  0  0  0  0  0  0  0
   28.9564  -29.1558  -17.1016 C   0  0  2  0  0  0  0  0  0  0  0  0
   29.5375  -27.8709  -17.3524 N   0  0  0  0  0  0  0  0  0  0  0  0
   29.4967  -30.1401  -18.0431 C   0  0  0  0  0  0  0  0  0  0  0  0
   29.8015  -29.7588  -19.3576 O   0  0  0  0  0  0  0  0  0  0  0  0
   26.5197  -30.9207  -15.7452 C   0  0  0  0  0  0  0  0  0  0  0  0
   25.9640  -32.1464  -15.5208 C   0  0  0  0  0  0  0  0  0  0  0  0
   29.7077  -31.3411  -17.7287 O   0  0  0  0  0  0  0  0  0  0  0  0
  1  5  1  0
  1  2  1  0
  2  3  1  0
  4  3  1  0
  5  4  1  0
  6 13  1  0
  5  6  1  6
  7  6  2  0
  9  8  1  0
 10  9  1  0
 12 11  1  1
 11 10  1  0
 12 13  1  0
 14 12  1  0
 15 14  2  0
 17 16  1  0
 17 27  2  0
 18 17  1  0
 19 18  2  0
 19 20  1  0
 20 26  2  0
 21 20  1  0
 22 21  1  6
 22 24  1  0
 22 23  1  0
 23 14  1  0
 24 25  1  0
 26 27  1  0
 28 24  2  0
M  END
$$$$
