PMY.pdb
     RDKit          3D

 28 29  0  0  1  0  0  0  0  0999 V2000
   22.2672  -13.6514  -20.5909 N   0  0  0  0  0  0  0  0  0  0  0  0
   21.8539  -14.5490  -21.6797 C   0  0  0  0  0  0  0  0  0  0  0  0
   20.8611  -15.4935  -21.0036 C   0  0  0  0  0  0  0  0  0  0  0  0
   20.2256  -14.6477  -19.9256 C   0  0  0  0  0  0  0  0  0  0  0  0
   20.9936  -13.3408  -19.9363 C   0  0  1  0  0  0  0  0  0  0  0  0
   21.2439  -12.8452  -18.5562 C   0  0  0  0  0  0  0  0  0  0  0  0
   20.2801  -12.5480  -17.7717 O   0  0  0  0  0  0  0  0  0  0  0  0
   27.2739  -13.2680  -15.6991 C   0  0  0  0  0  0  0  0  0  0  0  0
   26.1097  -13.0002  -14.3359 S   0  0  0  0  0  0  0  0  0  0  0  0
   24.6190  -12.1887  -14.9646 C   0  0  0  0  0  0  0  0  0  0  0  0
   24.1739  -12.7486  -16.2750 C   0  0  0  0  0  0  0  0  0  0  0  0
   22.8811  -12.2009  -16.7716 C   0  0  2  0  0  0  0  0  0  0  0  0
   22.5777  -12.7071  -18.1220 N   0  0  0  0  0  0  0  0  0  0  0  0
   22.9309  -10.7237  -16.8988 C   0  0  0  0  0  0  0  0  0  0  0  0
   23.5765  -10.1324  -17.8258 O   0  0  0  0  0  0  0  0  0  0  0  0
   15.9578   -9.0173  -17.3006 O   0  0  0  0  0  0  0  0  0  0  0  0
   17.3118   -8.7297  -17.2949 C   0  0  0  0  0  0  0  0  0  0  0  0
   17.8512   -7.6725  -16.6001 C   0  0  0  0  0  0  0  0  0  0  0  0
   19.1993   -7.3892  -16.5968 C   0  0  0  0  0  0  0  0  0  0  0  0
   20.0403   -8.2032  -17.3233 C   0  0  0  0  0  0  0  0  0  0  0  0
   21.5057   -8.0148  -17.4233 C   0  0  0  0  0  0  0  0  0  0  0  0
   22.2340   -8.4296  -16.1639 C   0  0  2  0  0  0  0  0  0  0  0  0
   22.2635   -9.8520  -15.9977 N   0  0  0  0  0  0  0  0  0  0  0  0
   21.6851   -7.7979  -14.9610 C   0  0  0  0  0  0  0  0  0  0  0  0
   21.5337   -6.4049  -14.9079 O   0  0  0  0  0  0  0  0  0  0  0  0
   19.4949   -9.2717  -18.0252 C   0  0  0  0  0  0  0  0  0  0  0  0
   18.1593   -9.5503  -18.0265 C   0  0  0  0  0  0  0  0  0  0  0  0
   21.3328   -8.4541  -13.9457 O   0  0  0  0  0  0  0  0  0  0  0  0
  1  5  1  0
  1  2  1  0
  2  3  1  0
  4  3  1  0
  5  4  1  0
  6 13  1  0
  5  6  1  1
  7  6  2  0
  9  8  1  0
 10  9  1  0
 12 11  1  6
 11 10  1  0
 12 13  1  0
 14 12  1  0
 15 14  2  0
 17 16  1  0
 17 27  2  0
 18 17  1  0
 19 18  2  0
 19 20  1  0
 20 26  2  0
 21 20  1  0
 22 21  1  6
 22 24  1  0
 22 23  1  0
 23 14  1  0
 24 25  1  0
 26 27  1  0
 28 24  2  0
M  END
$$$$
