PMY.pdb
     RDKit          3D

 28 29  0  0  1  0  0  0  0  0999 V2000
   27.6267  -21.1018  -20.3742 N   0  0  0  0  0  0  0  0  0  0  0  0
   27.9930  -21.5539  -21.7245 C   0  0  0  0  0  0  0  0  0  0  0  0
   28.5677  -20.2969  -22.3760 C   0  0  0  0  0  0  0  0  0  0  0  0
   29.1852  -19.5370  -21.2259 C   0  0  0  0  0  0  0  0  0  0  0  0
   28.7921  -20.3059  -19.9800 C   0  0  1  0  0  0  0  0  0  0  0  0
   28.4235  -19.3889  -18.8682 C   0  0  0  0  0  0  0  0  0  0  0  0
   29.2644  -18.5555  -18.3875 O   0  0  0  0  0  0  0  0  0  0  0  0
   22.8791  -16.4509  -18.5886 C   0  0  0  0  0  0  0  0  0  0  0  0
   24.3671  -15.6823  -19.2818 S   0  0  0  0  0  0  0  0  0  0  0  0
   25.8315  -16.5868  -18.7221 C   0  0  0  0  0  0  0  0  0  0  0  0
   25.4898  -17.7151  -17.8063 C   0  0  0  0  0  0  0  0  0  0  0  0
   26.6639  -18.4943  -17.3242 C   0  0  2  0  0  0  0  0  0  0  0  0
   27.1157  -19.4546  -18.3468 N   0  0  0  0  0  0  0  0  0  0  0  0
   26.3222  -19.3088  -16.1324 C   0  0  0  0  0  0  0  0  0  0  0  0
   25.5909  -20.3514  -16.1958 O   0  0  0  0  0  0  0  0  0  0  0  0
   25.4191  -21.5773   -7.5985 O   0  0  0  0  0  0  0  0  0  0  0  0
   25.8801  -21.0904   -8.8094 C   0  0  0  0  0  0  0  0  0  0  0  0
   26.4102  -21.8967   -9.7893 C   0  0  0  0  0  0  0  0  0  0  0  0
   26.8682  -21.4085  -10.9933 C   0  0  0  0  0  0  0  0  0  0  0  0
   26.7901  -20.0522  -11.2212 C   0  0  0  0  0  0  0  0  0  0  0  0
   27.2532  -19.3844  -12.4592 C   0  0  0  0  0  0  0  0  0  0  0  0
   26.4076  -19.7372  -13.6630 C   0  0  2  0  0  0  0  0  0  0  0  0
   26.7824  -18.9910  -14.8268 N   0  0  0  0  0  0  0  0  0  0  0  0
   24.9729  -19.5796  -13.4100 C   0  0  0  0  0  0  0  0  0  0  0  0
   24.2137  -20.6749  -12.9737 O   0  0  0  0  0  0  0  0  0  0  0  0
   26.2541  -19.2376  -10.2309 C   0  0  0  0  0  0  0  0  0  0  0  0
   25.8009  -19.7237   -9.0393 C   0  0  0  0  0  0  0  0  0  0  0  0
   24.3681  -18.4864  -13.5670 O   0  0  0  0  0  0  0  0  0  0  0  0
  1  5  1  0
  1  2  1  0
  2  3  1  0
  4  3  1  0
  5  4  1  0
  6 13  1  0
  5  6  1  1
  7  6  2  0
  9  8  1  0
 10  9  1  0
 12 11  1  6
 11 10  1  0
 12 13  1  0
 14 12  1  0
 15 14  2  0
 17 16  1  0
 17 27  2  0
 18 17  1  0
 19 18  2  0
 19 20  1  0
 20 26  2  0
 21 20  1  0
 22 21  1  1
 22 24  1  0
 22 23  1  0
 23 14  1  0
 24 25  1  0
 26 27  1  0
 28 24  2  0
M  END
$$$$
