PMY.pdb
     RDKit          3D

 28 29  0  0  1  0  0  0  0  0999 V2000
   27.7193  -18.9048  -18.6067 N   0  0  0  0  0  0  0  0  0  0  0  0
   28.2719  -18.6543  -19.9460 C   0  0  0  0  0  0  0  0  0  0  0  0
   29.2234  -17.4796  -19.7234 C   0  0  0  0  0  0  0  0  0  0  0  0
   29.7163  -17.6695  -18.3083 C   0  0  0  0  0  0  0  0  0  0  0  0
   28.9082  -18.8261  -17.7540 C   0  0  1  0  0  0  0  0  0  0  0  0
   28.5021  -18.5800  -16.3443 C   0  0  0  0  0  0  0  0  0  0  0  0
   29.3681  -18.3468  -15.4341 O   0  0  0  0  0  0  0  0  0  0  0  0
   23.7439  -14.8654  -14.3861 C   0  0  0  0  0  0  0  0  0  0  0  0
   25.4147  -14.3614  -14.8761 S   0  0  0  0  0  0  0  0  0  0  0  0
   26.5292  -15.7841  -14.7756 C   0  0  0  0  0  0  0  0  0  0  0  0
   25.7936  -17.0788  -14.6692 C   0  0  0  0  0  0  0  0  0  0  0  0
   26.6674  -18.2848  -14.6628 C   0  0  2  0  0  0  0  0  0  0  0  0
   27.1297  -18.6084  -16.0243 N   0  0  0  0  0  0  0  0  0  0  0  0
   25.9324  -19.4848  -14.1931 C   0  0  0  0  0  0  0  0  0  0  0  0
   25.0533  -20.0768  -14.9019 O   0  0  0  0  0  0  0  0  0  0  0  0
   26.5723  -18.7919   -6.7037 O   0  0  0  0  0  0  0  0  0  0  0  0
   26.4457  -19.5860   -7.8304 C   0  0  0  0  0  0  0  0  0  0  0  0
   25.3790  -20.4287   -8.0382 C   0  0  0  0  0  0  0  0  0  0  0  0
   25.2564  -21.2178   -9.1608 C   0  0  0  0  0  0  0  0  0  0  0  0
   26.2487  -21.1569  -10.1143 C   0  0  0  0  0  0  0  0  0  0  0  0
   26.2588  -21.9537  -11.3625 C   0  0  0  0  0  0  0  0  0  0  0  0
   25.5118  -21.2780  -12.4913 C   0  0  2  0  0  0  0  0  0  0  0  0
   26.1499  -20.0682  -12.9165 N   0  0  0  0  0  0  0  0  0  0  0  0
   24.1093  -21.0126  -12.1602 C   0  0  0  0  0  0  0  0  0  0  0  0
   23.6790  -19.6971  -11.9356 O   0  0  0  0  0  0  0  0  0  0  0  0
   27.3265  -20.3048   -9.9042 C   0  0  0  0  0  0  0  0  0  0  0  0
   27.4454  -19.5242   -8.7916 C   0  0  0  0  0  0  0  0  0  0  0  0
   23.2464  -21.9247  -12.0633 O   0  0  0  0  0  0  0  0  0  0  0  0
  1  5  1  0
  1  2  1  0
  2  3  1  0
  4  3  1  0
  5  4  1  0
  6 13  1  0
  5  6  1  1
  7  6  2  0
  9  8  1  0
 10  9  1  0
 12 11  1  6
 11 10  1  0
 12 13  1  0
 14 12  1  0
 15 14  2  0
 17 16  1  0
 17 27  2  0
 18 17  1  0
 19 18  2  0
 19 20  1  0
 20 26  2  0
 21 20  1  0
 22 21  1  1
 22 24  1  0
 22 23  1  0
 23 14  1  0
 24 25  1  0
 26 27  1  0
 28 24  2  0
M  END
$$$$
