PMY.pdb
     RDKit          3D

 28 29  0  0  1  0  0  0  0  0999 V2000
   27.4920  -19.0114  -14.8874 N   0  0  0  0  0  0  0  0  0  0  0  0
   28.7889  -18.5777  -15.4275 C   0  0  0  0  0  0  0  0  0  0  0  0
   29.7298  -19.7219  -15.0532 C   0  0  0  0  0  0  0  0  0  0  0  0
   28.8444  -20.9455  -15.0695 C   0  0  0  0  0  0  0  0  0  0  0  0
   27.4388  -20.4205  -15.2854 C   0  0  1  0  0  0  0  0  0  0  0  0
   26.4514  -21.1457  -14.4416 C   0  0  0  0  0  0  0  0  0  0  0  0
   26.2073  -22.3869  -14.6222 O   0  0  0  0  0  0  0  0  0  0  0  0
   26.0408  -19.0292   -8.6253 C   0  0  0  0  0  0  0  0  0  0  0  0
   26.5140  -20.7745   -8.7490 S   0  0  0  0  0  0  0  0  0  0  0  0
   26.2600  -21.3510  -10.4458 C   0  0  0  0  0  0  0  0  0  0  0  0
   25.0880  -20.6984  -11.1008 C   0  0  0  0  0  0  0  0  0  0  0  0
   24.8553  -21.1216  -12.5097 C   0  0  2  0  0  0  0  0  0  0  0  0
   25.7810  -20.4333  -13.4269 N   0  0  0  0  0  0  0  0  0  0  0  0
   23.4921  -20.7569  -12.9675 C   0  0  0  0  0  0  0  0  0  0  0  0
   23.0704  -19.5539  -12.9895 O   0  0  0  0  0  0  0  0  0  0  0  0
   15.8873  -20.4619  -17.2085 O   0  0  0  0  0  0  0  0  0  0  0  0
   17.0888  -20.9057  -16.6836 C   0  0  0  0  0  0  0  0  0  0  0  0
   17.1860  -21.9931  -15.8474 C   0  0  0  0  0  0  0  0  0  0  0  0
   18.3835  -22.4319  -15.3267 C   0  0  0  0  0  0  0  0  0  0  0  0
   19.5316  -21.7478  -15.6608 C   0  0  0  0  0  0  0  0  0  0  0  0
   20.8846  -22.0947  -15.1689 C   0  0  0  0  0  0  0  0  0  0  0  0
   21.2424  -21.3722  -13.8888 C   0  0  2  0  0  0  0  0  0  0  0  0
   22.5494  -21.7196  -13.4169 N   0  0  0  0  0  0  0  0  0  0  0  0
   20.2556  -21.5846  -12.8267 C   0  0  0  0  0  0  0  0  0  0  0  0
   19.1838  -20.6928  -12.6772 O   0  0  0  0  0  0  0  0  0  0  0  0
   19.4331  -20.6489  -16.5062 C   0  0  0  0  0  0  0  0  0  0  0  0
   18.2457  -20.2167  -17.0208 C   0  0  0  0  0  0  0  0  0  0  0  0
   20.3185  -22.5490  -12.0193 O   0  0  0  0  0  0  0  0  0  0  0  0
  1  5  1  0
  1  2  1  0
  2  3  1  0
  4  3  1  0
  5  4  1  0
  6 13  1  0
  5  6  1  1
  7  6  2  0
  9  8  1  0
 10  9  1  0
 12 11  1  1
 11 10  1  0
 12 13  1  0
 14 12  1  0
 15 14  2  0
 17 16  1  0
 17 27  2  0
 18 17  1  0
 19 18  2  0
 19 20  1  0
 20 26  2  0
 21 20  1  0
 22 21  1  6
 22 24  1  0
 22 23  1  0
 23 14  1  0
 24 25  1  0
 26 27  1  0
 28 24  2  0
M  END
$$$$
