PMY.pdb
     RDKit          3D

 28 29  0  0  1  0  0  0  0  0999 V2000
   28.8942  -18.7195  -15.5132 N   0  0  0  0  0  0  0  0  0  0  0  0
   29.4468  -18.3272  -16.8181 C   0  0  0  0  0  0  0  0  0  0  0  0
   30.1218  -19.6042  -17.3162 C   0  0  0  0  0  0  0  0  0  0  0  0
   29.2881  -20.7154  -16.7233 C   0  0  0  0  0  0  0  0  0  0  0  0
   28.3005  -20.0277  -15.8015 C   0  0  1  0  0  0  0  0  0  0  0  0
   28.1171  -20.7878  -14.5360 C   0  0  0  0  0  0  0  0  0  0  0  0
   27.3809  -21.8312  -14.4881 O   0  0  0  0  0  0  0  0  0  0  0  0
   31.9379  -21.8111   -9.1450 C   0  0  0  0  0  0  0  0  0  0  0  0
   32.3549  -22.1758  -10.8708 S   0  0  0  0  0  0  0  0  0  0  0  0
   30.8667  -22.0463  -11.8928 C   0  0  0  0  0  0  0  0  0  0  0  0
   29.8678  -21.0915  -11.3278 C   0  0  0  0  0  0  0  0  0  0  0  0
   28.5876  -21.0195  -12.0855 C   0  0  2  0  0  0  0  0  0  0  0  0
   28.7764  -20.3335  -13.3761 N   0  0  0  0  0  0  0  0  0  0  0  0
   27.5688  -20.2263  -11.3550 C   0  0  0  0  0  0  0  0  0  0  0  0
   27.5270  -18.9526  -11.3951 O   0  0  0  0  0  0  0  0  0  0  0  0
   21.3541  -22.5041  -14.1024 O   0  0  0  0  0  0  0  0  0  0  0  0
   22.2172  -21.7154  -13.3614 C   0  0  0  0  0  0  0  0  0  0  0  0
   23.5173  -21.4694  -13.7363 C   0  0  0  0  0  0  0  0  0  0  0  0
   24.3736  -20.6840  -12.9962 C   0  0  0  0  0  0  0  0  0  0  0  0
   23.9025  -20.1230  -11.8296 C   0  0  0  0  0  0  0  0  0  0  0  0
   24.7090  -19.2694  -10.9273 C   0  0  0  0  0  0  0  0  0  0  0  0
   25.5121  -20.0730   -9.9283 C   0  0  2  0  0  0  0  0  0  0  0  0
   26.5601  -20.8235  -10.5530 N   0  0  0  0  0  0  0  0  0  0  0  0
   24.6761  -20.9625   -9.1178 C   0  0  0  0  0  0  0  0  0  0  0  0
   23.6934  -20.4249   -8.2743 O   0  0  0  0  0  0  0  0  0  0  0  0
   22.5885  -20.3716  -11.4510 C   0  0  0  0  0  0  0  0  0  0  0  0
   21.7424  -21.1496  -12.1861 C   0  0  0  0  0  0  0  0  0  0  0  0
   24.7947  -22.2160   -9.1371 O   0  0  0  0  0  0  0  0  0  0  0  0
  1  5  1  0
  1  2  1  0
  2  3  1  0
  4  3  1  0
  5  4  1  0
  6 13  1  0
  5  6  1  1
  7  6  2  0
  9  8  1  0
 10  9  1  0
 12 11  1  1
 11 10  1  0
 12 13  1  0
 14 12  1  0
 15 14  2  0
 17 16  1  0
 17 27  2  0
 18 17  1  0
 19 18  2  0
 19 20  1  0
 20 26  2  0
 21 20  1  0
 22 21  1  6
 22 24  1  0
 22 23  1  0
 23 14  1  0
 24 25  1  0
 26 27  1  0
 28 24  2  0
M  END
$$$$
