DMQ.pdb
     RDKit          3D

 26 25  0  0  1  0  0  0  0  0999 V2000
    9.6181  -16.1374   19.8606 N   0  0  0  0  0  0  0  0  0  0  0  0
   10.1667  -17.0302   20.8451 C   0  0  1  0  0  0  0  0  0  0  0  0
   11.5452  -17.4347   20.4196 C   0  0  0  0  0  0  0  0  0  0  0  0
   11.6837  -17.4139   18.9425 C   0  0  0  0  0  0  0  0  0  0  0  0
   12.8149  -17.5389   18.4267 O   0  0  0  0  0  0  0  0  0  0  0  0
   10.1758  -16.3630   22.1904 C   0  0  0  0  0  0  0  0  0  0  0  0
   11.1997  -16.4505   22.9060 O   0  0  0  0  0  0  0  0  0  0  0  0
   10.5903  -17.2591   18.1125 O   0  0  0  0  0  0  0  0  0  0  0  0
    5.9862  -11.6031   27.1034 C   0  0  0  0  0  0  0  0  0  0  0  0
    6.1212  -12.4228   25.5013 S   0  0  0  0  0  0  0  0  0  0  0  0
    7.4556  -13.6786   25.5223 C   0  0  0  0  0  0  0  0  0  0  0  0
    7.6471  -14.1788   24.1291 C   0  0  0  0  0  0  0  0  0  0  0  0
    8.7443  -15.2201   23.9798 C   0  0  2  0  0  0  0  0  0  0  0  0
    9.0632  -15.6391   22.6733 N   0  0  0  0  0  0  0  0  0  0  0  0
    8.6646  -16.1929   25.0389 C   0  0  0  0  0  0  0  0  0  0  0  0
    7.8551  -17.1504   24.9133 O   0  0  0  0  0  0  0  0  0  0  0  0
   11.0388  -20.1314   23.9574 N   0  0  0  0  0  0  0  0  0  0  0  0
   11.6279  -20.3592   25.2218 C   0  0  0  0  0  0  0  0  0  0  0  0
   12.0933  -21.4853   25.4928 O   0  0  0  0  0  0  0  0  0  0  0  0
   11.6822  -19.2568   26.2021 C   0  0  0  0  0  0  0  0  0  0  0  0
   10.9795  -18.0222   25.7015 C   0  0  0  0  0  0  0  0  0  0  0  0
   10.1370  -17.3553   26.7358 C   0  0  2  0  0  0  0  0  0  0  0  0
    9.4285  -16.1895   26.2550 N   0  0  0  0  0  0  0  0  0  0  0  0
   10.8699  -17.0777   27.9979 C   0  0  0  0  0  0  0  0  0  0  0  0
   10.8760  -15.8275   28.6049 O   0  0  0  0  0  0  0  0  0  0  0  0
   11.5281  -17.9759   28.5829 O   0  0  0  0  0  0  0  0  0  0  0  0
  2  3  1  0
  2  1  1  6
  3  4  1  0
  4  5  2  0
  4  8  1  0
  6  7  2  0
  6  2  1  0
  9 10  1  0
 11 10  1  0
 12 11  1  0
 13 12  1  6
 13 14  1  0
 14  6  1  0
 15 13  1  0
 15 23  1  0
 16 15  2  0
 17 18  1  0
 18 19  2  0
 20 21  1  0
 20 18  1  0
 22 21  1  6
 22 23  1  0
 24 22  1  0
 25 24  1  0
 26 24  2  0
M  END
$$$$
