DMQ.pdb
     RDKit          3D

 26 25  0  0  1  0  0  0  0  0999 V2000
    7.2118  -16.9676   20.3774 N   0  0  0  0  0  0  0  0  0  0  0  0
    8.3718  -16.1962   20.0217 C   0  0  1  0  0  0  0  0  0  0  0  0
    8.0135  -15.2689   18.9007 C   0  0  0  0  0  0  0  0  0  0  0  0
    7.8264  -16.0065   17.6269 C   0  0  0  0  0  0  0  0  0  0  0  0
    7.4020  -17.1815   17.6506 O   0  0  0  0  0  0  0  0  0  0  0  0
    8.8735  -15.4460   21.2219 C   0  0  0  0  0  0  0  0  0  0  0  0
   10.0299  -14.9661   21.1998 O   0  0  0  0  0  0  0  0  0  0  0  0
    8.1096  -15.4286   16.4045 O   0  0  0  0  0  0  0  0  0  0  0  0
    6.7064  -11.6413   27.9044 C   0  0  0  0  0  0  0  0  0  0  0  0
    6.2686  -12.4445   26.3487 S   0  0  0  0  0  0  0  0  0  0  0  0
    7.7109  -13.3272   25.6426 C   0  0  0  0  0  0  0  0  0  0  0  0
    7.2955  -13.9356   24.3444 C   0  0  0  0  0  0  0  0  0  0  0  0
    8.3986  -14.6924   23.6228 C   0  0  2  0  0  0  0  0  0  0  0  0
    8.0796  -15.2653   22.3761 N   0  0  0  0  0  0  0  0  0  0  0  0
    9.1996  -15.4344   24.5620 C   0  0  0  0  0  0  0  0  0  0  0  0
    9.6359  -14.8359   25.5815 O   0  0  0  0  0  0  0  0  0  0  0  0
   13.8529  -18.7153   24.0749 N   0  0  0  0  0  0  0  0  0  0  0  0
   13.2692  -17.8030   23.1667 C   0  0  0  0  0  0  0  0  0  0  0  0
   13.6233  -17.8109   21.9697 O   0  0  0  0  0  0  0  0  0  0  0  0
   12.2479  -16.8543   23.6524 C   0  0  0  0  0  0  0  0  0  0  0  0
   11.9284  -17.0669   25.1089 C   0  0  0  0  0  0  0  0  0  0  0  0
   10.5081  -17.4475   25.3582 C   0  0  2  0  0  0  0  0  0  0  0  0
    9.5645  -16.8196   24.4594 N   0  0  0  0  0  0  0  0  0  0  0  0
   10.1031  -17.2992   26.7799 C   0  0  0  0  0  0  0  0  0  0  0  0
    8.9867  -16.5703   27.1719 O   0  0  0  0  0  0  0  0  0  0  0  0
   10.7629  -17.8353   27.7070 O   0  0  0  0  0  0  0  0  0  0  0  0
  2  3  1  0
  2  1  1  1
  3  4  1  0
  4  5  2  0
  4  8  1  0
  6  7  2  0
  6  2  1  0
  9 10  1  0
 11 10  1  0
 12 11  1  0
 13 12  1  1
 13 14  1  0
 14  6  1  0
 15 13  1  0
 15 23  1  0
 16 15  2  0
 17 18  1  0
 18 19  2  0
 20 21  1  0
 20 18  1  0
 22 21  1  1
 22 23  1  0
 24 22  1  0
 25 24  1  0
 26 24  2  0
M  END
$$$$
