DMQ.pdb
     RDKit          3D

 26 25  0  0  1  0  0  0  0  0999 V2000
    8.2161  -16.5644   20.2633 N   0  0  0  0  0  0  0  0  0  0  0  0
    9.6203  -16.5600   20.5718 C   0  0  1  0  0  0  0  0  0  0  0  0
   10.3504  -15.8068   19.5019 C   0  0  0  0  0  0  0  0  0  0  0  0
   10.4924  -16.6195   18.2687 C   0  0  0  0  0  0  0  0  0  0  0  0
    9.7485  -16.3924   17.2907 O   0  0  0  0  0  0  0  0  0  0  0  0
    9.8433  -15.9525   21.9269 C   0  0  0  0  0  0  0  0  0  0  0  0
   11.0124  -15.8527   22.3641 O   0  0  0  0  0  0  0  0  0  0  0  0
   11.4303  -17.6288   18.1678 O   0  0  0  0  0  0  0  0  0  0  0  0
    6.7876  -11.4301   27.5708 C   0  0  0  0  0  0  0  0  0  0  0  0
    6.3166  -12.5437   26.2310 S   0  0  0  0  0  0  0  0  0  0  0  0
    7.6147  -13.8051   25.9454 C   0  0  0  0  0  0  0  0  0  0  0  0
    7.6224  -14.1454   24.4921 C   0  0  0  0  0  0  0  0  0  0  0  0
    8.7506  -15.0721   24.0690 C   0  0  2  0  0  0  0  0  0  0  0  0
    8.7728  -15.4899   22.7240 N   0  0  0  0  0  0  0  0  0  0  0  0
    9.0436  -16.0201   25.1129 C   0  0  0  0  0  0  0  0  0  0  0  0
    8.1003  -16.7209   25.5679 O   0  0  0  0  0  0  0  0  0  0  0  0
   13.9986  -19.5947   25.4990 N   0  0  0  0  0  0  0  0  0  0  0  0
   14.0924  -18.1903   25.3696 C   0  0  0  0  0  0  0  0  0  0  0  0
   15.1418  -17.6794   24.9270 O   0  0  0  0  0  0  0  0  0  0  0  0
   12.9433  -17.3508   25.7615 C   0  0  0  0  0  0  0  0  0  0  0  0
   11.7798  -18.1773   26.2434 C   0  0  0  0  0  0  0  0  0  0  0  0
   10.5813  -17.3661   26.6036 C   0  0  2  0  0  0  0  0  0  0  0  0
   10.3289  -16.2594   25.7071 N   0  0  0  0  0  0  0  0  0  0  0  0
   10.5684  -16.9410   28.0271 C   0  0  0  0  0  0  0  0  0  0  0  0
   10.3526  -15.6247   28.4172 O   0  0  0  0  0  0  0  0  0  0  0  0
   10.7551  -17.7666   28.9577 O   0  0  0  0  0  0  0  0  0  0  0  0
  2  3  1  0
  2  1  1  6
  3  4  1  0
  4  5  2  0
  4  8  1  0
  6  7  2  0
  6  2  1  0
  9 10  1  0
 11 10  1  0
 12 11  1  0
 13 12  1  1
 13 14  1  0
 14  6  1  0
 15 13  1  0
 15 23  1  0
 16 15  2  0
 17 18  1  0
 18 19  2  0
 20 21  1  0
 20 18  1  0
 22 21  1  6
 22 23  1  0
 24 22  1  0
 25 24  1  0
 26 24  2  0
M  END
$$$$
