DMQ.pdb
     RDKit          3D

 26 25  0  0  1  0  0  0  0  0999 V2000
    8.7891  -17.0145   20.8163 N   0  0  0  0  0  0  0  0  0  0  0  0
   10.1155  -17.1389   21.3568 C   0  0  1  0  0  0  0  0  0  0  0  0
   11.1076  -16.7470   20.3046 C   0  0  0  0  0  0  0  0  0  0  0  0
   10.9955  -17.6137   19.1055 C   0  0  0  0  0  0  0  0  0  0  0  0
   12.0010  -17.8111   18.3903 O   0  0  0  0  0  0  0  0  0  0  0  0
   10.2473  -16.2873   22.5866 C   0  0  0  0  0  0  0  0  0  0  0  0
   11.3906  -16.0219   23.0232 O   0  0  0  0  0  0  0  0  0  0  0  0
    9.8027  -18.2145   18.7524 O   0  0  0  0  0  0  0  0  0  0  0  0
    6.1987  -11.4751   27.5684 C   0  0  0  0  0  0  0  0  0  0  0  0
    6.2648  -12.4381   26.0435 S   0  0  0  0  0  0  0  0  0  0  0  0
    7.7450  -13.5181   26.0184 C   0  0  0  0  0  0  0  0  0  0  0  0
    7.7849  -14.2241   24.7040 C   0  0  0  0  0  0  0  0  0  0  0  0
    9.0294  -15.0677   24.4806 C   0  0  2  0  0  0  0  0  0  0  0  0
    9.1196  -15.7764   23.2665 N   0  0  0  0  0  0  0  0  0  0  0  0
    9.4346  -15.7046   25.7072 C   0  0  0  0  0  0  0  0  0  0  0  0
    8.7099  -16.6243   26.1726 O   0  0  0  0  0  0  0  0  0  0  0  0
   14.2815  -15.7014   25.4347 N   0  0  0  0  0  0  0  0  0  0  0  0
   13.7827  -17.0131   25.2663 C   0  0  0  0  0  0  0  0  0  0  0  0
   14.1162  -17.6768   24.2630 O   0  0  0  0  0  0  0  0  0  0  0  0
   12.8735  -17.5760   26.2838 C   0  0  0  0  0  0  0  0  0  0  0  0
   12.5684  -16.5854   27.3768 C   0  0  0  0  0  0  0  0  0  0  0  0
   11.1161  -16.2728   27.5094 C   0  0  2  0  0  0  0  0  0  0  0  0
   10.6066  -15.3963   26.4777 N   0  0  0  0  0  0  0  0  0  0  0  0
   10.7393  -15.8071   28.8690 C   0  0  0  0  0  0  0  0  0  0  0  0
   10.0116  -14.6441   29.0910 O   0  0  0  0  0  0  0  0  0  0  0  0
   11.0672  -16.4549   29.8962 O   0  0  0  0  0  0  0  0  0  0  0  0
  2  3  1  0
  2  1  1  6
  3  4  1  0
  4  5  2  0
  4  8  1  0
  6  7  2  0
  6  2  1  0
  9 10  1  0
 11 10  1  0
 12 11  1  0
 13 12  1  1
 13 14  1  0
 14  6  1  0
 15 13  1  0
 15 23  1  0
 16 15  2  0
 17 18  1  0
 18 19  2  0
 20 21  1  0
 20 18  1  0
 22 21  1  1
 22 23  1  0
 24 22  1  0
 25 24  1  0
 26 24  2  0
M  END
$$$$
