DMQ.pdb
     RDKit          3D

 26 25  0  0  1  0  0  0  0  0999 V2000
    8.0272  -15.6796   19.6389 N   0  0  0  0  0  0  0  0  0  0  0  0
    8.7949  -16.6418   20.3817 C   0  0  1  0  0  0  0  0  0  0  0  0
    9.9992  -17.0274   19.5778 C   0  0  0  0  0  0  0  0  0  0  0  0
    9.6293  -17.3838   18.1858 C   0  0  0  0  0  0  0  0  0  0  0  0
    8.6255  -16.8574   17.6598 O   0  0  0  0  0  0  0  0  0  0  0  0
    9.1797  -16.0682   21.7150 C   0  0  0  0  0  0  0  0  0  0  0  0
   10.3619  -16.1871   22.1103 O   0  0  0  0  0  0  0  0  0  0  0  0
   10.3675  -18.2880   17.4469 O   0  0  0  0  0  0  0  0  0  0  0  0
    6.4751  -11.4535   27.7232 C   0  0  0  0  0  0  0  0  0  0  0  0
    6.3026  -12.0886   26.0427 S   0  0  0  0  0  0  0  0  0  0  0  0
    7.5582  -13.3791   25.7017 C   0  0  0  0  0  0  0  0  0  0  0  0
    7.3716  -13.8520   24.2984 C   0  0  0  0  0  0  0  0  0  0  0  0
    8.3812  -14.8945   23.8463 C   0  0  2  0  0  0  0  0  0  0  0  0
    8.2473  -15.3979   22.5376 N   0  0  0  0  0  0  0  0  0  0  0  0
    8.6948  -15.7949   24.9258 C   0  0  0  0  0  0  0  0  0  0  0  0
    7.8087  -16.6062   25.3059 O   0  0  0  0  0  0  0  0  0  0  0  0
   14.0251  -18.7657   25.3144 N   0  0  0  0  0  0  0  0  0  0  0  0
   13.3345  -19.3741   26.3871 C   0  0  0  0  0  0  0  0  0  0  0  0
   13.8456  -20.3476   26.9781 O   0  0  0  0  0  0  0  0  0  0  0  0
   12.0168  -18.8449   26.7902 C   0  0  0  0  0  0  0  0  0  0  0  0
   11.6197  -17.6414   25.9761 C   0  0  0  0  0  0  0  0  0  0  0  0
   10.3312  -17.0277   26.4093 C   0  0  2  0  0  0  0  0  0  0  0  0
    9.9415  -15.8700   25.6346 N   0  0  0  0  0  0  0  0  0  0  0  0
   10.2703  -16.7639   27.8701 C   0  0  0  0  0  0  0  0  0  0  0  0
   10.0787  -17.7706   28.8089 O   0  0  0  0  0  0  0  0  0  0  0  0
   10.3914  -15.5993   28.3298 O   0  0  0  0  0  0  0  0  0  0  0  0
  2  3  1  0
  2  1  1  6
  3  4  1  0
  4  5  2  0
  4  8  1  0
  6  7  2  0
  6  2  1  0
  9 10  1  0
 11 10  1  0
 12 11  1  0
 13 12  1  1
 13 14  1  0
 14  6  1  0
 15 13  1  0
 15 23  1  0
 16 15  2  0
 17 18  1  0
 18 19  2  0
 20 21  1  0
 20 18  1  0
 22 21  1  6
 22 23  1  0
 24 22  1  0
 25 24  1  0
 26 24  2  0
M  END
$$$$
