DMQ.pdb
     RDKit          3D

 26 25  0  0  1  0  0  0  0  0999 V2000
    7.8586  -16.3933   20.6639 N   0  0  0  0  0  0  0  0  0  0  0  0
    9.2624  -16.2874   20.9558 C   0  0  1  0  0  0  0  0  0  0  0  0
    9.8822  -15.3036   20.0107 C   0  0  0  0  0  0  0  0  0  0  0  0
   10.0045  -15.8689   18.6443 C   0  0  0  0  0  0  0  0  0  0  0  0
    9.5101  -16.9886   18.3930 O   0  0  0  0  0  0  0  0  0  0  0  0
    9.4566  -15.8778   22.3874 C   0  0  0  0  0  0  0  0  0  0  0  0
   10.6114  -15.6144   22.7936 O   0  0  0  0  0  0  0  0  0  0  0  0
   10.6542  -15.1889   17.6324 O   0  0  0  0  0  0  0  0  0  0  0  0
    6.9962  -10.7864   26.1190 C   0  0  0  0  0  0  0  0  0  0  0  0
    6.3036  -12.4527   26.0958 S   0  0  0  0  0  0  0  0  0  0  0  0
    7.1045  -13.4733   24.8015 C   0  0  0  0  0  0  0  0  0  0  0  0
    7.2359  -14.8664   25.3211 C   0  0  0  0  0  0  0  0  0  0  0  0
    8.3653  -15.6676   24.6944 C   0  0  2  0  0  0  0  0  0  0  0  0
    8.3748  -15.7808   23.2904 N   0  0  0  0  0  0  0  0  0  0  0  0
    8.6768  -16.8184   25.5025 C   0  0  0  0  0  0  0  0  0  0  0  0
    7.7601  -17.6497   25.7399 O   0  0  0  0  0  0  0  0  0  0  0  0
   13.6046  -20.2093   26.6257 N   0  0  0  0  0  0  0  0  0  0  0  0
   13.4281  -19.2600   25.5935 C   0  0  0  0  0  0  0  0  0  0  0  0
   14.4163  -18.8667   24.9402 O   0  0  0  0  0  0  0  0  0  0  0  0
   12.0732  -18.7495   25.3061 C   0  0  0  0  0  0  0  0  0  0  0  0
   11.0417  -19.3342   26.2352 C   0  0  0  0  0  0  0  0  0  0  0  0
   10.1788  -18.3084   26.8890 C   0  0  2  0  0  0  0  0  0  0  0  0
    9.9533  -17.1290   26.0825 N   0  0  0  0  0  0  0  0  0  0  0  0
   10.6196  -17.9635   28.2652 C   0  0  0  0  0  0  0  0  0  0  0  0
   10.8351  -16.6548   28.6803 O   0  0  0  0  0  0  0  0  0  0  0  0
   10.8207  -18.8547   29.1299 O   0  0  0  0  0  0  0  0  0  0  0  0
  2  3  1  0
  2  1  1  6
  3  4  1  0
  4  5  2  0
  4  8  1  0
  6  7  2  0
  6  2  1  0
  9 10  1  0
 11 10  1  0
 12 11  1  0
 13 12  1  1
 13 14  1  0
 14  6  1  0
 15 13  1  0
 15 23  1  0
 16 15  2  0
 17 18  1  0
 18 19  2  0
 20 21  1  0
 20 18  1  0
 22 21  1  6
 22 23  1  0
 24 22  1  0
 25 24  1  0
 26 24  2  0
M  END
$$$$
