DMQ.pdb
     RDKit          3D

 26 25  0  0  1  0  0  0  0  0999 V2000
    8.2381  -16.3761   20.1716 N   0  0  0  0  0  0  0  0  0  0  0  0
    9.4969  -16.8025   20.7200 C   0  0  1  0  0  0  0  0  0  0  0  0
   10.5836  -16.5016   19.7333 C   0  0  0  0  0  0  0  0  0  0  0  0
   10.2168  -16.9553   18.3691 C   0  0  0  0  0  0  0  0  0  0  0  0
    9.0894  -17.4548   18.1669 O   0  0  0  0  0  0  0  0  0  0  0  0
    9.7383  -16.1190   22.0351 C   0  0  0  0  0  0  0  0  0  0  0  0
   10.9136  -15.9923   22.4482 O   0  0  0  0  0  0  0  0  0  0  0  0
   11.0915  -16.8413   17.3059 O   0  0  0  0  0  0  0  0  0  0  0  0
    6.4473  -11.4315   27.6185 C   0  0  0  0  0  0  0  0  0  0  0  0
    6.3008  -12.3103   26.0490 S   0  0  0  0  0  0  0  0  0  0  0  0
    7.6907  -13.4837   25.8269 C   0  0  0  0  0  0  0  0  0  0  0  0
    7.5633  -14.1073   24.4768 C   0  0  0  0  0  0  0  0  0  0  0  0
    8.6849  -15.0690   24.1197 C   0  0  2  0  0  0  0  0  0  0  0  0
    8.6786  -15.6144   22.8209 N   0  0  0  0  0  0  0  0  0  0  0  0
    9.0043  -15.9117   25.2431 C   0  0  0  0  0  0  0  0  0  0  0  0
    8.1828  -16.8089   25.5718 O   0  0  0  0  0  0  0  0  0  0  0  0
   13.7216  -18.6453   24.9316 N   0  0  0  0  0  0  0  0  0  0  0  0
   12.7703  -19.5415   25.4698 C   0  0  0  0  0  0  0  0  0  0  0  0
   12.8056  -20.7469   25.1473 O   0  0  0  0  0  0  0  0  0  0  0  0
   11.7491  -19.0336   26.4068 C   0  0  0  0  0  0  0  0  0  0  0  0
   11.8698  -17.5475   26.6206 C   0  0  0  0  0  0  0  0  0  0  0  0
   10.5774  -16.8882   26.9665 C   0  0  2  0  0  0  0  0  0  0  0  0
   10.1894  -15.8379   26.0508 N   0  0  0  0  0  0  0  0  0  0  0  0
   10.5076  -16.4437   28.3824 C   0  0  0  0  0  0  0  0  0  0  0  0
   10.7456  -15.1309   28.7713 O   0  0  0  0  0  0  0  0  0  0  0  0
   10.2253  -17.2484   29.3072 O   0  0  0  0  0  0  0  0  0  0  0  0
  2  3  1  0
  2  1  1  6
  3  4  1  0
  4  5  2  0
  4  8  1  0
  6  7  2  0
  6  2  1  0
  9 10  1  0
 11 10  1  0
 12 11  1  0
 13 12  1  1
 13 14  1  0
 14  6  1  0
 15 13  1  0
 15 23  1  0
 16 15  2  0
 17 18  1  0
 18 19  2  0
 20 21  1  0
 20 18  1  0
 22 21  1  6
 22 23  1  0
 24 22  1  0
 25 24  1  0
 26 24  2  0
M  END
$$$$
