DMQ.pdb
     RDKit          3D

 26 25  0  0  1  0  0  0  0  0999 V2000
    8.2877  -16.7635   20.0931 N   0  0  0  0  0  0  0  0  0  0  0  0
    9.6663  -16.8409   20.4936 C   0  0  1  0  0  0  0  0  0  0  0  0
   10.5110  -16.1567   19.4625 C   0  0  0  0  0  0  0  0  0  0  0  0
   10.5314  -16.9169   18.1884 C   0  0  0  0  0  0  0  0  0  0  0  0
    9.5560  -17.6354   17.8825 O   0  0  0  0  0  0  0  0  0  0  0  0
    9.8390  -16.2215   21.8506 C   0  0  0  0  0  0  0  0  0  0  0  0
   10.9783  -16.2021   22.3701 O   0  0  0  0  0  0  0  0  0  0  0  0
   11.6058  -16.8539   17.3221 O   0  0  0  0  0  0  0  0  0  0  0  0
    6.2744  -11.5567   27.3041 C   0  0  0  0  0  0  0  0  0  0  0  0
    6.2351  -12.3719   25.6945 S   0  0  0  0  0  0  0  0  0  0  0  0
    7.5916  -13.5955   25.5503 C   0  0  0  0  0  0  0  0  0  0  0  0
    7.5552  -14.1721   24.1741 C   0  0  0  0  0  0  0  0  0  0  0  0
    8.6909  -15.1337   23.8647 C   0  0  2  0  0  0  0  0  0  0  0  0
    8.7541  -15.6597   22.5594 N   0  0  0  0  0  0  0  0  0  0  0  0
    8.9445  -15.9947   24.9911 C   0  0  0  0  0  0  0  0  0  0  0  0
    8.2396  -17.0306   25.1240 O   0  0  0  0  0  0  0  0  0  0  0  0
   13.5733  -19.1661   27.4507 N   0  0  0  0  0  0  0  0  0  0  0  0
   12.7628  -19.6495   26.3984 C   0  0  0  0  0  0  0  0  0  0  0  0
   12.9170  -20.8178   25.9865 O   0  0  0  0  0  0  0  0  0  0  0  0
   11.7453  -18.7606   25.8040 C   0  0  0  0  0  0  0  0  0  0  0  0
   11.7860  -17.3785   26.4015 C   0  0  0  0  0  0  0  0  0  0  0  0
   10.4484  -16.8730   26.8255 C   0  0  2  0  0  0  0  0  0  0  0  0
    9.9404  -15.7946   26.0062 N   0  0  0  0  0  0  0  0  0  0  0  0
   10.3767  -16.5504   28.2740 C   0  0  0  0  0  0  0  0  0  0  0  0
   10.4082  -17.5251   29.2642 O   0  0  0  0  0  0  0  0  0  0  0  0
   10.2828  -15.3619   28.6753 O   0  0  0  0  0  0  0  0  0  0  0  0
  2  3  1  0
  2  1  1  6
  3  4  1  0
  4  5  2  0
  4  8  1  0
  6  7  2  0
  6  2  1  0
  9 10  1  0
 11 10  1  0
 12 11  1  0
 13 12  1  1
 13 14  1  0
 14  6  1  0
 15 13  1  0
 15 23  1  0
 16 15  2  0
 17 18  1  0
 18 19  2  0
 20 21  1  0
 20 18  1  0
 22 21  1  6
 22 23  1  0
 24 22  1  0
 25 24  1  0
 26 24  2  0
M  END
$$$$
