DMQ.pdb
     RDKit          3D

 26 25  0  0  1  0  0  0  0  0999 V2000
    7.4217  -16.5839   20.6770 N   0  0  0  0  0  0  0  0  0  0  0  0
    8.8247  -16.2794   20.6014 C   0  0  1  0  0  0  0  0  0  0  0  0
    9.0528  -15.3151   19.4775 C   0  0  0  0  0  0  0  0  0  0  0  0
    8.8585  -15.9657   18.1583 C   0  0  0  0  0  0  0  0  0  0  0  0
    7.7074  -16.2828   17.7899 O   0  0  0  0  0  0  0  0  0  0  0  0
    9.2975  -15.7224   21.9134 C   0  0  0  0  0  0  0  0  0  0  0  0
   10.5078  -15.4318   22.0504 O   0  0  0  0  0  0  0  0  0  0  0  0
    9.9211  -16.2341   17.3172 O   0  0  0  0  0  0  0  0  0  0  0  0
    5.8843  -12.3709   27.1531 C   0  0  0  0  0  0  0  0  0  0  0  0
    7.0997  -11.9619   25.8833 S   0  0  0  0  0  0  0  0  0  0  0  0
    7.0975  -13.2192   24.5501 C   0  0  0  0  0  0  0  0  0  0  0  0
    7.5706  -14.5117   25.1273 C   0  0  0  0  0  0  0  0  0  0  0  0
    8.6853  -15.1816   24.3404 C   0  0  2  0  0  0  0  0  0  0  0  0
    8.4172  -15.5164   22.9987 N   0  0  0  0  0  0  0  0  0  0  0  0
    9.4051  -16.1092   25.1744 C   0  0  0  0  0  0  0  0  0  0  0  0
    8.8695  -17.2192   25.4367 O   0  0  0  0  0  0  0  0  0  0  0  0
   15.1711  -17.3028   23.1656 N   0  0  0  0  0  0  0  0  0  0  0  0
   14.5291  -16.7700   24.3064 C   0  0  0  0  0  0  0  0  0  0  0  0
   14.9199  -15.6856   24.7854 O   0  0  0  0  0  0  0  0  0  0  0  0
   13.4039  -17.5087   24.9126 C   0  0  0  0  0  0  0  0  0  0  0  0
   12.9280  -16.8637   26.1878 C   0  0  0  0  0  0  0  0  0  0  0  0
   11.4535  -16.9602   26.3903 C   0  0  2  0  0  0  0  0  0  0  0  0
   10.7019  -15.9002   25.7550 N   0  0  0  0  0  0  0  0  0  0  0  0
   11.0685  -17.1368   27.8143 C   0  0  0  0  0  0  0  0  0  0  0  0
   11.5168  -18.2004   28.5885 O   0  0  0  0  0  0  0  0  0  0  0  0
   10.3075  -16.3187   28.3921 O   0  0  0  0  0  0  0  0  0  0  0  0
  2  3  1  0
  2  1  1  1
  3  4  1  0
  4  5  2  0
  4  8  1  0
  6  7  2  0
  6  2  1  0
  9 10  1  0
 11 10  1  0
 12 11  1  0
 13 12  1  1
 13 14  1  0
 14  6  1  0
 15 13  1  0
 15 23  1  0
 16 15  2  0
 17 18  1  0
 18 19  2  0
 20 21  1  0
 20 18  1  0
 22 21  1  1
 22 23  1  0
 24 22  1  0
 25 24  1  0
 26 24  2  0
M  END
$$$$
