DMQ.pdb
     RDKit          3D

 26 25  0  0  1  0  0  0  0  0999 V2000
    9.1187  -16.6977   19.7015 N   0  0  0  0  0  0  0  0  0  0  0  0
    8.2539  -16.8535   20.8393 C   0  0  1  0  0  0  0  0  0  0  0  0
    8.2230  -18.2992   21.2317 C   0  0  0  0  0  0  0  0  0  0  0  0
    7.6777  -19.1445   20.1409 C   0  0  0  0  0  0  0  0  0  0  0  0
    8.2701  -20.1971   19.8208 O   0  0  0  0  0  0  0  0  0  0  0  0
    8.7318  -15.9840   21.9665 C   0  0  0  0  0  0  0  0  0  0  0  0
    9.9619  -15.8039   22.1166 O   0  0  0  0  0  0  0  0  0  0  0  0
    6.5247  -18.8002   19.4623 O   0  0  0  0  0  0  0  0  0  0  0  0
    6.1097  -11.2256   27.9126 C   0  0  0  0  0  0  0  0  0  0  0  0
    5.8319  -12.0472   26.3299 S   0  0  0  0  0  0  0  0  0  0  0  0
    7.2690  -13.0894   25.8757 C   0  0  0  0  0  0  0  0  0  0  0  0
    6.9559  -13.7808   24.5904 C   0  0  0  0  0  0  0  0  0  0  0  0
    8.0810  -14.6506   24.0536 C   0  0  2  0  0  0  0  0  0  0  0  0
    7.8348  -15.3627   22.8634 N   0  0  0  0  0  0  0  0  0  0  0  0
    8.7817  -15.2939   25.1350 C   0  0  0  0  0  0  0  0  0  0  0  0
    9.1768  -14.5849   26.0988 O   0  0  0  0  0  0  0  0  0  0  0  0
    7.7656  -20.7365   27.8066 N   0  0  0  0  0  0  0  0  0  0  0  0
    7.1676  -20.0723   26.7116 C   0  0  0  0  0  0  0  0  0  0  0  0
    6.1341  -20.5428   26.1931 O   0  0  0  0  0  0  0  0  0  0  0  0
    7.7785  -18.8299   26.1997 C   0  0  0  0  0  0  0  0  0  0  0  0
    9.0586  -18.4935   26.9186 C   0  0  0  0  0  0  0  0  0  0  0  0
    9.7327  -17.2706   26.3947 C   0  0  2  0  0  0  0  0  0  0  0  0
    9.0869  -16.6936   25.2362 N   0  0  0  0  0  0  0  0  0  0  0  0
   11.1922  -17.4515   26.1837 C   0  0  0  0  0  0  0  0  0  0  0  0
   12.0626  -17.8028   27.2086 O   0  0  0  0  0  0  0  0  0  0  0  0
   11.7136  -17.2924   25.0500 O   0  0  0  0  0  0  0  0  0  0  0  0
  2  3  1  0
  2  1  1  6
  3  4  1  0
  4  5  2  0
  4  8  1  0
  6  7  2  0
  6  2  1  0
  9 10  1  0
 11 10  1  0
 12 11  1  0
 13 12  1  1
 13 14  1  0
 14  6  1  0
 15 13  1  0
 15 23  1  0
 16 15  2  0
 17 18  1  0
 18 19  2  0
 20 21  1  0
 20 18  1  0
 22 21  1  6
 22 23  1  0
 24 22  1  0
 25 24  1  0
 26 24  2  0
M  END
$$$$
