DMQ.pdb
     RDKit          3D

 26 25  0  0  1  0  0  0  0  0999 V2000
    7.5761  -17.0048   21.3102 N   0  0  0  0  0  0  0  0  0  0  0  0
    8.8516  -16.3441   21.2504 C   0  0  1  0  0  0  0  0  0  0  0  0
    8.8242  -15.3342   20.1439 C   0  0  0  0  0  0  0  0  0  0  0  0
    8.9440  -15.9837   18.8152 C   0  0  0  0  0  0  0  0  0  0  0  0
    8.0823  -16.8133   18.4537 O   0  0  0  0  0  0  0  0  0  0  0  0
    9.1586  -15.7061   22.5747 C   0  0  0  0  0  0  0  0  0  0  0  0
   10.3251  -15.3135   22.8052 O   0  0  0  0  0  0  0  0  0  0  0  0
    9.9885  -15.6968   17.9578 O   0  0  0  0  0  0  0  0  0  0  0  0
    6.1669  -10.2492   26.0150 C   0  0  0  0  0  0  0  0  0  0  0  0
    6.4329  -11.9684   26.4951 S   0  0  0  0  0  0  0  0  0  0  0  0
    6.8028  -13.0045   25.0296 C   0  0  0  0  0  0  0  0  0  0  0  0
    7.0484  -14.4010   25.4958 C   0  0  0  0  0  0  0  0  0  0  0  0
    8.2775  -15.0593   24.8905 C   0  0  2  0  0  0  0  0  0  0  0  0
    8.1701  -15.5355   23.5692 N   0  0  0  0  0  0  0  0  0  0  0  0
    8.9639  -15.8516   25.8781 C   0  0  0  0  0  0  0  0  0  0  0  0
    8.5519  -15.8139   27.0684 O   0  0  0  0  0  0  0  0  0  0  0  0
    8.1676  -20.4320   28.4419 N   0  0  0  0  0  0  0  0  0  0  0  0
    8.6201  -20.7015   27.1303 C   0  0  0  0  0  0  0  0  0  0  0  0
    8.3114  -21.7782   26.5793 O   0  0  0  0  0  0  0  0  0  0  0  0
    9.4523  -19.7008   26.4338 C   0  0  0  0  0  0  0  0  0  0  0  0
    9.7234  -18.4953   27.2952 C   0  0  0  0  0  0  0  0  0  0  0  0
   10.6790  -17.5278   26.6826 C   0  0  2  0  0  0  0  0  0  0  0  0
   10.0973  -16.7026   25.6468 N   0  0  0  0  0  0  0  0  0  0  0  0
   11.9490  -18.1595   26.2409 C   0  0  0  0  0  0  0  0  0  0  0  0
   12.4172  -18.0744   24.9351 O   0  0  0  0  0  0  0  0  0  0  0  0
   12.6689  -18.8098   27.0416 O   0  0  0  0  0  0  0  0  0  0  0  0
  2  3  1  0
  2  1  1  1
  3  4  1  0
  4  5  2  0
  4  8  1  0
  6  7  2  0
  6  2  1  0
  9 10  1  0
 11 10  1  0
 12 11  1  0
 13 12  1  1
 13 14  1  0
 14  6  1  0
 15 13  1  0
 15 23  1  0
 16 15  2  0
 17 18  1  0
 18 19  2  0
 20 21  1  0
 20 18  1  0
 22 21  1  6
 22 23  1  0
 24 22  1  0
 25 24  1  0
 26 24  2  0
M  END
$$$$
