NEL.pdb
     RDKit          3D

 26 25  0  0  1  0  0  0  0  0999 V2000
   15.7342  -15.5514  -15.9601 N   0  0  0  0  0  0  0  0  0  0  0  0
   17.0124  -15.3453  -15.3709 C   0  0  0  0  0  0  0  0  0  0  0  0
   17.4436  -16.2867  -14.6209 O   0  0  0  0  0  0  0  0  0  0  0  0
   17.7945  -14.1092  -15.6157 C   0  0  0  0  0  0  0  0  0  0  0  0
   16.9603  -13.1859  -16.4751 C   0  0  2  0  0  0  0  0  0  0  0  0
   16.8169  -13.7226  -17.8142 N   0  0  0  0  0  0  0  0  0  0  0  0
   17.5280  -11.8151  -16.5286 C   0  0  0  0  0  0  0  0  0  0  0  0
   18.6836  -11.6964  -17.0419 O   0  0  0  0  0  0  0  0  0  0  0  0
   16.8477  -10.6668  -16.0421 N   0  0  0  0  0  0  0  0  0  0  0  0
   17.4631   -9.3193  -16.0697 C   0  0  1  0  0  0  0  0  0  0  0  0
   16.3474   -8.3821  -15.7808 C   0  0  0  0  0  0  0  0  0  0  0  0
   16.6929   -6.9523  -15.5806 C   0  0  0  0  0  0  0  0  0  0  0  0
   15.3920   -6.2232  -15.3214 C   0  0  0  0  0  0  0  0  0  0  0  0
   14.3336   -6.9197  -15.2938 O   0  0  0  0  0  0  0  0  0  0  0  0
   18.5914   -9.3166  -15.1415 C   0  0  0  0  0  0  0  0  0  0  0  0
   18.7537  -10.3156  -14.3516 O   0  0  0  0  0  0  0  0  0  0  0  0
   15.3112   -4.8705  -15.1194 O   0  0  0  0  0  0  0  0  0  0  0  0
   23.6340  -10.6779  -16.3695 C   0  0  0  0  0  0  0  0  0  0  0  0
   22.9682   -9.9664  -15.1997 C   0  0  2  0  0  0  0  0  0  0  0  0
   23.3846  -10.4856  -13.8787 C   0  0  0  0  0  0  0  0  0  0  0  0
   21.5404   -9.6580  -15.4176 C   0  0  0  0  0  0  0  0  0  0  0  0
   20.9594   -8.5589  -14.6110 C   0  0  2  0  0  0  0  0  0  0  0  0
   19.5678   -8.3127  -15.0009 N   0  0  0  0  0  0  0  0  0  0  0  0
   21.6447   -7.2730  -14.6251 C   0  0  0  0  0  0  0  0  0  0  0  0
   21.5053   -6.3898  -15.6771 O   0  0  0  0  0  0  0  0  0  0  0  0
   22.3838   -6.9225  -13.6859 O   0  0  0  0  0  0  0  0  0  0  0  0
  2  3  2  0
  2  1  1  0
  4  2  1  0
  5  4  1  0
  5  6  1  6
  7  5  1  0
  7  8  2  0
  9  7  1  0
 10  9  1  0
 11 12  1  0
 10 11  1  1
 12 13  1  0
 13 17  1  0
 13 14  2  0
 15 10  1  0
 16 15  2  0
 19 20  1  1
 19 18  1  0
 21 19  1  0
 22 21  1  6
 22 23  1  0
 23 15  1  0
 24 22  1  0
 25 24  1  0
 26 24  2  0
M  END
$$$$
