NEL.pdb
     RDKit          3D

 26 25  0  0  1  0  0  0  0  0999 V2000
   28.4661  -33.8771   -5.5773 N   0  0  0  0  0  0  0  0  0  0  0  0
   27.5248  -33.9664   -4.5146 C   0  0  0  0  0  0  0  0  0  0  0  0
   26.4428  -33.3019   -4.6651 O   0  0  0  0  0  0  0  0  0  0  0  0
   27.7882  -34.7836   -3.3053 C   0  0  0  0  0  0  0  0  0  0  0  0
   29.1548  -35.4146   -3.4511 C   0  0  2  0  0  0  0  0  0  0  0  0
   29.0412  -36.8502   -3.6181 N   0  0  0  0  0  0  0  0  0  0  0  0
   30.0367  -35.0990   -2.2992 C   0  0  0  0  0  0  0  0  0  0  0  0
   30.2085  -33.8692   -2.0330 O   0  0  0  0  0  0  0  0  0  0  0  0
   30.6757  -36.0910   -1.5081 N   0  0  0  0  0  0  0  0  0  0  0  0
   31.3844  -35.7560   -0.2508 C   0  0  1  0  0  0  0  0  0  0  0  0
   30.9487  -36.7903    0.7223 C   0  0  0  0  0  0  0  0  0  0  0  0
   29.6361  -36.5910    1.3866 C   0  0  0  0  0  0  0  0  0  0  0  0
   29.4814  -37.7148    2.3887 C   0  0  0  0  0  0  0  0  0  0  0  0
   30.3018  -38.6776    2.3101 O   0  0  0  0  0  0  0  0  0  0  0  0
   32.8138  -35.6772   -0.5426 C   0  0  0  0  0  0  0  0  0  0  0  0
   33.3320  -36.5189   -1.3620 O   0  0  0  0  0  0  0  0  0  0  0  0
   28.5126  -37.7355    3.3573 O   0  0  0  0  0  0  0  0  0  0  0  0
   35.1887  -32.7608   -2.7085 C   0  0  0  0  0  0  0  0  0  0  0  0
   35.1055  -32.3139   -1.2554 C   0  0  2  0  0  0  0  0  0  0  0  0
   35.4197  -30.8818   -1.0595 C   0  0  0  0  0  0  0  0  0  0  0  0
   35.6503  -33.2930   -0.2932 C   0  0  0  0  0  0  0  0  0  0  0  0
   35.1493  -34.6841   -0.3934 C   0  0  2  0  0  0  0  0  0  0  0  0
   33.7340  -34.7511   -0.0169 N   0  0  0  0  0  0  0  0  0  0  0  0
   35.8469  -35.7118    0.3685 C   0  0  0  0  0  0  0  0  0  0  0  0
   35.2156  -36.4270    1.3666 O   0  0  0  0  0  0  0  0  0  0  0  0
   37.0420  -35.9834    0.1468 O   0  0  0  0  0  0  0  0  0  0  0  0
  2  3  2  0
  2  1  1  0
  4  2  1  0
  5  4  1  0
  5  6  1  1
  7  5  1  0
  7  8  2  0
  9  7  1  0
 10  9  1  0
 11 12  1  0
 10 11  1  1
 12 13  1  0
 13 17  1  0
 13 14  2  0
 15 10  1  0
 16 15  2  0
 19 20  1  6
 19 18  1  0
 21 19  1  0
 22 21  1  1
 22 23  1  0
 23 15  1  0
 24 22  1  0
 25 24  1  0
 26 24  2  0
M  END
$$$$
