NEL.pdb
     RDKit          3D

 26 25  0  0  1  0  0  0  0  0999 V2000
   27.1599  -21.5170   -9.9928 N   0  0  0  0  0  0  0  0  0  0  0  0
   26.0491  -20.6358  -10.1074 C   0  0  0  0  0  0  0  0  0  0  0  0
   25.6669  -20.0701   -9.0263 O   0  0  0  0  0  0  0  0  0  0  0  0
   25.3776  -20.3915  -11.4071 C   0  0  0  0  0  0  0  0  0  0  0  0
   25.9406  -21.3641  -12.4189 C   0  0  2  0  0  0  0  0  0  0  0  0
   27.3598  -21.1392  -12.6113 N   0  0  0  0  0  0  0  0  0  0  0  0
   25.2270  -21.2869  -13.7184 C   0  0  0  0  0  0  0  0  0  0  0  0
   25.6999  -20.4844  -14.5817 O   0  0  0  0  0  0  0  0  0  0  0  0
   24.0704  -22.0537  -14.0229 N   0  0  0  0  0  0  0  0  0  0  0  0
   23.4355  -22.0191  -15.3612 C   0  0  1  0  0  0  0  0  0  0  0  0
   23.1313  -23.4382  -15.6781 C   0  0  0  0  0  0  0  0  0  0  0  0
   22.3333  -23.7075  -16.9006 C   0  0  0  0  0  0  0  0  0  0  0  0
   21.7418  -25.0911  -16.7371 C   0  0  0  0  0  0  0  0  0  0  0  0
   22.4878  -25.9840  -16.2349 O   0  0  0  0  0  0  0  0  0  0  0  0
   22.3066  -21.0935  -15.3042 C   0  0  0  0  0  0  0  0  0  0  0  0
   21.6858  -20.9321  -14.1920 O   0  0  0  0  0  0  0  0  0  0  0  0
   20.4607  -25.4130  -17.1012 O   0  0  0  0  0  0  0  0  0  0  0  0
   21.0954  -16.5784  -15.5829 C   0  0  0  0  0  0  0  0  0  0  0  0
   21.4092  -17.1257  -16.9685 C   0  0  2  0  0  0  0  0  0  0  0  0
   21.5157  -16.0776  -18.0069 C   0  0  0  0  0  0  0  0  0  0  0  0
   20.6925  -18.3742  -17.2983 C   0  0  0  0  0  0  0  0  0  0  0  0
   20.6432  -19.4185  -16.2479 C   0  0  2  0  0  0  0  0  0  0  0  0
   21.7937  -20.3198  -16.3622 N   0  0  0  0  0  0  0  0  0  0  0  0
   19.4493  -20.2507  -16.1757 C   0  0  0  0  0  0  0  0  0  0  0  0
   18.3882  -19.9250  -15.3546 O   0  0  0  0  0  0  0  0  0  0  0  0
   19.3421  -21.2899  -16.8538 O   0  0  0  0  0  0  0  0  0  0  0  0
  2  3  2  0
  2  1  1  0
  4  2  1  0
  5  4  1  0
  5  6  1  6
  7  5  1  0
  7  8  2  0
  9  7  1  0
 10  9  1  0
 11 12  1  0
 10 11  1  1
 12 13  1  0
 13 17  1  0
 13 14  2  0
 15 10  1  0
 16 15  2  0
 19 20  1  6
 19 18  1  0
 21 19  1  0
 22 21  1  6
 22 23  1  0
 23 15  1  0
 24 22  1  0
 25 24  1  0
 26 24  2  0
M  END
$$$$
