NEL.pdb
     RDKit          3D

 26 25  0  0  1  0  0  0  0  0999 V2000
   23.3267  -26.3883  -17.3981 N   0  0  0  0  0  0  0  0  0  0  0  0
   24.3949  -26.9337  -16.6334 C   0  0  0  0  0  0  0  0  0  0  0  0
   24.5322  -28.2038  -16.6859 O   0  0  0  0  0  0  0  0  0  0  0  0
   25.2934  -26.0747  -15.8243 C   0  0  0  0  0  0  0  0  0  0  0  0
   24.8349  -24.6413  -15.9726 C   0  0  2  0  0  0  0  0  0  0  0  0
   25.0103  -24.1858  -17.3377 N   0  0  0  0  0  0  0  0  0  0  0  0
   25.5403  -23.7338  -15.0330 C   0  0  0  0  0  0  0  0  0  0  0  0
   26.1826  -24.2825  -14.0847 O   0  0  0  0  0  0  0  0  0  0  0  0
   25.5242  -22.3182  -15.1516 N   0  0  0  0  0  0  0  0  0  0  0  0
   26.3064  -21.4455  -14.2451 C   0  0  1  0  0  0  0  0  0  0  0  0
   26.3607  -20.1295  -14.9320 C   0  0  0  0  0  0  0  0  0  0  0  0
   26.9289  -18.9873  -14.1728 C   0  0  0  0  0  0  0  0  0  0  0  0
   26.9661  -17.8097  -15.1229 C   0  0  0  0  0  0  0  0  0  0  0  0
   26.0344  -16.9563  -15.0239 O   0  0  0  0  0  0  0  0  0  0  0  0
   25.6788  -21.4821  -12.9263 C   0  0  0  0  0  0  0  0  0  0  0  0
   24.4010  -21.5768  -12.8444 O   0  0  0  0  0  0  0  0  0  0  0  0
   27.9437  -17.6302  -16.0660 O   0  0  0  0  0  0  0  0  0  0  0  0
   28.5560  -20.5593   -8.0955 C   0  0  0  0  0  0  0  0  0  0  0  0
   27.1559  -20.4100   -8.6749 C   0  0  2  0  0  0  0  0  0  0  0  0
   26.2548  -19.5895   -7.8367 C   0  0  0  0  0  0  0  0  0  0  0  0
   26.6221  -21.6454   -9.2831 C   0  0  0  0  0  0  0  0  0  0  0  0
   25.6436  -21.4841  -10.3843 C   0  0  2  0  0  0  0  0  0  0  0  0
   26.3287  -21.4275  -11.6791 N   0  0  0  0  0  0  0  0  0  0  0  0
   24.7393  -20.3430  -10.3251 C   0  0  0  0  0  0  0  0  0  0  0  0
   23.5537  -20.3946   -9.6195 O   0  0  0  0  0  0  0  0  0  0  0  0
   25.0034  -19.2761  -10.9109 O   0  0  0  0  0  0  0  0  0  0  0  0
  2  3  2  0
  2  1  1  0
  4  2  1  0
  5  4  1  0
  5  6  1  6
  7  5  1  0
  7  8  2  0
  9  7  1  0
 10  9  1  0
 11 12  1  0
 10 11  1  6
 12 13  1  0
 13 17  1  0
 13 14  2  0
 15 10  1  0
 16 15  2  0
 19 20  1  1
 19 18  1  0
 21 19  1  0
 22 21  1  1
 22 23  1  0
 23 15  1  0
 24 22  1  0
 25 24  1  0
 26 24  2  0
M  END
$$$$
