NEL.pdb
     RDKit          3D

 26 25  0  0  1  0  0  0  0  0999 V2000
   29.4198  -20.7044  -18.5944 N   0  0  0  0  0  0  0  0  0  0  0  0
   28.3720  -20.0437  -17.8951 C   0  0  0  0  0  0  0  0  0  0  0  0
   28.3736  -18.7666  -17.9564 O   0  0  0  0  0  0  0  0  0  0  0  0
   27.3411  -20.7972  -17.1406 C   0  0  0  0  0  0  0  0  0  0  0  0
   27.1012  -20.0837  -15.8290 C   0  0  2  0  0  0  0  0  0  0  0  0
   28.3275  -19.9978  -15.0606 N   0  0  0  0  0  0  0  0  0  0  0  0
   26.0373  -20.7398  -15.0279 C   0  0  0  0  0  0  0  0  0  0  0  0
   25.0794  -21.2662  -15.6747 O   0  0  0  0  0  0  0  0  0  0  0  0
   26.0504  -20.7987  -13.6085 N   0  0  0  0  0  0  0  0  0  0  0  0
   24.9161  -21.3564  -12.8354 C   0  0  1  0  0  0  0  0  0  0  0  0
   25.4445  -21.5432  -11.4598 C   0  0  0  0  0  0  0  0  0  0  0  0
   25.5806  -20.3323  -10.6118 C   0  0  0  0  0  0  0  0  0  0  0  0
   26.1435  -20.7927   -9.2843 C   0  0  0  0  0  0  0  0  0  0  0  0
   25.3761  -20.7314   -8.2776 O   0  0  0  0  0  0  0  0  0  0  0  0
   23.7743  -20.4588  -12.9933 C   0  0  0  0  0  0  0  0  0  0  0  0
   23.9774  -19.2498  -13.3748 O   0  0  0  0  0  0  0  0  0  0  0  0
   27.4207  -21.2633   -9.1275 O   0  0  0  0  0  0  0  0  0  0  0  0
   21.2821  -18.3063  -15.5274 C   0  0  0  0  0  0  0  0  0  0  0  0
   21.4645  -19.7082  -16.0925 C   0  0  2  0  0  0  0  0  0  0  0  0
   20.5992  -19.9920  -17.2581 C   0  0  0  0  0  0  0  0  0  0  0  0
   21.6261  -20.7549  -15.0632 C   0  0  0  0  0  0  0  0  0  0  0  0
   21.3234  -20.3737  -13.6634 C   0  0  2  0  0  0  0  0  0  0  0  0
   22.4191  -20.7681  -12.7729 N   0  0  0  0  0  0  0  0  0  0  0  0
   20.0885  -20.8771  -13.0762 C   0  0  0  0  0  0  0  0  0  0  0  0
   19.1247  -20.0246  -12.5755 O   0  0  0  0  0  0  0  0  0  0  0  0
   19.8564  -22.0986  -13.0040 O   0  0  0  0  0  0  0  0  0  0  0  0
  2  3  2  0
  2  1  1  0
  4  2  1  0
  5  4  1  0
  5  6  1  1
  7  5  1  0
  7  8  2  0
  9  7  1  0
 10  9  1  0
 11 12  1  0
 10 11  1  1
 12 13  1  0
 13 17  1  0
 13 14  2  0
 15 10  1  0
 16 15  2  0
 19 20  1  1
 19 18  1  0
 21 19  1  0
 22 21  1  6
 22 23  1  0
 23 15  1  0
 24 22  1  0
 25 24  1  0
 26 24  2  0
M  END
$$$$
