NKP.pdb
     RDKit          3D

 25 25  0  0  1  0  0  0  0  0999 V2000
   14.8521  -23.8700    1.6518 N   0  0  0  0  0  0  0  0  0  0  0  0
   15.1315  -23.2679    2.9059 C   0  0  0  0  0  0  0  0  0  0  0  0
   14.4493  -23.6866    3.8973 O   0  0  0  0  0  0  0  0  0  0  0  0
   16.1642  -22.1990    3.0810 C   0  0  0  0  0  0  0  0  0  0  0  0
   15.4738  -20.9698    3.6330 C   0  0  2  0  0  0  0  0  0  0  0  0
   14.8504  -20.3106    2.5054 N   0  0  0  0  0  0  0  0  0  0  0  0
   16.3977  -20.0536    4.3044 C   0  0  0  0  0  0  0  0  0  0  0  0
   17.2817  -19.4562    3.6205 O   0  0  0  0  0  0  0  0  0  0  0  0
   16.2793  -19.8603    5.6947 N   0  0  0  0  0  0  0  0  0  0  0  0
   17.1702  -18.9497    6.3802 C   0  0  1  0  0  0  0  0  0  0  0  0
   16.4229  -18.3143    7.5582 C   0  0  0  0  0  0  0  0  0  0  0  0
   15.3586  -17.3673    7.0683 C   0  0  0  0  0  0  0  0  0  0  0  0
   14.6633  -16.7694    8.2641 C   0  0  0  0  0  0  0  0  0  0  0  0
   13.5302  -15.8402    7.9043 C   0  0  0  0  0  0  0  0  0  0  0  0
   13.0395  -15.2451    9.1396 N   0  0  0  0  0  0  0  0  0  0  0  0
   18.2723  -19.7442    6.9627 C   0  0  0  0  0  0  0  0  0  0  0  0
   18.0742  -20.9576    7.2038 O   0  0  0  0  0  0  0  0  0  0  0  0
   19.5267  -19.1834    7.2506 N   0  0  0  0  0  0  0  0  0  0  0  0
   20.0140  -17.8118    7.0971 C   0  0  0  0  0  0  0  0  0  0  0  0
   21.4835  -17.9504    6.8738 C   0  0  0  0  0  0  0  0  0  0  0  0
   21.7707  -19.4077    6.9505 C   0  0  0  0  0  0  0  0  0  0  0  0
   20.6519  -19.9658    7.7983 C   0  0  1  0  0  0  0  0  0  0  0  0
   20.8270  -19.6847    9.2384 C   0  0  0  0  0  0  0  0  0  0  0  0
   20.0749  -18.6586    9.7850 O   0  0  0  0  0  0  0  0  0  0  0  0
   21.6090  -20.3145    9.9878 O   0  0  0  0  0  0  0  0  0  0  0  0
  1  2  1  0
  2  3  2  0
  4  2  1  0
  5  4  1  0
  5  6  1  6
  7  5  1  0
  7  8  2  0
  9  7  1  0
 10  9  1  0
 10 11  1  1
 12 11  1  0
 13 12  1  0
 13 14  1  0
 14 15  1  0
 16 10  1  0
 17 16  2  0
 18 16  1  0
 18 19  1  0
 20 19  1  0
 21 20  1  0
 22 21  1  0
 22 18  1  0
 22 23  1  1
 24 23  1  0
 25 23  2  0
M  END
$$$$
