NKP.pdb
     RDKit          3D

 25 25  0  0  1  0  0  0  0  0999 V2000
   28.3817  -17.4497  -19.2173 N   0  0  0  0  0  0  0  0  0  0  0  0
   28.5454  -16.4925  -18.1827 C   0  0  0  0  0  0  0  0  0  0  0  0
   29.6275  -15.8200  -18.2023 O   0  0  0  0  0  0  0  0  0  0  0  0
   27.5198  -16.2663  -17.1165 C   0  0  0  0  0  0  0  0  0  0  0  0
   26.3598  -17.2031  -17.3795 C   0  0  2  0  0  0  0  0  0  0  0  0
   25.4715  -16.5085  -18.2868 N   0  0  0  0  0  0  0  0  0  0  0  0
   25.6425  -17.5747  -16.1583 C   0  0  0  0  0  0  0  0  0  0  0  0
   25.5627  -16.7382  -15.2097 O   0  0  0  0  0  0  0  0  0  0  0  0
   25.0597  -18.8540  -16.0702 N   0  0  0  0  0  0  0  0  0  0  0  0
   24.3383  -19.2433  -14.8781 C   0  0  1  0  0  0  0  0  0  0  0  0
   22.9426  -19.7346  -15.2788 C   0  0  0  0  0  0  0  0  0  0  0  0
   22.2277  -20.3364  -14.0972 C   0  0  0  0  0  0  0  0  0  0  0  0
   21.2087  -21.3228  -14.6065 C   0  0  0  0  0  0  0  0  0  0  0  0
   19.9312  -21.3435  -13.8037 C   0  0  0  0  0  0  0  0  0  0  0  0
   19.0748  -22.3789  -14.3652 N   0  0  0  0  0  0  0  0  0  0  0  0
   25.0356  -20.4029  -14.2830 C   0  0  0  0  0  0  0  0  0  0  0  0
   25.6196  -21.2073  -15.0456 O   0  0  0  0  0  0  0  0  0  0  0  0
   25.0642  -20.6272  -12.8974 N   0  0  0  0  0  0  0  0  0  0  0  0
   24.4017  -19.9146  -11.8040 C   0  0  0  0  0  0  0  0  0  0  0  0
   25.2979  -20.1041  -10.6252 C   0  0  0  0  0  0  0  0  0  0  0  0
   26.4197  -20.9574  -11.1003 C   0  0  0  0  0  0  0  0  0  0  0  0
   25.8434  -21.7144  -12.2736 C   0  0  1  0  0  0  0  0  0  0  0  0
   24.9540  -22.8207  -11.8630 C   0  0  0  0  0  0  0  0  0  0  0  0
   23.5917  -22.6432  -12.0366 O   0  0  0  0  0  0  0  0  0  0  0  0
   25.3561  -23.9007  -11.3713 O   0  0  0  0  0  0  0  0  0  0  0  0
  1  2  1  0
  2  3  2  0
  4  2  1  0
  5  4  1  0
  5  6  1  6
  7  5  1  0
  7  8  2  0
  9  7  1  0
 10  9  1  0
 10 11  1  6
 12 11  1  0
 13 12  1  0
 13 14  1  0
 14 15  1  0
 16 10  1  0
 17 16  2  0
 18 16  1  0
 18 19  1  0
 20 19  1  0
 21 20  1  0
 22 21  1  0
 22 18  1  0
 22 23  1  1
 24 23  1  0
 25 23  2  0
M  END
$$$$
