NKP.pdb
     RDKit          3D

 25 25  0  0  1  0  0  0  0  0999 V2000
   21.3474  -21.1679   -9.5961 N   0  0  0  0  0  0  0  0  0  0  0  0
   21.3417  -20.0826  -10.5101 C   0  0  0  0  0  0  0  0  0  0  0  0
   20.2481  -19.4368  -10.6125 O   0  0  0  0  0  0  0  0  0  0  0  0
   22.5396  -19.6976  -11.3206 C   0  0  0  0  0  0  0  0  0  0  0  0
   23.5971  -20.7631  -11.1242 C   0  0  2  0  0  0  0  0  0  0  0  0
   24.0236  -20.6659   -9.7447 N   0  0  0  0  0  0  0  0  0  0  0  0
   24.7440  -20.5959  -12.0190 C   0  0  0  0  0  0  0  0  0  0  0  0
   25.6130  -19.7133  -11.7514 O   0  0  0  0  0  0  0  0  0  0  0  0
   24.8508  -21.4217  -13.1551 N   0  0  0  0  0  0  0  0  0  0  0  0
   25.9588  -21.2579  -14.0709 C   0  0  1  0  0  0  0  0  0  0  0  0
   26.1969  -22.5818  -14.8063 C   0  0  0  0  0  0  0  0  0  0  0  0
   27.3120  -22.4431  -15.8098 C   0  0  0  0  0  0  0  0  0  0  0  0
   27.4258  -23.7337  -16.5793 C   0  0  0  0  0  0  0  0  0  0  0  0
   28.5056  -23.7176  -17.6332 C   0  0  0  0  0  0  0  0  0  0  0  0
   28.6342  -25.0721  -18.1527 N   0  0  0  0  0  0  0  0  0  0  0  0
   25.5575  -20.2741  -15.0986 C   0  0  0  0  0  0  0  0  0  0  0  0
   24.3545  -20.2261  -15.4452 O   0  0  0  0  0  0  0  0  0  0  0  0
   26.4782  -19.3966  -15.6929 N   0  0  0  0  0  0  0  0  0  0  0  0
   27.9294  -19.2893  -15.5347 C   0  0  0  0  0  0  0  0  0  0  0  0
   28.2378  -17.8526  -15.7983 C   0  0  0  0  0  0  0  0  0  0  0  0
   26.9381  -17.2129  -16.1356 C   0  0  0  0  0  0  0  0  0  0  0  0
   26.0857  -18.3473  -16.6538 C   0  0  1  0  0  0  0  0  0  0  0  0
   26.4378  -18.7477  -18.0319 C   0  0  0  0  0  0  0  0  0  0  0  0
   27.0359  -19.9845  -18.2046 O   0  0  0  0  0  0  0  0  0  0  0  0
   26.2289  -18.0404  -19.0447 O   0  0  0  0  0  0  0  0  0  0  0  0
  1  2  1  0
  2  3  2  0
  4  2  1  0
  5  4  1  0
  5  6  1  1
  7  5  1  0
  7  8  2  0
  9  7  1  0
 10  9  1  0
 10 11  1  6
 12 11  1  0
 13 12  1  0
 13 14  1  0
 14 15  1  0
 16 10  1  0
 17 16  2  0
 18 16  1  0
 18 19  1  0
 20 19  1  0
 21 20  1  0
 22 21  1  0
 22 18  1  0
 22 23  1  6
 24 23  1  0
 25 23  2  0
M  END
$$$$
