NKP.pdb
     RDKit          3D

 25 25  0  0  1  0  0  0  0  0999 V2000
   19.1643  -21.2461  -16.0977 N   0  0  0  0  0  0  0  0  0  0  0  0
   20.1434  -21.0785  -17.1108 C   0  0  0  0  0  0  0  0  0  0  0  0
   19.9427  -21.7094  -18.1995 O   0  0  0  0  0  0  0  0  0  0  0  0
   21.3532  -20.2150  -16.9356 C   0  0  0  0  0  0  0  0  0  0  0  0
   21.3266  -19.6555  -15.5290 C   0  0  2  0  0  0  0  0  0  0  0  0
   20.5196  -18.4554  -15.5820 N   0  0  0  0  0  0  0  0  0  0  0  0
   22.6624  -19.3422  -15.0177 C   0  0  0  0  0  0  0  0  0  0  0  0
   23.1683  -18.2070  -15.2654 O   0  0  0  0  0  0  0  0  0  0  0  0
   23.3506  -20.3123  -14.2631 N   0  0  0  0  0  0  0  0  0  0  0  0
   24.7011  -20.0577  -13.8110 C   0  0  1  0  0  0  0  0  0  0  0  0
   24.9309  -20.7966  -12.4877 C   0  0  0  0  0  0  0  0  0  0  0  0
   23.9891  -20.2947  -11.4243 C   0  0  0  0  0  0  0  0  0  0  0  0
   24.2036  -21.1072  -10.1735 C   0  0  0  0  0  0  0  0  0  0  0  0
   23.3492  -20.6663   -9.0105 C   0  0  0  0  0  0  0  0  0  0  0  0
   23.6840  -21.5115   -7.8727 N   0  0  0  0  0  0  0  0  0  0  0  0
   25.6297  -20.6574  -14.7924 C   0  0  0  0  0  0  0  0  0  0  0  0
   25.2413  -21.6439  -15.4600 O   0  0  0  0  0  0  0  0  0  0  0  0
   26.9250  -20.1567  -14.9983 N   0  0  0  0  0  0  0  0  0  0  0  0
   27.7003  -19.1790  -14.2333 C   0  0  0  0  0  0  0  0  0  0  0  0
   28.6098  -18.5449  -15.2330 C   0  0  0  0  0  0  0  0  0  0  0  0
   28.3324  -19.2272  -16.5252 C   0  0  0  0  0  0  0  0  0  0  0  0
   27.7803  -20.5754  -16.1259 C   0  0  1  0  0  0  0  0  0  0  0  0
   28.8267  -21.5110  -15.6640 C   0  0  0  0  0  0  0  0  0  0  0  0
   29.6257  -22.1023  -16.6280 O   0  0  0  0  0  0  0  0  0  0  0  0
   29.0319  -21.7985  -14.4619 O   0  0  0  0  0  0  0  0  0  0  0  0
  1  2  1  0
  2  3  2  0
  4  2  1  0
  5  4  1  0
  5  6  1  6
  7  5  1  0
  7  8  2  0
  9  7  1  0
 10  9  1  0
 10 11  1  1
 12 11  1  0
 13 12  1  0
 13 14  1  0
 14 15  1  0
 16 10  1  0
 17 16  2  0
 18 16  1  0
 18 19  1  0
 20 19  1  0
 21 20  1  0
 22 21  1  0
 22 18  1  0
 22 23  1  1
 24 23  1  0
 25 23  2  0
M  END
$$$$
