NKP.pdb
     RDKit          3D

 25 25  0  0  1  0  0  0  0  0999 V2000
   41.3753   -3.7313   -9.0864 N   0  0  0  0  0  0  0  0  0  0  0  0
   42.0835   -4.9464   -9.2745 C   0  0  0  0  0  0  0  0  0  0  0  0
   43.1555   -4.8745   -9.9594 O   0  0  0  0  0  0  0  0  0  0  0  0
   41.6185   -6.2525   -8.7108 C   0  0  0  0  0  0  0  0  0  0  0  0
   41.4547   -7.2243   -9.8601 C   0  0  2  0  0  0  0  0  0  0  0  0
   40.0614   -7.1673  -10.2476 N   0  0  0  0  0  0  0  0  0  0  0  0
   41.8219   -8.5953   -9.5006 C   0  0  0  0  0  0  0  0  0  0  0  0
   41.1172   -9.2221   -8.6542 O   0  0  0  0  0  0  0  0  0  0  0  0
   42.9506   -9.1819  -10.1059 N   0  0  0  0  0  0  0  0  0  0  0  0
   43.2845  -10.5633   -9.8355 C   0  0  1  0  0  0  0  0  0  0  0  0
   43.4088  -11.3151  -11.1656 C   0  0  0  0  0  0  0  0  0  0  0  0
   42.0764  -11.3889  -11.8648 C   0  0  0  0  0  0  0  0  0  0  0  0
   42.2459  -12.1831  -13.1341 C   0  0  0  0  0  0  0  0  0  0  0  0
   41.0343  -12.1546  -14.0331 C   0  0  0  0  0  0  0  0  0  0  0  0
   41.3113  -13.0176  -15.1731 N   0  0  0  0  0  0  0  0  0  0  0  0
   44.6239  -10.5932   -9.2107 C   0  0  0  0  0  0  0  0  0  0  0  0
   45.4542   -9.7110   -9.5299 O   0  0  0  0  0  0  0  0  0  0  0  0
   44.9902  -11.5738   -8.2751 N   0  0  0  0  0  0  0  0  0  0  0  0
   44.2769  -12.7676   -7.8186 C   0  0  0  0  0  0  0  0  0  0  0  0
   44.7590  -12.9915   -6.4236 C   0  0  0  0  0  0  0  0  0  0  0  0
   45.7633  -11.9255   -6.1645 C   0  0  0  0  0  0  0  0  0  0  0  0
   46.2677  -11.5447   -7.5365 C   0  0  1  0  0  0  0  0  0  0  0  0
   47.2132  -12.5328   -8.0960 C   0  0  0  0  0  0  0  0  0  0  0  0
   46.7158  -13.4463   -9.0102 O   0  0  0  0  0  0  0  0  0  0  0  0
   48.4279  -12.5926   -7.7948 O   0  0  0  0  0  0  0  0  0  0  0  0
  1  2  1  0
  2  3  2  0
  4  2  1  0
  5  4  1  0
  5  6  1  1
  7  5  1  0
  7  8  2  0
  9  7  1  0
 10  9  1  0
 10 11  1  6
 12 11  1  0
 13 12  1  0
 13 14  1  0
 14 15  1  0
 16 10  1  0
 17 16  2  0
 18 16  1  0
 18 19  1  0
 20 19  1  0
 21 20  1  0
 22 21  1  0
 22 18  1  0
 22 23  1  6
 24 23  1  0
 25 23  2  0
M  END
$$$$
