NKP.pdb
     RDKit          3D

 25 25  0  0  1  0  0  0  0  0999 V2000
   14.4815  -10.2306  -17.4572 N   0  0  0  0  0  0  0  0  0  0  0  0
   15.8190   -9.8168  -17.6876 C   0  0  0  0  0  0  0  0  0  0  0  0
   16.2088   -9.8174  -18.9007 O   0  0  0  0  0  0  0  0  0  0  0  0
   16.7405   -9.3985  -16.5851 C   0  0  0  0  0  0  0  0  0  0  0  0
   18.0043  -10.2249  -16.6952 C   0  0  2  0  0  0  0  0  0  0  0  0
   17.6635  -11.5552  -16.2383 N   0  0  0  0  0  0  0  0  0  0  0  0
   19.1066   -9.6851  -15.8968 C   0  0  0  0  0  0  0  0  0  0  0  0
   18.9857   -9.6257  -14.6367 O   0  0  0  0  0  0  0  0  0  0  0  0
   20.2738   -9.2455  -16.5516 N   0  0  0  0  0  0  0  0  0  0  0  0
   21.3548   -8.6560  -15.7920 C   0  0  1  0  0  0  0  0  0  0  0  0
   22.6904   -9.1241  -16.3813 C   0  0  0  0  0  0  0  0  0  0  0  0
   23.0123  -10.5249  -15.9302 C   0  0  0  0  0  0  0  0  0  0  0  0
   24.2779  -10.9693  -16.6170 C   0  0  0  0  0  0  0  0  0  0  0  0
   24.6597  -12.3983  -16.3185 C   0  0  0  0  0  0  0  0  0  0  0  0
   25.8813  -12.6909  -17.0553 N   0  0  0  0  0  0  0  0  0  0  0  0
   21.3013   -7.1917  -15.9866 C   0  0  0  0  0  0  0  0  0  0  0  0
   20.8811   -6.7471  -17.0799 O   0  0  0  0  0  0  0  0  0  0  0  0
   21.7034   -6.2901  -14.9884 N   0  0  0  0  0  0  0  0  0  0  0  0
   22.2381   -6.5312  -13.6473 C   0  0  0  0  0  0  0  0  0  0  0  0
   21.8193   -5.3414  -12.8487 C   0  0  0  0  0  0  0  0  0  0  0  0
   21.0920   -4.4528  -13.7941 C   0  0  0  0  0  0  0  0  0  0  0  0
   21.6374   -4.8248  -15.1527 C   0  0  1  0  0  0  0  0  0  0  0  0
   22.9837   -4.2697  -15.4033 C   0  0  0  0  0  0  0  0  0  0  0  0
   23.0642   -2.9489  -15.8114 O   0  0  0  0  0  0  0  0  0  0  0  0
   24.0477   -4.9177  -15.2694 O   0  0  0  0  0  0  0  0  0  0  0  0
  1  2  1  0
  2  3  2  0
  4  2  1  0
  5  4  1  0
  5  6  1  1
  7  5  1  0
  7  8  2  0
  9  7  1  0
 10  9  1  0
 10 11  1  6
 12 11  1  0
 13 12  1  0
 13 14  1  0
 14 15  1  0
 16 10  1  0
 17 16  2  0
 18 16  1  0
 18 19  1  0
 20 19  1  0
 21 20  1  0
 22 21  1  0
 22 18  1  0
 22 23  1  1
 24 23  1  0
 25 23  2  0
M  END
$$$$
