NKP.pdb
     RDKit          3D

 25 25  0  0  1  0  0  0  0  0999 V2000
   28.8362  -21.9950  -15.3072 N   0  0  0  0  0  0  0  0  0  0  0  0
   28.4245  -20.6399  -15.3940 C   0  0  0  0  0  0  0  0  0  0  0  0
   28.6084  -20.0650  -16.5162 O   0  0  0  0  0  0  0  0  0  0  0  0
   27.8066  -19.9042  -14.2465 C   0  0  0  0  0  0  0  0  0  0  0  0
   27.7149  -20.8596  -13.0755 C   0  0  2  0  0  0  0  0  0  0  0  0
   26.7176  -21.8464  -13.4307 N   0  0  0  0  0  0  0  0  0  0  0  0
   27.3410  -20.1925  -11.8269 C   0  0  0  0  0  0  0  0  0  0  0  0
   27.9128  -19.1065  -11.5113 O   0  0  0  0  0  0  0  0  0  0  0  0
   26.3545  -20.7766  -11.0085 N   0  0  0  0  0  0  0  0  0  0  0  0
   25.9300  -20.1123   -9.7954 C   0  0  1  0  0  0  0  0  0  0  0  0
   24.4483  -20.4205   -9.5512 C   0  0  0  0  0  0  0  0  0  0  0  0
   23.6086  -19.9676  -10.7172 C   0  0  0  0  0  0  0  0  0  0  0  0
   22.1659  -20.2841  -10.4187 C   0  0  0  0  0  0  0  0  0  0  0  0
   21.2168  -19.8819  -11.5207 C   0  0  0  0  0  0  0  0  0  0  0  0
   19.8739  -20.2645  -11.1068 N   0  0  0  0  0  0  0  0  0  0  0  0
   26.6737  -20.7093   -8.6660 C   0  0  0  0  0  0  0  0  0  0  0  0
   26.9144  -21.9385   -8.6897 O   0  0  0  0  0  0  0  0  0  0  0  0
   27.1168  -19.9443   -7.5754 N   0  0  0  0  0  0  0  0  0  0  0  0
   26.9919  -18.5113   -7.3045 C   0  0  0  0  0  0  0  0  0  0  0  0
   28.1772  -18.1766   -6.4608 C   0  0  0  0  0  0  0  0  0  0  0  0
   28.9063  -19.4570   -6.2577 C   0  0  0  0  0  0  0  0  0  0  0  0
   27.8489  -20.5217   -6.4313 C   0  0  1  0  0  0  0  0  0  0  0  0
   26.9610  -20.6468   -5.2569 C   0  0  0  0  0  0  0  0  0  0  0  0
   27.5259  -21.0912   -4.0734 O   0  0  0  0  0  0  0  0  0  0  0  0
   25.7375  -20.3768   -5.2684 O   0  0  0  0  0  0  0  0  0  0  0  0
  1  2  1  0
  2  3  2  0
  4  2  1  0
  5  4  1  0
  5  6  1  6
  7  5  1  0
  7  8  2  0
  9  7  1  0
 10  9  1  0
 10 11  1  1
 12 11  1  0
 13 12  1  0
 13 14  1  0
 14 15  1  0
 16 10  1  0
 17 16  2  0
 18 16  1  0
 18 19  1  0
 20 19  1  0
 21 20  1  0
 22 21  1  0
 22 18  1  0
 22 23  1  1
 24 23  1  0
 25 23  2  0
M  END
$$$$
