NKP.pdb
     RDKit          3D

 25 25  0  0  1  0  0  0  0  0999 V2000
   18.9615  -19.4903  -13.8236 N   0  0  0  0  0  0  0  0  0  0  0  0
   19.6871  -19.2280  -12.6328 C   0  0  0  0  0  0  0  0  0  0  0  0
   19.0699  -18.5773  -11.7277 O   0  0  0  0  0  0  0  0  0  0  0  0
   21.0991  -19.6791  -12.4267 C   0  0  0  0  0  0  0  0  0  0  0  0
   21.4963  -20.5261  -13.6172 C   0  0  2  0  0  0  0  0  0  0  0  0
   20.9847  -21.8555  -13.3613 N   0  0  0  0  0  0  0  0  0  0  0  0
   22.9455  -20.5746  -13.8208 C   0  0  0  0  0  0  0  0  0  0  0  0
   23.6965  -19.8636  -13.0885 O   0  0  0  0  0  0  0  0  0  0  0  0
   23.4669  -21.4113  -14.8269 N   0  0  0  0  0  0  0  0  0  0  0  0
   24.8956  -21.4855  -15.0421 C   0  0  1  0  0  0  0  0  0  0  0  0
   25.2382  -22.8536  -15.6428 C   0  0  0  0  0  0  0  0  0  0  0  0
   26.7156  -22.9625  -15.9171 C   0  0  0  0  0  0  0  0  0  0  0  0
   26.9913  -24.3152  -16.5210 C   0  0  0  0  0  0  0  0  0  0  0  0
   28.4523  -24.5670  -16.8022 C   0  0  0  0  0  0  0  0  0  0  0  0
   28.5584  -25.8664  -17.4511 N   0  0  0  0  0  0  0  0  0  0  0  0
   25.2546  -20.4781  -16.0625 C   0  0  0  0  0  0  0  0  0  0  0  0
   24.3973  -20.1607  -16.9192 O   0  0  0  0  0  0  0  0  0  0  0  0
   26.5191  -19.8693  -16.0990 N   0  0  0  0  0  0  0  0  0  0  0  0
   27.7326  -20.1487  -15.3297 C   0  0  0  0  0  0  0  0  0  0  0  0
   28.4509  -18.8418  -15.2600 C   0  0  0  0  0  0  0  0  0  0  0  0
   27.6217  -17.8803  -16.0346 C   0  0  0  0  0  0  0  0  0  0  0  0
   26.8465  -18.7465  -16.9993 C   0  0  1  0  0  0  0  0  0  0  0  0
   27.6655  -19.2151  -18.1365 C   0  0  0  0  0  0  0  0  0  0  0  0
   28.0475  -20.5461  -18.1430 O   0  0  0  0  0  0  0  0  0  0  0  0
   28.0316  -18.4857  -19.0871 O   0  0  0  0  0  0  0  0  0  0  0  0
  1  2  1  0
  2  3  2  0
  4  2  1  0
  5  4  1  0
  5  6  1  1
  7  5  1  0
  7  8  2  0
  9  7  1  0
 10  9  1  0
 10 11  1  6
 12 11  1  0
 13 12  1  0
 13 14  1  0
 14 15  1  0
 16 10  1  0
 17 16  2  0
 18 16  1  0
 18 19  1  0
 20 19  1  0
 21 20  1  0
 22 21  1  0
 22 18  1  0
 22 23  1  6
 24 23  1  0
 25 23  2  0
M  END
$$$$
