YTQ.pdb
     RDKit          3D

 29 29  0  0  1  0  0  0  0  0999 V2000
   21.9408    1.1446  -15.1859 O   0  0  0  0  0  0  0  0  0  0  0  0
   21.6889   -0.1880  -15.5202 C   0  0  0  0  0  0  0  0  0  0  0  0
   21.8961   -1.1888  -14.5924 C   0  0  0  0  0  0  0  0  0  0  0  0
   21.6549   -2.5124  -14.8976 C   0  0  0  0  0  0  0  0  0  0  0  0
   21.1984   -2.8401  -16.1533 C   0  0  0  0  0  0  0  0  0  0  0  0
   20.9281   -4.2446  -16.5208 C   0  0  0  0  0  0  0  0  0  0  0  0
   22.2124   -5.0430  -16.6785 C   0  0  2  0  0  0  0  0  0  0  0  0
   23.0729   -4.5053  -17.6811 N   0  0  0  0  0  0  0  0  0  0  0  0
   21.8102   -6.4484  -16.9468 C   0  0  0  0  0  0  0  0  0  0  0  0
   21.6889   -6.8062  -18.1462 O   0  0  0  0  0  0  0  0  0  0  0  0
   20.9835   -1.8663  -17.0957 C   0  0  0  0  0  0  0  0  0  0  0  0
   21.2302   -0.5475  -16.7726 C   0  0  0  0  0  0  0  0  0  0  0  0
   23.5463   -9.3823  -15.9670 C   0  0  0  0  0  0  0  0  0  0  0  0
   22.1630   -9.6512  -15.4105 C   0  0  1  0  0  0  0  0  0  0  0  0
   22.1807   -9.3506  -14.0598 O   0  0  0  0  0  0  0  0  0  0  0  0
   21.1950   -8.7722  -16.1864 C   0  0  2  0  0  0  0  0  0  0  0  0
   21.5569   -7.4025  -15.9401 N   0  0  0  0  0  0  0  0  0  0  0  0
   19.7825   -9.0554  -15.7772 C   0  0  0  0  0  0  0  0  0  0  0  0
   19.2955   -8.4948  -14.7611 O   0  0  0  0  0  0  0  0  0  0  0  0
   15.5451  -10.4766  -19.4442 N   0  0  0  0  0  0  0  0  0  0  0  0
   14.8074  -10.9193  -18.3190 C   0  0  0  0  0  0  0  0  0  0  0  0
   13.5741  -10.9884  -18.3663 O   0  0  0  0  0  0  0  0  0  0  0  0
   15.5226  -11.3002  -17.0814 C   0  0  0  0  0  0  0  0  0  0  0  0
   16.9964  -11.0449  -17.2724 C   0  0  0  0  0  0  0  0  0  0  0  0
   17.5643  -10.2029  -16.1374 C   0  0  2  0  0  0  0  0  0  0  0  0
   18.9498   -9.9389  -16.4884 N   0  0  0  0  0  0  0  0  0  0  0  0
   17.4299  -10.9788  -14.9037 C   0  0  0  0  0  0  0  0  0  0  0  0
   16.4676  -10.6451  -13.9755 O   0  0  0  0  0  0  0  0  0  0  0  0
   18.1838  -11.9469  -14.6825 O   0  0  0  0  0  0  0  0  0  0  0  0
  2  1  1  0
  3  2  2  0
  4  3  1  0
  5 11  1  0
  5  4  2  0
  6  7  1  0
  6  5  1  0
  7  9  1  0
  7  8  1  6
  9 17  1  0
 10  9  2  0
 11 12  2  0
 12  2  1  0
 14 13  1  6
 15 14  1  0
 16 18  1  0
 16 14  1  0
 16 17  1  1
 18 26  1  0
 19 18  2  0
 20 21  1  0
 21 23  1  0
 21 22  2  0
 23 24  1  0
 25 24  1  6
 25 27  1  0
 26 25  1  0
 27 29  2  0
 27 28  1  0
M  END
$$$$
