YTQ.pdb
     RDKit          3D

 29 29  0  0  1  0  0  0  0  0999 V2000
   28.2765  -18.9511   -3.1762 O   0  0  0  0  0  0  0  0  0  0  0  0
   28.1876  -19.3744   -4.5043 C   0  0  0  0  0  0  0  0  0  0  0  0
   27.0155  -19.2011   -5.2124 C   0  0  0  0  0  0  0  0  0  0  0  0
   26.9020  -19.6104   -6.5250 C   0  0  0  0  0  0  0  0  0  0  0  0
   27.9805  -20.2035   -7.1396 C   0  0  0  0  0  0  0  0  0  0  0  0
   27.9009  -20.6562   -8.5430 C   0  0  0  0  0  0  0  0  0  0  0  0
   26.4627  -20.7298   -9.0306 C   0  0  2  0  0  0  0  0  0  0  0  0
   25.7438  -21.8198   -8.4561 N   0  0  0  0  0  0  0  0  0  0  0  0
   26.5183  -20.7846  -10.5148 C   0  0  0  0  0  0  0  0  0  0  0  0
   27.1113  -21.7585  -11.0451 O   0  0  0  0  0  0  0  0  0  0  0  0
   29.1582  -20.3887   -6.4603 C   0  0  0  0  0  0  0  0  0  0  0  0
   29.2534  -19.9729   -5.1478 C   0  0  0  0  0  0  0  0  0  0  0  0
   26.2345  -22.2220  -12.7589 C   0  0  0  0  0  0  0  0  0  0  0  0
   25.4669  -21.0547  -13.3450 C   0  0  1  0  0  0  0  0  0  0  0  0
   24.1402  -21.1871  -12.9742 O   0  0  0  0  0  0  0  0  0  0  0  0
   26.0986  -19.7870  -12.7920 C   0  0  2  0  0  0  0  0  0  0  0  0
   25.9477  -19.8129  -11.3622 N   0  0  0  0  0  0  0  0  0  0  0  0
   25.4607  -18.5740  -13.3956 C   0  0  0  0  0  0  0  0  0  0  0  0
   24.3219  -18.2019  -13.0100 O   0  0  0  0  0  0  0  0  0  0  0  0
   28.8003  -14.7326  -16.8621 N   0  0  0  0  0  0  0  0  0  0  0  0
   28.2178  -15.8487  -17.5109 C   0  0  0  0  0  0  0  0  0  0  0  0
   28.6888  -16.2723  -18.5725 O   0  0  0  0  0  0  0  0  0  0  0  0
   27.0380  -16.5084  -16.9100 C   0  0  0  0  0  0  0  0  0  0  0  0
   26.7365  -15.8543  -15.5852 C   0  0  0  0  0  0  0  0  0  0  0  0
   25.5711  -16.5383  -14.8825 C   0  0  2  0  0  0  0  0  0  0  0  0
   26.0848  -17.8086  -14.3979 N   0  0  0  0  0  0  0  0  0  0  0  0
   24.4975  -16.6982  -15.8643 C   0  0  0  0  0  0  0  0  0  0  0  0
   23.6289  -15.6590  -16.1181 O   0  0  0  0  0  0  0  0  0  0  0  0
   24.3600  -17.7745  -16.4783 O   0  0  0  0  0  0  0  0  0  0  0  0
  2  1  1  0
  3  2  2  0
  4  3  1  0
  5 11  1  0
  5  4  2  0
  6  7  1  0
  6  5  1  0
  7  9  1  0
  7  8  1  1
  9 17  1  0
 10  9  2  0
 11 12  2  0
 12  2  1  0
 14 13  1  1
 15 14  1  0
 16 18  1  0
 16 14  1  0
 16 17  1  1
 18 26  1  0
 19 18  2  0
 20 21  1  0
 21 23  1  0
 21 22  2  0
 23 24  1  0
 25 24  1  6
 25 27  1  0
 26 25  1  0
 27 29  2  0
 27 28  1  0
M  END
$$$$
