YTQ.pdb
     RDKit          3D

 29 29  0  0  1  0  0  0  0  0999 V2000
   20.2660  -15.0696  -20.1077 O   0  0  0  0  0  0  0  0  0  0  0  0
   19.9772  -13.9037  -19.3947 C   0  0  0  0  0  0  0  0  0  0  0  0
   18.6878  -13.6472  -18.9741 C   0  0  0  0  0  0  0  0  0  0  0  0
   18.3766  -12.5033  -18.2685 C   0  0  0  0  0  0  0  0  0  0  0  0
   19.3732  -11.6003  -17.9789 C   0  0  0  0  0  0  0  0  0  0  0  0
   19.0825  -10.3635  -17.2262 C   0  0  0  0  0  0  0  0  0  0  0  0
   19.2663  -10.5584  -15.7296 C   0  0  2  0  0  0  0  0  0  0  0  0
   18.4503  -11.6061  -15.2086 N   0  0  0  0  0  0  0  0  0  0  0  0
   19.0027   -9.2415  -15.0929 C   0  0  0  0  0  0  0  0  0  0  0  0
   17.8233   -8.9851  -14.7398 O   0  0  0  0  0  0  0  0  0  0  0  0
   20.6639  -11.8291  -18.3843 C   0  0  0  0  0  0  0  0  0  0  0  0
   20.9568  -12.9789  -19.0891 C   0  0  0  0  0  0  0  0  0  0  0  0
   18.0101   -8.2534  -12.9304 C   0  0  0  0  0  0  0  0  0  0  0  0
   19.2910   -7.4720  -12.7205 C   0  0  1  0  0  0  0  0  0  0  0  0
   20.1868   -8.2915  -12.0564 O   0  0  0  0  0  0  0  0  0  0  0  0
   19.7911   -7.0635  -14.0970 C   0  0  2  0  0  0  0  0  0  0  0  0
   19.9927   -8.2647  -14.8615 N   0  0  0  0  0  0  0  0  0  0  0  0
   21.0498   -6.2601  -13.9832 C   0  0  0  0  0  0  0  0  0  0  0  0
   22.1579   -6.8400  -13.8423 O   0  0  0  0  0  0  0  0  0  0  0  0
   23.0630   -4.4584  -18.8253 N   0  0  0  0  0  0  0  0  0  0  0  0
   22.7074   -3.5308  -17.8158 C   0  0  0  0  0  0  0  0  0  0  0  0
   23.0693   -2.3513  -17.8933 O   0  0  0  0  0  0  0  0  0  0  0  0
   21.8973   -3.9816  -16.6631 C   0  0  0  0  0  0  0  0  0  0  0  0
   22.8248   -4.4183  -15.5572 C   0  0  0  0  0  0  0  0  0  0  0  0
   22.2630   -4.0572  -14.1883 C   0  0  2  0  0  0  0  0  0  0  0  0
   21.0581   -4.8538  -14.0267 N   0  0  0  0  0  0  0  0  0  0  0  0
   21.9957   -2.6182  -14.1878 C   0  0  0  0  0  0  0  0  0  0  0  0
   23.0363   -1.7192  -14.0998 O   0  0  0  0  0  0  0  0  0  0  0  0
   20.8258   -2.1943  -14.2667 O   0  0  0  0  0  0  0  0  0  0  0  0
  2  1  1  0
  3  2  2  0
  4  3  1  0
  5 11  1  0
  5  4  2  0
  6  7  1  0
  6  5  1  0
  7  9  1  0
  7  8  1  1
  9 17  1  0
 10  9  2  0
 11 12  2  0
 12  2  1  0
 14 13  1  6
 15 14  1  0
 16 18  1  0
 16 14  1  0
 16 17  1  6
 18 26  1  0
 19 18  2  0
 20 21  1  0
 21 23  1  0
 21 22  2  0
 23 24  1  0
 25 24  1  6
 25 27  1  0
 26 25  1  0
 27 29  2  0
 27 28  1  0
M  END
$$$$
