YTQ.pdb
     RDKit          3D

 29 29  0  0  1  0  0  0  0  0999 V2000
   29.1911  -20.2579   -3.6909 O   0  0  0  0  0  0  0  0  0  0  0  0
   28.7562  -20.1259   -5.0116 C   0  0  0  0  0  0  0  0  0  0  0  0
   29.6466  -19.7706   -6.0047 C   0  0  0  0  0  0  0  0  0  0  0  0
   29.2423  -19.6337   -7.3167 C   0  0  0  0  0  0  0  0  0  0  0  0
   27.9239  -19.8563   -7.6403 C   0  0  0  0  0  0  0  0  0  0  0  0
   27.4499  -19.7203   -9.0323 C   0  0  0  0  0  0  0  0  0  0  0  0
   27.1134  -21.0694   -9.6473 C   0  0  2  0  0  0  0  0  0  0  0  0
   28.2432  -21.9376   -9.7169 N   0  0  0  0  0  0  0  0  0  0  0  0
   26.5069  -20.7927  -10.9757 C   0  0  0  0  0  0  0  0  0  0  0  0
   27.2664  -20.7832  -11.9779 O   0  0  0  0  0  0  0  0  0  0  0  0
   27.0166  -20.2107   -6.6739 C   0  0  0  0  0  0  0  0  0  0  0  0
   27.4390  -20.3430   -5.3668 C   0  0  0  0  0  0  0  0  0  0  0  0
   26.2911  -21.7774  -13.3630 C   0  0  0  0  0  0  0  0  0  0  0  0
   24.7871  -21.6119  -13.2859 C   0  0  1  0  0  0  0  0  0  0  0  0
   24.2624  -22.7481  -12.6953 O   0  0  0  0  0  0  0  0  0  0  0  0
   24.5210  -20.3587  -12.4671 C   0  0  2  0  0  0  0  0  0  0  0  0
   25.1347  -20.5409  -11.1795 N   0  0  0  0  0  0  0  0  0  0  0  0
   23.0491  -20.1085  -12.3501 C   0  0  0  0  0  0  0  0  0  0  0  0
   22.4909  -20.1427  -11.2225 O   0  0  0  0  0  0  0  0  0  0  0  0
   19.0064  -15.5266  -15.5808 N   0  0  0  0  0  0  0  0  0  0  0  0
   19.1724  -16.9221  -15.7567 C   0  0  0  0  0  0  0  0  0  0  0  0
   19.2082  -17.4104  -16.8918 O   0  0  0  0  0  0  0  0  0  0  0  0
   19.3033  -17.7967  -14.5709 C   0  0  0  0  0  0  0  0  0  0  0  0
   20.6832  -18.4048  -14.5644 C   0  0  0  0  0  0  0  0  0  0  0  0
   20.8764  -19.3267  -13.3674 C   0  0  2  0  0  0  0  0  0  0  0  0
   22.2364  -19.8300  -13.4644 N   0  0  0  0  0  0  0  0  0  0  0  0
   19.8714  -20.3866  -13.4613 C   0  0  0  0  0  0  0  0  0  0  0  0
   18.6560  -20.2485  -12.8269 O   0  0  0  0  0  0  0  0  0  0  0  0
   20.1064  -21.4219  -14.1150 O   0  0  0  0  0  0  0  0  0  0  0  0
  2  1  1  0
  3  2  2  0
  4  3  1  0
  5 11  1  0
  5  4  2  0
  6  7  1  0
  6  5  1  0
  7  9  1  0
  7  8  1  6
  9 17  1  0
 10  9  2  0
 11 12  2  0
 12  2  1  0
 14 13  1  1
 15 14  1  0
 16 18  1  0
 16 14  1  0
 16 17  1  1
 18 26  1  0
 19 18  2  0
 20 21  1  0
 21 23  1  0
 21 22  2  0
 23 24  1  0
 25 24  1  6
 25 27  1  0
 26 25  1  0
 27 29  2  0
 27 28  1  0
M  END
$$$$
