YTQ.pdb
     RDKit          3D

 29 29  0  0  1  0  0  0  0  0999 V2000
   16.3998  -14.8733  -16.2604 O   0  0  0  0  0  0  0  0  0  0  0  0
   17.3533  -13.8537  -16.3085 C   0  0  0  0  0  0  0  0  0  0  0  0
   18.0317  -13.4816  -15.1655 C   0  0  0  0  0  0  0  0  0  0  0  0
   18.9779  -12.4778  -15.1866 C   0  0  0  0  0  0  0  0  0  0  0  0
   19.2497  -11.8352  -16.3722 C   0  0  0  0  0  0  0  0  0  0  0  0
   20.2549  -10.7553  -16.4380 C   0  0  0  0  0  0  0  0  0  0  0  0
   21.4352  -11.1371  -17.3171 C   0  0  2  0  0  0  0  0  0  0  0  0
   22.0537  -12.3551  -16.9065 N   0  0  0  0  0  0  0  0  0  0  0  0
   22.3655   -9.9780  -17.3083 C   0  0  0  0  0  0  0  0  0  0  0  0
   23.1307   -9.8462  -16.3191 O   0  0  0  0  0  0  0  0  0  0  0  0
   18.5908  -12.1841  -17.5241 C   0  0  0  0  0  0  0  0  0  0  0  0
   17.6475  -13.1906  -17.4841 C   0  0  0  0  0  0  0  0  0  0  0  0
   24.1193   -8.7580  -20.4926 C   0  0  0  0  0  0  0  0  0  0  0  0
   23.5938   -7.5187  -19.7972 C   0  0  1  0  0  0  0  0  0  0  0  0
   22.4376   -7.1230  -20.4465 O   0  0  0  0  0  0  0  0  0  0  0  0
   23.3419   -7.8982  -18.3466 C   0  0  2  0  0  0  0  0  0  0  0  0
   22.4417   -9.0195  -18.3395 N   0  0  0  0  0  0  0  0  0  0  0  0
   22.7848   -6.7342  -17.5867 C   0  0  0  0  0  0  0  0  0  0  0  0
   21.5958   -6.7603  -17.1749 O   0  0  0  0  0  0  0  0  0  0  0  0
   20.2105   -5.2476  -14.6644 N   0  0  0  0  0  0  0  0  0  0  0  0
   20.8148   -4.1319  -14.0350 C   0  0  0  0  0  0  0  0  0  0  0  0
   20.1457   -3.3783  -13.3190 O   0  0  0  0  0  0  0  0  0  0  0  0
   22.2565   -3.8711  -14.2391 C   0  0  0  0  0  0  0  0  0  0  0  0
   22.8262   -4.9512  -15.1238 C   0  0  0  0  0  0  0  0  0  0  0  0
   23.0347   -4.4489  -16.5465 C   0  0  2  0  0  0  0  0  0  0  0  0
   23.5415   -5.5827  -17.3017 N   0  0  0  0  0  0  0  0  0  0  0  0
   23.9851   -3.3374  -16.4862 C   0  0  0  0  0  0  0  0  0  0  0  0
   25.2815   -3.5087  -16.9205 O   0  0  0  0  0  0  0  0  0  0  0  0
   23.6300   -2.2279  -16.0420 O   0  0  0  0  0  0  0  0  0  0  0  0
  2  1  1  0
  3  2  2  0
  4  3  1  0
  5 11  1  0
  5  4  2  0
  6  7  1  0
  6  5  1  0
  7  9  1  0
  7  8  1  1
  9 17  1  0
 10  9  2  0
 11 12  2  0
 12  2  1  0
 14 13  1  6
 15 14  1  0
 16 18  1  0
 16 14  1  0
 16 17  1  6
 18 26  1  0
 19 18  2  0
 20 21  1  0
 21 23  1  0
 21 22  2  0
 23 24  1  0
 25 24  1  1
 25 27  1  0
 26 25  1  0
 27 29  2  0
 27 28  1  0
M  END
$$$$
