YTQ.pdb
     RDKit          3D

 29 29  0  0  1  0  0  0  0  0999 V2000
   29.3784  -20.1414   -4.9046 O   0  0  0  0  0  0  0  0  0  0  0  0
   28.5877  -20.2540   -6.0506 C   0  0  0  0  0  0  0  0  0  0  0  0
   27.6089  -19.3173   -6.3148 C   0  0  0  0  0  0  0  0  0  0  0  0
   26.8148  -19.4059   -7.4395 C   0  0  0  0  0  0  0  0  0  0  0  0
   27.0037  -20.4501   -8.3149 C   0  0  0  0  0  0  0  0  0  0  0  0
   26.1752  -20.5820   -9.5303 C   0  0  0  0  0  0  0  0  0  0  0  0
   26.9455  -21.2297  -10.6698 C   0  0  2  0  0  0  0  0  0  0  0  0
   28.2642  -20.7038  -10.8091 N   0  0  0  0  0  0  0  0  0  0  0  0
   26.1179  -21.0621  -11.8930 C   0  0  0  0  0  0  0  0  0  0  0  0
   26.7047  -20.7548  -12.9619 O   0  0  0  0  0  0  0  0  0  0  0  0
   27.9692  -21.3958   -8.0779 C   0  0  0  0  0  0  0  0  0  0  0  0
   28.7542  -21.2911   -6.9477 C   0  0  0  0  0  0  0  0  0  0  0  0
   25.9301  -22.0322  -14.2024 C   0  0  0  0  0  0  0  0  0  0  0  0
   24.4361  -22.2450  -14.0690 C   0  0  1  0  0  0  0  0  0  0  0  0
   24.2290  -23.5236  -13.5819 O   0  0  0  0  0  0  0  0  0  0  0  0
   23.9191  -21.1740  -13.1215 C   0  0  2  0  0  0  0  0  0  0  0  0
   24.7181  -21.2265  -11.9271 N   0  0  0  0  0  0  0  0  0  0  0  0
   22.4663  -21.3876  -12.8275 C   0  0  0  0  0  0  0  0  0  0  0  0
   22.1137  -21.9217  -11.7438 O   0  0  0  0  0  0  0  0  0  0  0  0
   15.8800  -18.9805  -15.2488 N   0  0  0  0  0  0  0  0  0  0  0  0
   17.2882  -19.0640  -15.1221 C   0  0  0  0  0  0  0  0  0  0  0  0
   18.0232  -18.3670  -15.8308 O   0  0  0  0  0  0  0  0  0  0  0  0
   17.8783  -19.9929  -14.1337 C   0  0  0  0  0  0  0  0  0  0  0  0
   19.3757  -20.0062  -14.3113 C   0  0  0  0  0  0  0  0  0  0  0  0
   20.0335  -21.0259  -13.3909 C   0  0  2  0  0  0  0  0  0  0  0  0
   21.4483  -21.0121  -13.7233 N   0  0  0  0  0  0  0  0  0  0  0  0
   19.4033  -22.3218  -13.6475 C   0  0  0  0  0  0  0  0  0  0  0  0
   18.2877  -22.7040  -12.9349 O   0  0  0  0  0  0  0  0  0  0  0  0
   19.8701  -23.0895  -14.5119 O   0  0  0  0  0  0  0  0  0  0  0  0
  2  1  1  0
  3  2  2  0
  4  3  1  0
  5 11  1  0
  5  4  2  0
  6  7  1  0
  6  5  1  0
  7  9  1  0
  7  8  1  6
  9 17  1  0
 10  9  2  0
 11 12  2  0
 12  2  1  0
 14 13  1  1
 15 14  1  0
 16 18  1  0
 16 14  1  0
 16 17  1  1
 18 26  1  0
 19 18  2  0
 20 21  1  0
 21 23  1  0
 21 22  2  0
 23 24  1  0
 25 24  1  6
 25 27  1  0
 26 25  1  0
 27 29  2  0
 27 28  1  0
M  END
$$$$
