YTQ.pdb
     RDKit          3D

 29 29  0  0  1  0  0  0  0  0999 V2000
   28.1072  -19.6926   -4.4437 O   0  0  0  0  0  0  0  0  0  0  0  0
   27.7731  -19.9881   -5.7674 C   0  0  0  0  0  0  0  0  0  0  0  0
   28.5752  -19.5494   -6.8016 C   0  0  0  0  0  0  0  0  0  0  0  0
   28.2673  -19.8279   -8.1173 C   0  0  0  0  0  0  0  0  0  0  0  0
   27.1369  -20.5580   -8.4028 C   0  0  0  0  0  0  0  0  0  0  0  0
   26.7711  -20.8776   -9.7974 C   0  0  0  0  0  0  0  0  0  0  0  0
   25.7251  -19.9168  -10.3399 C   0  0  2  0  0  0  0  0  0  0  0  0
   24.4450  -20.1029   -9.7386 N   0  0  0  0  0  0  0  0  0  0  0  0
   25.7083  -20.0941  -11.8155 C   0  0  0  0  0  0  0  0  0  0  0  0
   24.7121  -20.6660  -12.3273 O   0  0  0  0  0  0  0  0  0  0  0  0
   26.3209  -21.0070   -7.3952 C   0  0  0  0  0  0  0  0  0  0  0  0
   26.6447  -20.7190   -6.0849 C   0  0  0  0  0  0  0  0  0  0  0  0
   27.0471  -17.2628  -14.0773 C   0  0  0  0  0  0  0  0  0  0  0  0
   27.5771  -18.5712  -14.6274 C   0  0  1  0  0  0  0  0  0  0  0  0
   28.8816  -18.7206  -14.1904 O   0  0  0  0  0  0  0  0  0  0  0  0
   26.6639  -19.6713  -14.1100 C   0  0  2  0  0  0  0  0  0  0  0  0
   26.7393  -19.6608  -12.6740 N   0  0  0  0  0  0  0  0  0  0  0  0
   27.0641  -20.9982  -14.6772 C   0  0  0  0  0  0  0  0  0  0  0  0
   27.7389  -21.8032  -13.9839 O   0  0  0  0  0  0  0  0  0  0  0  0
   23.7596  -24.6674  -14.0112 N   0  0  0  0  0  0  0  0  0  0  0  0
   24.4999  -25.5148  -14.8713 C   0  0  0  0  0  0  0  0  0  0  0  0
   24.3100  -26.7363  -14.8627 O   0  0  0  0  0  0  0  0  0  0  0  0
   25.5060  -24.9292  -15.7840 C   0  0  0  0  0  0  0  0  0  0  0  0
   25.5725  -23.4417  -15.5455 C   0  0  0  0  0  0  0  0  0  0  0  0
   26.6492  -22.7908  -16.4039 C   0  0  2  0  0  0  0  0  0  0  0  0
   26.7156  -21.4024  -15.9792 N   0  0  0  0  0  0  0  0  0  0  0  0
   26.2450  -22.9370  -17.8030 C   0  0  0  0  0  0  0  0  0  0  0  0
   26.7479  -23.9681  -18.5664 O   0  0  0  0  0  0  0  0  0  0  0  0
   25.4434  -22.1310  -18.3151 O   0  0  0  0  0  0  0  0  0  0  0  0
  2  1  1  0
  3  2  2  0
  4  3  1  0
  5 11  1  0
  5  4  2  0
  6  7  1  0
  6  5  1  0
  7  9  1  0
  7  8  1  1
  9 17  1  0
 10  9  2  0
 11 12  2  0
 12  2  1  0
 14 13  1  1
 15 14  1  0
 16 18  1  0
 16 14  1  0
 16 17  1  1
 18 26  1  0
 19 18  2  0
 20 21  1  0
 21 23  1  0
 21 22  2  0
 23 24  1  0
 25 24  1  1
 25 27  1  0
 26 25  1  0
 27 29  2  0
 27 28  1  0
M  END
$$$$
