TQA.pdb
     RDKit          3D

 22 21  0  0  1  0  0  0  0  0999 V2000
    8.0397  -16.2669   18.2491 C   0  0  0  0  0  0  0  0  0  0  0  0
    8.3085  -14.8250   17.8854 C   0  0  1  0  0  0  0  0  0  0  0  0
    7.7162  -14.4955   16.6746 O   0  0  0  0  0  0  0  0  0  0  0  0
    7.7766  -13.9591   18.9966 C   0  0  2  0  0  0  0  0  0  0  0  0
    7.7460  -12.5699   18.6262 N   0  0  0  0  0  0  0  0  0  0  0  0
    8.5372  -14.1608   20.2618 C   0  0  0  0  0  0  0  0  0  0  0  0
    9.7445  -13.7718   20.3628 O   0  0  0  0  0  0  0  0  0  0  0  0
    5.8921  -16.3406   25.5622 N   0  0  0  0  0  0  0  0  0  0  0  0
    7.2729  -16.4120   25.8530 C   0  0  0  0  0  0  0  0  0  0  0  0
    7.6298  -16.7673   26.9915 O   0  0  0  0  0  0  0  0  0  0  0  0
    8.2658  -16.0611   24.7926 C   0  0  0  0  0  0  0  0  0  0  0  0
    7.5832  -15.4973   23.5725 C   0  0  0  0  0  0  0  0  0  0  0  0
    8.6025  -15.1190   22.5533 C   0  0  2  0  0  0  0  0  0  0  0  0
    7.8789  -14.7928   21.3358 N   0  0  0  0  0  0  0  0  0  0  0  0
    9.6115  -16.1311   22.2384 C   0  0  0  0  0  0  0  0  0  0  0  0
    9.4026  -17.2029   21.5905 O   0  0  0  0  0  0  0  0  0  0  0  0
   13.3604  -16.2151   22.2189 C   0  0  0  0  0  0  0  0  0  0  0  0
   12.0251  -16.8590   22.4546 C   0  0  2  0  0  0  0  0  0  0  0  0
   10.9641  -15.9148   22.6919 N   0  0  0  0  0  0  0  0  0  0  0  0
   12.0968  -17.8676   23.5199 C   0  0  0  0  0  0  0  0  0  0  0  0
   12.3270  -19.0798   23.2011 O   0  0  0  0  0  0  0  0  0  0  0  0
   11.9227  -17.5377   24.8432 O   0  0  0  0  0  0  0  0  0  0  0  0
  2  4  1  0
  2  1  1  1
  3  2  1  0
  4  5  1  6
  6  4  1  0
  6 14  1  0
  7  6  2  0
  8  9  1  0
  9 11  1  0
 10  9  2  0
 11 12  1  0
 13 12  1  1
 13 14  1  0
 15 13  1  0
 16 15  2  0
 18 19  1  0
 18 17  1  1
 19 15  1  0
 20 18  1  0
 21 20  2  0
 22 20  1  0
M  END
$$$$
