TQA.pdb
     RDKit          3D

 22 21  0  0  1  0  0  0  0  0999 V2000
    8.9740  -12.8329   18.3527 C   0  0  0  0  0  0  0  0  0  0  0  0
    8.6323  -13.2139   19.7746 C   0  0  1  0  0  0  0  0  0  0  0  0
    7.5366  -12.4977   20.2350 O   0  0  0  0  0  0  0  0  0  0  0  0
    8.3577  -14.6941   19.8053 C   0  0  2  0  0  0  0  0  0  0  0  0
    7.3017  -15.0626   18.9013 N   0  0  0  0  0  0  0  0  0  0  0  0
    8.0721  -15.1710   21.1876 C   0  0  0  0  0  0  0  0  0  0  0  0
    6.8755  -15.3726   21.5708 O   0  0  0  0  0  0  0  0  0  0  0  0
   11.7575  -18.9074   24.2854 N   0  0  0  0  0  0  0  0  0  0  0  0
   10.9050  -18.4832   25.3291 C   0  0  0  0  0  0  0  0  0  0  0  0
   11.0429  -18.9857   26.4598 O   0  0  0  0  0  0  0  0  0  0  0  0
    9.8640  -17.4473   25.0520 C   0  0  0  0  0  0  0  0  0  0  0  0
    9.9139  -16.9961   23.6145 C   0  0  0  0  0  0  0  0  0  0  0  0
    8.9483  -15.8812   23.4015 C   0  0  2  0  0  0  0  0  0  0  0  0
    9.1644  -15.3899   22.0508 N   0  0  0  0  0  0  0  0  0  0  0  0
    9.0457  -14.7529   24.3285 C   0  0  0  0  0  0  0  0  0  0  0  0
   10.0393  -13.9695   24.4336 O   0  0  0  0  0  0  0  0  0  0  0  0
    6.6063  -12.7614   26.3531 C   0  0  0  0  0  0  0  0  0  0  0  0
    7.9406  -13.4264   26.1781 C   0  0  2  0  0  0  0  0  0  0  0  0
    7.9315  -14.4892   25.2065 N   0  0  0  0  0  0  0  0  0  0  0  0
    8.4878  -13.8772   27.4644 C   0  0  0  0  0  0  0  0  0  0  0  0
    8.6780  -15.1242   27.6458 O   0  0  0  0  0  0  0  0  0  0  0  0
    8.7977  -12.9925   28.4702 O   0  0  0  0  0  0  0  0  0  0  0  0
  2  4  1  0
  2  1  1  6
  3  2  1  0
  4  5  1  6
  6  4  1  0
  6 14  1  0
  7  6  2  0
  8  9  1  0
  9 11  1  0
 10  9  2  0
 11 12  1  0
 13 12  1  1
 13 14  1  0
 15 13  1  0
 16 15  2  0
 18 19  1  0
 18 17  1  1
 19 15  1  0
 20 18  1  0
 21 20  2  0
 22 20  1  0
M  END
$$$$
