TQA.pdb
     RDKit          3D

 22 21  0  0  1  0  0  0  0  0999 V2000
    7.8279  -17.8472   15.8034 C   0  0  0  0  0  0  0  0  0  0  0  0
    8.3466  -17.8403   17.2227 C   0  0  1  0  0  0  0  0  0  0  0  0
    7.8535  -16.7534   17.9304 O   0  0  0  0  0  0  0  0  0  0  0  0
    7.9369  -19.1351   17.8730 C   0  0  2  0  0  0  0  0  0  0  0  0
    6.5096  -19.3108   17.8658 N   0  0  0  0  0  0  0  0  0  0  0  0
    8.4856  -19.2542   19.2531 C   0  0  0  0  0  0  0  0  0  0  0  0
    7.7211  -19.1622   20.2661 O   0  0  0  0  0  0  0  0  0  0  0  0
   11.5161  -23.3365   21.4280 N   0  0  0  0  0  0  0  0  0  0  0  0
   12.0621  -22.3989   22.3330 C   0  0  0  0  0  0  0  0  0  0  0  0
   12.4889  -22.8014   23.4310 O   0  0  0  0  0  0  0  0  0  0  0  0
   12.1135  -20.9546   21.9521 C   0  0  0  0  0  0  0  0  0  0  0  0
   11.4680  -20.7220   20.6099 C   0  0  0  0  0  0  0  0  0  0  0  0
   10.4562  -19.6334   20.7181 C   0  0  2  0  0  0  0  0  0  0  0  0
    9.8706  -19.4706   19.3979 N   0  0  0  0  0  0  0  0  0  0  0  0
   10.9492  -18.3326   21.1726 C   0  0  0  0  0  0  0  0  0  0  0  0
   11.8126  -17.6213   20.5720 O   0  0  0  0  0  0  0  0  0  0  0  0
    9.8817  -15.9846   23.9821 C   0  0  0  0  0  0  0  0  0  0  0  0
   10.7926  -16.4931   22.9027 C   0  0  2  0  0  0  0  0  0  0  0  0
   10.4249  -17.7928   22.4036 N   0  0  0  0  0  0  0  0  0  0  0  0
   12.1984  -16.4568   23.3264 C   0  0  0  0  0  0  0  0  0  0  0  0
   12.7867  -17.5558   23.5914 O   0  0  0  0  0  0  0  0  0  0  0  0
   12.8899  -15.2742   23.4431 O   0  0  0  0  0  0  0  0  0  0  0  0
  2  4  1  0
  2  1  1  6
  3  2  1  0
  4  5  1  1
  6  4  1  0
  6 14  1  0
  7  6  2  0
  8  9  1  0
  9 11  1  0
 10  9  2  0
 11 12  1  0
 13 12  1  6
 13 14  1  0
 15 13  1  0
 16 15  2  0
 18 19  1  0
 18 17  1  1
 19 15  1  0
 20 18  1  0
 21 20  2  0
 22 20  1  0
M  END
$$$$
