TQA.pdb
     RDKit          3D

 22 21  0  0  1  0  0  0  0  0999 V2000
    7.5736  -15.5723   16.4032 C   0  0  0  0  0  0  0  0  0  0  0  0
    8.1372  -14.1732   16.4957 C   0  0  1  0  0  0  0  0  0  0  0  0
    7.2235  -13.2344   16.0383 O   0  0  0  0  0  0  0  0  0  0  0  0
    8.5001  -13.9131   17.9338 C   0  0  2  0  0  0  0  0  0  0  0  0
    8.8248  -12.5311   18.1635 N   0  0  0  0  0  0  0  0  0  0  0  0
    9.6004  -14.8067   18.3927 C   0  0  0  0  0  0  0  0  0  0  0  0
    9.4563  -16.0709   18.3852 O   0  0  0  0  0  0  0  0  0  0  0  0
   15.4668  -13.6905   17.3791 N   0  0  0  0  0  0  0  0  0  0  0  0
   15.5636  -14.8082   18.2379 C   0  0  0  0  0  0  0  0  0  0  0  0
   16.6760  -15.3405   18.4086 O   0  0  0  0  0  0  0  0  0  0  0  0
   14.3351  -15.3213   18.9168 C   0  0  0  0  0  0  0  0  0  0  0  0
   13.1328  -14.4775   18.5777 C   0  0  0  0  0  0  0  0  0  0  0  0
   11.9224  -15.0309   19.2481 C   0  0  2  0  0  0  0  0  0  0  0  0
   10.7984  -14.2086   18.8324 N   0  0  0  0  0  0  0  0  0  0  0  0
   11.9531  -15.0727   20.7107 C   0  0  0  0  0  0  0  0  0  0  0  0
   12.8557  -14.5623   21.4434 O   0  0  0  0  0  0  0  0  0  0  0  0
    9.4117  -16.0613   23.3505 C   0  0  0  0  0  0  0  0  0  0  0  0
   10.8009  -15.8198   22.8357 C   0  0  2  0  0  0  0  0  0  0  0  0
   10.8782  -15.7447   21.3999 N   0  0  0  0  0  0  0  0  0  0  0  0
   11.7509  -16.8012   23.3757 C   0  0  0  0  0  0  0  0  0  0  0  0
   11.9404  -16.8414   24.6353 O   0  0  0  0  0  0  0  0  0  0  0  0
   12.4357  -17.6714   22.5607 O   0  0  0  0  0  0  0  0  0  0  0  0
  2  4  1  0
  2  1  1  1
  3  2  1  0
  4  5  1  6
  6  4  1  0
  6 14  1  0
  7  6  2  0
  8  9  1  0
  9 11  1  0
 10  9  2  0
 11 12  1  0
 13 12  1  1
 13 14  1  0
 15 13  1  0
 16 15  2  0
 18 19  1  0
 18 17  1  6
 19 15  1  0
 20 18  1  0
 21 20  2  0
 22 20  1  0
M  END
$$$$
