TQA.pdb
     RDKit          3D

 22 21  0  0  1  0  0  0  0  0999 V2000
    8.6683  -12.4575   20.5363 C   0  0  0  0  0  0  0  0  0  0  0  0
    7.9307  -13.3028   19.5240 C   0  0  1  0  0  0  0  0  0  0  0  0
    8.2739  -12.9450   18.2281 O   0  0  0  0  0  0  0  0  0  0  0  0
    8.2685  -14.7459   19.7900 C   0  0  2  0  0  0  0  0  0  0  0  0
    7.6893  -15.6222   18.8077 N   0  0  0  0  0  0  0  0  0  0  0  0
    7.8815  -15.1552   21.1693 C   0  0  0  0  0  0  0  0  0  0  0  0
    6.6681  -15.4109   21.4545 O   0  0  0  0  0  0  0  0  0  0  0  0
   11.6675  -18.2148   22.9147 N   0  0  0  0  0  0  0  0  0  0  0  0
   10.3821  -18.6971   22.5811 C   0  0  0  0  0  0  0  0  0  0  0  0
   10.2871  -19.6812   21.8245 O   0  0  0  0  0  0  0  0  0  0  0  0
    9.1746  -18.0179   23.1414 C   0  0  0  0  0  0  0  0  0  0  0  0
    9.5482  -16.7428   23.8535 C   0  0  0  0  0  0  0  0  0  0  0  0
    8.5830  -15.6646   23.4978 C   0  0  2  0  0  0  0  0  0  0  0  0
    8.8978  -15.2490   22.1411 N   0  0  0  0  0  0  0  0  0  0  0  0
    8.5855  -14.4817   24.3596 C   0  0  0  0  0  0  0  0  0  0  0  0
    9.5617  -13.6846   24.5135 O   0  0  0  0  0  0  0  0  0  0  0  0
    5.9280  -12.5633   26.2556 C   0  0  0  0  0  0  0  0  0  0  0  0
    7.3183  -13.0909   26.0511 C   0  0  2  0  0  0  0  0  0  0  0  0
    7.3898  -14.1756   25.1068 N   0  0  0  0  0  0  0  0  0  0  0  0
    7.9501  -13.4463   27.3285 C   0  0  0  0  0  0  0  0  0  0  0  0
    8.2996  -14.6563   27.5232 O   0  0  0  0  0  0  0  0  0  0  0  0
    8.1720  -12.5117   28.3122 O   0  0  0  0  0  0  0  0  0  0  0  0
  2  4  1  0
  2  1  1  1
  3  2  1  0
  4  5  1  6
  6  4  1  0
  6 14  1  0
  7  6  2  0
  8  9  1  0
  9 11  1  0
 10  9  2  0
 11 12  1  0
 13 12  1  1
 13 14  1  0
 15 13  1  0
 16 15  2  0
 18 19  1  0
 18 17  1  1
 19 15  1  0
 20 18  1  0
 21 20  2  0
 22 20  1  0
M  END
$$$$
