TQA.pdb
     RDKit          3D

 22 21  0  0  1  0  0  0  0  0999 V2000
    9.0735  -12.7865   18.8839 C   0  0  0  0  0  0  0  0  0  0  0  0
    8.7735  -13.1294   20.3247 C   0  0  1  0  0  0  0  0  0  0  0  0
    7.9186  -12.1963   20.8936 O   0  0  0  0  0  0  0  0  0  0  0  0
    8.1640  -14.5060   20.3570 C   0  0  2  0  0  0  0  0  0  0  0  0
    6.9363  -14.5666   19.6105 N   0  0  0  0  0  0  0  0  0  0  0  0
    7.9676  -14.9869   21.7534 C   0  0  0  0  0  0  0  0  0  0  0  0
    6.8389  -14.8677   22.3287 O   0  0  0  0  0  0  0  0  0  0  0  0
    9.7527  -20.0564   21.1914 N   0  0  0  0  0  0  0  0  0  0  0  0
    9.9708  -19.4303   22.4390 C   0  0  0  0  0  0  0  0  0  0  0  0
   10.9733  -19.7495   23.1047 O   0  0  0  0  0  0  0  0  0  0  0  0
    8.9983  -18.4056   22.9265 C   0  0  0  0  0  0  0  0  0  0  0  0
    9.6770  -17.3845   23.8036 C   0  0  0  0  0  0  0  0  0  0  0  0
    8.9232  -16.0997   23.7589 C   0  0  2  0  0  0  0  0  0  0  0  0
    9.0667  -15.5745   22.4113 N   0  0  0  0  0  0  0  0  0  0  0  0
    9.3432  -15.0680   24.7080 C   0  0  0  0  0  0  0  0  0  0  0  0
   10.4040  -14.3756   24.6217 O   0  0  0  0  0  0  0  0  0  0  0  0
    7.6573  -13.0057   27.3082 C   0  0  0  0  0  0  0  0  0  0  0  0
    8.8313  -13.8206   26.8490 C   0  0  2  0  0  0  0  0  0  0  0  0
    8.4972  -14.7973   25.8451 N   0  0  0  0  0  0  0  0  0  0  0  0
    9.5353  -14.4331   27.9832 C   0  0  0  0  0  0  0  0  0  0  0  0
    9.6143  -15.7038   28.0410 O   0  0  0  0  0  0  0  0  0  0  0  0
   10.1070  -13.6741   28.9768 O   0  0  0  0  0  0  0  0  0  0  0  0
  2  4  1  0
  2  1  1  6
  3  2  1  0
  4  5  1  1
  6  4  1  0
  6 14  1  0
  7  6  2  0
  8  9  1  0
  9 11  1  0
 10  9  2  0
 11 12  1  0
 13 12  1  6
 13 14  1  0
 15 13  1  0
 16 15  2  0
 18 19  1  0
 18 17  1  1
 19 15  1  0
 20 18  1  0
 21 20  2  0
 22 20  1  0
M  END
$$$$
