TQA.pdb
     RDKit          3D

 22 21  0  0  1  0  0  0  0  0999 V2000
    6.5248  -17.2550   21.1180 C   0  0  0  0  0  0  0  0  0  0  0  0
    7.6557  -17.0272   20.1420 C   0  0  1  0  0  0  0  0  0  0  0  0
    7.2471  -17.2670   18.8378 O   0  0  0  0  0  0  0  0  0  0  0  0
    8.1295  -15.6071   20.3038 C   0  0  2  0  0  0  0  0  0  0  0  0
    9.0468  -15.2260   19.2639 N   0  0  0  0  0  0  0  0  0  0  0  0
    8.7199  -15.3754   21.6519 C   0  0  0  0  0  0  0  0  0  0  0  0
    9.9499  -15.6156   21.8723 O   0  0  0  0  0  0  0  0  0  0  0  0
    5.6095  -12.3147   26.1906 N   0  0  0  0  0  0  0  0  0  0  0  0
    6.8492  -12.5990   26.8060 C   0  0  0  0  0  0  0  0  0  0  0  0
    7.0704  -12.1525   27.9469 O   0  0  0  0  0  0  0  0  0  0  0  0
    7.8592  -13.4242   26.0763 C   0  0  0  0  0  0  0  0  0  0  0  0
    7.4173  -13.7006   24.6618 C   0  0  0  0  0  0  0  0  0  0  0  0
    8.4087  -14.5849   23.9868 C   0  0  2  0  0  0  0  0  0  0  0  0
    7.8759  -14.8847   22.6682 N   0  0  0  0  0  0  0  0  0  0  0  0
    8.7181  -15.8461   24.6618 C   0  0  0  0  0  0  0  0  0  0  0  0
    7.8873  -16.7754   24.9033 O   0  0  0  0  0  0  0  0  0  0  0  0
   11.8907  -17.7132   25.3676 C   0  0  0  0  0  0  0  0  0  0  0  0
   10.4929  -17.3009   25.7273 C   0  0  2  0  0  0  0  0  0  0  0  0
   10.0740  -16.0750   25.0987 N   0  0  0  0  0  0  0  0  0  0  0  0
   10.3066  -17.2507   27.1833 C   0  0  0  0  0  0  0  0  0  0  0  0
   10.6114  -18.2764   27.8755 O   0  0  0  0  0  0  0  0  0  0  0  0
    9.8148  -16.1317   27.8129 O   0  0  0  0  0  0  0  0  0  0  0  0
  2  4  1  0
  2  1  1  1
  3  2  1  0
  4  5  1  6
  6  4  1  0
  6 14  1  0
  7  6  2  0
  8  9  1  0
  9 11  1  0
 10  9  2  0
 11 12  1  0
 13 12  1  1
 13 14  1  0
 15 13  1  0
 16 15  2  0
 18 19  1  0
 18 17  1  1
 19 15  1  0
 20 18  1  0
 21 20  2  0
 22 20  1  0
M  END
$$$$
