DKD.pdb
     RDKit          3D

 26 25  0  0  1  0  0  0  0  0999 V2000
   15.0097  -13.0854  -13.8689 N   0  0  0  0  0  0  0  0  0  0  0  0
   15.1365  -11.7751  -14.4004 C   0  0  1  0  0  0  0  0  0  0  0  0
   14.3022  -10.7373  -13.7251 C   0  0  0  0  0  0  0  0  0  0  0  0
   12.8542  -11.0614  -13.7417 C   0  0  0  0  0  0  0  0  0  0  0  0
   12.1700  -11.0385  -12.6912 O   0  0  0  0  0  0  0  0  0  0  0  0
   16.5597  -11.3567  -14.3416 C   0  0  0  0  0  0  0  0  0  0  0  0
   17.2219  -11.4644  -13.2789 O   0  0  0  0  0  0  0  0  0  0  0  0
   12.2442  -11.3946  -14.9304 O   0  0  0  0  0  0  0  0  0  0  0  0
   17.1601  -10.8342  -15.5032 N   0  0  0  0  0  0  0  0  0  0  0  0
   18.5559  -10.4288  -15.5460 C   0  0  1  0  0  0  0  0  0  0  0  0
   19.1921  -10.7810  -16.8638 C   0  0  0  0  0  0  0  0  0  0  0  0
   19.3901  -12.2691  -17.0240 C   0  0  0  0  0  0  0  0  0  0  0  0
   19.8717  -12.5267  -18.4493 C   0  0  0  0  0  0  0  0  0  0  0  0
   20.0425  -14.0314  -18.5781 C   0  0  0  0  0  0  0  0  0  0  0  0
   20.4771  -14.4160  -19.9015 N   0  0  0  0  0  0  0  0  0  0  0  0
   18.6952   -8.9918  -15.2194 C   0  0  0  0  0  0  0  0  0  0  0  0
   17.7742   -8.1899  -15.5178 O   0  0  0  0  0  0  0  0  0  0  0  0
   19.8629   -8.5283  -14.5737 N   0  0  0  0  0  0  0  0  0  0  0  0
   20.0472   -7.0986  -14.2045 C   0  0  1  0  0  0  0  0  0  0  0  0
   21.2558   -7.0130  -13.3054 C   0  0  0  0  0  0  0  0  0  0  0  0
   21.6000   -5.6715  -12.8501 C   0  0  0  0  0  0  0  0  0  0  0  0
   20.7345   -4.8576  -12.4870 O   0  0  0  0  0  0  0  0  0  0  0  0
   20.3062   -6.3505  -15.4651 C   0  0  0  0  0  0  0  0  0  0  0  0
   20.9817   -6.7831  -16.4164 O   0  0  0  0  0  0  0  0  0  0  0  0
   22.9300   -5.2172  -12.7944 O   0  0  0  0  0  0  0  0  0  0  0  0
   19.7715   -5.0673  -15.6338 O   0  0  0  0  0  0  0  0  0  0  0  0
  2  1  1  1
  2  3  1  0
  3  4  1  0
  4  8  1  0
  4  5  2  0
  6  2  1  0
  7  6  2  0
  9  6  1  0
 10  9  1  0
 10 11  1  6
 11 12  1  0
 13 14  1  0
 13 12  1  0
 15 14  1  0
 16 17  2  0
 16 10  1  0
 18 16  1  0
 19 18  1  0
 19 20  1  1
 20 21  1  0
 21 25  1  0
 21 22  2  0
 23 19  1  0
 24 23  2  0
 26 23  1  0
M  END
$$$$
