DKD.pdb
     RDKit          3D

 26 25  0  0  1  0  0  0  0  0999 V2000
   13.9242   -9.2587   -8.3436 N   0  0  0  0  0  0  0  0  0  0  0  0
   14.3850   -8.0292   -8.8836 C   0  0  1  0  0  0  0  0  0  0  0  0
   14.6772   -6.9678   -7.8751 C   0  0  0  0  0  0  0  0  0  0  0  0
   13.4581   -6.4744   -7.1878 C   0  0  0  0  0  0  0  0  0  0  0  0
   13.3198   -6.5872   -5.9467 O   0  0  0  0  0  0  0  0  0  0  0  0
   15.6084   -8.2738   -9.6881 C   0  0  0  0  0  0  0  0  0  0  0  0
   16.5489   -8.9752   -9.2378 O   0  0  0  0  0  0  0  0  0  0  0  0
   12.4556   -5.8802   -7.9215 O   0  0  0  0  0  0  0  0  0  0  0  0
   15.6988   -7.7040  -10.9726 N   0  0  0  0  0  0  0  0  0  0  0  0
   16.7243   -8.0911  -11.9282 C   0  0  1  0  0  0  0  0  0  0  0  0
   16.1209   -8.5541  -13.2270 C   0  0  0  0  0  0  0  0  0  0  0  0
   15.5232   -9.9364  -13.1197 C   0  0  0  0  0  0  0  0  0  0  0  0
   16.5626  -10.9362  -13.6197 C   0  0  0  0  0  0  0  0  0  0  0  0
   15.8733  -12.2903  -13.6518 C   0  0  0  0  0  0  0  0  0  0  0  0
   16.7872  -13.3554  -13.9958 N   0  0  0  0  0  0  0  0  0  0  0  0
   17.7027   -6.9970  -12.1199 C   0  0  0  0  0  0  0  0  0  0  0  0
   17.3183   -5.8006  -12.0871 O   0  0  0  0  0  0  0  0  0  0  0  0
   19.0642   -7.3029  -12.3390 N   0  0  0  0  0  0  0  0  0  0  0  0
   20.0672   -6.2532  -12.6658 C   0  0  1  0  0  0  0  0  0  0  0  0
   21.4085   -6.9313  -12.7985 C   0  0  0  0  0  0  0  0  0  0  0  0
   22.4983   -6.0739  -13.2484 C   0  0  0  0  0  0  0  0  0  0  0  0
   22.4178   -4.8347  -13.2138 O   0  0  0  0  0  0  0  0  0  0  0  0
   19.6726   -5.6625  -13.9739 C   0  0  0  0  0  0  0  0  0  0  0  0
   19.3593   -6.3230  -14.9808 O   0  0  0  0  0  0  0  0  0  0  0  0
   23.7050   -6.5958  -13.7483 O   0  0  0  0  0  0  0  0  0  0  0  0
   19.6382   -4.2708  -14.1255 O   0  0  0  0  0  0  0  0  0  0  0  0
  2  1  1  1
  2  3  1  0
  3  4  1  0
  4  8  1  0
  4  5  2  0
  6  2  1  0
  7  6  2  0
  9  6  1  0
 10  9  1  0
 10 11  1  6
 11 12  1  0
 13 14  1  0
 13 12  1  0
 15 14  1  0
 16 17  2  0
 16 10  1  0
 18 16  1  0
 19 18  1  0
 19 20  1  6
 20 21  1  0
 21 25  1  0
 21 22  2  0
 23 19  1  0
 24 23  2  0
 26 23  1  0
M  END
$$$$
