DKD.pdb
     RDKit          3D

 26 25  0  0  1  0  0  0  0  0999 V2000
   15.6535  -11.2134  -12.8310 N   0  0  0  0  0  0  0  0  0  0  0  0
   16.6404  -10.2507  -12.4923 C   0  0  1  0  0  0  0  0  0  0  0  0
   17.5408   -9.8495  -13.6137 C   0  0  0  0  0  0  0  0  0  0  0  0
   18.2892  -10.9941  -14.1897 C   0  0  0  0  0  0  0  0  0  0  0  0
   18.1662  -11.3111  -15.3966 O   0  0  0  0  0  0  0  0  0  0  0  0
   15.9776   -9.0363  -11.9538 C   0  0  0  0  0  0  0  0  0  0  0  0
   15.4391   -8.1995  -12.7212 O   0  0  0  0  0  0  0  0  0  0  0  0
   19.1368  -11.7264  -13.3886 O   0  0  0  0  0  0  0  0  0  0  0  0
   15.9614   -8.8359  -10.5601 N   0  0  0  0  0  0  0  0  0  0  0  0
   15.2254   -7.7480   -9.9362 C   0  0  1  0  0  0  0  0  0  0  0  0
   14.5167   -8.2056   -8.6897 C   0  0  0  0  0  0  0  0  0  0  0  0
   13.1385   -8.7483   -8.9816 C   0  0  0  0  0  0  0  0  0  0  0  0
   12.4821   -9.1008   -7.6494 C   0  0  0  0  0  0  0  0  0  0  0  0
   11.1045   -9.6493   -7.9827 C   0  0  0  0  0  0  0  0  0  0  0  0
   10.3855  -10.0635   -6.7997 N   0  0  0  0  0  0  0  0  0  0  0  0
   16.1124   -6.5895   -9.6869 C   0  0  0  0  0  0  0  0  0  0  0  0
   17.2013   -6.7538   -9.0806 O   0  0  0  0  0  0  0  0  0  0  0  0
   15.7307   -5.3043  -10.1316 N   0  0  0  0  0  0  0  0  0  0  0  0
   16.6241   -4.1224   -9.9926 C   0  0  1  0  0  0  0  0  0  0  0  0
   17.0525   -3.7102  -11.3794 C   0  0  0  0  0  0  0  0  0  0  0  0
   17.7162   -2.4153  -11.4675 C   0  0  0  0  0  0  0  0  0  0  0  0
   17.2055   -1.4536  -12.0655 O   0  0  0  0  0  0  0  0  0  0  0  0
   15.8185   -3.0348   -9.3729 C   0  0  0  0  0  0  0  0  0  0  0  0
   14.5751   -3.0146   -9.3295 O   0  0  0  0  0  0  0  0  0  0  0  0
   18.9727   -2.1757  -10.8825 O   0  0  0  0  0  0  0  0  0  0  0  0
   16.4647   -1.9394   -8.7867 O   0  0  0  0  0  0  0  0  0  0  0  0
  2  1  1  6
  2  3  1  0
  3  4  1  0
  4  8  1  0
  4  5  2  0
  6  2  1  0
  7  6  2  0
  9  6  1  0
 10  9  1  0
 10 11  1  1
 11 12  1  0
 13 14  1  0
 13 12  1  0
 15 14  1  0
 16 17  2  0
 16 10  1  0
 18 16  1  0
 19 18  1  0
 19 20  1  6
 20 21  1  0
 21 25  1  0
 21 22  2  0
 23 19  1  0
 24 23  2  0
 26 23  1  0
M  END
$$$$
