DKD.pdb
     RDKit          3D

 26 25  0  0  1  0  0  0  0  0999 V2000
   21.3020  -35.3097   -2.0479 N   0  0  0  0  0  0  0  0  0  0  0  0
   22.3506  -34.4264   -1.6791 C   0  0  1  0  0  0  0  0  0  0  0  0
   22.8063  -34.5456   -0.2624 C   0  0  0  0  0  0  0  0  0  0  0  0
   21.8129  -34.0237    0.7085 C   0  0  0  0  0  0  0  0  0  0  0  0
   20.7054  -33.5748    0.3289 O   0  0  0  0  0  0  0  0  0  0  0  0
   23.5140  -34.6438   -2.5753 C   0  0  0  0  0  0  0  0  0  0  0  0
   24.0303  -35.7827   -2.6998 O   0  0  0  0  0  0  0  0  0  0  0  0
   22.1068  -34.0297    2.0538 O   0  0  0  0  0  0  0  0  0  0  0  0
   24.0330  -33.5464   -3.2888 N   0  0  0  0  0  0  0  0  0  0  0  0
   25.1903  -33.6594   -4.1620 C   0  0  1  0  0  0  0  0  0  0  0  0
   25.3266  -32.4558   -5.0552 C   0  0  0  0  0  0  0  0  0  0  0  0
   26.4439  -32.6114   -6.0586 C   0  0  0  0  0  0  0  0  0  0  0  0
   25.8144  -32.7625   -7.4409 C   0  0  0  0  0  0  0  0  0  0  0  0
   26.9589  -33.0221   -8.4065 C   0  0  0  0  0  0  0  0  0  0  0  0
   26.5303  -32.9567   -9.7849 N   0  0  0  0  0  0  0  0  0  0  0  0
   26.4173  -33.9194   -3.3758 C   0  0  0  0  0  0  0  0  0  0  0  0
   26.4779  -33.5600   -2.1728 O   0  0  0  0  0  0  0  0  0  0  0  0
   27.5147  -34.5705   -3.9818 N   0  0  0  0  0  0  0  0  0  0  0  0
   28.7068  -35.0012   -3.2021 C   0  0  1  0  0  0  0  0  0  0  0  0
   28.2236  -35.9029   -2.0931 C   0  0  0  0  0  0  0  0  0  0  0  0
   29.1679  -36.1095   -1.0018 C   0  0  0  0  0  0  0  0  0  0  0  0
   28.8418  -36.6833    0.0507 O   0  0  0  0  0  0  0  0  0  0  0  0
   29.5816  -35.7707   -4.1285 C   0  0  0  0  0  0  0  0  0  0  0  0
   29.1688  -36.5686   -4.9896 O   0  0  0  0  0  0  0  0  0  0  0  0
   30.5030  -35.6725   -1.0731 O   0  0  0  0  0  0  0  0  0  0  0  0
   30.9717  -35.6161   -4.0604 O   0  0  0  0  0  0  0  0  0  0  0  0
  2  1  1  6
  2  3  1  0
  3  4  1  0
  4  8  1  0
  4  5  2  0
  6  2  1  0
  7  6  2  0
  9  6  1  0
 10  9  1  0
 10 11  1  1
 11 12  1  0
 13 14  1  0
 13 12  1  0
 15 14  1  0
 16 17  2  0
 16 10  1  0
 18 16  1  0
 19 18  1  0
 19 20  1  1
 20 21  1  0
 21 25  1  0
 21 22  2  0
 23 19  1  0
 24 23  2  0
 26 23  1  0
M  END
$$$$
