DKD.pdb
     RDKit          3D

 26 25  0  0  1  0  0  0  0  0999 V2000
   13.3729  -11.3650  -11.1502 N   0  0  0  0  0  0  0  0  0  0  0  0
   14.7640  -11.0822  -11.1338 C   0  0  1  0  0  0  0  0  0  0  0  0
   15.5394  -11.6657  -12.2684 C   0  0  0  0  0  0  0  0  0  0  0  0
   15.5047  -13.1491  -12.2877 C   0  0  0  0  0  0  0  0  0  0  0  0
   14.7231  -13.7721  -13.0449 O   0  0  0  0  0  0  0  0  0  0  0  0
   14.9661   -9.6115  -11.1232 C   0  0  0  0  0  0  0  0  0  0  0  0
   14.6384   -8.9066  -12.1107 O   0  0  0  0  0  0  0  0  0  0  0  0
   16.3444  -13.8611  -11.4605 O   0  0  0  0  0  0  0  0  0  0  0  0
   15.5343   -9.0147   -9.9814 N   0  0  0  0  0  0  0  0  0  0  0  0
   15.6801   -7.5744   -9.8437 C   0  0  1  0  0  0  0  0  0  0  0  0
   15.1275   -7.0874   -8.5312 C   0  0  0  0  0  0  0  0  0  0  0  0
   15.1466   -5.5814   -8.4258 C   0  0  0  0  0  0  0  0  0  0  0  0
   14.4407   -5.1937   -7.1292 C   0  0  0  0  0  0  0  0  0  0  0  0
   14.3252   -3.6783   -7.1412 C   0  0  0  0  0  0  0  0  0  0  0  0
   13.5323   -3.1866   -6.0378 N   0  0  0  0  0  0  0  0  0  0  0  0
   17.0887   -7.1677  -10.0476 C   0  0  0  0  0  0  0  0  0  0  0  0
   17.9108   -7.2623   -9.1014 O   0  0  0  0  0  0  0  0  0  0  0  0
   17.5023   -6.6749  -11.3051 N   0  0  0  0  0  0  0  0  0  0  0  0
   18.8972   -6.2211  -11.5561 C   0  0  1  0  0  0  0  0  0  0  0  0
   19.6283   -7.3522  -12.2361 C   0  0  0  0  0  0  0  0  0  0  0  0
   20.9767   -7.0377  -12.6921 C   0  0  0  0  0  0  0  0  0  0  0  0
   21.4931   -7.6122  -13.6650 O   0  0  0  0  0  0  0  0  0  0  0  0
   18.8189   -5.0515  -12.4735 C   0  0  0  0  0  0  0  0  0  0  0  0
   19.7922   -4.3546  -12.8133 O   0  0  0  0  0  0  0  0  0  0  0  0
   21.7743   -6.0668  -12.0599 O   0  0  0  0  0  0  0  0  0  0  0  0
   17.5834   -4.6745  -13.0145 O   0  0  0  0  0  0  0  0  0  0  0  0
  2  1  1  6
  2  3  1  0
  3  4  1  0
  4  8  1  0
  4  5  2  0
  6  2  1  0
  7  6  2  0
  9  6  1  0
 10  9  1  0
 10 11  1  1
 11 12  1  0
 13 14  1  0
 13 12  1  0
 15 14  1  0
 16 17  2  0
 16 10  1  0
 18 16  1  0
 19 18  1  0
 19 20  1  6
 20 21  1  0
 21 25  1  0
 21 22  2  0
 23 19  1  0
 24 23  2  0
 26 23  1  0
M  END
$$$$
