DKD.pdb
     RDKit          3D

 26 25  0  0  1  0  0  0  0  0999 V2000
   29.6095  -36.0199   -1.2905 N   0  0  0  0  0  0  0  0  0  0  0  0
   29.2085  -34.7124   -0.9094 C   0  0  1  0  0  0  0  0  0  0  0  0
   27.9976  -34.1942   -1.6126 C   0  0  0  0  0  0  0  0  0  0  0  0
   28.2502  -33.8814   -3.0410 C   0  0  0  0  0  0  0  0  0  0  0  0
   29.3666  -34.1012   -3.5679 O   0  0  0  0  0  0  0  0  0  0  0  0
   28.9612  -34.6814    0.5541 C   0  0  0  0  0  0  0  0  0  0  0  0
   28.3243  -35.6040    1.1218 O   0  0  0  0  0  0  0  0  0  0  0  0
   27.2434  -33.3391   -3.8081 O   0  0  0  0  0  0  0  0  0  0  0  0
   29.4552  -33.5948    1.3010 N   0  0  0  0  0  0  0  0  0  0  0  0
   29.2978  -33.5030    2.7437 C   0  0  1  0  0  0  0  0  0  0  0  0
   30.3439  -32.6114    3.3568 C   0  0  0  0  0  0  0  0  0  0  0  0
   30.2791  -32.6066    4.8651 C   0  0  0  0  0  0  0  0  0  0  0  0
   31.4241  -31.7386    5.3804 C   0  0  0  0  0  0  0  0  0  0  0  0
   31.3773  -31.8243    6.8970 C   0  0  0  0  0  0  0  0  0  0  0  0
   32.4533  -31.0837    7.5150 N   0  0  0  0  0  0  0  0  0  0  0  0
   27.9228  -33.0828    3.0958 C   0  0  0  0  0  0  0  0  0  0  0  0
   27.3840  -32.1269    2.4825 O   0  0  0  0  0  0  0  0  0  0  0  0
   27.2226  -33.7583    4.1198 N   0  0  0  0  0  0  0  0  0  0  0  0
   25.8421  -33.3729    4.5200 C   0  0  1  0  0  0  0  0  0  0  0  0
   25.0414  -34.6427    4.6728 C   0  0  0  0  0  0  0  0  0  0  0  0
   24.0720  -34.8991    3.6147 C   0  0  0  0  0  0  0  0  0  0  0  0
   24.2891  -35.7205    2.7084 O   0  0  0  0  0  0  0  0  0  0  0  0
   25.9437  -32.6832    5.8352 C   0  0  0  0  0  0  0  0  0  0  0  0
   25.1004  -31.8835    6.2798 O   0  0  0  0  0  0  0  0  0  0  0  0
   22.8343  -34.2336    3.5548 O   0  0  0  0  0  0  0  0  0  0  0  0
   27.0490  -32.9221    6.6612 O   0  0  0  0  0  0  0  0  0  0  0  0
  2  1  1  6
  2  3  1  0
  3  4  1  0
  4  8  1  0
  4  5  2  0
  6  2  1  0
  7  6  2  0
  9  6  1  0
 10  9  1  0
 10 11  1  6
 11 12  1  0
 13 14  1  0
 13 12  1  0
 15 14  1  0
 16 17  2  0
 16 10  1  0
 18 16  1  0
 19 18  1  0
 19 20  1  1
 20 21  1  0
 21 25  1  0
 21 22  2  0
 23 19  1  0
 24 23  2  0
 26 23  1  0
M  END
$$$$
