DKD.pdb
     RDKit          3D

 26 25  0  0  1  0  0  0  0  0999 V2000
   25.2654  -11.3081  -17.8850 N   0  0  0  0  0  0  0  0  0  0  0  0
   24.9090  -10.7105  -16.6475 C   0  0  1  0  0  0  0  0  0  0  0  0
   25.9652   -9.8513  -16.0350 C   0  0  0  0  0  0  0  0  0  0  0  0
   27.1986  -10.6051  -15.6994 C   0  0  0  0  0  0  0  0  0  0  0  0
   27.2759  -11.8427  -15.8852 O   0  0  0  0  0  0  0  0  0  0  0  0
   23.6793   -9.8992  -16.8300 C   0  0  0  0  0  0  0  0  0  0  0  0
   23.5421   -9.1486  -17.8286 O   0  0  0  0  0  0  0  0  0  0  0  0
   28.2827   -9.9384  -15.1735 O   0  0  0  0  0  0  0  0  0  0  0  0
   22.6620   -9.9847  -15.8602 N   0  0  0  0  0  0  0  0  0  0  0  0
   21.3550   -9.3741  -16.0434 C   0  0  1  0  0  0  0  0  0  0  0  0
   20.2476  -10.3768  -15.8603 C   0  0  0  0  0  0  0  0  0  0  0  0
   18.8837   -9.7709  -16.0884 C   0  0  0  0  0  0  0  0  0  0  0  0
   17.8529  -10.8938  -16.0078 C   0  0  0  0  0  0  0  0  0  0  0  0
   16.5135  -10.2721  -16.3671 C   0  0  0  0  0  0  0  0  0  0  0  0
   15.4210  -11.2021  -16.1952 N   0  0  0  0  0  0  0  0  0  0  0  0
   21.1987   -8.1948  -15.1626 C   0  0  0  0  0  0  0  0  0  0  0  0
   21.4465   -8.2937  -13.9342 O   0  0  0  0  0  0  0  0  0  0  0  0
   20.7714   -6.9634  -15.7070 N   0  0  0  0  0  0  0  0  0  0  0  0
   20.4836   -5.7792  -14.8529 C   0  0  1  0  0  0  0  0  0  0  0  0
   21.0833   -4.5724  -15.5314 C   0  0  0  0  0  0  0  0  0  0  0  0
   21.5601   -3.5263  -14.6350 C   0  0  0  0  0  0  0  0  0  0  0  0
   22.7363   -3.4865  -14.2371 O   0  0  0  0  0  0  0  0  0  0  0  0
   19.0035   -5.6345  -14.7891 C   0  0  0  0  0  0  0  0  0  0  0  0
   18.3803   -5.1798  -13.8128 O   0  0  0  0  0  0  0  0  0  0  0  0
   20.7197   -2.5004  -14.1663 O   0  0  0  0  0  0  0  0  0  0  0  0
   18.2196   -6.0252  -15.8818 O   0  0  0  0  0  0  0  0  0  0  0  0
  2  1  1  6
  2  3  1  0
  3  4  1  0
  4  8  1  0
  4  5  2  0
  6  2  1  0
  7  6  2  0
  9  6  1  0
 10  9  1  0
 10 11  1  1
 11 12  1  0
 13 14  1  0
 13 12  1  0
 15 14  1  0
 16 17  2  0
 16 10  1  0
 18 16  1  0
 19 18  1  0
 19 20  1  6
 20 21  1  0
 21 25  1  0
 21 22  2  0
 23 19  1  0
 24 23  2  0
 26 23  1  0
M  END
$$$$
