DKD.pdb
     RDKit          3D

 26 25  0  0  1  0  0  0  0  0999 V2000
   24.6446  -19.5572  -15.7677 N   0  0  0  0  0  0  0  0  0  0  0  0
   24.3350  -20.9416  -15.7107 C   0  0  1  0  0  0  0  0  0  0  0  0
   25.4928  -21.8346  -15.4089 C   0  0  0  0  0  0  0  0  0  0  0  0
   26.6552  -21.5919  -16.2988 C   0  0  0  0  0  0  0  0  0  0  0  0
   27.8309  -21.6716  -15.8702 O   0  0  0  0  0  0  0  0  0  0  0  0
   23.2791  -21.1672  -14.6917 C   0  0  0  0  0  0  0  0  0  0  0  0
   23.0162  -22.3244  -14.2784 O   0  0  0  0  0  0  0  0  0  0  0  0
   26.4455  -21.2723  -17.6217 O   0  0  0  0  0  0  0  0  0  0  0  0
   22.5725  -20.0564  -14.1920 N   0  0  0  0  0  0  0  0  0  0  0  0
   21.4965  -20.1871  -13.2227 C   0  0  1  0  0  0  0  0  0  0  0  0
   21.4746  -19.0273  -12.2636 C   0  0  0  0  0  0  0  0  0  0  0  0
   20.3826  -19.1604  -11.2297 C   0  0  0  0  0  0  0  0  0  0  0  0
   20.8007  -20.2486  -10.2444 C   0  0  0  0  0  0  0  0  0  0  0  0
   19.6532  -20.3978   -9.2590 C   0  0  0  0  0  0  0  0  0  0  0  0
   19.9531  -21.3551   -8.2190 N   0  0  0  0  0  0  0  0  0  0  0  0
   20.1967  -20.3791  -13.9043 C   0  0  0  0  0  0  0  0  0  0  0  0
   19.8638  -19.6139  -14.8445 O   0  0  0  0  0  0  0  0  0  0  0  0
   19.3361  -21.4216  -13.4947 N   0  0  0  0  0  0  0  0  0  0  0  0
   17.9841  -21.6092  -14.0875 C   0  0  1  0  0  0  0  0  0  0  0  0
   17.4454  -22.9257  -13.5845 C   0  0  0  0  0  0  0  0  0  0  0  0
   16.1437  -23.3104  -14.1162 C   0  0  0  0  0  0  0  0  0  0  0  0
   15.8518  -23.1598  -15.3143 O   0  0  0  0  0  0  0  0  0  0  0  0
   17.1299  -20.4957  -13.5913 C   0  0  0  0  0  0  0  0  0  0  0  0
   17.0402  -20.1525  -12.3986 O   0  0  0  0  0  0  0  0  0  0  0  0
   15.1405  -23.8742  -13.3074 O   0  0  0  0  0  0  0  0  0  0  0  0
   16.3572  -19.7568  -14.4957 O   0  0  0  0  0  0  0  0  0  0  0  0
  2  1  1  1
  2  3  1  0
  3  4  1  0
  4  8  1  0
  4  5  2  0
  6  2  1  0
  7  6  2  0
  9  6  1  0
 10  9  1  0
 10 11  1  6
 11 12  1  0
 13 14  1  0
 13 12  1  0
 15 14  1  0
 16 17  2  0
 16 10  1  0
 18 16  1  0
 19 18  1  0
 19 20  1  1
 20 21  1  0
 21 25  1  0
 21 22  2  0
 23 19  1  0
 24 23  2  0
 26 23  1  0
M  END
$$$$
