DKD.pdb
     RDKit          3D

 26 25  0  0  1  0  0  0  0  0999 V2000
   13.1556  -10.1697  -10.7684 N   0  0  0  0  0  0  0  0  0  0  0  0
   14.5161  -10.0240  -10.3894 C   0  0  1  0  0  0  0  0  0  0  0  0
   15.4798  -10.8586  -11.1665 C   0  0  0  0  0  0  0  0  0  0  0  0
   15.1603  -12.3068  -11.1148 C   0  0  0  0  0  0  0  0  0  0  0  0
   15.0532  -12.9875  -12.1623 O   0  0  0  0  0  0  0  0  0  0  0  0
   14.9105   -8.5982  -10.5134 C   0  0  0  0  0  0  0  0  0  0  0  0
   14.5809   -7.9212  -11.5196 O   0  0  0  0  0  0  0  0  0  0  0  0
   14.9765  -12.9209   -9.8960 O   0  0  0  0  0  0  0  0  0  0  0  0
   15.6645   -8.0121   -9.4786 N   0  0  0  0  0  0  0  0  0  0  0  0
   16.0137   -6.6006   -9.4699 C   0  0  1  0  0  0  0  0  0  0  0  0
   15.5702   -5.9308   -8.1970 C   0  0  0  0  0  0  0  0  0  0  0  0
   14.0914   -5.6266   -8.1958 C   0  0  0  0  0  0  0  0  0  0  0  0
   13.7408   -5.0123   -6.8432 C   0  0  0  0  0  0  0  0  0  0  0  0
   12.2852   -4.5845   -6.9317 C   0  0  0  0  0  0  0  0  0  0  0  0
   11.8207   -3.9856   -5.7014 N   0  0  0  0  0  0  0  0  0  0  0  0
   17.4593   -6.4161   -9.7294 C   0  0  0  0  0  0  0  0  0  0  0  0
   18.3007   -6.7714   -8.8658 O   0  0  0  0  0  0  0  0  0  0  0  0
   17.8864   -5.8412  -10.9470 N   0  0  0  0  0  0  0  0  0  0  0  0
   19.3174   -5.8265  -11.3548 C   0  0  1  0  0  0  0  0  0  0  0  0
   19.7652   -7.2605  -11.4951 C   0  0  0  0  0  0  0  0  0  0  0  0
   21.1228   -7.4434  -11.9937 C   0  0  0  0  0  0  0  0  0  0  0  0
   22.0432   -6.6633  -11.6977 O   0  0  0  0  0  0  0  0  0  0  0  0
   19.3890   -5.1474  -12.6775 C   0  0  0  0  0  0  0  0  0  0  0  0
   20.4422   -4.7637  -13.2178 O   0  0  0  0  0  0  0  0  0  0  0  0
   21.4732   -8.5117  -12.8390 O   0  0  0  0  0  0  0  0  0  0  0  0
   18.2130   -4.9038  -13.3978 O   0  0  0  0  0  0  0  0  0  0  0  0
  2  1  1  6
  2  3  1  0
  3  4  1  0
  4  8  1  0
  4  5  2  0
  6  2  1  0
  7  6  2  0
  9  6  1  0
 10  9  1  0
 10 11  1  1
 11 12  1  0
 13 14  1  0
 13 12  1  0
 15 14  1  0
 16 17  2  0
 16 10  1  0
 18 16  1  0
 19 18  1  0
 19 20  1  6
 20 21  1  0
 21 25  1  0
 21 22  2  0
 23 19  1  0
 24 23  2  0
 26 23  1  0
M  END
$$$$
