DKD.pdb
     RDKit          3D

 26 25  0  0  1  0  0  0  0  0999 V2000
   44.0840  -10.6478   -5.8101 N   0  0  0  0  0  0  0  0  0  0  0  0
   42.7591  -10.1398   -5.8543 C   0  0  1  0  0  0  0  0  0  0  0  0
   42.4630   -9.0635   -4.8628 C   0  0  0  0  0  0  0  0  0  0  0  0
   42.5387   -9.5369   -3.4585 C   0  0  0  0  0  0  0  0  0  0  0  0
   43.5033   -9.2290   -2.7189 O   0  0  0  0  0  0  0  0  0  0  0  0
   42.4758   -9.6248   -7.2176 C   0  0  0  0  0  0  0  0  0  0  0  0
   43.3993   -9.1845   -7.9473 O   0  0  0  0  0  0  0  0  0  0  0  0
   41.5336  -10.3300   -2.9516 O   0  0  0  0  0  0  0  0  0  0  0  0
   41.1470   -9.6379   -7.6834 N   0  0  0  0  0  0  0  0  0  0  0  0
   40.7453   -8.9807   -8.9168 C   0  0  1  0  0  0  0  0  0  0  0  0
   39.9692   -9.9110   -9.8097 C   0  0  0  0  0  0  0  0  0  0  0  0
   39.5068   -9.2341  -11.0775 C   0  0  0  0  0  0  0  0  0  0  0  0
   38.7917  -10.2776  -11.9316 C   0  0  0  0  0  0  0  0  0  0  0  0
   38.3285   -9.5583  -13.1877 C   0  0  0  0  0  0  0  0  0  0  0  0
   37.5860  -10.4304  -14.0688 N   0  0  0  0  0  0  0  0  0  0  0  0
   40.0075   -7.7302   -8.6287 C   0  0  0  0  0  0  0  0  0  0  0  0
   39.1324   -7.7134   -7.7264 O   0  0  0  0  0  0  0  0  0  0  0  0
   40.2904   -6.5613   -9.3696 N   0  0  0  0  0  0  0  0  0  0  0  0
   39.5349   -5.2953   -9.1673 C   0  0  1  0  0  0  0  0  0  0  0  0
   40.5339   -4.1645   -9.1664 C   0  0  0  0  0  0  0  0  0  0  0  0
   39.9604   -2.8265   -9.0892 C   0  0  0  0  0  0  0  0  0  0  0  0
   39.3198   -2.4415   -8.0968 O   0  0  0  0  0  0  0  0  0  0  0  0
   38.6109   -5.1469  -10.3248 C   0  0  0  0  0  0  0  0  0  0  0  0
   38.6926   -5.7992  -11.3813 O   0  0  0  0  0  0  0  0  0  0  0  0
   40.0965   -1.8914  -10.1311 O   0  0  0  0  0  0  0  0  0  0  0  0
   37.5628   -4.2202  -10.2626 O   0  0  0  0  0  0  0  0  0  0  0  0
  2  1  1  6
  2  3  1  0
  3  4  1  0
  4  8  1  0
  4  5  2  0
  6  2  1  0
  7  6  2  0
  9  6  1  0
 10  9  1  0
 10 11  1  1
 11 12  1  0
 13 14  1  0
 13 12  1  0
 15 14  1  0
 16 17  2  0
 16 10  1  0
 18 16  1  0
 19 18  1  0
 19 20  1  6
 20 21  1  0
 21 25  1  0
 21 22  2  0
 23 19  1  0
 24 23  2  0
 26 23  1  0
M  END
$$$$
