GHP.pdb
     RDKit          3D

 22 23  0  0  1  0  0  0  0  0999 V2000
   12.1259  -16.8694   20.7216 N   0  0  0  0  0  0  0  0  0  0  0  0
   10.9794  -17.2173   21.5078 C   0  0  0  0  0  0  0  0  0  0  0  0
   10.3866  -15.9794   22.1309 C   0  0  0  0  0  0  0  0  0  0  0  0
   11.1427  -15.1051   22.5632 O   0  0  0  0  0  0  0  0  0  0  0  0
    8.9918  -15.7922   22.2340 N   0  0  0  0  0  0  0  0  0  0  0  0
    8.3862  -14.7461   22.9225 C   0  0  1  0  0  0  0  0  0  0  0  0
    7.2316  -14.0116   22.2520 C   0  0  0  0  0  0  0  0  0  0  0  0
    7.5392  -13.7638   20.8378 C   0  0  0  0  0  0  0  0  0  0  0  0
    8.1132  -12.7529   20.1349 C   0  0  0  0  0  0  0  0  0  0  0  0
    8.1555  -13.0765   18.8160 N   0  0  0  0  0  0  0  0  0  0  0  0
    7.6104  -14.2918   18.6733 C   0  0  0  0  0  0  0  0  0  0  0  0
    7.2430  -14.7054   19.8672 N   0  0  0  0  0  0  0  0  0  0  0  0
    8.2757  -14.8076   24.3789 C   0  0  0  0  0  0  0  0  0  0  0  0
    8.7657  -15.8653   24.9224 O   0  0  0  0  0  0  0  0  0  0  0  0
    7.6829  -13.8109   25.1868 N   0  0  0  0  0  0  0  0  0  0  0  0
    7.1094  -12.5733   24.7367 C   0  0  0  0  0  0  0  0  0  0  0  0
    6.9583  -11.7012   25.9959 C   0  0  0  0  0  0  0  0  0  0  0  0
    6.7612  -12.7194   27.0618 C   0  0  0  0  0  0  0  0  0  0  0  0
    7.5571  -13.9090   26.6476 C   0  0  1  0  0  0  0  0  0  0  0  0
    6.8797  -15.1667   27.0304 C   0  0  0  0  0  0  0  0  0  0  0  0
    7.1358  -15.7077   28.1329 O   0  0  0  0  0  0  0  0  0  0  0  0
    5.9558  -15.7848   26.2070 O   0  0  0  0  0  0  0  0  0  0  0  0
  2  1  1  0
  3  4  2  0
  3  2  1  0
  5  3  1  0
  6  5  1  0
  6 13  1  0
  6  7  1  6
  8  7  1  0
  9  8  2  0
 10 11  1  0
 10  9  1  0
 11 12  2  0
 12  8  1  0
 13 15  1  0
 14 13  2  0
 15 16  1  0
 15 19  1  0
 16 17  1  0
 17 18  1  0
 19 18  1  0
 20 22  1  0
 19 20  1  6
 21 20  2  0
M  END
$$$$
