GHP.pdb
     RDKit          3D

 22 23  0  0  1  0  0  0  0  0999 V2000
   12.1902  -17.4173   21.4499 N   0  0  0  0  0  0  0  0  0  0  0  0
   11.1423  -17.6708   22.3938 C   0  0  0  0  0  0  0  0  0  0  0  0
   10.4849  -16.3750   22.7948 C   0  0  0  0  0  0  0  0  0  0  0  0
   11.1924  -15.4304   23.1555 O   0  0  0  0  0  0  0  0  0  0  0  0
    9.0835  -16.2117   22.7695 N   0  0  0  0  0  0  0  0  0  0  0  0
    8.4118  -15.0950   23.2564 C   0  0  1  0  0  0  0  0  0  0  0  0
    7.3486  -14.4498   22.3757 C   0  0  0  0  0  0  0  0  0  0  0  0
    7.9229  -14.0737   21.0778 C   0  0  0  0  0  0  0  0  0  0  0  0
    9.1593  -14.1187   20.5169 C   0  0  0  0  0  0  0  0  0  0  0  0
    9.1055  -13.6395   19.2467 N   0  0  0  0  0  0  0  0  0  0  0  0
    7.8378  -13.2883   18.9933 C   0  0  0  0  0  0  0  0  0  0  0  0
    7.1313  -13.5428   20.0738 N   0  0  0  0  0  0  0  0  0  0  0  0
    8.1337  -14.9858   24.6874 C   0  0  0  0  0  0  0  0  0  0  0  0
    8.3261  -16.0604   25.3675 O   0  0  0  0  0  0  0  0  0  0  0  0
    7.6822  -13.8137   25.3354 N   0  0  0  0  0  0  0  0  0  0  0  0
    7.5289  -12.5137   24.7442 C   0  0  0  0  0  0  0  0  0  0  0  0
    7.3875  -11.5336   25.9225 C   0  0  0  0  0  0  0  0  0  0  0  0
    6.7563  -12.3850   26.9658 C   0  0  0  0  0  0  0  0  0  0  0  0
    7.2837  -13.7616   26.7488 C   0  0  1  0  0  0  0  0  0  0  0  0
    6.2534  -14.7822   27.0392 C   0  0  0  0  0  0  0  0  0  0  0  0
    5.5603  -15.2577   26.1079 O   0  0  0  0  0  0  0  0  0  0  0  0
    6.0168  -15.2446   28.3213 O   0  0  0  0  0  0  0  0  0  0  0  0
  2  1  1  0
  3  4  2  0
  3  2  1  0
  5  3  1  0
  6  5  1  0
  6 13  1  0
  6  7  1  6
  8  7  1  0
  9  8  2  0
 10 11  1  0
 10  9  1  0
 11 12  2  0
 12  8  1  0
 13 15  1  0
 14 13  2  0
 15 16  1  0
 15 19  1  0
 16 17  1  0
 17 18  1  0
 19 18  1  0
 20 22  1  0
 19 20  1  6
 21 20  2  0
M  END
$$$$
