GHP.pdb
     RDKit          3D

 22 23  0  0  1  0  0  0  0  0999 V2000
   11.6198  -16.8764   20.0959 N   0  0  0  0  0  0  0  0  0  0  0  0
   10.8356  -17.3252   21.2081 C   0  0  0  0  0  0  0  0  0  0  0  0
   10.2539  -16.1425   21.9395 C   0  0  0  0  0  0  0  0  0  0  0  0
   11.0177  -15.3216   22.4548 O   0  0  0  0  0  0  0  0  0  0  0  0
    8.8608  -15.9476   22.0514 N   0  0  0  0  0  0  0  0  0  0  0  0
    8.2638  -14.9552   22.8220 C   0  0  1  0  0  0  0  0  0  0  0  0
    7.1319  -14.1430   22.2044 C   0  0  0  0  0  0  0  0  0  0  0  0
    7.4204  -13.8600   20.7928 C   0  0  0  0  0  0  0  0  0  0  0  0
    6.9069  -14.2607   19.6008 C   0  0  0  0  0  0  0  0  0  0  0  0
    7.5712  -13.6494   18.5854 N   0  0  0  0  0  0  0  0  0  0  0  0
    8.5082  -12.8584   19.1247 C   0  0  0  0  0  0  0  0  0  0  0  0
    8.4248  -12.9779   20.4324 N   0  0  0  0  0  0  0  0  0  0  0  0
    8.1313  -15.1428   24.2658 C   0  0  0  0  0  0  0  0  0  0  0  0
    8.4910  -16.2970   24.7046 O   0  0  0  0  0  0  0  0  0  0  0  0
    7.6480  -14.1665   25.1661 N   0  0  0  0  0  0  0  0  0  0  0  0
    7.2794  -12.8154   24.8470 C   0  0  0  0  0  0  0  0  0  0  0  0
    7.1930  -12.0771   26.1948 C   0  0  0  0  0  0  0  0  0  0  0  0
    6.8011  -13.1681   27.1264 C   0  0  0  0  0  0  0  0  0  0  0  0
    7.4385  -14.4080   26.6004 C   0  0  1  0  0  0  0  0  0  0  0  0
    6.5709  -15.5872   26.8105 C   0  0  0  0  0  0  0  0  0  0  0  0
    5.7141  -15.8981   25.9485 O   0  0  0  0  0  0  0  0  0  0  0  0
    6.6665  -16.3788   27.9409 O   0  0  0  0  0  0  0  0  0  0  0  0
  2  1  1  0
  3  4  2  0
  3  2  1  0
  5  3  1  0
  6  5  1  0
  6 13  1  0
  6  7  1  6
  8  7  1  0
  9  8  2  0
 10 11  1  0
 10  9  1  0
 11 12  2  0
 12  8  1  0
 13 15  1  0
 14 13  2  0
 15 16  1  0
 15 19  1  0
 16 17  1  0
 17 18  1  0
 19 18  1  0
 20 22  1  0
 19 20  1  6
 21 20  2  0
M  END
$$$$
