GHP.pdb
     RDKit          3D

 22 23  0  0  1  0  0  0  0  0999 V2000
   12.2509  -16.6002   21.0047 N   0  0  0  0  0  0  0  0  0  0  0  0
   11.2121  -17.1183   21.8451 C   0  0  0  0  0  0  0  0  0  0  0  0
   10.4648  -15.9846   22.4994 C   0  0  0  0  0  0  0  0  0  0  0  0
   11.0939  -15.1558   23.1629 O   0  0  0  0  0  0  0  0  0  0  0  0
    9.0661  -15.8443   22.3748 N   0  0  0  0  0  0  0  0  0  0  0  0
    8.3050  -14.9023   23.0593 C   0  0  1  0  0  0  0  0  0  0  0  0
    7.0971  -14.2978   22.3537 C   0  0  0  0  0  0  0  0  0  0  0  0
    7.4124  -14.0301   20.9449 C   0  0  0  0  0  0  0  0  0  0  0  0
    6.8808  -14.3922   19.7484 C   0  0  0  0  0  0  0  0  0  0  0  0
    7.5904  -13.8231   18.7391 N   0  0  0  0  0  0  0  0  0  0  0  0
    8.5744  -13.0976   19.2867 C   0  0  0  0  0  0  0  0  0  0  0  0
    8.4752  -13.2154   20.5935 N   0  0  0  0  0  0  0  0  0  0  0  0
    8.1406  -15.0199   24.5072 C   0  0  0  0  0  0  0  0  0  0  0  0
    8.4917  -16.1507   25.0094 O   0  0  0  0  0  0  0  0  0  0  0  0
    7.6363  -14.0020   25.3481 N   0  0  0  0  0  0  0  0  0  0  0  0
    7.2787  -12.6671   24.9566 C   0  0  0  0  0  0  0  0  0  0  0  0
    7.1592  -11.8664   26.2656 C   0  0  0  0  0  0  0  0  0  0  0  0
    6.7415  -12.9121   27.2370 C   0  0  0  0  0  0  0  0  0  0  0  0
    7.3897  -14.1758   26.7862 C   0  0  1  0  0  0  0  0  0  0  0  0
    6.5146  -15.3432   27.0290 C   0  0  0  0  0  0  0  0  0  0  0  0
    5.7237  -15.7318   26.1361 O   0  0  0  0  0  0  0  0  0  0  0  0
    6.5320  -16.0397   28.2241 O   0  0  0  0  0  0  0  0  0  0  0  0
  2  1  1  0
  3  4  2  0
  3  2  1  0
  5  3  1  0
  6  5  1  0
  6 13  1  0
  6  7  1  6
  8  7  1  0
  9  8  2  0
 10 11  1  0
 10  9  1  0
 11 12  2  0
 12  8  1  0
 13 15  1  0
 14 13  2  0
 15 16  1  0
 15 19  1  0
 16 17  1  0
 17 18  1  0
 19 18  1  0
 20 22  1  0
 19 20  1  6
 21 20  2  0
M  END
$$$$
