GHP.pdb
     RDKit          3D

 22 23  0  0  1  0  0  0  0  0999 V2000
   12.1398  -16.5429   20.5937 N   0  0  0  0  0  0  0  0  0  0  0  0
   11.2885  -17.0055   21.6495 C   0  0  0  0  0  0  0  0  0  0  0  0
   10.5380  -15.8456   22.2524 C   0  0  0  0  0  0  0  0  0  0  0  0
   11.1744  -14.9270   22.7759 O   0  0  0  0  0  0  0  0  0  0  0  0
    9.1284  -15.7807   22.2351 N   0  0  0  0  0  0  0  0  0  0  0  0
    8.3764  -14.8131   22.8935 C   0  0  1  0  0  0  0  0  0  0  0  0
    7.1899  -14.1977   22.1616 C   0  0  0  0  0  0  0  0  0  0  0  0
    7.5382  -13.9336   20.7599 C   0  0  0  0  0  0  0  0  0  0  0  0
    8.0815  -12.8924   20.0773 C   0  0  0  0  0  0  0  0  0  0  0  0
    8.1935  -13.2137   18.7619 N   0  0  0  0  0  0  0  0  0  0  0  0
    7.7236  -14.4578   18.6012 C   0  0  0  0  0  0  0  0  0  0  0  0
    7.3336  -14.8909   19.7809 N   0  0  0  0  0  0  0  0  0  0  0  0
    8.1906  -14.9032   24.3407 C   0  0  0  0  0  0  0  0  0  0  0  0
    8.5501  -16.0180   24.8719 O   0  0  0  0  0  0  0  0  0  0  0  0
    7.6582  -13.8758   25.1522 N   0  0  0  0  0  0  0  0  0  0  0  0
    7.2538  -12.5669   24.7206 C   0  0  0  0  0  0  0  0  0  0  0  0
    7.1162  -11.7285   26.0040 C   0  0  0  0  0  0  0  0  0  0  0  0
    6.7398  -12.7554   27.0117 C   0  0  0  0  0  0  0  0  0  0  0  0
    7.4268  -14.0109   26.5970 C   0  0  1  0  0  0  0  0  0  0  0  0
    6.5927  -15.1981   26.8839 C   0  0  0  0  0  0  0  0  0  0  0  0
    5.8033  -15.6364   26.0129 O   0  0  0  0  0  0  0  0  0  0  0  0
    6.6476  -15.8599   28.0974 O   0  0  0  0  0  0  0  0  0  0  0  0
  2  1  1  0
  3  4  2  0
  3  2  1  0
  5  3  1  0
  6  5  1  0
  6 13  1  0
  6  7  1  6
  8  7  1  0
  9  8  2  0
 10 11  1  0
 10  9  1  0
 11 12  2  0
 12  8  1  0
 13 15  1  0
 14 13  2  0
 15 16  1  0
 15 19  1  0
 16 17  1  0
 17 18  1  0
 19 18  1  0
 20 22  1  0
 19 20  1  6
 21 20  2  0
M  END
$$$$
