GHP.pdb
     RDKit          3D

 22 23  0  0  1  0  0  0  0  0999 V2000
   12.4186  -17.2037   21.5461 N   0  0  0  0  0  0  0  0  0  0  0  0
   11.1714  -17.5231   22.1753 C   0  0  0  0  0  0  0  0  0  0  0  0
   10.5073  -16.2644   22.6719 C   0  0  0  0  0  0  0  0  0  0  0  0
   11.2109  -15.3360   23.0793 O   0  0  0  0  0  0  0  0  0  0  0  0
    9.1039  -16.1177   22.6842 N   0  0  0  0  0  0  0  0  0  0  0  0
    8.4280  -15.0564   23.2776 C   0  0  1  0  0  0  0  0  0  0  0  0
    7.2199  -14.4737   22.5543 C   0  0  0  0  0  0  0  0  0  0  0  0
    7.5772  -14.1123   21.1768 C   0  0  0  0  0  0  0  0  0  0  0  0
    8.6956  -14.2041   20.4112 C   0  0  0  0  0  0  0  0  0  0  0  0
    8.4439  -13.7140   19.1693 N   0  0  0  0  0  0  0  0  0  0  0  0
    7.1673  -13.3091   19.1382 C   0  0  0  0  0  0  0  0  0  0  0  0
    6.6474  -13.5421   20.3242 N   0  0  0  0  0  0  0  0  0  0  0  0
    8.3299  -14.9861   24.7344 C   0  0  0  0  0  0  0  0  0  0  0  0
    8.9047  -15.9450   25.3702 O   0  0  0  0  0  0  0  0  0  0  0  0
    7.6641  -13.9657   25.4508 N   0  0  0  0  0  0  0  0  0  0  0  0
    6.9915  -12.8264   24.8918 C   0  0  0  0  0  0  0  0  0  0  0  0
    6.7784  -11.8514   26.0636 C   0  0  0  0  0  0  0  0  0  0  0  0
    6.6689  -12.7742   27.2246 C   0  0  0  0  0  0  0  0  0  0  0  0
    7.5547  -13.9320   26.9158 C   0  0  1  0  0  0  0  0  0  0  0  0
    6.9816  -15.1963   27.4262 C   0  0  0  0  0  0  0  0  0  0  0  0
    6.2274  -15.8838   26.6966 O   0  0  0  0  0  0  0  0  0  0  0  0
    7.2480  -15.6630   28.7009 O   0  0  0  0  0  0  0  0  0  0  0  0
  2  1  1  0
  3  4  2  0
  3  2  1  0
  5  3  1  0
  6  5  1  0
  6 13  1  0
  6  7  1  6
  8  7  1  0
  9  8  2  0
 10 11  1  0
 10  9  1  0
 11 12  2  0
 12  8  1  0
 13 15  1  0
 14 13  2  0
 15 16  1  0
 15 19  1  0
 16 17  1  0
 17 18  1  0
 19 18  1  0
 20 22  1  0
 19 20  1  6
 21 20  2  0
M  END
$$$$
