GHP.pdb
     RDKit          3D

 22 23  0  0  1  0  0  0  0  0999 V2000
   12.1884  -16.6653   20.7750 N   0  0  0  0  0  0  0  0  0  0  0  0
   11.0409  -17.1193   21.5035 C   0  0  0  0  0  0  0  0  0  0  0  0
   10.3742  -15.9561   22.1924 C   0  0  0  0  0  0  0  0  0  0  0  0
   11.0758  -15.0617   22.6728 O   0  0  0  0  0  0  0  0  0  0  0  0
    8.9706  -15.8611   22.3035 N   0  0  0  0  0  0  0  0  0  0  0  0
    8.3021  -14.8693   23.0138 C   0  0  1  0  0  0  0  0  0  0  0  0
    7.1100  -14.1864   22.3544 C   0  0  0  0  0  0  0  0  0  0  0  0
    7.4112  -13.8814   20.9501 C   0  0  0  0  0  0  0  0  0  0  0  0
    6.8075  -14.1201   19.7569 C   0  0  0  0  0  0  0  0  0  0  0  0
    7.5457  -13.5799   18.7522 N   0  0  0  0  0  0  0  0  0  0  0  0
    8.6199  -12.9961   19.2996 C   0  0  0  0  0  0  0  0  0  0  0  0
    8.5469  -13.1706   20.6017 N   0  0  0  0  0  0  0  0  0  0  0  0
    8.1885  -14.9733   24.4675 C   0  0  0  0  0  0  0  0  0  0  0  0
    8.6727  -16.0488   24.9804 O   0  0  0  0  0  0  0  0  0  0  0  0
    7.5987  -13.9981   25.3034 N   0  0  0  0  0  0  0  0  0  0  0  0
    7.1018  -12.7123   24.9001 C   0  0  0  0  0  0  0  0  0  0  0  0
    6.9247  -11.9071   26.1999 C   0  0  0  0  0  0  0  0  0  0  0  0
    6.6311  -12.9741   27.1933 C   0  0  0  0  0  0  0  0  0  0  0  0
    7.3955  -14.1732   26.7482 C   0  0  1  0  0  0  0  0  0  0  0  0
    6.6468  -15.4186   27.0234 C   0  0  0  0  0  0  0  0  0  0  0  0
    5.8832  -15.8983   26.1512 O   0  0  0  0  0  0  0  0  0  0  0  0
    6.7553  -16.0915   28.2272 O   0  0  0  0  0  0  0  0  0  0  0  0
  2  1  1  0
  3  4  2  0
  3  2  1  0
  5  3  1  0
  6  5  1  0
  6 13  1  0
  6  7  1  6
  8  7  1  0
  9  8  2  0
 10 11  1  0
 10  9  1  0
 11 12  2  0
 12  8  1  0
 13 15  1  0
 14 13  2  0
 15 16  1  0
 15 19  1  0
 16 17  1  0
 17 18  1  0
 19 18  1  0
 20 22  1  0
 19 20  1  6
 21 20  2  0
M  END
$$$$
