GHP.pdb
     RDKit          3D

 22 23  0  0  1  0  0  0  0  0999 V2000
   12.1246  -16.8322   20.7192 N   0  0  0  0  0  0  0  0  0  0  0  0
   11.1895  -17.2104   21.7371 C   0  0  0  0  0  0  0  0  0  0  0  0
   10.4841  -15.9891   22.2688 C   0  0  0  0  0  0  0  0  0  0  0  0
   11.1544  -15.0729   22.7529 O   0  0  0  0  0  0  0  0  0  0  0  0
    9.0791  -15.8639   22.2287 N   0  0  0  0  0  0  0  0  0  0  0  0
    8.3577  -14.8719   22.8851 C   0  0  1  0  0  0  0  0  0  0  0  0
    7.2341  -14.1741   22.1281 C   0  0  0  0  0  0  0  0  0  0  0  0
    7.6648  -13.8519   20.7619 C   0  0  0  0  0  0  0  0  0  0  0  0
    8.3403  -12.8293   20.1759 C   0  0  0  0  0  0  0  0  0  0  0  0
    8.4721  -13.0686   18.8450 N   0  0  0  0  0  0  0  0  0  0  0  0
    7.8830  -14.2417   18.5780 C   0  0  0  0  0  0  0  0  0  0  0  0
    7.4024  -14.7117   19.7092 N   0  0  0  0  0  0  0  0  0  0  0  0
    8.1146  -14.9860   24.3221 C   0  0  0  0  0  0  0  0  0  0  0  0
    8.3973  -16.1300   24.8375 O   0  0  0  0  0  0  0  0  0  0  0  0
    7.6056  -13.9516   25.1397 N   0  0  0  0  0  0  0  0  0  0  0  0
    7.2613  -12.6212   24.7221 C   0  0  0  0  0  0  0  0  0  0  0  0
    7.1296  -11.7986   26.0164 C   0  0  0  0  0  0  0  0  0  0  0  0
    6.6928  -12.8260   26.9989 C   0  0  0  0  0  0  0  0  0  0  0  0
    7.3392  -14.1007   26.5772 C   0  0  1  0  0  0  0  0  0  0  0  0
    6.4540  -15.2588   26.8272 C   0  0  0  0  0  0  0  0  0  0  0  0
    5.7321  -15.7083   25.9049 O   0  0  0  0  0  0  0  0  0  0  0  0
    6.3872  -15.8808   28.0610 O   0  0  0  0  0  0  0  0  0  0  0  0
  2  1  1  0
  3  4  2  0
  3  2  1  0
  5  3  1  0
  6  5  1  0
  6 13  1  0
  6  7  1  6
  8  7  1  0
  9  8  2  0
 10 11  1  0
 10  9  1  0
 11 12  2  0
 12  8  1  0
 13 15  1  0
 14 13  2  0
 15 16  1  0
 15 19  1  0
 16 17  1  0
 17 18  1  0
 19 18  1  0
 20 22  1  0
 19 20  1  6
 21 20  2  0
M  END
$$$$
