GHP.pdb
     RDKit          3D

 22 23  0  0  1  0  0  0  0  0999 V2000
    9.5482  -23.1786   20.4342 N   0  0  0  0  0  0  0  0  0  0  0  0
   10.1081  -23.2718   21.7499 C   0  0  0  0  0  0  0  0  0  0  0  0
    9.6200  -22.1269   22.6002 C   0  0  0  0  0  0  0  0  0  0  0  0
    9.9961  -20.9815   22.3365 O   0  0  0  0  0  0  0  0  0  0  0  0
    8.7453  -22.3279   23.6892 N   0  0  0  0  0  0  0  0  0  0  0  0
    8.2412  -21.3103   24.4927 C   0  0  1  0  0  0  0  0  0  0  0  0
    6.7311  -21.2118   24.6723 C   0  0  0  0  0  0  0  0  0  0  0  0
    6.0655  -21.1618   23.3645 C   0  0  0  0  0  0  0  0  0  0  0  0
    6.4763  -21.1278   22.0702 C   0  0  0  0  0  0  0  0  0  0  0  0
    5.3965  -21.1035   21.2459 N   0  0  0  0  0  0  0  0  0  0  0  0
    4.2960  -21.1222   22.0094 C   0  0  0  0  0  0  0  0  0  0  0  0
    4.6846  -21.1569   23.2661 N   0  0  0  0  0  0  0  0  0  0  0  0
    9.0011  -20.8680   25.6606 C   0  0  0  0  0  0  0  0  0  0  0  0
    9.5930  -21.8027   26.3165 O   0  0  0  0  0  0  0  0  0  0  0  0
    9.1138  -19.5263   26.0901 N   0  0  0  0  0  0  0  0  0  0  0  0
    8.5414  -18.3728   25.4539 C   0  0  0  0  0  0  0  0  0  0  0  0
    9.2565  -17.1578   26.0715 C   0  0  0  0  0  0  0  0  0  0  0  0
    9.5925  -17.6498   27.4341 C   0  0  0  0  0  0  0  0  0  0  0  0
    9.8483  -19.1110   27.2932 C   0  0  1  0  0  0  0  0  0  0  0  0
    9.3719  -19.8552   28.4792 C   0  0  0  0  0  0  0  0  0  0  0  0
    8.2087  -20.3247   28.5007 O   0  0  0  0  0  0  0  0  0  0  0  0
   10.1717  -20.0603   29.5891 O   0  0  0  0  0  0  0  0  0  0  0  0
  2  1  1  0
  3  4  2  0
  3  2  1  0
  5  3  1  0
  6  5  1  0
  6 13  1  0
  6  7  1  1
  8  7  1  0
  9  8  2  0
 10 11  1  0
 10  9  1  0
 11 12  2  0
 12  8  1  0
 13 15  1  0
 14 13  2  0
 15 16  1  0
 15 19  1  0
 16 17  1  0
 17 18  1  0
 19 18  1  0
 20 22  1  0
 19 20  1  1
 21 20  2  0
M  END
$$$$
