GHP.pdb
     RDKit          3D

 22 23  0  0  1  0  0  0  0  0999 V2000
    8.4284  -12.7797   18.7687 N   0  0  0  0  0  0  0  0  0  0  0  0
    9.2568  -13.4109   19.7530 C   0  0  0  0  0  0  0  0  0  0  0  0
    8.4220  -13.8353   20.9341 C   0  0  0  0  0  0  0  0  0  0  0  0
    7.2499  -13.4560   21.0069 O   0  0  0  0  0  0  0  0  0  0  0  0
    8.9428  -14.6541   21.9586 N   0  0  0  0  0  0  0  0  0  0  0  0
    8.2436  -15.0248   23.1027 C   0  0  1  0  0  0  0  0  0  0  0  0
    7.6978  -16.4450   23.1881 C   0  0  0  0  0  0  0  0  0  0  0  0
    7.0159  -16.8039   21.9383 C   0  0  0  0  0  0  0  0  0  0  0  0
    5.7482  -16.6967   21.4622 C   0  0  0  0  0  0  0  0  0  0  0  0
    5.6882  -17.1933   20.1989 N   0  0  0  0  0  0  0  0  0  0  0  0
    6.9142  -17.6178   19.8655 C   0  0  0  0  0  0  0  0  0  0  0  0
    7.7063  -17.3902   20.8913 N   0  0  0  0  0  0  0  0  0  0  0  0
    8.6272  -14.4647   24.3973 C   0  0  0  0  0  0  0  0  0  0  0  0
    9.8370  -14.7040   24.7622 O   0  0  0  0  0  0  0  0  0  0  0  0
    7.7757  -13.7085   25.2345 N   0  0  0  0  0  0  0  0  0  0  0  0
    6.4855  -13.1798   24.8898 C   0  0  0  0  0  0  0  0  0  0  0  0
    6.1557  -12.1421   25.9777 C   0  0  0  0  0  0  0  0  0  0  0  0
    6.8791  -12.6840   27.1588 C   0  0  0  0  0  0  0  0  0  0  0  0
    8.0976  -13.3544   26.6238 C   0  0  1  0  0  0  0  0  0  0  0  0
    8.4317  -14.5634   27.4073 C   0  0  0  0  0  0  0  0  0  0  0  0
    8.0874  -15.6961   26.9919 O   0  0  0  0  0  0  0  0  0  0  0  0
    9.1226  -14.4970   28.6039 O   0  0  0  0  0  0  0  0  0  0  0  0
  2  1  1  0
  3  4  2  0
  3  2  1  0
  5  3  1  0
  6  5  1  0
  6 13  1  0
  6  7  1  1
  8  7  1  0
  9  8  2  0
 10 11  1  0
 10  9  1  0
 11 12  2  0
 12  8  1  0
 13 15  1  0
 14 13  2  0
 15 16  1  0
 15 19  1  0
 16 17  1  0
 17 18  1  0
 19 18  1  0
 20 22  1  0
 19 20  1  1
 21 20  2  0
M  END
$$$$
