GHP.pdb
     RDKit          3D

 22 23  0  0  1  0  0  0  0  0999 V2000
   12.4024  -16.7965   19.8603 N   0  0  0  0  0  0  0  0  0  0  0  0
   11.2790  -17.2819   20.6058 C   0  0  0  0  0  0  0  0  0  0  0  0
   10.5768  -16.1345   21.2858 C   0  0  0  0  0  0  0  0  0  0  0  0
   11.2484  -15.1991   21.7297 O   0  0  0  0  0  0  0  0  0  0  0  0
    9.1734  -16.0998   21.4291 N   0  0  0  0  0  0  0  0  0  0  0  0
    8.4808  -15.1485   22.1712 C   0  0  1  0  0  0  0  0  0  0  0  0
    7.3555  -14.3791   21.4899 C   0  0  0  0  0  0  0  0  0  0  0  0
    7.7332  -14.0390   20.1124 C   0  0  0  0  0  0  0  0  0  0  0  0
    8.2836  -12.9595   19.4983 C   0  0  0  0  0  0  0  0  0  0  0  0
    8.4276  -13.2100   18.1707 N   0  0  0  0  0  0  0  0  0  0  0  0
    7.9710  -14.4469   17.9339 C   0  0  0  0  0  0  0  0  0  0  0  0
    7.5579  -14.9443   19.0799 N   0  0  0  0  0  0  0  0  0  0  0  0
    8.2619  -15.3656   23.6001 C   0  0  0  0  0  0  0  0  0  0  0  0
    8.6369  -16.5127   24.0449 O   0  0  0  0  0  0  0  0  0  0  0  0
    7.6832  -14.4238   24.4808 N   0  0  0  0  0  0  0  0  0  0  0  0
    7.3098  -13.0733   24.1651 C   0  0  0  0  0  0  0  0  0  0  0  0
    7.0956  -12.3724   25.5186 C   0  0  0  0  0  0  0  0  0  0  0  0
    6.6549  -13.4955   26.3881 C   0  0  0  0  0  0  0  0  0  0  0  0
    7.3627  -14.7071   25.8867 C   0  0  1  0  0  0  0  0  0  0  0  0
    6.5092  -15.9100   25.9959 C   0  0  0  0  0  0  0  0  0  0  0  0
    5.8431  -16.2995   25.0068 O   0  0  0  0  0  0  0  0  0  0  0  0
    6.4127  -16.6396   27.1673 O   0  0  0  0  0  0  0  0  0  0  0  0
  2  1  1  0
  3  4  2  0
  3  2  1  0
  5  3  1  0
  6  5  1  0
  6 13  1  0
  6  7  1  6
  8  7  1  0
  9  8  2  0
 10 11  1  0
 10  9  1  0
 11 12  2  0
 12  8  1  0
 13 15  1  0
 14 13  2  0
 15 16  1  0
 15 19  1  0
 16 17  1  0
 17 18  1  0
 19 18  1  0
 20 22  1  0
 19 20  1  6
 21 20  2  0
M  END
$$$$
