KME.pdb
     RDKit          3D

 27 26  0  0  1  0  0  0  0  0999 V2000
    6.8002  -15.7446   20.4876 N   0  0  0  0  0  0  0  0  0  0  0  0
    7.7859  -14.7049   20.4198 C   0  0  1  0  0  0  0  0  0  0  0  0
    7.2685  -13.5525   19.6248 C   0  0  0  0  0  0  0  0  0  0  0  0
    7.2478  -13.9993   18.1717 C   0  0  0  0  0  0  0  0  0  0  0  0
    8.2792  -13.3091   17.3204 C   0  0  0  0  0  0  0  0  0  0  0  0
    8.1265  -13.8431   15.8920 C   0  0  0  0  0  0  0  0  0  0  0  0
    9.1400  -13.3200   15.0218 N   0  0  0  0  0  0  0  0  0  0  0  0
    8.4135  -14.3808   21.6939 C   0  0  0  0  0  0  0  0  0  0  0  0
    9.4743  -13.7003   21.8150 O   0  0  0  0  0  0  0  0  0  0  0  0
    7.2120  -12.0035   27.6491 C   0  0  0  0  0  0  0  0  0  0  0  0
    5.8721  -12.9022   26.8152 S   0  0  0  0  0  0  0  0  0  0  0  0
    6.5905  -14.2407   25.8075 C   0  0  0  0  0  0  0  0  0  0  0  0
    7.7742  -13.6605   25.0906 C   0  0  0  0  0  0  0  0  0  0  0  0
    8.4681  -14.6127   24.1883 C   0  0  2  0  0  0  0  0  0  0  0  0
    7.8474  -14.8343   22.9086 N   0  0  0  0  0  0  0  0  0  0  0  0
    8.8651  -15.9034   24.8403 C   0  0  0  0  0  0  0  0  0  0  0  0
    8.1121  -16.9097   24.9018 O   0  0  0  0  0  0  0  0  0  0  0  0
   10.1553  -15.9612   25.3996 N   0  0  0  0  0  0  0  0  0  0  0  0
   10.7888  -17.2038   25.8890 C   0  0  1  0  0  0  0  0  0  0  0  0
   12.1996  -17.2316   25.4586 C   0  0  0  0  0  0  0  0  0  0  0  0
   12.6109  -18.4376   24.7060 C   0  0  0  0  0  0  0  0  0  0  0  0
   13.9447  -18.3432   24.1214 C   0  0  0  0  0  0  0  0  0  0  0  0
   14.9645  -18.2787   24.8862 O   0  0  0  0  0  0  0  0  0  0  0  0
   10.5591  -17.3202   27.3007 C   0  0  0  0  0  0  0  0  0  0  0  0
   10.8442  -18.4482   28.0856 O   0  0  0  0  0  0  0  0  0  0  0  0
   14.1759  -18.3176   22.7553 O   0  0  0  0  0  0  0  0  0  0  0  0
   10.0394  -16.3354   27.9254 O   0  0  0  0  0  0  0  0  0  0  0  0
  2  1  1  1
  2  8  1  0
  3  2  1  0
  3  4  1  0
  4  5  1  0
  5  6  1  0
  7  6  1  0
  8 15  1  0
  8  9  2  0
 10 11  1  0
 12 13  1  0
 12 11  1  0
 14 13  1  1
 14 16  1  0
 15 14  1  0
 16 17  2  0
 18 19  1  0
 18 16  1  0
 19 24  1  0
 19 20  1  1
 21 20  1  0
 22 21  1  0
 23 22  2  0
 24 25  1  0
 26 22  1  0
 27 24  2  0
M  END
$$$$
