KME.pdb
     RDKit          3D

 27 26  0  0  1  0  0  0  0  0999 V2000
    8.0091  -15.0769   19.6317 N   0  0  0  0  0  0  0  0  0  0  0  0
    7.2243  -15.3729   20.7951 C   0  0  1  0  0  0  0  0  0  0  0  0
    6.4446  -16.6286   20.5876 C   0  0  0  0  0  0  0  0  0  0  0  0
    7.3719  -17.6067   19.8842 C   0  0  0  0  0  0  0  0  0  0  0  0
    6.7296  -18.9373   19.5979 C   0  0  0  0  0  0  0  0  0  0  0  0
    7.8117  -19.8528   19.0149 C   0  0  0  0  0  0  0  0  0  0  0  0
    7.3025  -21.1666   18.7455 N   0  0  0  0  0  0  0  0  0  0  0  0
    7.9446  -15.2609   22.0565 C   0  0  0  0  0  0  0  0  0  0  0  0
    9.2025  -15.3476   22.1710 O   0  0  0  0  0  0  0  0  0  0  0  0
    5.9881  -10.2407   26.5167 C   0  0  0  0  0  0  0  0  0  0  0  0
    6.4914  -11.9527   26.8543 S   0  0  0  0  0  0  0  0  0  0  0  0
    6.6874  -12.8382   25.2730 C   0  0  0  0  0  0  0  0  0  0  0  0
    7.1225  -14.2352   25.6057 C   0  0  0  0  0  0  0  0  0  0  0  0
    7.9063  -14.9014   24.5361 C   0  0  2  0  0  0  0  0  0  0  0  0
    7.2435  -15.0462   23.2665 N   0  0  0  0  0  0  0  0  0  0  0  0
    8.5706  -16.1769   24.9607 C   0  0  0  0  0  0  0  0  0  0  0  0
    7.9648  -17.2756   25.0577 O   0  0  0  0  0  0  0  0  0  0  0  0
    9.9452  -16.1089   25.2551 N   0  0  0  0  0  0  0  0  0  0  0  0
   10.7337  -17.2413   25.7850 C   0  0  1  0  0  0  0  0  0  0  0  0
   12.0808  -17.2182   25.1841 C   0  0  0  0  0  0  0  0  0  0  0  0
   12.1318  -17.4771   23.7279 C   0  0  0  0  0  0  0  0  0  0  0  0
   13.4673  -17.3561   23.1524 C   0  0  0  0  0  0  0  0  0  0  0  0
   14.4478  -17.0258   23.8998 O   0  0  0  0  0  0  0  0  0  0  0  0
   10.6838  -17.2144   27.2189 C   0  0  0  0  0  0  0  0  0  0  0  0
   10.0648  -16.2242   27.9974 O   0  0  0  0  0  0  0  0  0  0  0  0
   13.7412  -17.5821   21.8128 O   0  0  0  0  0  0  0  0  0  0  0  0
   11.2532  -18.1504   27.8746 O   0  0  0  0  0  0  0  0  0  0  0  0
  2  1  1  6
  2  8  1  0
  3  2  1  0
  3  4  1  0
  4  5  1  0
  5  6  1  0
  7  6  1  0
  8 15  1  0
  8  9  2  0
 10 11  1  0
 12 13  1  0
 12 11  1  0
 14 13  1  1
 14 16  1  0
 15 14  1  0
 16 17  2  0
 18 19  1  0
 18 16  1  0
 19 24  1  0
 19 20  1  1
 21 20  1  0
 22 21  1  0
 23 22  2  0
 24 25  1  0
 26 22  1  0
 27 24  2  0
M  END
$$$$
