KME.pdb
     RDKit          3D

 27 26  0  0  1  0  0  0  0  0999 V2000
    7.4165  -15.9064   20.3220 N   0  0  0  0  0  0  0  0  0  0  0  0
    8.7703  -15.5369   20.6176 C   0  0  1  0  0  0  0  0  0  0  0  0
    9.2670  -14.5471   19.6169 C   0  0  0  0  0  0  0  0  0  0  0  0
    8.0688  -13.7083   19.2014 C   0  0  0  0  0  0  0  0  0  0  0  0
    7.6160  -13.9725   17.7906 C   0  0  0  0  0  0  0  0  0  0  0  0
    8.2735  -12.9183   16.8933 C   0  0  0  0  0  0  0  0  0  0  0  0
    7.9357  -13.1152   15.5130 N   0  0  0  0  0  0  0  0  0  0  0  0
    9.0203  -15.2208   22.0176 C   0  0  0  0  0  0  0  0  0  0  0  0
   10.1715  -15.0538   22.5177 O   0  0  0  0  0  0  0  0  0  0  0  0
    7.2785  -10.9276   27.3657 C   0  0  0  0  0  0  0  0  0  0  0  0
    6.3244  -12.4363   27.0314 S   0  0  0  0  0  0  0  0  0  0  0  0
    7.4597  -13.7447   26.4634 C   0  0  0  0  0  0  0  0  0  0  0  0
    7.2321  -13.9109   24.9896 C   0  0  0  0  0  0  0  0  0  0  0  0
    8.1367  -14.8911   24.3391 C   0  0  2  0  0  0  0  0  0  0  0  0
    7.9441  -15.0849   22.9258 N   0  0  0  0  0  0  0  0  0  0  0  0
    8.2548  -16.1982   25.0646 C   0  0  0  0  0  0  0  0  0  0  0  0
    7.3062  -17.0174   25.1766 O   0  0  0  0  0  0  0  0  0  0  0  0
    9.5063  -16.4964   25.6351 N   0  0  0  0  0  0  0  0  0  0  0  0
    9.8517  -17.8037   26.2322 C   0  0  1  0  0  0  0  0  0  0  0  0
   10.9235  -18.4326   25.4372 C   0  0  0  0  0  0  0  0  0  0  0  0
   12.2912  -18.2809   25.9817 C   0  0  0  0  0  0  0  0  0  0  0  0
   13.3298  -18.8725   25.1445 C   0  0  0  0  0  0  0  0  0  0  0  0
   13.0059  -19.4524   24.0545 O   0  0  0  0  0  0  0  0  0  0  0  0
   10.1285  -17.6207   27.6283 C   0  0  0  0  0  0  0  0  0  0  0  0
   10.1466  -18.6347   28.5985 O   0  0  0  0  0  0  0  0  0  0  0  0
   14.6766  -18.8431   25.4693 O   0  0  0  0  0  0  0  0  0  0  0  0
   10.3706  -16.4441   28.0611 O   0  0  0  0  0  0  0  0  0  0  0  0
  2  1  1  1
  2  8  1  0
  3  2  1  0
  3  4  1  0
  4  5  1  0
  5  6  1  0
  7  6  1  0
  8 15  1  0
  8  9  2  0
 10 11  1  0
 12 13  1  0
 12 11  1  0
 14 13  1  1
 14 16  1  0
 15 14  1  0
 16 17  2  0
 18 19  1  0
 18 16  1  0
 19 24  1  0
 19 20  1  6
 21 20  1  0
 22 21  1  0
 23 22  2  0
 24 25  1  0
 26 22  1  0
 27 24  2  0
M  END
$$$$
