KME.pdb
     RDKit          3D

 27 26  0  0  1  0  0  0  0  0999 V2000
    7.2268  -15.7306   20.0336 N   0  0  0  0  0  0  0  0  0  0  0  0
    8.4691  -15.0263   20.1660 C   0  0  1  0  0  0  0  0  0  0  0  0
    8.5461  -13.9204   19.1666 C   0  0  0  0  0  0  0  0  0  0  0  0
    7.9596  -14.4608   17.8721 C   0  0  0  0  0  0  0  0  0  0  0  0
    8.5790  -13.8590   16.6395 C   0  0  0  0  0  0  0  0  0  0  0  0
    7.9597  -14.5609   15.4259 C   0  0  0  0  0  0  0  0  0  0  0  0
    8.4330  -13.9998   14.1934 N   0  0  0  0  0  0  0  0  0  0  0  0
    8.8294  -14.6852   21.5357 C   0  0  0  0  0  0  0  0  0  0  0  0
    9.9434  -14.1914   21.8795 O   0  0  0  0  0  0  0  0  0  0  0  0
    6.7034  -11.7861   28.4045 C   0  0  0  0  0  0  0  0  0  0  0  0
    6.2469  -12.3587   26.7426 S   0  0  0  0  0  0  0  0  0  0  0  0
    7.5878  -13.4032   26.0838 C   0  0  0  0  0  0  0  0  0  0  0  0
    7.1986  -13.7830   24.6852 C   0  0  0  0  0  0  0  0  0  0  0  0
    8.2189  -14.5836   23.9639 C   0  0  2  0  0  0  0  0  0  0  0  0
    7.9156  -14.9035   22.5936 N   0  0  0  0  0  0  0  0  0  0  0  0
    8.7058  -15.7857   24.7167 C   0  0  0  0  0  0  0  0  0  0  0  0
    8.0195  -16.8280   24.8777 O   0  0  0  0  0  0  0  0  0  0  0  0
   10.0040  -15.7140   25.2553 N   0  0  0  0  0  0  0  0  0  0  0  0
   10.7360  -16.8750   25.8043 C   0  0  1  0  0  0  0  0  0  0  0  0
   12.1769  -16.7133   25.5321 C   0  0  0  0  0  0  0  0  0  0  0  0
   12.5726  -16.8326   24.1111 C   0  0  0  0  0  0  0  0  0  0  0  0
   13.9979  -16.6263   23.8750 C   0  0  0  0  0  0  0  0  0  0  0  0
   14.7674  -16.3619   24.8583 O   0  0  0  0  0  0  0  0  0  0  0  0
   10.3714  -17.0481   27.1813 C   0  0  0  0  0  0  0  0  0  0  0  0
   10.6307  -18.1872   27.9592 O   0  0  0  0  0  0  0  0  0  0  0  0
   14.5790  -16.7006   22.6191 O   0  0  0  0  0  0  0  0  0  0  0  0
    9.7441  -16.1091   27.7772 O   0  0  0  0  0  0  0  0  0  0  0  0
  2  1  1  1
  2  8  1  0
  3  2  1  0
  3  4  1  0
  4  5  1  0
  5  6  1  0
  7  6  1  0
  8 15  1  0
  8  9  2  0
 10 11  1  0
 12 13  1  0
 12 11  1  0
 14 13  1  1
 14 16  1  0
 15 14  1  0
 16 17  2  0
 18 19  1  0
 18 16  1  0
 19 24  1  0
 19 20  1  1
 21 20  1  0
 22 21  1  0
 23 22  2  0
 24 25  1  0
 26 22  1  0
 27 24  2  0
M  END
$$$$
