KME.pdb
     RDKit          3D

 27 26  0  0  1  0  0  0  0  0999 V2000
    7.2764  -15.6763   20.0466 N   0  0  0  0  0  0  0  0  0  0  0  0
    8.5459  -15.0220   20.1781 C   0  0  1  0  0  0  0  0  0  0  0  0
    8.6254  -13.8554   19.2505 C   0  0  0  0  0  0  0  0  0  0  0  0
    7.8522  -14.2397   17.9991 C   0  0  0  0  0  0  0  0  0  0  0  0
    8.1293  -13.3384   16.8261 C   0  0  0  0  0  0  0  0  0  0  0  0
    7.2332  -13.7998   15.6716 C   0  0  0  0  0  0  0  0  0  0  0  0
    7.3678  -12.9472   14.5258 N   0  0  0  0  0  0  0  0  0  0  0  0
    8.9654  -14.7840   21.5528 C   0  0  0  0  0  0  0  0  0  0  0  0
   10.1422  -14.4669   21.8957 O   0  0  0  0  0  0  0  0  0  0  0  0
    4.9813  -13.2909   27.0349 C   0  0  0  0  0  0  0  0  0  0  0  0
    6.5123  -12.3422   26.8028 S   0  0  0  0  0  0  0  0  0  0  0  0
    7.7991  -13.4444   26.1299 C   0  0  0  0  0  0  0  0  0  0  0  0
    7.3715  -13.8180   24.7410 C   0  0  0  0  0  0  0  0  0  0  0  0
    8.3787  -14.6001   23.9820 C   0  0  2  0  0  0  0  0  0  0  0  0
    8.0407  -14.9059   22.6166 N   0  0  0  0  0  0  0  0  0  0  0  0
    8.8971  -15.8066   24.7059 C   0  0  0  0  0  0  0  0  0  0  0  0
    8.2330  -16.8653   24.8536 O   0  0  0  0  0  0  0  0  0  0  0  0
   10.1994  -15.7199   25.2323 N   0  0  0  0  0  0  0  0  0  0  0  0
   10.8961  -16.8383   25.9021 C   0  0  1  0  0  0  0  0  0  0  0  0
   12.3137  -16.8413   25.4939 C   0  0  0  0  0  0  0  0  0  0  0  0
   12.5627  -17.1290   24.0637 C   0  0  0  0  0  0  0  0  0  0  0  0
   13.9728  -17.0901   23.6897 C   0  0  0  0  0  0  0  0  0  0  0  0
   14.8523  -16.8233   24.5754 O   0  0  0  0  0  0  0  0  0  0  0  0
   10.6479  -16.7646   27.3136 C   0  0  0  0  0  0  0  0  0  0  0  0
   10.7883  -17.8225   28.2251 O   0  0  0  0  0  0  0  0  0  0  0  0
   14.4245  -17.3296   22.4017 O   0  0  0  0  0  0  0  0  0  0  0  0
   10.2511  -15.6592   27.8143 O   0  0  0  0  0  0  0  0  0  0  0  0
  2  1  1  1
  2  8  1  0
  3  2  1  0
  3  4  1  0
  4  5  1  0
  5  6  1  0
  7  6  1  0
  8 15  1  0
  8  9  2  0
 10 11  1  0
 12 13  1  0
 12 11  1  0
 14 13  1  1
 14 16  1  0
 15 14  1  0
 16 17  2  0
 18 19  1  0
 18 16  1  0
 19 24  1  0
 19 20  1  1
 21 20  1  0
 22 21  1  0
 23 22  2  0
 24 25  1  0
 26 22  1  0
 27 24  2  0
M  END
$$$$
