KME.pdb
     RDKit          3D

 27 26  0  0  1  0  0  0  0  0999 V2000
    7.1143  -17.2713   20.7273 N   0  0  0  0  0  0  0  0  0  0  0  0
    8.3535  -16.5508   20.6818 C   0  0  1  0  0  0  0  0  0  0  0  0
    8.4029  -15.6823   19.4690 C   0  0  0  0  0  0  0  0  0  0  0  0
    8.3355  -16.6092   18.2657 C   0  0  0  0  0  0  0  0  0  0  0  0
    8.4776  -15.8911   16.9507 C   0  0  0  0  0  0  0  0  0  0  0  0
    8.4757  -16.9533   15.8458 C   0  0  0  0  0  0  0  0  0  0  0  0
    8.6959  -16.3708   14.5534 N   0  0  0  0  0  0  0  0  0  0  0  0
    8.7375  -15.9253   21.9403 C   0  0  0  0  0  0  0  0  0  0  0  0
    9.9004  -15.4971   22.1996 O   0  0  0  0  0  0  0  0  0  0  0  0
    6.7099  -10.9851   26.2985 C   0  0  0  0  0  0  0  0  0  0  0  0
    6.2412  -12.6695   26.7896 S   0  0  0  0  0  0  0  0  0  0  0  0
    7.5432  -13.8289   26.2565 C   0  0  0  0  0  0  0  0  0  0  0  0
    7.1473  -14.3368   24.9012 C   0  0  0  0  0  0  0  0  0  0  0  0
    8.1391  -15.2475   24.2773 C   0  0  2  0  0  0  0  0  0  0  0  0
    7.7911  -15.7641   22.9796 N   0  0  0  0  0  0  0  0  0  0  0  0
    8.6409  -16.3297   25.1859 C   0  0  0  0  0  0  0  0  0  0  0  0
    7.9438  -17.3151   25.5418 O   0  0  0  0  0  0  0  0  0  0  0  0
    9.9662  -16.2099   25.6439 N   0  0  0  0  0  0  0  0  0  0  0  0
   10.6597  -17.2401   26.4455 C   0  0  1  0  0  0  0  0  0  0  0  0
   12.0087  -17.4605   25.8904 C   0  0  0  0  0  0  0  0  0  0  0  0
   12.0492  -18.0493   24.5333 C   0  0  0  0  0  0  0  0  0  0  0  0
   13.3987  -18.2417   24.0124 C   0  0  0  0  0  0  0  0  0  0  0  0
   13.5604  -18.5901   22.7952 O   0  0  0  0  0  0  0  0  0  0  0  0
   10.6021  -16.8707   27.8310 C   0  0  0  0  0  0  0  0  0  0  0  0
   10.0656  -15.6768   28.3376 O   0  0  0  0  0  0  0  0  0  0  0  0
   14.5409  -18.0662   24.7773 O   0  0  0  0  0  0  0  0  0  0  0  0
   11.0835  -17.6687   28.7037 O   0  0  0  0  0  0  0  0  0  0  0  0
  2  1  1  1
  2  8  1  0
  3  2  1  0
  3  4  1  0
  4  5  1  0
  5  6  1  0
  7  6  1  0
  8 15  1  0
  8  9  2  0
 10 11  1  0
 12 13  1  0
 12 11  1  0
 14 13  1  1
 14 16  1  0
 15 14  1  0
 16 17  2  0
 18 19  1  0
 18 16  1  0
 19 24  1  0
 19 20  1  6
 21 20  1  0
 22 21  1  0
 23 22  2  0
 24 25  1  0
 26 22  1  0
 27 24  2  0
M  END
$$$$
