KME.pdb
     RDKit          3D

 27 26  0  0  1  0  0  0  0  0999 V2000
    7.2216  -15.9108   19.7662 N   0  0  0  0  0  0  0  0  0  0  0  0
    8.2768  -14.9413   19.8267 C   0  0  1  0  0  0  0  0  0  0  0  0
    8.0042  -13.8198   18.8803 C   0  0  0  0  0  0  0  0  0  0  0  0
    7.7923  -14.4463   17.5112 C   0  0  0  0  0  0  0  0  0  0  0  0
    7.8947  -13.4582   16.3807 C   0  0  0  0  0  0  0  0  0  0  0  0
    7.7035  -14.2355   15.0737 C   0  0  0  0  0  0  0  0  0  0  0  0
    7.5599  -13.3537   13.9514 N   0  0  0  0  0  0  0  0  0  0  0  0
    8.6773  -14.5650   21.1759 C   0  0  0  0  0  0  0  0  0  0  0  0
    9.7927  -14.0436   21.4707 O   0  0  0  0  0  0  0  0  0  0  0  0
    7.0242  -11.7249   28.1802 C   0  0  0  0  0  0  0  0  0  0  0  0
    6.4475  -12.2665   26.5455 S   0  0  0  0  0  0  0  0  0  0  0  0
    7.6906  -13.3823   25.8155 C   0  0  0  0  0  0  0  0  0  0  0  0
    7.2182  -13.7164   24.4310 C   0  0  0  0  0  0  0  0  0  0  0  0
    8.1836  -14.5113   23.6320 C   0  0  2  0  0  0  0  0  0  0  0  0
    7.8047  -14.7778   22.2691 N   0  0  0  0  0  0  0  0  0  0  0  0
    8.6824  -15.7479   24.3182 C   0  0  0  0  0  0  0  0  0  0  0  0
    7.9459  -16.7273   24.6043 O   0  0  0  0  0  0  0  0  0  0  0  0
   10.0515  -15.7854   24.6419 N   0  0  0  0  0  0  0  0  0  0  0  0
   10.7592  -16.9996   25.0999 C   0  0  1  0  0  0  0  0  0  0  0  0
   12.1464  -16.9711   24.5986 C   0  0  0  0  0  0  0  0  0  0  0  0
   13.0235  -18.0554   25.0937 C   0  0  0  0  0  0  0  0  0  0  0  0
   14.3841  -18.0013   24.5687 C   0  0  0  0  0  0  0  0  0  0  0  0
   15.2690  -17.3155   25.1818 O   0  0  0  0  0  0  0  0  0  0  0  0
   10.6063  -17.1208   26.5216 C   0  0  0  0  0  0  0  0  0  0  0  0
   10.7674  -18.3010   27.2639 O   0  0  0  0  0  0  0  0  0  0  0  0
   14.7819  -18.6635   23.4182 O   0  0  0  0  0  0  0  0  0  0  0  0
   10.2832  -16.0876   27.1986 O   0  0  0  0  0  0  0  0  0  0  0  0
  2  1  1  1
  2  8  1  0
  3  2  1  0
  3  4  1  0
  4  5  1  0
  5  6  1  0
  7  6  1  0
  8 15  1  0
  8  9  2  0
 10 11  1  0
 12 13  1  0
 12 11  1  0
 14 13  1  1
 14 16  1  0
 15 14  1  0
 16 17  2  0
 18 19  1  0
 18 16  1  0
 19 24  1  0
 19 20  1  1
 21 20  1  0
 22 21  1  0
 23 22  2  0
 24 25  1  0
 26 22  1  0
 27 24  2  0
M  END
$$$$
