HQF.pdb
     RDKit          3D

 31 32  0  0  1  0  0  0  0  0999 V2000
    7.8957  -19.0645   19.0987 N   0  0  0  0  0  0  0  0  0  0  0  0
    7.9204  -17.7012   19.5785 C   0  0  1  0  0  0  0  0  0  0  0  0
    7.1973  -16.7820   18.6037 C   0  0  0  0  0  0  0  0  0  0  0  0
    7.9534  -16.5430   17.3708 C   0  0  0  0  0  0  0  0  0  0  0  0
    9.2121  -16.9931   17.0144 C   0  0  0  0  0  0  0  0  0  0  0  0
    9.5000  -16.5208   15.7801 N   0  0  0  0  0  0  0  0  0  0  0  0
    8.4598  -15.7920   15.3598 C   0  0  0  0  0  0  0  0  0  0  0  0
    7.5356  -15.8109   16.3216 N   0  0  0  0  0  0  0  0  0  0  0  0
    7.2872  -17.5907   20.9036 C   0  0  0  0  0  0  0  0  0  0  0  0
    6.0298  -17.4490   20.9716 O   0  0  0  0  0  0  0  0  0  0  0  0
    6.1608  -21.2064   24.8277 N   0  0  0  0  0  0  0  0  0  0  0  0
    7.4646  -21.1557   24.3049 C   0  0  0  0  0  0  0  0  0  0  0  0
    8.1576  -22.1987   24.2720 O   0  0  0  0  0  0  0  0  0  0  0  0
    7.9778  -19.8746   23.8106 C   0  0  0  0  0  0  0  0  0  0  0  0
    6.8744  -18.8389   23.9243 C   0  0  0  0  0  0  0  0  0  0  0  0
    7.3603  -17.5041   23.3974 C   0  0  2  0  0  0  0  0  0  0  0  0
    7.9975  -17.6329   22.1154 N   0  0  0  0  0  0  0  0  0  0  0  0
    8.2908  -16.9161   24.3952 C   0  0  0  0  0  0  0  0  0  0  0  0
    9.5287  -16.8998   24.1939 O   0  0  0  0  0  0  0  0  0  0  0  0
    7.8042  -16.3652   25.5869 N   0  0  0  0  0  0  0  0  0  0  0  0
    8.6378  -15.7440   26.6027 C   0  0  1  0  0  0  0  0  0  0  0  0
    7.9169  -14.7305   27.4003 C   0  0  0  0  0  0  0  0  0  0  0  0
    7.5906  -13.5476   26.5857 C   0  0  0  0  0  0  0  0  0  0  0  0
    8.5708  -12.9293   25.8002 C   0  0  0  0  0  0  0  0  0  0  0  0
    8.2996  -11.8448   25.0123 C   0  0  0  0  0  0  0  0  0  0  0  0
    7.0269  -11.3139   24.9643 C   0  0  0  0  0  0  0  0  0  0  0  0
    6.0621  -11.9059   25.7239 C   0  0  0  0  0  0  0  0  0  0  0  0
    6.3297  -13.0015   26.5216 C   0  0  0  0  0  0  0  0  0  0  0  0
    9.1750  -16.8191   27.4463 C   0  0  0  0  0  0  0  0  0  0  0  0
    9.9676  -16.6104   28.3920 O   0  0  0  0  0  0  0  0  0  0  0  0
    8.8228  -18.1543   27.2330 O   0  0  0  0  0  0  0  0  0  0  0  0
  2  1  1  6
  3  2  1  0
  4  5  2  0
  4  3  1  0
  6  5  1  0
  7  8  2  0
  7  6  1  0
  8  4  1  0
  9 17  1  0
  9  2  1  0
 10  9  2  0
 11 12  1  0
 12 14  1  0
 13 12  2  0
 14 15  1  0
 16 15  1  1
 16 17  1  0
 18 16  1  0
 19 18  2  0
 20 18  1  0
 21 29  1  0
 21 20  1  0
 22 23  1  0
 21 22  1  1
 23 28  1  0
 24 23  2  0
 24 25  1  0
 25 26  2  0
 26 27  1  0
 28 27  2  0
 29 31  1  0
 30 29  2  0
M  END
$$$$
