HQF.pdb
     RDKit          3D

 31 32  0  0  1  0  0  0  0  0999 V2000
    7.5606  -16.7047   20.0127 N   0  0  0  0  0  0  0  0  0  0  0  0
    8.0331  -15.6626   20.8961 C   0  0  1  0  0  0  0  0  0  0  0  0
    7.3955  -14.3288   20.5325 C   0  0  0  0  0  0  0  0  0  0  0  0
    7.6990  -13.9010   19.1636 C   0  0  0  0  0  0  0  0  0  0  0  0
    7.2933  -12.7616   18.4921 C   0  0  0  0  0  0  0  0  0  0  0  0
    7.8200  -12.7906   17.2466 N   0  0  0  0  0  0  0  0  0  0  0  0
    8.5395  -13.9119   17.1244 C   0  0  0  0  0  0  0  0  0  0  0  0
    8.4611  -14.5726   18.2807 N   0  0  0  0  0  0  0  0  0  0  0  0
    7.7256  -15.9754   22.3020 C   0  0  0  0  0  0  0  0  0  0  0  0
    6.9852  -15.1831   22.9579 O   0  0  0  0  0  0  0  0  0  0  0  0
    6.6668  -20.7709   25.9648 N   0  0  0  0  0  0  0  0  0  0  0  0
    6.2575  -20.6450   24.6260 C   0  0  0  0  0  0  0  0  0  0  0  0
    5.3203  -21.3570   24.1973 O   0  0  0  0  0  0  0  0  0  0  0  0
    6.9447  -19.6773   23.7655 C   0  0  0  0  0  0  0  0  0  0  0  0
    7.9512  -18.9153   24.6077 C   0  0  0  0  0  0  0  0  0  0  0  0
    7.8432  -17.4304   24.3270 C   0  0  2  0  0  0  0  0  0  0  0  0
    8.2068  -17.1122   22.9733 N   0  0  0  0  0  0  0  0  0  0  0  0
    8.7090  -16.7060   25.2928 C   0  0  0  0  0  0  0  0  0  0  0  0
    9.9294  -16.5310   25.0622 O   0  0  0  0  0  0  0  0  0  0  0  0
    8.1795  -16.2008   26.4865 N   0  0  0  0  0  0  0  0  0  0  0  0
    8.9647  -15.5424   27.5172 C   0  0  1  0  0  0  0  0  0  0  0  0
    8.2335  -14.4484   28.1893 C   0  0  0  0  0  0  0  0  0  0  0  0
    7.7907  -13.4318   27.2199 C   0  0  0  0  0  0  0  0  0  0  0  0
    6.4275  -13.2153   26.9850 C   0  0  0  0  0  0  0  0  0  0  0  0
    5.9783  -12.2639   26.1112 C   0  0  0  0  0  0  0  0  0  0  0  0
    6.8703  -11.4708   25.4189 C   0  0  0  0  0  0  0  0  0  0  0  0
    8.2009  -11.6704   25.6377 C   0  0  0  0  0  0  0  0  0  0  0  0
    8.6610  -12.6295   26.5190 C   0  0  0  0  0  0  0  0  0  0  0  0
    9.3932  -16.5754   28.4686 C   0  0  0  0  0  0  0  0  0  0  0  0
    8.9105  -17.7299   28.4828 O   0  0  0  0  0  0  0  0  0  0  0  0
   10.3796  -16.3183   29.4243 O   0  0  0  0  0  0  0  0  0  0  0  0
  2  1  1  6
  3  2  1  0
  4  5  2  0
  4  3  1  0
  6  5  1  0
  7  8  2  0
  7  6  1  0
  8  4  1  0
  9 17  1  0
  9  2  1  0
 10  9  2  0
 11 12  1  0
 12 14  1  0
 13 12  2  0
 14 15  1  0
 16 15  1  6
 16 17  1  0
 18 16  1  0
 19 18  2  0
 20 18  1  0
 21 29  1  0
 21 20  1  0
 22 23  1  0
 21 22  1  1
 23 28  1  0
 24 23  2  0
 24 25  1  0
 25 26  2  0
 26 27  1  0
 28 27  2  0
 29 31  1  0
 30 29  2  0
M  END
$$$$
