HQF.pdb
     RDKit          3D

 31 32  0  0  1  0  0  0  0  0999 V2000
    9.6749  -14.8112   20.7021 N   0  0  0  0  0  0  0  0  0  0  0  0
    8.3114  -15.1593   21.0327 C   0  0  1  0  0  0  0  0  0  0  0  0
    7.6230  -15.8033   19.8371 C   0  0  0  0  0  0  0  0  0  0  0  0
    7.5366  -14.9131   18.6756 C   0  0  0  0  0  0  0  0  0  0  0  0
    8.0643  -13.6460   18.5025 C   0  0  0  0  0  0  0  0  0  0  0  0
    7.7296  -13.2102   17.2666 N   0  0  0  0  0  0  0  0  0  0  0  0
    7.0111  -14.1668   16.6678 C   0  0  0  0  0  0  0  0  0  0  0  0
    6.9002  -15.1858   17.5215 N   0  0  0  0  0  0  0  0  0  0  0  0
    8.2601  -16.0878   22.1747 C   0  0  0  0  0  0  0  0  0  0  0  0
    7.5969  -17.1617   22.0618 O   0  0  0  0  0  0  0  0  0  0  0  0
   12.7637  -19.4575   22.9085 N   0  0  0  0  0  0  0  0  0  0  0  0
   11.3663  -19.5204   22.7704 C   0  0  0  0  0  0  0  0  0  0  0  0
   10.7631  -20.5764   23.0706 O   0  0  0  0  0  0  0  0  0  0  0  0
   10.6517  -18.3399   22.2755 C   0  0  0  0  0  0  0  0  0  0  0  0
   10.9624  -17.1711   23.1922 C   0  0  0  0  0  0  0  0  0  0  0  0
    9.7482  -16.8359   24.0342 C   0  0  2  0  0  0  0  0  0  0  0  0
    8.9087  -15.8568   23.3998 N   0  0  0  0  0  0  0  0  0  0  0  0
   10.2148  -16.3549   25.3602 C   0  0  0  0  0  0  0  0  0  0  0  0
   11.4383  -16.2653   25.6217 O   0  0  0  0  0  0  0  0  0  0  0  0
    9.2954  -15.9897   26.3510 N   0  0  0  0  0  0  0  0  0  0  0  0
    9.6627  -15.5049   27.6710 C   0  0  1  0  0  0  0  0  0  0  0  0
    8.6389  -14.6218   28.2670 C   0  0  0  0  0  0  0  0  0  0  0  0
    8.2117  -13.5847   27.3124 C   0  0  0  0  0  0  0  0  0  0  0  0
    6.9871  -13.6921   26.6424 C   0  0  0  0  0  0  0  0  0  0  0  0
    6.5458  -12.7374   25.7681 C   0  0  0  0  0  0  0  0  0  0  0  0
    7.3071  -11.6154   25.5126 C   0  0  0  0  0  0  0  0  0  0  0  0
    8.5020  -11.4973   26.1581 C   0  0  0  0  0  0  0  0  0  0  0  0
    8.9531  -12.4580   27.0423 C   0  0  0  0  0  0  0  0  0  0  0  0
    9.9243  -16.6797   28.5121 C   0  0  0  0  0  0  0  0  0  0  0  0
   10.3275  -16.5945   29.6937 O   0  0  0  0  0  0  0  0  0  0  0  0
    9.7332  -17.9764   28.0281 O   0  0  0  0  0  0  0  0  0  0  0  0
  2  1  1  6
  3  2  1  0
  4  5  2  0
  4  3  1  0
  6  5  1  0
  7  8  2  0
  7  6  1  0
  8  4  1  0
  9 17  1  0
  9  2  1  0
 10  9  2  0
 11 12  1  0
 12 14  1  0
 13 12  2  0
 14 15  1  0
 16 15  1  6
 16 17  1  0
 18 16  1  0
 19 18  2  0
 20 18  1  0
 21 29  1  0
 21 20  1  0
 22 23  1  0
 21 22  1  1
 23 28  1  0
 24 23  2  0
 24 25  1  0
 25 26  2  0
 26 27  1  0
 28 27  2  0
 29 31  1  0
 30 29  2  0
M  END
$$$$
