HQF.pdb
     RDKit          3D

 31 32  0  0  1  0  0  0  0  0999 V2000
    8.1233  -16.9275   20.1135 N   0  0  0  0  0  0  0  0  0  0  0  0
    8.8113  -16.0406   21.0245 C   0  0  1  0  0  0  0  0  0  0  0  0
    8.0056  -14.7661   21.2347 C   0  0  0  0  0  0  0  0  0  0  0  0
    7.9522  -13.9166   20.0412 C   0  0  0  0  0  0  0  0  0  0  0  0
    8.4770  -14.1428   18.7814 C   0  0  0  0  0  0  0  0  0  0  0  0
    8.1796  -13.0805   17.9987 N   0  0  0  0  0  0  0  0  0  0  0  0
    7.4869  -12.2027   18.7332 C   0  0  0  0  0  0  0  0  0  0  0  0
    7.3552  -12.7132   19.9586 N   0  0  0  0  0  0  0  0  0  0  0  0
    9.0381  -16.6869   22.3283 C   0  0  0  0  0  0  0  0  0  0  0  0
    8.0715  -17.2788   22.8949 O   0  0  0  0  0  0  0  0  0  0  0  0
   13.5556  -20.3452   24.1245 N   0  0  0  0  0  0  0  0  0  0  0  0
   13.0402  -19.8411   22.9179 C   0  0  0  0  0  0  0  0  0  0  0  0
   13.6639  -20.0387   21.8496 O   0  0  0  0  0  0  0  0  0  0  0  0
   11.7792  -19.0940   22.9460 C   0  0  0  0  0  0  0  0  0  0  0  0
   11.7658  -18.2209   24.1872 C   0  0  0  0  0  0  0  0  0  0  0  0
   10.4954  -17.3963   24.2269 C   0  0  2  0  0  0  0  0  0  0  0  0
   10.2753  -16.6898   22.9946 N   0  0  0  0  0  0  0  0  0  0  0  0
   10.5841  -16.4523   25.3707 C   0  0  0  0  0  0  0  0  0  0  0  0
   11.2224  -15.3769   25.2735 O   0  0  0  0  0  0  0  0  0  0  0  0
    9.9549  -16.7437   26.5871 N   0  0  0  0  0  0  0  0  0  0  0  0
   10.0148  -15.8939   27.7647 C   0  0  1  0  0  0  0  0  0  0  0  0
    8.6869  -15.4094   28.1949 C   0  0  0  0  0  0  0  0  0  0  0  0
    8.1783  -14.3726   27.2807 C   0  0  0  0  0  0  0  0  0  0  0  0
    7.0595  -14.6174   26.4754 C   0  0  0  0  0  0  0  0  0  0  0  0
    6.5439  -13.6713   25.6330 C   0  0  0  0  0  0  0  0  0  0  0  0
    7.1200  -12.4205   25.5471 C   0  0  0  0  0  0  0  0  0  0  0  0
    8.2101  -12.1678   26.3257 C   0  0  0  0  0  0  0  0  0  0  0  0
    8.7355  -13.1191   27.1786 C   0  0  0  0  0  0  0  0  0  0  0  0
   10.6840  -16.6595   28.8239 C   0  0  0  0  0  0  0  0  0  0  0  0
   10.9436  -17.8794   28.7216 O   0  0  0  0  0  0  0  0  0  0  0  0
   11.0726  -16.0548   30.0221 O   0  0  0  0  0  0  0  0  0  0  0  0
  2  1  1  6
  3  2  1  0
  4  5  2  0
  4  3  1  0
  6  5  1  0
  7  8  2  0
  7  6  1  0
  8  4  1  0
  9 17  1  0
  9  2  1  0
 10  9  2  0
 11 12  1  0
 12 14  1  0
 13 12  2  0
 14 15  1  0
 16 15  1  6
 16 17  1  0
 18 16  1  0
 19 18  2  0
 20 18  1  0
 21 29  1  0
 21 20  1  0
 22 23  1  0
 21 22  1  1
 23 28  1  0
 24 23  2  0
 24 25  1  0
 25 26  2  0
 26 27  1  0
 28 27  2  0
 29 31  1  0
 30 29  2  0
M  END
$$$$
