HQF.pdb
     RDKit          3D

 31 32  0  0  1  0  0  0  0  0999 V2000
    7.9924  -17.0402   20.1346 N   0  0  0  0  0  0  0  0  0  0  0  0
    8.7194  -16.2007   21.0599 C   0  0  1  0  0  0  0  0  0  0  0  0
    7.9854  -14.8836   21.2711 C   0  0  0  0  0  0  0  0  0  0  0  0
    7.9627  -14.0399   20.0726 C   0  0  0  0  0  0  0  0  0  0  0  0
    8.5745  -14.2413   18.8483 C   0  0  0  0  0  0  0  0  0  0  0  0
    8.2726  -13.1967   18.0439 N   0  0  0  0  0  0  0  0  0  0  0  0
    7.4929  -12.3538   18.7305 C   0  0  0  0  0  0  0  0  0  0  0  0
    7.3120  -12.8684   19.9480 N   0  0  0  0  0  0  0  0  0  0  0  0
    8.8941  -16.8680   22.3611 C   0  0  0  0  0  0  0  0  0  0  0  0
    8.0251  -17.7091   22.7396 O   0  0  0  0  0  0  0  0  0  0  0  0
   12.7186  -20.4963   23.8190 N   0  0  0  0  0  0  0  0  0  0  0  0
   12.7014  -19.5305   22.7979 C   0  0  0  0  0  0  0  0  0  0  0  0
   13.3548  -19.7303   21.7480 O   0  0  0  0  0  0  0  0  0  0  0  0
   11.9136  -18.3098   22.9937 C   0  0  0  0  0  0  0  0  0  0  0  0
   11.2614  -18.3734   24.3625 C   0  0  0  0  0  0  0  0  0  0  0  0
   10.1606  -17.3370   24.4606 C   0  0  2  0  0  0  0  0  0  0  0  0
    9.9780  -16.6292   23.2229 N   0  0  0  0  0  0  0  0  0  0  0  0
   10.4956  -16.3993   25.5632 C   0  0  0  0  0  0  0  0  0  0  0  0
   11.3910  -15.5319   25.4247 O   0  0  0  0  0  0  0  0  0  0  0  0
    9.8165  -16.4637   26.7859 N   0  0  0  0  0  0  0  0  0  0  0  0
   10.1370  -15.6475   27.9450 C   0  0  1  0  0  0  0  0  0  0  0  0
    8.9551  -14.9723   28.5200 C   0  0  0  0  0  0  0  0  0  0  0  0
    8.3199  -14.0822   27.5333 C   0  0  0  0  0  0  0  0  0  0  0  0
    8.8405  -12.8069   27.2830 C   0  0  0  0  0  0  0  0  0  0  0  0
    8.2928  -11.9624   26.3570 C   0  0  0  0  0  0  0  0  0  0  0  0
    7.1881  -12.3464   25.6249 C   0  0  0  0  0  0  0  0  0  0  0  0
    6.6705  -13.5858   25.8579 C   0  0  0  0  0  0  0  0  0  0  0  0
    7.2191  -14.4434   26.7916 C   0  0  0  0  0  0  0  0  0  0  0  0
   10.7966  -16.5187   28.9257 C   0  0  0  0  0  0  0  0  0  0  0  0
   10.8682  -17.7610   28.7928 O   0  0  0  0  0  0  0  0  0  0  0  0
   11.3890  -15.9966   30.0784 O   0  0  0  0  0  0  0  0  0  0  0  0
  2  1  1  6
  3  2  1  0
  4  5  2  0
  4  3  1  0
  6  5  1  0
  7  8  2  0
  7  6  1  0
  8  4  1  0
  9 17  1  0
  9  2  1  0
 10  9  2  0
 11 12  1  0
 12 14  1  0
 13 12  2  0
 14 15  1  0
 16 15  1  6
 16 17  1  0
 18 16  1  0
 19 18  2  0
 20 18  1  0
 21 29  1  0
 21 20  1  0
 22 23  1  0
 21 22  1  1
 23 28  1  0
 24 23  2  0
 24 25  1  0
 25 26  2  0
 26 27  1  0
 28 27  2  0
 29 31  1  0
 30 29  2  0
M  END
$$$$
