HQF.pdb
     RDKit          3D

 31 32  0  0  1  0  0  0  0  0999 V2000
    7.4543  -16.9321   20.8311 N   0  0  0  0  0  0  0  0  0  0  0  0
    8.0225  -16.0778   21.8494 C   0  0  1  0  0  0  0  0  0  0  0  0
    7.3917  -14.6933   21.7937 C   0  0  0  0  0  0  0  0  0  0  0  0
    7.8131  -13.9166   20.6241 C   0  0  0  0  0  0  0  0  0  0  0  0
    8.5966  -14.3039   19.5518 C   0  0  0  0  0  0  0  0  0  0  0  0
    8.7196  -13.2511   18.7115 N   0  0  0  0  0  0  0  0  0  0  0  0
    8.0372  -12.2232   19.2287 C   0  0  0  0  0  0  0  0  0  0  0  0
    7.4960  -12.6320   20.3775 N   0  0  0  0  0  0  0  0  0  0  0  0
    7.8212  -16.6444   23.1938 C   0  0  0  0  0  0  0  0  0  0  0  0
    6.8309  -17.4093   23.3941 O   0  0  0  0  0  0  0  0  0  0  0  0
   10.9977  -20.2023   22.1141 N   0  0  0  0  0  0  0  0  0  0  0  0
   11.7847  -19.9369   23.2481 C   0  0  0  0  0  0  0  0  0  0  0  0
   12.9664  -20.3505   23.2901 O   0  0  0  0  0  0  0  0  0  0  0  0
   11.1948  -19.1787   24.3554 C   0  0  0  0  0  0  0  0  0  0  0  0
   10.4480  -17.9898   23.7794 C   0  0  0  0  0  0  0  0  0  0  0  0
    9.5508  -17.3796   24.8369 C   0  0  2  0  0  0  0  0  0  0  0  0
    8.6685  -16.3880   24.2852 N   0  0  0  0  0  0  0  0  0  0  0  0
   10.4085  -16.7939   25.8992 C   0  0  0  0  0  0  0  0  0  0  0  0
   11.2898  -17.4798   26.4701 O   0  0  0  0  0  0  0  0  0  0  0  0
   10.2510  -15.4580   26.2879 N   0  0  0  0  0  0  0  0  0  0  0  0
   10.3539  -14.9860   27.6587 C   0  0  1  0  0  0  0  0  0  0  0  0
    9.0508  -14.5908   28.2322 C   0  0  0  0  0  0  0  0  0  0  0  0
    8.3241  -13.6859   27.3254 C   0  0  0  0  0  0  0  0  0  0  0  0
    7.0467  -14.0177   26.8585 C   0  0  0  0  0  0  0  0  0  0  0  0
    6.3316  -13.1919   26.0356 C   0  0  0  0  0  0  0  0  0  0  0  0
    6.8552  -11.9813   25.6306 C   0  0  0  0  0  0  0  0  0  0  0  0
    8.0983  -11.6448   26.0776 C   0  0  0  0  0  0  0  0  0  0  0  0
    8.8255  -12.4745   26.9090 C   0  0  0  0  0  0  0  0  0  0  0  0
   10.9927  -16.0510   28.4420 C   0  0  0  0  0  0  0  0  0  0  0  0
   11.2413  -17.1846   27.9738 O   0  0  0  0  0  0  0  0  0  0  0  0
   11.3626  -15.8502   29.7744 O   0  0  0  0  0  0  0  0  0  0  0  0
  2  1  1  6
  3  2  1  0
  4  5  2  0
  4  3  1  0
  6  5  1  0
  7  8  2  0
  7  6  1  0
  8  4  1  0
  9 17  1  0
  9  2  1  0
 10  9  2  0
 11 12  1  0
 12 14  1  0
 13 12  2  0
 14 15  1  0
 16 15  1  6
 16 17  1  0
 18 16  1  0
 19 18  2  0
 20 18  1  0
 21 29  1  0
 21 20  1  0
 22 23  1  0
 21 22  1  1
 23 28  1  0
 24 23  2  0
 24 25  1  0
 25 26  2  0
 26 27  1  0
 28 27  2  0
 29 31  1  0
 30 29  2  0
M  END
$$$$
