HQF.pdb
     RDKit          3D

 31 32  0  0  1  0  0  0  0  0999 V2000
    6.9863  -16.9941   19.9287 N   0  0  0  0  0  0  0  0  0  0  0  0
    7.3408  -15.9468   20.8598 C   0  0  1  0  0  0  0  0  0  0  0  0
    6.6698  -14.6378   20.4673 C   0  0  0  0  0  0  0  0  0  0  0  0
    7.2943  -13.9978   19.3057 C   0  0  0  0  0  0  0  0  0  0  0  0
    8.1935  -12.9474   19.2629 C   0  0  0  0  0  0  0  0  0  0  0  0
    8.4954  -12.6971   17.9684 N   0  0  0  0  0  0  0  0  0  0  0  0
    7.8119  -13.5590   17.2070 C   0  0  0  0  0  0  0  0  0  0  0  0
    7.0932  -14.3364   18.0187 N   0  0  0  0  0  0  0  0  0  0  0  0
    6.9434  -16.2979   22.2338 C   0  0  0  0  0  0  0  0  0  0  0  0
    5.7442  -16.6424   22.4553 O   0  0  0  0  0  0  0  0  0  0  0  0
    8.1655  -20.2958   27.3766 N   0  0  0  0  0  0  0  0  0  0  0  0
    7.5590  -20.1034   26.1233 C   0  0  0  0  0  0  0  0  0  0  0  0
    7.6664  -20.9882   25.2431 O   0  0  0  0  0  0  0  0  0  0  0  0
    6.8138  -18.8642   25.8822 C   0  0  0  0  0  0  0  0  0  0  0  0
    7.2065  -18.3249   24.5192 C   0  0  0  0  0  0  0  0  0  0  0  0
    7.4836  -16.8381   24.6103 C   0  0  2  0  0  0  0  0  0  0  0  0
    7.8207  -16.2755   23.3313 N   0  0  0  0  0  0  0  0  0  0  0  0
    8.5806  -16.6243   25.5892 C   0  0  0  0  0  0  0  0  0  0  0  0
    9.7558  -16.9783   25.3309 O   0  0  0  0  0  0  0  0  0  0  0  0
    8.3254  -16.0207   26.8265 N   0  0  0  0  0  0  0  0  0  0  0  0
    9.3377  -15.3812   27.6505 C   0  0  1  0  0  0  0  0  0  0  0  0
    8.8419  -14.1715   28.3387 C   0  0  0  0  0  0  0  0  0  0  0  0
    8.1794  -13.2568   27.3934 C   0  0  0  0  0  0  0  0  0  0  0  0
    6.7905  -13.0825   27.4231 C   0  0  0  0  0  0  0  0  0  0  0  0
    6.1431  -12.2238   26.5781 C   0  0  0  0  0  0  0  0  0  0  0  0
    6.8505  -11.4867   25.6506 C   0  0  0  0  0  0  0  0  0  0  0  0
    8.2038  -11.6461   25.6103 C   0  0  0  0  0  0  0  0  0  0  0  0
    8.8635  -12.5117   26.4612 C   0  0  0  0  0  0  0  0  0  0  0  0
    9.8274  -16.3865   28.6021 C   0  0  0  0  0  0  0  0  0  0  0  0
    9.2898  -17.5076   28.7446 O   0  0  0  0  0  0  0  0  0  0  0  0
   10.9387  -16.1391   29.4121 O   0  0  0  0  0  0  0  0  0  0  0  0
  2  1  1  6
  3  2  1  0
  4  5  2  0
  4  3  1  0
  6  5  1  0
  7  8  2  0
  7  6  1  0
  8  4  1  0
  9 17  1  0
  9  2  1  0
 10  9  2  0
 11 12  1  0
 12 14  1  0
 13 12  2  0
 14 15  1  0
 16 15  1  6
 16 17  1  0
 18 16  1  0
 19 18  2  0
 20 18  1  0
 21 29  1  0
 21 20  1  0
 22 23  1  0
 21 22  1  1
 23 28  1  0
 24 23  2  0
 24 25  1  0
 25 26  2  0
 26 27  1  0
 28 27  2  0
 29 31  1  0
 30 29  2  0
M  END
$$$$
