IIP.pdb
     RDKit          3D

 24 24  0  0  1  0  0  0  0  0999 V2000
    8.3430  -20.6345   27.2324 C   0  0  0  0  0  0  0  0  0  0  0  0
    7.7370  -20.9019   25.9013 C   0  0  0  0  0  0  0  0  0  0  0  0
    7.5329  -19.6521   25.0521 C   0  0  2  0  0  0  0  0  0  0  0  0
    8.8541  -18.9148   24.9835 C   0  0  0  0  0  0  0  0  0  0  0  0
    6.5183  -18.7457   25.7334 C   0  0  2  0  0  0  0  0  0  0  0  0
    5.1750  -19.3736   25.5282 N   0  0  0  0  0  0  0  0  0  0  0  0
    6.4099  -17.4414   25.0696 C   0  0  0  0  0  0  0  0  0  0  0  0
    5.9189  -17.3873   23.9070 O   0  0  0  0  0  0  0  0  0  0  0  0
    6.3958  -12.4498   27.5244 C   0  0  0  0  0  0  0  0  0  0  0  0
    6.0078  -13.5346   26.4916 C   0  0  0  0  0  0  0  0  0  0  0  0
    7.2679  -13.8480   25.7609 C   0  0  2  0  0  0  0  0  0  0  0  0
    7.6819  -12.6114   24.9690 C   0  0  0  0  0  0  0  0  0  0  0  0
    7.1690  -15.0645   24.8274 C   0  0  2  0  0  0  0  0  0  0  0  0
    6.8164  -16.1962   25.6487 N   0  0  0  0  0  0  0  0  0  0  0  0
    8.2608  -15.1559   23.9020 C   0  0  0  0  0  0  0  0  0  0  0  0
    9.3118  -15.8314   24.3235 O   0  0  0  0  0  0  0  0  0  0  0  0
    8.4497  -14.6607   22.5931 N   0  0  0  0  0  0  0  0  0  0  0  0
    7.7680  -13.4427   22.0644 C   0  0  0  0  0  0  0  0  0  0  0  0
    7.1899  -14.0282   20.7837 C   0  0  0  0  0  0  0  0  0  0  0  0
    8.3545  -14.7925   20.2536 C   0  0  0  0  0  0  0  0  0  0  0  0
    9.2510  -15.0787   21.4723 C   0  0  1  0  0  0  0  0  0  0  0  0
   10.4868  -14.2497   21.3811 C   0  0  0  0  0  0  0  0  0  0  0  0
   10.7267  -13.1394   22.1712 O   0  0  0  0  0  0  0  0  0  0  0  0
   11.3601  -14.5726   20.5434 O   0  0  0  0  0  0  0  0  0  0  0  0
  2  3  1  0
  2  1  1  0
  3  4  1  1
  5  6  1  6
  5  3  1  0
  7  5  1  0
  8  7  2  0
  9 10  1  0
 11 13  1  0
 11 12  1  6
 11 10  1  0
 13 14  1  1
 14  7  1  0
 15 13  1  0
 15 16  2  0
 17 15  1  0
 18 17  1  0
 19 18  1  0
 20 19  1  0
 20 21  1  0
 21 17  1  0
 21 22  1  6
 22 23  1  0
 24 22  2  0
M  END
$$$$
