IIP.pdb
     RDKit          3D

 24 24  0  0  1  0  0  0  0  0999 V2000
    8.4956  -21.9884   25.4736 C   0  0  0  0  0  0  0  0  0  0  0  0
    7.4050  -21.0656   25.8854 C   0  0  0  0  0  0  0  0  0  0  0  0
    7.3542  -19.7704   25.0824 C   0  0  2  0  0  0  0  0  0  0  0  0
    8.6968  -19.0833   25.2214 C   0  0  0  0  0  0  0  0  0  0  0  0
    6.2902  -18.8577   25.6739 C   0  0  2  0  0  0  0  0  0  0  0  0
    4.9655  -19.4727   25.3457 N   0  0  0  0  0  0  0  0  0  0  0  0
    6.2532  -17.5499   25.0091 C   0  0  0  0  0  0  0  0  0  0  0  0
    5.7862  -17.4737   23.8379 O   0  0  0  0  0  0  0  0  0  0  0  0
    6.5309  -12.5605   27.4799 C   0  0  0  0  0  0  0  0  0  0  0  0
    6.0907  -13.6696   26.4950 C   0  0  0  0  0  0  0  0  0  0  0  0
    7.3155  -14.0129   25.7190 C   0  0  2  0  0  0  0  0  0  0  0  0
    7.7359  -12.7829   24.9200 C   0  0  0  0  0  0  0  0  0  0  0  0
    7.1505  -15.2200   24.7828 C   0  0  2  0  0  0  0  0  0  0  0  0
    6.7053  -16.3243   25.5964 N   0  0  0  0  0  0  0  0  0  0  0  0
    8.2506  -15.3869   23.8780 C   0  0  0  0  0  0  0  0  0  0  0  0
    9.1953  -16.2170   24.2744 O   0  0  0  0  0  0  0  0  0  0  0  0
    8.5406  -14.8330   22.6119 N   0  0  0  0  0  0  0  0  0  0  0  0
    7.9713  -13.5421   22.1249 C   0  0  0  0  0  0  0  0  0  0  0  0
    7.4227  -14.0120   20.7850 C   0  0  0  0  0  0  0  0  0  0  0  0
    8.5592  -14.8253   20.2668 C   0  0  0  0  0  0  0  0  0  0  0  0
    9.3694  -15.2424   21.5079 C   0  0  1  0  0  0  0  0  0  0  0  0
   10.6614  -14.4986   21.5263 C   0  0  0  0  0  0  0  0  0  0  0  0
   10.9638  -13.5072   22.4431 O   0  0  0  0  0  0  0  0  0  0  0  0
   11.5250  -14.7837   20.6653 O   0  0  0  0  0  0  0  0  0  0  0  0
  2  3  1  0
  2  1  1  0
  3  4  1  1
  5  6  1  6
  5  3  1  0
  7  5  1  0
  8  7  2  0
  9 10  1  0
 11 13  1  0
 11 12  1  6
 11 10  1  0
 13 14  1  1
 14  7  1  0
 15 13  1  0
 15 16  2  0
 17 15  1  0
 18 17  1  0
 19 18  1  0
 20 19  1  0
 20 21  1  0
 21 17  1  0
 21 22  1  1
 22 23  1  0
 24 22  2  0
M  END
$$$$
