IIP.pdb
     RDKit          3D

 24 24  0  0  1  0  0  0  0  0999 V2000
    6.5206  -11.1582   27.9355 C   0  0  0  0  0  0  0  0  0  0  0  0
    5.8373  -12.0857   26.9956 C   0  0  0  0  0  0  0  0  0  0  0  0
    6.7530  -13.1508   26.4023 C   0  0  2  0  0  0  0  0  0  0  0  0
    7.8804  -12.4449   25.6780 C   0  0  0  0  0  0  0  0  0  0  0  0
    5.9729  -13.9686   25.3835 C   0  0  2  0  0  0  0  0  0  0  0  0
    5.1780  -14.9738   26.1572 N   0  0  0  0  0  0  0  0  0  0  0  0
    6.8539  -14.7821   24.5375 C   0  0  0  0  0  0  0  0  0  0  0  0
    7.1941  -15.9309   24.9378 O   0  0  0  0  0  0  0  0  0  0  0  0
    7.5845  -12.7791   19.7734 C   0  0  0  0  0  0  0  0  0  0  0  0
    7.1970  -14.0508   20.5650 C   0  0  0  0  0  0  0  0  0  0  0  0
    8.4727  -14.5523   21.1490 C   0  0  2  0  0  0  0  0  0  0  0  0
    9.0745  -15.5681   20.1826 C   0  0  0  0  0  0  0  0  0  0  0  0
    8.3243  -15.1756   22.5456 C   0  0  2  0  0  0  0  0  0  0  0  0
    7.3637  -14.3740   23.2628 N   0  0  0  0  0  0  0  0  0  0  0  0
    9.5807  -15.5106   23.1505 C   0  0  0  0  0  0  0  0  0  0  0  0
   10.2342  -14.5074   23.7028 O   0  0  0  0  0  0  0  0  0  0  0  0
   10.2838  -16.7278   23.2843 N   0  0  0  0  0  0  0  0  0  0  0  0
    9.8225  -18.0177   22.6919 C   0  0  0  0  0  0  0  0  0  0  0  0
    9.8897  -18.8912   23.9367 C   0  0  0  0  0  0  0  0  0  0  0  0
   11.2138  -18.5041   24.5008 C   0  0  0  0  0  0  0  0  0  0  0  0
   11.5139  -17.1058   23.9303 C   0  0  1  0  0  0  0  0  0  0  0  0
   12.6146  -17.2070   22.9298 C   0  0  0  0  0  0  0  0  0  0  0  0
   12.4055  -17.3128   21.5661 O   0  0  0  0  0  0  0  0  0  0  0  0
   13.7971  -17.1962   23.3423 O   0  0  0  0  0  0  0  0  0  0  0  0
  2  3  1  0
  2  1  1  0
  3  4  1  6
  5  6  1  1
  5  3  1  0
  7  5  1  0
  8  7  2  0
  9 10  1  0
 11 13  1  0
 11 12  1  6
 11 10  1  0
 13 14  1  1
 14  7  1  0
 15 13  1  0
 15 16  2  0
 17 15  1  0
 18 17  1  0
 19 18  1  0
 20 19  1  0
 20 21  1  0
 21 17  1  0
 21 22  1  6
 22 23  1  0
 24 22  2  0
M  END
$$$$
