IIP.pdb
     RDKit          3D

 24 24  0  0  1  0  0  0  0  0999 V2000
    9.2968  -21.5444   26.6410 C   0  0  0  0  0  0  0  0  0  0  0  0
    8.1561  -20.6636   27.0060 C   0  0  0  0  0  0  0  0  0  0  0  0
    7.8935  -19.5441   26.0046 C   0  0  2  0  0  0  0  0  0  0  0  0
    9.1783  -18.7603   25.8350 C   0  0  0  0  0  0  0  0  0  0  0  0
    6.8366  -18.6067   26.5694 C   0  0  2  0  0  0  0  0  0  0  0  0
    5.5356  -19.3454   26.5188 N   0  0  0  0  0  0  0  0  0  0  0  0
    6.6190  -17.4377   25.7093 C   0  0  0  0  0  0  0  0  0  0  0  0
    6.0883  -17.6048   24.5752 O   0  0  0  0  0  0  0  0  0  0  0  0
    6.6108  -12.1523   27.4152 C   0  0  0  0  0  0  0  0  0  0  0  0
    6.1673  -13.3573   26.5521 C   0  0  0  0  0  0  0  0  0  0  0  0
    7.3785  -13.7522   25.7793 C   0  0  2  0  0  0  0  0  0  0  0  0
    7.6872  -12.6456   24.7754 C   0  0  0  0  0  0  0  0  0  0  0  0
    7.2518  -15.1017   25.0555 C   0  0  2  0  0  0  0  0  0  0  0  0
    6.9591  -16.0920   26.0622 N   0  0  0  0  0  0  0  0  0  0  0  0
    8.2967  -15.3299   24.1002 C   0  0  0  0  0  0  0  0  0  0  0  0
    9.3360  -16.0106   24.5421 O   0  0  0  0  0  0  0  0  0  0  0  0
    8.4483  -14.9692   22.7434 N   0  0  0  0  0  0  0  0  0  0  0  0
    7.7210  -13.8332   22.1045 C   0  0  0  0  0  0  0  0  0  0  0  0
    7.1394  -14.5656   20.9036 C   0  0  0  0  0  0  0  0  0  0  0  0
    8.3175  -15.3476   20.4327 C   0  0  0  0  0  0  0  0  0  0  0  0
    9.2429  -15.4791   21.6563 C   0  0  1  0  0  0  0  0  0  0  0  0
   10.4512  -14.6292   21.4546 C   0  0  0  0  0  0  0  0  0  0  0  0
   11.5711  -15.0405   20.7538 O   0  0  0  0  0  0  0  0  0  0  0  0
   10.4574  -13.4770   21.9455 O   0  0  0  0  0  0  0  0  0  0  0  0
  2  3  1  0
  2  1  1  0
  3  4  1  1
  5  6  1  6
  5  3  1  0
  7  5  1  0
  8  7  2  0
  9 10  1  0
 11 13  1  0
 11 12  1  6
 11 10  1  0
 13 14  1  1
 14  7  1  0
 15 13  1  0
 15 16  2  0
 17 15  1  0
 18 17  1  0
 19 18  1  0
 20 19  1  0
 20 21  1  0
 21 17  1  0
 21 22  1  6
 22 23  1  0
 24 22  2  0
M  END
$$$$
