IIP.pdb
     RDKit          3D

 24 24  0  0  1  0  0  0  0  0999 V2000
    9.3241  -21.3076   27.0734 C   0  0  0  0  0  0  0  0  0  0  0  0
    8.1265  -20.4615   27.3192 C   0  0  0  0  0  0  0  0  0  0  0  0
    7.9081  -19.3783   26.2686 C   0  0  2  0  0  0  0  0  0  0  0  0
    9.1625  -18.5320   26.2044 C   0  0  0  0  0  0  0  0  0  0  0  0
    6.7552  -18.4858   26.7040 C   0  0  2  0  0  0  0  0  0  0  0  0
    5.5063  -19.2997   26.5674 N   0  0  0  0  0  0  0  0  0  0  0  0
    6.5517  -17.3595   25.7854 C   0  0  0  0  0  0  0  0  0  0  0  0
    6.1191  -17.5917   24.6216 O   0  0  0  0  0  0  0  0  0  0  0  0
    6.4441  -11.9919   27.3187 C   0  0  0  0  0  0  0  0  0  0  0  0
    6.0408  -13.2408   26.4993 C   0  0  0  0  0  0  0  0  0  0  0  0
    7.2830  -13.6641   25.7938 C   0  0  2  0  0  0  0  0  0  0  0  0
    7.6466  -12.5862   24.7771 C   0  0  0  0  0  0  0  0  0  0  0  0
    7.1789  -15.0311   25.0999 C   0  0  2  0  0  0  0  0  0  0  0  0
    6.8009  -15.9873   26.1112 N   0  0  0  0  0  0  0  0  0  0  0  0
    8.2804  -15.3044   24.2233 C   0  0  0  0  0  0  0  0  0  0  0  0
    9.2951  -15.9491   24.7649 O   0  0  0  0  0  0  0  0  0  0  0  0
    8.5110  -15.0208   22.8593 N   0  0  0  0  0  0  0  0  0  0  0  0
    7.8859  -13.8740   22.1369 C   0  0  0  0  0  0  0  0  0  0  0  0
    7.3081  -14.6265   20.9465 C   0  0  0  0  0  0  0  0  0  0  0  0
    8.4515  -15.5031   20.5650 C   0  0  0  0  0  0  0  0  0  0  0  0
    9.3150  -15.6324   21.8333 C   0  0  1  0  0  0  0  0  0  0  0  0
   10.5832  -14.8709   21.6463 C   0  0  0  0  0  0  0  0  0  0  0  0
   10.8825  -13.7003   22.3204 O   0  0  0  0  0  0  0  0  0  0  0  0
   11.4283  -15.3120   20.8341 O   0  0  0  0  0  0  0  0  0  0  0  0
  2  3  1  0
  2  1  1  0
  3  4  1  1
  5  6  1  6
  5  3  1  0
  7  5  1  0
  8  7  2  0
  9 10  1  0
 11 13  1  0
 11 12  1  6
 11 10  1  0
 13 14  1  1
 14  7  1  0
 15 13  1  0
 15 16  2  0
 17 15  1  0
 18 17  1  0
 19 18  1  0
 20 19  1  0
 20 21  1  0
 21 17  1  0
 21 22  1  6
 22 23  1  0
 24 22  2  0
M  END
$$$$
