IIP.pdb
     RDKit          3D

 24 24  0  0  1  0  0  0  0  0999 V2000
    8.9298  -21.3713   27.1903 C   0  0  0  0  0  0  0  0  0  0  0  0
    7.7486  -20.4776   27.3197 C   0  0  0  0  0  0  0  0  0  0  0  0
    7.6666  -19.4007   26.2434 C   0  0  2  0  0  0  0  0  0  0  0  0
    8.9128  -18.5458   26.3442 C   0  0  0  0  0  0  0  0  0  0  0  0
    6.4598  -18.5146   26.5148 C   0  0  2  0  0  0  0  0  0  0  0  0
    5.2485  -19.3142   26.1486 N   0  0  0  0  0  0  0  0  0  0  0  0
    6.4114  -17.3569   25.6141 C   0  0  0  0  0  0  0  0  0  0  0  0
    6.1137  -17.5402   24.4002 O   0  0  0  0  0  0  0  0  0  0  0  0
    6.3367  -12.0524   27.3719 C   0  0  0  0  0  0  0  0  0  0  0  0
    5.9454  -13.2660   26.4957 C   0  0  0  0  0  0  0  0  0  0  0  0
    7.2046  -13.6798   25.8151 C   0  0  2  0  0  0  0  0  0  0  0  0
    7.6215  -12.5644   24.8612 C   0  0  0  0  0  0  0  0  0  0  0  0
    7.1025  -15.0124   25.0570 C   0  0  2  0  0  0  0  0  0  0  0  0
    6.6713  -16.0053   26.0099 N   0  0  0  0  0  0  0  0  0  0  0  0
    8.2306  -15.2672   24.2090 C   0  0  0  0  0  0  0  0  0  0  0  0
    9.2435  -15.8910   24.7779 O   0  0  0  0  0  0  0  0  0  0  0  0
    8.4898  -14.9830   22.8503 N   0  0  0  0  0  0  0  0  0  0  0  0
    7.8290  -13.8769   22.0971 C   0  0  0  0  0  0  0  0  0  0  0  0
    7.3303  -14.6686   20.8965 C   0  0  0  0  0  0  0  0  0  0  0  0
    8.5299  -15.4867   20.5602 C   0  0  0  0  0  0  0  0  0  0  0  0
    9.3576  -15.5596   21.8565 C   0  0  1  0  0  0  0  0  0  0  0  0
   10.5894  -14.7338   21.7024 C   0  0  0  0  0  0  0  0  0  0  0  0
   11.7453  -15.1857   21.0907 O   0  0  0  0  0  0  0  0  0  0  0  0
   10.5821  -13.5643   22.1503 O   0  0  0  0  0  0  0  0  0  0  0  0
  2  3  1  0
  2  1  1  0
  3  4  1  1
  5  6  1  6
  5  3  1  0
  7  5  1  0
  8  7  2  0
  9 10  1  0
 11 13  1  0
 11 12  1  6
 11 10  1  0
 13 14  1  1
 14  7  1  0
 15 13  1  0
 15 16  2  0
 17 15  1  0
 18 17  1  0
 19 18  1  0
 20 19  1  0
 20 21  1  0
 21 17  1  0
 21 22  1  6
 22 23  1  0
 24 22  2  0
M  END
$$$$
