IIP.pdb
     RDKit          3D

 24 24  0  0  1  0  0  0  0  0999 V2000
    7.9878  -11.9273   19.8977 C   0  0  0  0  0  0  0  0  0  0  0  0
    7.5172  -13.2923   20.2526 C   0  0  0  0  0  0  0  0  0  0  0  0
    8.5927  -14.3670   20.1375 C   0  0  2  0  0  0  0  0  0  0  0  0
    9.0155  -14.4490   18.6855 C   0  0  0  0  0  0  0  0  0  0  0  0
    8.0005  -15.7106   20.5360 C   0  0  2  0  0  0  0  0  0  0  0  0
    6.7390  -15.8754   19.7470 N   0  0  0  0  0  0  0  0  0  0  0  0
    7.5537  -15.7242   21.9339 C   0  0  0  0  0  0  0  0  0  0  0  0
    6.4743  -15.1414   22.2352 O   0  0  0  0  0  0  0  0  0  0  0  0
    6.4547  -19.7357   24.7369 C   0  0  0  0  0  0  0  0  0  0  0  0
    6.4932  -18.3130   24.1299 C   0  0  0  0  0  0  0  0  0  0  0  0
    7.5047  -17.5715   24.9344 C   0  0  2  0  0  0  0  0  0  0  0  0
    6.9840  -17.4504   26.3634 C   0  0  0  0  0  0  0  0  0  0  0  0
    7.8548  -16.1818   24.3802 C   0  0  2  0  0  0  0  0  0  0  0  0
    8.2529  -16.3660   23.0064 N   0  0  0  0  0  0  0  0  0  0  0  0
    8.6701  -15.4080   25.2709 C   0  0  0  0  0  0  0  0  0  0  0  0
    9.9724  -15.5317   25.1058 O   0  0  0  0  0  0  0  0  0  0  0  0
    8.3597  -14.5125   26.3176 N   0  0  0  0  0  0  0  0  0  0  0  0
    6.9657  -14.1859   26.7392 C   0  0  0  0  0  0  0  0  0  0  0  0
    7.0479  -12.6670   26.6840 C   0  0  0  0  0  0  0  0  0  0  0  0
    8.3492  -12.4143   27.3652 C   0  0  0  0  0  0  0  0  0  0  0  0
    9.1510  -13.7212   27.2237 C   0  0  1  0  0  0  0  0  0  0  0  0
    9.2415  -14.3908   28.5527 C   0  0  0  0  0  0  0  0  0  0  0  0
   10.1282  -14.0116   29.5449 O   0  0  0  0  0  0  0  0  0  0  0  0
    8.4733  -15.3514   28.7890 O   0  0  0  0  0  0  0  0  0  0  0  0
  2  3  1  0
  2  1  1  0
  3  4  1  6
  5  6  1  6
  5  3  1  0
  7  5  1  0
  8  7  2  0
  9 10  1  0
 11 13  1  0
 11 12  1  1
 11 10  1  0
 13 14  1  6
 14  7  1  0
 15 13  1  0
 15 16  2  0
 17 15  1  0
 18 17  1  0
 19 18  1  0
 20 19  1  0
 20 21  1  0
 21 17  1  0
 21 22  1  1
 22 23  1  0
 24 22  2  0
M  END
$$$$
