RYN.pdb
     RDKit          3D

 32 32  0  0  1  0  0  0  0  0999 V2000
   23.7047  -26.2738  -13.8661 N   0  0  0  0  0  0  0  0  0  0  0  0
   23.2983  -26.2845  -15.2272 C   0  0  0  0  0  0  0  0  0  0  0  0
   23.3548  -27.3909  -15.8760 N   0  0  0  0  0  0  0  0  0  0  0  0
   22.8294  -25.1281  -15.8967 N   0  0  0  0  0  0  0  0  0  0  0  0
   22.9257  -23.8236  -15.3486 C   0  0  0  0  0  0  0  0  0  0  0  0
   24.2357  -23.4380  -14.7506 C   0  0  0  0  0  0  0  0  0  0  0  0
   24.1886  -22.0877  -14.1293 C   0  0  0  0  0  0  0  0  0  0  0  0
   23.7216  -21.0210  -15.1118 C   0  0  2  0  0  0  0  0  0  0  0  0
   24.8355  -20.2434  -15.6014 N   0  0  0  0  0  0  0  0  0  0  0  0
   22.6623  -20.1711  -14.5125 C   0  0  0  0  0  0  0  0  0  0  0  0
   23.0025  -19.3564  -13.6173 O   0  0  0  0  0  0  0  0  0  0  0  0
   23.0581  -27.4339  -16.8557 O   0  0  0  0  0  0  0  0  0  0  0  0
   21.9272  -14.0784  -17.3890 C   0  0  0  0  0  0  0  0  0  0  0  0
   21.3464  -15.2502  -16.9138 C   0  0  0  0  0  0  0  0  0  0  0  0
   21.6521  -16.4646  -17.4644 C   0  0  0  0  0  0  0  0  0  0  0  0
   21.0435  -17.6043  -16.9519 C   0  0  0  0  0  0  0  0  0  0  0  0
   20.1515  -17.5723  -15.9209 C   0  0  0  0  0  0  0  0  0  0  0  0
   19.4807  -18.7355  -15.3309 C   0  0  2  0  0  0  0  0  0  0  0  0
   20.2313  -19.4719  -14.2733 N   0  0  0  0  0  0  0  0  0  0  0  0
   21.3110  -20.2568  -14.9192 C   0  0  0  0  0  0  0  0  0  0  0  0
   19.3851  -20.4504  -13.5841 O   0  0  0  0  0  0  0  0  0  0  0  0
   18.4092  -20.0260  -12.8921 C   0  0  0  0  0  0  0  0  0  0  0  0
   19.8711  -16.3066  -15.3915 C   0  0  0  0  0  0  0  0  0  0  0  0
   20.4506  -15.1506  -15.8678 N   0  0  0  0  0  0  0  0  0  0  0  0
   16.8110  -24.3328  -11.5271 C   0  0  0  0  0  0  0  0  0  0  0  0
   17.9131  -23.7963  -10.8423 O   0  0  0  0  0  0  0  0  0  0  0  0
   18.1243  -24.1772   -9.6487 C   0  0  0  0  0  0  0  0  0  0  0  0
   18.8318  -22.8083  -11.4591 C   0  0  2  0  0  0  0  0  0  0  0  0
   18.5674  -22.7392  -12.9632 N   0  0  0  0  0  0  0  0  0  0  0  0
   19.5252  -21.8654  -13.6039 C   0  0  0  0  0  0  0  0  0  0  0  0
   17.1701  -22.4535  -13.2346 O   0  0  0  0  0  0  0  0  0  0  0  0
   16.6879  -21.3290  -13.8627 O   0  0  0  0  0  0  0  0  0  0  0  0
  1  2  1  0
  2  3  2  0
  4  5  1  0
  4  2  1  0
  6  7  1  0
  6  5  1  0
  8 10  1  0
  8  7  1  0
  8  9  1  1
 10 11  2  0
 12 13  1  0
 13 23  2  0
 13 14  1  0
 14 15  2  0
 15 16  1  0
 16 17  1  0
 18 17  1  1
 19 18  1  0
 19 10  1  0
 20 21  2  0
 20 18  1  0
 22 16  2  0
 23 22  1  0
 24 25  1  0
 25 26  2  0
 25 27  1  0
 28 27  1  6
 28 30  1  0
 28 29  1  0
 29 20  1  0
 30 31  1  0
 32 30  2  0
M  END
$$$$
