RYN.pdb
     RDKit          3D

 32 32  0  0  1  0  0  0  0  0999 V2000
   27.6630  -17.3574  -20.1912 N   0  0  0  0  0  0  0  0  0  0  0  0
   27.2466  -17.9473  -21.4145 C   0  0  0  0  0  0  0  0  0  0  0  0
   28.0797  -17.9902  -22.3903 N   0  0  0  0  0  0  0  0  0  0  0  0
   25.9536  -18.4940  -21.6012 N   0  0  0  0  0  0  0  0  0  0  0  0
   24.9674  -18.5154  -20.5822 C   0  0  0  0  0  0  0  0  0  0  0  0
   25.2659  -19.3320  -19.3712 C   0  0  0  0  0  0  0  0  0  0  0  0
   24.5641  -20.6428  -19.3964 C   0  0  0  0  0  0  0  0  0  0  0  0
   23.1556  -20.5496  -18.8232 C   0  0  2  0  0  0  0  0  0  0  0  0
   22.6206  -19.2170  -18.9759 N   0  0  0  0  0  0  0  0  0  0  0  0
   23.1221  -21.0111  -17.4127 C   0  0  0  0  0  0  0  0  0  0  0  0
   23.5568  -22.1644  -17.1639 O   0  0  0  0  0  0  0  0  0  0  0  0
   27.7812  -18.3189  -23.3136 O   0  0  0  0  0  0  0  0  0  0  0  0
   22.7181  -21.0212   -8.5507 C   0  0  0  0  0  0  0  0  0  0  0  0
   22.8532  -20.7313   -9.9049 C   0  0  0  0  0  0  0  0  0  0  0  0
   23.9308  -21.1780  -10.6194 C   0  0  0  0  0  0  0  0  0  0  0  0
   24.0170  -20.8601  -11.9698 C   0  0  0  0  0  0  0  0  0  0  0  0
   23.0750  -20.1207  -12.6222 C   0  0  0  0  0  0  0  0  0  0  0  0
   23.1031  -19.7567  -14.0427 C   0  0  2  0  0  0  0  0  0  0  0  0
   22.4373  -20.7011  -14.9857 N   0  0  0  0  0  0  0  0  0  0  0  0
   22.6238  -20.1989  -16.3684 C   0  0  0  0  0  0  0  0  0  0  0  0
   20.9879  -20.7538  -14.7730 O   0  0  0  0  0  0  0  0  0  0  0  0
   20.2771  -19.7958  -15.2068 C   0  0  0  0  0  0  0  0  0  0  0  0
   21.9917  -19.6866  -11.8482 C   0  0  0  0  0  0  0  0  0  0  0  0
   21.8652  -19.9779  -10.5073 N   0  0  0  0  0  0  0  0  0  0  0  0
   15.8089  -21.5188  -15.0554 C   0  0  0  0  0  0  0  0  0  0  0  0
   16.5977  -22.4890  -14.4166 O   0  0  0  0  0  0  0  0  0  0  0  0
   16.0424  -23.2520  -13.5659 C   0  0  0  0  0  0  0  0  0  0  0  0
   18.0448  -22.6524  -14.6983 C   0  0  1  0  0  0  0  0  0  0  0  0
   18.8427  -21.6656  -13.8459 N   0  0  0  0  0  0  0  0  0  0  0  0
   20.2565  -21.7867  -14.1246 C   0  0  0  0  0  0  0  0  0  0  0  0
   18.4634  -21.7588  -12.4476 O   0  0  0  0  0  0  0  0  0  0  0  0
   17.4442  -21.0599  -11.8440 O   0  0  0  0  0  0  0  0  0  0  0  0
  1  2  1  0
  2  3  2  0
  4  5  1  0
  4  2  1  0
  6  7  1  0
  6  5  1  0
  8 10  1  0
  8  7  1  0
  8  9  1  1
 10 11  2  0
 12 13  1  0
 13 23  2  0
 13 14  1  0
 14 15  2  0
 15 16  1  0
 16 17  1  0
 18 17  1  6
 19 18  1  0
 19 10  1  0
 20 21  2  0
 20 18  1  0
 22 16  2  0
 23 22  1  0
 24 25  1  0
 25 26  2  0
 25 27  1  0
 28 27  1  6
 28 30  1  0
 28 29  1  0
 29 20  1  0
 30 31  1  0
 32 30  2  0
M  END
$$$$
