RYN.pdb
     RDKit          3D

 32 32  0  0  1  0  0  0  0  0999 V2000
   29.9132  -25.5922  -15.8588 N   0  0  0  0  0  0  0  0  0  0  0  0
   29.1419  -25.7007  -17.0468 C   0  0  0  0  0  0  0  0  0  0  0  0
   28.7927  -26.8693  -17.4474 N   0  0  0  0  0  0  0  0  0  0  0  0
   28.7384  -24.5746  -17.8046 N   0  0  0  0  0  0  0  0  0  0  0  0
   28.6693  -23.2639  -17.2671 C   0  0  0  0  0  0  0  0  0  0  0  0
   28.0061  -23.1128  -15.9404 C   0  0  0  0  0  0  0  0  0  0  0  0
   27.8708  -21.6858  -15.5446 C   0  0  0  0  0  0  0  0  0  0  0  0
   27.1262  -20.8686  -16.5929 C   0  0  2  0  0  0  0  0  0  0  0  0
   28.0339  -20.3570  -17.5927 N   0  0  0  0  0  0  0  0  0  0  0  0
   26.3230  -19.7932  -15.9591 C   0  0  0  0  0  0  0  0  0  0  0  0
   26.9102  -19.0148  -15.1653 O   0  0  0  0  0  0  0  0  0  0  0  0
   28.3160  -26.9889  -18.3464 O   0  0  0  0  0  0  0  0  0  0  0  0
   28.4430  -14.1902  -17.4249 C   0  0  0  0  0  0  0  0  0  0  0  0
   27.3395  -15.0173  -17.2395 C   0  0  0  0  0  0  0  0  0  0  0  0
   27.0470  -16.0157  -18.1276 C   0  0  0  0  0  0  0  0  0  0  0  0
   25.9327  -16.8133  -17.8953 C   0  0  0  0  0  0  0  0  0  0  0  0
   25.1112  -16.6494  -16.8191 C   0  0  0  0  0  0  0  0  0  0  0  0
   23.9267  -17.4585  -16.5134 C   0  0  2  0  0  0  0  0  0  0  0  0
   24.1206  -18.5902  -15.5615 N   0  0  0  0  0  0  0  0  0  0  0  0
   24.9439  -19.6301  -16.2245 C   0  0  0  0  0  0  0  0  0  0  0  0
   22.8522  -19.2422  -15.2228 O   0  0  0  0  0  0  0  0  0  0  0  0
   22.7925  -20.5094  -15.2655 C   0  0  0  0  0  0  0  0  0  0  0  0
   25.4519  -15.6145  -15.9394 C   0  0  0  0  0  0  0  0  0  0  0  0
   26.5467  -14.7997  -16.1301 N   0  0  0  0  0  0  0  0  0  0  0  0
   18.3824  -21.0176  -13.7296 C   0  0  0  0  0  0  0  0  0  0  0  0
   19.5671  -21.1025  -12.9808 O   0  0  0  0  0  0  0  0  0  0  0  0
   19.5934  -21.8874  -11.9820 C   0  0  0  0  0  0  0  0  0  0  0  0
   20.7789  -20.3140  -13.3128 C   0  0  1  0  0  0  0  0  0  0  0  0
   20.4639  -19.3596  -14.4646 N   0  0  0  0  0  0  0  0  0  0  0  0
   21.6422  -18.6058  -14.8315 C   0  0  0  0  0  0  0  0  0  0  0  0
   19.2744  -18.5764  -14.1826 O   0  0  0  0  0  0  0  0  0  0  0  0
   17.9908  -18.9052  -14.5509 O   0  0  0  0  0  0  0  0  0  0  0  0
  1  2  1  0
  2  3  2  0
  4  5  1  0
  4  2  1  0
  6  7  1  0
  6  5  1  0
  8 10  1  0
  8  7  1  0
  8  9  1  6
 10 11  2  0
 12 13  1  0
 13 23  2  0
 13 14  1  0
 14 15  2  0
 15 16  1  0
 16 17  1  0
 18 17  1  1
 19 18  1  0
 19 10  1  0
 20 21  2  0
 20 18  1  0
 22 16  2  0
 23 22  1  0
 24 25  1  0
 25 26  2  0
 25 27  1  0
 28 27  1  6
 28 30  1  0
 28 29  1  0
 29 20  1  0
 30 31  1  0
 32 30  2  0
M  END
$$$$
