RYN.pdb
     RDKit          3D

 32 32  0  0  1  0  0  0  0  0999 V2000
   29.0555  -20.5929  -20.7864 N   0  0  0  0  0  0  0  0  0  0  0  0
   29.1390  -21.3753  -19.6037 C   0  0  0  0  0  0  0  0  0  0  0  0
   29.1600  -22.6542  -19.7139 N   0  0  0  0  0  0  0  0  0  0  0  0
   29.2048  -20.8043  -18.3095 N   0  0  0  0  0  0  0  0  0  0  0  0
   29.4189  -21.5702  -17.1352 C   0  0  0  0  0  0  0  0  0  0  0  0
   28.2713  -22.3836  -16.6415 C   0  0  0  0  0  0  0  0  0  0  0  0
   27.7246  -21.8571  -15.3627 C   0  0  0  0  0  0  0  0  0  0  0  0
   26.2991  -21.3424  -15.5177 C   0  0  2  0  0  0  0  0  0  0  0  0
   26.2878  -19.9329  -15.8317 N   0  0  0  0  0  0  0  0  0  0  0  0
   25.4846  -21.6581  -14.3176 C   0  0  0  0  0  0  0  0  0  0  0  0
   25.3752  -22.8659  -13.9858 O   0  0  0  0  0  0  0  0  0  0  0  0
   29.1529  -23.2474  -18.8785 O   0  0  0  0  0  0  0  0  0  0  0  0
   29.2730  -21.3103   -8.5045 C   0  0  0  0  0  0  0  0  0  0  0  0
   28.1145  -21.0180   -9.2176 C   0  0  0  0  0  0  0  0  0  0  0  0
   28.0203  -21.2888  -10.5551 C   0  0  0  0  0  0  0  0  0  0  0  0
   26.8401  -20.9768  -11.2199 C   0  0  0  0  0  0  0  0  0  0  0  0
   25.7645  -20.4109  -10.6014 C   0  0  0  0  0  0  0  0  0  0  0  0
   24.4916  -20.0639  -11.2420 C   0  0  2  0  0  0  0  0  0  0  0  0
   24.0392  -20.9534  -12.3503 N   0  0  0  0  0  0  0  0  0  0  0  0
   24.8452  -20.6517  -13.5579 C   0  0  0  0  0  0  0  0  0  0  0  0
   22.6464  -20.6930  -12.7256 O   0  0  0  0  0  0  0  0  0  0  0  0
   22.4187  -19.9678  -13.7422 C   0  0  0  0  0  0  0  0  0  0  0  0
   25.9097  -20.1526   -9.2328 C   0  0  0  0  0  0  0  0  0  0  0  0
   27.0606  -20.4451   -8.5336 N   0  0  0  0  0  0  0  0  0  0  0  0
   18.7544  -20.9557  -15.0556 C   0  0  0  0  0  0  0  0  0  0  0  0
   19.6841  -22.0064  -15.1124 O   0  0  0  0  0  0  0  0  0  0  0  0
   19.8180  -22.6334  -16.2094 C   0  0  0  0  0  0  0  0  0  0  0  0
   20.5082  -22.4063  -13.9458 C   0  0  2  0  0  0  0  0  0  0  0  0
   20.2527  -21.4406  -12.7886 N   0  0  0  0  0  0  0  0  0  0  0  0
   21.4804  -21.1771  -12.0712 C   0  0  0  0  0  0  0  0  0  0  0  0
   19.1298  -21.8805  -11.9804 O   0  0  0  0  0  0  0  0  0  0  0  0
   19.1503  -22.9126  -11.0716 O   0  0  0  0  0  0  0  0  0  0  0  0
  1  2  1  0
  2  3  2  0
  4  5  1  0
  4  2  1  0
  6  7  1  0
  6  5  1  0
  8 10  1  0
  8  7  1  0
  8  9  1  1
 10 11  2  0
 12 13  1  0
 13 23  2  0
 13 14  1  0
 14 15  2  0
 15 16  1  0
 16 17  1  0
 18 17  1  1
 19 18  1  0
 19 10  1  0
 20 21  2  0
 20 18  1  0
 22 16  2  0
 23 22  1  0
 24 25  1  0
 25 26  2  0
 25 27  1  0
 28 27  1  6
 28 30  1  0
 28 29  1  0
 29 20  1  0
 30 31  1  0
 32 30  2  0
M  END
$$$$
