RYN.pdb
     RDKit          3D

 32 32  0  0  1  0  0  0  0  0999 V2000
   31.5864  -24.0931  -16.6821 N   0  0  0  0  0  0  0  0  0  0  0  0
   30.6313  -25.1022  -16.9774 C   0  0  0  0  0  0  0  0  0  0  0  0
   30.7944  -26.2697  -16.4689 N   0  0  0  0  0  0  0  0  0  0  0  0
   29.5051  -24.8735  -17.8049 N   0  0  0  0  0  0  0  0  0  0  0  0
   29.1628  -23.5933  -18.3104 C   0  0  0  0  0  0  0  0  0  0  0  0
   28.8102  -22.5452  -17.3106 C   0  0  0  0  0  0  0  0  0  0  0  0
   27.3459  -22.4867  -17.0577 C   0  0  0  0  0  0  0  0  0  0  0  0
   26.8627  -23.6606  -16.2153 C   0  0  2  0  0  0  0  0  0  0  0  0
   26.6276  -24.8256  -17.0356 N   0  0  0  0  0  0  0  0  0  0  0  0
   25.6704  -23.2868  -15.4139 C   0  0  0  0  0  0  0  0  0  0  0  0
   24.5402  -23.6082  -15.8616 O   0  0  0  0  0  0  0  0  0  0  0  0
   30.1707  -27.0403  -16.7275 O   0  0  0  0  0  0  0  0  0  0  0  0
   21.3677  -19.5894   -8.3825 C   0  0  0  0  0  0  0  0  0  0  0  0
   22.2464  -20.1801   -9.2853 C   0  0  0  0  0  0  0  0  0  0  0  0
   21.8490  -21.2182  -10.0826 C   0  0  0  0  0  0  0  0  0  0  0  0
   22.7667  -21.7723  -10.9674 C   0  0  0  0  0  0  0  0  0  0  0  0
   24.0516  -21.3298  -11.0812 C   0  0  0  0  0  0  0  0  0  0  0  0
   25.0649  -21.8650  -11.9967 C   0  0  1  0  0  0  0  0  0  0  0  0
   24.5965  -22.2436  -13.3611 N   0  0  0  0  0  0  0  0  0  0  0  0
   25.7777  -22.5940  -14.1863 C   0  0  0  0  0  0  0  0  0  0  0  0
   23.9499  -21.1212  -14.0473 O   0  0  0  0  0  0  0  0  0  0  0  0
   24.6555  -20.1119  -14.3547 C   0  0  0  0  0  0  0  0  0  0  0  0
   24.4105  -20.2661  -10.2442 C   0  0  0  0  0  0  0  0  0  0  0  0
   23.5342  -19.6864   -9.3526 N   0  0  0  0  0  0  0  0  0  0  0  0
   20.9693  -17.4242  -15.8690 C   0  0  0  0  0  0  0  0  0  0  0  0
   21.5418  -18.3198  -16.7863 O   0  0  0  0  0  0  0  0  0  0  0  0
   21.5673  -17.9910  -18.0133 C   0  0  0  0  0  0  0  0  0  0  0  0
   22.1131  -19.6257  -16.3758 C   0  0  2  0  0  0  0  0  0  0  0  0
   21.9928  -19.7785  -14.8595 N   0  0  0  0  0  0  0  0  0  0  0  0
   22.5836  -21.0266  -14.4300 C   0  0  0  0  0  0  0  0  0  0  0  0
   20.6310  -19.5380  -14.4175 O   0  0  0  0  0  0  0  0  0  0  0  0
   20.1021  -18.3155  -14.0753 O   0  0  0  0  0  0  0  0  0  0  0  0
  1  2  1  0
  2  3  2  0
  4  5  1  0
  4  2  1  0
  6  7  1  0
  6  5  1  0
  8 10  1  0
  8  7  1  0
  8  9  1  6
 10 11  2  0
 12 13  1  0
 13 23  2  0
 13 14  1  0
 14 15  2  0
 15 16  1  0
 16 17  1  0
 18 17  1  1
 19 18  1  0
 19 10  1  0
 20 21  2  0
 20 18  1  0
 22 16  2  0
 23 22  1  0
 24 25  1  0
 25 26  2  0
 25 27  1  0
 28 27  1  1
 28 30  1  0
 28 29  1  0
 29 20  1  0
 30 31  1  0
 32 30  2  0
M  END
$$$$
