RYN.pdb
     RDKit          3D

 32 32  0  0  1  0  0  0  0  0999 V2000
   38.5069  -14.9613  -20.0166 N   0  0  0  0  0  0  0  0  0  0  0  0
   38.0036  -16.2582  -20.3042 C   0  0  0  0  0  0  0  0  0  0  0  0
   38.7620  -17.2721  -20.0916 N   0  0  0  0  0  0  0  0  0  0  0  0
   36.6999  -16.4800  -20.8108 N   0  0  0  0  0  0  0  0  0  0  0  0
   35.8361  -15.4292  -21.2124 C   0  0  0  0  0  0  0  0  0  0  0  0
   35.4836  -14.4135  -20.1796 C   0  0  0  0  0  0  0  0  0  0  0  0
   34.1249  -14.6381  -19.6185 C   0  0  0  0  0  0  0  0  0  0  0  0
   33.0604  -13.8367  -20.3572 C   0  0  2  0  0  0  0  0  0  0  0  0
   33.4758  -12.4656  -20.5382 N   0  0  0  0  0  0  0  0  0  0  0  0
   31.7457  -13.9410  -19.6758 C   0  0  0  0  0  0  0  0  0  0  0  0
   31.2820  -15.0918  -19.4719 O   0  0  0  0  0  0  0  0  0  0  0  0
   38.4378  -18.2183  -20.3134 O   0  0  0  0  0  0  0  0  0  0  0  0
   32.7287   -7.3197  -17.1325 C   0  0  0  0  0  0  0  0  0  0  0  0
   32.0138   -8.5135  -17.1388 C   0  0  0  0  0  0  0  0  0  0  0  0
   30.6510   -8.5209  -17.2564 C   0  0  0  0  0  0  0  0  0  0  0  0
   29.9856   -9.7412  -17.2572 C   0  0  0  0  0  0  0  0  0  0  0  0
   30.6277  -10.9392  -17.1461 C   0  0  0  0  0  0  0  0  0  0  0  0
   29.9871  -12.2587  -17.1466 C   0  0  1  0  0  0  0  0  0  0  0  0
   29.7656  -12.8911  -18.4789 N   0  0  0  0  0  0  0  0  0  0  0  0
   31.0222  -12.7995  -19.2608 C   0  0  0  0  0  0  0  0  0  0  0  0
   28.7555  -12.1738  -19.2626 O   0  0  0  0  0  0  0  0  0  0  0  0
   27.5863  -12.0583  -18.7822 C   0  0  0  0  0  0  0  0  0  0  0  0
   32.0217  -10.8794  -17.0278 C   0  0  0  0  0  0  0  0  0  0  0  0
   32.7224   -9.6929  -17.0224 N   0  0  0  0  0  0  0  0  0  0  0  0
   28.3966   -8.9873  -19.6503 C   0  0  0  0  0  0  0  0  0  0  0  0
   28.4273   -8.7375  -21.0316 O   0  0  0  0  0  0  0  0  0  0  0  0
   28.6821   -7.5564  -21.4246 C   0  0  0  0  0  0  0  0  0  0  0  0
   28.1747   -9.7961  -22.0395 C   0  0  2  0  0  0  0  0  0  0  0  0
   27.8179  -11.1008  -21.3271 N   0  0  0  0  0  0  0  0  0  0  0  0
   28.9353  -11.5646  -20.5348 C   0  0  0  0  0  0  0  0  0  0  0  0
   27.2572  -12.0657  -22.2557 O   0  0  0  0  0  0  0  0  0  0  0  0
   26.1292  -11.8819  -23.0206 O   0  0  0  0  0  0  0  0  0  0  0  0
  1  2  1  0
  2  3  2  0
  4  5  1  0
  4  2  1  0
  6  7  1  0
  6  5  1  0
  8 10  1  0
  8  7  1  0
  8  9  1  1
 10 11  2  0
 12 13  1  0
 13 23  2  0
 13 14  1  0
 14 15  2  0
 15 16  1  0
 16 17  1  0
 18 17  1  1
 19 18  1  0
 19 10  1  0
 20 21  2  0
 20 18  1  0
 22 16  2  0
 23 22  1  0
 24 25  1  0
 25 26  2  0
 25 27  1  0
 28 27  1  1
 28 30  1  0
 28 29  1  0
 29 20  1  0
 30 31  1  0
 32 30  2  0
M  END
$$$$
