RYN.pdb
     RDKit          3D

 32 32  0  0  1  0  0  0  0  0999 V2000
   47.8891  -11.2289   -4.5500 N   0  0  0  0  0  0  0  0  0  0  0  0
   47.4713  -10.3228   -3.5388 C   0  0  0  0  0  0  0  0  0  0  0  0
   48.2986  -10.0215   -2.6045 N   0  0  0  0  0  0  0  0  0  0  0  0
   46.1832   -9.7348   -3.5207 N   0  0  0  0  0  0  0  0  0  0  0  0
   45.1759  -10.0472   -4.4690 C   0  0  0  0  0  0  0  0  0  0  0  0
   44.8108   -8.9787   -5.4424 C   0  0  0  0  0  0  0  0  0  0  0  0
   43.3483   -8.7094   -5.4514 C   0  0  0  0  0  0  0  0  0  0  0  0
   42.5801   -9.7453   -6.2625 C   0  0  2  0  0  0  0  0  0  0  0  0
   43.4813  -10.5989   -7.0004 N   0  0  0  0  0  0  0  0  0  0  0  0
   41.5743   -9.0964   -7.1405 C   0  0  0  0  0  0  0  0  0  0  0  0
   41.8959   -8.8771   -8.3361 O   0  0  0  0  0  0  0  0  0  0  0  0
   48.0281   -9.3696   -1.8619 O   0  0  0  0  0  0  0  0  0  0  0  0
   37.6451  -13.0164  -11.1690 C   0  0  0  0  0  0  0  0  0  0  0  0
   37.7290  -11.9959  -10.2268 C   0  0  0  0  0  0  0  0  0  0  0  0
   37.6115  -12.2572   -8.8892 C   0  0  0  0  0  0  0  0  0  0  0  0
   37.7030  -11.2011   -7.9901 C   0  0  0  0  0  0  0  0  0  0  0  0
   37.9054   -9.9093   -8.3773 C   0  0  0  0  0  0  0  0  0  0  0  0
   38.0175   -8.7532   -7.4817 C   0  0  2  0  0  0  0  0  0  0  0  0
   39.3090   -8.0081   -7.5141 N   0  0  0  0  0  0  0  0  0  0  0  0
   40.2924   -8.7295   -6.6706 C   0  0  0  0  0  0  0  0  0  0  0  0
   39.1833   -6.6717   -6.9251 O   0  0  0  0  0  0  0  0  0  0  0  0
   39.1737   -6.5660   -5.6602 C   0  0  0  0  0  0  0  0  0  0  0  0
   38.0189   -9.6928   -9.7562 C   0  0  0  0  0  0  0  0  0  0  0  0
   37.9346  -10.7090  -10.6830 N   0  0  0  0  0  0  0  0  0  0  0  0
   40.4696   -2.5232   -4.1670 C   0  0  0  0  0  0  0  0  0  0  0  0
   40.6391   -2.7586   -5.5407 O   0  0  0  0  0  0  0  0  0  0  0  0
   40.9294   -1.7738   -6.2893 C   0  0  0  0  0  0  0  0  0  0  0  0
   40.4924   -4.1060   -6.1433 C   0  0  1  0  0  0  0  0  0  0  0  0
   39.1944   -4.1633   -6.9489 N   0  0  0  0  0  0  0  0  0  0  0  0
   39.0749   -5.4373   -7.6227 C   0  0  0  0  0  0  0  0  0  0  0  0
   39.0491   -2.9877   -7.7883 O   0  0  0  0  0  0  0  0  0  0  0  0
   39.3247   -2.9233   -9.1342 O   0  0  0  0  0  0  0  0  0  0  0  0
  1  2  1  0
  2  3  2  0
  4  5  1  0
  4  2  1  0
  6  7  1  0
  6  5  1  0
  8 10  1  0
  8  7  1  0
  8  9  1  6
 10 11  2  0
 12 13  1  0
 13 23  2  0
 13 14  1  0
 14 15  2  0
 15 16  1  0
 16 17  1  0
 18 17  1  6
 19 18  1  0
 19 10  1  0
 20 21  2  0
 20 18  1  0
 22 16  2  0
 23 22  1  0
 24 25  1  0
 25 26  2  0
 25 27  1  0
 28 27  1  1
 28 30  1  0
 28 29  1  0
 29 20  1  0
 30 31  1  0
 32 30  2  0
M  END
$$$$
