RYN.pdb
     RDKit          3D

 32 32  0  0  1  0  0  0  0  0999 V2000
   23.8384  -19.2323  -20.3295 N   0  0  0  0  0  0  0  0  0  0  0  0
   25.0403  -19.2159  -21.0867 C   0  0  0  0  0  0  0  0  0  0  0  0
   25.0583  -19.8136  -22.2227 N   0  0  0  0  0  0  0  0  0  0  0  0
   26.2170  -18.5646  -20.6435 N   0  0  0  0  0  0  0  0  0  0  0  0
   27.2492  -19.2292  -19.9332 C   0  0  0  0  0  0  0  0  0  0  0  0
   27.6545  -18.6412  -18.6246 C   0  0  0  0  0  0  0  0  0  0  0  0
   26.8554  -19.1890  -17.4964 C   0  0  0  0  0  0  0  0  0  0  0  0
   27.5544  -20.3580  -16.8137 C   0  0  2  0  0  0  0  0  0  0  0  0
   27.9072  -21.3813  -17.7697 N   0  0  0  0  0  0  0  0  0  0  0  0
   26.7351  -20.8904  -15.6962 C   0  0  0  0  0  0  0  0  0  0  0  0
   26.0378  -21.9130  -15.9174 O   0  0  0  0  0  0  0  0  0  0  0  0
   25.9244  -19.8670  -22.7674 O   0  0  0  0  0  0  0  0  0  0  0  0
   23.2907  -21.3773   -7.4499 C   0  0  0  0  0  0  0  0  0  0  0  0
   24.0841  -21.1094   -8.5612 C   0  0  0  0  0  0  0  0  0  0  0  0
   25.3275  -21.6643   -8.6925 C   0  0  0  0  0  0  0  0  0  0  0  0
   26.0789  -21.3636   -9.8226 C   0  0  0  0  0  0  0  0  0  0  0  0
   25.6356  -20.5379  -10.8133 C   0  0  0  0  0  0  0  0  0  0  0  0
   26.3740  -20.1860  -12.0307 C   0  0  1  0  0  0  0  0  0  0  0  0
   25.8841  -20.7876  -13.3044 N   0  0  0  0  0  0  0  0  0  0  0  0
   26.7241  -20.2855  -14.4185 C   0  0  0  0  0  0  0  0  0  0  0  0
   24.5152  -20.3662  -13.6162 O   0  0  0  0  0  0  0  0  0  0  0  0
   24.2898  -19.1312  -13.8038 C   0  0  0  0  0  0  0  0  0  0  0  0
   24.3576  -19.9947  -10.6330 C   0  0  0  0  0  0  0  0  0  0  0  0
   23.5780  -20.2650   -9.5294 N   0  0  0  0  0  0  0  0  0  0  0  0
   22.8482  -20.8551  -17.2909 C   0  0  0  0  0  0  0  0  0  0  0  0
   22.2439  -20.1898  -16.2122 O   0  0  0  0  0  0  0  0  0  0  0  0
   22.4067  -18.9337  -16.1117 C   0  0  0  0  0  0  0  0  0  0  0  0
   21.4286  -20.8968  -15.1945 C   0  0  2  0  0  0  0  0  0  0  0  0
   22.0319  -20.6638  -13.8093 N   0  0  0  0  0  0  0  0  0  0  0  0
   23.3725  -21.2025  -13.7461 C   0  0  0  0  0  0  0  0  0  0  0  0
   21.1241  -21.1021  -12.7646 O   0  0  0  0  0  0  0  0  0  0  0  0
   21.4014  -22.0471  -11.8046 O   0  0  0  0  0  0  0  0  0  0  0  0
  1  2  1  0
  2  3  2  0
  4  5  1  0
  4  2  1  0
  6  7  1  0
  6  5  1  0
  8 10  1  0
  8  7  1  0
  8  9  1  6
 10 11  2  0
 12 13  1  0
 13 23  2  0
 13 14  1  0
 14 15  2  0
 15 16  1  0
 16 17  1  0
 18 17  1  1
 19 18  1  0
 19 10  1  0
 20 21  2  0
 20 18  1  0
 22 16  2  0
 23 22  1  0
 24 25  1  0
 25 26  2  0
 25 27  1  0
 28 27  1  6
 28 30  1  0
 28 29  1  0
 29 20  1  0
 30 31  1  0
 32 30  2  0
M  END
$$$$
