DHK.pdb
     RDKit          3D

 28 28  0  0  1  0  0  0  0  0999 V2000
   10.2801  -17.1506   16.0927 N   0  0  0  0  0  0  0  0  0  0  0  0
    9.8622  -18.0040   17.1701 C   0  0  1  0  0  0  0  0  0  0  0  0
   10.6782  -19.2817   17.0902 C   0  0  0  0  0  0  0  0  0  0  0  0
   10.3828  -20.0508   15.8610 C   0  0  0  0  0  0  0  0  0  0  0  0
   10.8349  -19.7229   14.7191 O   0  0  0  0  0  0  0  0  0  0  0  0
   10.1232  -17.3277   18.4622 C   0  0  0  0  0  0  0  0  0  0  0  0
   11.2155  -16.6775   18.5990 O   0  0  0  0  0  0  0  0  0  0  0  0
    9.5805  -21.1912   15.9036 O   0  0  0  0  0  0  0  0  0  0  0  0
    9.2104  -17.3743   19.5490 N   0  0  0  0  0  0  0  0  0  0  0  0
    9.4727  -16.6173   20.7209 C   0  0  1  0  0  0  0  0  0  0  0  0
    8.4314  -15.6585   21.1504 C   0  0  0  0  0  0  0  0  0  0  0  0
    8.1144  -14.5971   20.2017 C   0  0  0  0  0  0  0  0  0  0  0  0
    8.4468  -13.2676   20.3178 C   0  0  0  0  0  0  0  0  0  0  0  0
    7.9690  -12.6074   19.2320 N   0  0  0  0  0  0  0  0  0  0  0  0
    7.3501  -13.5040   18.4518 C   0  0  0  0  0  0  0  0  0  0  0  0
    7.4433  -14.7029   19.0465 N   0  0  0  0  0  0  0  0  0  0  0  0
    9.7736  -17.5227   21.8999 C   0  0  0  0  0  0  0  0  0  0  0  0
    9.0532  -18.5385   22.1082 O   0  0  0  0  0  0  0  0  0  0  0  0
   10.8367  -17.2841   22.7943 N   0  0  0  0  0  0  0  0  0  0  0  0
   11.1730  -18.2545   23.8646 C   0  0  1  0  0  0  0  0  0  0  0  0
   12.6260  -18.2070   24.1650 C   0  0  0  0  0  0  0  0  0  0  0  0
   13.0271  -19.3196   25.0865 C   0  0  0  0  0  0  0  0  0  0  0  0
   14.5195  -19.3642   25.3333 C   0  0  0  0  0  0  0  0  0  0  0  0
   14.8124  -20.6138   26.1603 C   0  0  0  0  0  0  0  0  0  0  0  0
   16.2499  -20.7746   26.2436 N   0  0  0  0  0  0  0  0  0  0  0  0
   10.3292  -18.0100   25.0373 C   0  0  0  0  0  0  0  0  0  0  0  0
   10.3299  -18.8865   25.9747 O   0  0  0  0  0  0  0  0  0  0  0  0
    9.5414  -16.9071   25.1982 O   0  0  0  0  0  0  0  0  0  0  0  0
  2  6  1  0
  2  1  1  6
  3  4  1  0
  3  2  1  0
  4  5  2  0
  6  7  2  0
  8  4  1  0
  9 10  1  0
  9  6  1  0
 11 12  1  0
 10 11  1  1
 12 16  1  0
 13 12  2  0
 13 14  1  0
 14 15  1  0
 16 15  2  0
 17 18  2  0
 17 10  1  0
 19 17  1  0
 20 19  1  0
 20 26  1  0
 20 21  1  1
 22 23  1  0
 22 21  1  0
 24 23  1  0
 24 25  1  0
 26 27  2  0
 26 28  1  0
M  END
$$$$
