DHK.pdb
     RDKit          3D

 28 28  0  0  1  0  0  0  0  0999 V2000
   13.0534  -15.1196   18.0760 N   0  0  0  0  0  0  0  0  0  0  0  0
   12.8216  -16.0186   19.1723 C   0  0  1  0  0  0  0  0  0  0  0  0
   14.1591  -16.2905   19.8371 C   0  0  0  0  0  0  0  0  0  0  0  0
   15.0393  -17.1242   18.9885 C   0  0  0  0  0  0  0  0  0  0  0  0
   14.5898  -17.9872   18.1707 O   0  0  0  0  0  0  0  0  0  0  0  0
   11.9038  -15.3809   20.1449 C   0  0  0  0  0  0  0  0  0  0  0  0
   12.2904  -14.3170   20.7394 O   0  0  0  0  0  0  0  0  0  0  0  0
   16.4270  -16.9957   19.0505 O   0  0  0  0  0  0  0  0  0  0  0  0
   10.6172  -15.9044   20.4404 N   0  0  0  0  0  0  0  0  0  0  0  0
    9.7642  -15.2097   21.3376 C   0  0  1  0  0  0  0  0  0  0  0  0
    8.3524  -15.0407   20.9301 C   0  0  0  0  0  0  0  0  0  0  0  0
    8.1348  -14.3590   19.6593 C   0  0  0  0  0  0  0  0  0  0  0  0
    8.0265  -13.0017   19.4651 C   0  0  0  0  0  0  0  0  0  0  0  0
    7.8258  -12.7703   18.1425 N   0  0  0  0  0  0  0  0  0  0  0  0
    7.8085  -13.9571   17.5208 C   0  0  0  0  0  0  0  0  0  0  0  0
    7.9959  -14.9105   18.4458 N   0  0  0  0  0  0  0  0  0  0  0  0
    9.7690  -15.8587   22.7085 C   0  0  0  0  0  0  0  0  0  0  0  0
    9.9086  -17.1096   22.8078 O   0  0  0  0  0  0  0  0  0  0  0  0
    9.6218  -15.1234   23.9021 N   0  0  0  0  0  0  0  0  0  0  0  0
    9.7588  -15.7746   25.2278 C   0  0  1  0  0  0  0  0  0  0  0  0
    9.8675  -14.7500   26.2964 C   0  0  0  0  0  0  0  0  0  0  0  0
   10.2009  -15.3757   27.6174 C   0  0  0  0  0  0  0  0  0  0  0  0
   10.2861  -14.3627   28.7385 C   0  0  0  0  0  0  0  0  0  0  0  0
   10.6553  -15.1171   30.0137 C   0  0  0  0  0  0  0  0  0  0  0  0
   10.6069  -14.1843   31.1213 N   0  0  0  0  0  0  0  0  0  0  0  0
    8.6533  -16.7141   25.4342 C   0  0  0  0  0  0  0  0  0  0  0  0
    7.5495  -16.4919   24.8184 O   0  0  0  0  0  0  0  0  0  0  0  0
    8.7221  -17.8135   26.2401 O   0  0  0  0  0  0  0  0  0  0  0  0
  2  6  1  0
  2  1  1  6
  3  4  1  0
  3  2  1  0
  4  5  2  0
  6  7  2  0
  8  4  1  0
  9 10  1  0
  9  6  1  0
 11 12  1  0
 10 11  1  6
 12 16  1  0
 13 12  2  0
 13 14  1  0
 14 15  1  0
 16 15  2  0
 17 18  2  0
 17 10  1  0
 19 17  1  0
 20 19  1  0
 20 26  1  0
 20 21  1  1
 22 23  1  0
 22 21  1  0
 24 23  1  0
 24 25  1  0
 26 27  2  0
 26 28  1  0
M  END
$$$$
