DHK.pdb
     RDKit          3D

 28 28  0  0  1  0  0  0  0  0999 V2000
    9.4075  -18.7408   18.7028 N   0  0  0  0  0  0  0  0  0  0  0  0
   10.6014  -17.9418   18.7053 C   0  0  1  0  0  0  0  0  0  0  0  0
   10.7567  -17.3394   17.3205 C   0  0  0  0  0  0  0  0  0  0  0  0
   10.7401  -18.3737   16.2622 C   0  0  0  0  0  0  0  0  0  0  0  0
   11.0723  -19.5819   16.4760 O   0  0  0  0  0  0  0  0  0  0  0  0
   10.4652  -16.8581   19.7062 C   0  0  0  0  0  0  0  0  0  0  0  0
   11.4119  -16.0053   19.8126 O   0  0  0  0  0  0  0  0  0  0  0  0
   10.3511  -18.0612   14.9596 O   0  0  0  0  0  0  0  0  0  0  0  0
    9.3285  -16.7315   20.5479 N   0  0  0  0  0  0  0  0  0  0  0  0
    9.2630  -15.6686   21.4865 C   0  0  1  0  0  0  0  0  0  0  0  0
    8.1109  -14.7469   21.3808 C   0  0  0  0  0  0  0  0  0  0  0  0
    7.8947  -14.1473   20.0690 C   0  0  0  0  0  0  0  0  0  0  0  0
    8.2657  -12.8832   19.6741 C   0  0  0  0  0  0  0  0  0  0  0  0
    7.8839  -12.7054   18.3835 N   0  0  0  0  0  0  0  0  0  0  0  0
    7.2861  -13.8340   17.9779 C   0  0  0  0  0  0  0  0  0  0  0  0
    7.2975  -14.6988   19.0035 N   0  0  0  0  0  0  0  0  0  0  0  0
    9.2987  -16.1933   22.9091 C   0  0  0  0  0  0  0  0  0  0  0  0
    8.2381  -16.6200   23.4451 O   0  0  0  0  0  0  0  0  0  0  0  0
   10.4780  -16.2295   23.6805 N   0  0  0  0  0  0  0  0  0  0  0  0
   10.5983  -17.1220   24.8591 C   0  0  1  0  0  0  0  0  0  0  0  0
   11.2029  -18.4188   24.4637 C   0  0  0  0  0  0  0  0  0  0  0  0
   11.2907  -19.3559   25.6308 C   0  0  0  0  0  0  0  0  0  0  0  0
   12.0593  -20.6191   25.3089 C   0  0  0  0  0  0  0  0  0  0  0  0
   12.0358  -21.5023   26.5542 C   0  0  0  0  0  0  0  0  0  0  0  0
   12.8635  -22.6642   26.3005 N   0  0  0  0  0  0  0  0  0  0  0  0
   11.3360  -16.4381   25.9245 C   0  0  0  0  0  0  0  0  0  0  0  0
   11.0951  -16.7766   27.1387 O   0  0  0  0  0  0  0  0  0  0  0  0
   12.2659  -15.4626   25.7086 O   0  0  0  0  0  0  0  0  0  0  0  0
  2  6  1  0
  2  1  1  6
  3  4  1  0
  3  2  1  0
  4  5  2  0
  6  7  2  0
  8  4  1  0
  9 10  1  0
  9  6  1  0
 11 12  1  0
 10 11  1  1
 12 16  1  0
 13 12  2  0
 13 14  1  0
 14 15  1  0
 16 15  2  0
 17 18  2  0
 17 10  1  0
 19 17  1  0
 20 19  1  0
 20 26  1  0
 20 21  1  6
 22 23  1  0
 22 21  1  0
 24 23  1  0
 24 25  1  0
 26 27  2  0
 26 28  1  0
M  END
$$$$
