DHK.pdb
     RDKit          3D

 28 28  0  0  1  0  0  0  0  0999 V2000
   10.1281  -18.4635   17.0401 N   0  0  0  0  0  0  0  0  0  0  0  0
    9.8887  -18.3633   18.4531 C   0  0  1  0  0  0  0  0  0  0  0  0
   10.4882  -19.5930   19.1113 C   0  0  0  0  0  0  0  0  0  0  0  0
    9.7793  -20.8313   18.7192 C   0  0  0  0  0  0  0  0  0  0  0  0
   10.3844  -21.8646   18.2924 O   0  0  0  0  0  0  0  0  0  0  0  0
   10.5504  -17.1462   18.9784 C   0  0  0  0  0  0  0  0  0  0  0  0
   11.6394  -16.7608   18.4304 O   0  0  0  0  0  0  0  0  0  0  0  0
    8.3897  -20.9199   18.8034 O   0  0  0  0  0  0  0  0  0  0  0  0
   10.0232  -16.3953   20.0623 N   0  0  0  0  0  0  0  0  0  0  0  0
   10.6983  -15.2268   20.5027 C   0  0  1  0  0  0  0  0  0  0  0  0
    9.8637  -14.0513   20.8337 C   0  0  0  0  0  0  0  0  0  0  0  0
    9.0329  -13.5364   19.7512 C   0  0  0  0  0  0  0  0  0  0  0  0
    9.0132  -13.9816   18.4501 C   0  0  0  0  0  0  0  0  0  0  0  0
    8.1094  -13.2438   17.7558 N   0  0  0  0  0  0  0  0  0  0  0  0
    7.5741  -12.3550   18.6036 C   0  0  0  0  0  0  0  0  0  0  0  0
    8.1387  -12.5397   19.8064 N   0  0  0  0  0  0  0  0  0  0  0  0
   11.5702  -15.5215   21.7083 C   0  0  0  0  0  0  0  0  0  0  0  0
   11.0925  -16.1669   22.6828 O   0  0  0  0  0  0  0  0  0  0  0  0
   12.9132  -15.1032   21.8002 N   0  0  0  0  0  0  0  0  0  0  0  0
   13.9190  -15.9050   22.5388 C   0  0  1  0  0  0  0  0  0  0  0  0
   13.9784  -17.2848   21.9946 C   0  0  0  0  0  0  0  0  0  0  0  0
   13.4800  -18.2852   22.9939 C   0  0  0  0  0  0  0  0  0  0  0  0
   13.5328  -19.7057   22.4745 C   0  0  0  0  0  0  0  0  0  0  0  0
   13.0912  -20.6274   23.6087 C   0  0  0  0  0  0  0  0  0  0  0  0
   13.2478  -21.9978   23.1652 N   0  0  0  0  0  0  0  0  0  0  0  0
   15.2123  -15.2166   22.5188 C   0  0  0  0  0  0  0  0  0  0  0  0
   15.5002  -14.5025   21.4921 O   0  0  0  0  0  0  0  0  0  0  0  0
   16.1326  -15.2848   23.5245 O   0  0  0  0  0  0  0  0  0  0  0  0
  2  6  1  0
  2  1  1  6
  3  4  1  0
  3  2  1  0
  4  5  2  0
  6  7  2  0
  8  4  1  0
  9 10  1  0
  9  6  1  0
 11 12  1  0
 10 11  1  1
 12 16  1  0
 13 12  2  0
 13 14  1  0
 14 15  1  0
 16 15  2  0
 17 18  2  0
 17 10  1  0
 19 17  1  0
 20 19  1  0
 20 26  1  0
 20 21  1  6
 22 23  1  0
 22 21  1  0
 24 23  1  0
 24 25  1  0
 26 27  2  0
 26 28  1  0
M  END
$$$$
