DHK.pdb
     RDKit          3D

 28 28  0  0  1  0  0  0  0  0999 V2000
   12.5953  -15.7011   18.0010 N   0  0  0  0  0  0  0  0  0  0  0  0
   13.0411  -15.1932   19.2687 C   0  0  1  0  0  0  0  0  0  0  0  0
   14.0859  -14.1260   18.9968 C   0  0  0  0  0  0  0  0  0  0  0  0
   15.3524  -14.7061   18.4976 C   0  0  0  0  0  0  0  0  0  0  0  0
   15.7202  -15.8920   18.7699 O   0  0  0  0  0  0  0  0  0  0  0  0
   11.8936  -14.5933   19.9887 C   0  0  0  0  0  0  0  0  0  0  0  0
   11.8594  -13.3228   20.1278 O   0  0  0  0  0  0  0  0  0  0  0  0
   16.2134  -13.9622   17.6906 O   0  0  0  0  0  0  0  0  0  0  0  0
   10.8357  -15.3724   20.5274 N   0  0  0  0  0  0  0  0  0  0  0  0
    9.7803  -14.7350   21.2311 C   0  0  1  0  0  0  0  0  0  0  0  0
    8.4228  -14.8460   20.6542 C   0  0  0  0  0  0  0  0  0  0  0  0
    8.2721  -14.3640   19.2860 C   0  0  0  0  0  0  0  0  0  0  0  0
    8.2050  -13.0510   18.8820 C   0  0  0  0  0  0  0  0  0  0  0  0
    8.0621  -13.0222   17.5322 N   0  0  0  0  0  0  0  0  0  0  0  0
    8.0400  -14.2900   17.0992 C   0  0  0  0  0  0  0  0  0  0  0  0
    8.1674  -15.0930   18.1663 N   0  0  0  0  0  0  0  0  0  0  0  0
    9.7079  -15.2222   22.6656 C   0  0  0  0  0  0  0  0  0  0  0  0
   10.6032  -15.9936   23.1100 O   0  0  0  0  0  0  0  0  0  0  0  0
    8.6715  -14.8521   23.5465 N   0  0  0  0  0  0  0  0  0  0  0  0
    8.6434  -15.3384   24.9475 C   0  0  1  0  0  0  0  0  0  0  0  0
    7.3950  -14.8996   25.6203 C   0  0  0  0  0  0  0  0  0  0  0  0
    7.3671  -13.4111   25.7970 C   0  0  0  0  0  0  0  0  0  0  0  0
    6.1069  -12.9276   26.4813 C   0  0  0  0  0  0  0  0  0  0  0  0
    6.1666  -11.4028   26.5325 C   0  0  0  0  0  0  0  0  0  0  0  0
    4.9182  -10.9195   27.0866 N   0  0  0  0  0  0  0  0  0  0  0  0
    8.8362  -16.7908   24.9711 C   0  0  0  0  0  0  0  0  0  0  0  0
    8.4276  -17.4704   23.9621 O   0  0  0  0  0  0  0  0  0  0  0  0
    9.4248  -17.4692   25.9988 O   0  0  0  0  0  0  0  0  0  0  0  0
  2  6  1  0
  2  1  1  6
  3  4  1  0
  3  2  1  0
  4  5  2  0
  6  7  2  0
  8  4  1  0
  9 10  1  0
  9  6  1  0
 11 12  1  0
 10 11  1  6
 12 16  1  0
 13 12  2  0
 13 14  1  0
 14 15  1  0
 16 15  2  0
 17 18  2  0
 17 10  1  0
 19 17  1  0
 20 19  1  0
 20 26  1  0
 20 21  1  6
 22 23  1  0
 22 21  1  0
 24 23  1  0
 24 25  1  0
 26 27  2  0
 26 28  1  0
M  END
$$$$
