CMQ.pdb
     RDKit          3D

 24 23  0  0  1  0  0  0  0  0999 V2000
    7.7998  -12.8003   19.3801 N   0  0  0  0  0  0  0  0  0  0  0  0
    7.3975  -13.9355   20.1821 C   0  0  1  0  0  0  0  0  0  0  0  0
    7.7102  -15.2200   19.4476 C   0  0  0  0  0  0  0  0  0  0  0  0
    7.2764  -16.5862   20.5848 S   0  0  0  0  0  0  0  0  0  0  0  0
    8.0752  -13.8612   21.4926 C   0  0  0  0  0  0  0  0  0  0  0  0
    9.2785  -13.5119   21.5405 O   0  0  0  0  0  0  0  0  0  0  0  0
    6.1077  -10.8453   26.4208 C   0  0  0  0  0  0  0  0  0  0  0  0
    6.6068  -12.3151   27.3979 S   0  0  0  0  0  0  0  0  0  0  0  0
    7.7353  -13.2714   26.3647 C   0  0  0  0  0  0  0  0  0  0  0  0
    7.2735  -13.4299   24.9683 C   0  0  0  0  0  0  0  0  0  0  0  0
    8.1713  -14.1205   24.0119 C   0  0  2  0  0  0  0  0  0  0  0  0
    7.4366  -14.1662   22.7226 N   0  0  0  0  0  0  0  0  0  0  0  0
    8.6392  -15.4530   24.3758 C   0  0  0  0  0  0  0  0  0  0  0  0
    7.8788  -16.4343   24.0930 O   0  0  0  0  0  0  0  0  0  0  0  0
   14.0280  -17.6612   22.9093 N   0  0  0  0  0  0  0  0  0  0  0  0
   13.9204  -16.6243   23.8687 C   0  0  0  0  0  0  0  0  0  0  0  0
   14.9224  -15.8483   23.9638 O   0  0  0  0  0  0  0  0  0  0  0  0
   12.7171  -16.4862   24.6704 C   0  0  0  0  0  0  0  0  0  0  0  0
   11.5512  -17.3214   24.3611 C   0  0  0  0  0  0  0  0  0  0  0  0
   10.3027  -17.1937   25.1464 C   0  0  2  0  0  0  0  0  0  0  0  0
    9.8448  -15.7739   25.0063 N   0  0  0  0  0  0  0  0  0  0  0  0
   10.5015  -17.3721   26.5857 C   0  0  0  0  0  0  0  0  0  0  0  0
   10.3084  -16.4321   27.4362 O   0  0  0  0  0  0  0  0  0  0  0  0
   10.9126  -18.5683   27.1404 O   0  0  0  0  0  0  0  0  0  0  0  0
  2  1  1  6
  3  2  1  0
  3  4  1  0
  5  6  2  0
  5  2  1  0
  7  8  1  0
  9  8  1  0
  9 10  1  0
 11 10  1  1
 11 13  1  0
 11 12  1  0
 12  5  1  0
 13 21  1  0
 14 13  2  0
 16 15  1  0
 16 17  2  0
 18 16  1  0
 20 19  1  6
 19 18  1  0
 20 22  1  0
 21 20  1  0
 22 23  2  0
 22 24  1  0
M  END
$$$$
