CMQ.pdb
     RDKit          3D

 24 23  0  0  1  0  0  0  0  0999 V2000
    6.7686  -16.3688   20.5067 N   0  0  0  0  0  0  0  0  0  0  0  0
    8.2073  -16.2160   20.5320 C   0  0  1  0  0  0  0  0  0  0  0  0
    8.6641  -15.4507   19.3102 C   0  0  0  0  0  0  0  0  0  0  0  0
    7.4065  -15.7451   18.0141 S   0  0  0  0  0  0  0  0  0  0  0  0
    8.5964  -15.5459   21.7896 C   0  0  0  0  0  0  0  0  0  0  0  0
    9.8092  -15.3178   22.0118 O   0  0  0  0  0  0  0  0  0  0  0  0
    6.6826  -10.2489   25.7517 C   0  0  0  0  0  0  0  0  0  0  0  0
    5.9491  -11.8467   26.2742 S   0  0  0  0  0  0  0  0  0  0  0  0
    7.1704  -13.1252   25.9151 C   0  0  0  0  0  0  0  0  0  0  0  0
    7.0797  -13.6651   24.5408 C   0  0  0  0  0  0  0  0  0  0  0  0
    8.1095  -14.6388   24.1056 C   0  0  2  0  0  0  0  0  0  0  0  0
    7.6653  -15.1372   22.7795 N   0  0  0  0  0  0  0  0  0  0  0  0
    8.3931  -15.7568   24.9979 C   0  0  0  0  0  0  0  0  0  0  0  0
    7.4132  -16.4981   25.3319 O   0  0  0  0  0  0  0  0  0  0  0  0
    7.3876  -20.6674   24.8175 N   0  0  0  0  0  0  0  0  0  0  0  0
    8.6445  -20.7511   25.4655 C   0  0  0  0  0  0  0  0  0  0  0  0
    8.7444  -21.6348   26.3735 O   0  0  0  0  0  0  0  0  0  0  0  0
    9.7306  -19.8666   25.0809 C   0  0  0  0  0  0  0  0  0  0  0  0
    9.4740  -18.4268   24.9647 C   0  0  0  0  0  0  0  0  0  0  0  0
    9.9134  -17.4945   26.0275 C   0  0  2  0  0  0  0  0  0  0  0  0
    9.6366  -16.1083   25.5308 N   0  0  0  0  0  0  0  0  0  0  0  0
   11.3588  -17.5172   26.2584 C   0  0  0  0  0  0  0  0  0  0  0  0
   11.9067  -18.2373   27.1669 O   0  0  0  0  0  0  0  0  0  0  0  0
   12.2459  -16.7641   25.5145 O   0  0  0  0  0  0  0  0  0  0  0  0
  2  1  1  6
  3  2  1  0
  3  4  1  0
  5  6  2  0
  5  2  1  0
  7  8  1  0
  9  8  1  0
  9 10  1  0
 11 10  1  1
 11 13  1  0
 11 12  1  0
 12  5  1  0
 13 21  1  0
 14 13  2  0
 16 15  1  0
 16 17  2  0
 18 16  1  0
 20 19  1  6
 19 18  1  0
 20 22  1  0
 21 20  1  0
 22 23  2  0
 22 24  1  0
M  END
$$$$
