CMQ.pdb
     RDKit          3D

 24 23  0  0  1  0  0  0  0  0999 V2000
    8.3555  -13.0315   19.5830 N   0  0  0  0  0  0  0  0  0  0  0  0
    7.2794  -13.4975   20.4309 C   0  0  1  0  0  0  0  0  0  0  0  0
    6.6762  -14.7568   19.8500 C   0  0  0  0  0  0  0  0  0  0  0  0
    7.9496  -16.0614   20.0064 S   0  0  0  0  0  0  0  0  0  0  0  0
    7.8012  -13.7058   21.7971 C   0  0  0  0  0  0  0  0  0  0  0  0
    9.0411  -13.7166   21.9837 O   0  0  0  0  0  0  0  0  0  0  0  0
    7.4921  -10.3423   27.2303 C   0  0  0  0  0  0  0  0  0  0  0  0
    6.4189  -11.8296   27.2135 S   0  0  0  0  0  0  0  0  0  0  0  0
    6.2273  -12.3168   25.4868 C   0  0  0  0  0  0  0  0  0  0  0  0
    6.4748  -13.7549   25.2437 C   0  0  0  0  0  0  0  0  0  0  0  0
    7.5415  -14.1254   24.2830 C   0  0  2  0  0  0  0  0  0  0  0  0
    6.9707  -13.8979   22.9315 N   0  0  0  0  0  0  0  0  0  0  0  0
    8.0916  -15.4725   24.3804 C   0  0  0  0  0  0  0  0  0  0  0  0
    7.3684  -16.4289   23.9519 O   0  0  0  0  0  0  0  0  0  0  0  0
   12.9092  -17.1485   21.6264 N   0  0  0  0  0  0  0  0  0  0  0  0
   12.8160  -18.2846   22.4675 C   0  0  0  0  0  0  0  0  0  0  0  0
   13.6490  -19.2166   22.2379 O   0  0  0  0  0  0  0  0  0  0  0  0
   11.8188  -18.3389   23.5223 C   0  0  0  0  0  0  0  0  0  0  0  0
   10.9619  -17.1716   23.7579 C   0  0  0  0  0  0  0  0  0  0  0  0
    9.8733  -17.2255   24.7597 C   0  0  2  0  0  0  0  0  0  0  0  0
    9.3398  -15.8320   24.8966 N   0  0  0  0  0  0  0  0  0  0  0  0
   10.3381  -17.5715   26.1040 C   0  0  0  0  0  0  0  0  0  0  0  0
   10.5754  -18.7777   26.4687 O   0  0  0  0  0  0  0  0  0  0  0  0
   10.5579  -16.6247   27.0851 O   0  0  0  0  0  0  0  0  0  0  0  0
  2  1  1  6
  3  2  1  0
  3  4  1  0
  5  6  2  0
  5  2  1  0
  7  8  1  0
  9  8  1  0
  9 10  1  0
 11 10  1  1
 11 13  1  0
 11 12  1  0
 12  5  1  0
 13 21  1  0
 14 13  2  0
 16 15  1  0
 16 17  2  0
 18 16  1  0
 20 19  1  6
 19 18  1  0
 20 22  1  0
 21 20  1  0
 22 23  2  0
 22 24  1  0
M  END
$$$$
