CMQ.pdb
     RDKit          3D

 24 23  0  0  1  0  0  0  0  0999 V2000
    9.2269  -15.7052   19.1483 N   0  0  0  0  0  0  0  0  0  0  0  0
    8.3168  -16.1969   20.1602 C   0  0  1  0  0  0  0  0  0  0  0  0
    8.3335  -17.7090   20.1751 C   0  0  0  0  0  0  0  0  0  0  0  0
    7.6610  -18.2506   18.5619 S   0  0  0  0  0  0  0  0  0  0  0  0
    8.6954  -15.6203   21.4665 C   0  0  0  0  0  0  0  0  0  0  0  0
    9.9030  -15.3790   21.7023 O   0  0  0  0  0  0  0  0  0  0  0  0
    7.3593  -11.7797   27.9113 C   0  0  0  0  0  0  0  0  0  0  0  0
    7.1724  -12.0839   26.1123 S   0  0  0  0  0  0  0  0  0  0  0  0
    7.0771  -13.8721   25.8914 C   0  0  0  0  0  0  0  0  0  0  0  0
    6.9771  -14.2921   24.4765 C   0  0  0  0  0  0  0  0  0  0  0  0
    8.1952  -14.8245   23.8202 C   0  0  2  0  0  0  0  0  0  0  0  0
    7.7595  -15.3173   22.4893 N   0  0  0  0  0  0  0  0  0  0  0  0
    8.9368  -15.8625   24.5268 C   0  0  0  0  0  0  0  0  0  0  0  0
    8.4192  -17.0253   24.5633 O   0  0  0  0  0  0  0  0  0  0  0  0
   14.9440  -17.0941   22.9346 N   0  0  0  0  0  0  0  0  0  0  0  0
   14.2139  -16.3729   23.9112 C   0  0  0  0  0  0  0  0  0  0  0  0
   14.8597  -15.4759   24.5386 O   0  0  0  0  0  0  0  0  0  0  0  0
   12.8109  -16.6667   24.1461 C   0  0  0  0  0  0  0  0  0  0  0  0
   12.3119  -16.7200   25.5247 C   0  0  0  0  0  0  0  0  0  0  0  0
   10.8665  -16.8887   25.7973 C   0  0  2  0  0  0  0  0  0  0  0  0
   10.1676  -15.7192   25.1737 N   0  0  0  0  0  0  0  0  0  0  0  0
   10.5296  -16.7989   27.2191 C   0  0  0  0  0  0  0  0  0  0  0  0
    9.9041  -15.7999   27.7237 O   0  0  0  0  0  0  0  0  0  0  0  0
   10.8592  -17.7847   28.1285 O   0  0  0  0  0  0  0  0  0  0  0  0
  2  1  1  6
  3  2  1  0
  3  4  1  0
  5  6  2  0
  5  2  1  0
  7  8  1  0
  9  8  1  0
  9 10  1  0
 11 10  1  1
 11 13  1  0
 11 12  1  0
 12  5  1  0
 13 21  1  0
 14 13  2  0
 16 15  1  0
 16 17  2  0
 18 16  1  0
 20 19  1  1
 19 18  1  0
 20 22  1  0
 21 20  1  0
 22 23  2  0
 22 24  1  0
M  END
$$$$
