CMQ.pdb
     RDKit          3D

 24 23  0  0  1  0  0  0  0  0999 V2000
    8.4725  -15.4767   18.9649 N   0  0  0  0  0  0  0  0  0  0  0  0
    7.8282  -16.0653   20.1192 C   0  0  1  0  0  0  0  0  0  0  0  0
    7.9712  -17.5702   20.0756 C   0  0  0  0  0  0  0  0  0  0  0  0
    7.5423  -18.0824   18.3721 S   0  0  0  0  0  0  0  0  0  0  0  0
    8.4136  -15.4830   21.3441 C   0  0  0  0  0  0  0  0  0  0  0  0
    9.6566  -15.3353   21.4180 O   0  0  0  0  0  0  0  0  0  0  0  0
    6.9215  -11.3884   27.9173 C   0  0  0  0  0  0  0  0  0  0  0  0
    6.2147  -12.2727   26.4742 S   0  0  0  0  0  0  0  0  0  0  0  0
    7.5552  -13.2324   25.7410 C   0  0  0  0  0  0  0  0  0  0  0  0
    7.2285  -13.7904   24.4105 C   0  0  0  0  0  0  0  0  0  0  0  0
    8.2797  -14.5566   23.6994 C   0  0  2  0  0  0  0  0  0  0  0  0
    7.6419  -15.0731   22.4622 N   0  0  0  0  0  0  0  0  0  0  0  0
    8.9249  -15.6427   24.4280 C   0  0  0  0  0  0  0  0  0  0  0  0
    8.3408  -16.7742   24.4237 O   0  0  0  0  0  0  0  0  0  0  0  0
   15.0239  -16.1465   24.3140 N   0  0  0  0  0  0  0  0  0  0  0  0
   14.7090  -17.2675   25.1209 C   0  0  0  0  0  0  0  0  0  0  0  0
   15.6965  -17.9625   25.5173 O   0  0  0  0  0  0  0  0  0  0  0  0
   13.3281  -17.5662   25.4583 C   0  0  0  0  0  0  0  0  0  0  0  0
   12.2734  -16.6318   25.0500 C   0  0  0  0  0  0  0  0  0  0  0  0
   10.8812  -16.8145   25.5193 C   0  0  2  0  0  0  0  0  0  0  0  0
   10.1280  -15.5770   25.1365 N   0  0  0  0  0  0  0  0  0  0  0  0
   10.7635  -16.8765   26.9771 C   0  0  0  0  0  0  0  0  0  0  0  0
   10.2217  -15.9445   27.6713 O   0  0  0  0  0  0  0  0  0  0  0  0
   11.2269  -17.9452   27.7191 O   0  0  0  0  0  0  0  0  0  0  0  0
  2  1  1  6
  3  2  1  0
  3  4  1  0
  5  6  2  0
  5  2  1  0
  7  8  1  0
  9  8  1  0
  9 10  1  0
 11 10  1  1
 11 13  1  0
 11 12  1  0
 12  5  1  0
 13 21  1  0
 14 13  2  0
 16 15  1  0
 16 17  2  0
 18 16  1  0
 20 19  1  1
 19 18  1  0
 20 22  1  0
 21 20  1  0
 22 23  2  0
 22 24  1  0
M  END
$$$$
