CMQ.pdb
     RDKit          3D

 24 23  0  0  1  0  0  0  0  0999 V2000
    8.9740  -16.0650   20.1055 N   0  0  0  0  0  0  0  0  0  0  0  0
    7.9663  -16.0395   21.1437 C   0  0  1  0  0  0  0  0  0  0  0  0
    7.3340  -17.4066   21.2795 C   0  0  0  0  0  0  0  0  0  0  0  0
    8.5705  -18.4695   22.1096 S   0  0  0  0  0  0  0  0  0  0  0  0
    8.5875  -15.5828   22.4037 C   0  0  0  0  0  0  0  0  0  0  0  0
    9.8220  -15.7303   22.5663 O   0  0  0  0  0  0  0  0  0  0  0  0
    5.4454  -11.6077   25.9775 C   0  0  0  0  0  0  0  0  0  0  0  0
    6.8443  -11.6284   27.1635 S   0  0  0  0  0  0  0  0  0  0  0  0
    8.0557  -12.8022   26.5230 C   0  0  0  0  0  0  0  0  0  0  0  0
    7.6000  -13.5289   25.3178 C   0  0  0  0  0  0  0  0  0  0  0  0
    8.5342  -14.4955   24.6925 C   0  0  2  0  0  0  0  0  0  0  0  0
    7.8598  -14.9763   23.4604 N   0  0  0  0  0  0  0  0  0  0  0  0
    8.9711  -15.6253   25.5047 C   0  0  0  0  0  0  0  0  0  0  0  0
    8.1823  -16.6213   25.5885 O   0  0  0  0  0  0  0  0  0  0  0  0
   12.6653  -17.5405   23.7326 N   0  0  0  0  0  0  0  0  0  0  0  0
   12.5008  -18.7385   24.4706 C   0  0  0  0  0  0  0  0  0  0  0  0
   12.7528  -19.8160   23.8455 O   0  0  0  0  0  0  0  0  0  0  0  0
   12.0752  -18.6947   25.8587 C   0  0  0  0  0  0  0  0  0  0  0  0
   11.8741  -17.3929   26.5048 C   0  0  0  0  0  0  0  0  0  0  0  0
   10.5289  -16.9792   26.9645 C   0  0  2  0  0  0  0  0  0  0  0  0
   10.1745  -15.7359   26.2070 N   0  0  0  0  0  0  0  0  0  0  0  0
   10.4958  -16.5716   28.3701 C   0  0  0  0  0  0  0  0  0  0  0  0
   10.7941  -17.3657   29.3316 O   0  0  0  0  0  0  0  0  0  0  0  0
   10.1406  -15.2984   28.7704 O   0  0  0  0  0  0  0  0  0  0  0  0
  2  1  1  6
  3  2  1  0
  3  4  1  0
  5  6  2  0
  5  2  1  0
  7  8  1  0
  9  8  1  0
  9 10  1  0
 11 10  1  1
 11 13  1  0
 11 12  1  0
 12  5  1  0
 13 21  1  0
 14 13  2  0
 16 15  1  0
 16 17  2  0
 18 16  1  0
 20 19  1  6
 19 18  1  0
 20 22  1  0
 21 20  1  0
 22 23  2  0
 22 24  1  0
M  END
$$$$
