CMQ.pdb
     RDKit          3D

 24 23  0  0  1  0  0  0  0  0999 V2000
    9.1185  -15.4603   19.4686 N   0  0  0  0  0  0  0  0  0  0  0  0
    7.9297  -15.4255   20.2929 C   0  0  1  0  0  0  0  0  0  0  0  0
    7.1720  -16.7272   20.1570 C   0  0  0  0  0  0  0  0  0  0  0  0
    8.2928  -18.0442   20.7547 S   0  0  0  0  0  0  0  0  0  0  0  0
    8.3229  -15.1502   21.6900 C   0  0  0  0  0  0  0  0  0  0  0  0
    9.4967  -15.3970   22.0555 O   0  0  0  0  0  0  0  0  0  0  0  0
    7.3789  -11.2565   28.2309 C   0  0  0  0  0  0  0  0  0  0  0  0
    7.0885  -11.4592   26.4313 S   0  0  0  0  0  0  0  0  0  0  0  0
    6.9331  -13.2301   26.1228 C   0  0  0  0  0  0  0  0  0  0  0  0
    6.7958  -13.5745   24.6907 C   0  0  0  0  0  0  0  0  0  0  0  0
    7.8720  -14.3764   24.0609 C   0  0  2  0  0  0  0  0  0  0  0  0
    7.4379  -14.6141   22.6612 N   0  0  0  0  0  0  0  0  0  0  0  0
    8.2297  -15.6368   24.7014 C   0  0  0  0  0  0  0  0  0  0  0  0
    7.4763  -16.6384   24.4764 O   0  0  0  0  0  0  0  0  0  0  0  0
   12.7281  -18.6367   23.2441 N   0  0  0  0  0  0  0  0  0  0  0  0
   13.0363  -17.5873   24.1444 C   0  0  0  0  0  0  0  0  0  0  0  0
   14.1918  -17.0720   24.0235 O   0  0  0  0  0  0  0  0  0  0  0  0
   12.0599  -17.1510   25.1273 C   0  0  0  0  0  0  0  0  0  0  0  0
   10.7256  -17.7608   25.1301 C   0  0  0  0  0  0  0  0  0  0  0  0
    9.6631  -17.2458   26.0233 C   0  0  2  0  0  0  0  0  0  0  0  0
    9.3217  -15.8683   25.5426 N   0  0  0  0  0  0  0  0  0  0  0  0
   10.1096  -17.0499   27.4036 C   0  0  0  0  0  0  0  0  0  0  0  0
   10.5368  -18.0095   28.1390 O   0  0  0  0  0  0  0  0  0  0  0  0
   10.1060  -15.8149   28.0217 O   0  0  0  0  0  0  0  0  0  0  0  0
  2  1  1  6
  3  2  1  0
  3  4  1  0
  5  6  2  0
  5  2  1  0
  7  8  1  0
  9  8  1  0
  9 10  1  0
 11 10  1  1
 11 13  1  0
 11 12  1  0
 12  5  1  0
 13 21  1  0
 14 13  2  0
 16 15  1  0
 16 17  2  0
 18 16  1  0
 20 19  1  6
 19 18  1  0
 20 22  1  0
 21 20  1  0
 22 23  2  0
 22 24  1  0
M  END
$$$$
