CMQ.pdb
     RDKit          3D

 24 23  0  0  1  0  0  0  0  0999 V2000
    7.5241  -17.3926   20.6539 N   0  0  0  0  0  0  0  0  0  0  0  0
    7.0091  -17.3356   22.0050 C   0  0  1  0  0  0  0  0  0  0  0  0
    6.9980  -18.7218   22.6094 C   0  0  0  0  0  0  0  0  0  0  0  0
    6.4311  -18.5290   24.3383 S   0  0  0  0  0  0  0  0  0  0  0  0
    7.8273  -16.3893   22.7905 C   0  0  0  0  0  0  0  0  0  0  0  0
    9.0558  -16.3008   22.5554 O   0  0  0  0  0  0  0  0  0  0  0  0
    5.0046  -11.9381   26.2923 C   0  0  0  0  0  0  0  0  0  0  0  0
    6.6120  -11.7785   27.1611 S   0  0  0  0  0  0  0  0  0  0  0  0
    7.8271  -12.6861   26.1838 C   0  0  0  0  0  0  0  0  0  0  0  0
    7.2396  -13.7586   25.3514 C   0  0  0  0  0  0  0  0  0  0  0  0
    8.1620  -14.6252   24.5792 C   0  0  2  0  0  0  0  0  0  0  0  0
    7.2990  -15.5593   23.8132 N   0  0  0  0  0  0  0  0  0  0  0  0
    9.1697  -15.3660   25.3292 C   0  0  0  0  0  0  0  0  0  0  0  0
    9.9812  -14.6889   26.0394 O   0  0  0  0  0  0  0  0  0  0  0  0
    7.2672  -19.6522   28.8762 N   0  0  0  0  0  0  0  0  0  0  0  0
    8.6541  -19.8413   29.0942 C   0  0  0  0  0  0  0  0  0  0  0  0
    8.9660  -20.6741   30.0023 O   0  0  0  0  0  0  0  0  0  0  0  0
    9.6293  -19.1132   28.3013 C   0  0  0  0  0  0  0  0  0  0  0  0
    9.1615  -18.2151   27.2397 C   0  0  0  0  0  0  0  0  0  0  0  0
   10.1260  -17.4250   26.4413 C   0  0  2  0  0  0  0  0  0  0  0  0
    9.3427  -16.7527   25.3552 N   0  0  0  0  0  0  0  0  0  0  0  0
   11.1030  -18.2500   25.7288 C   0  0  0  0  0  0  0  0  0  0  0  0
   12.1380  -18.7495   26.2976 O   0  0  0  0  0  0  0  0  0  0  0  0
   10.9859  -18.5554   24.3870 O   0  0  0  0  0  0  0  0  0  0  0  0
  2  1  1  6
  3  2  1  0
  3  4  1  0
  5  6  2  0
  5  2  1  0
  7  8  1  0
  9  8  1  0
  9 10  1  0
 11 10  1  1
 11 13  1  0
 11 12  1  0
 12  5  1  0
 13 21  1  0
 14 13  2  0
 16 15  1  0
 16 17  2  0
 18 16  1  0
 20 19  1  6
 19 18  1  0
 20 22  1  0
 21 20  1  0
 22 23  2  0
 22 24  1  0
M  END
$$$$
