KQA.pdb
     RDKit          3D

 24 23  0  0  1  0  0  0  0  0999 V2000
   26.1124  -25.6304  -16.0403 N   0  0  0  0  0  0  0  0  0  0  0  0
   26.8337  -25.9973  -17.2442 C   0  0  1  0  0  0  0  0  0  0  0  0
   27.3034  -24.7333  -17.8839 C   0  0  0  0  0  0  0  0  0  0  0  0
   26.2107  -23.8383  -18.3849 C   0  0  0  0  0  0  0  0  0  0  0  0
   26.8167  -22.5703  -18.9710 C   0  0  0  0  0  0  0  0  0  0  0  0
   25.6987  -21.7383  -19.6010 C   0  0  0  0  0  0  0  0  0  0  0  0
   26.2798  -20.5333  -20.1527 N   0  0  0  0  0  0  0  0  0  0  0  0
   27.9194  -26.9691  -16.9545 C   0  0  0  0  0  0  0  0  0  0  0  0
   28.6535  -26.8412  -15.9429 O   0  0  0  0  0  0  0  0  0  0  0  0
   27.2340  -32.8075  -17.3104 N   0  0  0  0  0  0  0  0  0  0  0  0
   27.3189  -32.1037  -16.0807 C   0  0  0  0  0  0  0  0  0  0  0  0
   26.8069  -32.5891  -15.0503 O   0  0  0  0  0  0  0  0  0  0  0  0
   28.0090  -30.8104  -16.0346 C   0  0  0  0  0  0  0  0  0  0  0  0
   28.5589  -30.4909  -17.3898 C   0  0  0  0  0  0  0  0  0  0  0  0
   29.1668  -29.1055  -17.4416 C   0  0  2  0  0  0  0  0  0  0  0  0
   28.2005  -28.0968  -17.7891 N   0  0  0  0  0  0  0  0  0  0  0  0
   30.2529  -29.0789  -18.4516 C   0  0  0  0  0  0  0  0  0  0  0  0
   30.1138  -28.5235  -19.5825 O   0  0  0  0  0  0  0  0  0  0  0  0
   32.8684  -28.2429  -19.6692 C   0  0  0  0  0  0  0  0  0  0  0  0
   32.5979  -29.6510  -19.2047 C   0  0  2  0  0  0  0  0  0  0  0  0
   31.5271  -29.6772  -18.2178 N   0  0  0  0  0  0  0  0  0  0  0  0
   33.8264  -30.2971  -18.6649 C   0  0  0  0  0  0  0  0  0  0  0  0
   33.9246  -30.7062  -17.4987 O   0  0  0  0  0  0  0  0  0  0  0  0
   34.9159  -30.4504  -19.5057 O   0  0  0  0  0  0  0  0  0  0  0  0
  2  1  1  1
  3  2  1  0
  4  5  1  0
  4  3  1  0
  6  5  1  0
  7  6  1  0
  8  9  2  0
  8  2  1  0
 11 10  1  0
 12 11  2  0
 13 11  1  0
 14 13  1  0
 15 14  1  6
 15 16  1  0
 16  8  1  0
 17 15  1  0
 18 17  2  0
 20 19  1  1
 20 21  1  0
 21 17  1  0
 22 20  1  0
 22 24  1  0
 23 22  2  0
M  END
$$$$
