KQA.pdb
     RDKit          3D

 24 23  0  0  1  0  0  0  0  0999 V2000
   20.7808  -22.4047  -14.8797 N   0  0  0  0  0  0  0  0  0  0  0  0
   20.5838  -21.2371  -14.0415 C   0  0  1  0  0  0  0  0  0  0  0  0
   19.7751  -21.6670  -12.8631 C   0  0  0  0  0  0  0  0  0  0  0  0
   18.2945  -21.6959  -13.0931 C   0  0  0  0  0  0  0  0  0  0  0  0
   17.5940  -22.2260  -11.8494 C   0  0  0  0  0  0  0  0  0  0  0  0
   16.0822  -22.1413  -12.0644 C   0  0  0  0  0  0  0  0  0  0  0  0
   15.4230  -22.7313  -10.9193 N   0  0  0  0  0  0  0  0  0  0  0  0
   21.8762  -20.5957  -13.6877 C   0  0  0  0  0  0  0  0  0  0  0  0
   22.0126  -19.9571  -12.6142 O   0  0  0  0  0  0  0  0  0  0  0  0
   26.2456  -22.6433  -11.7700 N   0  0  0  0  0  0  0  0  0  0  0  0
   27.0518  -21.5726  -12.2375 C   0  0  0  0  0  0  0  0  0  0  0  0
   28.0971  -21.2686  -11.6257 O   0  0  0  0  0  0  0  0  0  0  0  0
   26.6460  -20.8333  -13.4375 C   0  0  0  0  0  0  0  0  0  0  0  0
   25.3095  -21.3261  -13.8977 C   0  0  0  0  0  0  0  0  0  0  0  0
   24.3294  -20.1915  -14.1071 C   0  0  2  0  0  0  0  0  0  0  0  0
   23.0339  -20.6581  -14.5263 N   0  0  0  0  0  0  0  0  0  0  0  0
   24.8524  -19.2708  -15.1460 C   0  0  0  0  0  0  0  0  0  0  0  0
   24.7420  -19.5138  -16.3851 O   0  0  0  0  0  0  0  0  0  0  0  0
   26.8168  -16.0178  -15.1924 C   0  0  0  0  0  0  0  0  0  0  0  0
   26.1248  -17.1954  -15.8296 C   0  0  2  0  0  0  0  0  0  0  0  0
   25.5153  -18.0500  -14.8198 N   0  0  0  0  0  0  0  0  0  0  0  0
   27.0538  -17.9790  -16.6904 C   0  0  0  0  0  0  0  0  0  0  0  0
   27.6546  -18.9906  -16.2996 O   0  0  0  0  0  0  0  0  0  0  0  0
   27.2592  -17.5589  -17.9938 O   0  0  0  0  0  0  0  0  0  0  0  0
  2  1  1  6
  3  2  1  0
  4  5  1  0
  4  3  1  0
  6  5  1  0
  7  6  1  0
  8  9  2  0
  8  2  1  0
 11 10  1  0
 12 11  2  0
 13 11  1  0
 14 13  1  0
 15 14  1  6
 15 16  1  0
 16  8  1  0
 17 15  1  0
 18 17  2  0
 20 19  1  1
 20 21  1  0
 21 17  1  0
 22 20  1  0
 22 24  1  0
 23 22  2  0
M  END
$$$$
