KQA.pdb
     RDKit          3D

 24 23  0  0  1  0  0  0  0  0999 V2000
   26.9462  -23.7806  -17.0204 N   0  0  0  0  0  0  0  0  0  0  0  0
   27.0316  -22.5186  -16.3102 C   0  0  1  0  0  0  0  0  0  0  0  0
   27.0822  -21.4344  -17.3345 C   0  0  0  0  0  0  0  0  0  0  0  0
   28.2326  -21.5257  -18.2908 C   0  0  0  0  0  0  0  0  0  0  0  0
   28.2613  -20.2872  -19.1760 C   0  0  0  0  0  0  0  0  0  0  0  0
   29.4614  -20.3861  -20.1189 C   0  0  0  0  0  0  0  0  0  0  0  0
   30.6231  -19.8550  -19.4390 N   0  0  0  0  0  0  0  0  0  0  0  0
   25.9285  -22.3711  -15.3261 C   0  0  0  0  0  0  0  0  0  0  0  0
   24.8284  -22.9555  -15.4902 O   0  0  0  0  0  0  0  0  0  0  0  0
   26.2639  -20.1758   -9.4101 N   0  0  0  0  0  0  0  0  0  0  0  0
   24.9620  -20.7366   -9.4833 C   0  0  0  0  0  0  0  0  0  0  0  0
   24.3122  -20.9379   -8.4361 O   0  0  0  0  0  0  0  0  0  0  0  0
   24.3935  -21.0744  -10.7924 C   0  0  0  0  0  0  0  0  0  0  0  0
   25.4564  -20.9627  -11.8407 C   0  0  0  0  0  0  0  0  0  0  0  0
   24.9659  -21.4267  -13.1956 C   0  0  2  0  0  0  0  0  0  0  0  0
   26.0378  -21.5699  -14.1457 N   0  0  0  0  0  0  0  0  0  0  0  0
   23.9938  -20.4438  -13.7335 C   0  0  0  0  0  0  0  0  0  0  0  0
   24.3406  -19.4996  -14.5049 O   0  0  0  0  0  0  0  0  0  0  0  0
   22.1490  -19.3228  -15.5114 C   0  0  0  0  0  0  0  0  0  0  0  0
   21.5997  -19.7631  -14.1788 C   0  0  2  0  0  0  0  0  0  0  0  0
   22.6031  -20.4951  -13.4181 N   0  0  0  0  0  0  0  0  0  0  0  0
   20.3622  -20.5766  -14.3361 C   0  0  0  0  0  0  0  0  0  0  0  0
   19.3616  -20.1825  -14.9530 O   0  0  0  0  0  0  0  0  0  0  0  0
   20.3239  -21.8378  -13.7656 O   0  0  0  0  0  0  0  0  0  0  0  0
  2  1  1  6
  3  2  1  0
  4  5  1  0
  4  3  1  0
  6  5  1  0
  7  6  1  0
  8  9  2  0
  8  2  1  0
 11 10  1  0
 12 11  2  0
 13 11  1  0
 14 13  1  0
 15 14  1  1
 15 16  1  0
 16  8  1  0
 17 15  1  0
 18 17  2  0
 20 19  1  6
 20 21  1  0
 21 17  1  0
 22 20  1  0
 22 24  1  0
 23 22  2  0
M  END
$$$$
