KQA.pdb
     RDKit          3D

 24 23  0  0  1  0  0  0  0  0999 V2000
   18.9916  -12.2923  -18.9040 N   0  0  0  0  0  0  0  0  0  0  0  0
   20.2328  -11.5540  -18.7671 C   0  0  1  0  0  0  0  0  0  0  0  0
   20.7471  -11.2896  -20.1430 C   0  0  0  0  0  0  0  0  0  0  0  0
   20.6539  -12.4526  -21.0836 C   0  0  0  0  0  0  0  0  0  0  0  0
   21.2737  -12.0780  -22.4230 C   0  0  0  0  0  0  0  0  0  0  0  0
   21.2136  -13.2942  -23.3484 C   0  0  0  0  0  0  0  0  0  0  0  0
   21.9168  -12.9739  -24.5719 N   0  0  0  0  0  0  0  0  0  0  0  0
   20.0519  -10.3314  -17.9428 C   0  0  0  0  0  0  0  0  0  0  0  0
   18.9831   -9.6721  -17.9837 O   0  0  0  0  0  0  0  0  0  0  0  0
   20.0436   -9.2167  -12.8940 N   0  0  0  0  0  0  0  0  0  0  0  0
   20.4509   -7.8635  -13.0283 C   0  0  0  0  0  0  0  0  0  0  0  0
   20.0325   -7.0058  -12.2229 O   0  0  0  0  0  0  0  0  0  0  0  0
   21.3611   -7.4876  -14.1151 C   0  0  0  0  0  0  0  0  0  0  0  0
   21.6389   -8.6855  -14.9688 C   0  0  0  0  0  0  0  0  0  0  0  0
   20.8922   -8.6281  -16.2844 C   0  0  2  0  0  0  0  0  0  0  0  0
   21.0605   -9.8280  -17.0616 N   0  0  0  0  0  0  0  0  0  0  0  0
   21.3863   -7.4808  -17.0845 C   0  0  0  0  0  0  0  0  0  0  0  0
   22.3260   -7.5964  -17.9272 O   0  0  0  0  0  0  0  0  0  0  0  0
   21.0619   -5.3784  -19.2576 C   0  0  0  0  0  0  0  0  0  0  0  0
   21.2616   -5.0583  -17.7984 C   0  0  2  0  0  0  0  0  0  0  0  0
   20.8368   -6.1699  -16.9586 N   0  0  0  0  0  0  0  0  0  0  0  0
   20.5565   -3.8057  -17.4089 C   0  0  0  0  0  0  0  0  0  0  0  0
   19.6130   -3.7768  -16.6051 O   0  0  0  0  0  0  0  0  0  0  0  0
   20.9734   -2.6109  -17.9712 O   0  0  0  0  0  0  0  0  0  0  0  0
  2  1  1  6
  3  2  1  0
  4  5  1  0
  4  3  1  0
  6  5  1  0
  7  6  1  0
  8  9  2  0
  8  2  1  0
 11 10  1  0
 12 11  2  0
 13 11  1  0
 14 13  1  0
 15 14  1  1
 15 16  1  0
 16  8  1  0
 17 15  1  0
 18 17  2  0
 20 19  1  6
 20 21  1  0
 21 17  1  0
 22 20  1  0
 22 24  1  0
 23 22  2  0
M  END
$$$$
