KQA.pdb
     RDKit          3D

 24 23  0  0  1  0  0  0  0  0999 V2000
   17.4908  -12.7310  -17.0948 N   0  0  0  0  0  0  0  0  0  0  0  0
   17.2962  -11.3866  -17.6038 C   0  0  1  0  0  0  0  0  0  0  0  0
   15.8920  -11.2984  -18.1018 C   0  0  0  0  0  0  0  0  0  0  0  0
   15.5317  -12.3077  -19.1495 C   0  0  0  0  0  0  0  0  0  0  0  0
   14.1701  -11.9677  -19.7402 C   0  0  0  0  0  0  0  0  0  0  0  0
   13.8403  -12.9875  -20.8311 C   0  0  0  0  0  0  0  0  0  0  0  0
   12.5515  -12.6521  -21.3972 N   0  0  0  0  0  0  0  0  0  0  0  0
   17.6429  -10.3624  -16.5852 C   0  0  0  0  0  0  0  0  0  0  0  0
   17.6940  -10.6517  -15.3635 O   0  0  0  0  0  0  0  0  0  0  0  0
   21.8856   -9.3135  -13.9855 N   0  0  0  0  0  0  0  0  0  0  0  0
   21.4457   -7.9969  -13.6891 C   0  0  0  0  0  0  0  0  0  0  0  0
   22.0683   -7.3066  -12.8552 O   0  0  0  0  0  0  0  0  0  0  0  0
   20.2612   -7.4609  -14.3678 C   0  0  0  0  0  0  0  0  0  0  0  0
   19.7437   -8.4741  -15.3408 C   0  0  0  0  0  0  0  0  0  0  0  0
   18.4247   -8.0506  -15.9510 C   0  0  2  0  0  0  0  0  0  0  0  0
   17.9377   -9.0017  -16.9155 N   0  0  0  0  0  0  0  0  0  0  0  0
   18.5905   -6.7417  -16.6291 C   0  0  0  0  0  0  0  0  0  0  0  0
   19.3594   -6.5864  -17.6248 O   0  0  0  0  0  0  0  0  0  0  0  0
   16.9083   -3.3554  -16.4976 C   0  0  0  0  0  0  0  0  0  0  0  0
   18.0187   -4.2932  -16.8963 C   0  0  2  0  0  0  0  0  0  0  0  0
   17.8957   -5.5696  -16.2055 N   0  0  0  0  0  0  0  0  0  0  0  0
   19.3595   -3.6917  -16.6546 C   0  0  0  0  0  0  0  0  0  0  0  0
   20.1653   -4.1352  -15.8234 O   0  0  0  0  0  0  0  0  0  0  0  0
   19.7279   -2.5804  -17.3942 O   0  0  0  0  0  0  0  0  0  0  0  0
  2  1  1  1
  3  2  1  0
  4  5  1  0
  4  3  1  0
  6  5  1  0
  7  6  1  0
  8  9  2  0
  8  2  1  0
 11 10  1  0
 12 11  2  0
 13 11  1  0
 14 13  1  0
 15 14  1  6
 15 16  1  0
 16  8  1  0
 17 15  1  0
 18 17  2  0
 20 19  1  1
 20 21  1  0
 21 17  1  0
 22 20  1  0
 22 24  1  0
 23 22  2  0
M  END
$$$$
