KQA.pdb
     RDKit          3D

 24 23  0  0  1  0  0  0  0  0999 V2000
   22.7218  -20.4772   -9.2166 N   0  0  0  0  0  0  0  0  0  0  0  0
   22.0981  -20.8570  -10.4700 C   0  0  1  0  0  0  0  0  0  0  0  0
   20.8062  -20.1159  -10.5665 C   0  0  0  0  0  0  0  0  0  0  0  0
   19.5862  -20.9842  -10.6293 C   0  0  0  0  0  0  0  0  0  0  0  0
   19.7579  -22.1755   -9.6967 C   0  0  0  0  0  0  0  0  0  0  0  0
   18.5303  -23.0787   -9.8239 C   0  0  0  0  0  0  0  0  0  0  0  0
   18.7437  -24.2584   -9.0134 N   0  0  0  0  0  0  0  0  0  0  0  0
   23.0102  -20.6366  -11.6217 C   0  0  0  0  0  0  0  0  0  0  0  0
   23.9320  -19.7845  -11.5671 O   0  0  0  0  0  0  0  0  0  0  0  0
   25.6409  -24.7895  -15.1064 N   0  0  0  0  0  0  0  0  0  0  0  0
   26.0024  -23.6354  -15.8494 C   0  0  0  0  0  0  0  0  0  0  0  0
   26.8113  -23.7335  -16.7957 O   0  0  0  0  0  0  0  0  0  0  0  0
   25.4197  -22.3368  -15.4956 C   0  0  0  0  0  0  0  0  0  0  0  0
   24.4657  -22.5130  -14.3555 C   0  0  0  0  0  0  0  0  0  0  0  0
   23.8372  -21.2014  -13.9357 C   0  0  2  0  0  0  0  0  0  0  0  0
   22.9066  -21.3637  -12.8496 N   0  0  0  0  0  0  0  0  0  0  0  0
   23.1126  -20.6089  -15.0865 C   0  0  0  0  0  0  0  0  0  0  0  0
   21.9340  -20.9568  -15.3976 O   0  0  0  0  0  0  0  0  0  0  0  0
   23.7708  -17.8847  -17.6491 C   0  0  0  0  0  0  0  0  0  0  0  0
   22.9922  -19.0329  -17.0601 C   0  0  2  0  0  0  0  0  0  0  0  0
   23.6939  -19.6077  -15.9205 N   0  0  0  0  0  0  0  0  0  0  0  0
   22.6994  -20.0786  -18.0793 C   0  0  0  0  0  0  0  0  0  0  0  0
   21.7645  -19.9974  -18.8895 O   0  0  0  0  0  0  0  0  0  0  0  0
   23.5107  -21.1998  -18.1270 O   0  0  0  0  0  0  0  0  0  0  0  0
  2  1  1  1
  3  2  1  0
  4  5  1  0
  4  3  1  0
  6  5  1  0
  7  6  1  0
  8  9  2  0
  8  2  1  0
 11 10  1  0
 12 11  2  0
 13 11  1  0
 14 13  1  0
 15 14  1  6
 15 16  1  0
 16  8  1  0
 17 15  1  0
 18 17  2  0
 20 19  1  6
 20 21  1  0
 21 17  1  0
 22 20  1  0
 22 24  1  0
 23 22  2  0
M  END
$$$$
