IDM.pdb
     RDKit          3D

 25 24  0  0  1  0  0  0  0  0999 V2000
   16.6156  -12.7390    2.7079 C   0  0  0  0  0  0  0  0  0  0  0  0
   17.1584  -14.0926    2.3134 C   0  0  0  0  0  0  0  0  0  0  0  0
   17.2524  -15.0619    3.4511 C   0  0  2  0  0  0  0  0  0  0  0  0
   18.0510  -14.4725    4.5961 C   0  0  0  0  0  0  0  0  0  0  0  0
   17.8062  -16.3970    3.0961 C   0  0  2  0  0  0  0  0  0  0  0  0
   17.1631  -16.9611    1.9288 N   0  0  0  0  0  0  0  0  0  0  0  0
   17.8983  -17.3454    4.2123 C   0  0  0  0  0  0  0  0  0  0  0  0
   18.5240  -17.0158    5.2518 O   0  0  0  0  0  0  0  0  0  0  0  0
   17.3075  -18.6551    4.1883 N   0  0  0  0  0  0  0  0  0  0  0  0
   17.3354  -19.5095    5.3568 C   0  0  1  0  0  0  0  0  0  0  0  0
   16.7920  -20.8645    4.9721 C   0  0  0  0  0  0  0  0  0  0  0  0
   16.7185  -21.8192    6.0791 C   0  0  0  0  0  0  0  0  0  0  0  0
   16.9282  -21.4360    7.2569 O   0  0  0  0  0  0  0  0  0  0  0  0
   18.7688  -19.7015    5.7591 C   0  0  0  0  0  0  0  0  0  0  0  0
   19.6852  -19.8837    4.9233 O   0  0  0  0  0  0  0  0  0  0  0  0
   16.4170  -23.1661    5.8621 O   0  0  0  0  0  0  0  0  0  0  0  0
   24.6964  -16.8688    9.6971 C   0  0  0  0  0  0  0  0  0  0  0  0
   23.0446  -16.8643    9.0221 S   0  0  0  0  0  0  0  0  0  0  0  0
   22.3800  -18.4401    8.5407 C   0  0  0  0  0  0  0  0  0  0  0  0
   21.0269  -18.4303    7.9050 C   0  0  0  0  0  0  0  0  0  0  0  0
   20.4833  -19.7860    7.6281 C   0  0  2  0  0  0  0  0  0  0  0  0
   19.0908  -19.6756    7.1195 N   0  0  0  0  0  0  0  0  0  0  0  0
   20.3445  -20.5265    8.8938 C   0  0  0  0  0  0  0  0  0  0  0  0
   21.4059  -21.2179    9.4316 O   0  0  0  0  0  0  0  0  0  0  0  0
   19.2720  -20.5496    9.5108 O   0  0  0  0  0  0  0  0  0  0  0  0
  1  2  1  0
  3  4  1  1
  3  2  1  0
  5  7  1  0
  5  3  1  0
  5  6  1  6
  7  8  2  0
  9 10  1  0
  9  7  1  0
 10 11  1  6
 12 16  1  0
 12 11  1  0
 13 12  2  0
 14 22  1  0
 14 10  1  0
 15 14  2  0
 18 17  1  0
 19 18  1  0
 21 20  1  1
 20 19  1  0
 21 22  1  0
 23 21  1  0
 23 24  1  0
 25 23  2  0
M  END
$$$$
