IDM.pdb
     RDKit          3D

 25 24  0  0  1  0  0  0  0  0999 V2000
   25.1912  -21.3892   -8.6307 C   0  0  0  0  0  0  0  0  0  0  0  0
   24.3260  -20.7020   -9.6611 C   0  0  0  0  0  0  0  0  0  0  0  0
   24.9080  -20.7078  -11.0409 C   0  0  2  0  0  0  0  0  0  0  0  0
   26.3135  -20.1415  -11.0351 C   0  0  0  0  0  0  0  0  0  0  0  0
   24.0945  -20.0045  -12.0700 C   0  0  2  0  0  0  0  0  0  0  0  0
   22.6990  -20.3832  -12.0140 N   0  0  0  0  0  0  0  0  0  0  0  0
   24.6446  -20.0484  -13.4298 C   0  0  0  0  0  0  0  0  0  0  0  0
   25.7933  -19.5850  -13.6459 O   0  0  0  0  0  0  0  0  0  0  0  0
   23.9354  -20.5973  -14.5527 N   0  0  0  0  0  0  0  0  0  0  0  0
   24.4400  -20.4476  -15.9014 C   0  0  1  0  0  0  0  0  0  0  0  0
   23.5132  -21.1782  -16.8431 C   0  0  0  0  0  0  0  0  0  0  0  0
   23.9119  -21.1135  -18.2499 C   0  0  0  0  0  0  0  0  0  0  0  0
   23.0407  -21.1483  -19.1542 O   0  0  0  0  0  0  0  0  0  0  0  0
   24.3837  -18.9912  -16.2608 C   0  0  0  0  0  0  0  0  0  0  0  0
   23.3730  -18.2818  -16.0444 O   0  0  0  0  0  0  0  0  0  0  0  0
   25.2543  -21.0124  -18.6238 O   0  0  0  0  0  0  0  0  0  0  0  0
   27.0054  -12.7554  -14.7131 C   0  0  0  0  0  0  0  0  0  0  0  0
   27.7668  -13.7976  -15.9453 S   0  0  0  0  0  0  0  0  0  0  0  0
   26.6730  -14.8023  -16.9204 C   0  0  0  0  0  0  0  0  0  0  0  0
   26.4624  -16.2077  -16.4564 C   0  0  0  0  0  0  0  0  0  0  0  0
   25.5367  -16.9919  -17.3157 C   0  0  2  0  0  0  0  0  0  0  0  0
   25.5036  -18.4065  -16.8599 N   0  0  0  0  0  0  0  0  0  0  0  0
   26.0824  -17.0686  -18.6818 C   0  0  0  0  0  0  0  0  0  0  0  0
   25.9577  -16.0133  -19.5560 O   0  0  0  0  0  0  0  0  0  0  0  0
   26.6681  -18.0819  -19.0840 O   0  0  0  0  0  0  0  0  0  0  0  0
  1  2  1  0
  3  4  1  1
  3  2  1  0
  5  7  1  0
  5  3  1  0
  5  6  1  6
  7  8  2  0
  9 10  1  0
  9  7  1  0
 10 11  1  6
 12 16  1  0
 12 11  1  0
 13 12  2  0
 14 22  1  0
 14 10  1  0
 15 14  2  0
 18 17  1  0
 19 18  1  0
 21 20  1  1
 20 19  1  0
 21 22  1  0
 23 21  1  0
 23 24  1  0
 25 23  2  0
M  END
$$$$
