IDM.pdb
     RDKit          3D

 25 24  0  0  1  0  0  0  0  0999 V2000
   27.0077  -20.7658   -7.4531 C   0  0  0  0  0  0  0  0  0  0  0  0
   26.9476  -19.7059   -8.5281 C   0  0  0  0  0  0  0  0  0  0  0  0
   25.9149  -19.9691   -9.5802 C   0  0  2  0  0  0  0  0  0  0  0  0
   24.6105  -20.4190   -8.9540 C   0  0  0  0  0  0  0  0  0  0  0  0
   26.3212  -20.9411  -10.6316 C   0  0  2  0  0  0  0  0  0  0  0  0
   27.7520  -20.9437  -10.8479 N   0  0  0  0  0  0  0  0  0  0  0  0
   25.5545  -20.8584  -11.8803 C   0  0  0  0  0  0  0  0  0  0  0  0
   25.0797  -19.7514  -12.2405 O   0  0  0  0  0  0  0  0  0  0  0  0
   25.3058  -21.9887  -12.7322 N   0  0  0  0  0  0  0  0  0  0  0  0
   24.5410  -21.8504  -13.9536 C   0  0  1  0  0  0  0  0  0  0  0  0
   24.8757  -23.0092  -14.8617 C   0  0  0  0  0  0  0  0  0  0  0  0
   26.1825  -22.9052  -15.5126 C   0  0  0  0  0  0  0  0  0  0  0  0
   26.7632  -21.7937  -15.5864 O   0  0  0  0  0  0  0  0  0  0  0  0
   23.0849  -21.9618  -13.6065 C   0  0  0  0  0  0  0  0  0  0  0  0
   22.6807  -22.5448  -12.5729 O   0  0  0  0  0  0  0  0  0  0  0  0
   26.8143  -24.0230  -16.0632 O   0  0  0  0  0  0  0  0  0  0  0  0
   17.6795  -17.0856  -11.7332 C   0  0  0  0  0  0  0  0  0  0  0  0
   19.3005  -17.6268  -12.2468 S   0  0  0  0  0  0  0  0  0  0  0  0
   19.3903  -19.2060  -13.0560 C   0  0  0  0  0  0  0  0  0  0  0  0
   20.7533  -19.6855  -13.4396 C   0  0  0  0  0  0  0  0  0  0  0  0
   20.7633  -21.0394  -14.0534 C   0  0  2  0  0  0  0  0  0  0  0  0
   22.1456  -21.3922  -14.4716 N   0  0  0  0  0  0  0  0  0  0  0  0
   20.0037  -21.0114  -15.3150 C   0  0  0  0  0  0  0  0  0  0  0  0
   18.6782  -21.3788  -15.3536 O   0  0  0  0  0  0  0  0  0  0  0  0
   20.5330  -20.6576  -16.3763 O   0  0  0  0  0  0  0  0  0  0  0  0
  1  2  1  0
  3  4  1  1
  3  2  1  0
  5  7  1  0
  5  3  1  0
  5  6  1  6
  7  8  2  0
  9 10  1  0
  9  7  1  0
 10 11  1  6
 12 16  1  0
 12 11  1  0
 13 12  2  0
 14 22  1  0
 14 10  1  0
 15 14  2  0
 18 17  1  0
 19 18  1  0
 21 20  1  6
 20 19  1  0
 21 22  1  0
 23 21  1  0
 23 24  1  0
 25 23  2  0
M  END
$$$$
