FEH.pdb
     RDKit          3D

 31 32  0  0  1  0  0  0  0  0999 V2000
    7.0104  -18.0711   19.3643 N   0  0  0  0  0  0  0  0  0  0  0  0
    7.6914  -16.8890   19.8572 C   0  0  1  0  0  0  0  0  0  0  0  0
    6.6767  -15.9244   20.4948 C   0  0  0  0  0  0  0  0  0  0  0  0
    7.2829  -14.6497   20.8888 C   0  0  0  0  0  0  0  0  0  0  0  0
    7.5202  -14.3743   22.2081 C   0  0  0  0  0  0  0  0  0  0  0  0
    8.0918  -13.1675   22.5762 C   0  0  0  0  0  0  0  0  0  0  0  0
    8.4113  -12.2636   21.5966 C   0  0  0  0  0  0  0  0  0  0  0  0
    8.1755  -12.5344   20.2691 C   0  0  0  0  0  0  0  0  0  0  0  0
    7.6067  -13.7391   19.9233 C   0  0  0  0  0  0  0  0  0  0  0  0
    8.5970  -17.2689   20.9792 C   0  0  0  0  0  0  0  0  0  0  0  0
    8.2398  -18.2199   21.7195 O   0  0  0  0  0  0  0  0  0  0  0  0
    9.8310  -16.6079   21.2426 N   0  0  0  0  0  0  0  0  0  0  0  0
   10.8907  -17.2411   21.9700 C   0  0  1  0  0  0  0  0  0  0  0  0
   12.1833  -17.3817   21.2194 C   0  0  0  0  0  0  0  0  0  0  0  0
   13.2768  -18.1213   21.8903 C   0  0  0  0  0  0  0  0  0  0  0  0
   14.5820  -17.7765   21.3232 C   0  0  0  0  0  0  0  0  0  0  0  0
   14.6683  -17.6109   20.0797 O   0  0  0  0  0  0  0  0  0  0  0  0
   11.1309  -16.6891   23.3220 C   0  0  0  0  0  0  0  0  0  0  0  0
   12.3104  -16.3885   23.6710 O   0  0  0  0  0  0  0  0  0  0  0  0
   15.7166  -17.6278   22.1075 O   0  0  0  0  0  0  0  0  0  0  0  0
   10.1071  -16.4700   24.2825 N   0  0  0  0  0  0  0  0  0  0  0  0
    9.9477  -17.4084   25.3996 C   0  0  1  0  0  0  0  0  0  0  0  0
    9.1270  -18.5879   25.0219 C   0  0  0  0  0  0  0  0  0  0  0  0
    7.7083  -18.2127   24.9125 C   0  0  0  0  0  0  0  0  0  0  0  0
    7.0501  -17.1307   25.4479 C   0  0  0  0  0  0  0  0  0  0  0  0
    5.7465  -17.1659   25.1432 N   0  0  0  0  0  0  0  0  0  0  0  0
    5.5469  -18.2728   24.4069 C   0  0  0  0  0  0  0  0  0  0  0  0
    6.7257  -18.9071   24.2651 N   0  0  0  0  0  0  0  0  0  0  0  0
   11.3030  -17.8161   25.7923 C   0  0  0  0  0  0  0  0  0  0  0  0
   11.9574  -17.1703   26.6386 O   0  0  0  0  0  0  0  0  0  0  0  0
   11.9291  -18.9300   25.2524 O   0  0  0  0  0  0  0  0  0  0  0  0
  2  1  1  1
  2  3  1  0
  2 10  1  0
  3  4  1  0
  4  9  1  0
  4  5  2  0
  5  6  1  0
  6  7  2  0
  8  7  1  0
  9  8  2  0
 10 11  2  0
 12 13  1  0
 12 10  1  0
 14 15  1  0
 13 14  1  6
 16 20  1  0
 16 15  1  0
 17 16  2  0
 18 13  1  0
 18 21  1  0
 19 18  2  0
 22 21  1  0
 22 23  1  6
 24 23  1  0
 25 24  2  0
 26 25  1  0
 27 26  1  0
 27 28  2  0
 28 24  1  0
 29 22  1  0
 30 29  2  0
 31 29  1  0
M  END
$$$$
