FEH.pdb
     RDKit          3D

 31 32  0  0  1  0  0  0  0  0999 V2000
    5.4811  -16.1443   24.1401 N   0  0  0  0  0  0  0  0  0  0  0  0
    6.4122  -15.6771   23.1308 C   0  0  1  0  0  0  0  0  0  0  0  0
    6.5216  -14.1435   23.1851 C   0  0  0  0  0  0  0  0  0  0  0  0
    6.7102  -13.6409   24.5488 C   0  0  0  0  0  0  0  0  0  0  0  0
    7.9578  -13.2961   24.9932 C   0  0  0  0  0  0  0  0  0  0  0  0
    8.1318  -12.8231   26.2834 C   0  0  0  0  0  0  0  0  0  0  0  0
    7.0347  -12.7095   27.0973 C   0  0  0  0  0  0  0  0  0  0  0  0
    5.7785  -13.0542   26.6565 C   0  0  0  0  0  0  0  0  0  0  0  0
    5.6260  -13.5223   25.3712 C   0  0  0  0  0  0  0  0  0  0  0  0
    7.7846  -16.1584   23.4600 C   0  0  0  0  0  0  0  0  0  0  0  0
    7.9667  -16.6668   24.5949 O   0  0  0  0  0  0  0  0  0  0  0  0
    8.8806  -16.0662   22.5549 N   0  0  0  0  0  0  0  0  0  0  0  0
   10.1101  -16.7672   22.7785 C   0  0  1  0  0  0  0  0  0  0  0  0
   11.0837  -16.7260   21.6364 C   0  0  0  0  0  0  0  0  0  0  0  0
   12.3630  -17.4506   21.8130 C   0  0  0  0  0  0  0  0  0  0  0  0
   13.1828  -17.3914   20.6013 C   0  0  0  0  0  0  0  0  0  0  0  0
   13.9859  -16.4327   20.4695 O   0  0  0  0  0  0  0  0  0  0  0  0
   10.7879  -16.4395   24.0527 C   0  0  0  0  0  0  0  0  0  0  0  0
   11.2320  -15.2682   24.2382 O   0  0  0  0  0  0  0  0  0  0  0  0
   13.1026  -18.3510   19.6028 O   0  0  0  0  0  0  0  0  0  0  0  0
   10.9841  -17.3697   25.1086 N   0  0  0  0  0  0  0  0  0  0  0  0
   11.4049  -16.8889   26.4299 C   0  0  1  0  0  0  0  0  0  0  0  0
   10.2612  -16.7803   27.3720 C   0  0  0  0  0  0  0  0  0  0  0  0
   10.7151  -16.2650   28.6736 C   0  0  0  0  0  0  0  0  0  0  0  0
   11.0977  -14.9906   29.0200 C   0  0  0  0  0  0  0  0  0  0  0  0
   11.4763  -14.9378   30.3035 N   0  0  0  0  0  0  0  0  0  0  0  0
   11.3430  -16.1792   30.8017 C   0  0  0  0  0  0  0  0  0  0  0  0
   10.8847  -16.9827   29.8238 N   0  0  0  0  0  0  0  0  0  0  0  0
   12.4000  -17.8510   26.9212 C   0  0  0  0  0  0  0  0  0  0  0  0
   12.3584  -19.0557   26.5918 O   0  0  0  0  0  0  0  0  0  0  0  0
   13.4330  -17.4825   27.7704 O   0  0  0  0  0  0  0  0  0  0  0  0
  2  1  1  1
  2  3  1  0
  2 10  1  0
  3  4  1  0
  4  9  1  0
  4  5  2  0
  5  6  1  0
  6  7  2  0
  8  7  1  0
  9  8  2  0
 10 11  2  0
 12 13  1  0
 12 10  1  0
 14 15  1  0
 13 14  1  6
 16 20  1  0
 16 15  1  0
 17 16  2  0
 18 13  1  0
 18 21  1  0
 19 18  2  0
 22 21  1  0
 22 23  1  1
 24 23  1  0
 25 24  2  0
 26 25  1  0
 27 26  1  0
 27 28  2  0
 28 24  1  0
 29 22  1  0
 30 29  2  0
 31 29  1  0
M  END
$$$$
