FEH.pdb
     RDKit          3D

 31 32  0  0  1  0  0  0  0  0999 V2000
    5.8137  -17.8261   23.8797 N   0  0  0  0  0  0  0  0  0  0  0  0
    6.7202  -16.7285   24.1579 C   0  0  1  0  0  0  0  0  0  0  0  0
    6.3693  -16.0860   25.5110 C   0  0  0  0  0  0  0  0  0  0  0  0
    6.5661  -14.6338   25.5122 C   0  0  0  0  0  0  0  0  0  0  0  0
    7.2837  -14.0316   24.5145 C   0  0  0  0  0  0  0  0  0  0  0  0
    7.4688  -12.6589   24.5205 C   0  0  0  0  0  0  0  0  0  0  0  0
    6.9211  -11.9243   25.5400 C   0  0  0  0  0  0  0  0  0  0  0  0
    6.1989  -12.5236   26.5453 C   0  0  0  0  0  0  0  0  0  0  0  0
    6.0261  -13.8889   26.5219 C   0  0  0  0  0  0  0  0  0  0  0  0
    8.1006  -17.2599   24.3469 C   0  0  0  0  0  0  0  0  0  0  0  0
    8.2579  -18.1895   25.1780 O   0  0  0  0  0  0  0  0  0  0  0  0
    9.2306  -16.7641   23.6353 N   0  0  0  0  0  0  0  0  0  0  0  0
   10.5427  -17.3088   23.8209 C   0  0  1  0  0  0  0  0  0  0  0  0
   11.5166  -17.0147   22.7168 C   0  0  0  0  0  0  0  0  0  0  0  0
   11.1488  -17.4635   21.3544 C   0  0  0  0  0  0  0  0  0  0  0  0
   11.9249  -16.7594   20.3317 C   0  0  0  0  0  0  0  0  0  0  0  0
   13.1315  -17.0764   20.1736 O   0  0  0  0  0  0  0  0  0  0  0  0
   11.1505  -17.0264   25.1405 C   0  0  0  0  0  0  0  0  0  0  0  0
   11.2382  -15.8286   25.5418 O   0  0  0  0  0  0  0  0  0  0  0  0
   11.3761  -15.7624   19.5384 O   0  0  0  0  0  0  0  0  0  0  0  0
   11.6588  -18.0284   26.0102 N   0  0  0  0  0  0  0  0  0  0  0  0
   11.8919  -17.7112   27.4240 C   0  0  1  0  0  0  0  0  0  0  0  0
   10.6548  -17.2411   28.0995 C   0  0  0  0  0  0  0  0  0  0  0  0
   10.6281  -15.7709   28.1571 C   0  0  0  0  0  0  0  0  0  0  0  0
   11.5726  -14.8657   27.7338 C   0  0  0  0  0  0  0  0  0  0  0  0
   11.1831  -13.6114   27.9955 N   0  0  0  0  0  0  0  0  0  0  0  0
    9.9811  -13.6917   28.5921 C   0  0  0  0  0  0  0  0  0  0  0  0
    9.6422  -14.9906   28.6919 N   0  0  0  0  0  0  0  0  0  0  0  0
   12.3934  -18.9437   28.0459 C   0  0  0  0  0  0  0  0  0  0  0  0
   12.3928  -20.0306   27.4294 O   0  0  0  0  0  0  0  0  0  0  0  0
   12.8917  -18.9728   29.3402 O   0  0  0  0  0  0  0  0  0  0  0  0
  2  1  1  1
  2  3  1  0
  2 10  1  0
  3  4  1  0
  4  9  1  0
  4  5  2  0
  5  6  1  0
  6  7  2  0
  8  7  1  0
  9  8  2  0
 10 11  2  0
 12 13  1  0
 12 10  1  0
 14 15  1  0
 13 14  1  6
 16 20  1  0
 16 15  1  0
 17 16  2  0
 18 13  1  0
 18 21  1  0
 19 18  2  0
 22 21  1  0
 22 23  1  1
 24 23  1  0
 25 24  2  0
 26 25  1  0
 27 26  1  0
 27 28  2  0
 28 24  1  0
 29 22  1  0
 30 29  2  0
 31 29  1  0
M  END
$$$$
