FEH.pdb
     RDKit          3D

 31 32  0  0  1  0  0  0  0  0999 V2000
    5.7060  -18.1990   21.8417 N   0  0  0  0  0  0  0  0  0  0  0  0
    6.4800  -17.0176   22.1720 C   0  0  1  0  0  0  0  0  0  0  0  0
    5.8536  -16.2985   23.3792 C   0  0  0  0  0  0  0  0  0  0  0  0
    6.5869  -15.0865   23.7547 C   0  0  0  0  0  0  0  0  0  0  0  0
    6.8558  -14.8195   25.0697 C   0  0  0  0  0  0  0  0  0  0  0  0
    7.5477  -13.6720   25.4205 C   0  0  0  0  0  0  0  0  0  0  0  0
    7.9532  -12.8176   24.4282 C   0  0  0  0  0  0  0  0  0  0  0  0
    7.6861  -13.0804   23.1049 C   0  0  0  0  0  0  0  0  0  0  0  0
    6.9973  -14.2258   22.7765 C   0  0  0  0  0  0  0  0  0  0  0  0
    7.8334  -17.4268   22.6459 C   0  0  0  0  0  0  0  0  0  0  0  0
    7.8958  -18.1748   23.6540 O   0  0  0  0  0  0  0  0  0  0  0  0
    9.0395  -17.0103   22.0127 N   0  0  0  0  0  0  0  0  0  0  0  0
   10.3274  -17.4113   22.4957 C   0  0  1  0  0  0  0  0  0  0  0  0
   11.4313  -17.3664   21.4791 C   0  0  0  0  0  0  0  0  0  0  0  0
   11.4577  -18.4432   20.4629 C   0  0  0  0  0  0  0  0  0  0  0  0
   12.5451  -18.2454   19.5023 C   0  0  0  0  0  0  0  0  0  0  0  0
   12.2530  -18.1298   18.2847 O   0  0  0  0  0  0  0  0  0  0  0  0
   10.7502  -16.7548   23.7529 C   0  0  0  0  0  0  0  0  0  0  0  0
   11.1774  -15.5632   23.7198 O   0  0  0  0  0  0  0  0  0  0  0  0
   13.8756  -18.1818   19.8896 O   0  0  0  0  0  0  0  0  0  0  0  0
   10.7135  -17.3830   25.0268 N   0  0  0  0  0  0  0  0  0  0  0  0
   11.0509  -16.6089   26.2272 C   0  0  1  0  0  0  0  0  0  0  0  0
    9.9035  -16.5110   27.1661 C   0  0  0  0  0  0  0  0  0  0  0  0
   10.3034  -15.8054   28.3940 C   0  0  0  0  0  0  0  0  0  0  0  0
   11.5405  -15.3313   28.7620 C   0  0  0  0  0  0  0  0  0  0  0  0
   11.4958  -14.7743   29.9791 N   0  0  0  0  0  0  0  0  0  0  0  0
   10.2278  -14.8827   30.4123 C   0  0  0  0  0  0  0  0  0  0  0  0
    9.5054  -15.5033   29.4610 N   0  0  0  0  0  0  0  0  0  0  0  0
   12.1862  -17.2967   26.8558 C   0  0  0  0  0  0  0  0  0  0  0  0
   13.0156  -16.6774   27.5559 O   0  0  0  0  0  0  0  0  0  0  0  0
   12.4018  -18.6593   26.7107 O   0  0  0  0  0  0  0  0  0  0  0  0
  2  1  1  1
  2  3  1  0
  2 10  1  0
  3  4  1  0
  4  9  1  0
  4  5  2  0
  5  6  1  0
  6  7  2  0
  8  7  1  0
  9  8  2  0
 10 11  2  0
 12 13  1  0
 12 10  1  0
 14 15  1  0
 13 14  1  6
 16 20  1  0
 16 15  1  0
 17 16  2  0
 18 13  1  0
 18 21  1  0
 19 18  2  0
 22 21  1  0
 22 23  1  1
 24 23  1  0
 25 24  2  0
 26 25  1  0
 27 26  1  0
 27 28  2  0
 28 24  1  0
 29 22  1  0
 30 29  2  0
 31 29  1  0
M  END
$$$$
