FEH.pdb
     RDKit          3D

 31 32  0  0  1  0  0  0  0  0999 V2000
    9.0510  -16.0451   22.2205 N   0  0  0  0  0  0  0  0  0  0  0  0
   10.2123  -15.8134   21.3827 C   0  0  1  0  0  0  0  0  0  0  0  0
   10.4744  -14.3031   21.2525 C   0  0  0  0  0  0  0  0  0  0  0  0
    9.3823  -13.5988   20.5751 C   0  0  0  0  0  0  0  0  0  0  0  0
    8.2320  -13.2925   21.2503 C   0  0  0  0  0  0  0  0  0  0  0  0
    7.2015  -12.6283   20.6057 C   0  0  0  0  0  0  0  0  0  0  0  0
    7.3596  -12.2880   19.2873 C   0  0  0  0  0  0  0  0  0  0  0  0
    8.5131  -12.5929   18.6033 C   0  0  0  0  0  0  0  0  0  0  0  0
    9.5257  -13.2534   19.2612 C   0  0  0  0  0  0  0  0  0  0  0  0
   11.4290  -16.3434   22.0625 C   0  0  0  0  0  0  0  0  0  0  0  0
   11.5277  -16.1647   23.3027 O   0  0  0  0  0  0  0  0  0  0  0  0
   12.4682  -17.0328   21.3741 N   0  0  0  0  0  0  0  0  0  0  0  0
   13.4579  -17.8018   22.0683 C   0  0  1  0  0  0  0  0  0  0  0  0
   12.9248  -18.7045   23.1430 C   0  0  0  0  0  0  0  0  0  0  0  0
   11.5956  -19.3157   22.9138 C   0  0  0  0  0  0  0  0  0  0  0  0
   11.2942  -20.3340   23.9220 C   0  0  0  0  0  0  0  0  0  0  0  0
   12.1490  -20.5612   24.8158 O   0  0  0  0  0  0  0  0  0  0  0  0
   14.4005  -18.5340   21.1933 C   0  0  0  0  0  0  0  0  0  0  0  0
   14.6879  -19.7385   21.4580 O   0  0  0  0  0  0  0  0  0  0  0  0
   10.1059  -21.0496   23.9224 O   0  0  0  0  0  0  0  0  0  0  0  0
   15.0249  -17.9666   20.0500 N   0  0  0  0  0  0  0  0  0  0  0  0
   16.1276  -17.0138   20.2238 C   0  0  1  0  0  0  0  0  0  0  0  0
   15.6394  -15.6606   20.5953 C   0  0  0  0  0  0  0  0  0  0  0  0
   15.5249  -14.8098   19.4000 C   0  0  0  0  0  0  0  0  0  0  0  0
   14.7977  -15.0157   18.2513 C   0  0  0  0  0  0  0  0  0  0  0  0
   14.9870  -14.0158   17.3807 N   0  0  0  0  0  0  0  0  0  0  0  0
   15.8399  -13.1515   17.9573 C   0  0  0  0  0  0  0  0  0  0  0  0
   16.1672  -13.6253   19.1740 N   0  0  0  0  0  0  0  0  0  0  0  0
   16.9895  -17.5679   21.2760 C   0  0  0  0  0  0  0  0  0  0  0  0
   17.8179  -16.8547   21.8815 O   0  0  0  0  0  0  0  0  0  0  0  0
   16.9351  -18.9012   21.6550 O   0  0  0  0  0  0  0  0  0  0  0  0
  2  1  1  1
  2  3  1  0
  2 10  1  0
  3  4  1  0
  4  9  1  0
  4  5  2  0
  5  6  1  0
  6  7  2  0
  8  7  1  0
  9  8  2  0
 10 11  2  0
 12 13  1  0
 12 10  1  0
 14 15  1  0
 13 14  1  6
 16 20  1  0
 16 15  1  0
 17 16  2  0
 18 13  1  0
 18 21  1  0
 19 18  2  0
 22 21  1  0
 22 23  1  1
 24 23  1  0
 25 24  2  0
 26 25  1  0
 27 26  1  0
 27 28  2  0
 28 24  1  0
 29 22  1  0
 30 29  2  0
 31 29  1  0
M  END
$$$$
