FEH.pdb
     RDKit          3D

 31 32  0  0  1  0  0  0  0  0999 V2000
    6.5440  -16.0140   25.7639 N   0  0  0  0  0  0  0  0  0  0  0  0
    7.4527  -15.5712   24.7237 C   0  0  1  0  0  0  0  0  0  0  0  0
    8.1482  -14.2676   25.1522 C   0  0  0  0  0  0  0  0  0  0  0  0
    7.2028  -13.2595   25.6395 C   0  0  0  0  0  0  0  0  0  0  0  0
    5.9124  -13.2430   25.1840 C   0  0  0  0  0  0  0  0  0  0  0  0
    5.0225  -12.2873   25.6460 C   0  0  0  0  0  0  0  0  0  0  0  0
    5.4609  -11.3666   26.5620 C   0  0  0  0  0  0  0  0  0  0  0  0
    6.7563  -11.3780   27.0236 C   0  0  0  0  0  0  0  0  0  0  0  0
    7.6255  -12.3355   26.5525 C   0  0  0  0  0  0  0  0  0  0  0  0
    8.5642  -16.5552   24.5830 C   0  0  0  0  0  0  0  0  0  0  0  0
    8.6300  -17.4840   25.4274 O   0  0  0  0  0  0  0  0  0  0  0  0
    9.5397  -16.4862   23.5473 N   0  0  0  0  0  0  0  0  0  0  0  0
   10.6356  -17.4063   23.4747 C   0  0  1  0  0  0  0  0  0  0  0  0
   11.4332  -17.3481   22.2041 C   0  0  0  0  0  0  0  0  0  0  0  0
   10.6757  -17.3205   20.9320 C   0  0  0  0  0  0  0  0  0  0  0  0
   11.5584  -17.0767   19.7893 C   0  0  0  0  0  0  0  0  0  0  0  0
   11.4732  -15.9726   19.1935 O   0  0  0  0  0  0  0  0  0  0  0  0
   11.5313  -17.3980   24.6528 C   0  0  0  0  0  0  0  0  0  0  0  0
   12.4245  -16.5056   24.7493 O   0  0  0  0  0  0  0  0  0  0  0  0
   12.4776  -18.0168   19.3471 O   0  0  0  0  0  0  0  0  0  0  0  0
   11.4615  -18.3459   25.7089 N   0  0  0  0  0  0  0  0  0  0  0  0
   12.5278  -18.3891   26.7164 C   0  0  1  0  0  0  0  0  0  0  0  0
   12.0154  -18.0997   28.0807 C   0  0  0  0  0  0  0  0  0  0  0  0
   11.6909  -16.6706   28.2150 C   0  0  0  0  0  0  0  0  0  0  0  0
   11.8143  -15.6593   27.2915 C   0  0  0  0  0  0  0  0  0  0  0  0
   11.4405  -14.4852   27.8163 N   0  0  0  0  0  0  0  0  0  0  0  0
   11.0713  -14.7245   29.0865 C   0  0  0  0  0  0  0  0  0  0  0  0
   11.2204  -16.0396   29.3318 N   0  0  0  0  0  0  0  0  0  0  0  0
   13.1055  -19.7377   26.6479 C   0  0  0  0  0  0  0  0  0  0  0  0
   14.0756  -20.0673   27.3634 O   0  0  0  0  0  0  0  0  0  0  0  0
   12.6133  -20.7139   25.7942 O   0  0  0  0  0  0  0  0  0  0  0  0
  2  1  1  1
  2  3  1  0
  2 10  1  0
  3  4  1  0
  4  9  1  0
  4  5  2  0
  5  6  1  0
  6  7  2  0
  8  7  1  0
  9  8  2  0
 10 11  2  0
 12 13  1  0
 12 10  1  0
 14 15  1  0
 13 14  1  6
 16 20  1  0
 16 15  1  0
 17 16  2  0
 18 13  1  0
 18 21  1  0
 19 18  2  0
 22 21  1  0
 22 23  1  1
 24 23  1  0
 25 24  2  0
 26 25  1  0
 27 26  1  0
 27 28  2  0
 28 24  1  0
 29 22  1  0
 30 29  2  0
 31 29  1  0
M  END
$$$$
