FEH.pdb
     RDKit          3D

 31 32  0  0  1  0  0  0  0  0999 V2000
    6.0002  -16.9754   24.9564 N   0  0  0  0  0  0  0  0  0  0  0  0
    7.1148  -16.2060   24.4373 C   0  0  1  0  0  0  0  0  0  0  0  0
    7.6155  -15.2184   25.5053 C   0  0  0  0  0  0  0  0  0  0  0  0
    6.9242  -13.9276   25.4462 C   0  0  0  0  0  0  0  0  0  0  0  0
    5.8829  -13.6606   26.2931 C   0  0  0  0  0  0  0  0  0  0  0  0
    5.2311  -12.4399   26.2328 C   0  0  0  0  0  0  0  0  0  0  0  0
    5.6499  -11.5138   25.3130 C   0  0  0  0  0  0  0  0  0  0  0  0
    6.6957  -11.7762   24.4593 C   0  0  0  0  0  0  0  0  0  0  0  0
    7.3306  -12.9950   24.5346 C   0  0  0  0  0  0  0  0  0  0  0  0
    8.2748  -17.1118   24.1973 C   0  0  0  0  0  0  0  0  0  0  0  0
    8.4560  -18.0535   25.0097 O   0  0  0  0  0  0  0  0  0  0  0  0
    9.1721  -16.9553   23.1022 N   0  0  0  0  0  0  0  0  0  0  0  0
   10.3903  -17.7035   23.0067 C   0  0  1  0  0  0  0  0  0  0  0  0
   10.8815  -17.9452   21.6087 C   0  0  0  0  0  0  0  0  0  0  0  0
   10.4345  -16.9974   20.5625 C   0  0  0  0  0  0  0  0  0  0  0  0
   11.1560  -17.2086   19.3059 C   0  0  0  0  0  0  0  0  0  0  0  0
   12.0038  -18.1358   19.2524 O   0  0  0  0  0  0  0  0  0  0  0  0
   11.4894  -17.2114   23.8671 C   0  0  0  0  0  0  0  0  0  0  0  0
   12.0703  -16.1251   23.5744 O   0  0  0  0  0  0  0  0  0  0  0  0
   10.9358  -16.4253   18.1824 O   0  0  0  0  0  0  0  0  0  0  0  0
   11.9536  -17.8898   25.0260 N   0  0  0  0  0  0  0  0  0  0  0  0
   11.9271  -17.2075   26.3252 C   0  0  1  0  0  0  0  0  0  0  0  0
   10.5719  -16.6969   26.6573 C   0  0  0  0  0  0  0  0  0  0  0  0
   10.5854  -16.0145   27.9610 C   0  0  0  0  0  0  0  0  0  0  0  0
   10.4093  -16.5386   29.2199 C   0  0  0  0  0  0  0  0  0  0  0  0
   10.4606  -15.5760   30.1495 N   0  0  0  0  0  0  0  0  0  0  0  0
   10.6703  -14.4172   29.5012 C   0  0  0  0  0  0  0  0  0  0  0  0
   10.7461  -14.6759   28.1824 N   0  0  0  0  0  0  0  0  0  0  0  0
   12.3744  -18.1932   27.3179 C   0  0  0  0  0  0  0  0  0  0  0  0
   13.0866  -17.8613   28.2895 O   0  0  0  0  0  0  0  0  0  0  0  0
   12.0359  -19.5359   27.2358 O   0  0  0  0  0  0  0  0  0  0  0  0
  2  1  1  1
  2  3  1  0
  2 10  1  0
  3  4  1  0
  4  9  1  0
  4  5  2  0
  5  6  1  0
  6  7  2  0
  8  7  1  0
  9  8  2  0
 10 11  2  0
 12 13  1  0
 12 10  1  0
 14 15  1  0
 13 14  1  6
 16 20  1  0
 16 15  1  0
 17 16  2  0
 18 13  1  0
 18 21  1  0
 19 18  2  0
 22 21  1  0
 22 23  1  1
 24 23  1  0
 25 24  2  0
 26 25  1  0
 27 26  1  0
 27 28  2  0
 28 24  1  0
 29 22  1  0
 30 29  2  0
 31 29  1  0
M  END
$$$$
