HWD.pdb
     RDKit          3D

 33 35  0  0  1  0  0  0  0  0999 V2000
   14.7211  -20.5200    3.4349 N   0  0  0  0  0  0  0  0  0  0  0  0
   14.5263  -19.8304    4.6961 C   0  0  1  0  0  0  0  0  0  0  0  0
   14.1673  -20.7555    5.8103 C   0  0  0  0  0  0  0  0  0  0  0  0
   12.8924  -21.4723    5.5576 C   0  0  0  0  0  0  0  0  0  0  0  0
   12.8101  -22.8302    5.2848 C   0  0  0  0  0  0  0  0  0  0  0  0
   11.5229  -23.1710    5.1037 N   0  0  0  0  0  0  0  0  0  0  0  0
   10.7995  -22.0500    5.2585 C   0  0  0  0  0  0  0  0  0  0  0  0
   11.6341  -21.0340    5.5314 N   0  0  0  0  0  0  0  0  0  0  0  0
   15.7585  -19.0691    5.0857 C   0  0  0  0  0  0  0  0  0  0  0  0
   16.9014  -19.4845    4.7732 O   0  0  0  0  0  0  0  0  0  0  0  0
   15.5841  -17.8713    5.8145 N   0  0  0  0  0  0  0  0  0  0  0  0
   16.6805  -17.0151    6.2253 C   0  0  1  0  0  0  0  0  0  0  0  0
   16.3688  -15.5623    6.0206 C   0  0  0  0  0  0  0  0  0  0  0  0
   17.1634  -14.8756    5.0088 C   0  0  0  0  0  0  0  0  0  0  0  0
   17.1782  -15.2249    3.6559 C   0  0  0  0  0  0  0  0  0  0  0  0
   18.0495  -14.3832    3.0825 N   0  0  0  0  0  0  0  0  0  0  0  0
   18.5739  -13.5397    3.9771 C   0  0  0  0  0  0  0  0  0  0  0  0
   19.4921  -12.5021    3.8448 C   0  0  0  0  0  0  0  0  0  0  0  0
   19.8624  -11.7540    4.9509 C   0  0  0  0  0  0  0  0  0  0  0  0
   19.3233  -12.0303    6.1997 C   0  0  0  0  0  0  0  0  0  0  0  0
   18.4226  -13.0538    6.3136 C   0  0  0  0  0  0  0  0  0  0  0  0
   18.0399  -13.8118    5.2280 C   0  0  0  0  0  0  0  0  0  0  0  0
   17.2566  -17.3251    7.5187 C   0  0  0  0  0  0  0  0  0  0  0  0
   16.4800  -17.4215    8.5115 O   0  0  0  0  0  0  0  0  0  0  0  0
   18.6238  -17.5340    7.7853 N   0  0  0  0  0  0  0  0  0  0  0  0
   19.1561  -17.8800    9.1143 C   0  0  1  0  0  0  0  0  0  0  0  0
   20.5007  -18.5119    9.0016 C   0  0  0  0  0  0  0  0  0  0  0  0
   20.9815  -18.9463   10.3242 C   0  0  0  0  0  0  0  0  0  0  0  0
   20.2482  -18.8597   11.3357 O   0  0  0  0  0  0  0  0  0  0  0  0
   19.2220  -16.6173    9.8694 C   0  0  0  0  0  0  0  0  0  0  0  0
   19.5649  -15.4215    9.2794 O   0  0  0  0  0  0  0  0  0  0  0  0
   22.2542  -19.4595   10.4773 O   0  0  0  0  0  0  0  0  0  0  0  0
   18.9574  -16.6239   11.0937 O   0  0  0  0  0  0  0  0  0  0  0  0
  2  1  1  6
  2  3  1  0
  3  4  1  0
  4  8  1  0
  5  4  2  0
  5  6  1  0
  6  7  1  0
  8  7  2  0
  9  2  1  0
  9 10  2  0
 11  9  1  0
 12 13  1  1
 12 11  1  0
 14 13  1  0
 14 15  2  0
 16 15  1  0
 17 16  1  0
 18 17  2  0
 19 18  1  0
 20 19  2  0
 20 21  1  0
 21 22  2  0
 22 17  1  0
 22 14  1  0
 23 12  1  0
 24 23  2  0
 25 23  1  0
 26 30  1  0
 26 25  1  0
 26 27  1  6
 28 27  1  0
 28 29  2  0
 30 31  1  0
 32 28  1  0
 33 30  2  0
M  END
$$$$
