HWD.pdb
     RDKit          3D

 33 35  0  0  1  0  0  0  0  0999 V2000
   28.7743  -20.9613  -16.1336 N   0  0  0  0  0  0  0  0  0  0  0  0
   28.0494  -20.2693  -15.0848 C   0  0  1  0  0  0  0  0  0  0  0  0
   27.6014  -18.9066  -15.4953 C   0  0  0  0  0  0  0  0  0  0  0  0
   28.7324  -18.0509  -15.9331 C   0  0  0  0  0  0  0  0  0  0  0  0
   28.7626  -17.3679  -17.1405 C   0  0  0  0  0  0  0  0  0  0  0  0
   29.9174  -16.6877  -17.2387 N   0  0  0  0  0  0  0  0  0  0  0  0
   30.6091  -16.9335  -16.1140 C   0  0  0  0  0  0  0  0  0  0  0  0
   29.8863  -17.7550  -15.3356 N   0  0  0  0  0  0  0  0  0  0  0  0
   26.8480  -21.0576  -14.6547 C   0  0  0  0  0  0  0  0  0  0  0  0
   26.1663  -21.7040  -15.4878 O   0  0  0  0  0  0  0  0  0  0  0  0
   26.5147  -21.0450  -13.2818 N   0  0  0  0  0  0  0  0  0  0  0  0
   25.3209  -21.6659  -12.7401 C   0  0  1  0  0  0  0  0  0  0  0  0
   25.5506  -22.2287  -11.3689 C   0  0  0  0  0  0  0  0  0  0  0  0
   26.0578  -21.2930  -10.3719 C   0  0  0  0  0  0  0  0  0  0  0  0
   25.2627  -20.3658   -9.6932 C   0  0  0  0  0  0  0  0  0  0  0  0
   26.1066  -19.6857   -8.9048 N   0  0  0  0  0  0  0  0  0  0  0  0
   27.3625  -20.1220   -9.0434 C   0  0  0  0  0  0  0  0  0  0  0  0
   28.5506  -19.7350   -8.4303 C   0  0  0  0  0  0  0  0  0  0  0  0
   29.7384  -20.3748   -8.7463 C   0  0  0  0  0  0  0  0  0  0  0  0
   29.7566  -21.4060   -9.6752 C   0  0  0  0  0  0  0  0  0  0  0  0
   28.5807  -21.7743  -10.2696 C   0  0  0  0  0  0  0  0  0  0  0  0
   27.3875  -21.1521   -9.9719 C   0  0  0  0  0  0  0  0  0  0  0  0
   24.1054  -20.8872  -12.8693 C   0  0  0  0  0  0  0  0  0  0  0  0
   23.7561  -20.1581  -11.8973 O   0  0  0  0  0  0  0  0  0  0  0  0
   23.2567  -20.8610  -13.9932 N   0  0  0  0  0  0  0  0  0  0  0  0
   21.8434  -21.2745  -13.9628 C   0  0  1  0  0  0  0  0  0  0  0  0
   21.7202  -22.7285  -13.6619 C   0  0  0  0  0  0  0  0  0  0  0  0
   20.3036  -23.1278  -13.6066 C   0  0  0  0  0  0  0  0  0  0  0  0
   19.4524  -22.5840  -14.3468 O   0  0  0  0  0  0  0  0  0  0  0  0
   21.2012  -20.4577  -12.9191 C   0  0  0  0  0  0  0  0  0  0  0  0
   20.1822  -19.5742  -13.1959 O   0  0  0  0  0  0  0  0  0  0  0  0
   19.8830  -24.1129  -12.7351 O   0  0  0  0  0  0  0  0  0  0  0  0
   21.5913  -20.5656  -11.7336 O   0  0  0  0  0  0  0  0  0  0  0  0
  2  1  1  6
  2  3  1  0
  3  4  1  0
  4  8  1  0
  5  4  2  0
  5  6  1  0
  6  7  1  0
  8  7  2  0
  9  2  1  0
  9 10  2  0
 11  9  1  0
 12 13  1  1
 12 11  1  0
 14 13  1  0
 14 15  2  0
 16 15  1  0
 17 16  1  0
 18 17  2  0
 19 18  1  0
 20 19  2  0
 20 21  1  0
 21 22  2  0
 22 17  1  0
 22 14  1  0
 23 12  1  0
 24 23  2  0
 25 23  1  0
 26 30  1  0
 26 25  1  0
 26 27  1  1
 28 27  1  0
 28 29  2  0
 30 31  1  0
 32 28  1  0
 33 30  2  0
M  END
$$$$
