HWD.pdb
     RDKit          3D

 33 35  0  0  1  0  0  0  0  0999 V2000
   28.2024  -22.9506  -16.9484 N   0  0  0  0  0  0  0  0  0  0  0  0
   27.6663  -21.6521  -16.5869 C   0  0  1  0  0  0  0  0  0  0  0  0
   26.8694  -21.0307  -17.6846 C   0  0  0  0  0  0  0  0  0  0  0  0
   27.6930  -20.7468  -18.8863 C   0  0  0  0  0  0  0  0  0  0  0  0
   28.2030  -19.4940  -19.1954 C   0  0  0  0  0  0  0  0  0  0  0  0
   28.9006  -19.5674  -20.3417 N   0  0  0  0  0  0  0  0  0  0  0  0
   28.8355  -20.8440  -20.7542 C   0  0  0  0  0  0  0  0  0  0  0  0
   28.1064  -21.5446  -19.8705 N   0  0  0  0  0  0  0  0  0  0  0  0
   26.8010  -21.7513  -15.3658 C   0  0  0  0  0  0  0  0  0  0  0  0
   25.7030  -22.3595  -15.3987 O   0  0  0  0  0  0  0  0  0  0  0  0
   27.2674  -21.1370  -14.1820 N   0  0  0  0  0  0  0  0  0  0  0  0
   26.5503  -21.1754  -12.9218 C   0  0  1  0  0  0  0  0  0  0  0  0
   27.3951  -20.6996  -11.7775 C   0  0  0  0  0  0  0  0  0  0  0  0
   26.7227  -20.5968  -10.4874 C   0  0  0  0  0  0  0  0  0  0  0  0
   25.3346  -20.5815  -10.3278 C   0  0  0  0  0  0  0  0  0  0  0  0
   25.1314  -20.4417   -9.0105 N   0  0  0  0  0  0  0  0  0  0  0  0
   26.2874  -20.3702   -8.3433 C   0  0  0  0  0  0  0  0  0  0  0  0
   26.5673  -20.2405   -6.9861 C   0  0  0  0  0  0  0  0  0  0  0  0
   27.8806  -20.2083   -6.5453 C   0  0  0  0  0  0  0  0  0  0  0  0
   28.9289  -20.3049   -7.4499 C   0  0  0  0  0  0  0  0  0  0  0  0
   28.6375  -20.4312   -8.7807 C   0  0  0  0  0  0  0  0  0  0  0  0
   27.3394  -20.4647   -9.2424 C   0  0  0  0  0  0  0  0  0  0  0  0
   25.2152  -20.6121  -12.9521 C   0  0  0  0  0  0  0  0  0  0  0  0
   25.0924  -19.3779  -13.1967 O   0  0  0  0  0  0  0  0  0  0  0  0
   24.0160  -21.3173  -12.7319 N   0  0  0  0  0  0  0  0  0  0  0  0
   22.6763  -20.7346  -12.9192 C   0  0  1  0  0  0  0  0  0  0  0  0
   21.9179  -21.4695  -13.9702 C   0  0  0  0  0  0  0  0  0  0  0  0
   20.8574  -20.6178  -14.5350 C   0  0  0  0  0  0  0  0  0  0  0  0
   20.6483  -19.4678  -14.0858 O   0  0  0  0  0  0  0  0  0  0  0  0
   22.0037  -20.8284  -11.6124 C   0  0  0  0  0  0  0  0  0  0  0  0
   21.3310  -19.7666  -11.0506 O   0  0  0  0  0  0  0  0  0  0  0  0
   20.0693  -21.0706  -15.5746 O   0  0  0  0  0  0  0  0  0  0  0  0
   22.0408  -21.9110  -10.9833 O   0  0  0  0  0  0  0  0  0  0  0  0
  2  1  1  6
  2  3  1  0
  3  4  1  0
  4  8  1  0
  5  4  2  0
  5  6  1  0
  6  7  1  0
  8  7  2  0
  9  2  1  0
  9 10  2  0
 11  9  1  0
 12 13  1  1
 12 11  1  0
 14 13  1  0
 14 15  2  0
 16 15  1  0
 17 16  1  0
 18 17  2  0
 19 18  1  0
 20 19  2  0
 20 21  1  0
 21 22  2  0
 22 17  1  0
 22 14  1  0
 23 12  1  0
 24 23  2  0
 25 23  1  0
 26 30  1  0
 26 25  1  0
 26 27  1  6
 28 27  1  0
 28 29  2  0
 30 31  1  0
 32 28  1  0
 33 30  2  0
M  END
$$$$
