HWD.pdb
     RDKit          3D

 33 35  0  0  1  0  0  0  0  0999 V2000
   27.6764  -22.2386  -16.4367 N   0  0  0  0  0  0  0  0  0  0  0  0
   26.7972  -21.1155  -16.1726 C   0  0  1  0  0  0  0  0  0  0  0  0
   25.9886  -20.7230  -17.3634 C   0  0  0  0  0  0  0  0  0  0  0  0
   26.7911  -19.9832  -18.3693 C   0  0  0  0  0  0  0  0  0  0  0  0
   26.7770  -18.6025  -18.5056 C   0  0  0  0  0  0  0  0  0  0  0  0
   27.6059  -18.2447  -19.5010 N   0  0  0  0  0  0  0  0  0  0  0  0
   28.1376  -19.3774  -19.9889 C   0  0  0  0  0  0  0  0  0  0  0  0
   27.6402  -20.4173  -19.3002 N   0  0  0  0  0  0  0  0  0  0  0  0
   25.8622  -21.4223  -15.0405 C   0  0  0  0  0  0  0  0  0  0  0  0
   25.4101  -22.5813  -14.8710 O   0  0  0  0  0  0  0  0  0  0  0  0
   25.5119  -20.3613  -14.1757 N   0  0  0  0  0  0  0  0  0  0  0  0
   24.7298  -20.5364  -12.9667 C   0  0  1  0  0  0  0  0  0  0  0  0
   25.2797  -19.7421  -11.8194 C   0  0  0  0  0  0  0  0  0  0  0  0
   26.2945  -20.4077  -11.0108 C   0  0  0  0  0  0  0  0  0  0  0  0
   26.0395  -21.0111   -9.7765 C   0  0  0  0  0  0  0  0  0  0  0  0
   27.2265  -21.4679   -9.3539 N   0  0  0  0  0  0  0  0  0  0  0  0
   28.1958  -21.1939  -10.2327 C   0  0  0  0  0  0  0  0  0  0  0  0
   29.5578  -21.4803  -10.2289 C   0  0  0  0  0  0  0  0  0  0  0  0
   30.3547  -21.0916  -11.2938 C   0  0  0  0  0  0  0  0  0  0  0  0
   29.8049  -20.4141  -12.3733 C   0  0  0  0  0  0  0  0  0  0  0  0
   28.4647  -20.1393  -12.3619 C   0  0  0  0  0  0  0  0  0  0  0  0
   27.6527  -20.5153  -11.3136 C   0  0  0  0  0  0  0  0  0  0  0  0
   23.2948  -20.4242  -13.1364 C   0  0  0  0  0  0  0  0  0  0  0  0
   22.8390  -19.3925  -13.7074 O   0  0  0  0  0  0  0  0  0  0  0  0
   22.3374  -21.3698  -12.7201 N   0  0  0  0  0  0  0  0  0  0  0  0
   20.8918  -21.2364  -12.9688 C   0  0  1  0  0  0  0  0  0  0  0  0
   20.2620  -22.5704  -13.1778 C   0  0  0  0  0  0  0  0  0  0  0  0
   19.9603  -22.7833  -14.6036 C   0  0  0  0  0  0  0  0  0  0  0  0
   19.8242  -21.8136  -15.3842 O   0  0  0  0  0  0  0  0  0  0  0  0
   20.3338  -20.5631  -11.7838 C   0  0  0  0  0  0  0  0  0  0  0  0
   19.0516  -20.0626  -11.7546 O   0  0  0  0  0  0  0  0  0  0  0  0
   19.8209  -24.0600  -15.1110 O   0  0  0  0  0  0  0  0  0  0  0  0
   21.0464  -20.4378  -10.7612 O   0  0  0  0  0  0  0  0  0  0  0  0
  2  1  1  6
  2  3  1  0
  3  4  1  0
  4  8  1  0
  5  4  2  0
  5  6  1  0
  6  7  1  0
  8  7  2  0
  9  2  1  0
  9 10  2  0
 11  9  1  0
 12 13  1  1
 12 11  1  0
 14 13  1  0
 14 15  2  0
 16 15  1  0
 17 16  1  0
 18 17  2  0
 19 18  1  0
 20 19  2  0
 20 21  1  0
 21 22  2  0
 22 17  1  0
 22 14  1  0
 23 12  1  0
 24 23  2  0
 25 23  1  0
 26 30  1  0
 26 25  1  0
 26 27  1  1
 28 27  1  0
 28 29  2  0
 30 31  1  0
 32 28  1  0
 33 30  2  0
M  END
$$$$
