HWD.pdb
     RDKit          3D

 33 35  0  0  1  0  0  0  0  0999 V2000
   27.0124  -21.7183  -14.4470 N   0  0  0  0  0  0  0  0  0  0  0  0
   26.2802  -20.6764  -13.7522 C   0  0  1  0  0  0  0  0  0  0  0  0
   25.2778  -19.9964  -14.6232 C   0  0  0  0  0  0  0  0  0  0  0  0
   25.9139  -19.2620  -15.7453 C   0  0  0  0  0  0  0  0  0  0  0  0
   27.2832  -19.2232  -15.9660 C   0  0  0  0  0  0  0  0  0  0  0  0
   27.5379  -18.4784  -17.0553 N   0  0  0  0  0  0  0  0  0  0  0  0
   26.3520  -18.0513  -17.5189 C   0  0  0  0  0  0  0  0  0  0  0  0
   25.3818  -18.5290  -16.7228 N   0  0  0  0  0  0  0  0  0  0  0  0
   25.5721  -21.2298  -12.5513 C   0  0  0  0  0  0  0  0  0  0  0  0
   25.0212  -22.3574  -12.5878 O   0  0  0  0  0  0  0  0  0  0  0  0
   25.5494  -20.4366  -11.3823 N   0  0  0  0  0  0  0  0  0  0  0  0
   24.8140  -20.7939  -10.1842 C   0  0  1  0  0  0  0  0  0  0  0  0
   25.4175  -20.1902   -8.9509 C   0  0  0  0  0  0  0  0  0  0  0  0
   26.8182  -20.5119   -8.7028 C   0  0  0  0  0  0  0  0  0  0  0  0
   27.5997  -21.3060   -9.5461 C   0  0  0  0  0  0  0  0  0  0  0  0
   28.7972  -21.3839   -8.9493 N   0  0  0  0  0  0  0  0  0  0  0  0
   28.8162  -20.6982   -7.8021 C   0  0  0  0  0  0  0  0  0  0  0  0
   29.8247  -20.4849   -6.8669 C   0  0  0  0  0  0  0  0  0  0  0  0
   29.5840  -19.7028   -5.7485 C   0  0  0  0  0  0  0  0  0  0  0  0
   28.3379  -19.1250   -5.5490 C   0  0  0  0  0  0  0  0  0  0  0  0
   27.3568  -19.3446   -6.4769 C   0  0  0  0  0  0  0  0  0  0  0  0
   27.5727  -20.1192   -7.5962 C   0  0  0  0  0  0  0  0  0  0  0  0
   23.3747  -20.6502  -10.2756 C   0  0  0  0  0  0  0  0  0  0  0  0
   22.9111  -19.5981  -10.8013 O   0  0  0  0  0  0  0  0  0  0  0  0
   22.4211  -21.5853   -9.8281 N   0  0  0  0  0  0  0  0  0  0  0  0
   20.9807  -21.4911  -10.1210 C   0  0  1  0  0  0  0  0  0  0  0  0
   20.6777  -22.0215  -11.4800 C   0  0  0  0  0  0  0  0  0  0  0  0
   19.2296  -21.9718  -11.7444 C   0  0  0  0  0  0  0  0  0  0  0  0
   18.5380  -21.0019  -11.3585 O   0  0  0  0  0  0  0  0  0  0  0  0
   20.2996  -22.2767   -9.0779 C   0  0  0  0  0  0  0  0  0  0  0  0
   18.9315  -22.2695   -8.9236 O   0  0  0  0  0  0  0  0  0  0  0  0
   18.6025  -22.9965  -12.4252 O   0  0  0  0  0  0  0  0  0  0  0  0
   20.9839  -22.9796   -8.2990 O   0  0  0  0  0  0  0  0  0  0  0  0
  2  1  1  6
  2  3  1  0
  3  4  1  0
  4  8  1  0
  5  4  2  0
  5  6  1  0
  6  7  1  0
  8  7  2  0
  9  2  1  0
  9 10  2  0
 11  9  1  0
 12 13  1  1
 12 11  1  0
 14 13  1  0
 14 15  2  0
 16 15  1  0
 17 16  1  0
 18 17  2  0
 19 18  1  0
 20 19  2  0
 20 21  1  0
 21 22  2  0
 22 17  1  0
 22 14  1  0
 23 12  1  0
 24 23  2  0
 25 23  1  0
 26 30  1  0
 26 25  1  0
 26 27  1  6
 28 27  1  0
 28 29  2  0
 30 31  1  0
 32 28  1  0
 33 30  2  0
M  END
$$$$
