HWD.pdb
     RDKit          3D

 33 35  0  0  1  0  0  0  0  0999 V2000
   26.5284  -17.0264  -19.5499 N   0  0  0  0  0  0  0  0  0  0  0  0
   26.2060  -17.8460  -18.3973 C   0  0  1  0  0  0  0  0  0  0  0  0
   27.4041  -18.1802  -17.5734 C   0  0  0  0  0  0  0  0  0  0  0  0
   28.4635  -18.8511  -18.3675 C   0  0  0  0  0  0  0  0  0  0  0  0
   28.5888  -20.2282  -18.4815 C   0  0  0  0  0  0  0  0  0  0  0  0
   29.6424  -20.5163  -19.2643 N   0  0  0  0  0  0  0  0  0  0  0  0
   30.1775  -19.3436  -19.6414 C   0  0  0  0  0  0  0  0  0  0  0  0
   29.4598  -18.3483  -19.0959 N   0  0  0  0  0  0  0  0  0  0  0  0
   25.1985  -17.1636  -17.5203 C   0  0  0  0  0  0  0  0  0  0  0  0
   25.5613  -16.4207  -16.5753 O   0  0  0  0  0  0  0  0  0  0  0  0
   23.8314  -17.3877  -17.7978 N   0  0  0  0  0  0  0  0  0  0  0  0
   22.7500  -16.8029  -17.0281 C   0  0  1  0  0  0  0  0  0  0  0  0
   22.4259  -15.4097  -17.4793 C   0  0  0  0  0  0  0  0  0  0  0  0
   22.2608  -15.2267  -18.9167 C   0  0  0  0  0  0  0  0  0  0  0  0
   23.2126  -15.6038  -19.8677 C   0  0  0  0  0  0  0  0  0  0  0  0
   22.6975  -15.2359  -21.0491 N   0  0  0  0  0  0  0  0  0  0  0  0
   21.4999  -14.6610  -20.9015 C   0  0  0  0  0  0  0  0  0  0  0  0
   20.5996  -14.1444  -21.8287 C   0  0  0  0  0  0  0  0  0  0  0  0
   19.3935  -13.6091  -21.4056 C   0  0  0  0  0  0  0  0  0  0  0  0
   19.0706  -13.5823  -20.0559 C   0  0  0  0  0  0  0  0  0  0  0  0
   19.9663  -14.0933  -19.1568 C   0  0  0  0  0  0  0  0  0  0  0  0
   21.1720  -14.6299  -19.5541 C   0  0  0  0  0  0  0  0  0  0  0  0
   21.5919  -17.6542  -16.8422 C   0  0  0  0  0  0  0  0  0  0  0  0
   21.3415  -18.5242  -17.7246 O   0  0  0  0  0  0  0  0  0  0  0  0
   20.6989  -17.6082  -15.7539 N   0  0  0  0  0  0  0  0  0  0  0  0
   19.5447  -18.5104  -15.6020 C   0  0  1  0  0  0  0  0  0  0  0  0
   18.8107  -18.6579  -16.8902 C   0  0  0  0  0  0  0  0  0  0  0  0
   17.3690  -18.4293  -16.6941 C   0  0  0  0  0  0  0  0  0  0  0  0
   16.9134  -18.1226  -15.5688 O   0  0  0  0  0  0  0  0  0  0  0  0
   20.0916  -19.8007  -15.1491 C   0  0  0  0  0  0  0  0  0  0  0  0
   21.4347  -19.9914  -14.9142 O   0  0  0  0  0  0  0  0  0  0  0  0
   16.4871  -18.5487  -17.7499 O   0  0  0  0  0  0  0  0  0  0  0  0
   19.3119  -20.7643  -14.9689 O   0  0  0  0  0  0  0  0  0  0  0  0
  2  1  1  6
  2  3  1  0
  3  4  1  0
  4  8  1  0
  5  4  2  0
  5  6  1  0
  6  7  1  0
  8  7  2  0
  9  2  1  0
  9 10  2  0
 11  9  1  0
 12 13  1  6
 12 11  1  0
 14 13  1  0
 14 15  2  0
 16 15  1  0
 17 16  1  0
 18 17  2  0
 19 18  1  0
 20 19  2  0
 20 21  1  0
 21 22  2  0
 22 17  1  0
 22 14  1  0
 23 12  1  0
 24 23  2  0
 25 23  1  0
 26 30  1  0
 26 25  1  0
 26 27  1  6
 28 27  1  0
 28 29  2  0
 30 31  1  0
 32 28  1  0
 33 30  2  0
M  END
$$$$
