WNK.pdb
     RDKit          3D

 32 33  0  0  1  0  0  0  0  0999 V2000
    8.6168  -16.1239   24.5431 N   0  0  0  0  0  0  0  0  0  0  0  0
    7.3930  -16.2943   23.7572 C   0  0  1  0  0  0  0  0  0  0  0  0
    6.2860  -15.4320   24.3220 C   0  0  0  0  0  0  0  0  0  0  0  0
    6.7145  -14.8647   25.6204 C   0  0  0  0  0  0  0  0  0  0  0  0
    7.1607  -15.5365   26.7365 C   0  0  0  0  0  0  0  0  0  0  0  0
    7.4462  -14.6458   27.7191 N   0  0  0  0  0  0  0  0  0  0  0  0
    7.2036  -13.4070   27.2899 C   0  0  0  0  0  0  0  0  0  0  0  0
    7.3319  -12.1784   27.9012 C   0  0  0  0  0  0  0  0  0  0  0  0
    6.9903  -11.0618   27.1705 C   0  0  0  0  0  0  0  0  0  0  0  0
    6.5351  -11.1616   25.8721 C   0  0  0  0  0  0  0  0  0  0  0  0
    6.4142  -12.4050   25.2790 C   0  0  0  0  0  0  0  0  0  0  0  0
    6.7472  -13.5210   25.9856 C   0  0  0  0  0  0  0  0  0  0  0  0
    7.6187  -15.8940   22.3499 C   0  0  0  0  0  0  0  0  0  0  0  0
    6.7450  -16.0812   21.4972 O   0  0  0  0  0  0  0  0  0  0  0  0
    7.9396  -12.6643   19.4730 N   0  0  0  0  0  0  0  0  0  0  0  0
    8.5188  -13.9259   19.2529 C   0  0  0  0  0  0  0  0  0  0  0  0
    8.0057  -14.7001   18.4192 O   0  0  0  0  0  0  0  0  0  0  0  0
    9.7165  -14.3393   19.9921 C   0  0  0  0  0  0  0  0  0  0  0  0
    9.5825  -15.5836   20.7927 C   0  0  2  0  0  0  0  0  0  0  0  0
    8.8531  -15.2952   22.0051 N   0  0  0  0  0  0  0  0  0  0  0  0
   10.8807  -16.1736   21.1925 C   0  0  0  0  0  0  0  0  0  0  0  0
   11.5836  -15.6121   22.0672 O   0  0  0  0  0  0  0  0  0  0  0  0
   11.4007  -17.3672   20.6368 N   0  0  0  0  0  0  0  0  0  0  0  0
   12.6039  -18.0303   21.1928 C   0  0  1  0  0  0  0  0  0  0  0  0
   12.3420  -19.4785   21.4002 C   0  0  0  0  0  0  0  0  0  0  0  0
   13.5919  -20.1956   21.8198 C   0  0  0  0  0  0  0  0  0  0  0  0
   13.2781  -21.6609   22.1167 C   0  0  0  0  0  0  0  0  0  0  0  0
   14.5026  -22.4091   22.5512 C   0  0  0  0  0  0  0  0  0  0  0  0
   14.1747  -23.7966   22.7495 N   0  0  0  0  0  0  0  0  0  0  0  0
   13.6784  -17.8271   20.2067 C   0  0  0  0  0  0  0  0  0  0  0  0
   13.5122  -17.7012   18.9636 O   0  0  0  0  0  0  0  0  0  0  0  0
   15.0082  -17.7648   20.6648 O   0  0  0  0  0  0  0  0  0  0  0  0
  2  1  1  1
  2  3  1  0
  3  4  1  0
  4  5  2  0
  5  6  1  0
  7  8  2  0
  7  6  1  0
  9  8  1  0
 10  9  2  0
 11 10  1  0
 11 12  2  0
 12  4  1  0
 12  7  1  0
 13  2  1  0
 13 20  1  0
 14 13  2  0
 15 16  1  0
 16 18  1  0
 16 17  2  0
 19 20  1  0
 19 18  1  1
 21 19  1  0
 22 21  2  0
 23 21  1  0
 24 23  1  0
 24 25  1  6
 25 26  1  0
 27 26  1  0
 27 28  1  0
 28 29  1  0
 30 24  1  0
 30 32  1  0
 31 30  2  0
M  END
$$$$
