WNK.pdb
     RDKit          3D

 32 33  0  0  1  0  0  0  0  0999 V2000
    6.4786  -17.3834   23.3002 N   0  0  0  0  0  0  0  0  0  0  0  0
    7.7099  -16.5914   23.2694 C   0  0  1  0  0  0  0  0  0  0  0  0
    8.2590  -16.4259   24.6691 C   0  0  0  0  0  0  0  0  0  0  0  0
    7.3952  -15.4974   25.4327 C   0  0  0  0  0  0  0  0  0  0  0  0
    6.3388  -15.8050   26.2608 C   0  0  0  0  0  0  0  0  0  0  0  0
    5.8075  -14.6623   26.7630 N   0  0  0  0  0  0  0  0  0  0  0  0
    6.4773  -13.6090   26.2945 C   0  0  0  0  0  0  0  0  0  0  0  0
    6.3280  -12.2548   26.5033 C   0  0  0  0  0  0  0  0  0  0  0  0
    7.2015  -11.4080   25.8572 C   0  0  0  0  0  0  0  0  0  0  0  0
    8.1933  -11.8907   25.0288 C   0  0  0  0  0  0  0  0  0  0  0  0
    8.3245  -13.2535   24.8340 C   0  0  0  0  0  0  0  0  0  0  0  0
    7.4700  -14.1070   25.4643 C   0  0  0  0  0  0  0  0  0  0  0  0
    8.7399  -17.2632   22.4450 C   0  0  0  0  0  0  0  0  0  0  0  0
    8.7030  -18.4852   22.2692 O   0  0  0  0  0  0  0  0  0  0  0  0
    9.8472  -17.0046   18.6907 N   0  0  0  0  0  0  0  0  0  0  0  0
   10.8877  -16.1005   18.9657 C   0  0  0  0  0  0  0  0  0  0  0  0
   11.2814  -15.3264   18.0693 O   0  0  0  0  0  0  0  0  0  0  0  0
   11.5127  -16.0589   20.2921 C   0  0  0  0  0  0  0  0  0  0  0  0
   10.9722  -17.0179   21.2897 C   0  0  2  0  0  0  0  0  0  0  0  0
    9.7636  -16.4771   21.8661 N   0  0  0  0  0  0  0  0  0  0  0  0
   11.9029  -17.2980   22.4071 C   0  0  0  0  0  0  0  0  0  0  0  0
   13.0555  -17.7344   22.1709 O   0  0  0  0  0  0  0  0  0  0  0  0
   11.5705  -17.1011   23.7689 N   0  0  0  0  0  0  0  0  0  0  0  0
   12.4455  -17.5794   24.8654 C   0  0  1  0  0  0  0  0  0  0  0  0
   11.6257  -18.1702   25.9553 C   0  0  0  0  0  0  0  0  0  0  0  0
   12.4762  -18.9846   26.8858 C   0  0  0  0  0  0  0  0  0  0  0  0
   12.0255  -18.7677   28.3293 C   0  0  0  0  0  0  0  0  0  0  0  0
   12.8796  -19.5343   29.2940 C   0  0  0  0  0  0  0  0  0  0  0  0
   12.3186  -19.4386   30.6161 N   0  0  0  0  0  0  0  0  0  0  0  0
   13.3351  -18.5907   24.2705 C   0  0  0  0  0  0  0  0  0  0  0  0
   14.5948  -18.5474   24.2771 O   0  0  0  0  0  0  0  0  0  0  0  0
   12.7556  -19.7065   23.6371 O   0  0  0  0  0  0  0  0  0  0  0  0
  2  1  1  1
  2  3  1  0
  3  4  1  0
  4  5  2  0
  5  6  1  0
  7  8  2  0
  7  6  1  0
  9  8  1  0
 10  9  2  0
 11 10  1  0
 11 12  2  0
 12  4  1  0
 12  7  1  0
 13  2  1  0
 13 20  1  0
 14 13  2  0
 15 16  1  0
 16 18  1  0
 16 17  2  0
 19 20  1  0
 19 18  1  6
 21 19  1  0
 22 21  2  0
 23 21  1  0
 24 23  1  0
 24 25  1  1
 25 26  1  0
 27 26  1  0
 27 28  1  0
 28 29  1  0
 30 24  1  0
 30 32  1  0
 31 30  2  0
M  END
$$$$
