WNK.pdb
     RDKit          3D

 32 33  0  0  1  0  0  0  0  0999 V2000
    6.3389  -18.4053   24.2963 N   0  0  0  0  0  0  0  0  0  0  0  0
    6.8800  -17.0498   24.1781 C   0  0  1  0  0  0  0  0  0  0  0  0
    7.4866  -16.6137   25.4934 C   0  0  0  0  0  0  0  0  0  0  0  0
    6.8092  -15.3860   25.9678 C   0  0  0  0  0  0  0  0  0  0  0  0
    5.5019  -15.2390   26.3748 C   0  0  0  0  0  0  0  0  0  0  0  0
    5.2779  -13.9480   26.7263 N   0  0  0  0  0  0  0  0  0  0  0  0
    6.3937  -13.2362   26.5653 C   0  0  0  0  0  0  0  0  0  0  0  0
    6.6761  -11.9045   26.7805 C   0  0  0  0  0  0  0  0  0  0  0  0
    7.9553  -11.4703   26.5106 C   0  0  0  0  0  0  0  0  0  0  0  0
    8.9249  -12.3320   26.0413 C   0  0  0  0  0  0  0  0  0  0  0  0
    8.6188  -13.6644   25.8326 C   0  0  0  0  0  0  0  0  0  0  0  0
    7.3592  -14.1126   26.0938 C   0  0  0  0  0  0  0  0  0  0  0  0
    7.9367  -17.0001   23.1424 C   0  0  0  0  0  0  0  0  0  0  0  0
    8.6897  -17.9635   22.9686 O   0  0  0  0  0  0  0  0  0  0  0  0
    6.5374  -13.8506   19.6232 N   0  0  0  0  0  0  0  0  0  0  0  0
    7.6467  -14.7137   19.6352 C   0  0  0  0  0  0  0  0  0  0  0  0
    7.6641  -15.7019   18.8731 O   0  0  0  0  0  0  0  0  0  0  0  0
    8.7799  -14.4643   20.5327 C   0  0  0  0  0  0  0  0  0  0  0  0
    9.1465  -15.5861   21.4351 C   0  0  2  0  0  0  0  0  0  0  0  0
    8.0642  -15.8285   22.3598 N   0  0  0  0  0  0  0  0  0  0  0  0
   10.3611  -15.3253   22.2413 C   0  0  0  0  0  0  0  0  0  0  0  0
   10.3595  -14.4138   23.1037 O   0  0  0  0  0  0  0  0  0  0  0  0
   11.5642  -16.0579   22.1010 N   0  0  0  0  0  0  0  0  0  0  0  0
   12.4085  -16.4075   23.2678 C   0  0  1  0  0  0  0  0  0  0  0  0
   11.6617  -17.2996   24.1927 C   0  0  0  0  0  0  0  0  0  0  0  0
   12.5078  -17.6793   25.3726 C   0  0  0  0  0  0  0  0  0  0  0  0
   11.7339  -18.6285   26.2859 C   0  0  0  0  0  0  0  0  0  0  0  0
   12.4906  -18.9178   27.5475 C   0  0  0  0  0  0  0  0  0  0  0  0
   11.6443  -19.6372   28.4630 N   0  0  0  0  0  0  0  0  0  0  0  0
   13.5966  -17.0886   22.7267 C   0  0  0  0  0  0  0  0  0  0  0  0
   14.7026  -17.2057   23.3197 O   0  0  0  0  0  0  0  0  0  0  0  0
   13.5156  -17.6642   21.4444 O   0  0  0  0  0  0  0  0  0  0  0  0
  2  1  1  1
  2  3  1  0
  3  4  1  0
  4  5  2  0
  5  6  1  0
  7  8  2  0
  7  6  1  0
  9  8  1  0
 10  9  2  0
 11 10  1  0
 11 12  2  0
 12  4  1  0
 12  7  1  0
 13  2  1  0
 13 20  1  0
 14 13  2  0
 15 16  1  0
 16 18  1  0
 16 17  2  0
 19 20  1  0
 19 18  1  1
 21 19  1  0
 22 21  2  0
 23 21  1  0
 24 23  1  0
 24 25  1  1
 25 26  1  0
 27 26  1  0
 27 28  1  0
 28 29  1  0
 30 24  1  0
 30 32  1  0
 31 30  2  0
M  END
$$$$
