WNK.pdb
     RDKit          3D

 32 33  0  0  1  0  0  0  0  0999 V2000
    6.7245  -17.6020   24.2378 N   0  0  0  0  0  0  0  0  0  0  0  0
    7.6584  -16.5299   23.8874 C   0  0  1  0  0  0  0  0  0  0  0  0
    8.1708  -15.8543   25.1401 C   0  0  0  0  0  0  0  0  0  0  0  0
    7.1222  -14.9632   25.6857 C   0  0  0  0  0  0  0  0  0  0  0  0
    5.9454  -15.3158   26.3079 C   0  0  0  0  0  0  0  0  0  0  0  0
    5.2604  -14.1966   26.6521 N   0  0  0  0  0  0  0  0  0  0  0  0
    5.9451  -13.1154   26.2783 C   0  0  0  0  0  0  0  0  0  0  0  0
    5.6786  -11.7685   26.3996 C   0  0  0  0  0  0  0  0  0  0  0  0
    6.6093  -10.8849   25.8990 C   0  0  0  0  0  0  0  0  0  0  0  0
    7.7696  -11.3248   25.2963 C   0  0  0  0  0  0  0  0  0  0  0  0
    8.0160  -12.6811   25.1857 C   0  0  0  0  0  0  0  0  0  0  0  0
    7.1074  -13.5705   25.6747 C   0  0  0  0  0  0  0  0  0  0  0  0
    8.8196  -17.0730   23.1469 C   0  0  0  0  0  0  0  0  0  0  0  0
    9.1506  -18.2554   23.2802 O   0  0  0  0  0  0  0  0  0  0  0  0
   12.9735  -17.0813   19.9144 N   0  0  0  0  0  0  0  0  0  0  0  0
   12.0589  -16.0840   19.5343 C   0  0  0  0  0  0  0  0  0  0  0  0
   12.2139  -15.4907   18.4473 O   0  0  0  0  0  0  0  0  0  0  0  0
   10.9279  -15.7354   20.4011 C   0  0  0  0  0  0  0  0  0  0  0  0
   10.7661  -16.5726   21.6176 C   0  0  2  0  0  0  0  0  0  0  0  0
    9.5390  -16.2102   22.2871 N   0  0  0  0  0  0  0  0  0  0  0  0
   11.8641  -16.4113   22.5982 C   0  0  0  0  0  0  0  0  0  0  0  0
   12.2377  -15.2633   22.9404 O   0  0  0  0  0  0  0  0  0  0  0  0
   12.5440  -17.4995   23.1959 N   0  0  0  0  0  0  0  0  0  0  0  0
   13.5725  -17.2996   24.2441 C   0  0  1  0  0  0  0  0  0  0  0  0
   13.5840  -18.4551   25.1788 C   0  0  0  0  0  0  0  0  0  0  0  0
   12.3815  -18.4316   26.0765 C   0  0  0  0  0  0  0  0  0  0  0  0
   12.4144  -19.6293   27.0243 C   0  0  0  0  0  0  0  0  0  0  0  0
   11.2785  -19.5890   28.0021 C   0  0  0  0  0  0  0  0  0  0  0  0
   11.3460  -20.7375   28.8671 N   0  0  0  0  0  0  0  0  0  0  0  0
   14.8602  -17.1813   23.5398 C   0  0  0  0  0  0  0  0  0  0  0  0
   15.8249  -16.4556   23.9021 O   0  0  0  0  0  0  0  0  0  0  0  0
   15.0541  -17.9301   22.3635 O   0  0  0  0  0  0  0  0  0  0  0  0
  2  1  1  1
  2  3  1  0
  3  4  1  0
  4  5  2  0
  5  6  1  0
  7  8  2  0
  7  6  1  0
  9  8  1  0
 10  9  2  0
 11 10  1  0
 11 12  2  0
 12  4  1  0
 12  7  1  0
 13  2  1  0
 13 20  1  0
 14 13  2  0
 15 16  1  0
 16 18  1  0
 16 17  2  0
 19 20  1  0
 19 18  1  6
 21 19  1  0
 22 21  2  0
 23 21  1  0
 24 23  1  0
 24 25  1  1
 25 26  1  0
 27 26  1  0
 27 28  1  0
 28 29  1  0
 30 24  1  0
 30 32  1  0
 31 30  2  0
M  END
$$$$
