WNK.pdb
     RDKit          3D

 32 33  0  0  1  0  0  0  0  0999 V2000
    6.6771  -17.5827   24.0865 N   0  0  0  0  0  0  0  0  0  0  0  0
    7.7001  -16.5823   23.7751 C   0  0  1  0  0  0  0  0  0  0  0  0
    8.2905  -16.0251   25.0514 C   0  0  0  0  0  0  0  0  0  0  0  0
    7.3120  -15.1197   25.6949 C   0  0  0  0  0  0  0  0  0  0  0  0
    6.2197  -15.4555   26.4633 C   0  0  0  0  0  0  0  0  0  0  0  0
    5.5772  -14.3276   26.8572 N   0  0  0  0  0  0  0  0  0  0  0  0
    6.2081  -13.2568   26.3748 C   0  0  0  0  0  0  0  0  0  0  0  0
    5.9535  -11.9072   26.4908 C   0  0  0  0  0  0  0  0  0  0  0  0
    6.8142  -11.0373   25.8584 C   0  0  0  0  0  0  0  0  0  0  0  0
    7.8951  -11.4931   25.1326 C   0  0  0  0  0  0  0  0  0  0  0  0
    8.1312  -12.8518   25.0298 C   0  0  0  0  0  0  0  0  0  0  0  0
    7.2911  -13.7278   25.6482 C   0  0  0  0  0  0  0  0  0  0  0  0
    8.7957  -17.1876   22.9845 C   0  0  0  0  0  0  0  0  0  0  0  0
    9.1759  -18.3390   23.2194 O   0  0  0  0  0  0  0  0  0  0  0  0
    9.2583  -17.6988   18.8420 N   0  0  0  0  0  0  0  0  0  0  0  0
    9.9951  -16.5028   18.7945 C   0  0  0  0  0  0  0  0  0  0  0  0
   10.0642  -15.8664   17.7231 O   0  0  0  0  0  0  0  0  0  0  0  0
   10.6811  -15.9978   19.9887 C   0  0  0  0  0  0  0  0  0  0  0  0
   10.5559  -16.8379   21.2076 C   0  0  2  0  0  0  0  0  0  0  0  0
    9.3953  -16.4202   21.9585 N   0  0  0  0  0  0  0  0  0  0  0  0
   11.7222  -16.7426   22.1152 C   0  0  0  0  0  0  0  0  0  0  0  0
   12.0111  -15.6472   22.6548 O   0  0  0  0  0  0  0  0  0  0  0  0
   12.5619  -17.8390   22.4262 N   0  0  0  0  0  0  0  0  0  0  0  0
   13.6701  -17.7239   23.4036 C   0  0  1  0  0  0  0  0  0  0  0  0
   13.9369  -19.0430   24.0344 C   0  0  0  0  0  0  0  0  0  0  0  0
   12.8220  -19.4303   24.9614 C   0  0  0  0  0  0  0  0  0  0  0  0
   13.0099  -20.8722   25.4297 C   0  0  0  0  0  0  0  0  0  0  0  0
   12.0310  -21.2335   26.5064 C   0  0  0  0  0  0  0  0  0  0  0  0
   10.8395  -21.7795   25.9112 N   0  0  0  0  0  0  0  0  0  0  0  0
   14.8423  -17.2587   22.6437 C   0  0  0  0  0  0  0  0  0  0  0  0
   14.9259  -17.2161   21.3868 O   0  0  0  0  0  0  0  0  0  0  0  0
   15.9747  -16.8205   23.3564 O   0  0  0  0  0  0  0  0  0  0  0  0
  2  1  1  1
  2  3  1  0
  3  4  1  0
  4  5  2  0
  5  6  1  0
  7  8  2  0
  7  6  1  0
  9  8  1  0
 10  9  2  0
 11 10  1  0
 11 12  2  0
 12  4  1  0
 12  7  1  0
 13  2  1  0
 13 20  1  0
 14 13  2  0
 15 16  1  0
 16 18  1  0
 16 17  2  0
 19 20  1  0
 19 18  1  6
 21 19  1  0
 22 21  2  0
 23 21  1  0
 24 23  1  0
 24 25  1  6
 25 26  1  0
 27 26  1  0
 27 28  1  0
 28 29  1  0
 30 24  1  0
 30 32  1  0
 31 30  2  0
M  END
$$$$
