WNK.pdb
     RDKit          3D

 32 33  0  0  1  0  0  0  0  0999 V2000
    6.3460  -17.1539   23.4660 N   0  0  0  0  0  0  0  0  0  0  0  0
    7.1981  -16.0893   22.9324 C   0  0  1  0  0  0  0  0  0  0  0  0
    8.2582  -15.7133   23.9438 C   0  0  0  0  0  0  0  0  0  0  0  0
    7.6276  -15.0079   25.0823 C   0  0  0  0  0  0  0  0  0  0  0  0
    6.7513  -15.5137   26.0164 C   0  0  0  0  0  0  0  0  0  0  0  0
    6.4031  -14.5354   26.8893 N   0  0  0  0  0  0  0  0  0  0  0  0
    7.0200  -13.3992   26.5636 C   0  0  0  0  0  0  0  0  0  0  0  0
    6.9957  -12.1427   27.1294 C   0  0  0  0  0  0  0  0  0  0  0  0
    7.7625  -11.1613   26.5406 C   0  0  0  0  0  0  0  0  0  0  0  0
    8.5302  -11.4194   25.4239 C   0  0  0  0  0  0  0  0  0  0  0  0
    8.5391  -12.6879   24.8732 C   0  0  0  0  0  0  0  0  0  0  0  0
    7.7873  -13.6716   25.4413 C   0  0  0  0  0  0  0  0  0  0  0  0
    7.8772  -16.5374   21.6956 C   0  0  0  0  0  0  0  0  0  0  0  0
    7.9800  -17.7409   21.4379 O   0  0  0  0  0  0  0  0  0  0  0  0
    7.1015  -13.0898   18.7434 N   0  0  0  0  0  0  0  0  0  0  0  0
    7.6158  -14.3279   18.3211 C   0  0  0  0  0  0  0  0  0  0  0  0
    6.8946  -15.0966   17.6527 O   0  0  0  0  0  0  0  0  0  0  0  0
    8.9877  -14.7231   18.6581 C   0  0  0  0  0  0  0  0  0  0  0  0
    9.1167  -15.8641   19.6007 C   0  0  2  0  0  0  0  0  0  0  0  0
    8.4042  -15.5598   20.8193 N   0  0  0  0  0  0  0  0  0  0  0  0
   10.5169  -16.1670   19.9762 C   0  0  0  0  0  0  0  0  0  0  0  0
   11.3344  -16.5447   19.1024 O   0  0  0  0  0  0  0  0  0  0  0  0
   11.0129  -16.0563   21.2974 N   0  0  0  0  0  0  0  0  0  0  0  0
   12.4214  -16.3720   21.6338 C   0  0  1  0  0  0  0  0  0  0  0  0
   13.2770  -15.1725   21.4379 C   0  0  0  0  0  0  0  0  0  0  0  0
   13.8651  -15.1522   20.0573 C   0  0  0  0  0  0  0  0  0  0  0  0
   14.7837  -13.9418   19.8992 C   0  0  0  0  0  0  0  0  0  0  0  0
   15.3059  -13.8260   18.4986 C   0  0  0  0  0  0  0  0  0  0  0  0
   16.0028  -12.5759   18.3457 N   0  0  0  0  0  0  0  0  0  0  0  0
   12.4230  -16.7931   23.0447 C   0  0  0  0  0  0  0  0  0  0  0  0
   11.4469  -16.6939   23.8359 O   0  0  0  0  0  0  0  0  0  0  0  0
   13.5988  -17.3556   23.5769 O   0  0  0  0  0  0  0  0  0  0  0  0
  2  1  1  1
  2  3  1  0
  3  4  1  0
  4  5  2  0
  5  6  1  0
  7  8  2  0
  7  6  1  0
  9  8  1  0
 10  9  2  0
 11 10  1  0
 11 12  2  0
 12  4  1  0
 12  7  1  0
 13  2  1  0
 13 20  1  0
 14 13  2  0
 15 16  1  0
 16 18  1  0
 16 17  2  0
 19 20  1  0
 19 18  1  6
 21 19  1  0
 22 21  2  0
 23 21  1  0
 24 23  1  0
 24 25  1  1
 25 26  1  0
 27 26  1  0
 27 28  1  0
 28 29  1  0
 30 24  1  0
 30 32  1  0
 31 30  2  0
M  END
$$$$
