WNK.pdb
     RDKit          3D

 32 33  0  0  1  0  0  0  0  0999 V2000
    5.8125  -18.0937   24.4902 N   0  0  0  0  0  0  0  0  0  0  0  0
    6.4007  -16.7788   24.2271 C   0  0  1  0  0  0  0  0  0  0  0  0
    7.4109  -16.4352   25.2994 C   0  0  0  0  0  0  0  0  0  0  0  0
    6.9191  -15.2859   26.0921 C   0  0  0  0  0  0  0  0  0  0  0  0
    6.1249  -15.3059   27.2169 C   0  0  0  0  0  0  0  0  0  0  0  0
    5.8961  -14.0355   27.6342 N   0  0  0  0  0  0  0  0  0  0  0  0
    6.5125  -13.1759   26.8227 C   0  0  0  0  0  0  0  0  0  0  0  0
    6.5840  -11.7994   26.8213 C   0  0  0  0  0  0  0  0  0  0  0  0
    7.3185  -11.1982   25.8230 C   0  0  0  0  0  0  0  0  0  0  0  0
    7.9628  -11.9408   24.8553 C   0  0  0  0  0  0  0  0  0  0  0  0
    7.8772  -13.3209   24.8764 C   0  0  0  0  0  0  0  0  0  0  0  0
    7.1554  -13.9337   25.8558 C   0  0  0  0  0  0  0  0  0  0  0  0
    7.0941  -16.7715   22.9191 C   0  0  0  0  0  0  0  0  0  0  0  0
    7.5711  -17.8127   22.4568 O   0  0  0  0  0  0  0  0  0  0  0  0
    8.4929  -12.5634   18.6420 N   0  0  0  0  0  0  0  0  0  0  0  0
    8.0395  -13.8455   18.9975 C   0  0  0  0  0  0  0  0  0  0  0  0
    8.1030  -14.7722   18.1639 O   0  0  0  0  0  0  0  0  0  0  0  0
    7.4942  -14.1029   20.3347 C   0  0  0  0  0  0  0  0  0  0  0  0
    7.8783  -15.4000   20.9488 C   0  0  2  0  0  0  0  0  0  0  0  0
    7.1980  -15.5497   22.2138 N   0  0  0  0  0  0  0  0  0  0  0  0
    9.3300  -15.5227   21.2151 C   0  0  0  0  0  0  0  0  0  0  0  0
    9.9848  -14.5244   21.6016 O   0  0  0  0  0  0  0  0  0  0  0  0
   10.0539  -16.7289   21.0582 N   0  0  0  0  0  0  0  0  0  0  0  0
   11.5234  -16.7895   21.2415 C   0  0  1  0  0  0  0  0  0  0  0  0
   11.9323  -18.1558   21.6603 C   0  0  0  0  0  0  0  0  0  0  0  0
   11.2103  -18.5736   22.9080 C   0  0  0  0  0  0  0  0  0  0  0  0
   12.2163  -19.0104   23.9714 C   0  0  0  0  0  0  0  0  0  0  0  0
   11.5470  -19.2753   25.2867 C   0  0  0  0  0  0  0  0  0  0  0  0
   12.5277  -19.7048   26.2488 N   0  0  0  0  0  0  0  0  0  0  0  0
   12.1153  -16.4405   19.9392 C   0  0  0  0  0  0  0  0  0  0  0  0
   11.4737  -16.2836   18.8658 O   0  0  0  0  0  0  0  0  0  0  0  0
   13.5096  -16.2621   19.8609 O   0  0  0  0  0  0  0  0  0  0  0  0
  2  1  1  1
  2  3  1  0
  3  4  1  0
  4  5  2  0
  5  6  1  0
  7  8  2  0
  7  6  1  0
  9  8  1  0
 10  9  2  0
 11 10  1  0
 11 12  2  0
 12  4  1  0
 12  7  1  0
 13  2  1  0
 13 20  1  0
 14 13  2  0
 15 16  1  0
 16 18  1  0
 16 17  2  0
 19 20  1  0
 19 18  1  1
 21 19  1  0
 22 21  2  0
 23 21  1  0
 24 23  1  0
 24 25  1  6
 25 26  1  0
 27 26  1  0
 27 28  1  0
 28 29  1  0
 30 24  1  0
 30 32  1  0
 31 30  2  0
M  END
$$$$
