WNK.pdb
     RDKit          3D

 32 33  0  0  1  0  0  0  0  0999 V2000
    6.3792  -17.4389   24.6306 N   0  0  0  0  0  0  0  0  0  0  0  0
    6.9250  -16.1881   24.0996 C   0  0  1  0  0  0  0  0  0  0  0  0
    8.2512  -15.8769   24.7572 C   0  0  0  0  0  0  0  0  0  0  0  0
    8.0300  -14.9896   25.9213 C   0  0  0  0  0  0  0  0  0  0  0  0
    7.9532  -15.3353   27.2520 C   0  0  0  0  0  0  0  0  0  0  0  0
    7.7337  -14.2239   27.9982 N   0  0  0  0  0  0  0  0  0  0  0  0
    7.6627  -13.1544   27.2053 C   0  0  0  0  0  0  0  0  0  0  0  0
    7.4567  -11.8188   27.4759 C   0  0  0  0  0  0  0  0  0  0  0  0
    7.4373  -10.9460   26.4103 C   0  0  0  0  0  0  0  0  0  0  0  0
    7.6170  -11.3856   25.1152 C   0  0  0  0  0  0  0  0  0  0  0  0
    7.8221  -12.7306   24.8673 C   0  0  0  0  0  0  0  0  0  0  0  0
    7.8446  -13.6092   25.9081 C   0  0  0  0  0  0  0  0  0  0  0  0
    7.1466  -16.2956   22.6398 C   0  0  0  0  0  0  0  0  0  0  0  0
    7.2552  -17.4022   22.1022 O   0  0  0  0  0  0  0  0  0  0  0  0
    6.7664  -13.4081   17.6032 N   0  0  0  0  0  0  0  0  0  0  0  0
    7.7867  -13.4622   18.5685 C   0  0  0  0  0  0  0  0  0  0  0  0
    8.9762  -13.3352   18.2124 O   0  0  0  0  0  0  0  0  0  0  0  0
    7.4670  -13.6660   19.9855 C   0  0  0  0  0  0  0  0  0  0  0  0
    7.5463  -15.0686   20.4689 C   0  0  2  0  0  0  0  0  0  0  0  0
    7.2314  -15.1068   21.8777 N   0  0  0  0  0  0  0  0  0  0  0  0
    8.8859  -15.6777   20.3029 C   0  0  0  0  0  0  0  0  0  0  0  0
    9.0492  -16.6285   19.5006 O   0  0  0  0  0  0  0  0  0  0  0  0
   10.0333  -15.2467   21.0111 N   0  0  0  0  0  0  0  0  0  0  0  0
   11.3917  -15.7317   20.6702 C   0  0  1  0  0  0  0  0  0  0  0  0
   12.2793  -14.5848   20.3445 C   0  0  0  0  0  0  0  0  0  0  0  0
   13.6794  -15.0503   20.0703 C   0  0  0  0  0  0  0  0  0  0  0  0
   14.4434  -13.9783   19.2952 C   0  0  0  0  0  0  0  0  0  0  0  0
   15.8609  -14.3918   19.0352 C   0  0  0  0  0  0  0  0  0  0  0  0
   16.4887  -13.4373   18.1596 N   0  0  0  0  0  0  0  0  0  0  0  0
   11.8808  -16.4533   21.8568 C   0  0  0  0  0  0  0  0  0  0  0  0
   11.9214  -15.9878   23.0274 O   0  0  0  0  0  0  0  0  0  0  0  0
   12.3462  -17.7724   21.6968 O   0  0  0  0  0  0  0  0  0  0  0  0
  2  1  1  1
  2  3  1  0
  3  4  1  0
  4  5  2  0
  5  6  1  0
  7  8  2  0
  7  6  1  0
  9  8  1  0
 10  9  2  0
 11 10  1  0
 11 12  2  0
 12  4  1  0
 12  7  1  0
 13  2  1  0
 13 20  1  0
 14 13  2  0
 15 16  1  0
 16 18  1  0
 16 17  2  0
 19 20  1  0
 19 18  1  1
 21 19  1  0
 22 21  2  0
 23 21  1  0
 24 23  1  0
 24 25  1  1
 25 26  1  0
 27 26  1  0
 27 28  1  0
 28 29  1  0
 30 24  1  0
 30 32  1  0
 31 30  2  0
M  END
$$$$
