HQH.pdb
     RDKit          3D

 30 31  0  0  1  0  0  0  0  0999 V2000
    8.5274  -17.2976   18.9789 N   0  0  0  0  0  0  0  0  0  0  0  0
    9.0457  -16.4728   20.0525 C   0  0  1  0  0  0  0  0  0  0  0  0
    8.1012  -15.3723   20.4261 C   0  0  0  0  0  0  0  0  0  0  0  0
    8.1860  -14.2935   19.4185 C   0  0  0  0  0  0  0  0  0  0  0  0
    8.9944  -14.2565   18.3162 C   0  0  0  0  0  0  0  0  0  0  0  0
    8.7942  -13.1138   17.6400 N   0  0  0  0  0  0  0  0  0  0  0  0
    7.8591  -12.4354   18.3209 C   0  0  0  0  0  0  0  0  0  0  0  0
    7.4692  -13.1328   19.4126 N   0  0  0  0  0  0  0  0  0  0  0  0
    9.3391  -17.3682   21.2215 C   0  0  0  0  0  0  0  0  0  0  0  0
    8.6572  -18.3989   21.4338 O   0  0  0  0  0  0  0  0  0  0  0  0
   12.6978  -21.0411   22.4346 N   0  0  0  0  0  0  0  0  0  0  0  0
   12.7902  -20.7194   23.8061 C   0  0  0  0  0  0  0  0  0  0  0  0
   13.1107  -21.6049   24.6237 O   0  0  0  0  0  0  0  0  0  0  0  0
   12.5071  -19.3439   24.2520 C   0  0  0  0  0  0  0  0  0  0  0  0
   12.1167  -18.4692   23.0787 C   0  0  0  0  0  0  0  0  0  0  0  0
   10.7387  -17.8952   23.2691 C   0  0  2  0  0  0  0  0  0  0  0  0
   10.3914  -17.0917   22.1309 N   0  0  0  0  0  0  0  0  0  0  0  0
   10.7281  -17.1363   24.5369 C   0  0  0  0  0  0  0  0  0  0  0  0
   11.5510  -16.1938   24.6637 O   0  0  0  0  0  0  0  0  0  0  0  0
    9.8557  -17.4028   25.6086 N   0  0  0  0  0  0  0  0  0  0  0  0
    9.8731  -16.6968   26.8792 C   0  0  1  0  0  0  0  0  0  0  0  0
    8.4274  -16.3685   27.1783 C   0  0  0  0  0  0  0  0  0  0  0  0
    7.8713  -15.2763   26.3827 C   0  0  0  0  0  0  0  0  0  0  0  0
    8.4890  -14.4712   25.4558 C   0  0  0  0  0  0  0  0  0  0  0  0
    7.6083  -13.5766   24.9542 N   0  0  0  0  0  0  0  0  0  0  0  0
    6.4286  -13.8209   25.5702 C   0  0  0  0  0  0  0  0  0  0  0  0
    6.5909  -14.8491   26.4332 N   0  0  0  0  0  0  0  0  0  0  0  0
   10.3940  -17.5283   27.9735 C   0  0  0  0  0  0  0  0  0  0  0  0
   10.5712  -16.9753   29.2195 O   0  0  0  0  0  0  0  0  0  0  0  0
   10.6744  -18.7223   27.7818 O   0  0  0  0  0  0  0  0  0  0  0  0
  2  1  1  6
  2  3  1  0
  3  4  1  0
  4  8  1  0
  5  4  2  0
  5  6  1  0
  6  7  1  0
  8  7  2  0
  9 17  1  0
  9  2  1  0
 10  9  2  0
 11 12  1  0
 12 14  1  0
 13 12  2  0
 14 15  1  0
 16 15  1  6
 16 17  1  0
 18 16  1  0
 19 18  2  0
 20 18  1  0
 21 28  1  0
 21 20  1  0
 21 22  1  1
 22 23  1  0
 23 24  2  0
 24 25  1  0
 26 25  1  0
 27 23  1  0
 27 26  2  0
 28 29  1  0
 30 28  2  0
M  END
$$$$
