HQH.pdb
     RDKit          3D

 30 31  0  0  1  0  0  0  0  0999 V2000
    8.2618  -16.2266   20.7191 N   0  0  0  0  0  0  0  0  0  0  0  0
    7.6814  -15.0771   21.3849 C   0  0  1  0  0  0  0  0  0  0  0  0
    6.5554  -14.4782   20.6000 C   0  0  0  0  0  0  0  0  0  0  0  0
    7.0424  -14.1063   19.2543 C   0  0  0  0  0  0  0  0  0  0  0  0
    7.7133  -12.9668   18.9060 C   0  0  0  0  0  0  0  0  0  0  0  0
    7.9877  -12.9809   17.5915 N   0  0  0  0  0  0  0  0  0  0  0  0
    7.4873  -14.1313   17.1176 C   0  0  0  0  0  0  0  0  0  0  0  0
    6.9038  -14.8391   18.1118 N   0  0  0  0  0  0  0  0  0  0  0  0
    7.2317  -15.5129   22.7495 C   0  0  0  0  0  0  0  0  0  0  0  0
    6.5705  -14.7451   23.4884 O   0  0  0  0  0  0  0  0  0  0  0  0
    6.6031  -21.4232   24.6649 N   0  0  0  0  0  0  0  0  0  0  0  0
    7.9028  -20.9802   24.3371 C   0  0  0  0  0  0  0  0  0  0  0  0
    8.7872  -21.8178   24.0695 O   0  0  0  0  0  0  0  0  0  0  0  0
    8.1962  -19.5364   24.3156 C   0  0  0  0  0  0  0  0  0  0  0  0
    6.9388  -18.7297   24.5654 C   0  0  0  0  0  0  0  0  0  0  0  0
    7.2402  -17.2556   24.5913 C   0  0  2  0  0  0  0  0  0  0  0  0
    7.5313  -16.8011   23.2608 N   0  0  0  0  0  0  0  0  0  0  0  0
    8.3545  -17.0308   25.5354 C   0  0  0  0  0  0  0  0  0  0  0  0
    9.5271  -17.0962   25.0856 O   0  0  0  0  0  0  0  0  0  0  0  0
    8.1845  -16.7486   26.9037 N   0  0  0  0  0  0  0  0  0  0  0  0
    9.2538  -16.3364   27.7981 C   0  0  1  0  0  0  0  0  0  0  0  0
    8.7665  -15.0611   28.4487 C   0  0  0  0  0  0  0  0  0  0  0  0
    8.3396  -14.0223   27.5138 C   0  0  0  0  0  0  0  0  0  0  0  0
    8.4285  -13.9941   26.1427 C   0  0  0  0  0  0  0  0  0  0  0  0
    7.9180  -12.8366   25.6659 N   0  0  0  0  0  0  0  0  0  0  0  0
    7.5054  -12.1323   26.7449 C   0  0  0  0  0  0  0  0  0  0  0  0
    7.7617  -12.8518   27.8607 N   0  0  0  0  0  0  0  0  0  0  0  0
    9.5108  -17.3253   28.8548 C   0  0  0  0  0  0  0  0  0  0  0  0
    8.7345  -18.4574   28.9266 O   0  0  0  0  0  0  0  0  0  0  0  0
   10.4206  -17.1464   29.6802 O   0  0  0  0  0  0  0  0  0  0  0  0
  2  1  1  6
  2  3  1  0
  3  4  1  0
  4  8  1  0
  5  4  2  0
  5  6  1  0
  6  7  1  0
  8  7  2  0
  9 17  1  0
  9  2  1  0
 10  9  2  0
 11 12  1  0
 12 14  1  0
 13 12  2  0
 14 15  1  0
 16 15  1  6
 16 17  1  0
 18 16  1  0
 19 18  2  0
 20 18  1  0
 21 28  1  0
 21 20  1  0
 21 22  1  1
 22 23  1  0
 23 24  2  0
 24 25  1  0
 26 25  1  0
 27 23  1  0
 27 26  2  0
 28 29  1  0
 30 28  2  0
M  END
$$$$
