HQH.pdb
     RDKit          3D

 30 31  0  0  1  0  0  0  0  0999 V2000
    7.6255  -16.8935   19.7143 N   0  0  0  0  0  0  0  0  0  0  0  0
    8.4114  -16.0422   20.5856 C   0  0  1  0  0  0  0  0  0  0  0  0
    7.8670  -14.6489   20.6557 C   0  0  0  0  0  0  0  0  0  0  0  0
    7.9785  -14.0141   19.3249 C   0  0  0  0  0  0  0  0  0  0  0  0
    7.0174  -13.2924   18.6726 C   0  0  0  0  0  0  0  0  0  0  0  0
    7.4844  -12.8781   17.4837 N   0  0  0  0  0  0  0  0  0  0  0  0
    8.7394  -13.3417   17.3928 C   0  0  0  0  0  0  0  0  0  0  0  0
    9.0679  -14.0397   18.5041 N   0  0  0  0  0  0  0  0  0  0  0  0
    8.4558  -16.6857   21.9415 C   0  0  0  0  0  0  0  0  0  0  0  0
    7.4446  -17.2492   22.4234 O   0  0  0  0  0  0  0  0  0  0  0  0
   11.4688  -21.0600   21.2612 N   0  0  0  0  0  0  0  0  0  0  0  0
   11.6228  -20.1477   22.3274 C   0  0  0  0  0  0  0  0  0  0  0  0
   12.7626  -19.9178   22.7785 O   0  0  0  0  0  0  0  0  0  0  0  0
   10.4365  -19.4805   22.8919 C   0  0  0  0  0  0  0  0  0  0  0  0
   10.8437  -18.4115   23.8846 C   0  0  0  0  0  0  0  0  0  0  0  0
    9.7846  -17.3483   23.9969 C   0  0  2  0  0  0  0  0  0  0  0  0
    9.6330  -16.6856   22.7322 N   0  0  0  0  0  0  0  0  0  0  0  0
   10.1696  -16.4295   25.0881 C   0  0  0  0  0  0  0  0  0  0  0  0
   11.0838  -15.5968   24.8593 O   0  0  0  0  0  0  0  0  0  0  0  0
    9.5774  -16.4289   26.3649 N   0  0  0  0  0  0  0  0  0  0  0  0
    9.9475  -15.5273   27.4435 C   0  0  1  0  0  0  0  0  0  0  0  0
    8.6419  -15.0855   28.0660 C   0  0  0  0  0  0  0  0  0  0  0  0
    7.8003  -14.2616   27.2012 C   0  0  0  0  0  0  0  0  0  0  0  0
    8.0724  -13.7434   25.9577 C   0  0  0  0  0  0  0  0  0  0  0  0
    7.0161  -13.0291   25.5087 N   0  0  0  0  0  0  0  0  0  0  0  0
    6.0733  -13.0987   26.4767 C   0  0  0  0  0  0  0  0  0  0  0  0
    6.5504  -13.8445   27.4986 N   0  0  0  0  0  0  0  0  0  0  0  0
   10.7506  -16.1940   28.4783 C   0  0  0  0  0  0  0  0  0  0  0  0
   11.2478  -15.4592   29.5283 O   0  0  0  0  0  0  0  0  0  0  0  0
   10.9827  -17.4117   28.4116 O   0  0  0  0  0  0  0  0  0  0  0  0
  2  1  1  6
  2  3  1  0
  3  4  1  0
  4  8  1  0
  5  4  2  0
  5  6  1  0
  6  7  1  0
  8  7  2  0
  9 17  1  0
  9  2  1  0
 10  9  2  0
 11 12  1  0
 12 14  1  0
 13 12  2  0
 14 15  1  0
 16 15  1  6
 16 17  1  0
 18 16  1  0
 19 18  2  0
 20 18  1  0
 21 28  1  0
 21 20  1  0
 21 22  1  1
 22 23  1  0
 23 24  2  0
 24 25  1  0
 26 25  1  0
 27 23  1  0
 27 26  2  0
 28 29  1  0
 30 28  2  0
M  END
$$$$
