HQH.pdb
     RDKit          3D

 30 31  0  0  1  0  0  0  0  0999 V2000
   10.6443  -16.9231   19.2466 N   0  0  0  0  0  0  0  0  0  0  0  0
   11.0867  -16.1375   20.3818 C   0  0  1  0  0  0  0  0  0  0  0  0
   11.3452  -14.7090   20.0142 C   0  0  0  0  0  0  0  0  0  0  0  0
   12.7583  -14.5582   19.6059 C   0  0  0  0  0  0  0  0  0  0  0  0
   13.7145  -15.5350   19.5690 C   0  0  0  0  0  0  0  0  0  0  0  0
   14.8806  -15.0183   19.1489 N   0  0  0  0  0  0  0  0  0  0  0  0
   14.6527  -13.7162   18.9231 C   0  0  0  0  0  0  0  0  0  0  0  0
   13.3639  -13.4072   19.1941 N   0  0  0  0  0  0  0  0  0  0  0  0
   10.0433  -16.2504   21.4555 C   0  0  0  0  0  0  0  0  0  0  0  0
    8.9264  -15.6936   21.3331 O   0  0  0  0  0  0  0  0  0  0  0  0
    8.9021  -21.1575   24.8958 N   0  0  0  0  0  0  0  0  0  0  0  0
    8.1462  -20.2002   25.6065 C   0  0  0  0  0  0  0  0  0  0  0  0
    7.4227  -20.5694   26.5530 O   0  0  0  0  0  0  0  0  0  0  0  0
    8.2222  -18.7802   25.2210 C   0  0  0  0  0  0  0  0  0  0  0  0
    9.1708  -18.5908   24.0555 C   0  0  0  0  0  0  0  0  0  0  0  0
    9.3341  -17.1318   23.7248 C   0  0  2  0  0  0  0  0  0  0  0  0
   10.2710  -16.9854   22.6466 N   0  0  0  0  0  0  0  0  0  0  0  0
    9.7525  -16.4260   24.9536 C   0  0  0  0  0  0  0  0  0  0  0  0
   10.9794  -16.4035   25.2287 O   0  0  0  0  0  0  0  0  0  0  0  0
    8.8644  -15.7790   25.8331 N   0  0  0  0  0  0  0  0  0  0  0  0
    9.2564  -15.1507   27.0840 C   0  0  1  0  0  0  0  0  0  0  0  0
    8.0196  -14.4371   27.5822 C   0  0  0  0  0  0  0  0  0  0  0  0
    7.6704  -13.2281   26.8394 C   0  0  0  0  0  0  0  0  0  0  0  0
    8.4025  -12.5393   25.9022 C   0  0  0  0  0  0  0  0  0  0  0  0
    7.7074  -11.4657   25.4643 N   0  0  0  0  0  0  0  0  0  0  0  0
    6.5300  -11.4797   26.1309 C   0  0  0  0  0  0  0  0  0  0  0  0
    6.5107  -12.5464   26.9615 N   0  0  0  0  0  0  0  0  0  0  0  0
    9.6637  -16.1327   28.0989 C   0  0  0  0  0  0  0  0  0  0  0  0
    9.5859  -17.4749   27.8127 O   0  0  0  0  0  0  0  0  0  0  0  0
   10.0761  -15.7604   29.2091 O   0  0  0  0  0  0  0  0  0  0  0  0
  2  1  1  6
  2  3  1  0
  3  4  1  0
  4  8  1  0
  5  4  2  0
  5  6  1  0
  6  7  1  0
  8  7  2  0
  9 17  1  0
  9  2  1  0
 10  9  2  0
 11 12  1  0
 12 14  1  0
 13 12  2  0
 14 15  1  0
 16 15  1  1
 16 17  1  0
 18 16  1  0
 19 18  2  0
 20 18  1  0
 21 28  1  0
 21 20  1  0
 21 22  1  1
 22 23  1  0
 23 24  2  0
 24 25  1  0
 26 25  1  0
 27 23  1  0
 27 26  2  0
 28 29  1  0
 30 28  2  0
M  END
$$$$
