HQH.pdb
     RDKit          3D

 30 31  0  0  1  0  0  0  0  0999 V2000
   10.3765  -13.9161   18.9064 N   0  0  0  0  0  0  0  0  0  0  0  0
    9.4223  -14.9181   19.3389 C   0  0  1  0  0  0  0  0  0  0  0  0
    8.9347  -15.7622   18.2021 C   0  0  0  0  0  0  0  0  0  0  0  0
    8.4203  -14.8849   17.1287 C   0  0  0  0  0  0  0  0  0  0  0  0
    8.5177  -13.5227   17.0595 C   0  0  0  0  0  0  0  0  0  0  0  0
    7.9286  -13.0782   15.9376 N   0  0  0  0  0  0  0  0  0  0  0  0
    7.4621  -14.1645   15.3047 C   0  0  0  0  0  0  0  0  0  0  0  0
    7.7484  -15.2828   16.0100 N   0  0  0  0  0  0  0  0  0  0  0  0
   10.0781  -15.7509   20.4022 C   0  0  0  0  0  0  0  0  0  0  0  0
    9.8213  -16.9729   20.5168 O   0  0  0  0  0  0  0  0  0  0  0  0
   15.6115  -14.2037   21.8756 N   0  0  0  0  0  0  0  0  0  0  0  0
   15.3135  -15.5373   21.5212 C   0  0  0  0  0  0  0  0  0  0  0  0
   16.2447  -16.3479   21.3446 O   0  0  0  0  0  0  0  0  0  0  0  0
   13.9084  -15.9525   21.3650 C   0  0  0  0  0  0  0  0  0  0  0  0
   13.0705  -15.4572   22.5255 C   0  0  0  0  0  0  0  0  0  0  0  0
   11.6421  -15.9114   22.3916 C   0  0  2  0  0  0  0  0  0  0  0  0
   11.0098  -15.1985   21.3175 N   0  0  0  0  0  0  0  0  0  0  0  0
   10.9717  -15.7091   23.6928 C   0  0  0  0  0  0  0  0  0  0  0  0
   10.7640  -14.5271   24.0686 O   0  0  0  0  0  0  0  0  0  0  0  0
   10.5523  -16.7556   24.5353 N   0  0  0  0  0  0  0  0  0  0  0  0
    9.5668  -16.6147   25.5946 C   0  0  1  0  0  0  0  0  0  0  0  0
    8.2509  -16.3673   24.8913 C   0  0  0  0  0  0  0  0  0  0  0  0
    7.6943  -15.0306   25.0884 C   0  0  0  0  0  0  0  0  0  0  0  0
    7.9983  -13.8562   24.4425 C   0  0  0  0  0  0  0  0  0  0  0  0
    7.2510  -12.8444   24.9381 N   0  0  0  0  0  0  0  0  0  0  0  0
    6.4719  -13.3866   25.9023 C   0  0  0  0  0  0  0  0  0  0  0  0
    6.7423  -14.7084   25.9908 N   0  0  0  0  0  0  0  0  0  0  0  0
    9.4364  -17.8356   26.4026 C   0  0  0  0  0  0  0  0  0  0  0  0
    8.8643  -17.7645   27.6504 O   0  0  0  0  0  0  0  0  0  0  0  0
    9.8378  -18.9270   25.9681 O   0  0  0  0  0  0  0  0  0  0  0  0
  2  1  1  6
  2  3  1  0
  3  4  1  0
  4  8  1  0
  5  4  2  0
  5  6  1  0
  6  7  1  0
  8  7  2  0
  9 17  1  0
  9  2  1  0
 10  9  2  0
 11 12  1  0
 12 14  1  0
 13 12  2  0
 14 15  1  0
 16 15  1  1
 16 17  1  0
 18 16  1  0
 19 18  2  0
 20 18  1  0
 21 28  1  0
 21 20  1  0
 21 22  1  6
 22 23  1  0
 23 24  2  0
 24 25  1  0
 26 25  1  0
 27 23  1  0
 27 26  2  0
 28 29  1  0
 30 28  2  0
M  END
$$$$
