HQH.pdb
     RDKit          3D

 30 31  0  0  1  0  0  0  0  0999 V2000
    9.5683  -19.4786   19.0700 N   0  0  0  0  0  0  0  0  0  0  0  0
    8.6093  -18.8831   19.9795 C   0  0  1  0  0  0  0  0  0  0  0  0
    8.0366  -19.8858   20.9330 C   0  0  0  0  0  0  0  0  0  0  0  0
    7.0931  -20.7644   20.2089 C   0  0  0  0  0  0  0  0  0  0  0  0
    6.7222  -20.6715   18.8960 C   0  0  0  0  0  0  0  0  0  0  0  0
    5.8444  -21.6432   18.5986 N   0  0  0  0  0  0  0  0  0  0  0  0
    5.6665  -22.3445   19.7277 C   0  0  0  0  0  0  0  0  0  0  0  0
    6.4174  -21.8296   20.7282 N   0  0  0  0  0  0  0  0  0  0  0  0
    9.2960  -17.7621   20.7048 C   0  0  0  0  0  0  0  0  0  0  0  0
   10.4917  -17.8639   21.0688 O   0  0  0  0  0  0  0  0  0  0  0  0
    7.8733  -11.8537   19.9648 N   0  0  0  0  0  0  0  0  0  0  0  0
    7.8645  -13.0077   19.1516 C   0  0  0  0  0  0  0  0  0  0  0  0
    7.4608  -12.9256   17.9744 O   0  0  0  0  0  0  0  0  0  0  0  0
    8.3316  -14.2913   19.7040 C   0  0  0  0  0  0  0  0  0  0  0  0
    8.6711  -14.1512   21.1734 C   0  0  0  0  0  0  0  0  0  0  0  0
    9.2003  -15.4452   21.7304 C   0  0  2  0  0  0  0  0  0  0  0  0
    8.6299  -16.5478   21.0089 N   0  0  0  0  0  0  0  0  0  0  0  0
    8.8966  -15.4816   23.1760 C   0  0  0  0  0  0  0  0  0  0  0  0
    7.7645  -15.9017   23.5275 O   0  0  0  0  0  0  0  0  0  0  0  0
    9.7943  -15.0762   24.1813 N   0  0  0  0  0  0  0  0  0  0  0  0
    9.4816  -15.0459   25.6006 C   0  0  1  0  0  0  0  0  0  0  0  0
    7.9753  -14.9362   25.6797 C   0  0  0  0  0  0  0  0  0  0  0  0
    7.4724  -13.5850   25.9174 C   0  0  0  0  0  0  0  0  0  0  0  0
    8.1696  -12.4119   26.0805 C   0  0  0  0  0  0  0  0  0  0  0  0
    7.3140  -11.3855   26.2859 N   0  0  0  0  0  0  0  0  0  0  0  0
    6.0703  -11.9171   26.2517 C   0  0  0  0  0  0  0  0  0  0  0  0
    6.1693  -13.2470   26.0288 N   0  0  0  0  0  0  0  0  0  0  0  0
    9.8920  -16.2776   26.2896 C   0  0  0  0  0  0  0  0  0  0  0  0
    9.7433  -17.4892   25.6577 O   0  0  0  0  0  0  0  0  0  0  0  0
   10.3703  -16.2322   27.4342 O   0  0  0  0  0  0  0  0  0  0  0  0
  2  1  1  6
  2  3  1  0
  3  4  1  0
  4  8  1  0
  5  4  2  0
  5  6  1  0
  6  7  1  0
  8  7  2  0
  9 17  1  0
  9  2  1  0
 10  9  2  0
 11 12  1  0
 12 14  1  0
 13 12  2  0
 14 15  1  0
 16 15  1  6
 16 17  1  0
 18 16  1  0
 19 18  2  0
 20 18  1  0
 21 28  1  0
 21 20  1  0
 21 22  1  6
 22 23  1  0
 23 24  2  0
 24 25  1  0
 26 25  1  0
 27 23  1  0
 27 26  2  0
 28 29  1  0
 30 28  2  0
M  END
$$$$
