HQH.pdb
     RDKit          3D

 30 31  0  0  1  0  0  0  0  0999 V2000
   12.9746  -15.7753   13.9272 N   0  0  0  0  0  0  0  0  0  0  0  0
   12.2253  -16.7055   14.7487 C   0  0  1  0  0  0  0  0  0  0  0  0
   12.9264  -18.0205   14.8965 C   0  0  0  0  0  0  0  0  0  0  0  0
   12.9515  -18.7097   13.5885 C   0  0  0  0  0  0  0  0  0  0  0  0
   12.0373  -19.6083   13.1124 C   0  0  0  0  0  0  0  0  0  0  0  0
   12.3980  -20.0224   11.8869 N   0  0  0  0  0  0  0  0  0  0  0  0
   13.5397  -19.3815   11.5968 C   0  0  0  0  0  0  0  0  0  0  0  0
   13.9015  -18.5726   12.6190 N   0  0  0  0  0  0  0  0  0  0  0  0
   11.9863  -16.0554   16.0808 C   0  0  0  0  0  0  0  0  0  0  0  0
   12.9388  -15.6052   16.7609 O   0  0  0  0  0  0  0  0  0  0  0  0
    6.7616  -12.5898   18.3838 N   0  0  0  0  0  0  0  0  0  0  0  0
    7.2133  -13.3927   17.3141 C   0  0  0  0  0  0  0  0  0  0  0  0
    6.3985  -13.7869   16.4561 O   0  0  0  0  0  0  0  0  0  0  0  0
    8.6392  -13.7533   17.2260 C   0  0  0  0  0  0  0  0  0  0  0  0
    8.9174  -15.0316   17.9895 C   0  0  0  0  0  0  0  0  0  0  0  0
   10.3772  -15.3916   17.9246 C   0  0  2  0  0  0  0  0  0  0  0  0
   10.6841  -15.9218   16.6260 N   0  0  0  0  0  0  0  0  0  0  0  0
   10.6655  -16.3412   19.0193 C   0  0  0  0  0  0  0  0  0  0  0  0
   10.6618  -17.5690   18.7474 O   0  0  0  0  0  0  0  0  0  0  0  0
   10.9433  -15.9569   20.3444 N   0  0  0  0  0  0  0  0  0  0  0  0
   11.1240  -16.8839   21.4495 C   0  0  1  0  0  0  0  0  0  0  0  0
   11.1506  -16.0265   22.6951 C   0  0  0  0  0  0  0  0  0  0  0  0
   11.2389  -16.7721   23.9487 C   0  0  0  0  0  0  0  0  0  0  0  0
   11.2863  -18.1303   24.1532 C   0  0  0  0  0  0  0  0  0  0  0  0
   11.3590  -18.4007   25.4758 N   0  0  0  0  0  0  0  0  0  0  0  0
   11.3573  -17.2040   26.1072 C   0  0  0  0  0  0  0  0  0  0  0  0
   11.2846  -16.2214   25.1812 N   0  0  0  0  0  0  0  0  0  0  0  0
   10.0107  -17.8362   21.5678 C   0  0  0  0  0  0  0  0  0  0  0  0
   10.2722  -19.1486   21.8820 O   0  0  0  0  0  0  0  0  0  0  0  0
    8.8398  -17.4656   21.3868 O   0  0  0  0  0  0  0  0  0  0  0  0
  2  1  1  6
  2  3  1  0
  3  4  1  0
  4  8  1  0
  5  4  2  0
  5  6  1  0
  6  7  1  0
  8  7  2  0
  9 17  1  0
  9  2  1  0
 10  9  2  0
 11 12  1  0
 12 14  1  0
 13 12  2  0
 14 15  1  0
 16 15  1  6
 16 17  1  0
 18 16  1  0
 19 18  2  0
 20 18  1  0
 21 28  1  0
 21 20  1  0
 21 22  1  1
 22 23  1  0
 23 24  2  0
 24 25  1  0
 26 25  1  0
 27 23  1  0
 27 26  2  0
 28 29  1  0
 30 28  2  0
M  END
$$$$
