TYW.pdb
     RDKit          3D

 34 36  0  0  1  0  0  0  0  0999 V2000
   29.3141  -22.1322  -16.7796 C   0  0  0  0  0  0  0  0  0  0  0  0
   28.4544  -21.4207  -15.7866 C   0  0  1  0  0  0  0  0  0  0  0  0
   28.7681  -20.0751  -15.6519 O   0  0  0  0  0  0  0  0  0  0  0  0
   26.9716  -21.5741  -16.0997 C   0  0  2  0  0  0  0  0  0  0  0  0
   26.5992  -20.9249  -17.3109 N   0  0  0  0  0  0  0  0  0  0  0  0
   26.2200  -21.1449  -14.9127 C   0  0  0  0  0  0  0  0  0  0  0  0
   25.9271  -19.9004  -14.8714 O   0  0  0  0  0  0  0  0  0  0  0  0
   20.7429  -19.9431  -17.2988 O   0  0  0  0  0  0  0  0  0  0  0  0
   21.4420  -20.3999  -16.1771 C   0  0  0  0  0  0  0  0  0  0  0  0
   21.5743  -19.6362  -15.0400 C   0  0  0  0  0  0  0  0  0  0  0  0
   22.2781  -20.1091  -13.9246 C   0  0  0  0  0  0  0  0  0  0  0  0
   22.8504  -21.3577  -13.9583 C   0  0  0  0  0  0  0  0  0  0  0  0
   23.5929  -21.8923  -12.8192 C   0  0  0  0  0  0  0  0  0  0  0  0
   25.0471  -21.4915  -12.7829 C   0  0  2  0  0  0  0  0  0  0  0  0
   25.8199  -21.9964  -13.8570 N   0  0  0  0  0  0  0  0  0  0  0  0
   25.6636  -21.8141  -11.4403 C   0  0  0  0  0  0  0  0  0  0  0  0
   26.7196  -22.5033  -11.4265 O   0  0  0  0  0  0  0  0  0  0  0  0
   22.7058  -22.1036  -15.1046 C   0  0  0  0  0  0  0  0  0  0  0  0
   22.0124  -21.6406  -16.2063 C   0  0  0  0  0  0  0  0  0  0  0  0
   25.0741  -21.3572  -10.2371 N   0  0  0  0  0  0  0  0  0  0  0  0
   25.9456  -21.1530   -9.0741 C   0  0  1  0  0  0  0  0  0  0  0  0
   27.0784  -20.2572   -9.4144 C   0  0  0  0  0  0  0  0  0  0  0  0
   28.1974  -20.3874   -8.4824 C   0  0  0  0  0  0  0  0  0  0  0  0
   29.4896  -20.8064   -8.8099 C   0  0  0  0  0  0  0  0  0  0  0  0
   30.2408  -20.8474   -7.7070 N   0  0  0  0  0  0  0  0  0  0  0  0
   29.4929  -20.4700   -6.6636 C   0  0  0  0  0  0  0  0  0  0  0  0
   29.7991  -20.3276   -5.3302 C   0  0  0  0  0  0  0  0  0  0  0  0
   28.8787  -19.8969   -4.4020 C   0  0  0  0  0  0  0  0  0  0  0  0
   27.6120  -19.6067   -4.8642 C   0  0  0  0  0  0  0  0  0  0  0  0
   27.3136  -19.7511   -6.1918 C   0  0  0  0  0  0  0  0  0  0  0  0
   28.2182  -20.1803   -7.1331 C   0  0  0  0  0  0  0  0  0  0  0  0
   25.1162  -20.7160   -7.9595 C   0  0  0  0  0  0  0  0  0  0  0  0
   24.2845  -19.7502   -7.9939 O   0  0  0  0  0  0  0  0  0  0  0  0
   25.2250  -21.4021   -6.7332 O   0  0  0  0  0  0  0  0  0  0  0  0
  2  1  1  6
  2  3  1  0
  4  5  1  6
  4  2  1  0
  6  7  2  0
  6  4  1  0
  8  9  1  0
  9 19  2  0
  9 10  1  0
 10 11  2  0
 11 12  1  0
 12 13  1  0
 14 13  1  1
 14 15  1  0
 15  6  1  0
 16 14  1  0
 16 20  1  0
 17 16  2  0
 18 12  2  0
 19 18  1  0
 21 20  1  0
 21 32  1  0
 21 22  1  6
 23 22  1  0
 24 23  2  0
 25 26  1  0
 25 24  1  0
 26 31  2  0
 27 26  1  0
 27 28  2  0
 28 29  1  0
 29 30  2  0
 31 23  1  0
 31 30  1  0
 32 33  2  0
 32 34  1  0
M  END
$$$$
