TYW.pdb
     RDKit          3D

 34 36  0  0  1  0  0  0  0  0999 V2000
   26.9121   -6.7966  -17.9842 C   0  0  0  0  0  0  0  0  0  0  0  0
   27.2622   -8.2270  -18.2352 C   0  0  1  0  0  0  0  0  0  0  0  0
   28.6141   -8.4277  -18.4783 O   0  0  0  0  0  0  0  0  0  0  0  0
   26.8031   -9.1357  -17.1022 C   0  0  2  0  0  0  0  0  0  0  0  0
   27.1528  -10.4987  -17.3196 N   0  0  0  0  0  0  0  0  0  0  0  0
   25.3701   -8.8921  -16.8899 C   0  0  0  0  0  0  0  0  0  0  0  0
   24.5894   -9.4496  -17.7360 O   0  0  0  0  0  0  0  0  0  0  0  0
   22.0448  -14.2001  -15.4729 O   0  0  0  0  0  0  0  0  0  0  0  0
   22.2574  -12.8381  -15.2376 C   0  0  0  0  0  0  0  0  0  0  0  0
   23.3912  -12.3753  -14.6099 C   0  0  0  0  0  0  0  0  0  0  0  0
   23.5887  -11.0071  -14.3819 C   0  0  0  0  0  0  0  0  0  0  0  0
   22.6373  -10.1034  -14.7892 C   0  0  0  0  0  0  0  0  0  0  0  0
   22.8006   -8.6677  -14.5731 C   0  0  0  0  0  0  0  0  0  0  0  0
   23.4281   -7.9329  -15.7320 C   0  0  2  0  0  0  0  0  0  0  0  0
   24.8290   -8.1072  -15.8455 N   0  0  0  0  0  0  0  0  0  0  0  0
   23.0377   -6.4721  -15.7215 C   0  0  0  0  0  0  0  0  0  0  0  0
   23.6006   -5.7171  -14.8828 O   0  0  0  0  0  0  0  0  0  0  0  0
   21.5122  -10.5878  -15.4142 C   0  0  0  0  0  0  0  0  0  0  0  0
   21.3141  -11.9363  -15.6409 C   0  0  0  0  0  0  0  0  0  0  0  0
   22.0707   -5.9679  -16.6242 N   0  0  0  0  0  0  0  0  0  0  0  0
   21.7425   -4.5390  -16.5588 C   0  0  1  0  0  0  0  0  0  0  0  0
   21.7470   -3.9340  -17.9135 C   0  0  0  0  0  0  0  0  0  0  0  0
   23.0906   -3.8398  -18.4825 C   0  0  0  0  0  0  0  0  0  0  0  0
   23.8230   -4.8970  -19.0288 C   0  0  0  0  0  0  0  0  0  0  0  0
   25.0237   -4.4587  -19.4144 N   0  0  0  0  0  0  0  0  0  0  0  0
   25.1109   -3.1511  -19.1440 C   0  0  0  0  0  0  0  0  0  0  0  0
   26.1204   -2.2431  -19.3632 C   0  0  0  0  0  0  0  0  0  0  0  0
   26.0046   -0.9131  -19.0283 C   0  0  0  0  0  0  0  0  0  0  0  0
   24.8164   -0.5135  -18.4533 C   0  0  0  0  0  0  0  0  0  0  0  0
   23.8161   -1.4219  -18.2372 C   0  0  0  0  0  0  0  0  0  0  0  0
   23.9132   -2.7532  -18.5638 C   0  0  0  0  0  0  0  0  0  0  0  0
   20.4991   -4.3949  -15.8142 C   0  0  0  0  0  0  0  0  0  0  0  0
   19.7550   -5.3560  -15.4291 O   0  0  0  0  0  0  0  0  0  0  0  0
   20.0635   -3.0967  -15.4809 O   0  0  0  0  0  0  0  0  0  0  0  0
  2  1  1  1
  2  3  1  0
  4  5  1  6
  4  2  1  0
  6  7  2  0
  6  4  1  0
  8  9  1  0
  9 19  2  0
  9 10  1  0
 10 11  2  0
 11 12  1  0
 12 13  1  0
 14 13  1  1
 14 15  1  0
 15  6  1  0
 16 14  1  0
 16 20  1  0
 17 16  2  0
 18 12  2  0
 19 18  1  0
 21 20  1  0
 21 32  1  0
 21 22  1  6
 23 22  1  0
 24 23  2  0
 25 26  1  0
 25 24  1  0
 26 31  2  0
 27 26  1  0
 27 28  2  0
 28 29  1  0
 29 30  2  0
 31 23  1  0
 31 30  1  0
 32 33  2  0
 32 34  1  0
M  END
$$$$
