TYW.pdb
     RDKit          3D

 34 36  0  0  1  0  0  0  0  0999 V2000
   29.5341  -22.7021  -18.2728 C   0  0  0  0  0  0  0  0  0  0  0  0
   28.3214  -22.2333  -19.0082 C   0  0  1  0  0  0  0  0  0  0  0  0
   27.2883  -23.1607  -19.0129 O   0  0  0  0  0  0  0  0  0  0  0  0
   27.8118  -20.8988  -18.4794 C   0  0  2  0  0  0  0  0  0  0  0  0
   28.7902  -19.8680  -18.5651 N   0  0  0  0  0  0  0  0  0  0  0  0
   27.2752  -21.1304  -17.1317 C   0  0  0  0  0  0  0  0  0  0  0  0
   26.5289  -22.1621  -17.0101 O   0  0  0  0  0  0  0  0  0  0  0  0
   24.7609  -20.2417   -8.7132 O   0  0  0  0  0  0  0  0  0  0  0  0
   25.4854  -20.2785   -9.9087 C   0  0  0  0  0  0  0  0  0  0  0  0
   25.9175  -21.4618  -10.4629 C   0  0  0  0  0  0  0  0  0  0  0  0
   26.6425  -21.4811  -11.6616 C   0  0  0  0  0  0  0  0  0  0  0  0
   26.9321  -20.3009  -12.3026 C   0  0  0  0  0  0  0  0  0  0  0  0
   27.6847  -20.2724  -13.5546 C   0  0  0  0  0  0  0  0  0  0  0  0
   26.8536  -20.5423  -14.7847 C   0  0  2  0  0  0  0  0  0  0  0  0
   27.5274  -20.3092  -16.0084 N   0  0  0  0  0  0  0  0  0  0  0  0
   25.5327  -19.8096  -14.7165 C   0  0  0  0  0  0  0  0  0  0  0  0
   25.5238  -18.5815  -15.0029 O   0  0  0  0  0  0  0  0  0  0  0  0
   26.4908  -19.1305  -11.7311 C   0  0  0  0  0  0  0  0  0  0  0  0
   25.7755  -19.1076  -10.5492 C   0  0  0  0  0  0  0  0  0  0  0  0
   24.3435  -20.4807  -14.3426 N   0  0  0  0  0  0  0  0  0  0  0  0
   23.1279  -19.6803  -14.1543 C   0  0  1  0  0  0  0  0  0  0  0  0
   22.7085  -19.0496  -15.4301 C   0  0  0  0  0  0  0  0  0  0  0  0
   22.2120  -20.0229  -16.4016 C   0  0  0  0  0  0  0  0  0  0  0  0
   21.2874  -21.0380  -16.1426 C   0  0  0  0  0  0  0  0  0  0  0  0
   21.0963  -21.7632  -17.2471 N   0  0  0  0  0  0  0  0  0  0  0  0
   21.8596  -21.2639  -18.2263 C   0  0  0  0  0  0  0  0  0  0  0  0
   22.0081  -21.6357  -19.5421 C   0  0  0  0  0  0  0  0  0  0  0  0
   22.8410  -20.9670  -20.4101 C   0  0  0  0  0  0  0  0  0  0  0  0
   23.5364  -19.8885  -19.9047 C   0  0  0  0  0  0  0  0  0  0  0  0
   23.3849  -19.5241  -18.5945 C   0  0  0  0  0  0  0  0  0  0  0  0
   22.5592  -20.1793  -17.7128 C   0  0  0  0  0  0  0  0  0  0  0  0
   22.1269  -20.5233  -13.5151 C   0  0  0  0  0  0  0  0  0  0  0  0
   22.2801  -21.7538  -13.2184 O   0  0  0  0  0  0  0  0  0  0  0  0
   20.8798  -19.9537  -13.1888 O   0  0  0  0  0  0  0  0  0  0  0  0
  2  1  1  1
  2  3  1  0
  4  5  1  1
  4  2  1  0
  6  7  2  0
  6  4  1  0
  8  9  1  0
  9 19  2  0
  9 10  1  0
 10 11  2  0
 11 12  1  0
 12 13  1  0
 14 13  1  1
 14 15  1  0
 15  6  1  0
 16 14  1  0
 16 20  1  0
 17 16  2  0
 18 12  2  0
 19 18  1  0
 21 20  1  0
 21 32  1  0
 21 22  1  6
 23 22  1  0
 24 23  2  0
 25 26  1  0
 25 24  1  0
 26 31  2  0
 27 26  1  0
 27 28  2  0
 28 29  1  0
 29 30  2  0
 31 23  1  0
 31 30  1  0
 32 33  2  0
 32 34  1  0
M  END
$$$$
