TYW.pdb
     RDKit          3D

 34 36  0  0  1  0  0  0  0  0999 V2000
   28.7289  -18.9286  -17.0420 C   0  0  0  0  0  0  0  0  0  0  0  0
   27.9719  -19.0171  -15.7572 C   0  0  1  0  0  0  0  0  0  0  0  0
   28.4894  -18.2053  -14.7570 O   0  0  0  0  0  0  0  0  0  0  0  0
   26.4897  -18.7203  -15.9448 C   0  0  2  0  0  0  0  0  0  0  0  0
   26.2588  -17.4499  -16.5448 N   0  0  0  0  0  0  0  0  0  0  0  0
   25.8289  -18.9201  -14.6480 C   0  0  0  0  0  0  0  0  0  0  0  0
   25.2031  -17.9026  -14.1907 O   0  0  0  0  0  0  0  0  0  0  0  0
   24.2521  -26.0001  -15.4479 O   0  0  0  0  0  0  0  0  0  0  0  0
   24.1531  -24.7742  -14.7825 C   0  0  0  0  0  0  0  0  0  0  0  0
   24.5919  -24.6098  -13.4885 C   0  0  0  0  0  0  0  0  0  0  0  0
   24.4853  -23.3744  -12.8362 C   0  0  0  0  0  0  0  0  0  0  0  0
   23.9333  -22.3015  -13.4934 C   0  0  0  0  0  0  0  0  0  0  0  0
   23.8022  -20.9946  -12.8535 C   0  0  0  0  0  0  0  0  0  0  0  0
   25.1014  -20.2409  -12.7094 C   0  0  2  0  0  0  0  0  0  0  0  0
   25.8465  -20.1252  -13.9084 N   0  0  0  0  0  0  0  0  0  0  0  0
   25.9315  -20.8052  -11.5785 C   0  0  0  0  0  0  0  0  0  0  0  0
   26.8786  -21.5840  -11.8735 O   0  0  0  0  0  0  0  0  0  0  0  0
   23.5014  -22.4883  -14.7856 C   0  0  0  0  0  0  0  0  0  0  0  0
   23.6050  -23.7050  -15.4321 C   0  0  0  0  0  0  0  0  0  0  0  0
   25.6544  -20.4704  -10.2313 N   0  0  0  0  0  0  0  0  0  0  0  0
   26.2710  -21.2828   -9.1760 C   0  0  1  0  0  0  0  0  0  0  0  0
   27.6896  -20.8977   -8.9746 C   0  0  0  0  0  0  0  0  0  0  0  0
   27.8670  -19.9688   -7.8595 C   0  0  0  0  0  0  0  0  0  0  0  0
   27.3000  -18.6957   -7.7579 C   0  0  0  0  0  0  0  0  0  0  0  0
   27.7080  -18.1119   -6.6287 N   0  0  0  0  0  0  0  0  0  0  0  0
   28.5225  -18.9527   -5.9804 C   0  0  0  0  0  0  0  0  0  0  0  0
   29.1807  -18.8346   -4.7785 C   0  0  0  0  0  0  0  0  0  0  0  0
   29.9670  -19.8402   -4.2640 C   0  0  0  0  0  0  0  0  0  0  0  0
   30.0748  -20.9949   -5.0106 C   0  0  0  0  0  0  0  0  0  0  0  0
   29.4180  -21.1058   -6.2059 C   0  0  0  0  0  0  0  0  0  0  0  0
   28.6294  -20.1131   -6.7362 C   0  0  0  0  0  0  0  0  0  0  0  0
   25.4270  -21.2008   -7.9918 C   0  0  0  0  0  0  0  0  0  0  0  0
   25.6690  -21.7639   -6.8738 O   0  0  0  0  0  0  0  0  0  0  0  0
   24.2413  -20.4425   -8.0645 O   0  0  0  0  0  0  0  0  0  0  0  0
  2  1  1  6
  2  3  1  0
  4  5  1  1
  4  2  1  0
  6  7  2  0
  6  4  1  0
  8  9  1  0
  9 19  2  0
  9 10  1  0
 10 11  2  0
 11 12  1  0
 12 13  1  0
 14 13  1  6
 14 15  1  0
 15  6  1  0
 16 14  1  0
 16 20  1  0
 17 16  2  0
 18 12  2  0
 19 18  1  0
 21 20  1  0
 21 32  1  0
 21 22  1  1
 23 22  1  0
 24 23  2  0
 25 26  1  0
 25 24  1  0
 26 31  2  0
 27 26  1  0
 27 28  2  0
 28 29  1  0
 29 30  2  0
 31 23  1  0
 31 30  1  0
 32 33  2  0
 32 34  1  0
M  END
$$$$
