TYW.pdb
     RDKit          3D

 34 36  0  0  1  0  0  0  0  0999 V2000
   27.4177  -19.5661  -19.8341 C   0  0  0  0  0  0  0  0  0  0  0  0
   27.1475  -19.4941  -18.3667 C   0  0  1  0  0  0  0  0  0  0  0  0
   28.2988  -19.3707  -17.6009 O   0  0  0  0  0  0  0  0  0  0  0  0
   26.1757  -18.3741  -18.0180 C   0  0  2  0  0  0  0  0  0  0  0  0
   26.6579  -17.0921  -18.4066 N   0  0  0  0  0  0  0  0  0  0  0  0
   25.8421  -18.5027  -16.5931 C   0  0  0  0  0  0  0  0  0  0  0  0
   26.3509  -17.6112  -15.8299 O   0  0  0  0  0  0  0  0  0  0  0  0
   20.1574  -15.4422  -16.7508 O   0  0  0  0  0  0  0  0  0  0  0  0
   20.9105  -16.4790  -16.1908 C   0  0  0  0  0  0  0  0  0  0  0  0
   21.2427  -17.6069  -16.9059 C   0  0  0  0  0  0  0  0  0  0  0  0
   21.9980  -18.6367  -16.3296 C   0  0  0  0  0  0  0  0  0  0  0  0
   22.4190  -18.5266  -15.0264 C   0  0  0  0  0  0  0  0  0  0  0  0
   23.2088  -19.5746  -14.3842 C   0  0  0  0  0  0  0  0  0  0  0  0
   24.6891  -19.4972  -14.6661 C   0  0  2  0  0  0  0  0  0  0  0  0
   25.0242  -19.5160  -16.0421 N   0  0  0  0  0  0  0  0  0  0  0  0
   25.4443  -20.5484  -13.8844 C   0  0  0  0  0  0  0  0  0  0  0  0
   25.4630  -21.7235  -14.3416 O   0  0  0  0  0  0  0  0  0  0  0  0
   22.0756  -17.3912  -14.3306 C   0  0  0  0  0  0  0  0  0  0  0  0
   21.3310  -16.3737  -14.8956 C   0  0  0  0  0  0  0  0  0  0  0  0
   26.1091  -20.2239  -12.6774 N   0  0  0  0  0  0  0  0  0  0  0  0
   26.7713  -21.3065  -11.9402 C   0  0  1  0  0  0  0  0  0  0  0  0
   27.5987  -20.7631  -10.8350 C   0  0  0  0  0  0  0  0  0  0  0  0
   26.8170  -20.4880   -9.6305 C   0  0  0  0  0  0  0  0  0  0  0  0
   25.4239  -20.5341   -9.5318 C   0  0  0  0  0  0  0  0  0  0  0  0
   25.0499  -20.1862   -8.2983 N   0  0  0  0  0  0  0  0  0  0  0  0
   26.1445  -19.9131   -7.5785 C   0  0  0  0  0  0  0  0  0  0  0  0
   26.2973  -19.5334   -6.2654 C   0  0  0  0  0  0  0  0  0  0  0  0
   27.5320  -19.3198   -5.6962 C   0  0  0  0  0  0  0  0  0  0  0  0
   28.6343  -19.5035   -6.5046 C   0  0  0  0  0  0  0  0  0  0  0  0
   28.4755  -19.8806   -7.8103 C   0  0  0  0  0  0  0  0  0  0  0  0
   27.2517  -20.0977   -8.3966 C   0  0  0  0  0  0  0  0  0  0  0  0
   25.7544  -22.2707  -11.5438 C   0  0  0  0  0  0  0  0  0  0  0  0
   25.9833  -23.4084  -11.0155 O   0  0  0  0  0  0  0  0  0  0  0  0
   24.4000  -21.9407  -11.7513 O   0  0  0  0  0  0  0  0  0  0  0  0
  2  1  1  6
  2  3  1  0
  4  5  1  1
  4  2  1  0
  6  7  2  0
  6  4  1  0
  8  9  1  0
  9 19  2  0
  9 10  1  0
 10 11  2  0
 11 12  1  0
 12 13  1  0
 14 13  1  6
 14 15  1  0
 15  6  1  0
 16 14  1  0
 16 20  1  0
 17 16  2  0
 18 12  2  0
 19 18  1  0
 21 20  1  0
 21 32  1  0
 21 22  1  1
 23 22  1  0
 24 23  2  0
 25 26  1  0
 25 24  1  0
 26 31  2  0
 27 26  1  0
 27 28  2  0
 28 29  1  0
 29 30  2  0
 31 23  1  0
 31 30  1  0
 32 33  2  0
 32 34  1  0
M  END
$$$$
