TYW.pdb
     RDKit          3D

 34 36  0  0  1  0  0  0  0  0999 V2000
   31.7220  -28.2438  -23.1582 C   0  0  0  0  0  0  0  0  0  0  0  0
   31.2140  -27.2357  -22.1798 C   0  0  1  0  0  0  0  0  0  0  0  0
   29.8286  -27.1946  -22.1017 O   0  0  0  0  0  0  0  0  0  0  0  0
   31.8014  -27.4412  -20.7894 C   0  0  2  0  0  0  0  0  0  0  0  0
   33.2233  -27.5134  -20.8026 N   0  0  0  0  0  0  0  0  0  0  0  0
   31.1297  -28.6022  -20.1904 C   0  0  0  0  0  0  0  0  0  0  0  0
   31.4534  -29.7366  -20.6848 O   0  0  0  0  0  0  0  0  0  0  0  0
   35.4718  -32.1696  -17.6307 O   0  0  0  0  0  0  0  0  0  0  0  0
   34.1577  -31.6989  -17.5459 C   0  0  0  0  0  0  0  0  0  0  0  0
   33.0802  -32.5529  -17.4846 C   0  0  0  0  0  0  0  0  0  0  0  0
   31.7697  -32.0647  -17.3999 C   0  0  0  0  0  0  0  0  0  0  0  0
   31.5469  -30.7092  -17.3772 C   0  0  0  0  0  0  0  0  0  0  0  0
   30.1980  -30.1548  -17.2892 C   0  0  0  0  0  0  0  0  0  0  0  0
   29.6169  -29.7226  -18.6129 C   0  0  2  0  0  0  0  0  0  0  0  0
   30.1837  -28.5370  -19.1413 N   0  0  0  0  0  0  0  0  0  0  0  0
   28.1083  -29.6470  -18.5426 C   0  0  0  0  0  0  0  0  0  0  0  0
   27.5841  -28.5238  -18.3105 O   0  0  0  0  0  0  0  0  0  0  0  0
   32.6379  -29.8743  -17.4396 C   0  0  0  0  0  0  0  0  0  0  0  0
   33.9317  -30.3521  -17.5231 C   0  0  0  0  0  0  0  0  0  0  0  0
   27.3096  -30.8006  -18.7308 N   0  0  0  0  0  0  0  0  0  0  0  0
   25.8511  -30.6492  -18.6701 C   0  0  1  0  0  0  0  0  0  0  0  0
   25.1730  -31.8305  -19.2583 C   0  0  0  0  0  0  0  0  0  0  0  0
   23.7185  -31.6853  -19.2908 C   0  0  0  0  0  0  0  0  0  0  0  0
   22.9936  -30.9200  -20.2080 C   0  0  0  0  0  0  0  0  0  0  0  0
   21.6924  -30.9832  -19.9158 N   0  0  0  0  0  0  0  0  0  0  0  0
   21.5312  -31.7629  -18.8402 C   0  0  0  0  0  0  0  0  0  0  0  0
   20.3998  -32.1554  -18.1638 C   0  0  0  0  0  0  0  0  0  0  0  0
   20.4435  -32.9957  -17.0746 C   0  0  0  0  0  0  0  0  0  0  0  0
   21.6868  -33.4401  -16.6762 C   0  0  0  0  0  0  0  0  0  0  0  0
   22.8086  -33.0453  -17.3529 C   0  0  0  0  0  0  0  0  0  0  0  0
   22.7855  -32.2068  -18.4414 C   0  0  0  0  0  0  0  0  0  0  0  0
   25.4862  -30.3397  -17.2945 C   0  0  0  0  0  0  0  0  0  0  0  0
   25.9886  -30.8861  -16.2579 O   0  0  0  0  0  0  0  0  0  0  0  0
   24.4997  -29.3593  -17.0667 O   0  0  0  0  0  0  0  0  0  0  0  0
  2  1  1  6
  2  3  1  0
  4  5  1  6
  4  2  1  0
  6  7  2  0
  6  4  1  0
  8  9  1  0
  9 19  2  0
  9 10  1  0
 10 11  2  0
 11 12  1  0
 12 13  1  0
 14 13  1  1
 14 15  1  0
 15  6  1  0
 16 14  1  0
 16 20  1  0
 17 16  2  0
 18 12  2  0
 19 18  1  0
 21 20  1  0
 21 32  1  0
 21 22  1  1
 23 22  1  0
 24 23  2  0
 25 26  1  0
 25 24  1  0
 26 31  2  0
 27 26  1  0
 27 28  2  0
 28 29  1  0
 29 30  2  0
 31 23  1  0
 31 30  1  0
 32 33  2  0
 32 34  1  0
M  END
$$$$
