TYW.pdb
     RDKit          3D

 34 36  0  0  1  0  0  0  0  0999 V2000
   28.1985  -20.0683  -18.8115 C   0  0  0  0  0  0  0  0  0  0  0  0
   27.3418  -20.3287  -17.6158 C   0  0  1  0  0  0  0  0  0  0  0  0
   25.9828  -20.3076  -17.8979 O   0  0  0  0  0  0  0  0  0  0  0  0
   27.7036  -21.6381  -16.9268 C   0  0  2  0  0  0  0  0  0  0  0  0
   27.4610  -22.7738  -17.7507 N   0  0  0  0  0  0  0  0  0  0  0  0
   27.0192  -21.6604  -15.6272 C   0  0  0  0  0  0  0  0  0  0  0  0
   25.9668  -22.3857  -15.5758 O   0  0  0  0  0  0  0  0  0  0  0  0
   24.3712  -20.4614   -7.3071 O   0  0  0  0  0  0  0  0  0  0  0  0
   25.1369  -20.5263   -8.4755 C   0  0  0  0  0  0  0  0  0  0  0  0
   25.6151  -21.7189   -8.9682 C   0  0  0  0  0  0  0  0  0  0  0  0
   26.3809  -21.7663  -10.1404 C   0  0  0  0  0  0  0  0  0  0  0  0
   26.6647  -20.6048  -10.8172 C   0  0  0  0  0  0  0  0  0  0  0  0
   27.4588  -20.6059  -12.0436 C   0  0  0  0  0  0  0  0  0  0  0  0
   26.6974  -21.0289  -13.2757 C   0  0  2  0  0  0  0  0  0  0  0  0
   27.4420  -20.9530  -14.4781 N   0  0  0  0  0  0  0  0  0  0  0  0
   25.3806  -20.2927  -13.3771 C   0  0  0  0  0  0  0  0  0  0  0  0
   25.4124  -19.0613  -13.6472 O   0  0  0  0  0  0  0  0  0  0  0  0
   26.1769  -19.4245  -10.3070 C   0  0  0  0  0  0  0  0  0  0  0  0
   25.4213  -19.3740   -9.1514 C   0  0  0  0  0  0  0  0  0  0  0  0
   24.1508  -20.9642  -13.1750 N   0  0  0  0  0  0  0  0  0  0  0  0
   22.9089  -20.2149  -13.3989 C   0  0  1  0  0  0  0  0  0  0  0  0
   22.9190  -19.5630  -14.7317 C   0  0  0  0  0  0  0  0  0  0  0  0
   21.7036  -18.7922  -14.9895 C   0  0  0  0  0  0  0  0  0  0  0  0
   20.8777  -18.2190  -14.0189 C   0  0  0  0  0  0  0  0  0  0  0  0
   19.8374  -17.6257  -14.6088 N   0  0  0  0  0  0  0  0  0  0  0  0
   19.9462  -17.7849  -15.9330 C   0  0  0  0  0  0  0  0  0  0  0  0
   19.1522  -17.3507  -16.9688 C   0  0  0  0  0  0  0  0  0  0  0  0
   19.4541  -17.6025  -18.2878 C   0  0  0  0  0  0  0  0  0  0  0  0
   20.6043  -18.3203  -18.5409 C   0  0  0  0  0  0  0  0  0  0  0  0
   21.3895  -18.7501  -17.5059 C   0  0  0  0  0  0  0  0  0  0  0  0
   21.1046  -18.5094  -16.1833 C   0  0  0  0  0  0  0  0  0  0  0  0
   21.7891  -21.1124  -13.1507 C   0  0  0  0  0  0  0  0  0  0  0  0
   20.7951  -20.8589  -12.3934 O   0  0  0  0  0  0  0  0  0  0  0  0
   21.7823  -22.3689  -13.7890 O   0  0  0  0  0  0  0  0  0  0  0  0
  2  1  1  6
  2  3  1  0
  4  5  1  6
  4  2  1  0
  6  7  2  0
  6  4  1  0
  8  9  1  0
  9 19  2  0
  9 10  1  0
 10 11  2  0
 11 12  1  0
 12 13  1  0
 14 13  1  1
 14 15  1  0
 15  6  1  0
 16 14  1  0
 16 20  1  0
 17 16  2  0
 18 12  2  0
 19 18  1  0
 21 20  1  0
 21 32  1  0
 21 22  1  6
 23 22  1  0
 24 23  2  0
 25 26  1  0
 25 24  1  0
 26 31  2  0
 27 26  1  0
 27 28  2  0
 28 29  1  0
 29 30  2  0
 31 23  1  0
 31 30  1  0
 32 33  2  0
 32 34  1  0
M  END
$$$$
