TYW.pdb
     RDKit          3D

 34 36  0  0  1  0  0  0  0  0999 V2000
   22.0082   -7.7191  -20.8933 C   0  0  0  0  0  0  0  0  0  0  0  0
   22.8263   -7.3117  -22.0749 C   0  0  1  0  0  0  0  0  0  0  0  0
   22.2852   -7.7209  -23.2860 O   0  0  0  0  0  0  0  0  0  0  0  0
   23.0785   -5.8097  -22.1058 C   0  0  2  0  0  0  0  0  0  0  0  0
   23.9831   -5.4291  -23.1374 N   0  0  0  0  0  0  0  0  0  0  0  0
   23.4761   -5.3979  -20.7529 C   0  0  0  0  0  0  0  0  0  0  0  0
   24.7034   -5.6035  -20.4571 O   0  0  0  0  0  0  0  0  0  0  0  0
   18.3213   -0.2581  -19.3699 O   0  0  0  0  0  0  0  0  0  0  0  0
   19.5004   -0.9425  -19.0589 C   0  0  0  0  0  0  0  0  0  0  0  0
   19.6869   -1.5573  -17.8419 C   0  0  0  0  0  0  0  0  0  0  0  0
   20.8746   -2.2391  -17.5464 C   0  0  0  0  0  0  0  0  0  0  0  0
   21.8774   -2.2999  -18.4835 C   0  0  0  0  0  0  0  0  0  0  0  0
   23.1325   -2.9999  -18.2198 C   0  0  0  0  0  0  0  0  0  0  0  0
   23.0898   -4.4805  -18.5076 C   0  0  2  0  0  0  0  0  0  0  0  0
   22.6121   -4.8117  -19.7991 N   0  0  0  0  0  0  0  0  0  0  0  0
   22.3446   -5.2216  -17.4204 C   0  0  0  0  0  0  0  0  0  0  0  0
   21.1825   -5.6371  -17.6797 O   0  0  0  0  0  0  0  0  0  0  0  0
   21.6699   -1.6787  -19.6927 C   0  0  0  0  0  0  0  0  0  0  0  0
   20.4999   -1.0055  -19.9877 C   0  0  0  0  0  0  0  0  0  0  0  0
   22.9325   -5.4418  -16.1516 N   0  0  0  0  0  0  0  0  0  0  0  0
   22.1866   -6.2424  -15.1735 C   0  0  1  0  0  0  0  0  0  0  0  0
   22.0852   -7.6551  -15.6155 C   0  0  0  0  0  0  0  0  0  0  0  0
   23.3204   -8.4043  -15.3907 C   0  0  0  0  0  0  0  0  0  0  0  0
   23.6734   -9.0636  -14.2103 C   0  0  0  0  0  0  0  0  0  0  0  0
   24.8858   -9.6062  -14.3449 N   0  0  0  0  0  0  0  0  0  0  0  0
   25.3460   -9.3305  -15.5708 C   0  0  0  0  0  0  0  0  0  0  0  0
   26.5201   -9.6745  -16.1993 C   0  0  0  0  0  0  0  0  0  0  0  0
   26.8005   -9.3063  -17.4955 C   0  0  0  0  0  0  0  0  0  0  0  0
   25.8436   -8.5651  -18.1568 C   0  0  0  0  0  0  0  0  0  0  0  0
   24.6779   -8.2256  -17.5256 C   0  0  0  0  0  0  0  0  0  0  0  0
   24.3803   -8.5829  -16.2325 C   0  0  0  0  0  0  0  0  0  0  0  0
   22.7946   -6.0388  -13.8658 C   0  0  0  0  0  0  0  0  0  0  0  0
   23.9115   -5.4613  -13.6540 O   0  0  0  0  0  0  0  0  0  0  0  0
   22.1104   -6.5100  -12.7274 O   0  0  0  0  0  0  0  0  0  0  0  0
  2  1  1  1
  2  3  1  0
  4  5  1  6
  4  2  1  0
  6  7  2  0
  6  4  1  0
  8  9  1  0
  9 19  2  0
  9 10  1  0
 10 11  2  0
 11 12  1  0
 12 13  1  0
 14 13  1  1
 14 15  1  0
 15  6  1  0
 16 14  1  0
 16 20  1  0
 17 16  2  0
 18 12  2  0
 19 18  1  0
 21 20  1  0
 21 32  1  0
 21 22  1  6
 23 22  1  0
 24 23  2  0
 25 26  1  0
 25 24  1  0
 26 31  2  0
 27 26  1  0
 27 28  2  0
 28 29  1  0
 29 30  2  0
 31 23  1  0
 31 30  1  0
 32 33  2  0
 32 34  1  0
M  END
$$$$
