TYW.pdb
     RDKit          3D

 34 36  0  0  1  0  0  0  0  0999 V2000
   30.0819  -36.9438   -2.2845 C   0  0  0  0  0  0  0  0  0  0  0  0
   31.0108  -36.3607   -3.2987 C   0  0  1  0  0  0  0  0  0  0  0  0
   32.0164  -37.2342   -3.6899 O   0  0  0  0  0  0  0  0  0  0  0  0
   30.2689  -35.8480   -4.5263 C   0  0  2  0  0  0  0  0  0  0  0  0
   31.1512  -35.4030   -5.5513 N   0  0  0  0  0  0  0  0  0  0  0  0
   29.2957  -34.8461   -4.0712 C   0  0  0  0  0  0  0  0  0  0  0  0
   29.7222  -33.6404   -4.0484 O   0  0  0  0  0  0  0  0  0  0  0  0
   25.8068  -32.1142   -9.2457 O   0  0  0  0  0  0  0  0  0  0  0  0
   25.7794  -32.5819   -7.9280 C   0  0  0  0  0  0  0  0  0  0  0  0
   25.2197  -31.8493   -6.9063 C   0  0  0  0  0  0  0  0  0  0  0  0
   25.2005  -32.3326   -5.5913 C   0  0  0  0  0  0  0  0  0  0  0  0
   25.7488  -33.5600   -5.3077 C   0  0  0  0  0  0  0  0  0  0  0  0
   25.7512  -34.1044   -3.9518 C   0  0  0  0  0  0  0  0  0  0  0  0
   27.1004  -34.0834   -3.2768 C   0  0  2  0  0  0  0  0  0  0  0  0
   27.9689  -35.1297   -3.6728 N   0  0  0  0  0  0  0  0  0  0  0  0
   26.9522  -34.0080   -1.7739 C   0  0  0  0  0  0  0  0  0  0  0  0
   27.8842  -34.4763   -1.0650 O   0  0  0  0  0  0  0  0  0  0  0  0
   26.3028  -34.2748   -6.3437 C   0  0  0  0  0  0  0  0  0  0  0  0
   26.3234  -33.8015   -7.6416 C   0  0  0  0  0  0  0  0  0  0  0  0
   25.8036  -33.4305   -1.1811 N   0  0  0  0  0  0  0  0  0  0  0  0
   25.7418  -33.3620    0.2835 C   0  0  1  0  0  0  0  0  0  0  0  0
   26.8674  -32.5594    0.8222 C   0  0  0  0  0  0  0  0  0  0  0  0
   26.8325  -32.4498    2.2798 C   0  0  0  0  0  0  0  0  0  0  0  0
   27.6115  -33.1887    3.1741 C   0  0  0  0  0  0  0  0  0  0  0  0
   27.2889  -32.8603    4.4273 N   0  0  0  0  0  0  0  0  0  0  0  0
   26.3265  -31.9311    4.3936 C   0  0  0  0  0  0  0  0  0  0  0  0
   25.6745  -31.2611    5.4025 C   0  0  0  0  0  0  0  0  0  0  0  0
   24.7137  -30.3069    5.1562 C   0  0  0  0  0  0  0  0  0  0  0  0
   24.4208  -30.0398    3.8351 C   0  0  0  0  0  0  0  0  0  0  0  0
   25.0725  -30.7103    2.8361 C   0  0  0  0  0  0  0  0  0  0  0  0
   26.0336  -31.6663    3.0619 C   0  0  0  0  0  0  0  0  0  0  0  0
   24.4114  -32.9029    0.6582 C   0  0  0  0  0  0  0  0  0  0  0  0
   23.7310  -33.3405    1.6438 O   0  0  0  0  0  0  0  0  0  0  0  0
   23.8072  -31.8931   -0.1173 O   0  0  0  0  0  0  0  0  0  0  0  0
  2  1  1  1
  2  3  1  0
  4  5  1  6
  4  2  1  0
  6  7  2  0
  6  4  1  0
  8  9  1  0
  9 19  2  0
  9 10  1  0
 10 11  2  0
 11 12  1  0
 12 13  1  0
 14 13  1  6
 14 15  1  0
 15  6  1  0
 16 14  1  0
 16 20  1  0
 17 16  2  0
 18 12  2  0
 19 18  1  0
 21 20  1  0
 21 32  1  0
 21 22  1  6
 23 22  1  0
 24 23  2  0
 25 26  1  0
 25 24  1  0
 26 31  2  0
 27 26  1  0
 27 28  2  0
 28 29  1  0
 29 30  2  0
 31 23  1  0
 31 30  1  0
 32 33  2  0
 32 34  1  0
M  END
$$$$
