KKH.pdb
     RDKit          3D

 29 29  0  0  1  0  0  0  0  0999 V2000
   21.6976  -17.6719  -18.8732 N   0  0  0  0  0  0  0  0  0  0  0  0
   22.2937  -17.3085  -17.6045 C   0  0  1  0  0  0  0  0  0  0  0  0
   21.2923  -16.9561  -16.5609 C   0  0  0  0  0  0  0  0  0  0  0  0
   19.8881  -16.8400  -17.0128 C   0  0  0  0  0  0  0  0  0  0  0  0
   19.2133  -15.5355  -16.8001 C   0  0  0  0  0  0  0  0  0  0  0  0
   17.7639  -15.5165  -17.1756 C   0  0  0  0  0  0  0  0  0  0  0  0
   17.2023  -14.2021  -16.8895 N   0  0  0  0  0  0  0  0  0  0  0  0
   23.2050  -18.3978  -17.1373 C   0  0  0  0  0  0  0  0  0  0  0  0
   22.7348  -19.5130  -16.7878 O   0  0  0  0  0  0  0  0  0  0  0  0
   24.6113  -18.2849  -17.0483 N   0  0  0  0  0  0  0  0  0  0  0  0
   25.4860  -19.3028  -16.6069 C   0  0  1  0  0  0  0  0  0  0  0  0
   26.9102  -19.1938  -17.0485 C   0  0  0  0  0  0  0  0  0  0  0  0
   27.4525  -20.5162  -17.5481 C   0  0  0  0  0  0  0  0  0  0  0  0
   28.9246  -20.3817  -17.9218 C   0  0  0  0  0  0  0  0  0  0  0  0
   29.4642  -21.7257  -18.4068 C   0  0  0  0  0  0  0  0  0  0  0  0
   30.8985  -21.6227  -18.6157 N   0  0  0  0  0  0  0  0  0  0  0  0
   25.4504  -19.3391  -15.0958 C   0  0  0  0  0  0  0  0  0  0  0  0
   25.0693  -18.3162  -14.4756 O   0  0  0  0  0  0  0  0  0  0  0  0
   25.8295  -20.4775  -14.3764 N   0  0  0  0  0  0  0  0  0  0  0  0
   25.6779  -20.5037  -12.8990 C   0  0  1  0  0  0  0  0  0  0  0  0
   24.2687  -20.2620  -12.5401 C   0  0  0  0  0  0  0  0  0  0  0  0
   23.8423  -20.4854  -11.1750 C   0  0  0  0  0  0  0  0  0  0  0  0
   24.5374  -20.7193  -10.0275 C   0  0  0  0  0  0  0  0  0  0  0  0
   23.6550  -20.7941   -8.9836 N   0  0  0  0  0  0  0  0  0  0  0  0
   22.4352  -20.6047   -9.5010 C   0  0  0  0  0  0  0  0  0  0  0  0
   22.5294  -20.4193  -10.8038 N   0  0  0  0  0  0  0  0  0  0  0  0
   26.2229  -21.8233  -12.4364 C   0  0  0  0  0  0  0  0  0  0  0  0
   26.0196  -22.8771  -13.1371 O   0  0  0  0  0  0  0  0  0  0  0  0
   26.9408  -22.0121  -11.2927 O   0  0  0  0  0  0  0  0  0  0  0  0
  2  3  1  0
  2  1  1  6
  3  4  1  0
  4  5  1  0
  5  6  1  0
  6  7  1  0
  8  9  2  0
  8  2  1  0
 10  8  1  0
 11 10  1  0
 11 12  1  1
 13 14  1  0
 13 12  1  0
 15 16  1  0
 15 14  1  0
 17 11  1  0
 17 19  1  0
 18 17  2  0
 20 19  1  0
 20 27  1  0
 20 21  1  6
 22 26  1  0
 22 21  1  0
 23 22  2  0
 24 23  1  0
 24 25  1  0
 25 26  2  0
 27 28  2  0
 27 29  1  0
M  END
$$$$
