KKH.pdb
     RDKit          3D

 29 29  0  0  1  0  0  0  0  0999 V2000
   25.5932  -29.4340  -17.2676 N   0  0  0  0  0  0  0  0  0  0  0  0
   24.7799  -30.6319  -17.2897 C   0  0  1  0  0  0  0  0  0  0  0  0
   24.2235  -30.9432  -18.6349 C   0  0  0  0  0  0  0  0  0  0  0  0
   23.0765  -30.1191  -19.0763 C   0  0  0  0  0  0  0  0  0  0  0  0
   21.9285  -30.8297  -19.6923 C   0  0  0  0  0  0  0  0  0  0  0  0
   20.8592  -29.9320  -20.2334 C   0  0  0  0  0  0  0  0  0  0  0  0
   19.7690  -30.7383  -20.7684 N   0  0  0  0  0  0  0  0  0  0  0  0
   25.5559  -31.7867  -16.7422 C   0  0  0  0  0  0  0  0  0  0  0  0
   25.0444  -32.9374  -16.7100 O   0  0  0  0  0  0  0  0  0  0  0  0
   26.8724  -31.7007  -16.2344 N   0  0  0  0  0  0  0  0  0  0  0  0
   27.6386  -32.7899  -15.7629 C   0  0  1  0  0  0  0  0  0  0  0  0
   29.0588  -32.8542  -16.2258 C   0  0  0  0  0  0  0  0  0  0  0  0
   29.1605  -33.1680  -17.7036 C   0  0  0  0  0  0  0  0  0  0  0  0
   29.9175  -34.4736  -17.9204 C   0  0  0  0  0  0  0  0  0  0  0  0
   30.0611  -34.7509  -19.4154 C   0  0  0  0  0  0  0  0  0  0  0  0
   30.7621  -36.0091  -19.6076 N   0  0  0  0  0  0  0  0  0  0  0  0
   27.6242  -32.7633  -14.2512 C   0  0  0  0  0  0  0  0  0  0  0  0
   28.0787  -31.7531  -13.6603 O   0  0  0  0  0  0  0  0  0  0  0  0
   27.1202  -33.8302  -13.4997 N   0  0  0  0  0  0  0  0  0  0  0  0
   27.0604  -33.7291  -12.0190 C   0  0  1  0  0  0  0  0  0  0  0  0
   26.2654  -32.5491  -11.6335 C   0  0  0  0  0  0  0  0  0  0  0  0
   25.8801  -32.3825  -10.2482 C   0  0  0  0  0  0  0  0  0  0  0  0
   26.1900  -33.0845   -9.1230 C   0  0  0  0  0  0  0  0  0  0  0  0
   25.6161  -32.4668   -8.0446 N   0  0  0  0  0  0  0  0  0  0  0  0
   24.9653  -31.3978   -8.5191 C   0  0  0  0  0  0  0  0  0  0  0  0
   25.1128  -31.3332   -9.8285 N   0  0  0  0  0  0  0  0  0  0  0  0
   26.5177  -35.0373  -11.5225 C   0  0  0  0  0  0  0  0  0  0  0  0
   25.9601  -35.8482  -12.3437 O   0  0  0  0  0  0  0  0  0  0  0  0
   26.5629  -35.4582  -10.2264 O   0  0  0  0  0  0  0  0  0  0  0  0
  2  3  1  0
  2  1  1  6
  3  4  1  0
  4  5  1  0
  5  6  1  0
  6  7  1  0
  8  9  2  0
  8  2  1  0
 10  8  1  0
 11 10  1  0
 11 12  1  6
 13 14  1  0
 13 12  1  0
 15 16  1  0
 15 14  1  0
 17 11  1  0
 17 19  1  0
 18 17  2  0
 20 19  1  0
 20 27  1  0
 20 21  1  6
 22 26  1  0
 22 21  1  0
 23 22  2  0
 24 23  1  0
 24 25  1  0
 25 26  2  0
 27 28  2  0
 27 29  1  0
M  END
$$$$
