KKH.pdb
     RDKit          3D

 29 29  0  0  1  0  0  0  0  0999 V2000
   29.0986  -24.4366  -17.4419 N   0  0  0  0  0  0  0  0  0  0  0  0
   27.7365  -24.6394  -16.9941 C   0  0  1  0  0  0  0  0  0  0  0  0
   27.6250  -25.5899  -15.8539 C   0  0  0  0  0  0  0  0  0  0  0  0
   27.7776  -27.0251  -16.1800 C   0  0  0  0  0  0  0  0  0  0  0  0
   26.6748  -27.6697  -16.9353 C   0  0  0  0  0  0  0  0  0  0  0  0
   26.9153  -29.1062  -17.2826 C   0  0  0  0  0  0  0  0  0  0  0  0
   25.8875  -29.5633  -18.2097 N   0  0  0  0  0  0  0  0  0  0  0  0
   27.1044  -23.3240  -16.6687 C   0  0  0  0  0  0  0  0  0  0  0  0
   27.4041  -22.7216  -15.6037 O   0  0  0  0  0  0  0  0  0  0  0  0
   26.1577  -22.6645  -17.4854 N   0  0  0  0  0  0  0  0  0  0  0  0
   25.5514  -21.4223  -17.1930 C   0  0  1  0  0  0  0  0  0  0  0  0
   24.9783  -20.6725  -18.3526 C   0  0  0  0  0  0  0  0  0  0  0  0
   24.2664  -19.4095  -17.9159 C   0  0  0  0  0  0  0  0  0  0  0  0
   23.6960  -18.6744  -19.1239 C   0  0  0  0  0  0  0  0  0  0  0  0
   23.0674  -17.3545  -18.6818 C   0  0  0  0  0  0  0  0  0  0  0  0
   22.6102  -16.6224  -19.8507 N   0  0  0  0  0  0  0  0  0  0  0  0
   24.4546  -21.6547  -16.1786 C   0  0  0  0  0  0  0  0  0  0  0  0
   23.7179  -22.6634  -16.3056 O   0  0  0  0  0  0  0  0  0  0  0  0
   24.2420  -20.7788  -15.1087 N   0  0  0  0  0  0  0  0  0  0  0  0
   23.1822  -21.0734  -14.1106 C   0  0  1  0  0  0  0  0  0  0  0  0
   23.5351  -20.4621  -12.8164 C   0  0  0  0  0  0  0  0  0  0  0  0
   22.5837  -20.5227  -11.7272 C   0  0  0  0  0  0  0  0  0  0  0  0
   21.3647  -21.1189  -11.6110 C   0  0  0  0  0  0  0  0  0  0  0  0
   20.9009  -20.9318  -10.3367 N   0  0  0  0  0  0  0  0  0  0  0  0
   21.8372  -20.2276   -9.6895 C   0  0  0  0  0  0  0  0  0  0  0  0
   22.8451  -19.9763  -10.5028 N   0  0  0  0  0  0  0  0  0  0  0  0
   21.8914  -20.5855  -14.7006 C   0  0  0  0  0  0  0  0  0  0  0  0
   21.8806  -19.5241  -15.4190 O   0  0  0  0  0  0  0  0  0  0  0  0
   20.6807  -21.1902  -14.5341 O   0  0  0  0  0  0  0  0  0  0  0  0
  2  3  1  0
  2  1  1  1
  3  4  1  0
  4  5  1  0
  5  6  1  0
  6  7  1  0
  8  9  2  0
  8  2  1  0
 10  8  1  0
 11 10  1  0
 11 12  1  6
 13 14  1  0
 13 12  1  0
 15 16  1  0
 15 14  1  0
 17 11  1  0
 17 19  1  0
 18 17  2  0
 20 19  1  0
 20 27  1  0
 20 21  1  1
 22 26  1  0
 22 21  1  0
 23 22  2  0
 24 23  1  0
 24 25  1  0
 25 26  2  0
 27 28  2  0
 27 29  1  0
M  END
$$$$
