KKH.pdb
     RDKit          3D

 29 29  0  0  1  0  0  0  0  0999 V2000
   13.3661   -7.6440  -19.0167 N   0  0  0  0  0  0  0  0  0  0  0  0
   14.7979   -7.6344  -19.2328 C   0  0  1  0  0  0  0  0  0  0  0  0
   15.3372   -6.2855  -19.5577 C   0  0  0  0  0  0  0  0  0  0  0  0
   14.3677   -5.1680  -19.5296 C   0  0  0  0  0  0  0  0  0  0  0  0
   14.8813   -3.8164  -19.8638 C   0  0  0  0  0  0  0  0  0  0  0  0
   13.8450   -2.7357  -19.8475 C   0  0  0  0  0  0  0  0  0  0  0  0
   14.4642   -1.4600  -20.1849 N   0  0  0  0  0  0  0  0  0  0  0  0
   15.4969   -8.2291  -18.0523 C   0  0  0  0  0  0  0  0  0  0  0  0
   14.9729   -8.1706  -16.9083 O   0  0  0  0  0  0  0  0  0  0  0  0
   16.7499   -8.8813  -18.1060 N   0  0  0  0  0  0  0  0  0  0  0  0
   17.3672   -9.5541  -17.0280 C   0  0  1  0  0  0  0  0  0  0  0  0
   17.6706  -11.0034  -17.2345 C   0  0  0  0  0  0  0  0  0  0  0  0
   18.2734  -11.6388  -15.9993 C   0  0  0  0  0  0  0  0  0  0  0  0
   18.5049  -13.1289  -16.2254 C   0  0  0  0  0  0  0  0  0  0  0  0
   18.9948  -13.7820  -14.9347 C   0  0  0  0  0  0  0  0  0  0  0  0
   19.4380  -15.1366  -15.2174 N   0  0  0  0  0  0  0  0  0  0  0  0
   18.6537   -8.8346  -16.6915 C   0  0  0  0  0  0  0  0  0  0  0  0
   19.5189   -8.6917  -17.5899 O   0  0  0  0  0  0  0  0  0  0  0  0
   18.9019   -8.3275  -15.4115 N   0  0  0  0  0  0  0  0  0  0  0  0
   20.2248   -7.7302  -15.0960 C   0  0  1  0  0  0  0  0  0  0  0  0
   20.1115   -6.2607  -15.0650 C   0  0  0  0  0  0  0  0  0  0  0  0
   20.0743   -5.5316  -16.3149 C   0  0  0  0  0  0  0  0  0  0  0  0
   20.1197   -5.9409  -17.6130 C   0  0  0  0  0  0  0  0  0  0  0  0
   19.9802   -4.8485  -18.4260 N   0  0  0  0  0  0  0  0  0  0  0  0
   19.8504   -3.7875  -17.6205 C   0  0  0  0  0  0  0  0  0  0  0  0
   19.9039   -4.1770  -16.3611 N   0  0  0  0  0  0  0  0  0  0  0  0
   20.6768   -8.3491  -13.8057 C   0  0  0  0  0  0  0  0  0  0  0  0
   19.8650   -9.0734  -13.1280 O   0  0  0  0  0  0  0  0  0  0  0  0
   21.9203   -8.2043  -13.2655 O   0  0  0  0  0  0  0  0  0  0  0  0
  2  3  1  0
  2  1  1  1
  3  4  1  0
  4  5  1  0
  5  6  1  0
  6  7  1  0
  8  9  2  0
  8  2  1  0
 10  8  1  0
 11 10  1  0
 11 12  1  6
 13 14  1  0
 13 12  1  0
 15 16  1  0
 15 14  1  0
 17 11  1  0
 17 19  1  0
 18 17  2  0
 20 19  1  0
 20 27  1  0
 20 21  1  1
 22 26  1  0
 22 21  1  0
 23 22  2  0
 24 23  1  0
 24 25  1  0
 25 26  2  0
 27 28  2  0
 27 29  1  0
M  END
$$$$
