KKH.pdb
     RDKit          3D

 29 29  0  0  1  0  0  0  0  0999 V2000
   24.4160  -25.6598  -15.9035 N   0  0  0  0  0  0  0  0  0  0  0  0
   23.0283  -25.2530  -15.9796 C   0  0  1  0  0  0  0  0  0  0  0  0
   22.0856  -26.2626  -15.4245 C   0  0  0  0  0  0  0  0  0  0  0  0
   22.1237  -27.6054  -16.0448 C   0  0  0  0  0  0  0  0  0  0  0  0
   22.8631  -28.6672  -15.3180 C   0  0  0  0  0  0  0  0  0  0  0  0
   22.9285  -29.9808  -16.0336 C   0  0  0  0  0  0  0  0  0  0  0  0
   23.6393  -30.9510  -15.2099 N   0  0  0  0  0  0  0  0  0  0  0  0
   22.8489  -23.9225  -15.3214 C   0  0  0  0  0  0  0  0  0  0  0  0
   21.6943  -23.4480  -15.1528 O   0  0  0  0  0  0  0  0  0  0  0  0
   23.9061  -23.1116  -14.8490 N   0  0  0  0  0  0  0  0  0  0  0  0
   23.7523  -21.8711  -14.1906 C   0  0  1  0  0  0  0  0  0  0  0  0
   24.9799  -21.2959  -13.5601 C   0  0  0  0  0  0  0  0  0  0  0  0
   25.4073  -22.0758  -12.3346 C   0  0  0  0  0  0  0  0  0  0  0  0
   26.7467  -21.5631  -11.8168 C   0  0  0  0  0  0  0  0  0  0  0  0
   27.1129  -22.2803  -10.5191 C   0  0  0  0  0  0  0  0  0  0  0  0
   28.4785  -21.9461  -10.1520 N   0  0  0  0  0  0  0  0  0  0  0  0
   23.2048  -20.8701  -15.1826 C   0  0  0  0  0  0  0  0  0  0  0  0
   23.7775  -20.7443  -16.2928 O   0  0  0  0  0  0  0  0  0  0  0  0
   22.0827  -20.0855  -14.8955 N   0  0  0  0  0  0  0  0  0  0  0  0
   21.5637  -19.1360  -15.9131 C   0  0  1  0  0  0  0  0  0  0  0  0
   21.1887  -19.8724  -17.1338 C   0  0  0  0  0  0  0  0  0  0  0  0
   20.5792  -19.1513  -18.2310 C   0  0  0  0  0  0  0  0  0  0  0  0
   21.0452  -18.1659  -19.0474 C   0  0  0  0  0  0  0  0  0  0  0  0
   20.0854  -17.8724  -19.9783 N   0  0  0  0  0  0  0  0  0  0  0  0
   19.0478  -18.6785  -19.7235 C   0  0  0  0  0  0  0  0  0  0  0  0
   19.3257  -19.4459  -18.6869 N   0  0  0  0  0  0  0  0  0  0  0  0
   20.4364  -18.3874  -15.2640 C   0  0  0  0  0  0  0  0  0  0  0  0
   19.7969  -17.4976  -15.9288 O   0  0  0  0  0  0  0  0  0  0  0  0
   20.0150  -18.5726  -13.9806 O   0  0  0  0  0  0  0  0  0  0  0  0
  2  3  1  0
  2  1  1  1
  3  4  1  0
  4  5  1  0
  5  6  1  0
  6  7  1  0
  8  9  2  0
  8  2  1  0
 10  8  1  0
 11 10  1  0
 11 12  1  6
 13 14  1  0
 13 12  1  0
 15 16  1  0
 15 14  1  0
 17 11  1  0
 17 19  1  0
 18 17  2  0
 20 19  1  0
 20 27  1  0
 20 21  1  6
 22 26  1  0
 22 21  1  0
 23 22  2  0
 24 23  1  0
 24 25  1  0
 25 26  2  0
 27 28  2  0
 27 29  1  0
M  END
$$$$
