KKH.pdb
     RDKit          3D

 29 29  0  0  1  0  0  0  0  0999 V2000
   26.8932  -21.0413  -15.4427 N   0  0  0  0  0  0  0  0  0  0  0  0
   26.3650  -20.0293  -14.5519 C   0  0  1  0  0  0  0  0  0  0  0  0
   26.2849  -18.6789  -15.1734 C   0  0  0  0  0  0  0  0  0  0  0  0
   27.5384  -18.1499  -15.7550 C   0  0  0  0  0  0  0  0  0  0  0  0
   27.8949  -18.6022  -17.1227 C   0  0  0  0  0  0  0  0  0  0  0  0
   29.1939  -18.0636  -17.6372 C   0  0  0  0  0  0  0  0  0  0  0  0
   29.5642  -18.7662  -18.8594 N   0  0  0  0  0  0  0  0  0  0  0  0
   25.0369  -20.4612  -14.0178 C   0  0  0  0  0  0  0  0  0  0  0  0
   24.3040  -21.2355  -14.6888 O   0  0  0  0  0  0  0  0  0  0  0  0
   24.5046  -20.0614  -12.7708 N   0  0  0  0  0  0  0  0  0  0  0  0
   23.3002  -20.5379  -12.2064 C   0  0  1  0  0  0  0  0  0  0  0  0
   23.2461  -20.6056  -10.7138 C   0  0  0  0  0  0  0  0  0  0  0  0
   22.0264  -21.3569  -10.2235 C   0  0  0  0  0  0  0  0  0  0  0  0
   22.0335  -21.4493   -8.7015 C   0  0  0  0  0  0  0  0  0  0  0  0
   20.9597  -22.4295   -8.2339 C   0  0  0  0  0  0  0  0  0  0  0  0
   21.0065  -22.5417   -6.7859 N   0  0  0  0  0  0  0  0  0  0  0  0
   22.1677  -19.6615  -12.6914 C   0  0  0  0  0  0  0  0  0  0  0  0
   22.3343  -18.4174  -12.7164 O   0  0  0  0  0  0  0  0  0  0  0  0
   20.9462  -20.1998  -13.1104 N   0  0  0  0  0  0  0  0  0  0  0  0
   19.9704  -19.3452  -13.8341 C   0  0  1  0  0  0  0  0  0  0  0  0
   20.5918  -18.8096  -15.0589 C   0  0  0  0  0  0  0  0  0  0  0  0
   19.7671  -18.1001  -16.0136 C   0  0  0  0  0  0  0  0  0  0  0  0
   18.4780  -17.6639  -15.9609 C   0  0  0  0  0  0  0  0  0  0  0  0
   18.1952  -16.9806  -17.1129 N   0  0  0  0  0  0  0  0  0  0  0  0
   19.3094  -17.0048  -17.8541 C   0  0  0  0  0  0  0  0  0  0  0  0
   20.2542  -17.6669  -17.2141 N   0  0  0  0  0  0  0  0  0  0  0  0
   18.7533  -20.1910  -14.0696 C   0  0  0  0  0  0  0  0  0  0  0  0
   18.8763  -21.4592  -14.2087 O   0  0  0  0  0  0  0  0  0  0  0  0
   17.4783  -19.7152  -14.1551 O   0  0  0  0  0  0  0  0  0  0  0  0
  2  3  1  0
  2  1  1  6
  3  4  1  0
  4  5  1  0
  5  6  1  0
  6  7  1  0
  8  9  2  0
  8  2  1  0
 10  8  1  0
 11 10  1  0
 11 12  1  1
 13 14  1  0
 13 12  1  0
 15 16  1  0
 15 14  1  0
 17 11  1  0
 17 19  1  0
 18 17  2  0
 20 19  1  0
 20 27  1  0
 20 21  1  6
 22 26  1  0
 22 21  1  0
 23 22  2  0
 24 23  1  0
 24 25  1  0
 25 26  2  0
 27 28  2  0
 27 29  1  0
M  END
$$$$
