KKH.pdb
     RDKit          3D

 29 29  0  0  1  0  0  0  0  0999 V2000
   26.2315  -21.2207  -17.1842 N   0  0  0  0  0  0  0  0  0  0  0  0
   24.8965  -21.6909  -17.4902 C   0  0  1  0  0  0  0  0  0  0  0  0
   24.8743  -23.0467  -18.1046 C   0  0  0  0  0  0  0  0  0  0  0  0
   26.0537  -23.4170  -18.9178 C   0  0  0  0  0  0  0  0  0  0  0  0
   27.2505  -23.9093  -18.1913 C   0  0  0  0  0  0  0  0  0  0  0  0
   28.4001  -24.2896  -19.0721 C   0  0  0  0  0  0  0  0  0  0  0  0
   29.5790  -24.5447  -18.2537 N   0  0  0  0  0  0  0  0  0  0  0  0
   24.0417  -21.6357  -16.2647 C   0  0  0  0  0  0  0  0  0  0  0  0
   22.8509  -22.0448  -16.3021 O   0  0  0  0  0  0  0  0  0  0  0  0
   24.4684  -21.1439  -15.0099 N   0  0  0  0  0  0  0  0  0  0  0  0
   23.6814  -21.1059  -13.8372 C   0  0  1  0  0  0  0  0  0  0  0  0
   24.4061  -20.8322  -12.5584 C   0  0  0  0  0  0  0  0  0  0  0  0
   23.4907  -20.9256  -11.3560 C   0  0  0  0  0  0  0  0  0  0  0  0
   24.2693  -20.6629  -10.0716 C   0  0  0  0  0  0  0  0  0  0  0  0
   23.3225  -20.6890   -8.8735 C   0  0  0  0  0  0  0  0  0  0  0  0
   24.0331  -20.2428   -7.6872 N   0  0  0  0  0  0  0  0  0  0  0  0
   22.6078  -20.0568  -14.0179 C   0  0  0  0  0  0  0  0  0  0  0  0
   22.9094  -18.9733  -14.5757 O   0  0  0  0  0  0  0  0  0  0  0  0
   21.2947  -20.2628  -13.5814 N   0  0  0  0  0  0  0  0  0  0  0  0
   20.1728  -19.5571  -14.2520 C   0  0  1  0  0  0  0  0  0  0  0  0
   20.1878  -19.8590  -15.6948 C   0  0  0  0  0  0  0  0  0  0  0  0
   20.3449  -18.7731  -16.6390 C   0  0  0  0  0  0  0  0  0  0  0  0
   21.3055  -17.8183  -16.7816 C   0  0  0  0  0  0  0  0  0  0  0  0
   21.0173  -17.0630  -17.8862 N   0  0  0  0  0  0  0  0  0  0  0  0
   19.8895  -17.5621  -18.4061 C   0  0  0  0  0  0  0  0  0  0  0  0
   19.4767  -18.5804  -17.6758 N   0  0  0  0  0  0  0  0  0  0  0  0
   18.9190  -19.9733  -13.5398 C   0  0  0  0  0  0  0  0  0  0  0  0
   18.1464  -19.0824  -13.0376 O   0  0  0  0  0  0  0  0  0  0  0  0
   18.5114  -21.2631  -13.3691 O   0  0  0  0  0  0  0  0  0  0  0  0
  2  3  1  0
  2  1  1  1
  3  4  1  0
  4  5  1  0
  5  6  1  0
  6  7  1  0
  8  9  2  0
  8  2  1  0
 10  8  1  0
 11 10  1  0
 11 12  1  1
 13 14  1  0
 13 12  1  0
 15 16  1  0
 15 14  1  0
 17 11  1  0
 17 19  1  0
 18 17  2  0
 20 19  1  0
 20 27  1  0
 20 21  1  6
 22 26  1  0
 22 21  1  0
 23 22  2  0
 24 23  1  0
 24 25  1  0
 25 26  2  0
 27 28  2  0
 27 29  1  0
M  END
$$$$
