KKH.pdb
     RDKit          3D

 29 29  0  0  1  0  0  0  0  0999 V2000
   26.2703  -19.4310  -17.4769 N   0  0  0  0  0  0  0  0  0  0  0  0
   25.1218  -18.8604  -16.8044 C   0  0  1  0  0  0  0  0  0  0  0  0
   24.0820  -18.3515  -17.7403 C   0  0  0  0  0  0  0  0  0  0  0  0
   24.5735  -17.7055  -18.9774 C   0  0  0  0  0  0  0  0  0  0  0  0
   23.5590  -17.0979  -19.8740 C   0  0  0  0  0  0  0  0  0  0  0  0
   24.1153  -16.5059  -21.1318 C   0  0  0  0  0  0  0  0  0  0  0  0
   23.0279  -15.9750  -21.9444 N   0  0  0  0  0  0  0  0  0  0  0  0
   24.5487  -19.8510  -15.8421 C   0  0  0  0  0  0  0  0  0  0  0  0
   24.1984  -20.9936  -16.2403 O   0  0  0  0  0  0  0  0  0  0  0  0
   24.3559  -19.6109  -14.4625 N   0  0  0  0  0  0  0  0  0  0  0  0
   23.9055  -20.5648  -13.5227 C   0  0  1  0  0  0  0  0  0  0  0  0
   24.7439  -20.7384  -12.2970 C   0  0  0  0  0  0  0  0  0  0  0  0
   26.1751  -21.0991  -12.6347 C   0  0  0  0  0  0  0  0  0  0  0  0
   27.0298  -21.1271  -11.3723 C   0  0  0  0  0  0  0  0  0  0  0  0
   28.4737  -21.4754  -11.7280 C   0  0  0  0  0  0  0  0  0  0  0  0
   29.2673  -21.5423  -10.5127 N   0  0  0  0  0  0  0  0  0  0  0  0
   22.5030  -20.1908  -13.0994 C   0  0  0  0  0  0  0  0  0  0  0  0
   22.2129  -18.9756  -12.9757 O   0  0  0  0  0  0  0  0  0  0  0  0
   21.5269  -21.1598  -12.8436 N   0  0  0  0  0  0  0  0  0  0  0  0
   20.1109  -20.8977  -13.2076 C   0  0  1  0  0  0  0  0  0  0  0  0
   20.0188  -20.5735  -14.6427 C   0  0  0  0  0  0  0  0  0  0  0  0
   19.7879  -19.2010  -15.0405 C   0  0  0  0  0  0  0  0  0  0  0  0
   19.5913  -18.0620  -14.3203 C   0  0  0  0  0  0  0  0  0  0  0  0
   19.4876  -17.0052  -15.1843 N   0  0  0  0  0  0  0  0  0  0  0  0
   19.6225  -17.5065  -16.4180 C   0  0  0  0  0  0  0  0  0  0  0  0
   19.8022  -18.8117  -16.3497 N   0  0  0  0  0  0  0  0  0  0  0  0
   19.3304  -22.1094  -12.7896 C   0  0  0  0  0  0  0  0  0  0  0  0
   19.7777  -23.2796  -13.0606 O   0  0  0  0  0  0  0  0  0  0  0  0
   18.1409  -22.0787  -12.1239 O   0  0  0  0  0  0  0  0  0  0  0  0
  2  3  1  0
  2  1  1  6
  3  4  1  0
  4  5  1  0
  5  6  1  0
  6  7  1  0
  8  9  2  0
  8  2  1  0
 10  8  1  0
 11 10  1  0
 11 12  1  1
 13 14  1  0
 13 12  1  0
 15 16  1  0
 15 14  1  0
 17 11  1  0
 17 19  1  0
 18 17  2  0
 20 19  1  0
 20 27  1  0
 20 21  1  6
 22 26  1  0
 22 21  1  0
 23 22  2  0
 24 23  1  0
 24 25  1  0
 25 26  2  0
 27 28  2  0
 27 29  1  0
M  END
$$$$
