KKH.pdb
     RDKit          3D

 29 29  0  0  1  0  0  0  0  0999 V2000
   26.7126  -23.0907  -18.8522 N   0  0  0  0  0  0  0  0  0  0  0  0
   26.5636  -23.4771  -17.4646 C   0  0  1  0  0  0  0  0  0  0  0  0
   27.7719  -24.1410  -16.9032 C   0  0  0  0  0  0  0  0  0  0  0  0
   28.8035  -24.5575  -17.8788 C   0  0  0  0  0  0  0  0  0  0  0  0
   30.1430  -23.9302  -17.7584 C   0  0  0  0  0  0  0  0  0  0  0  0
   30.7400  -23.9967  -16.3869 C   0  0  0  0  0  0  0  0  0  0  0  0
   31.2680  -25.3343  -16.1482 N   0  0  0  0  0  0  0  0  0  0  0  0
   26.1641  -22.2924  -16.6443 C   0  0  0  0  0  0  0  0  0  0  0  0
   25.8857  -22.4301  -15.4235 O   0  0  0  0  0  0  0  0  0  0  0  0
   26.0665  -20.9711  -17.1370 N   0  0  0  0  0  0  0  0  0  0  0  0
   25.6600  -19.8468  -16.3842 C   0  0  1  0  0  0  0  0  0  0  0  0
   26.3039  -18.5436  -16.7342 C   0  0  0  0  0  0  0  0  0  0  0  0
   25.7490  -17.3979  -15.9144 C   0  0  0  0  0  0  0  0  0  0  0  0
   26.3715  -16.0773  -16.3543 C   0  0  0  0  0  0  0  0  0  0  0  0
   25.7943  -14.9288  -15.5295 C   0  0  0  0  0  0  0  0  0  0  0  0
   26.3073  -13.6666  -16.0346 N   0  0  0  0  0  0  0  0  0  0  0  0
   24.1618  -19.6976  -16.5223 C   0  0  0  0  0  0  0  0  0  0  0  0
   23.6788  -19.4765  -17.6598 O   0  0  0  0  0  0  0  0  0  0  0  0
   23.3059  -19.7992  -15.4203 N   0  0  0  0  0  0  0  0  0  0  0  0
   21.8349  -19.7416  -15.6181 C   0  0  1  0  0  0  0  0  0  0  0  0
   21.4136  -20.8215  -16.5288 C   0  0  0  0  0  0  0  0  0  0  0  0
   20.0013  -21.0267  -16.7706 C   0  0  0  0  0  0  0  0  0  0  0  0
   18.8965  -20.3377  -16.3714 C   0  0  0  0  0  0  0  0  0  0  0  0
   17.7893  -20.9134  -16.9341 N   0  0  0  0  0  0  0  0  0  0  0  0
   18.2266  -21.9429  -17.6691 C   0  0  0  0  0  0  0  0  0  0  0  0
   19.5405  -22.0238  -17.5827 N   0  0  0  0  0  0  0  0  0  0  0  0
   21.2170  -19.8002  -14.2517 C   0  0  0  0  0  0  0  0  0  0  0  0
   21.8961  -20.2557  -13.2647 O   0  0  0  0  0  0  0  0  0  0  0  0
   19.9485  -19.3998  -13.9523 O   0  0  0  0  0  0  0  0  0  0  0  0
  2  3  1  0
  2  1  1  6
  3  4  1  0
  4  5  1  0
  5  6  1  0
  6  7  1  0
  8  9  2  0
  8  2  1  0
 10  8  1  0
 11 10  1  0
 11 12  1  6
 13 14  1  0
 13 12  1  0
 15 16  1  0
 15 14  1  0
 17 11  1  0
 17 19  1  0
 18 17  2  0
 20 19  1  0
 20 27  1  0
 20 21  1  6
 22 26  1  0
 22 21  1  0
 23 22  2  0
 24 23  1  0
 24 25  1  0
 25 26  2  0
 27 28  2  0
 27 29  1  0
M  END
$$$$
