WIT.pdb
     RDKit          3D

 30 31  0  0  1  0  0  0  0  0999 V2000
   25.8769  -19.1924  -11.8226 N   0  0  0  0  0  0  0  0  0  0  0  0
   25.9324  -20.6742  -11.9062 C   0  0  1  0  0  0  0  0  0  0  0  0
   25.5483  -21.1657  -10.5594 C   0  0  0  0  0  0  0  0  0  0  0  0
   26.2990  -20.6626   -9.4081 C   0  0  0  0  0  0  0  0  0  0  0  0
   25.7152  -19.9652   -8.3495 C   0  0  0  0  0  0  0  0  0  0  0  0
   26.6837  -19.6255   -7.5115 N   0  0  0  0  0  0  0  0  0  0  0  0
   27.8757  -20.0514   -7.9414 C   0  0  0  0  0  0  0  0  0  0  0  0
   29.1547  -19.9389   -7.3846 C   0  0  0  0  0  0  0  0  0  0  0  0
   30.2109  -20.5060   -8.0584 C   0  0  0  0  0  0  0  0  0  0  0  0
   29.9909  -21.1621   -9.2477 C   0  0  0  0  0  0  0  0  0  0  0  0
   28.7388  -21.2604   -9.7737 C   0  0  0  0  0  0  0  0  0  0  0  0
   27.6406  -20.6983   -9.1221 C   0  0  0  0  0  0  0  0  0  0  0  0
   25.0346  -21.1360  -12.9619 C   0  0  0  0  0  0  0  0  0  0  0  0
   23.9544  -20.5502  -13.2028 O   0  0  0  0  0  0  0  0  0  0  0  0
   24.8521  -21.6347  -18.0831 C   0  0  0  0  0  0  0  0  0  0  0  0
   25.1213  -23.0005  -17.4760 C   0  0  0  0  0  0  0  0  0  0  0  0
   25.7146  -22.7671  -16.1010 C   0  0  2  0  0  0  0  0  0  0  0  0
   26.5465  -23.9694  -15.7497 C   0  0  0  0  0  0  0  0  0  0  0  0
   24.6733  -22.4852  -15.0554 C   0  0  2  0  0  0  0  0  0  0  0  0
   25.3073  -22.2764  -13.7920 N   0  0  0  0  0  0  0  0  0  0  0  0
   23.7616  -23.6787  -15.0250 C   0  0  0  0  0  0  0  0  0  0  0  0
   24.2335  -24.8351  -14.9738 O   0  0  0  0  0  0  0  0  0  0  0  0
   20.5302  -24.4080  -12.7719 C   0  0  0  0  0  0  0  0  0  0  0  0
   20.1649  -24.3148  -14.2386 C   0  0  1  0  0  0  0  0  0  0  0  0
   19.7319  -23.0103  -14.4655 O   0  0  0  0  0  0  0  0  0  0  0  0
   21.4132  -24.6402  -15.0271 C   0  0  2  0  0  0  0  0  0  0  0  0
   22.3480  -23.5370  -15.0516 N   0  0  0  0  0  0  0  0  0  0  0  0
   20.9909  -24.9430  -16.4159 C   0  0  0  0  0  0  0  0  0  0  0  0
   20.2171  -26.0867  -16.7031 O   0  0  0  0  0  0  0  0  0  0  0  0
   21.2725  -24.2390  -17.4111 O   0  0  0  0  0  0  0  0  0  0  0  0
  2  1  1  1
  2 13  1  0
  3  4  1  0
  3  2  1  0
  4 12  1  0
  5  4  2  0
  5  6  1  0
  6  7  1  0
  7  8  1  0
  8  9  2  0
 10  9  1  0
 11 10  2  0
 12  7  2  0
 12 11  1  0
 13 20  1  0
 13 14  2  0
 16 17  1  0
 16 15  1  0
 17 18  1  1
 19 17  1  0
 19 21  1  0
 19 20  1  1
 21 22  2  0
 24 23  1  1
 24 26  1  0
 25 24  1  0
 26 28  1  0
 26 27  1  6
 27 21  1  0
 28 29  1  0
 30 28  2  0
M  END
$$$$
