WIT.pdb
     RDKit          3D

 30 31  0  0  1  0  0  0  0  0999 V2000
   27.9946  -21.9935  -13.7618 N   0  0  0  0  0  0  0  0  0  0  0  0
   26.7824  -21.6673  -12.9683 C   0  0  1  0  0  0  0  0  0  0  0  0
   27.0952  -20.3995  -12.2627 C   0  0  0  0  0  0  0  0  0  0  0  0
   27.9520  -20.4696  -11.0783 C   0  0  0  0  0  0  0  0  0  0  0  0
   29.3452  -20.5324  -11.1348 C   0  0  0  0  0  0  0  0  0  0  0  0
   29.7922  -20.6295   -9.8911 N   0  0  0  0  0  0  0  0  0  0  0  0
   28.7883  -20.6346   -9.0084 C   0  0  0  0  0  0  0  0  0  0  0  0
   28.7853  -20.7035   -7.6107 C   0  0  0  0  0  0  0  0  0  0  0  0
   27.5748  -20.6670   -6.9590 C   0  0  0  0  0  0  0  0  0  0  0  0
   26.4101  -20.5651   -7.6844 C   0  0  0  0  0  0  0  0  0  0  0  0
   26.4336  -20.4999   -9.0443 C   0  0  0  0  0  0  0  0  0  0  0  0
   27.6405  -20.5348   -9.7435 C   0  0  0  0  0  0  0  0  0  0  0  0
   25.6315  -21.5569  -13.8612 C   0  0  0  0  0  0  0  0  0  0  0  0
   25.7392  -21.0634  -15.0069 O   0  0  0  0  0  0  0  0  0  0  0  0
   24.5871  -25.0644  -14.8461 C   0  0  0  0  0  0  0  0  0  0  0  0
   23.6258  -24.1981  -15.6411 C   0  0  0  0  0  0  0  0  0  0  0  0
   22.7751  -23.4430  -14.6396 C   0  0  2  0  0  0  0  0  0  0  0  0
   21.3470  -23.5130  -15.1048 C   0  0  0  0  0  0  0  0  0  0  0  0
   23.2275  -22.0243  -14.4408 C   0  0  2  0  0  0  0  0  0  0  0  0
   24.3090  -21.9926  -13.5075 N   0  0  0  0  0  0  0  0  0  0  0  0
   22.0373  -21.2616  -13.9325 C   0  0  0  0  0  0  0  0  0  0  0  0
   21.4962  -21.5789  -12.8513 O   0  0  0  0  0  0  0  0  0  0  0  0
   21.4402  -17.2365  -14.6112 C   0  0  0  0  0  0  0  0  0  0  0  0
   20.2368  -18.0793  -14.9782 C   0  0  1  0  0  0  0  0  0  0  0  0
   20.2863  -18.2769  -16.3563 O   0  0  0  0  0  0  0  0  0  0  0  0
   20.3587  -19.3799  -14.2170 C   0  0  2  0  0  0  0  0  0  0  0  0
   21.4921  -20.1651  -14.6533 N   0  0  0  0  0  0  0  0  0  0  0  0
   19.1165  -20.1520  -14.4618 C   0  0  0  0  0  0  0  0  0  0  0  0
   17.9091  -19.8003  -13.8234 O   0  0  0  0  0  0  0  0  0  0  0  0
   19.0360  -21.1406  -15.2244 O   0  0  0  0  0  0  0  0  0  0  0  0
  2  1  1  6
  2 13  1  0
  3  4  1  0
  3  2  1  0
  4 12  1  0
  5  4  2  0
  5  6  1  0
  6  7  1  0
  7  8  1  0
  8  9  2  0
 10  9  1  0
 11 10  2  0
 12  7  2  0
 12 11  1  0
 13 20  1  0
 13 14  2  0
 16 17  1  0
 16 15  1  0
 17 18  1  6
 19 17  1  0
 19 21  1  0
 19 20  1  1
 21 22  2  0
 24 23  1  1
 24 26  1  0
 25 24  1  0
 26 28  1  0
 26 27  1  6
 27 21  1  0
 28 29  1  0
 30 28  2  0
M  END
$$$$
