WIT.pdb
     RDKit          3D

 30 31  0  0  1  0  0  0  0  0999 V2000
   27.0648  -20.6939  -13.3070 N   0  0  0  0  0  0  0  0  0  0  0  0
   26.0402  -20.0704  -12.4313 C   0  0  1  0  0  0  0  0  0  0  0  0
   24.7415  -20.2896  -13.1158 C   0  0  0  0  0  0  0  0  0  0  0  0
   24.4939  -19.5626  -14.3616 C   0  0  0  0  0  0  0  0  0  0  0  0
   25.5043  -18.9940  -15.1386 C   0  0  0  0  0  0  0  0  0  0  0  0
   24.9259  -18.3821  -16.1618 N   0  0  0  0  0  0  0  0  0  0  0  0
   23.5955  -18.5060  -16.1188 C   0  0  0  0  0  0  0  0  0  0  0  0
   22.5948  -18.0458  -16.9820 C   0  0  0  0  0  0  0  0  0  0  0  0
   21.2871  -18.3512  -16.6852 C   0  0  0  0  0  0  0  0  0  0  0  0
   20.9953  -19.0916  -15.5627 C   0  0  0  0  0  0  0  0  0  0  0  0
   21.9833  -19.5299  -14.7345 C   0  0  0  0  0  0  0  0  0  0  0  0
   23.3223  -19.2409  -14.9994 C   0  0  0  0  0  0  0  0  0  0  0  0
   26.0982  -20.6791  -11.1046 C   0  0  0  0  0  0  0  0  0  0  0  0
   26.1119  -21.9225  -10.9570 O   0  0  0  0  0  0  0  0  0  0  0  0
   28.5544  -18.3626   -6.8969 C   0  0  0  0  0  0  0  0  0  0  0  0
   28.0814  -19.4780   -7.8129 C   0  0  0  0  0  0  0  0  0  0  0  0
   26.6022  -19.6744   -7.5477 C   0  0  2  0  0  0  0  0  0  0  0  0
   26.4574  -20.2804   -6.1792 C   0  0  0  0  0  0  0  0  0  0  0  0
   25.9252  -20.5059   -8.5999 C   0  0  2  0  0  0  0  0  0  0  0  0
   26.1409  -19.9205   -9.8854 N   0  0  0  0  0  0  0  0  0  0  0  0
   24.4655  -20.5397   -8.2466 C   0  0  0  0  0  0  0  0  0  0  0  0
   23.7954  -19.4849   -8.2209 O   0  0  0  0  0  0  0  0  0  0  0  0
   21.5596  -21.2776   -9.7987 C   0  0  0  0  0  0  0  0  0  0  0  0
   21.5674  -22.3681   -8.7480 C   0  0  1  0  0  0  0  0  0  0  0  0
   22.1290  -23.4968   -9.3406 O   0  0  0  0  0  0  0  0  0  0  0  0
   22.4016  -21.8633   -7.5925 C   0  0  2  0  0  0  0  0  0  0  0  0
   23.8028  -21.7573   -7.9345 N   0  0  0  0  0  0  0  0  0  0  0  0
   22.2502  -22.8345   -6.4821 C   0  0  0  0  0  0  0  0  0  0  0  0
   20.9830  -23.1029   -5.9242 O   0  0  0  0  0  0  0  0  0  0  0  0
   23.1944  -23.4732   -5.9664 O   0  0  0  0  0  0  0  0  0  0  0  0
  2  1  1  6
  2 13  1  0
  3  4  1  0
  3  2  1  0
  4 12  1  0
  5  4  2  0
  5  6  1  0
  6  7  1  0
  7  8  1  0
  8  9  2  0
 10  9  1  0
 11 10  2  0
 12  7  2  0
 12 11  1  0
 13 20  1  0
 13 14  2  0
 16 17  1  0
 16 15  1  0
 17 18  1  1
 19 17  1  0
 19 21  1  0
 19 20  1  6
 21 22  2  0
 24 23  1  6
 24 26  1  0
 25 24  1  0
 26 28  1  0
 26 27  1  6
 27 21  1  0
 28 29  1  0
 30 28  2  0
M  END
$$$$
