WIT.pdb
     RDKit          3D

 30 31  0  0  1  0  0  0  0  0999 V2000
   27.4102  -19.3074  -16.5140 N   0  0  0  0  0  0  0  0  0  0  0  0
   26.5909  -18.7172  -15.4249 C   0  0  1  0  0  0  0  0  0  0  0  0
   25.5212  -17.9434  -16.1031 C   0  0  0  0  0  0  0  0  0  0  0  0
   25.9089  -16.7360  -16.8337 C   0  0  0  0  0  0  0  0  0  0  0  0
   25.7082  -16.5639  -18.2042 C   0  0  0  0  0  0  0  0  0  0  0  0
   26.2130  -15.3850  -18.5376 N   0  0  0  0  0  0  0  0  0  0  0  0
   26.7366  -14.7587  -17.4790 C   0  0  0  0  0  0  0  0  0  0  0  0
   27.3527  -13.5084  -17.3547 C   0  0  0  0  0  0  0  0  0  0  0  0
   27.7821  -13.1145  -16.1090 C   0  0  0  0  0  0  0  0  0  0  0  0
   27.5993  -13.9457  -15.0278 C   0  0  0  0  0  0  0  0  0  0  0  0
   26.9980  -15.1591  -15.1692 C   0  0  0  0  0  0  0  0  0  0  0  0
   26.5490  -15.5965  -16.4156 C   0  0  0  0  0  0  0  0  0  0  0  0
   26.0731  -19.7844  -14.5724 C   0  0  0  0  0  0  0  0  0  0  0  0
   25.7048  -20.8814  -15.0509 O   0  0  0  0  0  0  0  0  0  0  0  0
   27.7859  -21.5621  -11.7760 C   0  0  0  0  0  0  0  0  0  0  0  0
   27.2545  -20.5322  -10.7943 C   0  0  0  0  0  0  0  0  0  0  0  0
   25.7444  -20.5336  -10.9219 C   0  0  2  0  0  0  0  0  0  0  0  0
   25.2124  -21.6530  -10.0705 C   0  0  0  0  0  0  0  0  0  0  0  0
   25.2783  -20.6464  -12.3456 C   0  0  2  0  0  0  0  0  0  0  0  0
   25.9432  -19.6676  -13.1465 N   0  0  0  0  0  0  0  0  0  0  0  0
   23.7920  -20.4289  -12.3289 C   0  0  0  0  0  0  0  0  0  0  0  0
   23.2694  -19.6905  -11.4664 O   0  0  0  0  0  0  0  0  0  0  0  0
   21.6299  -19.0039  -15.0037 C   0  0  0  0  0  0  0  0  0  0  0  0
   21.0965  -20.4025  -14.7743 C   0  0  1  0  0  0  0  0  0  0  0  0
   21.6671  -21.2180  -15.7490 O   0  0  0  0  0  0  0  0  0  0  0  0
   21.5144  -20.8123  -13.3803 C   0  0  2  0  0  0  0  0  0  0  0  0
   22.9382  -21.0463  -13.2824 N   0  0  0  0  0  0  0  0  0  0  0  0
   20.7976  -22.0696  -13.0570 C   0  0  0  0  0  0  0  0  0  0  0  0
   19.3938  -22.0873  -12.9224 O   0  0  0  0  0  0  0  0  0  0  0  0
   21.3534  -23.1769  -12.8834 O   0  0  0  0  0  0  0  0  0  0  0  0
  2  1  1  6
  2 13  1  0
  3  4  1  0
  3  2  1  0
  4 12  1  0
  5  4  2  0
  5  6  1  0
  6  7  1  0
  7  8  1  0
  8  9  2  0
 10  9  1  0
 11 10  2  0
 12  7  2  0
 12 11  1  0
 13 20  1  0
 13 14  2  0
 16 17  1  0
 16 15  1  0
 17 18  1  1
 19 17  1  0
 19 21  1  0
 19 20  1  6
 21 22  2  0
 24 23  1  6
 24 26  1  0
 25 24  1  0
 26 28  1  0
 26 27  1  6
 27 21  1  0
 28 29  1  0
 30 28  2  0
M  END
$$$$
