HMV.pdb
     RDKit          3D

 26 26  0  0  1  0  0  0  0  0999 V2000
   18.4376  -23.3175  -13.4193 N   0  0  0  0  0  0  0  0  0  0  0  0
   19.0940  -23.2207  -12.1250 C   0  0  1  0  0  0  0  0  0  0  0  0
   18.8280  -21.8267  -11.5939 C   0  0  0  0  0  0  0  0  0  0  0  0
   19.5671  -20.8008  -12.3947 C   0  0  0  0  0  0  0  0  0  0  0  0
   20.9252  -20.5533  -12.3844 C   0  0  0  0  0  0  0  0  0  0  0  0
   21.1668  -19.5674  -13.2357 N   0  0  0  0  0  0  0  0  0  0  0  0
   20.0156  -19.1688  -13.7954 C   0  0  0  0  0  0  0  0  0  0  0  0
   19.0447  -19.9289  -13.2746 N   0  0  0  0  0  0  0  0  0  0  0  0
   18.4828  -24.1731  -11.1471 C   0  0  0  0  0  0  0  0  0  0  0  0
   17.2392  -24.1459  -10.9782 O   0  0  0  0  0  0  0  0  0  0  0  0
   21.7945  -29.0649  -10.2937 C   0  0  0  0  0  0  0  0  0  0  0  0
   20.2679  -29.3789  -11.2522 S   0  0  0  0  0  0  0  0  0  0  0  0
   19.1166  -28.0078  -10.9708 C   0  0  0  0  0  0  0  0  0  0  0  0
   19.4696  -27.3800   -9.6458 C   0  0  0  0  0  0  0  0  0  0  0  0
   18.6979  -26.0856   -9.5066 C   0  0  2  0  0  0  0  0  0  0  0  0
   19.2541  -25.0994  -10.4092 N   0  0  0  0  0  0  0  0  0  0  0  0
   18.7488  -25.5948   -8.0872 C   0  0  0  0  0  0  0  0  0  0  0  0
   19.7214  -24.9092   -7.6812 O   0  0  0  0  0  0  0  0  0  0  0  0
   16.2787  -23.4350   -6.0248 C   0  0  0  0  0  0  0  0  0  0  0  0
   16.5727  -24.7195   -5.3134 C   0  0  1  0  0  0  0  0  0  0  0  0
   15.3605  -25.6599   -5.3418 C   0  0  0  0  0  0  0  0  0  0  0  0
   17.8071  -25.4098   -5.8015 C   0  0  2  0  0  0  0  0  0  0  0  0
   17.7113  -25.8833   -7.1574 N   0  0  0  0  0  0  0  0  0  0  0  0
   18.0690  -26.5700   -4.8952 C   0  0  0  0  0  0  0  0  0  0  0  0
   18.5465  -26.4173   -3.6004 O   0  0  0  0  0  0  0  0  0  0  0  0
   17.8601  -27.7515   -5.2866 O   0  0  0  0  0  0  0  0  0  0  0  0
  2  1  1  6
  2  9  1  0
  3  2  1  0
  4  3  1  0
  5  4  2  0
  6  5  1  0
  7  6  1  0
  7  8  2  0
  8  4  1  0
  9 16  1  0
  9 10  2  0
 12 11  1  0
 12 13  1  0
 13 14  1  0
 15 14  1  1
 16 15  1  0
 17 15  1  0
 17 18  2  0
 20 19  1  6
 20 22  1  0
 21 20  1  0
 22 23  1  6
 23 17  1  0
 24 22  1  0
 24 25  1  0
 26 24  2  0
M  END
$$$$
