HMV.pdb
     RDKit          3D

 26 26  0  0  1  0  0  0  0  0999 V2000
   19.8504  -11.1733  -19.7655 N   0  0  0  0  0  0  0  0  0  0  0  0
   19.1599  -11.4652  -18.5190 C   0  0  1  0  0  0  0  0  0  0  0  0
   19.0882  -12.9735  -18.3922 C   0  0  0  0  0  0  0  0  0  0  0  0
   18.3891  -13.5750  -19.5710 C   0  0  0  0  0  0  0  0  0  0  0  0
   18.8783  -14.5395  -20.4290 C   0  0  0  0  0  0  0  0  0  0  0  0
   17.9445  -14.7923  -21.3340 N   0  0  0  0  0  0  0  0  0  0  0  0
   16.8703  -14.0271  -21.0927 C   0  0  0  0  0  0  0  0  0  0  0  0
   17.1526  -13.2874  -20.0136 N   0  0  0  0  0  0  0  0  0  0  0  0
   19.9503  -10.9762  -17.3471 C   0  0  0  0  0  0  0  0  0  0  0  0
   19.4892  -11.1560  -16.1935 O   0  0  0  0  0  0  0  0  0  0  0  0
   26.9219  -10.3771  -14.1318 C   0  0  0  0  0  0  0  0  0  0  0  0
   25.8619  -10.9006  -15.5282 S   0  0  0  0  0  0  0  0  0  0  0  0
   24.2240  -10.1525  -15.3225 C   0  0  0  0  0  0  0  0  0  0  0  0
   23.3721  -10.5919  -16.4868 C   0  0  0  0  0  0  0  0  0  0  0  0
   22.0285   -9.9025  -16.3862 C   0  0  2  0  0  0  0  0  0  0  0  0
   21.1940  -10.3209  -17.4931 N   0  0  0  0  0  0  0  0  0  0  0  0
   22.2036   -8.4100  -16.3877 C   0  0  0  0  0  0  0  0  0  0  0  0
   22.7881   -7.8348  -17.3408 O   0  0  0  0  0  0  0  0  0  0  0  0
   20.2292   -5.7162  -17.1374 C   0  0  0  0  0  0  0  0  0  0  0  0
   20.7188   -5.3946  -15.7592 C   0  0  1  0  0  0  0  0  0  0  0  0
   19.5941   -5.5318  -14.7245 C   0  0  0  0  0  0  0  0  0  0  0  0
   21.9291   -6.1743  -15.3524 C   0  0  2  0  0  0  0  0  0  0  0  0
   21.7211   -7.5984  -15.3235 N   0  0  0  0  0  0  0  0  0  0  0  0
   22.3328   -5.7110  -13.9892 C   0  0  0  0  0  0  0  0  0  0  0  0
   22.8918   -4.4614  -13.7569 O   0  0  0  0  0  0  0  0  0  0  0  0
   22.1752   -6.4571  -12.9836 O   0  0  0  0  0  0  0  0  0  0  0  0
  2  1  1  6
  2  9  1  0
  3  2  1  0
  4  3  1  0
  5  4  2  0
  6  5  1  0
  7  6  1  0
  7  8  2  0
  8  4  1  0
  9 16  1  0
  9 10  2  0
 12 11  1  0
 12 13  1  0
 13 14  1  0
 15 14  1  6
 16 15  1  0
 17 15  1  0
 17 18  2  0
 20 19  1  6
 20 22  1  0
 21 20  1  0
 22 23  1  1
 23 17  1  0
 24 22  1  0
 24 25  1  0
 26 24  2  0
M  END
$$$$
