HMV.pdb
     RDKit          3D

 26 26  0  0  1  0  0  0  0  0999 V2000
   20.9128  -20.2924   -7.9797 N   0  0  0  0  0  0  0  0  0  0  0  0
   21.9893  -21.2669   -8.0657 C   0  0  1  0  0  0  0  0  0  0  0  0
   21.4362  -22.4789   -8.7878 C   0  0  0  0  0  0  0  0  0  0  0  0
   20.3788  -23.1508   -7.9690 C   0  0  0  0  0  0  0  0  0  0  0  0
   19.0153  -23.1264   -8.1838 C   0  0  0  0  0  0  0  0  0  0  0  0
   18.4394  -23.8470   -7.2330 N   0  0  0  0  0  0  0  0  0  0  0  0
   19.3798  -24.3359   -6.4120 C   0  0  0  0  0  0  0  0  0  0  0  0
   20.5609  -23.9046   -6.8708 N   0  0  0  0  0  0  0  0  0  0  0  0
   23.1115  -20.7456   -8.9060 C   0  0  0  0  0  0  0  0  0  0  0  0
   22.8362  -20.0321   -9.9013 O   0  0  0  0  0  0  0  0  0  0  0  0
   28.6853  -20.9810   -6.1600 C   0  0  0  0  0  0  0  0  0  0  0  0
   27.9950  -19.2907   -6.2780 S   0  0  0  0  0  0  0  0  0  0  0  0
   26.5445  -19.3333   -7.3637 C   0  0  0  0  0  0  0  0  0  0  0  0
   26.7867  -20.3946   -8.4075 C   0  0  0  0  0  0  0  0  0  0  0  0
   25.5867  -20.4458   -9.3282 C   0  0  2  0  0  0  0  0  0  0  0  0
   24.4663  -21.0277   -8.6191 N   0  0  0  0  0  0  0  0  0  0  0  0
   25.9059  -21.2424  -10.5618 C   0  0  0  0  0  0  0  0  0  0  0  0
   26.0987  -22.4828  -10.4910 O   0  0  0  0  0  0  0  0  0  0  0  0
   23.9839  -21.8368  -13.7901 C   0  0  0  0  0  0  0  0  0  0  0  0
   25.3430  -21.2999  -14.1173 C   0  0  1  0  0  0  0  0  0  0  0  0
   25.2614  -19.8541  -14.6245 C   0  0  0  0  0  0  0  0  0  0  0  0
   26.3271  -21.4280  -12.9977 C   0  0  2  0  0  0  0  0  0  0  0  0
   26.0018  -20.6320  -11.8433 N   0  0  0  0  0  0  0  0  0  0  0  0
   27.6659  -21.0117  -13.5178 C   0  0  0  0  0  0  0  0  0  0  0  0
   28.3853  -21.7716  -14.4303 O   0  0  0  0  0  0  0  0  0  0  0  0
   28.1970  -19.9325  -13.1356 O   0  0  0  0  0  0  0  0  0  0  0  0
  2  1  1  6
  2  9  1  0
  3  2  1  0
  4  3  1  0
  5  4  2  0
  6  5  1  0
  7  6  1  0
  7  8  2  0
  8  4  1  0
  9 16  1  0
  9 10  2  0
 12 11  1  0
 12 13  1  0
 13 14  1  0
 15 14  1  1
 16 15  1  0
 17 15  1  0
 17 18  2  0
 20 19  1  1
 20 22  1  0
 21 20  1  0
 22 23  1  1
 23 17  1  0
 24 22  1  0
 24 25  1  0
 26 24  2  0
M  END
$$$$
