HMV.pdb
     RDKit          3D

 26 26  0  0  1  0  0  0  0  0999 V2000
   28.1253  -21.6677  -16.7136 N   0  0  0  0  0  0  0  0  0  0  0  0
   27.7670  -20.6390  -15.7497 C   0  0  1  0  0  0  0  0  0  0  0  0
   27.0658  -19.5356  -16.5158 C   0  0  0  0  0  0  0  0  0  0  0  0
   28.0471  -18.7306  -17.3091 C   0  0  0  0  0  0  0  0  0  0  0  0
   29.4192  -18.8794  -17.3380 C   0  0  0  0  0  0  0  0  0  0  0  0
   29.9111  -17.9694  -18.1656 N   0  0  0  0  0  0  0  0  0  0  0  0
   28.9080  -17.2383  -18.6723 C   0  0  0  0  0  0  0  0  0  0  0  0
   27.7737  -17.7117  -18.1425 N   0  0  0  0  0  0  0  0  0  0  0  0
   26.7786  -21.1629  -14.7569 C   0  0  0  0  0  0  0  0  0  0  0  0
   25.8951  -21.9621  -15.1523 O   0  0  0  0  0  0  0  0  0  0  0  0
   24.4196  -21.0013   -7.1987 C   0  0  0  0  0  0  0  0  0  0  0  0
   25.7335  -20.6163   -8.4125 S   0  0  0  0  0  0  0  0  0  0  0  0
   25.1538  -21.0928  -10.0622 C   0  0  0  0  0  0  0  0  0  0  0  0
   26.2513  -20.7663  -11.0436 C   0  0  0  0  0  0  0  0  0  0  0  0
   25.7871  -21.1554  -12.4306 C   0  0  2  0  0  0  0  0  0  0  0  0
   26.8048  -20.7905  -13.3938 N   0  0  0  0  0  0  0  0  0  0  0  0
   24.4832  -20.4825  -12.7550 C   0  0  0  0  0  0  0  0  0  0  0  0
   24.4091  -19.2293  -12.8239 O   0  0  0  0  0  0  0  0  0  0  0  0
   21.4794  -22.3480  -15.0103 C   0  0  0  0  0  0  0  0  0  0  0  0
   21.6105  -20.8787  -14.7523 C   0  0  1  0  0  0  0  0  0  0  0  0
   20.3092  -20.1379  -15.0873 C   0  0  0  0  0  0  0  0  0  0  0  0
   22.0830  -20.5491  -13.3716 C   0  0  2  0  0  0  0  0  0  0  0  0
   23.2951  -21.2276  -12.9940 N   0  0  0  0  0  0  0  0  0  0  0  0
   20.9950  -20.9227  -12.4161 C   0  0  0  0  0  0  0  0  0  0  0  0
   21.0578  -22.0538  -11.6133 O   0  0  0  0  0  0  0  0  0  0  0  0
   19.9618  -20.2064  -12.3063 O   0  0  0  0  0  0  0  0  0  0  0  0
  2  1  1  6
  2  9  1  0
  3  2  1  0
  4  3  1  0
  5  4  2  0
  6  5  1  0
  7  6  1  0
  7  8  2  0
  8  4  1  0
  9 16  1  0
  9 10  2  0
 12 11  1  0
 12 13  1  0
 13 14  1  0
 15 14  1  1
 16 15  1  0
 17 15  1  0
 17 18  2  0
 20 19  1  1
 20 22  1  0
 21 20  1  0
 22 23  1  1
 23 17  1  0
 24 22  1  0
 24 25  1  0
 26 24  2  0
M  END
$$$$
