HMV.pdb
     RDKit          3D

 26 26  0  0  1  0  0  0  0  0999 V2000
   21.4044  -18.0950  -15.2157 N   0  0  0  0  0  0  0  0  0  0  0  0
   21.7903  -19.3327  -14.5564 C   0  0  1  0  0  0  0  0  0  0  0  0
   21.2959  -20.4724  -15.4241 C   0  0  0  0  0  0  0  0  0  0  0  0
   19.8059  -20.5920  -15.3492 C   0  0  0  0  0  0  0  0  0  0  0  0
   18.9550  -19.9100  -14.5027 C   0  0  0  0  0  0  0  0  0  0  0  0
   17.7178  -20.3074  -14.7605 N   0  0  0  0  0  0  0  0  0  0  0  0
   17.7377  -21.2206  -15.7418 C   0  0  0  0  0  0  0  0  0  0  0  0
   19.0182  -21.3870  -16.0942 N   0  0  0  0  0  0  0  0  0  0  0  0
   23.2793  -19.4593  -14.4943 C   0  0  0  0  0  0  0  0  0  0  0  0
   23.9719  -18.8275  -15.3291 O   0  0  0  0  0  0  0  0  0  0  0  0
   24.4985  -21.7102   -9.0011 C   0  0  0  0  0  0  0  0  0  0  0  0
   25.8901  -20.5878   -9.3900 S   0  0  0  0  0  0  0  0  0  0  0  0
   25.5989  -19.8493  -11.0192 C   0  0  0  0  0  0  0  0  0  0  0  0
   25.7055  -20.9498  -12.0449 C   0  0  0  0  0  0  0  0  0  0  0  0
   25.3693  -20.3745  -13.4037 C   0  0  2  0  0  0  0  0  0  0  0  0
   23.9313  -20.2629  -13.5317 N   0  0  0  0  0  0  0  0  0  0  0  0
   25.9338  -21.2408  -14.4941 C   0  0  0  0  0  0  0  0  0  0  0  0
   25.4583  -22.3836  -14.7148 O   0  0  0  0  0  0  0  0  0  0  0  0
   26.7569  -20.0978  -18.2486 C   0  0  0  0  0  0  0  0  0  0  0  0
   27.8793  -20.8583  -17.6128 C   0  0  1  0  0  0  0  0  0  0  0  0
   29.0724  -19.9407  -17.3141 C   0  0  0  0  0  0  0  0  0  0  0  0
   27.4716  -21.6317  -16.3988 C   0  0  2  0  0  0  0  0  0  0  0  0
   27.0158  -20.8077  -15.3101 N   0  0  0  0  0  0  0  0  0  0  0  0
   28.6538  -22.4286  -15.9478 C   0  0  0  0  0  0  0  0  0  0  0  0
   29.1402  -23.5170  -16.6596 O   0  0  0  0  0  0  0  0  0  0  0  0
   29.2610  -22.1313  -14.8821 O   0  0  0  0  0  0  0  0  0  0  0  0
  2  1  1  6
  2  9  1  0
  3  2  1  0
  4  3  1  0
  5  4  2  0
  6  5  1  0
  7  6  1  0
  7  8  2  0
  8  4  1  0
  9 16  1  0
  9 10  2  0
 12 11  1  0
 12 13  1  0
 13 14  1  0
 15 14  1  1
 16 15  1  0
 17 15  1  0
 17 18  2  0
 20 19  1  1
 20 22  1  0
 21 20  1  0
 22 23  1  1
 23 17  1  0
 24 22  1  0
 24 25  1  0
 26 24  2  0
M  END
$$$$
