HMV.pdb
     RDKit          3D

 26 26  0  0  1  0  0  0  0  0999 V2000
   28.5050  -21.1411  -15.2978 N   0  0  0  0  0  0  0  0  0  0  0  0
   27.6187  -20.2495  -14.5663 C   0  0  1  0  0  0  0  0  0  0  0  0
   26.8732  -19.4215  -15.5933 C   0  0  0  0  0  0  0  0  0  0  0  0
   27.8246  -18.6133  -16.4190 C   0  0  0  0  0  0  0  0  0  0  0  0
   28.4853  -19.0138  -17.5630 C   0  0  0  0  0  0  0  0  0  0  0  0
   29.2282  -17.9998  -17.9814 N   0  0  0  0  0  0  0  0  0  0  0  0
   29.0721  -16.9593  -17.1504 C   0  0  0  0  0  0  0  0  0  0  0  0
   28.2126  -17.3449  -16.1995 N   0  0  0  0  0  0  0  0  0  0  0  0
   26.5856  -21.0271  -13.8146 C   0  0  0  0  0  0  0  0  0  0  0  0
   26.8050  -22.2385  -13.5696 O   0  0  0  0  0  0  0  0  0  0  0  0
   27.5825  -19.9879   -8.9705 C   0  0  0  0  0  0  0  0  0  0  0  0
   25.9769  -20.5665   -8.3109 S   0  0  0  0  0  0  0  0  0  0  0  0
   24.8606  -20.8833   -9.7030 C   0  0  0  0  0  0  0  0  0  0  0  0
   25.6042  -20.5445  -10.9705 C   0  0  0  0  0  0  0  0  0  0  0  0
   24.6945  -20.8173  -12.1489 C   0  0  2  0  0  0  0  0  0  0  0  0
   25.3750  -20.4473  -13.3722 N   0  0  0  0  0  0  0  0  0  0  0  0
   23.4076  -20.0547  -12.0054 C   0  0  0  0  0  0  0  0  0  0  0  0
   22.7332  -20.1301  -10.9470 O   0  0  0  0  0  0  0  0  0  0  0  0
   22.6257  -19.4913  -15.9195 C   0  0  0  0  0  0  0  0  0  0  0  0
   21.6774  -20.1528  -14.9679 C   0  0  1  0  0  0  0  0  0  0  0  0
   21.9739  -21.6530  -14.8415 C   0  0  0  0  0  0  0  0  0  0  0  0
   21.6157  -19.4964  -13.6249 C   0  0  2  0  0  0  0  0  0  0  0  0
   22.9071  -19.2273  -13.0490 N   0  0  0  0  0  0  0  0  0  0  0  0
   20.8508  -20.3995  -12.7109 C   0  0  0  0  0  0  0  0  0  0  0  0
   19.4915  -20.2478  -12.4718 O   0  0  0  0  0  0  0  0  0  0  0  0
   21.4286  -21.3496  -12.1140 O   0  0  0  0  0  0  0  0  0  0  0  0
  2  1  1  6
  2  9  1  0
  3  2  1  0
  4  3  1  0
  5  4  2  0
  6  5  1  0
  7  6  1  0
  7  8  2  0
  8  4  1  0
  9 16  1  0
  9 10  2  0
 12 11  1  0
 12 13  1  0
 13 14  1  0
 15 14  1  1
 16 15  1  0
 17 15  1  0
 17 18  2  0
 20 19  1  6
 20 22  1  0
 21 20  1  0
 22 23  1  1
 23 17  1  0
 24 22  1  0
 24 25  1  0
 26 24  2  0
M  END
$$$$
