HMV.pdb
     RDKit          3D

 26 26  0  0  1  0  0  0  0  0999 V2000
   23.6916  -10.0774  -19.1609 N   0  0  0  0  0  0  0  0  0  0  0  0
   23.7343   -8.9343  -18.2625 C   0  0  1  0  0  0  0  0  0  0  0  0
   23.7459   -7.6893  -19.1263 C   0  0  0  0  0  0  0  0  0  0  0  0
   25.0439   -7.5618  -19.8606 C   0  0  0  0  0  0  0  0  0  0  0  0
   26.3091   -7.8147  -19.3697 C   0  0  0  0  0  0  0  0  0  0  0  0
   27.1784   -7.5798  -20.3414 N   0  0  0  0  0  0  0  0  0  0  0  0
   26.5219   -7.1846  -21.4416 C   0  0  0  0  0  0  0  0  0  0  0  0
   25.2187   -7.1771  -21.1369 N   0  0  0  0  0  0  0  0  0  0  0  0
   22.4924   -8.8651  -17.4320 C   0  0  0  0  0  0  0  0  0  0  0  0
   21.4279   -9.3362  -17.9016 O   0  0  0  0  0  0  0  0  0  0  0  0
   22.4446  -10.0350  -11.4531 C   0  0  0  0  0  0  0  0  0  0  0  0
   20.8777   -9.0941  -11.3671 S   0  0  0  0  0  0  0  0  0  0  0  0
   20.4164   -8.5853  -13.0442 C   0  0  0  0  0  0  0  0  0  0  0  0
   21.6540   -8.6659  -13.9023 C   0  0  0  0  0  0  0  0  0  0  0  0
   21.2995   -8.2090  -15.3009 C   0  0  2  0  0  0  0  0  0  0  0  0
   22.4759   -8.2896  -16.1412 N   0  0  0  0  0  0  0  0  0  0  0  0
   20.7615   -6.8061  -15.2736 C   0  0  0  0  0  0  0  0  0  0  0  0
   21.4642   -5.8593  -14.8370 O   0  0  0  0  0  0  0  0  0  0  0  0
   19.6049   -4.5151  -18.0786 C   0  0  0  0  0  0  0  0  0  0  0  0
   18.5134   -4.6512  -17.0626 C   0  0  1  0  0  0  0  0  0  0  0  0
   17.3660   -5.5207  -17.5936 C   0  0  0  0  0  0  0  0  0  0  0  0
   18.9885   -5.1344  -15.7287 C   0  0  2  0  0  0  0  0  0  0  0  0
   19.4516   -6.4973  -15.7349 N   0  0  0  0  0  0  0  0  0  0  0  0
   17.8508   -5.0085  -14.7665 C   0  0  0  0  0  0  0  0  0  0  0  0
   17.2139   -6.1096  -14.2101 O   0  0  0  0  0  0  0  0  0  0  0  0
   17.4231   -3.8723  -14.4216 O   0  0  0  0  0  0  0  0  0  0  0  0
  2  1  1  6
  2  9  1  0
  3  2  1  0
  4  3  1  0
  5  4  2  0
  6  5  1  0
  7  6  1  0
  7  8  2  0
  8  4  1  0
  9 16  1  0
  9 10  2  0
 12 11  1  0
 12 13  1  0
 13 14  1  0
 15 14  1  1
 16 15  1  0
 17 15  1  0
 17 18  2  0
 20 19  1  6
 20 22  1  0
 21 20  1  0
 22 23  1  6
 23 17  1  0
 24 22  1  0
 24 25  1  0
 26 24  2  0
M  END
$$$$
