HMV.pdb
     RDKit          3D

 26 26  0  0  1  0  0  0  0  0999 V2000
   25.4844  -16.0268  -18.5714 N   0  0  0  0  0  0  0  0  0  0  0  0
   25.1273  -14.7369  -19.1407 C   0  0  1  0  0  0  0  0  0  0  0  0
   23.6169  -14.7054  -19.2596 C   0  0  0  0  0  0  0  0  0  0  0  0
   23.1423  -15.6865  -20.2854 C   0  0  0  0  0  0  0  0  0  0  0  0
   23.2725  -15.5898  -21.6563 C   0  0  0  0  0  0  0  0  0  0  0  0
   22.7192  -16.6658  -22.1958 N   0  0  0  0  0  0  0  0  0  0  0  0
   22.2364  -17.4540  -21.2246 C   0  0  0  0  0  0  0  0  0  0  0  0
   22.5002  -16.8463  -20.0616 N   0  0  0  0  0  0  0  0  0  0  0  0
   25.5050  -13.6249  -18.2146 C   0  0  0  0  0  0  0  0  0  0  0  0
   25.4341  -13.8227  -16.9770 O   0  0  0  0  0  0  0  0  0  0  0  0
   30.1712   -9.6128  -19.4043 C   0  0  0  0  0  0  0  0  0  0  0  0
   29.8707   -9.2958  -17.6275 S   0  0  0  0  0  0  0  0  0  0  0  0
   28.1522   -9.7269  -17.2461 C   0  0  0  0  0  0  0  0  0  0  0  0
   27.7588  -10.8725  -18.1446 C   0  0  0  0  0  0  0  0  0  0  0  0
   26.3338  -11.2681  -17.8229 C   0  0  2  0  0  0  0  0  0  0  0  0
   25.9375  -12.3635  -18.6829 N   0  0  0  0  0  0  0  0  0  0  0  0
   25.4116  -10.0946  -17.9985 C   0  0  0  0  0  0  0  0  0  0  0  0
   25.1209   -9.6750  -19.1475 O   0  0  0  0  0  0  0  0  0  0  0  0
   21.7420   -9.4405  -17.0109 C   0  0  0  0  0  0  0  0  0  0  0  0
   22.6462   -8.4108  -16.4071 C   0  0  1  0  0  0  0  0  0  0  0  0
   22.8217   -8.6411  -14.9003 C   0  0  0  0  0  0  0  0  0  0  0  0
   23.9689   -8.2920  -17.0961 C   0  0  2  0  0  0  0  0  0  0  0  0
   24.8381   -9.4198  -16.8851 N   0  0  0  0  0  0  0  0  0  0  0  0
   24.6387   -7.0558  -16.5867 C   0  0  0  0  0  0  0  0  0  0  0  0
   25.8501   -7.0845  -15.9088 O   0  0  0  0  0  0  0  0  0  0  0  0
   24.1131   -5.9216  -16.7603 O   0  0  0  0  0  0  0  0  0  0  0  0
  2  1  1  1
  2  9  1  0
  3  2  1  0
  4  3  1  0
  5  4  2  0
  6  5  1  0
  7  6  1  0
  7  8  2  0
  8  4  1  0
  9 16  1  0
  9 10  2  0
 12 11  1  0
 12 13  1  0
 13 14  1  0
 15 14  1  6
 16 15  1  0
 17 15  1  0
 17 18  2  0
 20 19  1  6
 20 22  1  0
 21 20  1  0
 22 23  1  1
 23 17  1  0
 24 22  1  0
 24 25  1  0
 26 24  2  0
M  END
$$$$
