HMV.pdb
     RDKit          3D

 26 26  0  0  1  0  0  0  0  0999 V2000
   22.0803  -15.1215  -18.6411 N   0  0  0  0  0  0  0  0  0  0  0  0
   22.6696  -13.8555  -19.0480 C   0  0  1  0  0  0  0  0  0  0  0  0
   21.7630  -13.2624  -20.1075 C   0  0  0  0  0  0  0  0  0  0  0  0
   22.0340  -13.8761  -21.4455 C   0  0  0  0  0  0  0  0  0  0  0  0
   23.0403  -14.7643  -21.7682 C   0  0  0  0  0  0  0  0  0  0  0  0
   22.9265  -15.0604  -23.0544 N   0  0  0  0  0  0  0  0  0  0  0  0
   21.8843  -14.3965  -23.5746 C   0  0  0  0  0  0  0  0  0  0  0  0
   21.3462  -13.6761  -22.5832 N   0  0  0  0  0  0  0  0  0  0  0  0
   22.6845  -12.8863  -17.9089 C   0  0  0  0  0  0  0  0  0  0  0  0
   21.7494  -12.9270  -17.0725 O   0  0  0  0  0  0  0  0  0  0  0  0
   27.9051  -10.1177  -15.5877 C   0  0  0  0  0  0  0  0  0  0  0  0
   27.3955  -11.8177  -15.1424 S   0  0  0  0  0  0  0  0  0  0  0  0
   25.6348  -12.0121  -15.5250 C   0  0  0  0  0  0  0  0  0  0  0  0
   25.1785  -10.7567  -16.2252 C   0  0  0  0  0  0  0  0  0  0  0  0
   23.7468  -10.9510  -16.6757 C   0  0  2  0  0  0  0  0  0  0  0  0
   23.7113  -11.9296  -17.7423 N   0  0  0  0  0  0  0  0  0  0  0  0
   23.1593   -9.6456  -17.1329 C   0  0  0  0  0  0  0  0  0  0  0  0
   23.5601   -9.0990  -18.1919 O   0  0  0  0  0  0  0  0  0  0  0  0
   19.9079   -8.8592  -18.4869 C   0  0  0  0  0  0  0  0  0  0  0  0
   20.1050   -7.9499  -17.3136 C   0  0  1  0  0  0  0  0  0  0  0  0
   19.2408   -8.3850  -16.1227 C   0  0  0  0  0  0  0  0  0  0  0  0
   21.5370   -7.7840  -16.9135 C   0  0  2  0  0  0  0  0  0  0  0  0
   22.1388   -8.9842  -16.3945 N   0  0  0  0  0  0  0  0  0  0  0  0
   21.5978   -6.7151  -15.8695 C   0  0  0  0  0  0  0  0  0  0  0  0
   21.3896   -5.3729  -16.1575 O   0  0  0  0  0  0  0  0  0  0  0  0
   21.8458   -7.0048  -14.6664 O   0  0  0  0  0  0  0  0  0  0  0  0
  2  1  1  1
  2  9  1  0
  3  2  1  0
  4  3  1  0
  5  4  2  0
  6  5  1  0
  7  6  1  0
  7  8  2  0
  8  4  1  0
  9 16  1  0
  9 10  2  0
 12 11  1  0
 12 13  1  0
 13 14  1  0
 15 14  1  6
 16 15  1  0
 17 15  1  0
 17 18  2  0
 20 19  1  6
 20 22  1  0
 21 20  1  0
 22 23  1  1
 23 17  1  0
 24 22  1  0
 24 25  1  0
 26 24  2  0
M  END
$$$$
