HMV.pdb
     RDKit          3D

 26 26  0  0  1  0  0  0  0  0999 V2000
   24.6277  -13.9982  -21.3604 N   0  0  0  0  0  0  0  0  0  0  0  0
   24.8440  -12.5646  -21.2430 C   0  0  1  0  0  0  0  0  0  0  0  0
   24.0038  -11.8983  -22.3137 C   0  0  0  0  0  0  0  0  0  0  0  0
   24.5654  -12.1652  -23.6752 C   0  0  0  0  0  0  0  0  0  0  0  0
   25.3360  -11.3142  -24.4419 C   0  0  0  0  0  0  0  0  0  0  0  0
   25.6238  -11.9349  -25.5763 N   0  0  0  0  0  0  0  0  0  0  0  0
   25.0679  -13.1549  -25.5711 C   0  0  0  0  0  0  0  0  0  0  0  0
   24.4237  -13.2852  -24.4051 N   0  0  0  0  0  0  0  0  0  0  0  0
   24.3404  -12.0575  -19.9292 C   0  0  0  0  0  0  0  0  0  0  0  0
   23.2832  -12.5464  -19.4612 O   0  0  0  0  0  0  0  0  0  0  0  0
   27.4601  -12.4145  -14.7887 C   0  0  0  0  0  0  0  0  0  0  0  0
   26.9014  -10.7003  -14.4766 S   0  0  0  0  0  0  0  0  0  0  0  0
   25.5021  -10.3404  -15.5706 C   0  0  0  0  0  0  0  0  0  0  0  0
   25.8510  -10.8581  -16.9434 C   0  0  0  0  0  0  0  0  0  0  0  0
   24.6592  -10.6498  -17.8528 C   0  0  2  0  0  0  0  0  0  0  0  0
   25.0111  -11.0503  -19.1990 N   0  0  0  0  0  0  0  0  0  0  0  0
   24.2222   -9.2124  -17.8234 C   0  0  0  0  0  0  0  0  0  0  0  0
   24.9481   -8.3123  -18.3173 O   0  0  0  0  0  0  0  0  0  0  0  0
   21.7446   -7.3240  -19.5830 C   0  0  0  0  0  0  0  0  0  0  0  0
   21.4533   -7.1095  -18.1299 C   0  0  1  0  0  0  0  0  0  0  0  0
   20.1866   -7.8617  -17.7006 C   0  0  0  0  0  0  0  0  0  0  0  0
   22.6056   -7.4290  -17.2307 C   0  0  2  0  0  0  0  0  0  0  0  0
   22.9851   -8.8174  -17.2425 N   0  0  0  0  0  0  0  0  0  0  0  0
   22.2201   -7.0388  -15.8396 C   0  0  0  0  0  0  0  0  0  0  0  0
   21.9624   -7.9710  -14.8435 O   0  0  0  0  0  0  0  0  0  0  0  0
   22.1140   -5.8227  -15.5189 O   0  0  0  0  0  0  0  0  0  0  0  0
  2  1  1  1
  2  9  1  0
  3  2  1  0
  4  3  1  0
  5  4  2  0
  6  5  1  0
  7  6  1  0
  7  8  2  0
  8  4  1  0
  9 16  1  0
  9 10  2  0
 12 11  1  0
 12 13  1  0
 13 14  1  0
 15 14  1  1
 16 15  1  0
 17 15  1  0
 17 18  2  0
 20 19  1  6
 20 22  1  0
 21 20  1  0
 22 23  1  1
 23 17  1  0
 24 22  1  0
 24 25  1  0
 26 24  2  0
M  END
$$$$
