HMV.pdb
     RDKit          3D

 26 26  0  0  1  0  0  0  0  0999 V2000
   31.9749  -24.9388  -18.3859 N   0  0  0  0  0  0  0  0  0  0  0  0
   31.5812  -26.3262  -18.5754 C   0  0  1  0  0  0  0  0  0  0  0  0
   32.8259  -27.1711  -18.3932 C   0  0  0  0  0  0  0  0  0  0  0  0
   33.7473  -27.0223  -19.5631 C   0  0  0  0  0  0  0  0  0  0  0  0
   33.5129  -27.4149  -20.8657 C   0  0  0  0  0  0  0  0  0  0  0  0
   34.5803  -27.1011  -21.5849 N   0  0  0  0  0  0  0  0  0  0  0  0
   35.4954  -26.5205  -20.7957 C   0  0  0  0  0  0  0  0  0  0  0  0
   34.9764  -26.4774  -19.5627 N   0  0  0  0  0  0  0  0  0  0  0  0
   30.6168  -26.7539  -17.5152 C   0  0  0  0  0  0  0  0  0  0  0  0
   30.4084  -25.9841  -16.5458 O   0  0  0  0  0  0  0  0  0  0  0  0
   23.6176  -26.4286  -16.2641 C   0  0  0  0  0  0  0  0  0  0  0  0
   25.1488  -26.2612  -17.2518 S   0  0  0  0  0  0  0  0  0  0  0  0
   26.3460  -27.4936  -16.6752 C   0  0  0  0  0  0  0  0  0  0  0  0
   27.6494  -27.2317  -17.3873 C   0  0  0  0  0  0  0  0  0  0  0  0
   28.6668  -28.2485  -16.9165 C   0  0  2  0  0  0  0  0  0  0  0  0
   29.9345  -27.9906  -17.5668 N   0  0  0  0  0  0  0  0  0  0  0  0
   28.1912  -29.6426  -17.2142 C   0  0  0  0  0  0  0  0  0  0  0  0
   28.0699  -30.0379  -18.4016 O   0  0  0  0  0  0  0  0  0  0  0  0
   27.1404  -32.4562  -14.0802 C   0  0  0  0  0  0  0  0  0  0  0  0
   27.7443  -32.8841  -15.3819 C   0  0  1  0  0  0  0  0  0  0  0  0
   27.2909  -34.2989  -15.7657 C   0  0  0  0  0  0  0  0  0  0  0  0
   27.5130  -31.9176  -16.5002 C   0  0  2  0  0  0  0  0  0  0  0  0
   27.8630  -30.5593  -16.1769 N   0  0  0  0  0  0  0  0  0  0  0  0
   26.0631  -31.9767  -16.8613 C   0  0  0  0  0  0  0  0  0  0  0  0
   25.5062  -33.0422  -17.5559 O   0  0  0  0  0  0  0  0  0  0  0  0
   25.2816  -31.0395  -16.5394 O   0  0  0  0  0  0  0  0  0  0  0  0
  2  1  1  1
  2  9  1  0
  3  2  1  0
  4  3  1  0
  5  4  2  0
  6  5  1  0
  7  6  1  0
  7  8  2  0
  8  4  1  0
  9 16  1  0
  9 10  2  0
 12 11  1  0
 12 13  1  0
 13 14  1  0
 15 14  1  6
 16 15  1  0
 17 15  1  0
 17 18  2  0
 20 19  1  1
 20 22  1  0
 21 20  1  0
 22 23  1  1
 23 17  1  0
 24 22  1  0
 24 25  1  0
 26 24  2  0
M  END
$$$$
