HMV.pdb
     RDKit          3D

 26 26  0  0  1  0  0  0  0  0999 V2000
   27.9600  -33.5516   -1.7427 N   0  0  0  0  0  0  0  0  0  0  0  0
   27.2002  -34.2424   -0.7125 C   0  0  1  0  0  0  0  0  0  0  0  0
   27.5240  -35.7177   -0.8342 C   0  0  0  0  0  0  0  0  0  0  0  0
   26.8879  -36.3043   -2.0554 C   0  0  0  0  0  0  0  0  0  0  0  0
   25.6933  -36.9927   -2.1256 C   0  0  0  0  0  0  0  0  0  0  0  0
   25.4954  -37.3389   -3.3890 N   0  0  0  0  0  0  0  0  0  0  0  0
   26.5175  -36.8998   -4.1374 C   0  0  0  0  0  0  0  0  0  0  0  0
   27.3624  -36.2692   -3.3128 N   0  0  0  0  0  0  0  0  0  0  0  0
   27.6471  -33.8190    0.6506 C   0  0  0  0  0  0  0  0  0  0  0  0
   28.8605  -33.5523    0.8297 O   0  0  0  0  0  0  0  0  0  0  0  0
   25.8434  -29.1655    5.2733 C   0  0  0  0  0  0  0  0  0  0  0  0
   24.8794  -30.0015    3.9620 S   0  0  0  0  0  0  0  0  0  0  0  0
   25.9995  -31.0568    3.0049 C   0  0  0  0  0  0  0  0  0  0  0  0
   25.9877  -32.4261    3.6366 C   0  0  0  0  0  0  0  0  0  0  0  0
   27.1282  -33.2334    3.0553 C   0  0  2  0  0  0  0  0  0  0  0  0
   26.7536  -33.7094    1.7401 N   0  0  0  0  0  0  0  0  0  0  0  0
   27.4700  -34.3843    3.9591 C   0  0  0  0  0  0  0  0  0  0  0  0
   26.8000  -35.4476    3.9231 O   0  0  0  0  0  0  0  0  0  0  0  0
   30.6265  -36.8618    6.7856 C   0  0  0  0  0  0  0  0  0  0  0  0
   30.3158  -35.7101    5.8804 C   0  0  1  0  0  0  0  0  0  0  0  0
   31.0022  -35.8741    4.5178 C   0  0  0  0  0  0  0  0  0  0  0  0
   28.8518  -35.4455    5.7226 C   0  0  2  0  0  0  0  0  0  0  0  0
   28.5519  -34.3173    4.8804 N   0  0  0  0  0  0  0  0  0  0  0  0
   28.2828  -35.2046    7.0844 C   0  0  0  0  0  0  0  0  0  0  0  0
   27.8168  -33.9623    7.4933 O   0  0  0  0  0  0  0  0  0  0  0  0
   28.2061  -36.1433    7.9245 O   0  0  0  0  0  0  0  0  0  0  0  0
  2  1  1  6
  2  9  1  0
  3  2  1  0
  4  3  1  0
  5  4  2  0
  6  5  1  0
  7  6  1  0
  7  8  2  0
  8  4  1  0
  9 16  1  0
  9 10  2  0
 12 11  1  0
 12 13  1  0
 13 14  1  0
 15 14  1  1
 16 15  1  0
 17 15  1  0
 17 18  2  0
 20 19  1  1
 20 22  1  0
 21 20  1  0
 22 23  1  6
 23 17  1  0
 24 22  1  0
 24 25  1  0
 26 24  2  0
M  END
$$$$
