IVA.pdb
     RDKit          3D

 21 20  0  0  1  0  0  0  0  0999 V2000
   28.1391  -19.4515   -5.6263 C   0  0  0  0  0  0  0  0  0  0  0  0
   28.3262  -20.3762   -6.8455 C   0  0  0  0  0  0  0  0  0  0  0  0
   27.2121  -20.0173   -7.7850 C   0  0  2  0  0  0  0  0  0  0  0  0
   25.8830  -19.9809   -7.0632 C   0  0  0  0  0  0  0  0  0  0  0  0
   27.1503  -20.8515   -9.0406 C   0  0  2  0  0  0  0  0  0  0  0  0
   28.5383  -20.8427   -9.5486 N   0  0  0  0  0  0  0  0  0  0  0  0
   26.3025  -20.3039  -10.1056 C   0  0  0  0  0  0  0  0  0  0  0  0
   26.2893  -19.0429  -10.3112 O   0  0  0  0  0  0  0  0  0  0  0  0
   26.7264  -20.4186  -13.5570 C   0  0  0  0  0  0  0  0  0  0  0  0
   25.3150  -20.9419  -13.3714 C   0  0  1  0  0  0  0  0  0  0  0  0
   25.2702  -22.4294  -13.5199 C   0  0  0  0  0  0  0  0  0  0  0  0
   24.7180  -20.4688  -12.0619 C   0  0  2  0  0  0  0  0  0  0  0  0
   25.4614  -21.0596  -10.9690 N   0  0  0  0  0  0  0  0  0  0  0  0
   23.3013  -20.9321  -12.0397 C   0  0  0  0  0  0  0  0  0  0  0  0
   23.0219  -22.0755  -11.6257 O   0  0  0  0  0  0  0  0  0  0  0  0
   19.9956  -19.2479  -12.7075 C   0  0  0  0  0  0  0  0  0  0  0  0
   20.8584  -20.4559  -12.4087 C   0  0  2  0  0  0  0  0  0  0  0  0
   22.2620  -20.0975  -12.4808 N   0  0  0  0  0  0  0  0  0  0  0  0
   20.5350  -21.5922  -13.3083 C   0  0  0  0  0  0  0  0  0  0  0  0
   19.5317  -22.3119  -13.1797 O   0  0  0  0  0  0  0  0  0  0  0  0
   21.4052  -21.8663  -14.3543 O   0  0  0  0  0  0  0  0  0  0  0  0
  2  3  1  0
  2  1  1  0
  3  5  1  0
  3  4  1  1
  5  7  1  0
  5  6  1  6
  7  8  2  0
 10  9  1  1
 10 11  1  0
 10 12  1  0
 12 14  1  0
 13  7  1  0
 12 13  1  1
 14 15  2  0
 17 16  1  6
 17 19  1  0
 18 17  1  0
 18 14  1  0
 19 20  2  0
 19 21  1  0
M  END
$$$$
