IVA.pdb
     RDKit          3D

 21 20  0  0  1  0  0  0  0  0999 V2000
   18.0730  -12.6464  -15.4208 C   0  0  0  0  0  0  0  0  0  0  0  0
   17.6490  -12.6747  -13.9389 C   0  0  0  0  0  0  0  0  0  0  0  0
   16.8631  -11.4129  -13.7315 C   0  0  2  0  0  0  0  0  0  0  0  0
   17.5991  -10.2159  -14.2923 C   0  0  0  0  0  0  0  0  0  0  0  0
   16.4037  -11.1799  -12.3135 C   0  0  2  0  0  0  0  0  0  0  0  0
   15.5975  -12.3768  -11.9939 N   0  0  0  0  0  0  0  0  0  0  0  0
   15.5302  -10.0154  -12.1300 C   0  0  0  0  0  0  0  0  0  0  0  0
   14.4264   -9.9518  -12.7703 O   0  0  0  0  0  0  0  0  0  0  0  0
   15.5633   -7.6428   -8.7814 C   0  0  0  0  0  0  0  0  0  0  0  0
   14.4216   -7.6105   -9.7792 C   0  0  1  0  0  0  0  0  0  0  0  0
   13.5737   -6.3939   -9.5856 C   0  0  0  0  0  0  0  0  0  0  0  0
   14.9262   -7.7489  -11.2009 C   0  0  2  0  0  0  0  0  0  0  0  0
   15.7927   -8.9061  -11.2786 N   0  0  0  0  0  0  0  0  0  0  0  0
   15.6870   -6.5056  -11.5130 C   0  0  0  0  0  0  0  0  0  0  0  0
   16.7537   -6.2565  -10.9155 O   0  0  0  0  0  0  0  0  0  0  0  0
   15.3576   -3.8545  -14.1668 C   0  0  0  0  0  0  0  0  0  0  0  0
   15.9648   -4.4269  -12.9033 C   0  0  2  0  0  0  0  0  0  0  0  0
   15.2219   -5.5977  -12.4778 N   0  0  0  0  0  0  0  0  0  0  0  0
   16.0457   -3.4069  -11.8272 C   0  0  0  0  0  0  0  0  0  0  0  0
   15.2072   -3.2922  -10.9189 O   0  0  0  0  0  0  0  0  0  0  0  0
   17.1215   -2.5300  -11.8369 O   0  0  0  0  0  0  0  0  0  0  0  0
  2  3  1  0
  2  1  1  0
  3  5  1  0
  3  4  1  1
  5  7  1  0
  5  6  1  6
  7  8  2  0
 10  9  1  1
 10 11  1  0
 10 12  1  0
 12 14  1  0
 13  7  1  0
 12 13  1  1
 14 15  2  0
 17 16  1  6
 17 19  1  0
 18 17  1  0
 18 14  1  0
 19 20  2  0
 19 21  1  0
M  END
$$$$
