IVA.pdb
     RDKit          3D

 21 20  0  0  1  0  0  0  0  0999 V2000
   27.1762  -20.0186   -3.5084 C   0  0  0  0  0  0  0  0  0  0  0  0
   28.0037  -19.5498   -4.7217 C   0  0  0  0  0  0  0  0  0  0  0  0
   27.1174  -19.7751   -5.9119 C   0  0  2  0  0  0  0  0  0  0  0  0
   26.5452  -21.1756   -5.9060 C   0  0  0  0  0  0  0  0  0  0  0  0
   27.7415  -19.4254   -7.2402 C   0  0  2  0  0  0  0  0  0  0  0  0
   28.0635  -17.9878   -7.1206 N   0  0  0  0  0  0  0  0  0  0  0  0
   26.8518  -19.5687   -8.3981 C   0  0  0  0  0  0  0  0  0  0  0  0
   25.9509  -18.6879   -8.6101 O   0  0  0  0  0  0  0  0  0  0  0  0
   26.5328  -21.4338  -13.0076 C   0  0  0  0  0  0  0  0  0  0  0  0
   27.0842  -21.4758  -11.5953 C   0  0  1  0  0  0  0  0  0  0  0  0
   28.5657  -21.2713  -11.5912 C   0  0  0  0  0  0  0  0  0  0  0  0
   26.3590  -20.5014  -10.6899 C   0  0  2  0  0  0  0  0  0  0  0  0
   26.8894  -20.6267   -9.3486 N   0  0  0  0  0  0  0  0  0  0  0  0
   24.9165  -20.8764  -10.7176 C   0  0  0  0  0  0  0  0  0  0  0  0
   24.5203  -21.8899  -10.1072 O   0  0  0  0  0  0  0  0  0  0  0  0
   21.7785  -19.1827  -11.8767 C   0  0  0  0  0  0  0  0  0  0  0  0
   22.5691  -20.4175  -11.4986 C   0  0  2  0  0  0  0  0  0  0  0  0
   23.9830  -20.1026  -11.4255 N   0  0  0  0  0  0  0  0  0  0  0  0
   22.3045  -21.5410  -12.4328 C   0  0  0  0  0  0  0  0  0  0  0  0
   23.0492  -21.8434  -13.3789 O   0  0  0  0  0  0  0  0  0  0  0  0
   21.1575  -22.2977  -12.2371 O   0  0  0  0  0  0  0  0  0  0  0  0
  2  3  1  0
  2  1  1  0
  3  5  1  0
  3  4  1  6
  5  7  1  0
  5  6  1  1
  7  8  2  0
 10  9  1  6
 10 11  1  0
 10 12  1  0
 12 14  1  0
 13  7  1  0
 12 13  1  1
 14 15  2  0
 17 16  1  6
 17 19  1  0
 18 17  1  0
 18 14  1  0
 19 20  2  0
 19 21  1  0
M  END
$$$$
