IVA.pdb
     RDKit          3D

 21 20  0  0  1  0  0  0  0  0999 V2000
   26.4124  -15.5149  -15.1875 C   0  0  0  0  0  0  0  0  0  0  0  0
   24.9020  -15.7910  -15.3254 C   0  0  0  0  0  0  0  0  0  0  0  0
   24.3059  -14.4922  -15.7842 C   0  0  2  0  0  0  0  0  0  0  0  0
   24.7787  -13.3425  -14.9218 C   0  0  0  0  0  0  0  0  0  0  0  0
   22.8050  -14.5040  -15.9365 C   0  0  2  0  0  0  0  0  0  0  0  0
   22.5471  -15.6063  -16.8867 N   0  0  0  0  0  0  0  0  0  0  0  0
   22.2338  -13.2886  -16.5274 C   0  0  0  0  0  0  0  0  0  0  0  0
   22.7012  -12.8486  -17.6321 O   0  0  0  0  0  0  0  0  0  0  0  0
   18.5205  -10.1891  -17.2597 C   0  0  0  0  0  0  0  0  0  0  0  0
   19.1755  -11.4990  -16.8654 C   0  0  1  0  0  0  0  0  0  0  0  0
   18.8911  -12.5662  -17.8737 C   0  0  0  0  0  0  0  0  0  0  0  0
   20.6578  -11.3202  -16.6086 C   0  0  2  0  0  0  0  0  0  0  0  0
   21.1707  -12.5186  -15.9787 N   0  0  0  0  0  0  0  0  0  0  0  0
   20.8009  -10.1495  -15.6968 C   0  0  0  0  0  0  0  0  0  0  0  0
   20.3214  -10.1890  -14.5457 O   0  0  0  0  0  0  0  0  0  0  0  0
   22.4889   -6.7854  -15.9644 C   0  0  0  0  0  0  0  0  0  0  0  0
   21.5281   -7.7689  -15.3300 C   0  0  2  0  0  0  0  0  0  0  0  0
   21.4728   -8.9888  -16.1125 N   0  0  0  0  0  0  0  0  0  0  0  0
   20.1806   -7.1728  -15.1462 C   0  0  0  0  0  0  0  0  0  0  0  0
   19.2694   -7.2518  -15.9857 O   0  0  0  0  0  0  0  0  0  0  0  0
   19.9242   -6.4871  -13.9671 O   0  0  0  0  0  0  0  0  0  0  0  0
  2  3  1  0
  2  1  1  0
  3  5  1  0
  3  4  1  1
  5  7  1  0
  5  6  1  6
  7  8  2  0
 10  9  1  6
 10 11  1  0
 10 12  1  0
 12 14  1  0
 13  7  1  0
 12 13  1  1
 14 15  2  0
 17 16  1  6
 17 19  1  0
 18 17  1  0
 18 14  1  0
 19 20  2  0
 19 21  1  0
M  END
$$$$
