IVA.pdb
     RDKit          3D

 21 20  0  0  1  0  0  0  0  0999 V2000
   19.0936   -9.9160  -14.1205 C   0  0  0  0  0  0  0  0  0  0  0  0
   18.7072  -10.1580  -12.6479 C   0  0  0  0  0  0  0  0  0  0  0  0
   17.6657   -9.1220  -12.3401 C   0  0  2  0  0  0  0  0  0  0  0  0
   18.1140   -7.7496  -12.7926 C   0  0  0  0  0  0  0  0  0  0  0  0
   17.1830   -9.1157  -10.9107 C   0  0  2  0  0  0  0  0  0  0  0  0
   16.5692  -10.4482  -10.7311 N   0  0  0  0  0  0  0  0  0  0  0  0
   16.1438   -8.1234  -10.6134 C   0  0  0  0  0  0  0  0  0  0  0  0
   15.0481   -8.1464  -11.2700 O   0  0  0  0  0  0  0  0  0  0  0  0
   13.7255   -5.1860   -7.5859 C   0  0  0  0  0  0  0  0  0  0  0  0
   14.6668   -6.3096   -7.9758 C   0  0  1  0  0  0  0  0  0  0  0  0
   14.0331   -7.6446   -7.7465 C   0  0  0  0  0  0  0  0  0  0  0  0
   15.1718   -6.1402   -9.3940 C   0  0  2  0  0  0  0  0  0  0  0  0
   16.2309   -7.0985   -9.6305 N   0  0  0  0  0  0  0  0  0  0  0  0
   15.6937   -4.7482   -9.5043 C   0  0  0  0  0  0  0  0  0  0  0  0
   16.6315   -4.3704   -8.7732 O   0  0  0  0  0  0  0  0  0  0  0  0
   14.8683   -1.8011  -11.7169 C   0  0  0  0  0  0  0  0  0  0  0  0
   15.5909   -2.4695  -10.5662 C   0  0  2  0  0  0  0  0  0  0  0  0
   15.1444   -3.8422  -10.4257 N   0  0  0  0  0  0  0  0  0  0  0  0
   15.4264   -1.7065   -9.3029 C   0  0  0  0  0  0  0  0  0  0  0  0
   14.5192   -1.9162   -8.4818 O   0  0  0  0  0  0  0  0  0  0  0  0
   16.3403   -0.7001   -9.0232 O   0  0  0  0  0  0  0  0  0  0  0  0
  2  3  1  0
  2  1  1  0
  3  5  1  0
  3  4  1  1
  5  7  1  0
  5  6  1  6
  7  8  2  0
 10  9  1  6
 10 11  1  0
 10 12  1  0
 12 14  1  0
 13  7  1  0
 12 13  1  1
 14 15  2  0
 17 16  1  6
 17 19  1  0
 18 17  1  0
 18 14  1  0
 19 20  2  0
 19 21  1  0
M  END
$$$$
