IVA.pdb
     RDKit          3D

 21 20  0  0  1  0  0  0  0  0999 V2000
   20.3096  -19.0363  -15.1178 C   0  0  0  0  0  0  0  0  0  0  0  0
   21.6350  -19.5212  -15.7382 C   0  0  0  0  0  0  0  0  0  0  0  0
   22.4338  -20.0587  -14.5867 C   0  0  2  0  0  0  0  0  0  0  0  0
   22.4291  -19.0913  -13.4235 C   0  0  0  0  0  0  0  0  0  0  0  0
   23.8293  -20.5094  -14.9409 C   0  0  2  0  0  0  0  0  0  0  0  0
   23.6188  -21.6646  -15.8385 N   0  0  0  0  0  0  0  0  0  0  0  0
   24.6303  -20.9887  -13.8089 C   0  0  0  0  0  0  0  0  0  0  0  0
   24.2190  -21.9885  -13.1279 O   0  0  0  0  0  0  0  0  0  0  0  0
   28.9602  -21.1146  -11.3507 C   0  0  0  0  0  0  0  0  0  0  0  0
   28.1105  -20.7602  -12.5560 C   0  0  1  0  0  0  0  0  0  0  0  0
   28.5883  -21.4765  -13.7788 C   0  0  0  0  0  0  0  0  0  0  0  0
   26.6388  -20.9928  -12.2822 C   0  0  2  0  0  0  0  0  0  0  0  0
   25.8669  -20.4363  -13.3734 N   0  0  0  0  0  0  0  0  0  0  0  0
   26.3198  -20.2908  -11.0064 C   0  0  0  0  0  0  0  0  0  0  0  0
   26.3170  -19.0439  -10.9605 O   0  0  0  0  0  0  0  0  0  0  0  0
   25.0048  -21.3044   -7.6506 C   0  0  0  0  0  0  0  0  0  0  0  0
   25.8288  -20.3984   -8.5410 C   0  0  2  0  0  0  0  0  0  0  0  0
   26.0186  -21.0133   -9.8408 N   0  0  0  0  0  0  0  0  0  0  0  0
   27.1239  -20.0430   -7.9073 C   0  0  0  0  0  0  0  0  0  0  0  0
   28.1893  -20.6400   -8.1299 O   0  0  0  0  0  0  0  0  0  0  0  0
   27.1449  -18.9811   -7.0138 O   0  0  0  0  0  0  0  0  0  0  0  0
  2  3  1  0
  2  1  1  0
  3  5  1  0
  3  4  1  1
  5  7  1  0
  5  6  1  6
  7  8  2  0
 10  9  1  1
 10 11  1  0
 10 12  1  0
 12 14  1  0
 13  7  1  0
 12 13  1  6
 14 15  2  0
 17 16  1  1
 17 19  1  0
 18 17  1  0
 18 14  1  0
 19 20  2  0
 19 21  1  0
M  END
$$$$
