HDE.pdb
     RDKit          3D

 28 28  0  0  1  0  0  0  0  0999 V2000
   16.4308  -19.1283    2.1864 N   0  0  0  0  0  0  0  0  0  0  0  0
   15.8956  -18.7977    3.4761 C   0  0  1  0  0  0  0  0  0  0  0  0
   15.0225  -19.9370    3.9729 C   0  0  0  0  0  0  0  0  0  0  0  0
   13.8934  -20.0904    3.0172 C   0  0  0  0  0  0  0  0  0  0  0  0
   13.9916  -20.5472    1.7085 C   0  0  0  0  0  0  0  0  0  0  0  0
   12.7687  -20.5498    1.1502 N   0  0  0  0  0  0  0  0  0  0  0  0
   11.9004  -20.1082    2.0657 C   0  0  0  0  0  0  0  0  0  0  0  0
   12.5801  -19.8260    3.2071 N   0  0  0  0  0  0  0  0  0  0  0  0
   16.9715  -18.4605    4.4900 C   0  0  0  0  0  0  0  0  0  0  0  0
   17.9070  -19.2380    4.5883 O   0  0  0  0  0  0  0  0  0  0  0  0
   16.8627  -17.2920    5.2672 N   0  0  0  0  0  0  0  0  0  0  0  0
   17.6972  -16.7613    6.2688 C   0  0  1  0  0  0  0  0  0  0  0  0
   17.3458  -15.3733    6.8072 C   0  0  0  0  0  0  0  0  0  0  0  0
   18.4187  -14.7576    7.6114 C   0  0  0  0  0  0  0  0  0  0  0  0
   18.3054  -13.6186    8.1246 O   0  0  0  0  0  0  0  0  0  0  0  0
   18.0014  -17.6383    7.4090 C   0  0  0  0  0  0  0  0  0  0  0  0
   17.1198  -17.7948    8.3168 O   0  0  0  0  0  0  0  0  0  0  0  0
   19.6361  -15.4275    7.8504 O   0  0  0  0  0  0  0  0  0  0  0  0
   19.2176  -18.3352    7.5817 N   0  0  0  0  0  0  0  0  0  0  0  0
   19.5008  -19.2436    8.6832 C   0  0  1  0  0  0  0  0  0  0  0  0
   19.1956  -20.6542    8.3665 C   0  0  0  0  0  0  0  0  0  0  0  0
   17.8161  -21.1475    8.4289 C   0  0  0  0  0  0  0  0  0  0  0  0
   17.5356  -22.5511    8.1441 C   0  0  0  0  0  0  0  0  0  0  0  0
   18.1563  -23.2850    7.3443 O   0  0  0  0  0  0  0  0  0  0  0  0
   20.7909  -18.9476    9.2780 C   0  0  0  0  0  0  0  0  0  0  0  0
   21.5841  -18.1215    8.7459 O   0  0  0  0  0  0  0  0  0  0  0  0
   16.4723  -23.2114    8.7999 O   0  0  0  0  0  0  0  0  0  0  0  0
   21.1993  -19.5629   10.4532 O   0  0  0  0  0  0  0  0  0  0  0  0
  2  1  1  6
  2  9  1  0
  2  3  1  0
  3  4  1  0
  4  5  2  0
  5  6  1  0
  7  6  1  0
  8  4  1  0
  8  7  2  0
  9 11  1  0
 10  9  2  0
 11 12  1  0
 12 16  1  0
 13 14  1  0
 12 13  1  1
 14 18  1  0
 15 14  2  0
 16 17  2  0
 19 16  1  0
 19 20  1  0
 20 25  1  0
 20 21  1  6
 22 21  1  0
 23 24  2  0
 23 22  1  0
 25 26  2  0
 25 28  1  0
 27 23  1  0
M  END
$$$$
