HDE.pdb
     RDKit          3D

 28 28  0  0  1  0  0  0  0  0999 V2000
   14.9106  -10.5481  -14.4616 N   0  0  0  0  0  0  0  0  0  0  0  0
   16.1710  -10.4949  -13.7776 C   0  0  1  0  0  0  0  0  0  0  0  0
   17.2247  -11.2240  -14.5934 C   0  0  0  0  0  0  0  0  0  0  0  0
   16.8163  -12.6511  -14.6858 C   0  0  0  0  0  0  0  0  0  0  0  0
   16.7418  -13.5463  -13.6256 C   0  0  0  0  0  0  0  0  0  0  0  0
   16.3395  -14.7430  -14.0873 N   0  0  0  0  0  0  0  0  0  0  0  0
   16.1575  -14.6319  -15.4071 C   0  0  0  0  0  0  0  0  0  0  0  0
   16.4470  -13.3581  -15.7787 N   0  0  0  0  0  0  0  0  0  0  0  0
   16.6128   -9.0776  -13.4690 C   0  0  0  0  0  0  0  0  0  0  0  0
   16.7627   -8.3225  -14.4159 O   0  0  0  0  0  0  0  0  0  0  0  0
   16.8311   -8.6848  -12.1351 N   0  0  0  0  0  0  0  0  0  0  0  0
   17.2962   -7.4745  -11.5871 C   0  0  1  0  0  0  0  0  0  0  0  0
   17.0480   -7.2424  -10.0957 C   0  0  0  0  0  0  0  0  0  0  0  0
   17.4877   -5.9174   -9.6182 C   0  0  0  0  0  0  0  0  0  0  0  0
   17.9647   -5.0494  -10.3880 O   0  0  0  0  0  0  0  0  0  0  0  0
   18.6861   -7.1027  -11.8900 C   0  0  0  0  0  0  0  0  0  0  0  0
   19.6290   -7.6746  -11.2501 O   0  0  0  0  0  0  0  0  0  0  0  0
   17.3883   -5.5544   -8.2594 O   0  0  0  0  0  0  0  0  0  0  0  0
   19.0669   -6.1426  -12.8533 N   0  0  0  0  0  0  0  0  0  0  0  0
   20.4409   -5.8652  -13.2458 C   0  0  1  0  0  0  0  0  0  0  0  0
   20.8205   -6.5034  -14.5232 C   0  0  0  0  0  0  0  0  0  0  0  0
   22.1741   -6.3380  -15.0624 C   0  0  0  0  0  0  0  0  0  0  0  0
   22.5598   -7.0447  -16.2797 C   0  0  0  0  0  0  0  0  0  0  0  0
   23.2053   -6.5712  -17.2403 O   0  0  0  0  0  0  0  0  0  0  0  0
   20.7535   -4.4588  -13.0730 C   0  0  0  0  0  0  0  0  0  0  0  0
   19.8496   -3.5774  -13.1066 O   0  0  0  0  0  0  0  0  0  0  0  0
   22.2024   -8.3999  -16.4592 O   0  0  0  0  0  0  0  0  0  0  0  0
   22.0576   -4.0320  -12.8652 O   0  0  0  0  0  0  0  0  0  0  0  0
  2  1  1  6
  2  9  1  0
  2  3  1  0
  3  4  1  0
  4  5  2  0
  5  6  1  0
  7  6  1  0
  8  4  1  0
  8  7  2  0
  9 11  1  0
 10  9  2  0
 11 12  1  0
 12 16  1  0
 13 14  1  0
 12 13  1  1
 14 18  1  0
 15 14  2  0
 16 17  2  0
 19 16  1  0
 19 20  1  0
 20 25  1  0
 20 21  1  6
 22 21  1  0
 23 24  2  0
 23 22  1  0
 25 26  2  0
 25 28  1  0
 27 23  1  0
M  END
$$$$
