HDE.pdb
     RDKit          3D

 28 28  0  0  1  0  0  0  0  0999 V2000
   25.0784  -10.9220  -16.5198 N   0  0  0  0  0  0  0  0  0  0  0  0
   25.8801  -10.1672  -15.5997 C   0  0  1  0  0  0  0  0  0  0  0  0
   27.2811  -10.0004  -16.1624 C   0  0  0  0  0  0  0  0  0  0  0  0
   27.8515  -11.3590  -16.3634 C   0  0  0  0  0  0  0  0  0  0  0  0
   27.4795  -12.5076  -15.6754 C   0  0  0  0  0  0  0  0  0  0  0  0
   28.2099  -13.5442  -16.1217 N   0  0  0  0  0  0  0  0  0  0  0  0
   29.0325  -13.0861  -17.0708 C   0  0  0  0  0  0  0  0  0  0  0  0
   28.8192  -11.7535  -17.2230 N   0  0  0  0  0  0  0  0  0  0  0  0
   25.2720   -8.8209  -15.2577 C   0  0  0  0  0  0  0  0  0  0  0  0
   25.9648   -8.0424  -14.6227 O   0  0  0  0  0  0  0  0  0  0  0  0
   23.9617   -8.5165  -15.6719 N   0  0  0  0  0  0  0  0  0  0  0  0
   23.1845   -7.3533  -15.5160 C   0  0  1  0  0  0  0  0  0  0  0  0
   23.8507   -6.0182  -15.8531 C   0  0  0  0  0  0  0  0  0  0  0  0
   23.0127   -4.8419  -15.5512 C   0  0  0  0  0  0  0  0  0  0  0  0
   22.4022   -4.2045  -16.4426 O   0  0  0  0  0  0  0  0  0  0  0  0
   21.8436   -7.3685  -16.1190 C   0  0  0  0  0  0  0  0  0  0  0  0
   21.7405   -7.4467  -17.3874 O   0  0  0  0  0  0  0  0  0  0  0  0
   22.8501   -4.3731  -14.2315 O   0  0  0  0  0  0  0  0  0  0  0  0
   20.6362   -7.3020  -15.3893 N   0  0  0  0  0  0  0  0  0  0  0  0
   19.3137   -7.5193  -15.9574 C   0  0  1  0  0  0  0  0  0  0  0  0
   18.9327   -8.9458  -16.0138 C   0  0  0  0  0  0  0  0  0  0  0  0
   18.5394   -9.6581  -14.7939 C   0  0  0  0  0  0  0  0  0  0  0  0
   18.1355  -11.0584  -14.8715 C   0  0  0  0  0  0  0  0  0  0  0  0
   18.8779  -12.0544  -14.7288 O   0  0  0  0  0  0  0  0  0  0  0  0
   18.3531   -6.5839  -15.4024 C   0  0  0  0  0  0  0  0  0  0  0  0
   18.6795   -5.7720  -14.4918 O   0  0  0  0  0  0  0  0  0  0  0  0
   16.7883  -11.3970  -15.1307 O   0  0  0  0  0  0  0  0  0  0  0  0
   17.0408   -6.5487  -15.8526 O   0  0  0  0  0  0  0  0  0  0  0  0
  2  1  1  6
  2  9  1  0
  2  3  1  0
  3  4  1  0
  4  5  2  0
  5  6  1  0
  7  6  1  0
  8  4  1  0
  8  7  2  0
  9 11  1  0
 10  9  2  0
 11 12  1  0
 12 16  1  0
 13 14  1  0
 12 13  1  6
 14 18  1  0
 15 14  2  0
 16 17  2  0
 19 16  1  0
 19 20  1  0
 20 25  1  0
 20 21  1  1
 22 21  1  0
 23 24  2  0
 23 22  1  0
 25 26  2  0
 25 28  1  0
 27 23  1  0
M  END
$$$$
