HDE.pdb
     RDKit          3D

 28 28  0  0  1  0  0  0  0  0999 V2000
   24.6967  -12.5699  -18.0396 N   0  0  0  0  0  0  0  0  0  0  0  0
   24.6203  -11.7152  -16.8894 C   0  0  1  0  0  0  0  0  0  0  0  0
   25.9842  -11.1048  -16.6167 C   0  0  0  0  0  0  0  0  0  0  0  0
   26.9273  -12.2177  -16.3275 C   0  0  0  0  0  0  0  0  0  0  0  0
   26.7154  -13.2486  -15.4201 C   0  0  0  0  0  0  0  0  0  0  0  0
   27.7827  -14.0660  -15.4252 N   0  0  0  0  0  0  0  0  0  0  0  0
   28.6631  -13.5832  -16.3079 C   0  0  0  0  0  0  0  0  0  0  0  0
   28.1475  -12.4555  -16.8618 N   0  0  0  0  0  0  0  0  0  0  0  0
   23.5641  -10.6361  -17.0281 C   0  0  0  0  0  0  0  0  0  0  0  0
   23.2511  -10.3059  -18.1604 O   0  0  0  0  0  0  0  0  0  0  0  0
   22.9908  -10.0626  -15.8776 N   0  0  0  0  0  0  0  0  0  0  0  0
   22.0073   -9.0669  -15.7273 C   0  0  1  0  0  0  0  0  0  0  0  0
   20.6811   -9.4860  -15.0905 C   0  0  0  0  0  0  0  0  0  0  0  0
   19.6639   -8.4175  -15.0759 C   0  0  0  0  0  0  0  0  0  0  0  0
   19.1708   -7.9438  -16.1276 O   0  0  0  0  0  0  0  0  0  0  0  0
   22.4366   -7.8007  -15.1155 C   0  0  0  0  0  0  0  0  0  0  0  0
   22.5598   -7.7409  -13.8479 O   0  0  0  0  0  0  0  0  0  0  0  0
   19.1858   -7.8727  -13.8665 O   0  0  0  0  0  0  0  0  0  0  0  0
   22.7291   -6.6215  -15.8357 N   0  0  0  0  0  0  0  0  0  0  0  0
   22.1689   -5.3111  -15.5391 C   0  0  1  0  0  0  0  0  0  0  0  0
   20.9782   -4.9903  -16.3531 C   0  0  0  0  0  0  0  0  0  0  0  0
   20.1766   -3.7982  -16.0586 C   0  0  0  0  0  0  0  0  0  0  0  0
   19.5085   -3.0886  -17.1448 C   0  0  0  0  0  0  0  0  0  0  0  0
   18.9543   -3.6056  -18.1394 O   0  0  0  0  0  0  0  0  0  0  0  0
   22.0866   -5.0970  -14.1062 C   0  0  0  0  0  0  0  0  0  0  0  0
   21.2463   -5.7189  -13.3977 O   0  0  0  0  0  0  0  0  0  0  0  0
   19.4429   -1.6771  -17.1383 O   0  0  0  0  0  0  0  0  0  0  0  0
   22.9285   -4.2002  -13.4635 O   0  0  0  0  0  0  0  0  0  0  0  0
  2  1  1  6
  2  9  1  0
  2  3  1  0
  3  4  1  0
  4  5  2  0
  5  6  1  0
  7  6  1  0
  8  4  1  0
  8  7  2  0
  9 11  1  0
 10  9  2  0
 11 12  1  0
 12 16  1  0
 13 14  1  0
 12 13  1  1
 14 18  1  0
 15 14  2  0
 16 17  2  0
 19 16  1  0
 19 20  1  0
 20 25  1  0
 20 21  1  1
 22 21  1  0
 23 24  2  0
 23 22  1  0
 25 26  2  0
 25 28  1  0
 27 23  1  0
M  END
$$$$
