HDE.pdb
     RDKit          3D

 28 28  0  0  1  0  0  0  0  0999 V2000
   19.0745  -12.5500  -16.7670 N   0  0  0  0  0  0  0  0  0  0  0  0
   19.8652  -11.4203  -17.1640 C   0  0  1  0  0  0  0  0  0  0  0  0
   19.3082  -10.8352  -18.4504 C   0  0  0  0  0  0  0  0  0  0  0  0
   19.1894  -11.9428  -19.4358 C   0  0  0  0  0  0  0  0  0  0  0  0
   18.0098  -12.3913  -20.0174 C   0  0  0  0  0  0  0  0  0  0  0  0
   18.2893  -13.4057  -20.8540 N   0  0  0  0  0  0  0  0  0  0  0  0
   19.6096  -13.6125  -20.8190 C   0  0  0  0  0  0  0  0  0  0  0  0
   20.1648  -12.7235  -19.9554 N   0  0  0  0  0  0  0  0  0  0  0  0
   19.9581  -10.3594  -16.0846 C   0  0  0  0  0  0  0  0  0  0  0  0
   19.5071  -10.6418  -14.9864 O   0  0  0  0  0  0  0  0  0  0  0  0
   20.5462   -9.1136  -16.3731 N   0  0  0  0  0  0  0  0  0  0  0  0
   20.8167   -8.0017  -15.5534 C   0  0  1  0  0  0  0  0  0  0  0  0
   21.5317   -8.2690  -14.2278 C   0  0  0  0  0  0  0  0  0  0  0  0
   21.5913   -7.0948  -13.3364 C   0  0  0  0  0  0  0  0  0  0  0  0
   20.8095   -6.9460  -12.3668 O   0  0  0  0  0  0  0  0  0  0  0  0
   21.4527   -6.8438  -16.1989 C   0  0  0  0  0  0  0  0  0  0  0  0
   22.1984   -7.0388  -17.2146 O   0  0  0  0  0  0  0  0  0  0  0  0
   22.5433   -6.0725  -13.5284 O   0  0  0  0  0  0  0  0  0  0  0  0
   21.2999   -5.5056  -15.7741 N   0  0  0  0  0  0  0  0  0  0  0  0
   20.7633   -4.4326  -16.5985 C   0  0  1  0  0  0  0  0  0  0  0  0
   19.5970   -4.8473  -17.4053 C   0  0  0  0  0  0  0  0  0  0  0  0
   18.8179   -3.8529  -18.1500 C   0  0  0  0  0  0  0  0  0  0  0  0
   17.6882   -4.2829  -18.9677 C   0  0  0  0  0  0  0  0  0  0  0  0
   17.2741   -5.4548  -19.1048 O   0  0  0  0  0  0  0  0  0  0  0  0
   20.6566   -3.2012  -15.8381 C   0  0  0  0  0  0  0  0  0  0  0  0
   20.4172   -3.2150  -14.5983 O   0  0  0  0  0  0  0  0  0  0  0  0
   16.9424   -3.3360  -19.7052 O   0  0  0  0  0  0  0  0  0  0  0  0
   20.8133   -1.9640  -16.4472 O   0  0  0  0  0  0  0  0  0  0  0  0
  2  1  1  1
  2  9  1  0
  2  3  1  0
  3  4  1  0
  4  5  2  0
  5  6  1  0
  7  6  1  0
  8  4  1  0
  8  7  2  0
  9 11  1  0
 10  9  2  0
 11 12  1  0
 12 16  1  0
 13 14  1  0
 12 13  1  1
 14 18  1  0
 15 14  2  0
 16 17  2  0
 19 16  1  0
 19 20  1  0
 20 25  1  0
 20 21  1  1
 22 21  1  0
 23 24  2  0
 23 22  1  0
 25 26  2  0
 25 28  1  0
 27 23  1  0
M  END
$$$$
