HDE.pdb
     RDKit          3D

 28 28  0  0  1  0  0  0  0  0999 V2000
   14.8648  -11.5040  -16.8270 N   0  0  0  0  0  0  0  0  0  0  0  0
   15.8853  -10.8378  -16.0695 C   0  0  1  0  0  0  0  0  0  0  0  0
   17.2265  -11.5034  -16.3257 C   0  0  0  0  0  0  0  0  0  0  0  0
   17.1203  -12.9187  -15.8815 C   0  0  0  0  0  0  0  0  0  0  0  0
   16.0365  -13.4851  -15.2215 C   0  0  0  0  0  0  0  0  0  0  0  0
   16.2976  -14.7811  -14.9780 N   0  0  0  0  0  0  0  0  0  0  0  0
   17.5134  -15.0514  -15.4636 C   0  0  0  0  0  0  0  0  0  0  0  0
   18.0210  -13.9194  -16.0160 N   0  0  0  0  0  0  0  0  0  0  0  0
   15.9565   -9.3512  -16.3595 C   0  0  0  0  0  0  0  0  0  0  0  0
   15.3567   -8.9464  -17.3422 O   0  0  0  0  0  0  0  0  0  0  0  0
   16.6924   -8.5043  -15.5095 N   0  0  0  0  0  0  0  0  0  0  0  0
   16.8486   -7.1054  -15.4998 C   0  0  1  0  0  0  0  0  0  0  0  0
   15.5735   -6.2606  -15.4836 C   0  0  0  0  0  0  0  0  0  0  0  0
   15.8153   -4.8146  -15.6489 C   0  0  0  0  0  0  0  0  0  0  0  0
   15.9699   -4.0426  -14.6724 O   0  0  0  0  0  0  0  0  0  0  0  0
   17.7851   -6.5517  -14.5108 C   0  0  0  0  0  0  0  0  0  0  0  0
   17.7424   -6.9863  -13.3129 O   0  0  0  0  0  0  0  0  0  0  0  0
   15.8907   -4.2222  -16.9261 O   0  0  0  0  0  0  0  0  0  0  0  0
   18.7477   -5.5562  -14.7885 N   0  0  0  0  0  0  0  0  0  0  0  0
   20.1710   -5.6819  -14.5104 C   0  0  1  0  0  0  0  0  0  0  0  0
   20.7243   -6.9968  -14.8947 C   0  0  0  0  0  0  0  0  0  0  0  0
   22.1652   -7.2522  -14.8007 C   0  0  0  0  0  0  0  0  0  0  0  0
   22.6856   -8.5827  -15.0992 C   0  0  0  0  0  0  0  0  0  0  0  0
   22.0175   -9.5802  -15.4487 O   0  0  0  0  0  0  0  0  0  0  0  0
   20.8876   -4.4949  -14.9386 C   0  0  0  0  0  0  0  0  0  0  0  0
   21.8526   -4.0339  -14.2671 O   0  0  0  0  0  0  0  0  0  0  0  0
   24.0714   -8.8423  -15.0046 O   0  0  0  0  0  0  0  0  0  0  0  0
   20.5371   -3.8236  -16.1016 O   0  0  0  0  0  0  0  0  0  0  0  0
  2  1  1  6
  2  9  1  0
  2  3  1  0
  3  4  1  0
  4  5  2  0
  5  6  1  0
  7  6  1  0
  8  4  1  0
  8  7  2  0
  9 11  1  0
 10  9  2  0
 11 12  1  0
 12 16  1  0
 13 14  1  0
 12 13  1  1
 14 18  1  0
 15 14  2  0
 16 17  2  0
 19 16  1  0
 19 20  1  0
 20 25  1  0
 20 21  1  6
 22 21  1  0
 23 24  2  0
 23 22  1  0
 25 26  2  0
 25 28  1  0
 27 23  1  0
M  END
$$$$
