GTT.pdb
     RDKit          3D

 19 18  0  0  1  0  0  0  0  0999 V2000
    7.8135  -13.6038   16.1835 N   0  0  0  0  0  0  0  0  0  0  0  0
    8.9888  -13.0188   16.7802 C   0  0  0  0  0  0  0  0  0  0  0  0
    9.5796  -14.0620   17.6901 C   0  0  0  0  0  0  0  0  0  0  0  0
    8.9849  -15.1413   17.9227 O   0  0  0  0  0  0  0  0  0  0  0  0
   13.5026  -16.2403   19.6092 C   0  0  0  0  0  0  0  0  0  0  0  0
   12.8989  -15.1233   18.8333 C   0  0  1  0  0  0  0  0  0  0  0  0
   13.0383  -15.4309   17.4747 O   0  0  0  0  0  0  0  0  0  0  0  0
   11.4251  -14.9310   19.0771 C   0  0  2  0  0  0  0  0  0  0  0  0
   10.8246  -13.8909   18.3294 N   0  0  0  0  0  0  0  0  0  0  0  0
   11.1802  -14.8138   20.5457 C   0  0  0  0  0  0  0  0  0  0  0  0
   11.9104  -14.0524   21.2280 O   0  0  0  0  0  0  0  0  0  0  0  0
    7.7431  -14.5209   22.6173 C   0  0  0  0  0  0  0  0  0  0  0  0
    8.5761  -15.7237   23.0430 C   0  0  1  0  0  0  0  0  0  0  0  0
    8.1118  -16.8651   22.4003 O   0  0  0  0  0  0  0  0  0  0  0  0
   10.0068  -15.4116   22.6686 C   0  0  2  0  0  0  0  0  0  0  0  0
   10.1561  -15.5217   21.2300 N   0  0  0  0  0  0  0  0  0  0  0  0
   10.8628  -16.4310   23.3039 C   0  0  0  0  0  0  0  0  0  0  0  0
   11.1216  -16.4730   24.6666 O   0  0  0  0  0  0  0  0  0  0  0  0
   11.3954  -17.3163   22.5960 O   0  0  0  0  0  0  0  0  0  0  0  0
  1  2  1  0
  2  3  1  0
  3  4  2  0
  6  5  1  1
  6  7  1  0
  6  8  1  0
  8 10  1  0
  8  9  1  6
  9  3  1  0
 10 11  2  0
 10 16  1  0
 13 12  1  6
 13 14  1  0
 13 15  1  0
 15 17  1  0
 15 16  1  6
 17 19  2  0
 17 18  1  0
M  END
$$$$
