GTT.pdb
     RDKit          3D

 19 18  0  0  1  0  0  0  0  0999 V2000
    9.1274  -16.6486   15.7334 N   0  0  0  0  0  0  0  0  0  0  0  0
    8.2181  -16.7345   16.8495 C   0  0  0  0  0  0  0  0  0  0  0  0
    8.8561  -15.9858   17.9886 C   0  0  0  0  0  0  0  0  0  0  0  0
   10.0834  -15.7283   17.9980 O   0  0  0  0  0  0  0  0  0  0  0  0
    7.6473  -12.7028   19.9457 C   0  0  0  0  0  0  0  0  0  0  0  0
    7.9865  -13.8192   20.8693 C   0  0  1  0  0  0  0  0  0  0  0  0
    6.7825  -14.3719   21.3217 O   0  0  0  0  0  0  0  0  0  0  0  0
    8.7534  -14.9421   20.2214 C   0  0  2  0  0  0  0  0  0  0  0  0
    8.1201  -15.5331   19.1029 N   0  0  0  0  0  0  0  0  0  0  0  0
    9.1473  -15.9354   21.2647 C   0  0  0  0  0  0  0  0  0  0  0  0
    8.4091  -16.9311   21.4700 O   0  0  0  0  0  0  0  0  0  0  0  0
   12.5080  -17.6167   21.4446 C   0  0  0  0  0  0  0  0  0  0  0  0
   12.2289  -17.0764   22.8417 C   0  0  1  0  0  0  0  0  0  0  0  0
   12.9092  -15.8783   23.0243 O   0  0  0  0  0  0  0  0  0  0  0  0
   10.7320  -16.8926   22.9420 C   0  0  2  0  0  0  0  0  0  0  0  0
   10.3243  -15.8222   22.0522 N   0  0  0  0  0  0  0  0  0  0  0  0
   10.4279  -16.4868   24.3270 C   0  0  0  0  0  0  0  0  0  0  0  0
   10.5305  -17.3410   25.4158 O   0  0  0  0  0  0  0  0  0  0  0  0
   10.0554  -15.3135   24.5574 O   0  0  0  0  0  0  0  0  0  0  0  0
  1  2  1  0
  2  3  1  0
  3  4  2  0
  6  5  1  6
  6  7  1  0
  6  8  1  0
  8 10  1  0
  8  9  1  6
  9  3  1  0
 10 11  2  0
 10 16  1  0
 13 12  1  6
 13 14  1  0
 13 15  1  0
 15 17  1  0
 15 16  1  6
 17 19  2  0
 17 18  1  0
M  END
$$$$
