GTT.pdb
     RDKit          3D

 19 18  0  0  1  0  0  0  0  0999 V2000
    7.9784  -16.9576   15.8082 N   0  0  0  0  0  0  0  0  0  0  0  0
    7.2259  -16.7724   17.0244 C   0  0  0  0  0  0  0  0  0  0  0  0
    8.1912  -16.2596   18.0590 C   0  0  0  0  0  0  0  0  0  0  0  0
    9.4269  -16.2339   17.8467 O   0  0  0  0  0  0  0  0  0  0  0  0
    7.7259  -12.8642   19.9133 C   0  0  0  0  0  0  0  0  0  0  0  0
    8.1650  -13.9126   20.8737 C   0  0  1  0  0  0  0  0  0  0  0  0
    7.0487  -14.2815   21.6337 O   0  0  0  0  0  0  0  0  0  0  0  0
    8.6705  -15.1722   20.2207 C   0  0  2  0  0  0  0  0  0  0  0  0
    7.7691  -15.7820   19.3167 N   0  0  0  0  0  0  0  0  0  0  0  0
    9.1671  -16.1075   21.2738 C   0  0  0  0  0  0  0  0  0  0  0  0
    8.4155  -17.0312   21.6743 O   0  0  0  0  0  0  0  0  0  0  0  0
   12.8509  -18.0970   23.8141 C   0  0  0  0  0  0  0  0  0  0  0  0
   12.4305  -17.0190   22.8227 C   0  0  1  0  0  0  0  0  0  0  0  0
   12.9583  -17.3050   21.5692 O   0  0  0  0  0  0  0  0  0  0  0  0
   10.9192  -17.0132   22.8071 C   0  0  2  0  0  0  0  0  0  0  0  0
   10.4578  -16.0160   21.8602 N   0  0  0  0  0  0  0  0  0  0  0  0
   10.4644  -16.6204   24.1541 C   0  0  0  0  0  0  0  0  0  0  0  0
   10.2073  -17.5288   25.1712 O   0  0  0  0  0  0  0  0  0  0  0  0
   10.2941  -15.4080   24.4176 O   0  0  0  0  0  0  0  0  0  0  0  0
  1  2  1  0
  2  3  1  0
  3  4  2  0
  6  5  1  6
  6  7  1  0
  6  8  1  0
  8 10  1  0
  8  9  1  1
  9  3  1  0
 10 11  2  0
 10 16  1  0
 13 12  1  1
 13 14  1  0
 13 15  1  0
 15 17  1  0
 15 16  1  6
 17 19  2  0
 17 18  1  0
M  END
$$$$
