GTT.pdb
     RDKit          3D

 19 18  0  0  1  0  0  0  0  0999 V2000
    9.4343  -14.9257   13.1630 N   0  0  0  0  0  0  0  0  0  0  0  0
   10.1988  -15.6218   14.1684 C   0  0  0  0  0  0  0  0  0  0  0  0
    9.3574  -15.6444   15.4161 C   0  0  0  0  0  0  0  0  0  0  0  0
    8.5002  -14.7581   15.6446 O   0  0  0  0  0  0  0  0  0  0  0  0
    7.7524  -18.9633   16.9524 C   0  0  0  0  0  0  0  0  0  0  0  0
    8.2808  -18.0676   18.0168 C   0  0  1  0  0  0  0  0  0  0  0  0
    9.4617  -18.6418   18.5023 O   0  0  0  0  0  0  0  0  0  0  0  0
    8.6453  -16.6880   17.5348 C   0  0  2  0  0  0  0  0  0  0  0  0
    9.4807  -16.6530   16.3936 N   0  0  0  0  0  0  0  0  0  0  0  0
    9.1825  -15.8927   18.6790 C   0  0  0  0  0  0  0  0  0  0  0  0
   10.4128  -15.6420   18.7247 O   0  0  0  0  0  0  0  0  0  0  0  0
    8.0685  -12.4634   19.9280 C   0  0  0  0  0  0  0  0  0  0  0  0
    7.9891  -13.4381   21.0965 C   0  0  1  0  0  0  0  0  0  0  0  0
    6.6833  -13.8923   21.2386 O   0  0  0  0  0  0  0  0  0  0  0  0
    8.9446  -14.5664   20.7827 C   0  0  2  0  0  0  0  0  0  0  0  0
    8.3752  -15.3938   19.7363 N   0  0  0  0  0  0  0  0  0  0  0  0
    9.0776  -15.3855   22.0021 C   0  0  0  0  0  0  0  0  0  0  0  0
    9.6413  -14.9186   23.1810 O   0  0  0  0  0  0  0  0  0  0  0  0
    8.6670  -16.5686   21.9972 O   0  0  0  0  0  0  0  0  0  0  0  0
  1  2  1  0
  2  3  1  0
  3  4  2  0
  6  5  1  6
  6  7  1  0
  6  8  1  0
  8 10  1  0
  8  9  1  6
  9  3  1  0
 10 11  2  0
 10 16  1  0
 13 12  1  6
 13 14  1  0
 13 15  1  0
 15 17  1  0
 15 16  1  6
 17 19  2  0
 17 18  1  0
M  END
$$$$
