GTT.pdb
     RDKit          3D

 19 18  0  0  1  0  0  0  0  0999 V2000
    8.3060  -12.6088   18.0583 N   0  0  0  0  0  0  0  0  0  0  0  0
    8.7467  -13.9281   18.4394 C   0  0  0  0  0  0  0  0  0  0  0  0
    8.0173  -14.2805   19.7078 C   0  0  0  0  0  0  0  0  0  0  0  0
    7.5701  -13.3946   20.4745 O   0  0  0  0  0  0  0  0  0  0  0  0
    5.7777  -17.5773   22.6321 C   0  0  0  0  0  0  0  0  0  0  0  0
    6.6038  -17.3270   21.4200 C   0  0  1  0  0  0  0  0  0  0  0  0
    5.7773  -17.5018   20.3037 O   0  0  0  0  0  0  0  0  0  0  0  0
    7.1529  -15.9274   21.3281 C   0  0  2  0  0  0  0  0  0  0  0  0
    7.7948  -15.6144   20.1069 N   0  0  0  0  0  0  0  0  0  0  0  0
    8.0034  -15.6527   22.5246 C   0  0  0  0  0  0  0  0  0  0  0  0
    9.2358  -15.8901   22.4657 O   0  0  0  0  0  0  0  0  0  0  0  0
    6.4342  -13.9466   26.0127 C   0  0  0  0  0  0  0  0  0  0  0  0
    7.8528  -13.6009   25.5770 C   0  0  1  0  0  0  0  0  0  0  0  0
    8.6223  -13.2915   26.6922 O   0  0  0  0  0  0  0  0  0  0  0  0
    8.3863  -14.8111   24.8454 C   0  0  2  0  0  0  0  0  0  0  0  0
    7.4970  -15.1311   23.7451 N   0  0  0  0  0  0  0  0  0  0  0  0
    8.3774  -15.9407   25.7937 C   0  0  0  0  0  0  0  0  0  0  0  0
    9.3702  -16.1552   26.7392 O   0  0  0  0  0  0  0  0  0  0  0  0
    7.4336  -16.7634   25.7630 O   0  0  0  0  0  0  0  0  0  0  0  0
  1  2  1  0
  2  3  1  0
  3  4  2  0
  6  5  1  1
  6  7  1  0
  6  8  1  0
  8 10  1  0
  8  9  1  6
  9  3  1  0
 10 11  2  0
 10 16  1  0
 13 12  1  1
 13 14  1  0
 13 15  1  0
 15 17  1  0
 15 16  1  6
 17 19  2  0
 17 18  1  0
M  END
$$$$
