GTT.pdb
     RDKit          3D

 19 18  0  0  1  0  0  0  0  0999 V2000
    7.3993  -17.0092   16.3458 N   0  0  0  0  0  0  0  0  0  0  0  0
    6.7240  -16.5935   17.5504 C   0  0  0  0  0  0  0  0  0  0  0  0
    7.7869  -16.1095   18.4997 C   0  0  0  0  0  0  0  0  0  0  0  0
    9.0057  -16.1919   18.2162 O   0  0  0  0  0  0  0  0  0  0  0  0
    7.8028  -12.5944   20.0735 C   0  0  0  0  0  0  0  0  0  0  0  0
    8.1475  -13.5983   21.1164 C   0  0  1  0  0  0  0  0  0  0  0  0
    7.0217  -13.7612   21.9324 O   0  0  0  0  0  0  0  0  0  0  0  0
    8.4789  -14.9627   20.5712 C   0  0  2  0  0  0  0  0  0  0  0  0
    7.4799  -15.5398   19.7524 N   0  0  0  0  0  0  0  0  0  0  0  0
    8.9027  -15.8518   21.6937 C   0  0  0  0  0  0  0  0  0  0  0  0
    8.0242  -16.4418   22.3710 O   0  0  0  0  0  0  0  0  0  0  0  0
   10.8922  -18.9083   21.5924 C   0  0  0  0  0  0  0  0  0  0  0  0
   11.6323  -17.9936   22.5605 C   0  0  1  0  0  0  0  0  0  0  0  0
   12.6666  -17.3467   21.8946 O   0  0  0  0  0  0  0  0  0  0  0  0
   10.6116  -17.0159   23.0958 C   0  0  2  0  0  0  0  0  0  0  0  0
   10.2599  -16.0755   22.0490 N   0  0  0  0  0  0  0  0  0  0  0  0
   11.2491  -16.2690   24.1964 C   0  0  0  0  0  0  0  0  0  0  0  0
   11.4962  -16.8127   25.4490 O   0  0  0  0  0  0  0  0  0  0  0  0
   11.5946  -15.0791   24.0143 O   0  0  0  0  0  0  0  0  0  0  0  0
  1  2  1  0
  2  3  1  0
  3  4  2  0
  6  5  1  6
  6  7  1  0
  6  8  1  0
  8 10  1  0
  8  9  1  1
  9  3  1  0
 10 11  2  0
 10 16  1  0
 13 12  1  6
 13 14  1  0
 13 15  1  0
 15 17  1  0
 15 16  1  6
 17 19  2  0
 17 18  1  0
M  END
$$$$
