GTT.pdb
     RDKit          3D

 19 18  0  0  1  0  0  0  0  0999 V2000
    3.8332  -18.9992   21.2704 N   0  0  0  0  0  0  0  0  0  0  0  0
    4.1441  -17.6966   21.8057 C   0  0  0  0  0  0  0  0  0  0  0  0
    5.5522  -17.3768   21.3810 C   0  0  0  0  0  0  0  0  0  0  0  0
    5.9491  -17.5936   20.2113 O   0  0  0  0  0  0  0  0  0  0  0  0
    6.9585  -14.2636   20.7674 C   0  0  0  0  0  0  0  0  0  0  0  0
    7.9407  -14.9059   21.6822 C   0  0  1  0  0  0  0  0  0  0  0  0
    7.7392  -14.3700   22.9597 O   0  0  0  0  0  0  0  0  0  0  0  0
    7.7739  -16.3969   21.8151 C   0  0  2  0  0  0  0  0  0  0  0  0
    6.5005  -16.8200   22.2633 N   0  0  0  0  0  0  0  0  0  0  0  0
    8.8958  -16.9469   22.6331 C   0  0  0  0  0  0  0  0  0  0  0  0
    8.6910  -17.2280   23.8404 O   0  0  0  0  0  0  0  0  0  0  0  0
   13.4156  -18.8696   22.9400 C   0  0  0  0  0  0  0  0  0  0  0  0
   12.4339  -18.0912   22.0728 C   0  0  1  0  0  0  0  0  0  0  0  0
   12.1304  -18.8276   20.9339 O   0  0  0  0  0  0  0  0  0  0  0  0
   11.2095  -17.8434   22.9236 C   0  0  2  0  0  0  0  0  0  0  0  0
   10.2016  -17.1755   22.1223 N   0  0  0  0  0  0  0  0  0  0  0  0
   11.6073  -16.9387   24.0184 C   0  0  0  0  0  0  0  0  0  0  0  0
   11.8968  -17.3729   25.3042 O   0  0  0  0  0  0  0  0  0  0  0  0
   11.6953  -15.7087   23.7999 O   0  0  0  0  0  0  0  0  0  0  0  0
  1  2  1  0
  2  3  1  0
  3  4  2  0
  6  5  1  6
  6  7  1  0
  6  8  1  0
  8 10  1  0
  8  9  1  1
  9  3  1  0
 10 11  2  0
 10 16  1  0
 13 12  1  1
 13 14  1  0
 13 15  1  0
 15 17  1  0
 15 16  1  6
 17 19  2  0
 17 18  1  0
M  END
$$$$
