GTT.pdb
     RDKit          3D

 19 18  0  0  1  0  0  0  0  0999 V2000
    7.1263  -14.6671   19.5478 N   0  0  0  0  0  0  0  0  0  0  0  0
    6.4299  -15.0598   20.7481 C   0  0  0  0  0  0  0  0  0  0  0  0
    7.3975  -14.8882   21.8880 C   0  0  0  0  0  0  0  0  0  0  0  0
    8.6022  -14.6031   21.6878 O   0  0  0  0  0  0  0  0  0  0  0  0
    6.8262  -12.6929   25.1753 C   0  0  0  0  0  0  0  0  0  0  0  0
    7.3165  -14.0642   25.4809 C   0  0  1  0  0  0  0  0  0  0  0  0
    6.2144  -14.8237   25.8912 O   0  0  0  0  0  0  0  0  0  0  0  0
    7.9117  -14.7823   24.2982 C   0  0  2  0  0  0  0  0  0  0  0  0
    7.0122  -15.0360   23.2362 N   0  0  0  0  0  0  0  0  0  0  0  0
    8.6197  -16.0088   24.7724 C   0  0  0  0  0  0  0  0  0  0  0  0
    8.0037  -17.1038   24.7845 O   0  0  0  0  0  0  0  0  0  0  0  0
   12.7217  -18.4870   25.6442 C   0  0  0  0  0  0  0  0  0  0  0  0
   12.0961  -17.1530   25.2558 C   0  0  1  0  0  0  0  0  0  0  0  0
   12.3013  -16.9169   23.9017 O   0  0  0  0  0  0  0  0  0  0  0  0
   10.6258  -17.2521   25.5916 C   0  0  2  0  0  0  0  0  0  0  0  0
    9.9687  -16.0142   25.2178 N   0  0  0  0  0  0  0  0  0  0  0  0
   10.5158  -17.4135   27.0536 C   0  0  0  0  0  0  0  0  0  0  0  0
   10.5690  -18.6430   27.6948 O   0  0  0  0  0  0  0  0  0  0  0  0
   10.3658  -16.4013   27.7755 O   0  0  0  0  0  0  0  0  0  0  0  0
  1  2  1  0
  2  3  1  0
  3  4  2  0
  6  5  1  6
  6  7  1  0
  6  8  1  0
  8 10  1  0
  8  9  1  6
  9  3  1  0
 10 11  2  0
 10 16  1  0
 13 12  1  6
 13 14  1  0
 13 15  1  0
 15 17  1  0
 15 16  1  1
 17 19  2  0
 17 18  1  0
M  END
$$$$
