DTV.pdb
     RDKit          3D

 23 22  0  0  1  0  0  0  0  0999 V2000
   12.3075  -17.2047   19.5169 N   0  0  0  0  0  0  0  0  0  0  0  0
   12.7121  -17.3465   20.9081 C   0  0  1  0  0  0  0  0  0  0  0  0
   14.0834  -16.7135   21.0837 C   0  0  0  0  0  0  0  0  0  0  0  0
   15.1237  -17.3298   20.2466 C   0  0  0  0  0  0  0  0  0  0  0  0
   15.6562  -16.7158   19.2995 O   0  0  0  0  0  0  0  0  0  0  0  0
   11.6982  -16.8264   21.8340 C   0  0  0  0  0  0  0  0  0  0  0  0
   11.1149  -15.7431   21.5745 O   0  0  0  0  0  0  0  0  0  0  0  0
   15.5821  -18.6393   20.4566 O   0  0  0  0  0  0  0  0  0  0  0  0
    8.5585  -18.3290   22.6206 C   0  0  0  0  0  0  0  0  0  0  0  0
    9.1860  -18.0485   23.9704 C   0  0  1  0  0  0  0  0  0  0  0  0
    9.7750  -19.2324   24.4149 O   0  0  0  0  0  0  0  0  0  0  0  0
   10.2511  -16.9947   23.8732 C   0  0  2  0  0  0  0  0  0  0  0  0
   11.3249  -17.4919   23.0400 N   0  0  0  0  0  0  0  0  0  0  0  0
   10.7249  -16.5076   25.1789 C   0  0  0  0  0  0  0  0  0  0  0  0
   11.8735  -16.8600   25.5525 O   0  0  0  0  0  0  0  0  0  0  0  0
    8.2801  -14.0770   27.8079 C   0  0  0  0  0  0  0  0  0  0  0  0
    9.7687  -14.0050   27.8358 C   0  0  1  0  0  0  0  0  0  0  0  0
   10.2002  -13.6322   29.2383 C   0  0  0  0  0  0  0  0  0  0  0  0
   10.4362  -15.2663   27.3531 C   0  0  2  0  0  0  0  0  0  0  0  0
    9.9688  -15.6669   26.0411 N   0  0  0  0  0  0  0  0  0  0  0  0
   10.2872  -16.3846   28.3009 C   0  0  0  0  0  0  0  0  0  0  0  0
   10.9106  -16.4190   29.3937 O   0  0  0  0  0  0  0  0  0  0  0  0
    9.4449  -17.4535   28.0212 O   0  0  0  0  0  0  0  0  0  0  0  0
  2  1  1  6
  2  6  1  0
  3  2  1  0
  3  4  1  0
  4  5  2  0
  4  8  1  0
  6  7  2  0
 10  9  1  6
 10 11  1  0
 10 12  1  0
 12 14  1  0
 12 13  1  1
 13  6  1  0
 14 15  2  0
 17 16  1  1
 17 19  1  0
 18 17  1  0
 19 21  1  0
 20 14  1  0
 19 20  1  6
 21 22  2  0
 21 23  1  0
M  END
$$$$
