DTV.pdb
     RDKit          3D

 23 22  0  0  1  0  0  0  0  0999 V2000
   10.7736  -18.4588   20.8010 N   0  0  0  0  0  0  0  0  0  0  0  0
   10.5475  -17.1236   20.2667 C   0  0  1  0  0  0  0  0  0  0  0  0
   10.3460  -17.2281   18.7633 C   0  0  0  0  0  0  0  0  0  0  0  0
   11.5729  -17.5774   18.0315 C   0  0  0  0  0  0  0  0  0  0  0  0
   12.4012  -18.3927   18.4860 O   0  0  0  0  0  0  0  0  0  0  0  0
    9.4575  -16.4278   20.9621 C   0  0  0  0  0  0  0  0  0  0  0  0
    9.0735  -15.3035   20.5505 O   0  0  0  0  0  0  0  0  0  0  0  0
   11.8900  -17.0206   16.7832 O   0  0  0  0  0  0  0  0  0  0  0  0
    6.0718  -17.9138   21.9302 C   0  0  0  0  0  0  0  0  0  0  0  0
    6.6444  -17.2124   23.1446 C   0  0  1  0  0  0  0  0  0  0  0  0
    7.2032  -18.1884   23.9699 O   0  0  0  0  0  0  0  0  0  0  0  0
    7.7223  -16.2401   22.7606 C   0  0  2  0  0  0  0  0  0  0  0  0
    8.7908  -16.9631   22.1048 N   0  0  0  0  0  0  0  0  0  0  0  0
    8.2005  -15.4119   23.8795 C   0  0  0  0  0  0  0  0  0  0  0  0
    9.3528  -15.6445   24.3280 O   0  0  0  0  0  0  0  0  0  0  0  0
    5.6466  -12.7513   26.2758 C   0  0  0  0  0  0  0  0  0  0  0  0
    7.0615  -12.4288   25.9353 C   0  0  1  0  0  0  0  0  0  0  0  0
    7.6384  -11.5845   27.0517 C   0  0  0  0  0  0  0  0  0  0  0  0
    7.9004  -13.6480   25.6543 C   0  0  2  0  0  0  0  0  0  0  0  0
    7.4449  -14.3695   24.4828 N   0  0  0  0  0  0  0  0  0  0  0  0
    7.9757  -14.5620   26.8075 C   0  0  0  0  0  0  0  0  0  0  0  0
    7.2398  -15.5787   26.9007 O   0  0  0  0  0  0  0  0  0  0  0  0
    8.8706  -14.3338   27.8455 O   0  0  0  0  0  0  0  0  0  0  0  0
  2  1  1  1
  2  6  1  0
  3  2  1  0
  3  4  1  0
  4  5  2  0
  4  8  1  0
  6  7  2  0
 10  9  1  6
 10 11  1  0
 10 12  1  0
 12 14  1  0
 12 13  1  1
 13  6  1  0
 14 15  2  0
 17 16  1  1
 17 19  1  0
 18 17  1  0
 19 21  1  0
 20 14  1  0
 19 20  1  6
 21 22  2  0
 21 23  1  0
M  END
$$$$
