DTV.pdb
     RDKit          3D

 23 22  0  0  1  0  0  0  0  0999 V2000
   11.2243  -16.9358   18.8964 N   0  0  0  0  0  0  0  0  0  0  0  0
   11.0954  -17.0201   20.3440 C   0  0  1  0  0  0  0  0  0  0  0  0
   12.4863  -17.0140   20.9582 C   0  0  0  0  0  0  0  0  0  0  0  0
   13.3300  -18.1308   20.5067 C   0  0  0  0  0  0  0  0  0  0  0  0
   14.5618  -18.0047   20.3516 O   0  0  0  0  0  0  0  0  0  0  0  0
   10.2078  -15.9810   20.8809 C   0  0  0  0  0  0  0  0  0  0  0  0
   10.4144  -14.7749   20.5917 O   0  0  0  0  0  0  0  0  0  0  0  0
   12.8085  -19.4021   20.2227 O   0  0  0  0  0  0  0  0  0  0  0  0
    6.5733  -15.5443   20.3871 C   0  0  0  0  0  0  0  0  0  0  0  0
    6.8108  -15.5568   21.8831 C   0  0  1  0  0  0  0  0  0  0  0  0
    6.5533  -16.8497   22.3394 O   0  0  0  0  0  0  0  0  0  0  0  0
    8.2329  -15.2090   22.2168 C   0  0  2  0  0  0  0  0  0  0  0  0
    9.0974  -16.2635   21.7317 N   0  0  0  0  0  0  0  0  0  0  0  0
    8.4512  -14.9060   23.6405 C   0  0  0  0  0  0  0  0  0  0  0  0
    9.2133  -15.6680   24.2901 O   0  0  0  0  0  0  0  0  0  0  0  0
    5.7623  -12.5069   26.1283 C   0  0  0  0  0  0  0  0  0  0  0  0
    7.2449  -12.3962   26.2351 C   0  0  1  0  0  0  0  0  0  0  0  0
    7.5935  -12.0470   27.6665 C   0  0  0  0  0  0  0  0  0  0  0  0
    7.9710  -13.6270   25.7583 C   0  0  2  0  0  0  0  0  0  0  0  0
    7.8574  -13.8104   24.3252 N   0  0  0  0  0  0  0  0  0  0  0  0
    7.5335  -14.8489   26.4558 C   0  0  0  0  0  0  0  0  0  0  0  0
    6.5477  -15.5244   26.0609 O   0  0  0  0  0  0  0  0  0  0  0  0
    8.1989  -15.3057   27.5867 O   0  0  0  0  0  0  0  0  0  0  0  0
  2  1  1  6
  2  6  1  0
  3  2  1  0
  3  4  1  0
  4  5  2  0
  4  8  1  0
  6  7  2  0
 10  9  1  6
 10 11  1  0
 10 12  1  0
 12 14  1  0
 12 13  1  1
 13  6  1  0
 14 15  2  0
 17 16  1  1
 17 19  1  0
 18 17  1  0
 19 21  1  0
 20 14  1  0
 19 20  1  6
 21 22  2  0
 21 23  1  0
M  END
$$$$
