DTV.pdb
     RDKit          3D

 23 22  0  0  1  0  0  0  0  0999 V2000
    9.1526  -16.8776   18.7569 N   0  0  0  0  0  0  0  0  0  0  0  0
    9.6574  -17.0211   20.1149 C   0  0  1  0  0  0  0  0  0  0  0  0
   11.0524  -16.4201   20.1822 C   0  0  0  0  0  0  0  0  0  0  0  0
   12.1098  -17.3460   19.7496 C   0  0  0  0  0  0  0  0  0  0  0  0
   13.0165  -16.9917   18.9687 O   0  0  0  0  0  0  0  0  0  0  0  0
    8.7284  -16.4716   21.1103 C   0  0  0  0  0  0  0  0  0  0  0  0
    8.0266  -15.4693   20.8209 O   0  0  0  0  0  0  0  0  0  0  0  0
   12.1678  -18.6792   20.1835 O   0  0  0  0  0  0  0  0  0  0  0  0
    7.5757  -18.5794   24.7083 C   0  0  0  0  0  0  0  0  0  0  0  0
    6.7525  -17.6341   23.8577 C   0  0  1  0  0  0  0  0  0  0  0  0
    5.7426  -17.1118   24.6660 O   0  0  0  0  0  0  0  0  0  0  0  0
    7.5835  -16.4959   23.3395 C   0  0  2  0  0  0  0  0  0  0  0  0
    8.5695  -17.0194   22.4185 N   0  0  0  0  0  0  0  0  0  0  0  0
    8.1803  -15.6665   24.3989 C   0  0  0  0  0  0  0  0  0  0  0  0
    9.4156  -15.7840   24.6070 O   0  0  0  0  0  0  0  0  0  0  0  0
    6.8419  -11.8965   25.5842 C   0  0  0  0  0  0  0  0  0  0  0  0
    7.2019  -12.8181   26.6990 C   0  0  1  0  0  0  0  0  0  0  0  0
    5.9234  -13.2796   27.3658 C   0  0  0  0  0  0  0  0  0  0  0  0
    8.0637  -13.9742   26.2627 C   0  0  2  0  0  0  0  0  0  0  0  0
    7.4512  -14.7443   25.1987 N   0  0  0  0  0  0  0  0  0  0  0  0
    8.4263  -14.8638   27.3799 C   0  0  0  0  0  0  0  0  0  0  0  0
    8.0274  -16.0560   27.4385 O   0  0  0  0  0  0  0  0  0  0  0  0
    9.2299  -14.4157   28.4210 O   0  0  0  0  0  0  0  0  0  0  0  0
  2  1  1  6
  2  6  1  0
  3  2  1  0
  3  4  1  0
  4  5  2  0
  4  8  1  0
  6  7  2  0
 10  9  1  1
 10 11  1  0
 10 12  1  0
 12 14  1  0
 12 13  1  1
 13  6  1  0
 14 15  2  0
 17 16  1  6
 17 19  1  0
 18 17  1  0
 19 21  1  0
 20 14  1  0
 19 20  1  6
 21 22  2  0
 21 23  1  0
M  END
$$$$
