DTV.pdb
     RDKit          3D

 23 22  0  0  1  0  0  0  0  0999 V2000
   11.2894  -16.4111   19.0223 N   0  0  0  0  0  0  0  0  0  0  0  0
   11.0561  -16.7720   20.4132 C   0  0  1  0  0  0  0  0  0  0  0  0
   12.3944  -16.8300   21.1326 C   0  0  0  0  0  0  0  0  0  0  0  0
   13.3418  -17.7797   20.5300 C   0  0  0  0  0  0  0  0  0  0  0  0
   13.0743  -18.4008   19.4811 O   0  0  0  0  0  0  0  0  0  0  0  0
   10.0771  -15.8870   21.0567 C   0  0  0  0  0  0  0  0  0  0  0  0
   10.0204  -14.6754   20.7254 O   0  0  0  0  0  0  0  0  0  0  0  0
   14.5996  -18.0477   21.0912 O   0  0  0  0  0  0  0  0  0  0  0  0
    6.4238  -16.1192   21.0236 C   0  0  0  0  0  0  0  0  0  0  0  0
    6.8221  -16.0269   22.4821 C   0  0  1  0  0  0  0  0  0  0  0  0
    6.8438  -17.3238   22.9955 O   0  0  0  0  0  0  0  0  0  0  0  0
    8.1904  -15.4293   22.6415 C   0  0  2  0  0  0  0  0  0  0  0  0
    9.1632  -16.3291   22.0598 N   0  0  0  0  0  0  0  0  0  0  0  0
    8.5181  -15.0583   24.0277 C   0  0  0  0  0  0  0  0  0  0  0  0
    9.4547  -15.6797   24.5932 O   0  0  0  0  0  0  0  0  0  0  0  0
    8.0926  -11.3198   25.9721 C   0  0  0  0  0  0  0  0  0  0  0  0
    7.4977  -12.5086   26.6463 C   0  0  1  0  0  0  0  0  0  0  0  0
    5.9956  -12.4563   26.4639 C   0  0  0  0  0  0  0  0  0  0  0  0
    8.0813  -13.8154   26.1761 C   0  0  2  0  0  0  0  0  0  0  0  0
    7.8453  -14.0456   24.7649 N   0  0  0  0  0  0  0  0  0  0  0  0
    7.5977  -14.9661   26.9590 C   0  0  0  0  0  0  0  0  0  0  0  0
    6.6953  -15.7315   26.5301 O   0  0  0  0  0  0  0  0  0  0  0  0
    8.1246  -15.2525   28.2122 O   0  0  0  0  0  0  0  0  0  0  0  0
  2  1  1  6
  2  6  1  0
  3  2  1  0
  3  4  1  0
  4  5  2  0
  4  8  1  0
  6  7  2  0
 10  9  1  6
 10 11  1  0
 10 12  1  0
 12 14  1  0
 12 13  1  1
 13  6  1  0
 14 15  2  0
 17 16  1  6
 17 19  1  0
 18 17  1  0
 19 21  1  0
 20 14  1  0
 19 20  1  6
 21 22  2  0
 21 23  1  0
M  END
$$$$
