DTV.pdb
     RDKit          3D

 23 22  0  0  1  0  0  0  0  0999 V2000
    9.7228  -18.2625   19.6489 N   0  0  0  0  0  0  0  0  0  0  0  0
   10.2831  -17.5265   20.7730 C   0  0  1  0  0  0  0  0  0  0  0  0
   11.3695  -16.5976   20.2543 C   0  0  0  0  0  0  0  0  0  0  0  0
   12.5252  -17.3085   19.6872 C   0  0  0  0  0  0  0  0  0  0  0  0
   13.0772  -18.2528   20.2880 O   0  0  0  0  0  0  0  0  0  0  0  0
    9.2469  -16.8437   21.5577 C   0  0  0  0  0  0  0  0  0  0  0  0
    8.4134  -16.1023   20.9775 O   0  0  0  0  0  0  0  0  0  0  0  0
   13.0789  -16.9737   18.4420 O   0  0  0  0  0  0  0  0  0  0  0  0
    6.6829  -18.4508   23.3225 C   0  0  0  0  0  0  0  0  0  0  0  0
    7.2212  -17.4708   24.3445 C   0  0  1  0  0  0  0  0  0  0  0  0
    8.0618  -18.1783   25.2041 O   0  0  0  0  0  0  0  0  0  0  0  0
    8.0184  -16.3785   23.6920 C   0  0  2  0  0  0  0  0  0  0  0  0
    9.1249  -16.9736   22.9737 N   0  0  0  0  0  0  0  0  0  0  0  0
    8.4481  -15.3212   24.6215 C   0  0  0  0  0  0  0  0  0  0  0  0
    9.6704  -15.2613   24.9138 O   0  0  0  0  0  0  0  0  0  0  0  0
    5.8662  -12.3560   25.4229 C   0  0  0  0  0  0  0  0  0  0  0  0
    7.0520  -12.2414   26.3187 C   0  0  1  0  0  0  0  0  0  0  0  0
    6.5592  -12.0726   27.7403 C   0  0  0  0  0  0  0  0  0  0  0  0
    8.0145  -13.3925   26.1847 C   0  0  2  0  0  0  0  0  0  0  0  0
    7.5719  -14.3669   25.2075 N   0  0  0  0  0  0  0  0  0  0  0  0
    8.2828  -14.0593   27.4709 C   0  0  0  0  0  0  0  0  0  0  0  0
    8.8410  -13.4614   28.4274 O   0  0  0  0  0  0  0  0  0  0  0  0
    7.9265  -15.3861   27.6782 O   0  0  0  0  0  0  0  0  0  0  0  0
  2  1  1  6
  2  6  1  0
  3  2  1  0
  3  4  1  0
  4  5  2  0
  4  8  1  0
  6  7  2  0
 10  9  1  6
 10 11  1  0
 10 12  1  0
 12 14  1  0
 12 13  1  1
 13  6  1  0
 14 15  2  0
 17 16  1  6
 17 19  1  0
 18 17  1  0
 19 21  1  0
 20 14  1  0
 19 20  1  6
 21 22  2  0
 21 23  1  0
M  END
$$$$
