DTV.pdb
     RDKit          3D

 23 22  0  0  1  0  0  0  0  0999 V2000
   10.4166  -15.8313   18.4891 N   0  0  0  0  0  0  0  0  0  0  0  0
   10.8196  -15.6707   19.8788 C   0  0  1  0  0  0  0  0  0  0  0  0
   12.0441  -14.7707   19.9301 C   0  0  0  0  0  0  0  0  0  0  0  0
   13.2490  -15.3890   19.3568 C   0  0  0  0  0  0  0  0  0  0  0  0
   14.2145  -14.7054   18.9594 O   0  0  0  0  0  0  0  0  0  0  0  0
    9.7119  -15.2103   20.7254 C   0  0  0  0  0  0  0  0  0  0  0  0
    8.9620  -14.2853   20.3216 O   0  0  0  0  0  0  0  0  0  0  0  0
   13.3906  -16.7783   19.2200 O   0  0  0  0  0  0  0  0  0  0  0  0
    6.7485  -16.6316   21.3191 C   0  0  0  0  0  0  0  0  0  0  0  0
    7.2292  -16.3897   22.7351 C   0  0  1  0  0  0  0  0  0  0  0  0
    7.7843  -17.5818   23.2006 O   0  0  0  0  0  0  0  0  0  0  0  0
    8.2849  -15.3230   22.7825 C   0  0  2  0  0  0  0  0  0  0  0  0
    9.4273  -15.7624   22.0103 N   0  0  0  0  0  0  0  0  0  0  0  0
    8.6480  -14.9078   24.1472 C   0  0  0  0  0  0  0  0  0  0  0  0
    9.8336  -15.1021   24.5212 O   0  0  0  0  0  0  0  0  0  0  0  0
    7.0542  -11.5878   26.1445 C   0  0  0  0  0  0  0  0  0  0  0  0
    7.1819  -12.8355   26.9498 C   0  0  1  0  0  0  0  0  0  0  0  0
    5.8017  -13.4337   27.1216 C   0  0  0  0  0  0  0  0  0  0  0  0
    8.1601  -13.8230   26.3690 C   0  0  2  0  0  0  0  0  0  0  0  0
    7.7466  -14.3031   25.0656 N   0  0  0  0  0  0  0  0  0  0  0  0
    8.4131  -14.9642   27.2660 C   0  0  0  0  0  0  0  0  0  0  0  0
    8.9395  -14.8164   28.3996 O   0  0  0  0  0  0  0  0  0  0  0  0
    8.0771  -16.2590   26.8906 O   0  0  0  0  0  0  0  0  0  0  0  0
  2  1  1  6
  2  6  1  0
  3  2  1  0
  3  4  1  0
  4  5  2  0
  4  8  1  0
  6  7  2  0
 10  9  1  6
 10 11  1  0
 10 12  1  0
 12 14  1  0
 12 13  1  1
 13  6  1  0
 14 15  2  0
 17 16  1  6
 17 19  1  0
 18 17  1  0
 19 21  1  0
 20 14  1  0
 19 20  1  6
 21 22  2  0
 21 23  1  0
M  END
$$$$
