DTV.pdb
     RDKit          3D

 23 22  0  0  1  0  0  0  0  0999 V2000
   11.2470  -18.1731   20.8175 N   0  0  0  0  0  0  0  0  0  0  0  0
   11.8658  -17.1050   21.5894 C   0  0  1  0  0  0  0  0  0  0  0  0
   12.9745  -16.4812   20.7565 C   0  0  0  0  0  0  0  0  0  0  0  0
   14.1214  -17.3770   20.5445 C   0  0  0  0  0  0  0  0  0  0  0  0
   14.2675  -18.0204   19.4852 O   0  0  0  0  0  0  0  0  0  0  0  0
   10.8787  -16.1353   22.0805 C   0  0  0  0  0  0  0  0  0  0  0  0
   11.2683  -15.0602   22.6033 O   0  0  0  0  0  0  0  0  0  0  0  0
   15.1193  -17.5654   21.5128 O   0  0  0  0  0  0  0  0  0  0  0  0
    6.2550  -14.4311   22.0474 C   0  0  0  0  0  0  0  0  0  0  0  0
    7.1940  -15.6022   21.8439 C   0  0  1  0  0  0  0  0  0  0  0  0
    7.3781  -15.7603   20.4702 O   0  0  0  0  0  0  0  0  0  0  0  0
    8.5319  -15.3505   22.4773 C   0  0  2  0  0  0  0  0  0  0  0  0
    9.4692  -16.3438   21.9984 N   0  0  0  0  0  0  0  0  0  0  0  0
    8.4878  -15.2735   23.9465 C   0  0  0  0  0  0  0  0  0  0  0  0
    8.9767  -16.2331   24.5970 O   0  0  0  0  0  0  0  0  0  0  0  0
    7.9341  -11.6668   26.2008 C   0  0  0  0  0  0  0  0  0  0  0  0
    7.2275  -12.9022   26.6438 C   0  0  1  0  0  0  0  0  0  0  0  0
    5.7703  -12.7833   26.2505 C   0  0  0  0  0  0  0  0  0  0  0  0
    7.8548  -14.1683   26.1212 C   0  0  2  0  0  0  0  0  0  0  0  0
    7.9296  -14.1868   24.6740 N   0  0  0  0  0  0  0  0  0  0  0  0
    7.1698  -15.3806   26.6028 C   0  0  0  0  0  0  0  0  0  0  0  0
    6.2486  -15.9309   25.9451 O   0  0  0  0  0  0  0  0  0  0  0  0
    7.5183  -15.9677   27.8128 O   0  0  0  0  0  0  0  0  0  0  0  0
  2  1  1  6
  2  6  1  0
  3  2  1  0
  3  4  1  0
  4  5  2  0
  4  8  1  0
  6  7  2  0
 10  9  1  6
 10 11  1  0
 10 12  1  0
 12 14  1  0
 12 13  1  1
 13  6  1  0
 14 15  2  0
 17 16  1  6
 17 19  1  0
 18 17  1  0
 19 21  1  0
 20 14  1  0
 19 20  1  6
 21 22  2  0
 21 23  1  0
M  END
$$$$
