DTV.pdb
     RDKit          3D

 23 22  0  0  1  0  0  0  0  0999 V2000
   11.8235  -16.9063   19.9747 N   0  0  0  0  0  0  0  0  0  0  0  0
   12.3559  -17.1224   21.3123 C   0  0  1  0  0  0  0  0  0  0  0  0
   13.7283  -16.4738   21.4012 C   0  0  0  0  0  0  0  0  0  0  0  0
   14.6516  -16.9112   20.3434 C   0  0  0  0  0  0  0  0  0  0  0  0
   15.8869  -16.7677   20.4468 O   0  0  0  0  0  0  0  0  0  0  0  0
   11.4237  -16.6785   22.3561 C   0  0  0  0  0  0  0  0  0  0  0  0
   10.8755  -15.5507   22.2631 O   0  0  0  0  0  0  0  0  0  0  0  0
   14.2068  -17.5141   19.1569 O   0  0  0  0  0  0  0  0  0  0  0  0
    8.2528  -18.1008   23.2471 C   0  0  0  0  0  0  0  0  0  0  0  0
    9.0110  -18.0115   24.5555 C   0  0  1  0  0  0  0  0  0  0  0  0
    9.5590  -19.2687   24.8110 O   0  0  0  0  0  0  0  0  0  0  0  0
   10.1291  -17.0125   24.4758 C   0  0  2  0  0  0  0  0  0  0  0  0
   11.0935  -17.4685   23.4979 N   0  0  0  0  0  0  0  0  0  0  0  0
   10.7431  -16.7041   25.7775 C   0  0  0  0  0  0  0  0  0  0  0  0
   11.9018  -17.1433   25.9959 O   0  0  0  0  0  0  0  0  0  0  0  0
   10.7727  -13.2328   27.8011 C   0  0  0  0  0  0  0  0  0  0  0  0
   10.3574  -14.3719   28.6682 C   0  0  1  0  0  0  0  0  0  0  0  0
    8.8734  -14.2456   28.9404 C   0  0  0  0  0  0  0  0  0  0  0  0
   10.7170  -15.7187   28.0969 C   0  0  2  0  0  0  0  0  0  0  0  0
   10.1114  -15.9439   26.7997 N   0  0  0  0  0  0  0  0  0  0  0  0
   10.3803  -16.8281   29.0062 C   0  0  0  0  0  0  0  0  0  0  0  0
   10.9298  -16.9574   30.1311 O   0  0  0  0  0  0  0  0  0  0  0  0
    9.4344  -17.7824   28.6528 O   0  0  0  0  0  0  0  0  0  0  0  0
  2  1  1  6
  2  6  1  0
  3  2  1  0
  3  4  1  0
  4  5  2  0
  4  8  1  0
  6  7  2  0
 10  9  1  6
 10 11  1  0
 10 12  1  0
 12 14  1  0
 12 13  1  6
 13  6  1  0
 14 15  2  0
 17 16  1  6
 17 19  1  0
 18 17  1  0
 19 21  1  0
 20 14  1  0
 19 20  1  6
 21 22  2  0
 21 23  1  0
M  END
$$$$
