SLP.pdb
     RDKit          3D

 22 22  0  0  1  0  0  0  0  0999 V2000
   26.2579  -17.9653  -17.5875 O   0  0  0  0  0  0  0  0  0  0  0  0
   27.1798  -17.3478  -16.7247 C   0  0  0  0  0  0  0  0  0  0  0  0
   28.0654  -18.4284  -16.2012 C   0  0  2  0  0  0  0  0  0  0  0  0
   28.7828  -18.9867  -17.3359 N   0  0  0  0  0  0  0  0  0  0  0  0
   27.3814  -19.4792  -15.4298 C   0  0  0  0  0  0  0  0  0  0  0  0
   27.2266  -20.6053  -15.9531 O   0  0  0  0  0  0  0  0  0  0  0  0
   25.5457  -19.9985   -9.6882 C   0  0  0  0  0  0  0  0  0  0  0  0
   25.5871  -20.7713  -11.0213 C   0  0  2  0  0  0  0  0  0  0  0  0
   26.2627  -22.0675  -10.7447 C   0  0  0  0  0  0  0  0  0  0  0  0
   26.2788  -19.8814  -11.9733 C   0  0  0  0  0  0  0  0  0  0  0  0
   26.1270  -20.2384  -13.4494 C   0  0  2  0  0  0  0  0  0  0  0  0
   26.9080  -19.2296  -14.1208 N   0  0  0  0  0  0  0  0  0  0  0  0
   24.7835  -20.4324  -13.8683 C   0  0  0  0  0  0  0  0  0  0  0  0
   23.9859  -19.4360  -13.8615 O   0  0  0  0  0  0  0  0  0  0  0  0
   24.2030  -21.6715  -14.3164 N   0  0  0  0  0  0  0  0  0  0  0  0
   24.8257  -22.9408  -14.4722 C   0  0  0  0  0  0  0  0  0  0  0  0
   23.7274  -23.9678  -14.3650 C   0  0  0  0  0  0  0  0  0  0  0  0
   22.6266  -23.2156  -15.1317 C   0  0  0  0  0  0  0  0  0  0  0  0
   22.7922  -21.8119  -14.6864 C   0  0  1  0  0  0  0  0  0  0  0  0
   21.9015  -21.4285  -13.5720 C   0  0  0  0  0  0  0  0  0  0  0  0
   20.5988  -21.0608  -13.7600 O   0  0  0  0  0  0  0  0  0  0  0  0
   22.3715  -21.4443  -12.4075 O   0  0  0  0  0  0  0  0  0  0  0  0
  1  2  1  0
  2  3  1  0
  3  4  1  6
  3  5  1  0
  5  6  2  0
  8  7  1  1
  9  8  1  0
 11 10  1  1
 10  8  1  0
 11 13  1  0
 12  5  1  0
 12 11  1  0
 13 15  1  0
 14 13  2  0
 15 19  1  0
 15 16  1  0
 16 17  1  0
 18 17  1  0
 19 20  1  1
 19 18  1  0
 20 22  2  0
 20 21  1  0
M  END
$$$$
