SLP.pdb
     RDKit          3D

 22 22  0  0  1  0  0  0  0  0999 V2000
   23.3660  -20.9060  -10.7614 O   0  0  0  0  0  0  0  0  0  0  0  0
   24.4907  -21.1028   -9.9417 C   0  0  0  0  0  0  0  0  0  0  0  0
   25.2387  -19.8120   -9.9251 C   0  0  2  0  0  0  0  0  0  0  0  0
   25.4275  -19.4042  -11.3078 N   0  0  0  0  0  0  0  0  0  0  0  0
   26.5167  -19.8388   -9.1949 C   0  0  0  0  0  0  0  0  0  0  0  0
   27.5352  -20.2697   -9.7806 O   0  0  0  0  0  0  0  0  0  0  0  0
   28.3770  -19.5470   -3.9233 C   0  0  0  0  0  0  0  0  0  0  0  0
   28.8094  -18.5407   -5.0080 C   0  0  2  0  0  0  0  0  0  0  0  0
   29.0631  -17.2480   -4.3169 C   0  0  0  0  0  0  0  0  0  0  0  0
   27.7154  -18.5313   -5.9978 C   0  0  0  0  0  0  0  0  0  0  0  0
   27.8410  -19.5369   -7.1389 C   0  0  2  0  0  0  0  0  0  0  0  0
   26.6007  -19.3853   -7.8580 N   0  0  0  0  0  0  0  0  0  0  0  0
   28.2199  -20.8428   -6.7276 C   0  0  0  0  0  0  0  0  0  0  0  0
   27.3375  -21.6065   -6.2107 O   0  0  0  0  0  0  0  0  0  0  0  0
   29.5346  -21.4201   -6.8345 N   0  0  0  0  0  0  0  0  0  0  0  0
   30.7034  -20.8674   -7.4275 C   0  0  0  0  0  0  0  0  0  0  0  0
   31.8758  -21.5459   -6.7657 C   0  0  0  0  0  0  0  0  0  0  0  0
   31.2981  -22.9677   -6.6648 C   0  0  0  0  0  0  0  0  0  0  0  0
   29.8800  -22.7399   -6.3001 C   0  0  1  0  0  0  0  0  0  0  0  0
   29.6147  -22.8206   -4.8491 C   0  0  0  0  0  0  0  0  0  0  0  0
   29.5830  -24.0051   -4.1683 O   0  0  0  0  0  0  0  0  0  0  0  0
   29.4108  -21.7499   -4.2251 O   0  0  0  0  0  0  0  0  0  0  0  0
  1  2  1  0
  2  3  1  0
  3  4  1  6
  3  5  1  0
  5  6  2  0
  8  7  1  1
  9  8  1  0
 11 10  1  1
 10  8  1  0
 11 13  1  0
 12  5  1  0
 12 11  1  0
 13 15  1  0
 14 13  2  0
 15 19  1  0
 15 16  1  0
 16 17  1  0
 18 17  1  0
 19 20  1  1
 19 18  1  0
 20 22  2  0
 20 21  1  0
M  END
$$$$
