SLP.pdb
     RDKit          3D

 22 22  0  0  1  0  0  0  0  0999 V2000
   19.9546  -11.1839  -19.8211 O   0  0  0  0  0  0  0  0  0  0  0  0
   20.0115  -10.2191  -18.8006 C   0  0  0  0  0  0  0  0  0  0  0  0
   19.7427  -10.9353  -17.5197 C   0  0  2  0  0  0  0  0  0  0  0  0
   18.4917  -11.6580  -17.6832 N   0  0  0  0  0  0  0  0  0  0  0  0
   19.7164  -10.0829  -16.3198 C   0  0  0  0  0  0  0  0  0  0  0  0
   18.6479   -9.5078  -16.0138 O   0  0  0  0  0  0  0  0  0  0  0  0
   22.8895   -9.6918  -11.2729 C   0  0  0  0  0  0  0  0  0  0  0  0
   21.7684   -8.9759  -12.0517 C   0  0  2  0  0  0  0  0  0  0  0  0
   20.5490   -9.0379  -11.2019 C   0  0  0  0  0  0  0  0  0  0  0  0
   21.6789   -9.6745  -13.3482 C   0  0  0  0  0  0  0  0  0  0  0  0
   20.8369   -8.9861  -14.4189 C   0  0  2  0  0  0  0  0  0  0  0  0
   20.8714   -9.9144  -15.5214 N   0  0  0  0  0  0  0  0  0  0  0  0
   21.2012   -7.6361  -14.6701 C   0  0  0  0  0  0  0  0  0  0  0  0
   22.4125   -7.3708  -14.9726 O   0  0  0  0  0  0  0  0  0  0  0  0
   20.3242   -6.4954  -14.6206 N   0  0  0  0  0  0  0  0  0  0  0  0
   18.9143   -6.4644  -14.4345 C   0  0  0  0  0  0  0  0  0  0  0  0
   18.5912   -5.1050  -13.8686 C   0  0  0  0  0  0  0  0  0  0  0  0
   19.5792   -4.2653  -14.6957 C   0  0  0  0  0  0  0  0  0  0  0  0
   20.7932   -5.1133  -14.7499 C   0  0  1  0  0  0  0  0  0  0  0  0
   21.7985   -4.7861  -13.7180 C   0  0  0  0  0  0  0  0  0  0  0  0
   22.6195   -3.6972  -13.8050 O   0  0  0  0  0  0  0  0  0  0  0  0
   21.8941   -5.5474  -12.7237 O   0  0  0  0  0  0  0  0  0  0  0  0
  1  2  1  0
  2  3  1  0
  3  4  1  6
  3  5  1  0
  5  6  2  0
  8  7  1  1
  9  8  1  0
 11 10  1  1
 10  8  1  0
 11 13  1  0
 12  5  1  0
 12 11  1  0
 13 15  1  0
 14 13  2  0
 15 19  1  0
 15 16  1  0
 16 17  1  0
 18 17  1  0
 19 20  1  1
 19 18  1  0
 20 22  2  0
 20 21  1  0
M  END
$$$$
