SLP.pdb
     RDKit          3D

 22 22  0  0  1  0  0  0  0  0999 V2000
   14.2507   -8.3348  -11.9014 O   0  0  0  0  0  0  0  0  0  0  0  0
   15.4874   -7.6894  -12.0734 C   0  0  0  0  0  0  0  0  0  0  0  0
   16.5378   -8.6545  -11.6360 C   0  0  2  0  0  0  0  0  0  0  0  0
   16.4123   -8.8058  -10.1954 N   0  0  0  0  0  0  0  0  0  0  0  0
   17.9136   -8.2983  -12.0198 C   0  0  0  0  0  0  0  0  0  0  0  0
   18.5876   -7.5821  -11.2459 O   0  0  0  0  0  0  0  0  0  0  0  0
   22.2899  -11.0964  -14.6821 C   0  0  0  0  0  0  0  0  0  0  0  0
   21.9174   -9.6648  -14.2486 C   0  0  2  0  0  0  0  0  0  0  0  0
   22.8691   -9.2818  -13.1713 C   0  0  0  0  0  0  0  0  0  0  0  0
   20.4974   -9.7279  -13.8530 C   0  0  0  0  0  0  0  0  0  0  0  0
   19.8236   -8.3872  -13.5740 C   0  0  2  0  0  0  0  0  0  0  0  0
   18.4712   -8.7550  -13.2364 N   0  0  0  0  0  0  0  0  0  0  0  0
   20.0177   -7.4133  -14.5898 C   0  0  0  0  0  0  0  0  0  0  0  0
   19.6124   -7.6677  -15.7731 O   0  0  0  0  0  0  0  0  0  0  0  0
   20.6415   -6.1260  -14.4257 N   0  0  0  0  0  0  0  0  0  0  0  0
   21.1800   -5.5423  -13.2456 C   0  0  0  0  0  0  0  0  0  0  0  0
   22.2039   -4.5338  -13.7008 C   0  0  0  0  0  0  0  0  0  0  0  0
   21.4571   -3.9766  -14.9244 C   0  0  0  0  0  0  0  0  0  0  0  0
   20.8345   -5.1789  -15.5268 C   0  0  1  0  0  0  0  0  0  0  0  0
   21.6257   -5.7780  -16.6212 C   0  0  0  0  0  0  0  0  0  0  0  0
   21.5315   -5.3565  -17.9177 O   0  0  0  0  0  0  0  0  0  0  0  0
   22.4144   -6.7131  -16.3368 O   0  0  0  0  0  0  0  0  0  0  0  0
  1  2  1  0
  2  3  1  0
  3  4  1  1
  3  5  1  0
  5  6  2  0
  8  7  1  1
  9  8  1  0
 11 10  1  6
 10  8  1  0
 11 13  1  0
 12  5  1  0
 12 11  1  0
 13 15  1  0
 14 13  2  0
 15 19  1  0
 15 16  1  0
 16 17  1  0
 18 17  1  0
 19 20  1  6
 19 18  1  0
 20 22  2  0
 20 21  1  0
M  END
$$$$
