SLP.pdb
     RDKit          3D

 22 22  0  0  1  0  0  0  0  0999 V2000
   24.9084   -9.6920  -20.0833 O   0  0  0  0  0  0  0  0  0  0  0  0
   23.9504   -9.0325  -19.2941 C   0  0  0  0  0  0  0  0  0  0  0  0
   23.4234  -10.0413  -18.3295 C   0  0  2  0  0  0  0  0  0  0  0  0
   22.7494  -11.0699  -19.1053 N   0  0  0  0  0  0  0  0  0  0  0  0
   22.5461   -9.5023  -17.2774 C   0  0  0  0  0  0  0  0  0  0  0  0
   21.3459   -9.2778  -17.5516 O   0  0  0  0  0  0  0  0  0  0  0  0
   22.3883   -9.5626  -11.3224 C   0  0  0  0  0  0  0  0  0  0  0  0
   21.7274   -8.8786  -12.5355 C   0  0  2  0  0  0  0  0  0  0  0  0
   20.3074   -9.3216  -12.5563 C   0  0  0  0  0  0  0  0  0  0  0  0
   22.5369   -9.2756  -13.7033 C   0  0  0  0  0  0  0  0  0  0  0  0
   22.1927   -8.5826  -15.0188 C   0  0  2  0  0  0  0  0  0  0  0  0
   23.0417   -9.2434  -15.9785 N   0  0  0  0  0  0  0  0  0  0  0  0
   22.2299   -7.1638  -14.9588 C   0  0  0  0  0  0  0  0  0  0  0  0
   23.3317   -6.5877  -14.6706 O   0  0  0  0  0  0  0  0  0  0  0  0
   21.1237   -6.2733  -15.1968 N   0  0  0  0  0  0  0  0  0  0  0  0
   19.7715   -6.5953  -15.4988 C   0  0  0  0  0  0  0  0  0  0  0  0
   18.9462   -5.4121  -15.0610 C   0  0  0  0  0  0  0  0  0  0  0  0
   19.9000   -4.2866  -15.4954 C   0  0  0  0  0  0  0  0  0  0  0  0
   21.2398   -4.8137  -15.1446 C   0  0  1  0  0  0  0  0  0  0  0  0
   21.7365   -4.3588  -13.8297 C   0  0  0  0  0  0  0  0  0  0  0  0
   22.3320   -3.1428  -13.6450 O   0  0  0  0  0  0  0  0  0  0  0  0
   21.6008   -5.1299  -12.8477 O   0  0  0  0  0  0  0  0  0  0  0  0
  1  2  1  0
  2  3  1  0
  3  4  1  6
  3  5  1  0
  5  6  2  0
  8  7  1  1
  9  8  1  0
 11 10  1  1
 10  8  1  0
 11 13  1  0
 12  5  1  0
 12 11  1  0
 13 15  1  0
 14 13  2  0
 15 19  1  0
 15 16  1  0
 16 17  1  0
 18 17  1  0
 19 20  1  1
 19 18  1  0
 20 22  2  0
 20 21  1  0
M  END
$$$$
