SLP.pdb
     RDKit          3D

 22 22  0  0  1  0  0  0  0  0999 V2000
   19.8974  -22.6396  -15.1184 O   0  0  0  0  0  0  0  0  0  0  0  0
   21.0242  -21.8367  -15.3656 C   0  0  0  0  0  0  0  0  0  0  0  0
   21.1617  -20.9210  -14.1958 C   0  0  2  0  0  0  0  0  0  0  0  0
   20.2136  -19.8349  -14.3836 N   0  0  0  0  0  0  0  0  0  0  0  0
   22.5217  -20.4102  -13.9576 C   0  0  0  0  0  0  0  0  0  0  0  0
   22.8436  -19.3050  -14.4484 O   0  0  0  0  0  0  0  0  0  0  0  0
   26.7312  -21.5096   -9.9141 C   0  0  0  0  0  0  0  0  0  0  0  0
   26.1099  -20.5489  -10.9472 C   0  0  2  0  0  0  0  0  0  0  0  0
   25.2850  -19.5740  -10.1842 C   0  0  0  0  0  0  0  0  0  0  0  0
   25.3714  -21.4080  -11.8924 C   0  0  0  0  0  0  0  0  0  0  0  0
   24.8252  -20.7131  -13.1367 C   0  0  2  0  0  0  0  0  0  0  0  0
   23.4513  -21.1469  -13.1875 N   0  0  0  0  0  0  0  0  0  0  0  0
   25.6235  -20.8842  -14.2992 C   0  0  0  0  0  0  0  0  0  0  0  0
   25.6181  -22.0158  -14.8896 O   0  0  0  0  0  0  0  0  0  0  0  0
   26.4661  -19.8870  -14.9064 N   0  0  0  0  0  0  0  0  0  0  0  0
   26.7540  -18.5698  -14.4534 C   0  0  0  0  0  0  0  0  0  0  0  0
   28.0819  -18.1936  -15.0598 C   0  0  0  0  0  0  0  0  0  0  0  0
   27.8953  -18.8302  -16.4474 C   0  0  0  0  0  0  0  0  0  0  0  0
   27.2055  -20.1081  -16.1519 C   0  0  1  0  0  0  0  0  0  0  0  0
   28.1146  -21.2673  -16.0411 C   0  0  0  0  0  0  0  0  0  0  0  0
   28.6324  -21.9073  -17.1318 O   0  0  0  0  0  0  0  0  0  0  0  0
   28.4172  -21.6732  -14.8918 O   0  0  0  0  0  0  0  0  0  0  0  0
  1  2  1  0
  2  3  1  0
  3  4  1  6
  3  5  1  0
  5  6  2  0
  8  7  1  1
  9  8  1  0
 11 10  1  1
 10  8  1  0
 11 13  1  0
 12  5  1  0
 12 11  1  0
 13 15  1  0
 14 13  2  0
 15 19  1  0
 15 16  1  0
 16 17  1  0
 18 17  1  0
 19 20  1  1
 19 18  1  0
 20 22  2  0
 20 21  1  0
M  END
$$$$
