SLP.pdb
     RDKit          3D

 22 22  0  0  1  0  0  0  0  0999 V2000
   27.1712  -17.8568  -16.7771 O   0  0  0  0  0  0  0  0  0  0  0  0
   27.5538  -19.0596  -17.3953 C   0  0  0  0  0  0  0  0  0  0  0  0
   28.4059  -19.7925  -16.4141 C   0  0  2  0  0  0  0  0  0  0  0  0
   29.3492  -20.5949  -17.1757 N   0  0  0  0  0  0  0  0  0  0  0  0
   27.6709  -20.6126  -15.4371 C   0  0  0  0  0  0  0  0  0  0  0  0
   27.4328  -21.8094  -15.7145 O   0  0  0  0  0  0  0  0  0  0  0  0
   25.9701  -20.0469   -9.6773 C   0  0  0  0  0  0  0  0  0  0  0  0
   25.7552  -20.9294  -10.9228 C   0  0  2  0  0  0  0  0  0  0  0  0
   26.1272  -22.3165  -10.5347 C   0  0  0  0  0  0  0  0  0  0  0  0
   26.5787  -20.3214  -11.9854 C   0  0  0  0  0  0  0  0  0  0  0  0
   26.2863  -20.7937  -13.4069 C   0  0  2  0  0  0  0  0  0  0  0  0
   27.2414  -20.0666  -14.2053 N   0  0  0  0  0  0  0  0  0  0  0  0
   24.9161  -20.7239  -13.7754 C   0  0  0  0  0  0  0  0  0  0  0  0
   24.3274  -19.5918  -13.7477 O   0  0  0  0  0  0  0  0  0  0  0  0
   24.0904  -21.8273  -14.1923 N   0  0  0  0  0  0  0  0  0  0  0  0
   24.4177  -23.2102  -14.2533 C   0  0  0  0  0  0  0  0  0  0  0  0
   23.1132  -23.9593  -14.1538 C   0  0  0  0  0  0  0  0  0  0  0  0
   22.2413  -23.0280  -15.0127 C   0  0  0  0  0  0  0  0  0  0  0  0
   22.7002  -21.6724  -14.6283 C   0  0  1  0  0  0  0  0  0  0  0  0
   21.8745  -21.0353  -13.5820 C   0  0  0  0  0  0  0  0  0  0  0  0
   20.6938  -20.4035  -13.8548 O   0  0  0  0  0  0  0  0  0  0  0  0
   22.2843  -21.0820  -12.3957 O   0  0  0  0  0  0  0  0  0  0  0  0
  1  2  1  0
  2  3  1  0
  3  4  1  6
  3  5  1  0
  5  6  2  0
  8  7  1  1
  9  8  1  0
 11 10  1  1
 10  8  1  0
 11 13  1  0
 12  5  1  0
 12 11  1  0
 13 15  1  0
 14 13  2  0
 15 19  1  0
 15 16  1  0
 16 17  1  0
 18 17  1  0
 19 20  1  1
 19 18  1  0
 20 22  2  0
 20 21  1  0
M  END
$$$$
