SLP.pdb
     RDKit          3D

 22 22  0  0  1  0  0  0  0  0999 V2000
   23.1438  -10.7426  -17.4520 O   0  0  0  0  0  0  0  0  0  0  0  0
   22.2630   -9.6700  -17.2299 C   0  0  0  0  0  0  0  0  0  0  0  0
   21.4097  -10.0514  -16.0670 C   0  0  2  0  0  0  0  0  0  0  0  0
   20.4770  -11.0661  -16.5299 N   0  0  0  0  0  0  0  0  0  0  0  0
   20.7066   -8.9350  -15.4141 C   0  0  0  0  0  0  0  0  0  0  0  0
   19.5567   -8.6362  -15.8072 O   0  0  0  0  0  0  0  0  0  0  0  0
   20.5622   -6.5208  -10.0266 C   0  0  0  0  0  0  0  0  0  0  0  0
   20.1739   -6.1799  -11.4789 C   0  0  2  0  0  0  0  0  0  0  0  0
   18.6874   -6.1762  -11.5357 C   0  0  0  0  0  0  0  0  0  0  0  0
   20.8421   -7.1947  -12.3159 C   0  0  0  0  0  0  0  0  0  0  0  0
   20.6374   -7.0556  -13.8219 C   0  0  2  0  0  0  0  0  0  0  0  0
   21.3109   -8.2110  -14.3603 N   0  0  0  0  0  0  0  0  0  0  0  0
   20.9802   -5.7791  -14.3426 C   0  0  0  0  0  0  0  0  0  0  0  0
   22.1835   -5.3694  -14.2274 O   0  0  0  0  0  0  0  0  0  0  0  0
   20.0895   -4.8658  -15.0099 N   0  0  0  0  0  0  0  0  0  0  0  0
   18.7177   -5.0434  -15.3415 C   0  0  0  0  0  0  0  0  0  0  0  0
   18.1254   -3.6613  -15.4499 C   0  0  0  0  0  0  0  0  0  0  0  0
   19.3072   -2.9521  -16.1323 C   0  0  0  0  0  0  0  0  0  0  0  0
   20.4937   -3.5310  -15.4592 C   0  0  1  0  0  0  0  0  0  0  0  0
   21.0028   -2.7155  -14.3375 C   0  0  0  0  0  0  0  0  0  0  0  0
   21.7079   -1.5600  -14.5242 O   0  0  0  0  0  0  0  0  0  0  0  0
   20.7724   -3.1102  -13.1676 O   0  0  0  0  0  0  0  0  0  0  0  0
  1  2  1  0
  2  3  1  0
  3  4  1  6
  3  5  1  0
  5  6  2  0
  8  7  1  1
  9  8  1  0
 11 10  1  1
 10  8  1  0
 11 13  1  0
 12  5  1  0
 12 11  1  0
 13 15  1  0
 14 13  2  0
 15 19  1  0
 15 16  1  0
 16 17  1  0
 18 17  1  0
 19 20  1  1
 19 18  1  0
 20 22  2  0
 20 21  1  0
M  END
$$$$
