RLG.pdb
     RDKit          3D

 24 23  0  0  1  0  0  0  0  0999 V2000
   18.7153  -23.5975  -12.8276 N   0  0  0  0  0  0  0  0  0  0  0  0
   18.9037  -24.0273  -14.1899 C   0  0  0  0  0  0  0  0  0  0  0  0
   17.9430  -24.6876  -14.7291 N   0  0  0  0  0  0  0  0  0  0  0  0
   20.1059  -23.7024  -14.8310 N   0  0  0  0  0  0  0  0  0  0  0  0
   21.1505  -23.0192  -14.0549 C   0  0  0  0  0  0  0  0  0  0  0  0
   20.8269  -21.5778  -13.8767 C   0  0  0  0  0  0  0  0  0  0  0  0
   21.9578  -20.6711  -13.5434 C   0  0  0  0  0  0  0  0  0  0  0  0
   22.2028  -20.5244  -12.0822 C   0  0  2  0  0  0  0  0  0  0  0  0
   21.3428  -19.5660  -11.4268 N   0  0  0  0  0  0  0  0  0  0  0  0
   23.6098  -20.1334  -11.7819 C   0  0  0  0  0  0  0  0  0  0  0  0
   24.0248  -18.9947  -12.1023 O   0  0  0  0  0  0  0  0  0  0  0  0
   17.9711  -25.0873  -15.6773 C   0  0  0  0  0  0  0  0  0  0  0  0
   26.1406  -18.8237   -8.6102 C   0  0  2  0  0  0  0  0  0  0  0  0
   25.7987  -20.3265   -8.4742 C   0  0  0  0  0  0  0  0  0  0  0  0
   26.3328  -20.7434   -7.1530 C   0  0  0  0  0  0  0  0  0  0  0  0
   26.4239  -20.9962   -9.6276 C   0  0  2  0  0  0  0  0  0  0  0  0
   25.9532  -20.7072  -10.9924 N   0  0  0  0  0  0  0  0  0  0  0  0
   24.5200  -21.0107  -11.1361 C   0  0  0  0  0  0  0  0  0  0  0  0
   26.7217  -21.3654  -12.0598 O   0  0  0  0  0  0  0  0  0  0  0  0
   27.2892  -22.4829  -11.9469 N   0  0  0  0  0  0  0  0  0  0  0  0
   26.8074  -20.6766  -13.3155 C   0  0  0  0  0  0  0  0  0  0  0  0
   27.2724  -21.2452  -14.5159 C   0  0  0  0  0  0  0  0  0  0  0  0
   27.2245  -20.4425  -15.7464 O   0  0  0  0  0  0  0  0  0  0  0  0
   27.8115  -21.0191  -16.9068 O   0  0  0  0  0  0  0  0  0  0  0  0
  1  2  1  0
  2  4  1  0
  3  2  2  0
  4  5  1  0
  5  6  1  0
  7  8  1  0
  7  6  1  0
  8  9  1  6
  8 10  1  0
 10 11  2  0
 13 12  1  1
 13 15  1  0
 14 13  1  0
 16 15  1  1
 16 18  1  0
 17 10  1  0
 17 16  1  0
 18 19  2  0
 20 21  1  0
 20 18  1  0
 21 22  1  0
 22 24  2  0
 22 23  1  0
M  END
$$$$
