RLG.pdb
     RDKit          3D

 24 23  0  0  1  0  0  0  0  0999 V2000
   28.7548  -21.9932  -15.5523 N   0  0  0  0  0  0  0  0  0  0  0  0
   28.3559  -20.8854  -16.3827 C   0  0  0  0  0  0  0  0  0  0  0  0
   28.3000  -21.0982  -17.6481 N   0  0  0  0  0  0  0  0  0  0  0  0
   28.0585  -19.6634  -15.7660 N   0  0  0  0  0  0  0  0  0  0  0  0
   27.3108  -19.6818  -14.5007 C   0  0  0  0  0  0  0  0  0  0  0  0
   26.0787  -20.5075  -14.6204 C   0  0  0  0  0  0  0  0  0  0  0  0
   25.7280  -21.3645  -13.4565 C   0  0  0  0  0  0  0  0  0  0  0  0
   24.8786  -20.6840  -12.4405 C   0  0  2  0  0  0  0  0  0  0  0  0
   25.0207  -19.2464  -12.4109 N   0  0  0  0  0  0  0  0  0  0  0  0
   25.1403  -21.1825  -11.0601 C   0  0  0  0  0  0  0  0  0  0  0  0
   25.5986  -22.3366  -10.8879 O   0  0  0  0  0  0  0  0  0  0  0  0
   28.1739  -20.3629  -18.3574 C   0  0  0  0  0  0  0  0  0  0  0  0
   27.7990  -21.0476   -7.4811 C   0  0  2  0  0  0  0  0  0  0  0  0
   27.0131  -19.7597   -7.8240 C   0  0  0  0  0  0  0  0  0  0  0  0
   27.5579  -18.7054   -6.9317 C   0  0  0  0  0  0  0  0  0  0  0  0
   25.5912  -20.0751   -7.6040 C   0  0  2  0  0  0  0  0  0  0  0  0
   24.8760  -20.9520   -8.5458 N   0  0  0  0  0  0  0  0  0  0  0  0
   24.8887  -20.3928   -9.9075 C   0  0  0  0  0  0  0  0  0  0  0  0
   23.5009  -21.2899   -8.1479 O   0  0  0  0  0  0  0  0  0  0  0  0
   22.4926  -20.5751   -8.3844 N   0  0  0  0  0  0  0  0  0  0  0  0
   23.3136  -22.5321   -7.4551 C   0  0  0  0  0  0  0  0  0  0  0  0
   22.0918  -22.9785   -6.9179 C   0  0  0  0  0  0  0  0  0  0  0  0
   21.4892  -22.2286   -5.8066 O   0  0  0  0  0  0  0  0  0  0  0  0
   20.2902  -22.7597   -5.2554 O   0  0  0  0  0  0  0  0  0  0  0  0
  1  2  1  0
  2  4  1  0
  3  2  2  0
  4  5  1  0
  5  6  1  0
  7  8  1  0
  7  6  1  0
  8  9  1  1
  8 10  1  0
 10 11  2  0
 13 12  1  6
 13 15  1  0
 14 13  1  0
 16 15  1  6
 16 18  1  0
 17 10  1  0
 17 16  1  0
 18 19  2  0
 20 21  1  0
 20 18  1  0
 21 22  1  0
 22 24  2  0
 22 23  1  0
M  END
$$$$
