RLG.pdb
     RDKit          3D

 24 23  0  0  1  0  0  0  0  0999 V2000
   17.1042   -8.0272  -22.4408 N   0  0  0  0  0  0  0  0  0  0  0  0
   16.3512   -9.2495  -22.3187 C   0  0  0  0  0  0  0  0  0  0  0  0
   15.0709   -9.1478  -22.3390 N   0  0  0  0  0  0  0  0  0  0  0  0
   17.0531  -10.4545  -22.1875 N   0  0  0  0  0  0  0  0  0  0  0  0
   18.4920  -10.3976  -21.8933 C   0  0  0  0  0  0  0  0  0  0  0  0
   18.7321  -10.1766  -20.4416 C   0  0  0  0  0  0  0  0  0  0  0  0
   20.1476  -10.0324  -20.0085 C   0  0  0  0  0  0  0  0  0  0  0  0
   20.6129  -11.1141  -19.0973 C   0  0  2  0  0  0  0  0  0  0  0  0
   19.5735  -12.0230  -18.6714 N   0  0  0  0  0  0  0  0  0  0  0  0
   21.2613  -10.5766  -17.8672 C   0  0  0  0  0  0  0  0  0  0  0  0
   20.6251  -10.5445  -16.7875 O   0  0  0  0  0  0  0  0  0  0  0  0
   14.4221   -9.9425  -22.2546 C   0  0  0  0  0  0  0  0  0  0  0  0
   26.9368   -9.9681  -15.7867 C   0  0  1  0  0  0  0  0  0  0  0  0
   25.4977   -9.4998  -15.4649 C   0  0  0  0  0  0  0  0  0  0  0  0
   25.1537  -10.1211  -14.1609 C   0  0  0  0  0  0  0  0  0  0  0  0
   24.6603   -9.9396  -16.5940 C   0  0  2  0  0  0  0  0  0  0  0  0
   23.2420   -9.5496  -16.6562 N   0  0  0  0  0  0  0  0  0  0  0  0
   22.5945  -10.0890  -17.8632 C   0  0  0  0  0  0  0  0  0  0  0  0
   22.9971   -8.1031  -16.5514 O   0  0  0  0  0  0  0  0  0  0  0  0
   23.3070   -7.2602  -17.4329 N   0  0  0  0  0  0  0  0  0  0  0  0
   22.3454   -7.6410  -15.3597 C   0  0  0  0  0  0  0  0  0  0  0  0
   22.0160   -6.2995  -15.0904 C   0  0  0  0  0  0  0  0  0  0  0  0
   23.0995   -5.3136  -14.9688 O   0  0  0  0  0  0  0  0  0  0  0  0
   22.7138   -3.9754  -14.6791 O   0  0  0  0  0  0  0  0  0  0  0  0
  1  2  1  0
  2  4  1  0
  3  2  2  0
  4  5  1  0
  5  6  1  0
  7  8  1  0
  7  6  1  0
  8  9  1  1
  8 10  1  0
 10 11  2  0
 13 12  1  1
 13 15  1  0
 14 13  1  0
 16 15  1  1
 16 18  1  0
 17 10  1  0
 17 16  1  0
 18 19  2  0
 20 21  1  0
 20 18  1  0
 21 22  1  0
 22 24  2  0
 22 23  1  0
M  END
$$$$
