RLG.pdb
     RDKit          3D

 24 23  0  0  1  0  0  0  0  0999 V2000
   18.3201  -25.3395  -16.8313 N   0  0  0  0  0  0  0  0  0  0  0  0
   17.0619  -24.7137  -17.1496 C   0  0  0  0  0  0  0  0  0  0  0  0
   16.6691  -24.7866  -18.3703 N   0  0  0  0  0  0  0  0  0  0  0  0
   16.3568  -24.0742  -16.1221 N   0  0  0  0  0  0  0  0  0  0  0  0
   16.9775  -23.9939  -14.7922 C   0  0  0  0  0  0  0  0  0  0  0  0
   16.6730  -25.2071  -13.9865 C   0  0  0  0  0  0  0  0  0  0  0  0
   17.2031  -25.2421  -12.5973 C   0  0  0  0  0  0  0  0  0  0  0  0
   18.6309  -24.8347  -12.4860 C   0  0  2  0  0  0  0  0  0  0  0  0
   19.5624  -25.7528  -13.1001 N   0  0  0  0  0  0  0  0  0  0  0  0
   19.0578  -24.6537  -11.0691 C   0  0  0  0  0  0  0  0  0  0  0  0
   19.3020  -25.6556  -10.3563 O   0  0  0  0  0  0  0  0  0  0  0  0
   15.8054  -24.3578  -18.7308 C   0  0  0  0  0  0  0  0  0  0  0  0
   22.2875  -21.9229   -8.9038 C   0  0  2  0  0  0  0  0  0  0  0  0
   21.0370  -21.1940   -9.4506 C   0  0  0  0  0  0  0  0  0  0  0  0
   21.2523  -19.7533   -9.1631 C   0  0  0  0  0  0  0  0  0  0  0  0
   19.8796  -21.7907   -8.7621 C   0  0  2  0  0  0  0  0  0  0  0  0
   19.4887  -23.1813   -9.0465 N   0  0  0  0  0  0  0  0  0  0  0  0
   19.2032  -23.3712  -10.4782 C   0  0  0  0  0  0  0  0  0  0  0  0
   18.3704  -23.6839   -8.2341 O   0  0  0  0  0  0  0  0  0  0  0  0
   17.1922  -23.2456   -8.2912 N   0  0  0  0  0  0  0  0  0  0  0  0
   18.6589  -24.7590   -7.3291 C   0  0  0  0  0  0  0  0  0  0  0  0
   17.7466  -25.2999   -6.4040 C   0  0  0  0  0  0  0  0  0  0  0  0
   18.1809  -25.5011   -5.0141 O   0  0  0  0  0  0  0  0  0  0  0  0
   17.1909  -25.9479   -4.0955 O   0  0  0  0  0  0  0  0  0  0  0  0
  1  2  1  0
  2  4  1  0
  3  2  2  0
  4  5  1  0
  5  6  1  0
  7  8  1  0
  7  6  1  0
  8  9  1  1
  8 10  1  0
 10 11  2  0
 13 12  1  6
 13 15  1  0
 14 13  1  0
 16 15  1  6
 16 18  1  0
 17 10  1  0
 17 16  1  0
 18 19  2  0
 20 21  1  0
 20 18  1  0
 21 22  1  0
 22 24  2  0
 22 23  1  0
M  END
$$$$
