RLG.pdb
     RDKit          3D

 24 23  0  0  1  0  0  0  0  0999 V2000
   17.0237  -21.1328  -12.2807 N   0  0  0  0  0  0  0  0  0  0  0  0
   16.6690  -21.3868  -13.6539 C   0  0  0  0  0  0  0  0  0  0  0  0
   15.5272  -21.9349  -13.8673 N   0  0  0  0  0  0  0  0  0  0  0  0
   17.5790  -21.0248  -14.6553 N   0  0  0  0  0  0  0  0  0  0  0  0
   18.8560  -21.7484  -14.7350 C   0  0  0  0  0  0  0  0  0  0  0  0
   19.6096  -21.6443  -13.4563 C   0  0  0  0  0  0  0  0  0  0  0  0
   20.6986  -20.6329  -13.3981 C   0  0  0  0  0  0  0  0  0  0  0  0
   21.9385  -21.0396  -14.1150 C   0  0  2  0  0  0  0  0  0  0  0  0
   22.1136  -22.4684  -14.2397 N   0  0  0  0  0  0  0  0  0  0  0  0
   23.1681  -20.4985  -13.4684 C   0  0  0  0  0  0  0  0  0  0  0  0
   23.2746  -19.2672  -13.2585 O   0  0  0  0  0  0  0  0  0  0  0  0
   15.1543  -22.1599  -14.8000 C   0  0  0  0  0  0  0  0  0  0  0  0
   24.7407  -19.6250   -9.7445 C   0  0  2  0  0  0  0  0  0  0  0  0
   24.6865  -21.1449  -10.0286 C   0  0  0  0  0  0  0  0  0  0  0  0
   24.9989  -21.8078   -8.7372 C   0  0  0  0  0  0  0  0  0  0  0  0
   25.6647  -21.3978  -11.1004 C   0  0  2  0  0  0  0  0  0  0  0  0
   25.4659  -20.8081  -12.4347 N   0  0  0  0  0  0  0  0  0  0  0  0
   24.2463  -21.3321  -13.0713 C   0  0  0  0  0  0  0  0  0  0  0  0
   26.6133  -20.9452  -13.3445 O   0  0  0  0  0  0  0  0  0  0  0  0
   27.7971  -20.6327  -13.0538 N   0  0  0  0  0  0  0  0  0  0  0  0
   26.3473  -21.4885  -14.6454 C   0  0  0  0  0  0  0  0  0  0  0  0
   27.3282  -21.7886  -15.6090 C   0  0  0  0  0  0  0  0  0  0  0  0
   27.6071  -20.8070  -16.6670 O   0  0  0  0  0  0  0  0  0  0  0  0
   28.5721  -21.1794  -17.6435 O   0  0  0  0  0  0  0  0  0  0  0  0
  1  2  1  0
  2  4  1  0
  3  2  2  0
  4  5  1  0
  5  6  1  0
  7  8  1  0
  7  6  1  0
  8  9  1  1
  8 10  1  0
 10 11  2  0
 13 12  1  1
 13 15  1  0
 14 13  1  0
 16 15  1  1
 16 18  1  0
 17 10  1  0
 17 16  1  0
 18 19  2  0
 20 21  1  0
 20 18  1  0
 21 22  1  0
 22 24  2  0
 22 23  1  0
M  END
$$$$
