RLG.pdb
     RDKit          3D

 24 23  0  0  1  0  0  0  0  0999 V2000
   24.9197  -18.5303  -17.0257 N   0  0  0  0  0  0  0  0  0  0  0  0
   24.4210  -17.8184  -15.8766 C   0  0  0  0  0  0  0  0  0  0  0  0
   23.1678  -17.9341  -15.6201 N   0  0  0  0  0  0  0  0  0  0  0  0
   25.3219  -17.0557  -15.1225 N   0  0  0  0  0  0  0  0  0  0  0  0
   26.7083  -17.5285  -15.0008 C   0  0  0  0  0  0  0  0  0  0  0  0
   26.7626  -18.8585  -14.3359 C   0  0  0  0  0  0  0  0  0  0  0  0
   26.8708  -18.8647  -12.8526 C   0  0  0  0  0  0  0  0  0  0  0  0
   27.5520  -20.0689  -12.3025 C   0  0  2  0  0  0  0  0  0  0  0  0
   27.7887  -21.1146  -13.2712 N   0  0  0  0  0  0  0  0  0  0  0  0
   26.7965  -20.6777  -11.1707 C   0  0  0  0  0  0  0  0  0  0  0  0
   26.2483  -21.7960  -11.3139 O   0  0  0  0  0  0  0  0  0  0  0  0
   22.6866  -17.4628  -14.8416 C   0  0  0  0  0  0  0  0  0  0  0  0
   28.3278  -21.0571   -6.8343 C   0  0  1  0  0  0  0  0  0  0  0  0
   27.6876  -19.6959   -7.1967 C   0  0  0  0  0  0  0  0  0  0  0  0
   27.8927  -18.8257   -6.0112 C   0  0  0  0  0  0  0  0  0  0  0  0
   26.2771  -19.9769   -7.5148 C   0  0  2  0  0  0  0  0  0  0  0  0
   25.9234  -20.6269   -8.7875 N   0  0  0  0  0  0  0  0  0  0  0  0
   26.6668  -20.0348   -9.9117 C   0  0  0  0  0  0  0  0  0  0  0  0
   24.4835  -20.6503   -9.0864 O   0  0  0  0  0  0  0  0  0  0  0  0
   23.6146  -21.2155   -8.3729 N   0  0  0  0  0  0  0  0  0  0  0  0
   24.0565  -19.9629  -10.2711 C   0  0  0  0  0  0  0  0  0  0  0  0
   22.7200  -19.8438  -10.6958 C   0  0  0  0  0  0  0  0  0  0  0  0
   22.0738  -20.9978  -11.3371 O   0  0  0  0  0  0  0  0  0  0  0  0
   20.7191  -20.8289  -11.7367 O   0  0  0  0  0  0  0  0  0  0  0  0
  1  2  1  0
  2  4  1  0
  3  2  2  0
  4  5  1  0
  5  6  1  0
  7  8  1  0
  7  6  1  0
  8  9  1  6
  8 10  1  0
 10 11  2  0
 13 12  1  6
 13 15  1  0
 14 13  1  0
 16 15  1  1
 16 18  1  0
 17 10  1  0
 17 16  1  0
 18 19  2  0
 20 21  1  0
 20 18  1  0
 21 22  1  0
 22 24  2  0
 22 23  1  0
M  END
$$$$
