RLG.pdb
     RDKit          3D

 24 23  0  0  1  0  0  0  0  0999 V2000
   19.4668  -21.2759  -10.9405 N   0  0  0  0  0  0  0  0  0  0  0  0
   19.4850  -22.1340  -12.0977 C   0  0  0  0  0  0  0  0  0  0  0  0
   20.3687  -21.8809  -12.9949 N   0  0  0  0  0  0  0  0  0  0  0  0
   18.5510  -23.1753  -12.1703 N   0  0  0  0  0  0  0  0  0  0  0  0
   17.7152  -23.4488  -10.9926 C   0  0  0  0  0  0  0  0  0  0  0  0
   18.2280  -24.6221  -10.2346 C   0  0  0  0  0  0  0  0  0  0  0  0
   17.4847  -25.0050   -9.0046 C   0  0  0  0  0  0  0  0  0  0  0  0
   18.1201  -26.1099   -8.2351 C   0  0  2  0  0  0  0  0  0  0  0  0
   18.2203  -27.3579   -8.9564 N   0  0  0  0  0  0  0  0  0  0  0  0
   17.4044  -26.3936   -6.9585 C   0  0  0  0  0  0  0  0  0  0  0  0
   16.3939  -27.1356   -6.9590 O   0  0  0  0  0  0  0  0  0  0  0  0
   20.4461  -22.3783  -13.8929 C   0  0  0  0  0  0  0  0  0  0  0  0
   18.0501  -28.5230   -3.2081 C   0  0  2  0  0  0  0  0  0  0  0  0
   18.8414  -27.1952   -3.2757 C   0  0  0  0  0  0  0  0  0  0  0  0
   19.7225  -27.1897   -2.0805 C   0  0  0  0  0  0  0  0  0  0  0  0
   17.8364  -26.1187   -3.3019 C   0  0  2  0  0  0  0  0  0  0  0  0
   17.0009  -25.9186   -4.4975 N   0  0  0  0  0  0  0  0  0  0  0  0
   17.8241  -25.8500   -5.7160 C   0  0  0  0  0  0  0  0  0  0  0  0
   16.0969  -24.7605   -4.4289 O   0  0  0  0  0  0  0  0  0  0  0  0
   16.4729  -23.5596   -4.4266 N   0  0  0  0  0  0  0  0  0  0  0  0
   14.6905  -25.0387   -4.3759 C   0  0  0  0  0  0  0  0  0  0  0  0
   13.8216  -24.6059   -3.3569 C   0  0  0  0  0  0  0  0  0  0  0  0
   14.2348  -23.4844   -2.5012 O   0  0  0  0  0  0  0  0  0  0  0  0
   15.5152  -23.5871   -1.8901 O   0  0  0  0  0  0  0  0  0  0  0  0
  1  2  1  0
  2  4  1  0
  3  2  2  0
  4  5  1  0
  5  6  1  0
  7  8  1  0
  7  6  1  0
  8  9  1  6
  8 10  1  0
 10 11  2  0
 13 12  1  6
 13 15  1  0
 14 13  1  0
 16 15  1  6
 16 18  1  0
 17 10  1  0
 17 16  1  0
 18 19  2  0
 20 21  1  0
 20 18  1  0
 21 22  1  0
 22 24  2  0
 22 23  1  0
M  END
$$$$
