RLG.pdb
     RDKit          3D

 24 23  0  0  1  0  0  0  0  0999 V2000
   26.5406  -21.1434  -17.7490 N   0  0  0  0  0  0  0  0  0  0  0  0
   25.4371  -20.2509  -17.9970 C   0  0  0  0  0  0  0  0  0  0  0  0
   24.4309  -20.7336  -18.6329 N   0  0  0  0  0  0  0  0  0  0  0  0
   25.5300  -18.9317  -17.5355 N   0  0  0  0  0  0  0  0  0  0  0  0
   26.4704  -18.6365  -16.4451 C   0  0  0  0  0  0  0  0  0  0  0  0
   26.0206  -19.2562  -15.1694 C   0  0  0  0  0  0  0  0  0  0  0  0
   26.8788  -19.0348  -13.9751 C   0  0  0  0  0  0  0  0  0  0  0  0
   27.4228  -20.2877  -13.3824 C   0  0  2  0  0  0  0  0  0  0  0  0
   27.7014  -21.3298  -14.3437 N   0  0  0  0  0  0  0  0  0  0  0  0
   26.5128  -20.8673  -12.3536 C   0  0  0  0  0  0  0  0  0  0  0  0
   26.0611  -22.0275  -12.4999 O   0  0  0  0  0  0  0  0  0  0  0  0
   23.5882  -20.1978  -18.8829 C   0  0  0  0  0  0  0  0  0  0  0  0
   27.2102  -21.3405   -7.6957 C   0  0  1  0  0  0  0  0  0  0  0  0
   26.8763  -19.9212   -8.2134 C   0  0  0  0  0  0  0  0  0  0  0  0
   26.9426  -19.0329   -7.0254 C   0  0  0  0  0  0  0  0  0  0  0  0
   25.5450  -20.0137   -8.8367 C   0  0  2  0  0  0  0  0  0  0  0  0
   25.3680  -20.7656  -10.0901 N   0  0  0  0  0  0  0  0  0  0  0  0
   26.1266  -20.1498  -11.1912 C   0  0  0  0  0  0  0  0  0  0  0  0
   23.9679  -20.9721  -10.4905 O   0  0  0  0  0  0  0  0  0  0  0  0
   23.0858  -21.4949   -9.7611 N   0  0  0  0  0  0  0  0  0  0  0  0
   23.5971  -20.5270  -11.8030 C   0  0  0  0  0  0  0  0  0  0  0  0
   22.3137  -20.6584  -12.3654 C   0  0  0  0  0  0  0  0  0  0  0  0
   21.1816  -19.9829  -11.7152 O   0  0  0  0  0  0  0  0  0  0  0  0
   19.8850  -20.2895  -12.2136 O   0  0  0  0  0  0  0  0  0  0  0  0
  1  2  1  0
  2  4  1  0
  3  2  2  0
  4  5  1  0
  5  6  1  0
  7  8  1  0
  7  6  1  0
  8  9  1  6
  8 10  1  0
 10 11  2  0
 13 12  1  6
 13 15  1  0
 14 13  1  0
 16 15  1  1
 16 18  1  0
 17 10  1  0
 17 16  1  0
 18 19  2  0
 20 21  1  0
 20 18  1  0
 21 22  1  0
 22 24  2  0
 22 23  1  0
M  END
$$$$
