RLG.pdb
     RDKit          3D

 24 23  0  0  1  0  0  0  0  0999 V2000
   17.5324  -23.4661  -15.1592 N   0  0  0  0  0  0  0  0  0  0  0  0
   17.6140  -23.5753  -13.7249 C   0  0  0  0  0  0  0  0  0  0  0  0
   17.1499  -24.6502  -13.1966 N   0  0  0  0  0  0  0  0  0  0  0  0
   18.1863  -22.5173  -13.0073 N   0  0  0  0  0  0  0  0  0  0  0  0
   18.5639  -21.2994  -13.7384 C   0  0  0  0  0  0  0  0  0  0  0  0
   19.6559  -21.5767  -14.7103 C   0  0  0  0  0  0  0  0  0  0  0  0
   20.8815  -20.7412  -14.6009 C   0  0  0  0  0  0  0  0  0  0  0  0
   21.9742  -21.3736  -13.8117 C   0  0  2  0  0  0  0  0  0  0  0  0
   21.5629  -21.8775  -12.5215 N   0  0  0  0  0  0  0  0  0  0  0  0
   23.1149  -20.4423  -13.5792 C   0  0  0  0  0  0  0  0  0  0  0  0
   22.9215  -19.3491  -12.9969 O   0  0  0  0  0  0  0  0  0  0  0  0
   17.1040  -24.8287  -12.1838 C   0  0  0  0  0  0  0  0  0  0  0  0
   25.4009  -19.9645  -10.6611 C   0  0  2  0  0  0  0  0  0  0  0  0
   25.9773  -21.1131  -11.5227 C   0  0  0  0  0  0  0  0  0  0  0  0
   27.0022  -21.7760  -10.6771 C   0  0  0  0  0  0  0  0  0  0  0  0
   26.5044  -20.4845  -12.7461 C   0  0  2  0  0  0  0  0  0  0  0  0
   25.5830  -19.8633  -13.7118 N   0  0  0  0  0  0  0  0  0  0  0  0
   24.4379  -20.7437  -13.9963 C   0  0  0  0  0  0  0  0  0  0  0  0
   26.2118  -19.4257  -14.9673 O   0  0  0  0  0  0  0  0  0  0  0  0
   26.3754  -20.1577  -15.9777 N   0  0  0  0  0  0  0  0  0  0  0  0
   26.6504  -18.0612  -15.0310 C   0  0  0  0  0  0  0  0  0  0  0  0
   27.1398  -17.4255  -16.1873 C   0  0  0  0  0  0  0  0  0  0  0  0
   28.4186  -17.8744  -16.7563 O   0  0  0  0  0  0  0  0  0  0  0  0
   29.3928  -16.8686  -17.0067 O   0  0  0  0  0  0  0  0  0  0  0  0
  1  2  1  0
  2  4  1  0
  3  2  2  0
  4  5  1  0
  5  6  1  0
  7  8  1  0
  7  6  1  0
  8  9  1  1
  8 10  1  0
 10 11  2  0
 13 12  1  1
 13 15  1  0
 14 13  1  0
 16 15  1  1
 16 18  1  0
 17 10  1  0
 17 16  1  0
 18 19  2  0
 20 21  1  0
 20 18  1  0
 21 22  1  0
 22 24  2  0
 22 23  1  0
M  END
$$$$
