RLG.pdb
     RDKit          3D

 24 23  0  0  1  0  0  0  0  0999 V2000
   19.2080  -23.3432   -8.5184 N   0  0  0  0  0  0  0  0  0  0  0  0
   19.1013  -23.3381   -9.9552 C   0  0  0  0  0  0  0  0  0  0  0  0
   18.0962  -23.9539  -10.4655 N   0  0  0  0  0  0  0  0  0  0  0  0
   20.0867  -22.6713  -10.6944 N   0  0  0  0  0  0  0  0  0  0  0  0
   21.3485  -22.3243  -10.0252 C   0  0  0  0  0  0  0  0  0  0  0  0
   21.5211  -20.8488   -9.9425 C   0  0  0  0  0  0  0  0  0  0  0  0
   22.6117  -20.2525  -10.7592 C   0  0  0  0  0  0  0  0  0  0  0  0
   23.9474  -20.8662  -10.5221 C   0  0  2  0  0  0  0  0  0  0  0  0
   24.4687  -20.6631   -9.1899 N   0  0  0  0  0  0  0  0  0  0  0  0
   24.9758  -20.3683  -11.4797 C   0  0  0  0  0  0  0  0  0  0  0  0
   25.3165  -19.1620  -11.4609 O   0  0  0  0  0  0  0  0  0  0  0  0
   17.9614  -24.1136  -11.4735 C   0  0  0  0  0  0  0  0  0  0  0  0
   29.3804  -19.6737  -12.3989 C   0  0  1  0  0  0  0  0  0  0  0  0
   28.8260  -21.0548  -11.9757 C   0  0  0  0  0  0  0  0  0  0  0  0
   30.0146  -21.9211  -11.7718 C   0  0  0  0  0  0  0  0  0  0  0  0
   27.9299  -21.4883  -13.0614 C   0  0  2  0  0  0  0  0  0  0  0  0
   26.6790  -20.7569  -13.3216 N   0  0  0  0  0  0  0  0  0  0  0  0
   25.5996  -21.2162  -12.4322 C   0  0  0  0  0  0  0  0  0  0  0  0
   26.2303  -20.7851  -14.7220 O   0  0  0  0  0  0  0  0  0  0  0  0
   26.9718  -20.5646  -15.7145 N   0  0  0  0  0  0  0  0  0  0  0  0
   24.8504  -21.1022  -14.9540 C   0  0  0  0  0  0  0  0  0  0  0  0
   24.2627  -21.2609  -16.2228 C   0  0  0  0  0  0  0  0  0  0  0  0
   23.9958  -20.0655  -17.0356 O   0  0  0  0  0  0  0  0  0  0  0  0
   23.3929  -20.2803  -18.3059 O   0  0  0  0  0  0  0  0  0  0  0  0
  1  2  1  0
  2  4  1  0
  3  2  2  0
  4  5  1  0
  5  6  1  0
  7  8  1  0
  7  6  1  0
  8  9  1  1
  8 10  1  0
 10 11  2  0
 13 12  1  1
 13 15  1  0
 14 13  1  0
 16 15  1  1
 16 18  1  0
 17 10  1  0
 17 16  1  0
 18 19  2  0
 20 21  1  0
 20 18  1  0
 21 22  1  0
 22 24  2  0
 22 23  1  0
M  END
$$$$
