RLG.pdb
     RDKit          3D

 24 23  0  0  1  0  0  0  0  0999 V2000
   23.0548  -21.3355  -16.5488 N   0  0  0  0  0  0  0  0  0  0  0  0
   23.1031  -20.0055  -17.1009 C   0  0  0  0  0  0  0  0  0  0  0  0
   23.2744  -19.9091  -18.3702 N   0  0  0  0  0  0  0  0  0  0  0  0
   22.9622  -18.9171  -16.2307 N   0  0  0  0  0  0  0  0  0  0  0  0
   22.8039  -19.1856  -14.7943 C   0  0  0  0  0  0  0  0  0  0  0  0
   24.0678  -19.7051  -14.2055 C   0  0  0  0  0  0  0  0  0  0  0  0
   24.1329  -19.7915  -12.7222 C   0  0  0  0  0  0  0  0  0  0  0  0
   25.4395  -20.2817  -12.2032 C   0  0  2  0  0  0  0  0  0  0  0  0
   26.1495  -21.1571  -13.1073 N   0  0  0  0  0  0  0  0  0  0  0  0
   25.2970  -21.0058  -10.9079 C   0  0  0  0  0  0  0  0  0  0  0  0
   25.0856  -22.2415  -10.9016 O   0  0  0  0  0  0  0  0  0  0  0  0
   23.4322  -19.0237  -18.8711 C   0  0  0  0  0  0  0  0  0  0  0  0
   28.4558  -20.1086   -7.5922 C   0  0  2  0  0  0  0  0  0  0  0  0
   27.0164  -19.5421   -7.5566 C   0  0  0  0  0  0  0  0  0  0  0  0
   26.9982  -18.5571   -6.4457 C   0  0  0  0  0  0  0  0  0  0  0  0
   26.1243  -20.6986   -7.3659 C   0  0  1  0  0  0  0  0  0  0  0  0
   25.1021  -21.0162   -8.3768 N   0  0  0  0  0  0  0  0  0  0  0  0
   25.3917  -20.3454   -9.6548 C   0  0  0  0  0  0  0  0  0  0  0  0
   23.7189  -20.7405   -7.9600 O   0  0  0  0  0  0  0  0  0  0  0  0
   23.1760  -19.6056   -7.9909 N   0  0  0  0  0  0  0  0  0  0  0  0
   22.9450  -21.8586   -7.5025 C   0  0  0  0  0  0  0  0  0  0  0  0
   21.7444  -21.7632   -6.7744 C   0  0  0  0  0  0  0  0  0  0  0  0
   21.0418  -22.9988   -6.3998 O   0  0  0  0  0  0  0  0  0  0  0  0
   19.9109  -22.8559   -5.5488 O   0  0  0  0  0  0  0  0  0  0  0  0
  1  2  1  0
  2  4  1  0
  3  2  2  0
  4  5  1  0
  5  6  1  0
  7  8  1  0
  7  6  1  0
  8  9  1  6
  8 10  1  0
 10 11  2  0
 13 12  1  6
 13 15  1  0
 14 13  1  0
 16 15  1  6
 16 18  1  0
 17 10  1  0
 17 16  1  0
 18 19  2  0
 20 21  1  0
 20 18  1  0
 21 22  1  0
 22 24  2  0
 22 23  1  0
M  END
$$$$
