QRY.pdb
     RDKit          3D

 33 33  0  0  1  0  0  0  0  0999 V2000
   21.2463  -20.2236  -12.6169 N   0  0  0  0  0  0  0  0  0  0  0  0
   21.2991  -20.5353  -11.2460 C   0  0  0  0  0  0  0  0  0  0  0  0
   20.2587  -20.9014  -10.6394 O   0  0  0  0  0  0  0  0  0  0  0  0
   22.5643  -20.4501  -10.4537 C   0  0  0  0  0  0  0  0  0  0  0  0
   23.6908  -19.9289  -11.2780 C   0  0  0  0  0  0  0  0  0  0  0  0
   24.9793  -20.5300  -10.9359 C   0  0  2  0  0  0  0  0  0  0  0  0
   25.3555  -20.3220   -9.5442 N   0  0  0  0  0  0  0  0  0  0  0  0
   26.0829  -20.5389  -11.8769 C   0  0  0  0  0  0  0  0  0  0  0  0
   26.8592  -19.4971  -11.8864 O   0  0  0  0  0  0  0  0  0  0  0  0
   30.3286  -26.2510  -16.5624 N   0  0  0  0  0  0  0  0  0  0  0  0
   28.9457  -25.9327  -16.5313 C   0  0  0  0  0  0  0  0  0  0  0  0
   28.0578  -26.8380  -16.7552 N   0  0  0  0  0  0  0  0  0  0  0  0
   28.5136  -24.6127  -16.2507 N   0  0  0  0  0  0  0  0  0  0  0  0
   29.3425  -23.4314  -16.3426 C   0  0  0  0  0  0  0  0  0  0  0  0
   28.6427  -22.1993  -15.8659 C   0  0  0  0  0  0  0  0  0  0  0  0
   27.8447  -22.3829  -14.6335 C   0  0  0  0  0  0  0  0  0  0  0  0
   27.1698  -21.1955  -14.0557 C   0  0  2  0  0  0  0  0  0  0  0  0
   26.4581  -21.5213  -12.8163 N   0  0  0  0  0  0  0  0  0  0  0  0
   26.2423  -20.6070  -15.0493 C   0  0  0  0  0  0  0  0  0  0  0  0
   25.0274  -20.5460  -14.7612 O   0  0  0  0  0  0  0  0  0  0  0  0
   27.0508  -26.5866  -16.6784 O   0  0  0  0  0  0  0  0  0  0  0  0
   21.3462  -15.4580  -19.7385 C   0  0  0  0  0  0  0  0  0  0  0  0
   22.2658  -16.1339  -18.9510 C   0  0  0  0  0  0  0  0  0  0  0  0
   21.8946  -17.2500  -18.2360 C   0  0  0  0  0  0  0  0  0  0  0  0
   22.7928  -17.9360  -17.4475 C   0  0  0  0  0  0  0  0  0  0  0  0
   24.1270  -17.5303  -17.3354 C   0  0  0  0  0  0  0  0  0  0  0  0
   25.0929  -18.2554  -16.4864 C   0  0  1  0  0  0  0  0  0  0  0  0
   25.6759  -19.4601  -17.1691 N   0  0  0  0  0  0  0  0  0  0  0  0
   26.6605  -20.1121  -16.3022 C   0  0  0  0  0  0  0  0  0  0  0  0
   26.3458  -19.0860  -18.4171 O   0  0  0  0  0  0  0  0  0  0  0  0
   25.6580  -19.0631  -19.6124 C   0  0  0  0  0  0  0  0  0  0  0  0
   24.4717  -16.4054  -18.0655 C   0  0  0  0  0  0  0  0  0  0  0  0
   23.5781  -15.7224  -18.8505 O   0  0  0  0  0  0  0  0  0  0  0  0
  2  3  2  0
  2  1  1  0
  4  2  1  0
  5  6  1  0
  5  4  1  0
  6  8  1  0
  6  7  1  1
  8 18  1  0
  8  9  2  0
 10 11  1  0
 11 12  2  0
 13 11  1  0
 14 13  1  0
 15 14  1  0
 16 15  1  0
 17 19  1  0
 17 16  1  6
 18 17  1  0
 19 20  2  0
 21 22  1  0
 22 23  2  0
 22 32  1  0
 23 24  1  0
 24 25  2  0
 25 26  1  0
 27 26  1  1
 27 28  1  0
 28 19  1  0
 29 27  1  0
 30 29  1  0
 31 25  1  0
 32 31  2  0
 33 29  2  0
M  END
$$$$
