QRY.pdb
     RDKit          3D

 33 33  0  0  1  0  0  0  0  0999 V2000
   23.6641  -28.8088  -18.9941 N   0  0  0  0  0  0  0  0  0  0  0  0
   24.5487  -29.8500  -19.3301 C   0  0  0  0  0  0  0  0  0  0  0  0
   24.1858  -30.7581  -20.1226 O   0  0  0  0  0  0  0  0  0  0  0  0
   25.9352  -29.9325  -18.7766 C   0  0  0  0  0  0  0  0  0  0  0  0
   26.2122  -28.8166  -17.8289 C   0  0  0  0  0  0  0  0  0  0  0  0
   27.6300  -28.6841  -17.4958 C   0  0  2  0  0  0  0  0  0  0  0  0
   28.1413  -29.8041  -16.7175 N   0  0  0  0  0  0  0  0  0  0  0  0
   28.2144  -27.3955  -17.1770 C   0  0  0  0  0  0  0  0  0  0  0  0
   28.3435  -27.1009  -15.9182 O   0  0  0  0  0  0  0  0  0  0  0  0
   33.4186  -27.1644  -20.0090 N   0  0  0  0  0  0  0  0  0  0  0  0
   34.3366  -26.3066  -19.3486 C   0  0  0  0  0  0  0  0  0  0  0  0
   35.5756  -26.6366  -19.2297 N   0  0  0  0  0  0  0  0  0  0  0  0
   33.9091  -25.0682  -18.8085 N   0  0  0  0  0  0  0  0  0  0  0  0
   32.6092  -24.4732  -19.0254 C   0  0  0  0  0  0  0  0  0  0  0  0
   31.5504  -25.0720  -18.1563 C   0  0  0  0  0  0  0  0  0  0  0  0
   30.2008  -24.4956  -18.3451 C   0  0  0  0  0  0  0  0  0  0  0  0
   29.0841  -25.0575  -17.5473 C   0  0  2  0  0  0  0  0  0  0  0  0
   28.6730  -26.3766  -18.0372 N   0  0  0  0  0  0  0  0  0  0  0  0
   27.9373  -24.1202  -17.5514 C   0  0  0  0  0  0  0  0  0  0  0  0
   26.8402  -24.5292  -17.9893 O   0  0  0  0  0  0  0  0  0  0  0  0
   36.2450  -25.9472  -18.8298 O   0  0  0  0  0  0  0  0  0  0  0  0
   21.1296  -19.8809  -14.7084 C   0  0  0  0  0  0  0  0  0  0  0  0
   22.3068  -20.5662  -14.9683 C   0  0  0  0  0  0  0  0  0  0  0  0
   23.4415  -20.3221  -14.2283 C   0  0  0  0  0  0  0  0  0  0  0  0
   24.6212  -20.9920  -14.4703 C   0  0  0  0  0  0  0  0  0  0  0  0
   24.7225  -21.9536  -15.4814 C   0  0  0  0  0  0  0  0  0  0  0  0
   25.9851  -22.6694  -15.7518 C   0  0  2  0  0  0  0  0  0  0  0  0
   26.7820  -22.0423  -16.8603 N   0  0  0  0  0  0  0  0  0  0  0  0
   28.0207  -22.7912  -17.0861 C   0  0  0  0  0  0  0  0  0  0  0  0
   27.1396  -20.6593  -16.5353 O   0  0  0  0  0  0  0  0  0  0  0  0
   26.1916  -19.6577  -16.5558 C   0  0  0  0  0  0  0  0  0  0  0  0
   23.5660  -22.1784  -16.2089 C   0  0  0  0  0  0  0  0  0  0  0  0
   22.3916  -21.5120  -15.9682 O   0  0  0  0  0  0  0  0  0  0  0  0
  2  3  2  0
  2  1  1  0
  4  2  1  0
  5  6  1  0
  5  4  1  0
  6  8  1  0
  6  7  1  1
  8 18  1  0
  8  9  2  0
 10 11  1  0
 11 12  2  0
 13 11  1  0
 14 13  1  0
 15 14  1  0
 16 15  1  0
 17 19  1  0
 17 16  1  6
 18 17  1  0
 19 20  2  0
 21 22  1  0
 22 23  2  0
 22 32  1  0
 23 24  1  0
 24 25  2  0
 25 26  1  0
 27 26  1  6
 27 28  1  0
 28 19  1  0
 29 27  1  0
 30 29  1  0
 31 25  1  0
 32 31  2  0
 33 29  2  0
M  END
$$$$
