QRY.pdb
     RDKit          3D

 33 33  0  0  1  0  0  0  0  0999 V2000
   27.3135  -25.6676  -16.0790 N   0  0  0  0  0  0  0  0  0  0  0  0
   28.0918  -25.2794  -17.1850 C   0  0  0  0  0  0  0  0  0  0  0  0
   27.9225  -25.8316  -18.3034 O   0  0  0  0  0  0  0  0  0  0  0  0
   29.1380  -24.2151  -17.0937 C   0  0  0  0  0  0  0  0  0  0  0  0
   28.8088  -23.2148  -16.0396 C   0  0  0  0  0  0  0  0  0  0  0  0
   27.8205  -22.2277  -16.4727 C   0  0  2  0  0  0  0  0  0  0  0  0
   28.1880  -21.5569  -17.7123 N   0  0  0  0  0  0  0  0  0  0  0  0
   27.1047  -21.4049  -15.5166 C   0  0  0  0  0  0  0  0  0  0  0  0
   27.3273  -20.1254  -15.5554 O   0  0  0  0  0  0  0  0  0  0  0  0
   21.1048  -22.6454  -12.3590 N   0  0  0  0  0  0  0  0  0  0  0  0
   20.6782  -21.5056  -11.6285 C   0  0  0  0  0  0  0  0  0  0  0  0
   20.0264  -21.6379  -10.5260 N   0  0  0  0  0  0  0  0  0  0  0  0
   20.9627  -20.1987  -12.0963 N   0  0  0  0  0  0  0  0  0  0  0  0
   21.8032  -19.8886  -13.2315 C   0  0  0  0  0  0  0  0  0  0  0  0
   23.2600  -19.9451  -12.9009 C   0  0  0  0  0  0  0  0  0  0  0  0
   24.0606  -20.8105  -13.7950 C   0  0  0  0  0  0  0  0  0  0  0  0
   25.5351  -20.8031  -13.6367 C   0  0  2  0  0  0  0  0  0  0  0  0
   26.1835  -21.7797  -14.5169 N   0  0  0  0  0  0  0  0  0  0  0  0
   25.8937  -21.0584  -12.2225 C   0  0  0  0  0  0  0  0  0  0  0  0
   25.7078  -22.2059  -11.7626 O   0  0  0  0  0  0  0  0  0  0  0  0
   19.8628  -22.5939  -10.1483 O   0  0  0  0  0  0  0  0  0  0  0  0
   28.8444  -20.3635   -3.9038 C   0  0  0  0  0  0  0  0  0  0  0  0
   28.5594  -20.1261   -5.2399 C   0  0  0  0  0  0  0  0  0  0  0  0
   29.2747  -20.7537   -6.2345 C   0  0  0  0  0  0  0  0  0  0  0  0
   29.0076  -20.5317   -7.5681 C   0  0  0  0  0  0  0  0  0  0  0  0
   27.9954  -19.6563   -7.9758 C   0  0  0  0  0  0  0  0  0  0  0  0
   27.7089  -19.4073   -9.4026 C   0  0  1  0  0  0  0  0  0  0  0  0
   26.8082  -20.4485  -10.0040 N   0  0  0  0  0  0  0  0  0  0  0  0
   26.4342  -20.0733  -11.3699 C   0  0  0  0  0  0  0  0  0  0  0  0
   25.5791  -20.5983   -9.2209 O   0  0  0  0  0  0  0  0  0  0  0  0
   25.4588  -21.5924   -8.2723 C   0  0  0  0  0  0  0  0  0  0  0  0
   27.2927  -19.0398   -6.9543 C   0  0  0  0  0  0  0  0  0  0  0  0
   27.5581  -19.2606   -5.6269 O   0  0  0  0  0  0  0  0  0  0  0  0
  2  3  2  0
  2  1  1  0
  4  2  1  0
  5  6  1  0
  5  4  1  0
  6  8  1  0
  6  7  1  6
  8 18  1  0
  8  9  2  0
 10 11  1  0
 11 12  2  0
 13 11  1  0
 14 13  1  0
 15 14  1  0
 16 15  1  0
 17 19  1  0
 17 16  1  1
 18 17  1  0
 19 20  2  0
 21 22  1  0
 22 23  2  0
 22 32  1  0
 23 24  1  0
 24 25  2  0
 25 26  1  0
 27 26  1  6
 27 28  1  0
 28 19  1  0
 29 27  1  0
 30 29  1  0
 31 25  1  0
 32 31  2  0
 33 29  2  0
M  END
$$$$
