QRY.pdb
     RDKit          3D

 33 33  0  0  1  0  0  0  0  0999 V2000
   20.3924  -18.0139  -11.0177 N   0  0  0  0  0  0  0  0  0  0  0  0
   19.4991  -18.3298  -12.0578 C   0  0  0  0  0  0  0  0  0  0  0  0
   18.5661  -17.5381  -12.3533 O   0  0  0  0  0  0  0  0  0  0  0  0
   19.6068  -19.5935  -12.8496 C   0  0  0  0  0  0  0  0  0  0  0  0
   20.7734  -20.4123  -12.4152 C   0  0  0  0  0  0  0  0  0  0  0  0
   21.8370  -20.4741  -13.4170 C   0  0  2  0  0  0  0  0  0  0  0  0
   21.3484  -20.8000  -14.7499 N   0  0  0  0  0  0  0  0  0  0  0  0
   23.1483  -21.0041  -13.0957 C   0  0  0  0  0  0  0  0  0  0  0  0
   23.2034  -22.2367  -12.6888 O   0  0  0  0  0  0  0  0  0  0  0  0
   29.4483  -20.5549  -16.5564 N   0  0  0  0  0  0  0  0  0  0  0  0
   29.0335  -19.3734  -15.8879 C   0  0  0  0  0  0  0  0  0  0  0  0
   28.7227  -18.3162  -16.5540 N   0  0  0  0  0  0  0  0  0  0  0  0
   28.9506  -19.3338  -14.4739 N   0  0  0  0  0  0  0  0  0  0  0  0
   29.3291  -20.4139  -13.5901 C   0  0  0  0  0  0  0  0  0  0  0  0
   28.1593  -21.0062  -12.8720 C   0  0  0  0  0  0  0  0  0  0  0  0
   26.8412  -20.5265  -13.3428 C   0  0  0  0  0  0  0  0  0  0  0  0
   25.6293  -21.0180  -12.6437 C   0  0  2  0  0  0  0  0  0  0  0  0
   24.4107  -20.3781  -13.1483 N   0  0  0  0  0  0  0  0  0  0  0  0
   25.7643  -20.8027  -11.1845 C   0  0  0  0  0  0  0  0  0  0  0  0
   25.6552  -19.6373  -10.7456 O   0  0  0  0  0  0  0  0  0  0  0  0
   28.4236  -17.4640  -16.0367 O   0  0  0  0  0  0  0  0  0  0  0  0
   28.1317  -19.1286   -3.2140 C   0  0  0  0  0  0  0  0  0  0  0  0
   27.8974  -19.4286   -4.5474 C   0  0  0  0  0  0  0  0  0  0  0  0
   27.4424  -20.6733   -4.9193 C   0  0  0  0  0  0  0  0  0  0  0  0
   27.2034  -20.9920   -6.2386 C   0  0  0  0  0  0  0  0  0  0  0  0
   27.4124  -20.0644   -7.2648 C   0  0  0  0  0  0  0  0  0  0  0  0
   27.1663  -20.4011   -8.6811 C   0  0  2  0  0  0  0  0  0  0  0  0
   26.1719  -21.5148   -8.8486 N   0  0  0  0  0  0  0  0  0  0  0  0
   26.0089  -21.8452  -10.2665 C   0  0  0  0  0  0  0  0  0  0  0  0
   24.8608  -21.1352   -8.3164 O   0  0  0  0  0  0  0  0  0  0  0  0
   24.4028  -21.6524   -7.1226 C   0  0  0  0  0  0  0  0  0  0  0  0
   27.8698  -18.8214   -6.8613 C   0  0  0  0  0  0  0  0  0  0  0  0
   28.1077  -18.5038   -5.5484 O   0  0  0  0  0  0  0  0  0  0  0  0
  2  3  2  0
  2  1  1  0
  4  2  1  0
  5  6  1  0
  5  4  1  0
  6  8  1  0
  6  7  1  6
  8 18  1  0
  8  9  2  0
 10 11  1  0
 11 12  2  0
 13 11  1  0
 14 13  1  0
 15 14  1  0
 16 15  1  0
 17 19  1  0
 17 16  1  6
 18 17  1  0
 19 20  2  0
 21 22  1  0
 22 23  2  0
 22 32  1  0
 23 24  1  0
 24 25  2  0
 25 26  1  0
 27 26  1  1
 27 28  1  0
 28 19  1  0
 29 27  1  0
 30 29  1  0
 31 25  1  0
 32 31  2  0
 33 29  2  0
M  END
$$$$
