QRY.pdb
     RDKit          3D

 33 33  0  0  1  0  0  0  0  0999 V2000
   20.6327  -35.1968  -15.0004 N   0  0  0  0  0  0  0  0  0  0  0  0
   21.1689  -35.1117  -13.7024 C   0  0  0  0  0  0  0  0  0  0  0  0
   20.4298  -35.2902  -12.6992 O   0  0  0  0  0  0  0  0  0  0  0  0
   22.6117  -34.8112  -13.4502 C   0  0  0  0  0  0  0  0  0  0  0  0
   23.3715  -34.6731  -14.7244 C   0  0  0  0  0  0  0  0  0  0  0  0
   24.0965  -33.4071  -14.8268 C   0  0  2  0  0  0  0  0  0  0  0  0
   25.3389  -33.3969  -14.0667 N   0  0  0  0  0  0  0  0  0  0  0  0
   23.3971  -32.1376  -14.8799 C   0  0  0  0  0  0  0  0  0  0  0  0
   23.6733  -31.2721  -13.9511 O   0  0  0  0  0  0  0  0  0  0  0  0
   23.5173  -25.9780  -20.7872 N   0  0  0  0  0  0  0  0  0  0  0  0
   23.7960  -25.6151  -19.4436 C   0  0  0  0  0  0  0  0  0  0  0  0
   24.5236  -24.5864  -19.1781 N   0  0  0  0  0  0  0  0  0  0  0  0
   23.2773  -26.3759  -18.3665 N   0  0  0  0  0  0  0  0  0  0  0  0
   22.4426  -27.5485  -18.5055 C   0  0  0  0  0  0  0  0  0  0  0  0
   22.0672  -28.1466  -17.1877 C   0  0  0  0  0  0  0  0  0  0  0  0
   22.4622  -29.5626  -17.0200 C   0  0  0  0  0  0  0  0  0  0  0  0
   21.9666  -30.2885  -15.8256 C   0  0  2  0  0  0  0  0  0  0  0  0
   22.4318  -31.6785  -15.7995 N   0  0  0  0  0  0  0  0  0  0  0  0
   20.4873  -30.2339  -15.7778 C   0  0  0  0  0  0  0  0  0  0  0  0
   19.8421  -31.0299  -16.4939 O   0  0  0  0  0  0  0  0  0  0  0  0
   25.0361  -24.1176  -19.9533 O   0  0  0  0  0  0  0  0  0  0  0  0
   11.9827  -28.7451  -14.1156 C   0  0  0  0  0  0  0  0  0  0  0  0
   13.3651  -28.8181  -14.0347 C   0  0  0  0  0  0  0  0  0  0  0  0
   14.0073  -30.0355  -14.0412 C   0  0  0  0  0  0  0  0  0  0  0  0
   15.3799  -30.1301  -13.9615 C   0  0  0  0  0  0  0  0  0  0  0  0
   16.1876  -28.9915  -13.8698 C   0  0  0  0  0  0  0  0  0  0  0  0
   17.6581  -29.0852  -13.7761 C   0  0  1  0  0  0  0  0  0  0  0  0
   18.3163  -29.2437  -15.1172 N   0  0  0  0  0  0  0  0  0  0  0  0
   19.7708  -29.3303  -14.9655 C   0  0  0  0  0  0  0  0  0  0  0  0
   18.0170  -28.1051  -15.9891 O   0  0  0  0  0  0  0  0  0  0  0  0
   16.7749  -27.9651  -16.5722 C   0  0  0  0  0  0  0  0  0  0  0  0
   15.5147  -27.7814  -13.8657 C   0  0  0  0  0  0  0  0  0  0  0  0
   14.1486  -27.6869  -13.9451 O   0  0  0  0  0  0  0  0  0  0  0  0
  2  3  2  0
  2  1  1  0
  4  2  1  0
  5  6  1  0
  5  4  1  0
  6  8  1  0
  6  7  1  1
  8 18  1  0
  8  9  2  0
 10 11  1  0
 11 12  2  0
 13 11  1  0
 14 13  1  0
 15 14  1  0
 16 15  1  0
 17 19  1  0
 17 16  1  6
 18 17  1  0
 19 20  2  0
 21 22  1  0
 22 23  2  0
 22 32  1  0
 23 24  1  0
 24 25  2  0
 25 26  1  0
 27 26  1  1
 27 28  1  0
 28 19  1  0
 29 27  1  0
 30 29  1  0
 31 25  1  0
 32 31  2  0
 33 29  2  0
M  END
$$$$
