QRY.pdb
     RDKit          3D

 33 33  0  0  1  0  0  0  0  0999 V2000
   29.4342  -17.6718  -18.3468 N   0  0  0  0  0  0  0  0  0  0  0  0
   29.8598  -18.9970  -18.5520 C   0  0  0  0  0  0  0  0  0  0  0  0
   30.5737  -19.2857  -19.5477 O   0  0  0  0  0  0  0  0  0  0  0  0
   29.4953  -20.1083  -17.6204 C   0  0  0  0  0  0  0  0  0  0  0  0
   28.7656  -19.6011  -16.4244 C   0  0  0  0  0  0  0  0  0  0  0  0
   27.5186  -20.3196  -16.1647 C   0  0  2  0  0  0  0  0  0  0  0  0
   26.8091  -20.6913  -17.3812 N   0  0  0  0  0  0  0  0  0  0  0  0
   26.6713  -19.9802  -15.0374 C   0  0  0  0  0  0  0  0  0  0  0  0
   26.3560  -18.7283  -14.8917 O   0  0  0  0  0  0  0  0  0  0  0  0
   20.8729  -23.7306  -13.3871 N   0  0  0  0  0  0  0  0  0  0  0  0
   20.5766  -23.2716  -12.0770 C   0  0  0  0  0  0  0  0  0  0  0  0
   19.8984  -24.0026  -11.2623 N   0  0  0  0  0  0  0  0  0  0  0  0
   21.0230  -22.0005  -11.6378 N   0  0  0  0  0  0  0  0  0  0  0  0
   21.4270  -20.9175  -12.5066 C   0  0  0  0  0  0  0  0  0  0  0  0
   22.8045  -20.4211  -12.2046 C   0  0  0  0  0  0  0  0  0  0  0  0
   23.8325  -20.8213  -13.1906 C   0  0  0  0  0  0  0  0  0  0  0  0
   25.2121  -20.3093  -13.0071 C   0  0  2  0  0  0  0  0  0  0  0  0
   26.1229  -20.8123  -14.0398 N   0  0  0  0  0  0  0  0  0  0  0  0
   25.7085  -20.6644  -11.6576 C   0  0  0  0  0  0  0  0  0  0  0  0
   25.6933  -21.8676  -11.3190 O   0  0  0  0  0  0  0  0  0  0  0  0
   19.6490  -23.6181  -10.3279 O   0  0  0  0  0  0  0  0  0  0  0  0
   28.9795  -20.5789   -3.4486 C   0  0  0  0  0  0  0  0  0  0  0  0
   28.5992  -20.2171   -4.7320 C   0  0  0  0  0  0  0  0  0  0  0  0
   27.5506  -19.3493   -4.9372 C   0  0  0  0  0  0  0  0  0  0  0  0
   27.1566  -18.9771   -6.2042 C   0  0  0  0  0  0  0  0  0  0  0  0
   27.8042  -19.4643   -7.3445 C   0  0  0  0  0  0  0  0  0  0  0  0
   27.3826  -19.0764   -8.7052 C   0  0  1  0  0  0  0  0  0  0  0  0
   26.6413  -20.1718   -9.4176 N   0  0  0  0  0  0  0  0  0  0  0  0
   26.1974  -19.7144  -10.7367 C   0  0  0  0  0  0  0  0  0  0  0  0
   25.4591  -20.5881   -8.6591 O   0  0  0  0  0  0  0  0  0  0  0  0
   24.2532  -19.9357   -8.8101 C   0  0  0  0  0  0  0  0  0  0  0  0
   28.8548  -20.3346   -7.1079 C   0  0  0  0  0  0  0  0  0  0  0  0
   29.2473  -20.7052   -5.8470 O   0  0  0  0  0  0  0  0  0  0  0  0
  2  3  2  0
  2  1  1  0
  4  2  1  0
  5  6  1  0
  5  4  1  0
  6  8  1  0
  6  7  1  6
  8 18  1  0
  8  9  2  0
 10 11  1  0
 11 12  2  0
 13 11  1  0
 14 13  1  0
 15 14  1  0
 16 15  1  0
 17 19  1  0
 17 16  1  6
 18 17  1  0
 19 20  2  0
 21 22  1  0
 22 23  2  0
 22 32  1  0
 23 24  1  0
 24 25  2  0
 25 26  1  0
 27 26  1  6
 27 28  1  0
 28 19  1  0
 29 27  1  0
 30 29  1  0
 31 25  1  0
 32 31  2  0
 33 29  2  0
M  END
$$$$
