QRY.pdb
     RDKit          3D

 33 33  0  0  1  0  0  0  0  0999 V2000
   27.0310  -29.2480  -17.0341 N   0  0  0  0  0  0  0  0  0  0  0  0
   28.0352  -30.2287  -17.1303 C   0  0  0  0  0  0  0  0  0  0  0  0
   29.1597  -29.9378  -17.6157 O   0  0  0  0  0  0  0  0  0  0  0  0
   27.8261  -31.6366  -16.6724 C   0  0  0  0  0  0  0  0  0  0  0  0
   26.5365  -31.7871  -15.9413 C   0  0  0  0  0  0  0  0  0  0  0  0
   26.2908  -33.1547  -15.4851 C   0  0  2  0  0  0  0  0  0  0  0  0
   26.1538  -34.1062  -16.5793 N   0  0  0  0  0  0  0  0  0  0  0  0
   25.4641  -33.4276  -14.3250 C   0  0  0  0  0  0  0  0  0  0  0  0
   24.2283  -33.7621  -14.5463 O   0  0  0  0  0  0  0  0  0  0  0  0
   27.0528  -37.0105   -6.6903 N   0  0  0  0  0  0  0  0  0  0  0  0
   26.9376  -37.2692   -8.0812 C   0  0  0  0  0  0  0  0  0  0  0  0
   27.5609  -38.2591   -8.6193 N   0  0  0  0  0  0  0  0  0  0  0  0
   26.1324  -36.4449   -8.9058 N   0  0  0  0  0  0  0  0  0  0  0  0
   25.3311  -35.3351   -8.4395 C   0  0  0  0  0  0  0  0  0  0  0  0
   24.6192  -34.6328   -9.5508 C   0  0  0  0  0  0  0  0  0  0  0  0
   25.4587  -34.3462  -10.7351 C   0  0  0  0  0  0  0  0  0  0  0  0
   24.8196  -33.6895  -11.9010 C   0  0  2  0  0  0  0  0  0  0  0  0
   25.7915  -33.3810  -12.9543 N   0  0  0  0  0  0  0  0  0  0  0  0
   24.1151  -32.4612  -11.4669 C   0  0  0  0  0  0  0  0  0  0  0  0
   24.7932  -31.5306  -10.9803 O   0  0  0  0  0  0  0  0  0  0  0  0
   27.4465  -38.4328   -9.6391 O   0  0  0  0  0  0  0  0  0  0  0  0
   18.4447  -25.8225  -10.3115 C   0  0  0  0  0  0  0  0  0  0  0  0
   19.0621  -26.9926  -10.7270 C   0  0  0  0  0  0  0  0  0  0  0  0
   20.4168  -27.0263  -10.9683 C   0  0  0  0  0  0  0  0  0  0  0  0
   21.0498  -28.1785  -11.3818 C   0  0  0  0  0  0  0  0  0  0  0  0
   20.3447  -29.3710  -11.5769 C   0  0  0  0  0  0  0  0  0  0  0  0
   21.0146  -30.6071  -12.0275 C   0  0  1  0  0  0  0  0  0  0  0  0
   22.1237  -31.0342  -11.1086 N   0  0  0  0  0  0  0  0  0  0  0  0
   22.7194  -32.2886  -11.5754 C   0  0  0  0  0  0  0  0  0  0  0  0
   21.6279  -31.2455   -9.7464 O   0  0  0  0  0  0  0  0  0  0  0  0
   21.1820  -32.4852   -9.3379 C   0  0  0  0  0  0  0  0  0  0  0  0
   18.9844  -29.3075  -11.3264 C   0  0  0  0  0  0  0  0  0  0  0  0
   18.3541  -28.1610  -10.9147 O   0  0  0  0  0  0  0  0  0  0  0  0
  2  3  2  0
  2  1  1  0
  4  2  1  0
  5  6  1  0
  5  4  1  0
  6  8  1  0
  6  7  1  6
  8 18  1  0
  8  9  2  0
 10 11  1  0
 11 12  2  0
 13 11  1  0
 14 13  1  0
 15 14  1  0
 16 15  1  0
 17 19  1  0
 17 16  1  1
 18 17  1  0
 19 20  2  0
 21 22  1  0
 22 23  2  0
 22 32  1  0
 23 24  1  0
 24 25  2  0
 25 26  1  0
 27 26  1  6
 27 28  1  0
 28 19  1  0
 29 27  1  0
 30 29  1  0
 31 25  1  0
 32 31  2  0
 33 29  2  0
M  END
$$$$
