RST.pdb
     RDKit          3D

 25 24  0  0  1  0  0  0  0  0999 V2000
   16.2375  -12.5464  -21.7340 N   0  0  0  0  0  0  0  0  0  0  0  0
   15.6088  -13.4872  -20.8575 C   0  0  0  0  0  0  0  0  0  0  0  0
   15.3433  -14.6359  -21.3314 N   0  0  0  0  0  0  0  0  0  0  0  0
   15.2949  -13.1631  -19.5300 N   0  0  0  0  0  0  0  0  0  0  0  0
   15.5525  -11.8048  -19.0145 C   0  0  0  0  0  0  0  0  0  0  0  0
   16.8731  -11.8437  -18.3341 C   0  0  0  0  0  0  0  0  0  0  0  0
   17.3646  -10.5822  -17.7273 C   0  0  0  0  0  0  0  0  0  0  0  0
   18.7275  -10.6482  -17.1092 C   0  0  2  0  0  0  0  0  0  0  0  0
   18.9526  -11.8815  -16.3669 N   0  0  0  0  0  0  0  0  0  0  0  0
   18.9516   -9.4787  -16.1923 C   0  0  0  0  0  0  0  0  0  0  0  0
   18.3899   -9.4512  -15.0707 O   0  0  0  0  0  0  0  0  0  0  0  0
   14.9196  -15.4322  -20.8271 O   0  0  0  0  0  0  0  0  0  0  0  0
   22.3149   -7.4055  -16.2833 C   0  0  0  0  0  0  0  0  0  0  0  0
   21.4813   -7.3026  -15.1973 C   0  0  1  0  0  0  0  0  0  0  0  0
   19.9970   -7.3267  -15.6003 N   0  0  0  0  0  0  0  0  0  0  0  0
   19.7854   -8.3948  -16.5562 C   0  0  0  0  0  0  0  0  0  0  0  0
   19.7193   -6.0021  -16.2112 O   0  0  0  0  0  0  0  0  0  0  0  0
   20.0920   -5.8190  -17.3966 C   0  0  0  0  0  0  0  0  0  0  0  0
   16.2601   -4.3120  -16.6318 C   0  0  2  0  0  0  0  0  0  0  0  0
   17.2479   -3.3327  -16.0922 O   0  0  0  0  0  0  0  0  0  0  0  0
   16.9699   -3.2543  -14.7107 C   0  0  2  0  0  0  0  0  0  0  0  0
   18.6668   -3.7150  -16.2289 N   0  0  0  0  0  0  0  0  0  0  0  0
   19.0748   -4.9265  -15.5875 C   0  0  0  0  0  0  0  0  0  0  0  0
   19.5527   -2.6108  -15.8077 O   0  0  0  0  0  0  0  0  0  0  0  0
   19.5386   -1.3403  -16.3673 O   0  0  0  0  0  0  0  0  0  0  0  0
  2  1  1  0
  3  2  2  0
  4  2  1  0
  5  4  1  0
  6  5  1  0
  6  7  1  0
  7  8  1  0
  8 10  1  0
  8  9  1  1
 10 15  1  0
 11 10  2  0
 13 12  1  0
 14 13  1  1
 15 14  1  0
 16 17  2  0
 16 14  1  0
 19 18  1  6
 19 21  1  0
 20 19  1  0
 21 22  1  6
 22 16  1  0
 23 21  1  0
 23 24  1  0
 25 23  2  0
M  END
$$$$
