RST.pdb
     RDKit          3D

 25 24  0  0  1  0  0  0  0  0999 V2000
   18.7714  -23.4866   -9.8746 N   0  0  0  0  0  0  0  0  0  0  0  0
   18.3716  -24.2242  -11.0341 C   0  0  0  0  0  0  0  0  0  0  0  0
   17.4783  -25.1142  -10.8777 N   0  0  0  0  0  0  0  0  0  0  0  0
   18.9371  -23.9818  -12.2941 N   0  0  0  0  0  0  0  0  0  0  0  0
   20.2100  -23.2446  -12.4093 C   0  0  0  0  0  0  0  0  0  0  0  0
   19.8645  -21.8099  -12.5842 C   0  0  0  0  0  0  0  0  0  0  0  0
   20.9859  -20.8564  -12.7691 C   0  0  0  0  0  0  0  0  0  0  0  0
   22.1092  -20.9781  -11.7855 C   0  0  2  0  0  0  0  0  0  0  0  0
   21.7947  -20.3863  -10.4919 N   0  0  0  0  0  0  0  0  0  0  0  0
   23.3581  -20.3387  -12.3243 C   0  0  0  0  0  0  0  0  0  0  0  0
   23.5370  -19.1053  -12.1805 O   0  0  0  0  0  0  0  0  0  0  0  0
   17.0867  -25.7349  -11.6054 O   0  0  0  0  0  0  0  0  0  0  0  0
   26.5337  -22.5224  -14.0610 C   0  0  0  0  0  0  0  0  0  0  0  0
   26.7331  -21.3195  -13.4300 C   0  0  1  0  0  0  0  0  0  0  0  0
   25.5049  -20.3991  -13.5332 N   0  0  0  0  0  0  0  0  0  0  0  0
   24.3508  -21.0910  -12.9959 C   0  0  0  0  0  0  0  0  0  0  0  0
   25.3297  -20.1146  -14.9800 O   0  0  0  0  0  0  0  0  0  0  0  0
   24.4708  -20.7854  -15.6045 C   0  0  0  0  0  0  0  0  0  0  0  0
   23.6248  -17.7246  -17.0406 C   0  0  2  0  0  0  0  0  0  0  0  0
   25.0566  -17.6904  -17.4585 O   0  0  0  0  0  0  0  0  0  0  0  0
   25.6179  -16.6019  -16.7570 C   0  0  2  0  0  0  0  0  0  0  0  0
   25.8515  -18.8853  -17.1144 N   0  0  0  0  0  0  0  0  0  0  0  0
   26.0361  -19.1605  -15.7231 C   0  0  0  0  0  0  0  0  0  0  0  0
   27.1643  -18.8573  -17.7906 O   0  0  0  0  0  0  0  0  0  0  0  0
   27.3336  -18.7883  -19.1668 O   0  0  0  0  0  0  0  0  0  0  0  0
  2  1  1  0
  3  2  2  0
  4  2  1  0
  5  4  1  0
  6  5  1  0
  6  7  1  0
  7  8  1  0
  8 10  1  0
  8  9  1  1
 10 15  1  0
 11 10  2  0
 13 12  1  0
 14 13  1  1
 15 14  1  0
 16 17  2  0
 16 14  1  0
 19 18  1  6
 19 21  1  0
 20 19  1  0
 21 22  1  6
 22 16  1  0
 23 21  1  0
 23 24  1  0
 25 23  2  0
M  END
$$$$
