RST.pdb
     RDKit          3D

 25 24  0  0  1  0  0  0  0  0999 V2000
   28.2186  -30.7375  -14.6601 N   0  0  0  0  0  0  0  0  0  0  0  0
   27.1481  -30.5793  -15.5969 C   0  0  0  0  0  0  0  0  0  0  0  0
   26.2516  -31.4795  -15.6130 N   0  0  0  0  0  0  0  0  0  0  0  0
   27.0838  -29.4800  -16.4649 N   0  0  0  0  0  0  0  0  0  0  0  0
   27.9992  -28.3365  -16.2871 C   0  0  0  0  0  0  0  0  0  0  0  0
   28.1341  -27.6803  -17.6135 C   0  0  0  0  0  0  0  0  0  0  0  0
   27.6152  -26.2966  -17.7454 C   0  0  0  0  0  0  0  0  0  0  0  0
   26.2224  -26.0758  -17.2401 C   0  0  2  0  0  0  0  0  0  0  0  0
   25.2293  -26.8659  -17.9557 N   0  0  0  0  0  0  0  0  0  0  0  0
   25.8487  -24.6230  -17.3317 C   0  0  0  0  0  0  0  0  0  0  0  0
   25.2846  -24.1898  -18.3653 O   0  0  0  0  0  0  0  0  0  0  0  0
   25.4860  -31.5805  -16.2998 O   0  0  0  0  0  0  0  0  0  0  0  0
   26.6390  -21.7811  -14.2676 C   0  0  0  0  0  0  0  0  0  0  0  0
   25.4884  -21.7346  -15.0151 C   0  0  1  0  0  0  0  0  0  0  0  0
   25.6809  -22.3411  -16.4156 N   0  0  0  0  0  0  0  0  0  0  0  0
   26.1148  -23.7166  -16.2780 C   0  0  0  0  0  0  0  0  0  0  0  0
   26.7242  -21.5168  -17.0764 O   0  0  0  0  0  0  0  0  0  0  0  0
   27.9228  -21.7518  -16.7834 C   0  0  0  0  0  0  0  0  0  0  0  0
   27.5004  -20.7133  -20.9370 C   0  0  2  0  0  0  0  0  0  0  0  0
   27.3800  -19.4904  -20.0909 O   0  0  0  0  0  0  0  0  0  0  0  0
   26.0736  -19.0099  -20.3240 C   0  0  2  0  0  0  0  0  0  0  0  0
   27.5113  -19.7041  -18.6365 N   0  0  0  0  0  0  0  0  0  0  0  0
   26.4991  -20.4927  -18.0048 C   0  0  0  0  0  0  0  0  0  0  0  0
   27.6501  -18.4170  -17.9254 O   0  0  0  0  0  0  0  0  0  0  0  0
   28.6717  -17.5048  -18.1521 O   0  0  0  0  0  0  0  0  0  0  0  0
  2  1  1  0
  3  2  2  0
  4  2  1  0
  5  4  1  0
  6  5  1  0
  6  7  1  0
  7  8  1  0
  8 10  1  0
  8  9  1  6
 10 15  1  0
 11 10  2  0
 13 12  1  0
 14 13  1  6
 15 14  1  0
 16 17  2  0
 16 14  1  0
 19 18  1  6
 19 21  1  0
 20 19  1  0
 21 22  1  1
 22 16  1  0
 23 21  1  0
 23 24  1  0
 25 23  2  0
M  END
$$$$
