RST.pdb
     RDKit          3D

 25 24  0  0  1  0  0  0  0  0999 V2000
   25.9764  -25.6870  -16.4213 N   0  0  0  0  0  0  0  0  0  0  0  0
   25.0052  -24.7515  -15.9417 C   0  0  0  0  0  0  0  0  0  0  0  0
   24.0062  -25.2213  -15.3126 N   0  0  0  0  0  0  0  0  0  0  0  0
   25.1422  -23.3721  -16.1531 N   0  0  0  0  0  0  0  0  0  0  0  0
   25.8578  -22.8686  -17.3412 C   0  0  0  0  0  0  0  0  0  0  0  0
   26.9858  -23.8024  -17.5945 C   0  0  0  0  0  0  0  0  0  0  0  0
   28.3569  -23.2361  -17.5749 C   0  0  0  0  0  0  0  0  0  0  0  0
   28.4469  -21.7498  -17.7389 C   0  0  2  0  0  0  0  0  0  0  0  0
   29.6391  -21.3322  -18.4648 N   0  0  0  0  0  0  0  0  0  0  0  0
   28.4254  -21.0659  -16.4008 C   0  0  0  0  0  0  0  0  0  0  0  0
   29.4849  -20.9660  -15.7363 O   0  0  0  0  0  0  0  0  0  0  0  0
   23.2686  -24.6831  -14.8287 O   0  0  0  0  0  0  0  0  0  0  0  0
   25.6035  -18.3636  -15.2469 C   0  0  0  0  0  0  0  0  0  0  0  0
   26.8018  -18.4952  -14.5898 C   0  0  1  0  0  0  0  0  0  0  0  0
   27.2711  -19.9587  -14.5257 N   0  0  0  0  0  0  0  0  0  0  0  0
   27.2356  -20.5241  -15.8593 C   0  0  0  0  0  0  0  0  0  0  0  0
   26.3154  -20.6538  -13.6266 O   0  0  0  0  0  0  0  0  0  0  0  0
   25.3531  -21.2609  -14.1588 C   0  0  0  0  0  0  0  0  0  0  0  0
   25.7740  -19.9791   -9.2396 C   0  0  2  0  0  0  0  0  0  0  0  0
   25.7113  -21.3037   -9.9233 O   0  0  0  0  0  0  0  0  0  0  0  0
   24.6601  -21.9966   -9.2855 C   0  0  1  0  0  0  0  0  0  0  0  0
   25.3948  -21.2647  -11.3642 N   0  0  0  0  0  0  0  0  0  0  0  0
   26.3841  -20.6991  -12.2286 C   0  0  0  0  0  0  0  0  0  0  0  0
   24.0959  -20.6025  -11.6005 O   0  0  0  0  0  0  0  0  0  0  0  0
   23.9343  -19.4413  -12.3441 O   0  0  0  0  0  0  0  0  0  0  0  0
  2  1  1  0
  3  2  2  0
  4  2  1  0
  5  4  1  0
  6  5  1  0
  6  7  1  0
  7  8  1  0
  8 10  1  0
  8  9  1  1
 10 15  1  0
 11 10  2  0
 13 12  1  0
 14 13  1  6
 15 14  1  0
 16 17  2  0
 16 14  1  0
 19 18  1  1
 19 21  1  0
 20 19  1  0
 21 22  1  1
 22 16  1  0
 23 21  1  0
 23 24  1  0
 25 23  2  0
M  END
$$$$
