RST.pdb
     RDKit          3D

 25 24  0  0  1  0  0  0  0  0999 V2000
   11.6043  -10.1161  -14.7905 N   0  0  0  0  0  0  0  0  0  0  0  0
   11.9684  -11.1010  -15.7631 C   0  0  0  0  0  0  0  0  0  0  0  0
   11.1241  -12.0192  -16.0051 N   0  0  0  0  0  0  0  0  0  0  0  0
   13.2034  -11.0623  -16.4258 N   0  0  0  0  0  0  0  0  0  0  0  0
   14.3454  -10.3422  -15.8304 C   0  0  0  0  0  0  0  0  0  0  0  0
   15.4665  -10.4310  -16.8018 C   0  0  0  0  0  0  0  0  0  0  0  0
   16.7418   -9.7685  -16.4331 C   0  0  0  0  0  0  0  0  0  0  0  0
   17.8954  -10.6859  -16.1663 C   0  0  2  0  0  0  0  0  0  0  0  0
   17.4845  -11.9562  -15.5829 N   0  0  0  0  0  0  0  0  0  0  0  0
   18.8948  -10.0307  -15.2549 C   0  0  0  0  0  0  0  0  0  0  0  0
   18.8139  -10.2053  -14.0150 O   0  0  0  0  0  0  0  0  0  0  0  0
   11.2286  -12.7966  -16.6780 O   0  0  0  0  0  0  0  0  0  0  0  0
   22.6694   -9.4527  -16.2881 C   0  0  0  0  0  0  0  0  0  0  0  0
   22.2331   -9.4420  -14.9864 C   0  0  1  0  0  0  0  0  0  0  0  0
   20.9086   -8.6767  -14.8242 N   0  0  0  0  0  0  0  0  0  0  0  0
   19.9367   -9.2140  -15.7548 C   0  0  0  0  0  0  0  0  0  0  0  0
   21.2173   -7.2581  -15.1359 O   0  0  0  0  0  0  0  0  0  0  0  0
   21.4999   -6.9726  -16.3260 C   0  0  0  0  0  0  0  0  0  0  0  0
   19.2753   -4.3694  -15.7075 C   0  0  2  0  0  0  0  0  0  0  0  0
   20.2666   -3.9570  -14.6716 O   0  0  0  0  0  0  0  0  0  0  0  0
   19.5684   -4.0269  -13.4470 C   0  0  2  0  0  0  0  0  0  0  0  0
   21.4552   -4.8225  -14.5440 N   0  0  0  0  0  0  0  0  0  0  0  0
   21.2231   -6.1966  -14.2223 C   0  0  0  0  0  0  0  0  0  0  0  0
   22.4245   -4.2487  -13.5886 O   0  0  0  0  0  0  0  0  0  0  0  0
   23.0300   -3.0086  -13.7391 O   0  0  0  0  0  0  0  0  0  0  0  0
  2  1  1  0
  3  2  2  0
  4  2  1  0
  5  4  1  0
  6  5  1  0
  6  7  1  0
  7  8  1  0
  8 10  1  0
  8  9  1  1
 10 15  1  0
 11 10  2  0
 13 12  1  0
 14 13  1  1
 15 14  1  0
 16 17  2  0
 16 14  1  0
 19 18  1  6
 19 21  1  0
 20 19  1  0
 21 22  1  6
 22 16  1  0
 23 21  1  0
 23 24  1  0
 25 23  2  0
M  END
$$$$
