RST.pdb
     RDKit          3D

 25 24  0  0  1  0  0  0  0  0999 V2000
   19.9591  -22.8837  -10.7071 N   0  0  0  0  0  0  0  0  0  0  0  0
   18.5559  -23.1523  -10.7932 C   0  0  0  0  0  0  0  0  0  0  0  0
   17.9499  -22.7510  -11.8353 N   0  0  0  0  0  0  0  0  0  0  0  0
   17.8704  -23.8292   -9.7744 N   0  0  0  0  0  0  0  0  0  0  0  0
   18.6051  -24.3689   -8.6142 C   0  0  0  0  0  0  0  0  0  0  0  0
   17.8014  -25.4995   -8.0813 C   0  0  0  0  0  0  0  0  0  0  0  0
   17.2530  -25.3591   -6.7099 C   0  0  0  0  0  0  0  0  0  0  0  0
   17.6279  -26.4442   -5.7476 C   0  0  2  0  0  0  0  0  0  0  0  0
   17.6350  -27.7660   -6.3605 N   0  0  0  0  0  0  0  0  0  0  0  0
   16.6928  -26.4566   -4.5711 C   0  0  0  0  0  0  0  0  0  0  0  0
   15.5631  -26.9913   -4.6802 O   0  0  0  0  0  0  0  0  0  0  0  0
   16.9545  -22.8994  -12.0701 O   0  0  0  0  0  0  0  0  0  0  0  0
   18.0167  -25.4637   -0.8962 C   0  0  0  0  0  0  0  0  0  0  0  0
   16.7730  -26.0446   -0.9185 C   0  0  1  0  0  0  0  0  0  0  0  0
   16.0628  -25.8446   -2.2683 N   0  0  0  0  0  0  0  0  0  0  0  0
   17.0489  -25.8788   -3.3294 C   0  0  0  0  0  0  0  0  0  0  0  0
   15.4090  -24.5136   -2.1911 O   0  0  0  0  0  0  0  0  0  0  0  0
   16.1125  -23.5047   -2.4460 C   0  0  0  0  0  0  0  0  0  0  0  0
   12.2667  -23.0660   -4.0557 C   0  0  2  0  0  0  0  0  0  0  0  0
   12.1715  -22.8559   -2.5818 O   0  0  0  0  0  0  0  0  0  0  0  0
   11.3072  -23.8722   -2.1212 C   0  0  2  0  0  0  0  0  0  0  0  0
   13.4369  -22.9897   -1.8341 N   0  0  0  0  0  0  0  0  0  0  0  0
   14.0701  -24.2719   -1.8590 C   0  0  0  0  0  0  0  0  0  0  0  0
   13.2710  -22.5481   -0.4345 O   0  0  0  0  0  0  0  0  0  0  0  0
   12.8294  -21.2863   -0.0600 O   0  0  0  0  0  0  0  0  0  0  0  0
  2  1  1  0
  3  2  2  0
  4  2  1  0
  5  4  1  0
  6  5  1  0
  6  7  1  0
  7  8  1  0
  8 10  1  0
  8  9  1  6
 10 15  1  0
 11 10  2  0
 13 12  1  0
 14 13  1  6
 15 14  1  0
 16 17  2  0
 16 14  1  0
 19 18  1  6
 19 21  1  0
 20 19  1  0
 21 22  1  1
 22 16  1  0
 23 21  1  0
 23 24  1  0
 25 23  2  0
M  END
$$$$
