RST.pdb
     RDKit          3D

 25 24  0  0  1  0  0  0  0  0999 V2000
   26.9927  -20.8083  -12.2710 N   0  0  0  0  0  0  0  0  0  0  0  0
   26.1366  -21.9346  -12.4879 C   0  0  0  0  0  0  0  0  0  0  0  0
   26.2958  -22.5869  -13.5667 N   0  0  0  0  0  0  0  0  0  0  0  0
   25.1598  -22.3096  -11.5545 N   0  0  0  0  0  0  0  0  0  0  0  0
   23.7411  -21.9777  -11.7875 C   0  0  0  0  0  0  0  0  0  0  0  0
   23.5992  -20.5136  -11.5765 C   0  0  0  0  0  0  0  0  0  0  0  0
   22.8584  -19.7451  -12.6069 C   0  0  0  0  0  0  0  0  0  0  0  0
   22.5760  -20.4770  -13.8831 C   0  0  2  0  0  0  0  0  0  0  0  0
   23.7769  -21.0303  -14.4952 N   0  0  0  0  0  0  0  0  0  0  0  0
   21.8951  -19.5743  -14.8732 C   0  0  0  0  0  0  0  0  0  0  0  0
   21.3250  -18.5305  -14.4735 O   0  0  0  0  0  0  0  0  0  0  0  0
   25.8379  -23.4758  -13.8276 O   0  0  0  0  0  0  0  0  0  0  0  0
   23.2673  -18.9610  -18.3121 C   0  0  0  0  0  0  0  0  0  0  0  0
   22.1556  -18.2109  -18.0181 C   0  0  1  0  0  0  0  0  0  0  0  0
   21.1494  -18.9814  -17.1462 N   0  0  0  0  0  0  0  0  0  0  0  0
   21.8758  -19.8659  -16.2578 C   0  0  0  0  0  0  0  0  0  0  0  0
   20.3005  -19.7527  -18.0891 O   0  0  0  0  0  0  0  0  0  0  0  0
   20.8147  -20.7521  -18.6500 C   0  0  0  0  0  0  0  0  0  0  0  0
   16.4647  -21.2411  -17.7980 C   0  0  2  0  0  0  0  0  0  0  0  0
   16.7391  -20.3857  -18.9891 O   0  0  0  0  0  0  0  0  0  0  0  0
   16.2364  -19.1114  -18.6494 C   0  0  2  0  0  0  0  0  0  0  0  0
   18.1627  -20.2125  -19.3373 N   0  0  0  0  0  0  0  0  0  0  0  0
   18.9681  -19.4715  -18.4165 C   0  0  0  0  0  0  0  0  0  0  0  0
   18.3081  -19.6408  -20.6914 O   0  0  0  0  0  0  0  0  0  0  0  0
   17.8211  -20.2356  -21.8475 O   0  0  0  0  0  0  0  0  0  0  0  0
  2  1  1  0
  3  2  2  0
  4  2  1  0
  5  4  1  0
  6  5  1  0
  6  7  1  0
  7  8  1  0
  8 10  1  0
  8  9  1  6
 10 15  1  0
 11 10  2  0
 13 12  1  0
 14 13  1  1
 15 14  1  0
 16 17  2  0
 16 14  1  0
 19 18  1  6
 19 21  1  0
 20 19  1  0
 21 22  1  6
 22 16  1  0
 23 21  1  0
 23 24  1  0
 25 23  2  0
M  END
$$$$
