NNK.pdb
     RDKit          3D

 26 25  0  0  1  0  0  0  0  0999 V2000
   14.6068  -14.4120  -11.3243 N   0  0  0  0  0  0  0  0  0  0  0  0
   14.1688  -13.2583  -10.6246 C   0  0  0  0  0  0  0  0  0  0  0  0
   13.4054  -13.3814   -9.6181 O   0  0  0  0  0  0  0  0  0  0  0  0
   14.6070  -11.9275  -11.0728 C   0  0  0  0  0  0  0  0  0  0  0  0
   14.0142  -10.8267  -10.2236 C   0  0  2  0  0  0  0  0  0  0  0  0
   12.6091  -10.7534  -10.6382 N   0  0  0  0  0  0  0  0  0  0  0  0
   14.6958   -9.5451  -10.6405 C   0  0  0  0  0  0  0  0  0  0  0  0
   14.4363   -8.9564  -11.7101 O   0  0  0  0  0  0  0  0  0  0  0  0
   17.5596   -5.3902  -10.6773 N   0  0  0  0  0  0  0  0  0  0  0  0
   17.3019   -5.6214   -9.3067 C   0  0  0  0  0  0  0  0  0  0  0  0
   17.6366   -4.7644   -8.4749 O   0  0  0  0  0  0  0  0  0  0  0  0
   16.6453   -6.8634   -8.8909 C   0  0  0  0  0  0  0  0  0  0  0  0
   16.3873   -7.7247  -10.1005 C   0  0  2  0  0  0  0  0  0  0  0  0
   15.6931   -8.9548   -9.7841 N   0  0  0  0  0  0  0  0  0  0  0  0
   17.6640   -8.0173  -10.8269 C   0  0  0  0  0  0  0  0  0  0  0  0
   18.5156   -8.7536  -10.2970 O   0  0  0  0  0  0  0  0  0  0  0  0
   17.8785   -7.4496  -12.1032 N   0  0  0  0  0  0  0  0  0  0  0  0
   19.0899   -7.8014  -12.8543 C   0  0  1  0  0  0  0  0  0  0  0  0
   18.6970   -8.4888  -14.1320 C   0  0  0  0  0  0  0  0  0  0  0  0
   19.9066   -8.8423  -14.9404 C   0  0  0  0  0  0  0  0  0  0  0  0
   19.5266   -9.4063  -16.2928 C   0  0  0  0  0  0  0  0  0  0  0  0
   20.8460   -9.7036  -16.9996 C   0  0  0  0  0  0  0  0  0  0  0  0
   20.6590  -10.3969  -18.2408 N   0  0  0  0  0  0  0  0  0  0  0  0
   19.8211   -6.5502  -13.1660 C   0  0  0  0  0  0  0  0  0  0  0  0
   19.0768   -5.3518  -13.2665 O   0  0  0  0  0  0  0  0  0  0  0  0
   21.0542   -6.4609  -13.3503 O   0  0  0  0  0  0  0  0  0  0  0  0
  2  1  1  0
  2  3  2  0
  4  2  1  0
  5  4  1  0
  5  6  1  6
  7  5  1  0
  8  7  2  0
  9 10  1  0
 10 12  1  0
 11 10  2  0
 13 12  1  1
 13 14  1  0
 14  7  1  0
 15 13  1  0
 15 16  2  0
 17 18  1  0
 17 15  1  0
 18 19  1  6
 19 20  1  0
 21 20  1  0
 22 23  1  0
 22 21  1  0
 24 18  1  0
 25 24  1  0
 26 24  2  0
M  END
$$$$
