NNK.pdb
     RDKit          3D

 26 25  0  0  1  0  0  0  0  0999 V2000
   18.6830  -13.9332  -15.6731 N   0  0  0  0  0  0  0  0  0  0  0  0
   18.2763  -12.8073  -16.4341 C   0  0  0  0  0  0  0  0  0  0  0  0
   17.7841  -12.9718  -17.5924 O   0  0  0  0  0  0  0  0  0  0  0  0
   18.4278  -11.4570  -15.8706 C   0  0  0  0  0  0  0  0  0  0  0  0
   19.0147  -10.4927  -16.8756 C   0  0  2  0  0  0  0  0  0  0  0  0
   20.3969  -10.9465  -17.0627 N   0  0  0  0  0  0  0  0  0  0  0  0
   19.0497   -9.1394  -16.2060 C   0  0  0  0  0  0  0  0  0  0  0  0
   18.0191   -8.5351  -15.8449 O   0  0  0  0  0  0  0  0  0  0  0  0
   20.6508   -4.9898  -13.8219 N   0  0  0  0  0  0  0  0  0  0  0  0
   21.7941   -5.8212  -13.8215 C   0  0  0  0  0  0  0  0  0  0  0  0
   22.7876   -5.4838  -13.1602 O   0  0  0  0  0  0  0  0  0  0  0  0
   21.7881   -7.0640  -14.5975 C   0  0  0  0  0  0  0  0  0  0  0  0
   20.4459   -7.2355  -15.2612 C   0  0  2  0  0  0  0  0  0  0  0  0
   20.3155   -8.4957  -15.9613 N   0  0  0  0  0  0  0  0  0  0  0  0
   20.1598   -6.0923  -16.1855 C   0  0  0  0  0  0  0  0  0  0  0  0
   20.7189   -6.0476  -17.2962 O   0  0  0  0  0  0  0  0  0  0  0  0
   19.2587   -5.0829  -15.7778 N   0  0  0  0  0  0  0  0  0  0  0  0
   18.9804   -3.9579  -16.6790 C   0  0  1  0  0  0  0  0  0  0  0  0
   17.4932   -3.8083  -16.8383 C   0  0  0  0  0  0  0  0  0  0  0  0
   17.0914   -2.3682  -16.7612 C   0  0  0  0  0  0  0  0  0  0  0  0
   15.9521   -2.1599  -15.7864 C   0  0  0  0  0  0  0  0  0  0  0  0
   15.4583   -0.7365  -16.0295 C   0  0  0  0  0  0  0  0  0  0  0  0
   14.3062   -0.4136  -15.2393 N   0  0  0  0  0  0  0  0  0  0  0  0
   19.5428   -2.7281  -16.0718 C   0  0  0  0  0  0  0  0  0  0  0  0
   19.6407   -1.5716  -16.8800 O   0  0  0  0  0  0  0  0  0  0  0  0
   19.9433   -2.6229  -14.8924 O   0  0  0  0  0  0  0  0  0  0  0  0
  2  1  1  0
  2  3  2  0
  4  2  1  0
  5  4  1  0
  5  6  1  1
  7  5  1  0
  8  7  2  0
  9 10  1  0
 10 12  1  0
 11 10  2  0
 13 12  1  6
 13 14  1  0
 14  7  1  0
 15 13  1  0
 15 16  2  0
 17 18  1  0
 17 15  1  0
 18 19  1  1
 19 20  1  0
 21 20  1  0
 22 23  1  0
 22 21  1  0
 24 18  1  0
 25 24  1  0
 26 24  2  0
M  END
$$$$
