NNK.pdb
     RDKit          3D

 26 25  0  0  1  0  0  0  0  0999 V2000
   28.5070  -13.4154  -15.0335 N   0  0  0  0  0  0  0  0  0  0  0  0
   27.4375  -13.1777  -15.9346 C   0  0  0  0  0  0  0  0  0  0  0  0
   26.8702  -14.1543  -16.5138 O   0  0  0  0  0  0  0  0  0  0  0  0
   26.9942  -11.7980  -16.1876 C   0  0  0  0  0  0  0  0  0  0  0  0
   26.0996  -11.7105  -17.4026 C   0  0  2  0  0  0  0  0  0  0  0  0
   26.9647  -12.0788  -18.5284 N   0  0  0  0  0  0  0  0  0  0  0  0
   25.7205  -10.2566  -17.5558 C   0  0  0  0  0  0  0  0  0  0  0  0
   25.1143   -9.6176  -16.6715 O   0  0  0  0  0  0  0  0  0  0  0  0
   28.8938   -7.3309  -20.8038 N   0  0  0  0  0  0  0  0  0  0  0  0
   27.9108   -7.3929  -19.7898 C   0  0  0  0  0  0  0  0  0  0  0  0
   28.2588   -7.3006  -18.6029 O   0  0  0  0  0  0  0  0  0  0  0  0
   26.5019   -7.5632  -20.1539 C   0  0  0  0  0  0  0  0  0  0  0  0
   25.7504   -8.1571  -18.9903 C   0  0  2  0  0  0  0  0  0  0  0  0
   26.0618   -9.5528  -18.7659 N   0  0  0  0  0  0  0  0  0  0  0  0
   24.2739   -7.9722  -19.1608 C   0  0  0  0  0  0  0  0  0  0  0  0
   23.6935   -8.5219  -20.1142 O   0  0  0  0  0  0  0  0  0  0  0  0
   23.5659   -7.1743  -18.2338 N   0  0  0  0  0  0  0  0  0  0  0  0
   22.1162   -7.0028  -18.3895 C   0  0  1  0  0  0  0  0  0  0  0  0
   21.4060   -8.0989  -17.6454 C   0  0  0  0  0  0  0  0  0  0  0  0
   19.9273   -8.0208  -17.8656 C   0  0  0  0  0  0  0  0  0  0  0  0
   19.2005   -9.1513  -17.1689 C   0  0  0  0  0  0  0  0  0  0  0  0
   17.7226   -8.9507  -17.4921 C   0  0  0  0  0  0  0  0  0  0  0  0
   16.9055  -10.0266  -17.0115 N   0  0  0  0  0  0  0  0  0  0  0  0
   21.7413   -5.6879  -17.8171 C   0  0  0  0  0  0  0  0  0  0  0  0
   20.5667   -5.0634  -18.2972 O   0  0  0  0  0  0  0  0  0  0  0  0
   22.3814   -5.0748  -16.9356 O   0  0  0  0  0  0  0  0  0  0  0  0
  2  1  1  0
  2  3  2  0
  4  2  1  0
  5  4  1  0
  5  6  1  6
  7  5  1  0
  8  7  2  0
  9 10  1  0
 10 12  1  0
 11 10  2  0
 13 12  1  6
 13 14  1  0
 14  7  1  0
 15 13  1  0
 15 16  2  0
 17 18  1  0
 17 15  1  0
 18 19  1  1
 19 20  1  0
 21 20  1  0
 22 23  1  0
 22 21  1  0
 24 18  1  0
 25 24  1  0
 26 24  2  0
M  END
$$$$
