NNK.pdb
     RDKit          3D

 26 25  0  0  1  0  0  0  0  0999 V2000
   29.4189  -20.9233  -18.1628 N   0  0  0  0  0  0  0  0  0  0  0  0
   28.0650  -20.9872  -18.5814 C   0  0  0  0  0  0  0  0  0  0  0  0
   27.7777  -20.8702  -19.8121 O   0  0  0  0  0  0  0  0  0  0  0  0
   27.0050  -21.1913  -17.5820 C   0  0  0  0  0  0  0  0  0  0  0  0
   27.5479  -21.1484  -16.1722 C   0  0  2  0  0  0  0  0  0  0  0  0
   28.3982  -22.3387  -16.0650 N   0  0  0  0  0  0  0  0  0  0  0  0
   26.3665  -21.3287  -15.2488 C   0  0  0  0  0  0  0  0  0  0  0  0
   25.3080  -21.8869  -15.6037 O   0  0  0  0  0  0  0  0  0  0  0  0
   25.0262  -21.4827   -9.3459 N   0  0  0  0  0  0  0  0  0  0  0  0
   24.6926  -20.9176  -10.5981 C   0  0  0  0  0  0  0  0  0  0  0  0
   23.4991  -20.7297  -10.8787 O   0  0  0  0  0  0  0  0  0  0  0  0
   25.7564  -20.5629  -11.5410 C   0  0  0  0  0  0  0  0  0  0  0  0
   25.3832  -21.0384  -12.9216 C   0  0  2  0  0  0  0  0  0  0  0  0
   26.4383  -20.8445  -13.8935 N   0  0  0  0  0  0  0  0  0  0  0  0
   24.1186  -20.3837  -13.3857 C   0  0  0  0  0  0  0  0  0  0  0  0
   24.1021  -19.1558  -13.5860 O   0  0  0  0  0  0  0  0  0  0  0  0
   22.9648  -21.1744  -13.5872 N   0  0  0  0  0  0  0  0  0  0  0  0
   21.7046  -20.5264  -13.9710 C   0  0  1  0  0  0  0  0  0  0  0  0
   21.3529  -20.9234  -15.3774 C   0  0  0  0  0  0  0  0  0  0  0  0
   20.0337  -20.3417  -15.7810 C   0  0  0  0  0  0  0  0  0  0  0  0
   20.1952  -18.9639  -16.3869 C   0  0  0  0  0  0  0  0  0  0  0  0
   18.7815  -18.4897  -16.7119 C   0  0  0  0  0  0  0  0  0  0  0  0
   18.7561  -17.1480  -17.2175 N   0  0  0  0  0  0  0  0  0  0  0  0
   20.6451  -20.9883  -13.0429 C   0  0  0  0  0  0  0  0  0  0  0  0
   19.5622  -20.1167  -12.7824 O   0  0  0  0  0  0  0  0  0  0  0  0
   20.6251  -22.0954  -12.4629 O   0  0  0  0  0  0  0  0  0  0  0  0
  2  1  1  0
  2  3  2  0
  4  2  1  0
  5  4  1  0
  5  6  1  6
  7  5  1  0
  8  7  2  0
  9 10  1  0
 10 12  1  0
 11 10  2  0
 13 12  1  1
 13 14  1  0
 14  7  1  0
 15 13  1  0
 15 16  2  0
 17 18  1  0
 17 15  1  0
 18 19  1  6
 19 20  1  0
 21 20  1  0
 22 23  1  0
 22 21  1  0
 24 18  1  0
 25 24  1  0
 26 24  2  0
M  END
$$$$
