GIV.pdb
     RDKit          3D

 20 19  0  0  1  0  0  0  0  0999 V2000
   27.5470  -24.0703  -16.4110 N   0  0  0  0  0  0  0  0  0  0  0  0
   27.1996  -22.7136  -16.0507 C   0  0  0  0  0  0  0  0  0  0  0  0
   26.2563  -22.7219  -14.9428 C   0  0  0  0  0  0  0  0  0  0  0  0
   25.5206  -23.7199  -14.7543 O   0  0  0  0  0  0  0  0  0  0  0  0
   25.3233  -20.8800   -9.2023 C   0  0  0  0  0  0  0  0  0  0  0  0
   24.6548  -21.2971  -10.4914 C   0  0  0  0  0  0  0  0  0  0  0  0
   25.6190  -21.2039  -11.6191 C   0  0  2  0  0  0  0  0  0  0  0  0
   26.3226  -19.8625  -11.6709 C   0  0  0  0  0  0  0  0  0  0  0  0
   25.1407  -21.6154  -12.9617 C   0  0  2  0  0  0  0  0  0  0  0  0
   26.1052  -21.6254  -14.0174 N   0  0  0  0  0  0  0  0  0  0  0  0
   23.8857  -20.8879  -13.3646 C   0  0  0  0  0  0  0  0  0  0  0  0
   23.8911  -19.6530  -13.5928 O   0  0  0  0  0  0  0  0  0  0  0  0
   21.9801  -21.6801  -16.2847 C   0  0  0  0  0  0  0  0  0  0  0  0
   20.8947  -21.6426  -15.2273 C   0  0  2  0  0  0  0  0  0  0  0  0
   19.7036  -20.9270  -15.8192 C   0  0  0  0  0  0  0  0  0  0  0  0
   21.4547  -20.9168  -14.0278 C   0  0  2  0  0  0  0  0  0  0  0  0
   22.6380  -21.5731  -13.5037 N   0  0  0  0  0  0  0  0  0  0  0  0
   20.4773  -20.7816  -12.9373 C   0  0  0  0  0  0  0  0  0  0  0  0
   19.7619  -19.6160  -12.6926 O   0  0  0  0  0  0  0  0  0  0  0  0
   20.2511  -21.7454  -12.1684 O   0  0  0  0  0  0  0  0  0  0  0  0
  2  1  1  0
  3  2  1  0
  4  3  2  0
  5  6  1  0
  7  8  1  6
  7  6  1  0
  9  7  1  0
  9 10  1  6
 10  3  1  0
 11 17  1  0
 11  9  1  0
 12 11  2  0
 14 15  1  6
 14 13  1  0
 16 17  1  1
 16 14  1  0
 18 19  1  0
 18 16  1  0
 20 18  2  0
M  END
$$$$
