GIV.pdb
     RDKit          3D

 20 19  0  0  1  0  0  0  0  0999 V2000
   31.4666  -22.4285  -10.9295 N   0  0  0  0  0  0  0  0  0  0  0  0
   30.6988  -21.2038  -10.9718 C   0  0  0  0  0  0  0  0  0  0  0  0
   29.3357  -21.4588  -10.5312 C   0  0  0  0  0  0  0  0  0  0  0  0
   28.9410  -22.6378  -10.3669 O   0  0  0  0  0  0  0  0  0  0  0  0
   27.5774  -19.4049   -6.1709 C   0  0  0  0  0  0  0  0  0  0  0  0
   27.8074  -20.3530   -7.3245 C   0  0  0  0  0  0  0  0  0  0  0  0
   26.7836  -20.1305   -8.3792 C   0  0  2  0  0  0  0  0  0  0  0  0
   25.3890  -20.5096   -7.9225 C   0  0  0  0  0  0  0  0  0  0  0  0
   27.0720  -20.6630   -9.7334 C   0  0  2  0  0  0  0  0  0  0  0  0
   28.3773  -20.4144  -10.2620 N   0  0  0  0  0  0  0  0  0  0  0  0
   25.9960  -20.3070  -10.7243 C   0  0  0  0  0  0  0  0  0  0  0  0
   25.7922  -19.1165  -11.0680 O   0  0  0  0  0  0  0  0  0  0  0  0
   25.8270  -22.0113  -13.9979 C   0  0  0  0  0  0  0  0  0  0  0  0
   24.3861  -22.0241  -13.5273 C   0  0  2  0  0  0  0  0  0  0  0  0
   23.5151  -21.6740  -14.7105 C   0  0  0  0  0  0  0  0  0  0  0  0
   24.2638  -21.0127  -12.4131 C   0  0  2  0  0  0  0  0  0  0  0  0
   25.1632  -21.3094  -11.3136 N   0  0  0  0  0  0  0  0  0  0  0  0
   22.8963  -20.9152  -11.8810 C   0  0  0  0  0  0  0  0  0  0  0  0
   21.9371  -20.0502  -12.3930 O   0  0  0  0  0  0  0  0  0  0  0  0
   22.5407  -21.6330  -10.9168 O   0  0  0  0  0  0  0  0  0  0  0  0
  2  1  1  0
  3  2  1  0
  4  3  2  0
  5  6  1  0
  7  8  1  1
  7  6  1  0
  9  7  1  0
  9 10  1  6
 10  3  1  0
 11 17  1  0
 11  9  1  0
 12 11  2  0
 14 15  1  6
 14 13  1  0
 16 17  1  1
 16 14  1  0
 18 19  1  0
 18 16  1  0
 20 18  2  0
M  END
$$$$
