GIV.pdb
     RDKit          3D

 20 19  0  0  1  0  0  0  0  0999 V2000
   20.4305  -22.5344   -6.6690 N   0  0  0  0  0  0  0  0  0  0  0  0
   21.8382  -22.7838   -6.8869 C   0  0  0  0  0  0  0  0  0  0  0  0
   22.4042  -21.7323   -7.7184 C   0  0  0  0  0  0  0  0  0  0  0  0
   21.6581  -20.8507   -8.2071 O   0  0  0  0  0  0  0  0  0  0  0  0
   27.3569  -19.3041   -6.8778 C   0  0  0  0  0  0  0  0  0  0  0  0
   25.9211  -19.7271   -7.0831 C   0  0  0  0  0  0  0  0  0  0  0  0
   25.6947  -20.0884   -8.5073 C   0  0  2  0  0  0  0  0  0  0  0  0
   26.1361  -18.9953   -9.4599 C   0  0  0  0  0  0  0  0  0  0  0  0
   24.3575  -20.6165   -8.8731 C   0  0  2  0  0  0  0  0  0  0  0  0
   23.8096  -21.6322   -8.0286 N   0  0  0  0  0  0  0  0  0  0  0  0
   24.2774  -21.0015  -10.3263 C   0  0  0  0  0  0  0  0  0  0  0  0
   24.8790  -22.0110  -10.7688 O   0  0  0  0  0  0  0  0  0  0  0  0
   20.9506  -21.0880  -12.2949 C   0  0  0  0  0  0  0  0  0  0  0  0
   21.9469  -20.3250  -13.1452 C   0  0  2  0  0  0  0  0  0  0  0  0
   21.7506  -20.7571  -14.5790 C   0  0  0  0  0  0  0  0  0  0  0  0
   23.3281  -20.6592  -12.6354 C   0  0  2  0  0  0  0  0  0  0  0  0
   23.5137  -20.2337  -11.2606 N   0  0  0  0  0  0  0  0  0  0  0  0
   24.3957  -20.0646  -13.4536 C   0  0  0  0  0  0  0  0  0  0  0  0
   25.0029  -20.7250  -14.5146 O   0  0  0  0  0  0  0  0  0  0  0  0
   24.8055  -18.9048  -13.2119 O   0  0  0  0  0  0  0  0  0  0  0  0
  2  1  1  0
  3  2  1  0
  4  3  2  0
  5  6  1  0
  7  8  1  6
  7  6  1  0
  9  7  1  0
  9 10  1  1
 10  3  1  0
 11 17  1  0
 11  9  1  0
 12 11  2  0
 14 15  1  6
 14 13  1  0
 16 17  1  1
 16 14  1  0
 18 19  1  0
 18 16  1  0
 20 18  2  0
M  END
$$$$
