GIV.pdb
     RDKit          3D

 20 19  0  0  1  0  0  0  0  0999 V2000
   28.4945  -22.1520  -15.5054 N   0  0  0  0  0  0  0  0  0  0  0  0
   28.0904  -21.0158  -14.7074 C   0  0  0  0  0  0  0  0  0  0  0  0
   26.8919  -21.3439  -13.9503 C   0  0  0  0  0  0  0  0  0  0  0  0
   26.2796  -22.4141  -14.1800 O   0  0  0  0  0  0  0  0  0  0  0  0
   26.4022  -20.5285   -8.5826 C   0  0  0  0  0  0  0  0  0  0  0  0
   26.3936  -21.0835   -9.9877 C   0  0  0  0  0  0  0  0  0  0  0  0
   25.1957  -20.5962  -10.7211 C   0  0  2  0  0  0  0  0  0  0  0  0
   23.8992  -21.0269  -10.0647 C   0  0  0  0  0  0  0  0  0  0  0  0
   25.1576  -20.8152  -12.1877 C   0  0  2  0  0  0  0  0  0  0  0  0
   26.3430  -20.4951  -12.9209 N   0  0  0  0  0  0  0  0  0  0  0  0
   23.9338  -20.2082  -12.8206 C   0  0  0  0  0  0  0  0  0  0  0  0
   23.7873  -18.9634  -12.8976 O   0  0  0  0  0  0  0  0  0  0  0  0
   21.3664  -22.4946  -15.3044 C   0  0  0  0  0  0  0  0  0  0  0  0
   21.5572  -20.9951  -15.4179 C   0  0  2  0  0  0  0  0  0  0  0  0
   22.7756  -20.7524  -16.2768 C   0  0  0  0  0  0  0  0  0  0  0  0
   21.7309  -20.4528  -14.0197 C   0  0  2  0  0  0  0  0  0  0  0  0
   22.8898  -21.0241  -13.3592 N   0  0  0  0  0  0  0  0  0  0  0  0
   20.5525  -20.6819  -13.1702 C   0  0  0  0  0  0  0  0  0  0  0  0
   19.4566  -19.8285  -13.1375 O   0  0  0  0  0  0  0  0  0  0  0  0
   20.4973  -21.6876  -12.4240 O   0  0  0  0  0  0  0  0  0  0  0  0
  2  1  1  0
  3  2  1  0
  4  3  2  0
  5  6  1  0
  7  8  1  1
  7  6  1  0
  9  7  1  0
  9 10  1  6
 10  3  1  0
 11 17  1  0
 11  9  1  0
 12 11  2  0
 14 15  1  6
 14 13  1  0
 16 17  1  1
 16 14  1  0
 18 19  1  0
 18 16  1  0
 20 18  2  0
M  END
$$$$
