GIV.pdb
     RDKit          3D

 20 19  0  0  1  0  0  0  0  0999 V2000
   20.4936  -14.1917  -19.7480 N   0  0  0  0  0  0  0  0  0  0  0  0
   20.2918  -12.7624  -19.6605 C   0  0  0  0  0  0  0  0  0  0  0  0
   20.6501  -12.2925  -18.3308 C   0  0  0  0  0  0  0  0  0  0  0  0
   19.8597  -12.4634  -17.3722 O   0  0  0  0  0  0  0  0  0  0  0  0
   25.0354  -13.5184  -15.5800 C   0  0  0  0  0  0  0  0  0  0  0  0
   23.6873  -13.1640  -16.1628 C   0  0  0  0  0  0  0  0  0  0  0  0
   23.4896  -11.6909  -16.1313 C   0  0  2  0  0  0  0  0  0  0  0  0
   23.7460  -11.1009  -14.7590 C   0  0  0  0  0  0  0  0  0  0  0  0
   22.2385  -11.1576  -16.7237 C   0  0  2  0  0  0  0  0  0  0  0  0
   21.8920  -11.6222  -18.0310 N   0  0  0  0  0  0  0  0  0  0  0  0
   22.1611   -9.6569  -16.6304 C   0  0  0  0  0  0  0  0  0  0  0  0
   22.9847   -8.9218  -17.2289 O   0  0  0  0  0  0  0  0  0  0  0  0
   18.5800   -7.8070  -15.8269 C   0  0  0  0  0  0  0  0  0  0  0  0
   19.7396   -7.1098  -16.5104 C   0  0  2  0  0  0  0  0  0  0  0  0
   19.7093   -7.4955  -17.9703 C   0  0  0  0  0  0  0  0  0  0  0  0
   21.0077   -7.5646  -15.8291 C   0  0  2  0  0  0  0  0  0  0  0  0
   21.1475   -9.0087  -15.8571 N   0  0  0  0  0  0  0  0  0  0  0  0
   21.0943   -7.1168  -14.4309 C   0  0  0  0  0  0  0  0  0  0  0  0
   21.3784   -5.8072  -14.0643 O   0  0  0  0  0  0  0  0  0  0  0  0
   20.9083   -7.9293  -13.4945 O   0  0  0  0  0  0  0  0  0  0  0  0
  2  1  1  0
  3  2  1  0
  4  3  2  0
  5  6  1  0
  7  8  1  1
  7  6  1  0
  9  7  1  0
  9 10  1  6
 10  3  1  0
 11 17  1  0
 11  9  1  0
 12 11  2  0
 14 15  1  6
 14 13  1  0
 16 17  1  1
 16 14  1  0
 18 19  1  0
 18 16  1  0
 20 18  2  0
M  END
$$$$
