GIV.pdb
     RDKit          3D

 20 19  0  0  1  0  0  0  0  0999 V2000
   21.5818  -12.6820  -19.8545 N   0  0  0  0  0  0  0  0  0  0  0  0
   21.3121  -11.2637  -19.9383 C   0  0  0  0  0  0  0  0  0  0  0  0
   21.2048  -10.7004  -18.6010 C   0  0  0  0  0  0  0  0  0  0  0  0
   20.1842  -10.9241  -17.9074 O   0  0  0  0  0  0  0  0  0  0  0  0
   24.8876  -10.8176  -14.6156 C   0  0  0  0  0  0  0  0  0  0  0  0
   23.7355  -10.8242  -15.5930 C   0  0  0  0  0  0  0  0  0  0  0  0
   23.1967   -9.4482  -15.7553 C   0  0  2  0  0  0  0  0  0  0  0  0
   22.8973   -8.7824  -14.4270 C   0  0  0  0  0  0  0  0  0  0  0  0
   22.0830   -9.2605  -16.7171 C   0  0  2  0  0  0  0  0  0  0  0  0
   22.2250   -9.8761  -17.9999 N   0  0  0  0  0  0  0  0  0  0  0  0
   21.6745   -7.8165  -16.8376 C   0  0  0  0  0  0  0  0  0  0  0  0
   22.4320   -6.9651  -17.3649 O   0  0  0  0  0  0  0  0  0  0  0  0
   17.6698   -6.9230  -16.7317 C   0  0  0  0  0  0  0  0  0  0  0  0
   18.6602   -6.0148  -17.4332 C   0  0  2  0  0  0  0  0  0  0  0  0
   18.8800   -6.5639  -18.8230 C   0  0  0  0  0  0  0  0  0  0  0  0
   19.9299   -6.0115  -16.6166 C   0  0  2  0  0  0  0  0  0  0  0  0
   20.4083   -7.3566  -16.3569 N   0  0  0  0  0  0  0  0  0  0  0  0
   19.7766   -5.3167  -15.3295 C   0  0  0  0  0  0  0  0  0  0  0  0
   19.8448   -3.9357  -15.1938 O   0  0  0  0  0  0  0  0  0  0  0  0
   19.5727   -5.9699  -14.2791 O   0  0  0  0  0  0  0  0  0  0  0  0
  2  1  1  0
  3  2  1  0
  4  3  2  0
  5  6  1  0
  7  8  1  1
  7  6  1  0
  9  7  1  0
  9 10  1  6
 10  3  1  0
 11 17  1  0
 11  9  1  0
 12 11  2  0
 14 15  1  6
 14 13  1  0
 16 17  1  1
 16 14  1  0
 18 19  1  0
 18 16  1  0
 20 18  2  0
M  END
$$$$
