GIV.pdb
     RDKit          3D

 20 19  0  0  1  0  0  0  0  0999 V2000
   18.8477  -14.9612  -20.3458 N   0  0  0  0  0  0  0  0  0  0  0  0
   19.4238  -13.7215  -19.8742 C   0  0  0  0  0  0  0  0  0  0  0  0
   18.6660  -13.2253  -18.7354 C   0  0  0  0  0  0  0  0  0  0  0  0
   17.6015  -12.5887  -18.9210 O   0  0  0  0  0  0  0  0  0  0  0  0
   17.9783  -16.0485  -14.0542 C   0  0  0  0  0  0  0  0  0  0  0  0
   17.8606  -15.2479  -15.3301 C   0  0  0  0  0  0  0  0  0  0  0  0
   18.2027  -13.8243  -15.0721 C   0  0  2  0  0  0  0  0  0  0  0  0
   17.3354  -13.2060  -13.9937 C   0  0  0  0  0  0  0  0  0  0  0  0
   18.3244  -12.9278  -16.2477 C   0  0  2  0  0  0  0  0  0  0  0  0
   19.0689  -13.4221  -17.3641 N   0  0  0  0  0  0  0  0  0  0  0  0
   18.7618  -11.5403  -15.8605 C   0  0  0  0  0  0  0  0  0  0  0  0
   19.9146  -11.3193  -15.4143 O   0  0  0  0  0  0  0  0  0  0  0  0
   16.5857   -8.1396  -17.0854 C   0  0  0  0  0  0  0  0  0  0  0  0
   18.0591   -8.0897  -16.7325 C   0  0  2  0  0  0  0  0  0  0  0  0
   18.8398   -8.4454  -17.9756 C   0  0  0  0  0  0  0  0  0  0  0  0
   18.2914   -9.0769  -15.6141 C   0  0  2  0  0  0  0  0  0  0  0  0
   17.8828  -10.4189  -15.9851 N   0  0  0  0  0  0  0  0  0  0  0  0
   17.5942   -8.7054  -14.3736 C   0  0  0  0  0  0  0  0  0  0  0  0
   16.4628   -9.3629  -13.9068 O   0  0  0  0  0  0  0  0  0  0  0  0
   18.0124   -7.7524  -13.6749 O   0  0  0  0  0  0  0  0  0  0  0  0
  2  1  1  0
  3  2  1  0
  4  3  2  0
  5  6  1  0
  7  8  1  1
  7  6  1  0
  9  7  1  0
  9 10  1  6
 10  3  1  0
 11 17  1  0
 11  9  1  0
 12 11  2  0
 14 15  1  6
 14 13  1  0
 16 17  1  6
 16 14  1  0
 18 19  1  0
 18 16  1  0
 20 18  2  0
M  END
$$$$
