FFV.pdb
     RDKit          3D

 30 31  0  0  1  0  0  0  0  0999 V2000
   28.5153  -19.8185  -14.7747 N   0  0  0  0  0  0  0  0  0  0  0  0
   27.5363  -19.0965  -13.9843 C   0  0  1  0  0  0  0  0  0  0  0  0
   26.6695  -18.2856  -14.9547 C   0  0  0  0  0  0  0  0  0  0  0  0
   27.3604  -17.0897  -15.4395 C   0  0  0  0  0  0  0  0  0  0  0  0
   27.8230  -17.0360  -16.7274 C   0  0  0  0  0  0  0  0  0  0  0  0
   28.4640  -15.9158  -17.1629 C   0  0  0  0  0  0  0  0  0  0  0  0
   28.6635  -14.8315  -16.3489 C   0  0  0  0  0  0  0  0  0  0  0  0
   28.2044  -14.8723  -15.0544 C   0  0  0  0  0  0  0  0  0  0  0  0
   27.5567  -16.0094  -14.6212 C   0  0  0  0  0  0  0  0  0  0  0  0
   26.6011  -20.1095  -13.3799 C   0  0  0  0  0  0  0  0  0  0  0  0
   26.4565  -21.2579  -13.8951 O   0  0  0  0  0  0  0  0  0  0  0  0
   25.8416  -19.8367  -12.2169 N   0  0  0  0  0  0  0  0  0  0  0  0
   24.9579  -20.8000  -11.6492 C   0  0  1  0  0  0  0  0  0  0  0  0
   25.0246  -20.8848  -10.1495 C   0  0  0  0  0  0  0  0  0  0  0  0
   26.3762  -20.9281   -9.5963 C   0  0  0  0  0  0  0  0  0  0  0  0
   26.7323  -20.1580   -8.5051 C   0  0  0  0  0  0  0  0  0  0  0  0
   28.0079  -20.1891   -7.9721 C   0  0  0  0  0  0  0  0  0  0  0  0
   28.9889  -20.9947   -8.5083 C   0  0  0  0  0  0  0  0  0  0  0  0
   28.6485  -21.7684   -9.5969 C   0  0  0  0  0  0  0  0  0  0  0  0
   27.3584  -21.7355  -10.1341 C   0  0  0  0  0  0  0  0  0  0  0  0
   23.5505  -20.6048  -12.0986 C   0  0  0  0  0  0  0  0  0  0  0  0
   23.0142  -19.4786  -11.9433 O   0  0  0  0  0  0  0  0  0  0  0  0
   21.3935  -23.6939  -14.2022 C   0  0  0  0  0  0  0  0  0  0  0  0
   21.2823  -22.2264  -14.5380 C   0  0  2  0  0  0  0  0  0  0  0  0
   22.1889  -21.7975  -15.6465 C   0  0  0  0  0  0  0  0  0  0  0  0
   21.4687  -21.4325  -13.2651 C   0  0  2  0  0  0  0  0  0  0  0  0
   22.7859  -21.6307  -12.6942 N   0  0  0  0  0  0  0  0  0  0  0  0
   20.4170  -21.8146  -12.2898 C   0  0  0  0  0  0  0  0  0  0  0  0
   19.1131  -21.4146  -12.5265 O   0  0  0  0  0  0  0  0  0  0  0  0
   20.6373  -22.4782  -11.2637 O   0  0  0  0  0  0  0  0  0  0  0  0
  2  1  1  6
  3  4  1  0
  3  2  1  0
  4  9  2  0
  5  6  2  0
  5  4  1  0
  6  7  1  0
  7  8  2  0
  9  8  1  0
 10  2  1  0
 10 11  2  0
 12 10  1  0
 13 12  1  0
 13 21  1  0
 13 14  1  1
 15 14  1  0
 15 16  2  0
 17 16  1  0
 18 17  2  0
 19 20  2  0
 19 18  1  0
 20 15  1  0
 21 22  2  0
 21 27  1  0
 24 23  1  1
 24 25  1  0
 24 26  1  0
 26 28  1  0
 26 27  1  1
 28 30  2  0
 28 29  1  0
M  END
$$$$
