FFV.pdb
     RDKit          3D

 30 31  0  0  1  0  0  0  0  0999 V2000
   21.2055  -17.3569  -18.8187 N   0  0  0  0  0  0  0  0  0  0  0  0
   20.3929  -16.4407  -18.0410 C   0  0  1  0  0  0  0  0  0  0  0  0
   19.2183  -16.0045  -18.9245 C   0  0  0  0  0  0  0  0  0  0  0  0
   19.6489  -15.1329  -20.0188 C   0  0  0  0  0  0  0  0  0  0  0  0
   19.6841  -15.6063  -21.3034 C   0  0  0  0  0  0  0  0  0  0  0  0
   20.0874  -14.7823  -22.3103 C   0  0  0  0  0  0  0  0  0  0  0  0
   20.4623  -13.4846  -22.0794 C   0  0  0  0  0  0  0  0  0  0  0  0
   20.4317  -12.9970  -20.7951 C   0  0  0  0  0  0  0  0  0  0  0  0
   20.0224  -13.8370  -19.7816 C   0  0  0  0  0  0  0  0  0  0  0  0
   19.7664  -17.2257  -16.9197 C   0  0  0  0  0  0  0  0  0  0  0  0
   19.6074  -18.4796  -17.0061 O   0  0  0  0  0  0  0  0  0  0  0  0
   19.3263  -16.6122  -15.7223 N   0  0  0  0  0  0  0  0  0  0  0  0
   18.8494  -17.3729  -14.6154 C   0  0  1  0  0  0  0  0  0  0  0  0
   19.2470  -16.8204  -13.2747 C   0  0  0  0  0  0  0  0  0  0  0  0
   18.7289  -17.5612  -12.1269 C   0  0  0  0  0  0  0  0  0  0  0  0
   17.5056  -17.2514  -11.5630 C   0  0  0  0  0  0  0  0  0  0  0  0
   17.0040  -17.9440  -10.4764 C   0  0  0  0  0  0  0  0  0  0  0  0
   17.7057  -18.9817   -9.9023 C   0  0  0  0  0  0  0  0  0  0  0  0
   18.9274  -19.3022  -10.4539 C   0  0  0  0  0  0  0  0  0  0  0  0
   19.4327  -18.6007  -11.5524 C   0  0  0  0  0  0  0  0  0  0  0  0
   17.3760  -17.5881  -14.6749 C   0  0  0  0  0  0  0  0  0  0  0  0
   16.6227  -16.5932  -14.8252 O   0  0  0  0  0  0  0  0  0  0  0  0
   14.9538  -21.4503  -15.3158 C   0  0  0  0  0  0  0  0  0  0  0  0
   15.0691  -20.0489  -15.8648 C   0  0  2  0  0  0  0  0  0  0  0  0
   16.0404  -19.9285  -16.9947 C   0  0  0  0  0  0  0  0  0  0  0  0
   15.3616  -19.1112  -14.7156 C   0  0  2  0  0  0  0  0  0  0  0  0
   16.7820  -18.8640  -14.5697 N   0  0  0  0  0  0  0  0  0  0  0  0
   14.8020  -19.6796  -13.4637 C   0  0  0  0  0  0  0  0  0  0  0  0
   13.5370  -19.2866  -13.0618 O   0  0  0  0  0  0  0  0  0  0  0  0
   15.4053  -20.4947  -12.7472 O   0  0  0  0  0  0  0  0  0  0  0  0
  2  1  1  6
  3  4  1  0
  3  2  1  0
  4  9  2  0
  5  6  2  0
  5  4  1  0
  6  7  1  0
  7  8  2  0
  9  8  1  0
 10  2  1  0
 10 11  2  0
 12 10  1  0
 13 12  1  0
 13 21  1  0
 13 14  1  1
 15 14  1  0
 15 16  2  0
 17 16  1  0
 18 17  2  0
 19 20  2  0
 19 18  1  0
 20 15  1  0
 21 22  2  0
 21 27  1  0
 24 23  1  1
 24 25  1  0
 24 26  1  0
 26 28  1  0
 26 27  1  1
 28 30  2  0
 28 29  1  0
M  END
$$$$
