FFV.pdb
     RDKit          3D

 30 31  0  0  1  0  0  0  0  0999 V2000
   26.7856  -19.8786  -17.5507 N   0  0  0  0  0  0  0  0  0  0  0  0
   26.5696  -19.5036  -16.1661 C   0  0  1  0  0  0  0  0  0  0  0  0
   25.9078  -18.1207  -16.1623 C   0  0  0  0  0  0  0  0  0  0  0  0
   26.8068  -17.0807  -16.6652 C   0  0  0  0  0  0  0  0  0  0  0  0
   26.3561  -16.1615  -17.5749 C   0  0  0  0  0  0  0  0  0  0  0  0
   27.2055  -15.2003  -18.0332 C   0  0  0  0  0  0  0  0  0  0  0  0
   28.5069  -15.1213  -17.6111 C   0  0  0  0  0  0  0  0  0  0  0  0
   28.9719  -16.0374  -16.6986 C   0  0  0  0  0  0  0  0  0  0  0  0
   28.1062  -17.0070  -16.2396 C   0  0  0  0  0  0  0  0  0  0  0  0
   25.5313  -20.4339  -15.5982 C   0  0  0  0  0  0  0  0  0  0  0  0
   24.5784  -20.8673  -16.3119 O   0  0  0  0  0  0  0  0  0  0  0  0
   25.5633  -20.8696  -14.2517 N   0  0  0  0  0  0  0  0  0  0  0  0
   24.6233  -21.8108  -13.7402 C   0  0  1  0  0  0  0  0  0  0  0  0
   25.0620  -22.4881  -12.4715 C   0  0  0  0  0  0  0  0  0  0  0  0
   25.3794  -21.5825  -11.3698 C   0  0  0  0  0  0  0  0  0  0  0  0
   26.6683  -21.1302  -11.1584 C   0  0  0  0  0  0  0  0  0  0  0  0
   26.9823  -20.2736  -10.1194 C   0  0  0  0  0  0  0  0  0  0  0  0
   26.0180  -19.8287   -9.2414 C   0  0  0  0  0  0  0  0  0  0  0  0
   24.7279  -20.2713   -9.4396 C   0  0  0  0  0  0  0  0  0  0  0  0
   24.4126  -21.1373  -10.4906 C   0  0  0  0  0  0  0  0  0  0  0  0
   23.2674  -21.2158  -13.5721 C   0  0  0  0  0  0  0  0  0  0  0  0
   23.1642  -20.0784  -13.0472 O   0  0  0  0  0  0  0  0  0  0  0  0
   20.8699  -19.9031  -15.9295 C   0  0  0  0  0  0  0  0  0  0  0  0
   20.1691  -21.0723  -15.2812 C   0  0  2  0  0  0  0  0  0  0  0  0
   18.6797  -20.9452  -15.2723 C   0  0  0  0  0  0  0  0  0  0  0  0
   20.7648  -21.2806  -13.9074 C   0  0  2  0  0  0  0  0  0  0  0  0
   22.0856  -21.8728  -13.9767 N   0  0  0  0  0  0  0  0  0  0  0  0
   19.8549  -22.1331  -13.1020 C   0  0  0  0  0  0  0  0  0  0  0  0
   18.7822  -21.5395  -12.4593 O   0  0  0  0  0  0  0  0  0  0  0  0
   19.9984  -23.3592  -12.9679 O   0  0  0  0  0  0  0  0  0  0  0  0
  2  1  1  6
  3  4  1  0
  3  2  1  0
  4  9  2  0
  5  6  2  0
  5  4  1  0
  6  7  1  0
  7  8  2  0
  9  8  1  0
 10  2  1  0
 10 11  2  0
 12 10  1  0
 13 12  1  0
 13 21  1  0
 13 14  1  1
 15 14  1  0
 15 16  2  0
 17 16  1  0
 18 17  2  0
 19 20  2  0
 19 18  1  0
 20 15  1  0
 21 22  2  0
 21 27  1  0
 24 23  1  1
 24 25  1  0
 24 26  1  0
 26 28  1  0
 26 27  1  6
 28 30  2  0
 28 29  1  0
M  END
$$$$
