FFV.pdb
     RDKit          3D

 30 31  0  0  1  0  0  0  0  0999 V2000
   28.2057  -21.7881  -14.4450 N   0  0  0  0  0  0  0  0  0  0  0  0
   28.4489  -20.6480  -13.5815 C   0  0  1  0  0  0  0  0  0  0  0  0
   27.4555  -19.5500  -13.9791 C   0  0  0  0  0  0  0  0  0  0  0  0
   27.8538  -18.8702  -15.2127 C   0  0  0  0  0  0  0  0  0  0  0  0
   28.8436  -17.9240  -15.1890 C   0  0  0  0  0  0  0  0  0  0  0  0
   29.2024  -17.3005  -16.3457 C   0  0  0  0  0  0  0  0  0  0  0  0
   28.6012  -17.5906  -17.5426 C   0  0  0  0  0  0  0  0  0  0  0  0
   27.6067  -18.5380  -17.5804 C   0  0  0  0  0  0  0  0  0  0  0  0
   27.2494  -19.1644  -16.4057 C   0  0  0  0  0  0  0  0  0  0  0  0
   28.0546  -21.0424  -12.1834 C   0  0  0  0  0  0  0  0  0  0  0  0
   27.0854  -21.8309  -11.9730 O   0  0  0  0  0  0  0  0  0  0  0  0
   28.7375  -20.5592  -11.0414 N   0  0  0  0  0  0  0  0  0  0  0  0
   28.2403  -20.7640   -9.7216 C   0  0  1  0  0  0  0  0  0  0  0  0
   29.1522  -20.2600   -8.6376 C   0  0  0  0  0  0  0  0  0  0  0  0
   28.5600  -20.2279   -7.3023 C   0  0  0  0  0  0  0  0  0  0  0  0
   27.8037  -19.1523   -6.8760 C   0  0  0  0  0  0  0  0  0  0  0  0
   27.2383  -19.1091   -5.6149 C   0  0  0  0  0  0  0  0  0  0  0  0
   27.4041  -20.1433   -4.7195 C   0  0  0  0  0  0  0  0  0  0  0  0
   28.1559  -21.2228   -5.1306 C   0  0  0  0  0  0  0  0  0  0  0  0
   28.7267  -21.2646   -6.4060 C   0  0  0  0  0  0  0  0  0  0  0  0
   26.8671  -20.2122   -9.5466 C   0  0  0  0  0  0  0  0  0  0  0  0
   26.6993  -18.9683   -9.6150 O   0  0  0  0  0  0  0  0  0  0  0  0
   23.4743  -22.1998  -10.6976 C   0  0  0  0  0  0  0  0  0  0  0  0
   23.5828  -20.7173  -10.4349 C   0  0  2  0  0  0  0  0  0  0  0  0
   24.1015  -19.9407  -11.6021 C   0  0  0  0  0  0  0  0  0  0  0  0
   24.3880  -20.5167   -9.1712 C   0  0  2  0  0  0  0  0  0  0  0  0
   25.7384  -21.0248   -9.3062 N   0  0  0  0  0  0  0  0  0  0  0  0
   23.6950  -21.1782   -8.0374 C   0  0  0  0  0  0  0  0  0  0  0  0
   22.4152  -20.7661   -7.7082 O   0  0  0  0  0  0  0  0  0  0  0  0
   24.1981  -22.0882   -7.3589 O   0  0  0  0  0  0  0  0  0  0  0  0
  2  1  1  6
  3  4  1  0
  3  2  1  0
  4  9  2  0
  5  6  2  0
  5  4  1  0
  6  7  1  0
  7  8  2  0
  9  8  1  0
 10  2  1  0
 10 11  2  0
 12 10  1  0
 13 12  1  0
 13 21  1  0
 13 14  1  1
 15 14  1  0
 15 16  2  0
 17 16  1  0
 18 17  2  0
 19 20  2  0
 19 18  1  0
 20 15  1  0
 21 22  2  0
 21 27  1  0
 24 23  1  6
 24 25  1  0
 24 26  1  0
 26 28  1  0
 26 27  1  6
 28 30  2  0
 28 29  1  0
M  END
$$$$
