FFV.pdb
     RDKit          3D

 30 31  0  0  1  0  0  0  0  0999 V2000
   28.2752  -20.7777   -8.4472 N   0  0  0  0  0  0  0  0  0  0  0  0
   26.8553  -20.7553   -8.1508 C   0  0  1  0  0  0  0  0  0  0  0  0
   26.6136  -19.6245   -7.1441 C   0  0  0  0  0  0  0  0  0  0  0  0
   27.4778  -19.7424   -5.9685 C   0  0  0  0  0  0  0  0  0  0  0  0
   28.5407  -18.8941   -5.8071 C   0  0  0  0  0  0  0  0  0  0  0  0
   29.3353  -19.0172   -4.7076 C   0  0  0  0  0  0  0  0  0  0  0  0
   29.1050  -19.9693   -3.7493 C   0  0  0  0  0  0  0  0  0  0  0  0
   28.0419  -20.8269   -3.8990 C   0  0  0  0  0  0  0  0  0  0  0  0
   27.2425  -20.6960   -5.0144 C   0  0  0  0  0  0  0  0  0  0  0  0
   26.1351  -20.3248   -9.4005 C   0  0  0  0  0  0  0  0  0  0  0  0
   26.3383  -19.1849   -9.9149 O   0  0  0  0  0  0  0  0  0  0  0  0
   25.2028  -21.1607  -10.0608 N   0  0  0  0  0  0  0  0  0  0  0  0
   24.8611  -20.9750  -11.4319 C   0  0  1  0  0  0  0  0  0  0  0  0
   25.7721  -21.6873  -12.3929 C   0  0  0  0  0  0  0  0  0  0  0  0
   27.0984  -21.0917  -12.5381 C   0  0  0  0  0  0  0  0  0  0  0  0
   28.1959  -21.6086  -11.8756 C   0  0  0  0  0  0  0  0  0  0  0  0
   29.4562  -21.0543  -12.0038 C   0  0  0  0  0  0  0  0  0  0  0  0
   29.6769  -19.9538  -12.8032 C   0  0  0  0  0  0  0  0  0  0  0  0
   28.5918  -19.4272  -13.4701 C   0  0  0  0  0  0  0  0  0  0  0  0
   27.3185  -19.9891  -13.3392 C   0  0  0  0  0  0  0  0  0  0  0  0
   23.4382  -21.3211  -11.7081 C   0  0  0  0  0  0  0  0  0  0  0  0
   23.0511  -22.5008  -11.5120 O   0  0  0  0  0  0  0  0  0  0  0  0
   20.4229  -18.3220  -12.5998 C   0  0  0  0  0  0  0  0  0  0  0  0
   20.2139  -19.5788  -11.7904 C   0  0  2  0  0  0  0  0  0  0  0  0
   20.4014  -19.3803  -10.3207 C   0  0  0  0  0  0  0  0  0  0  0  0
   21.0896  -20.6671  -12.3685 C   0  0  2  0  0  0  0  0  0  0  0  0
   22.4981  -20.3813  -12.1825 N   0  0  0  0  0  0  0  0  0  0  0  0
   20.7792  -20.8326  -13.8106 C   0  0  0  0  0  0  0  0  0  0  0  0
   21.7571  -20.5260  -14.7411 O   0  0  0  0  0  0  0  0  0  0  0  0
   19.6846  -21.2336  -14.2381 O   0  0  0  0  0  0  0  0  0  0  0  0
  2  1  1  6
  3  4  1  0
  3  2  1  0
  4  9  2  0
  5  6  2  0
  5  4  1  0
  6  7  1  0
  7  8  2  0
  9  8  1  0
 10  2  1  0
 10 11  2  0
 12 10  1  0
 13 12  1  0
 13 21  1  0
 13 14  1  6
 15 14  1  0
 15 16  2  0
 17 16  1  0
 18 17  2  0
 19 20  2  0
 19 18  1  0
 20 15  1  0
 21 22  2  0
 21 27  1  0
 24 23  1  6
 24 25  1  0
 24 26  1  0
 26 28  1  0
 26 27  1  6
 28 30  2  0
 28 29  1  0
M  END
$$$$
