FFV.pdb
     RDKit          3D

 30 31  0  0  1  0  0  0  0  0999 V2000
   28.8218  -20.3514  -14.5596 N   0  0  0  0  0  0  0  0  0  0  0  0
   27.8036  -19.5199  -13.9461 C   0  0  1  0  0  0  0  0  0  0  0  0
   27.0069  -18.8590  -15.0770 C   0  0  0  0  0  0  0  0  0  0  0  0
   27.6217  -17.6076  -15.5226 C   0  0  0  0  0  0  0  0  0  0  0  0
   28.3725  -17.5785  -16.6676 C   0  0  0  0  0  0  0  0  0  0  0  0
   28.9379  -16.4059  -17.0685 C   0  0  0  0  0  0  0  0  0  0  0  0
   28.7796  -15.2444  -16.3587 C   0  0  0  0  0  0  0  0  0  0  0  0
   28.0288  -15.2597  -15.2079 C   0  0  0  0  0  0  0  0  0  0  0  0
   27.4599  -16.4502  -14.8089 C   0  0  0  0  0  0  0  0  0  0  0  0
   26.8223  -20.4321  -13.2598 C   0  0  0  0  0  0  0  0  0  0  0  0
   26.7016  -21.6449  -13.6058 O   0  0  0  0  0  0  0  0  0  0  0  0
   25.9911  -19.9891  -12.2031 N   0  0  0  0  0  0  0  0  0  0  0  0
   25.0675  -20.8588  -11.5536 C   0  0  1  0  0  0  0  0  0  0  0  0
   24.9484  -20.6310  -10.0721 C   0  0  0  0  0  0  0  0  0  0  0  0
   26.2083  -20.7054   -9.3360 C   0  0  0  0  0  0  0  0  0  0  0  0
   26.4012  -19.9953   -8.1659 C   0  0  0  0  0  0  0  0  0  0  0  0
   27.5886  -20.0564   -7.4600 C   0  0  0  0  0  0  0  0  0  0  0  0
   28.6409  -20.8332   -7.8937 C   0  0  0  0  0  0  0  0  0  0  0  0
   28.4631  -21.5471   -9.0592 C   0  0  0  0  0  0  0  0  0  0  0  0
   27.2619  -21.4840   -9.7714 C   0  0  0  0  0  0  0  0  0  0  0  0
   23.7229  -20.8309  -12.1955 C   0  0  0  0  0  0  0  0  0  0  0  0
   23.1402  -19.7261  -12.3364 O   0  0  0  0  0  0  0  0  0  0  0  0
   20.4073  -23.1255  -15.0501 C   0  0  0  0  0  0  0  0  0  0  0  0
   21.6954  -23.2286  -14.2699 C   0  0  2  0  0  0  0  0  0  0  0  0
   21.8176  -24.4944  -13.4843 C   0  0  0  0  0  0  0  0  0  0  0  0
   21.8427  -21.9806  -13.4294 C   0  0  2  0  0  0  0  0  0  0  0  0
   23.0681  -21.9933  -12.6558 N   0  0  0  0  0  0  0  0  0  0  0  0
   20.6652  -21.8493  -12.5352 C   0  0  0  0  0  0  0  0  0  0  0  0
   19.4729  -21.3904  -13.0681 O   0  0  0  0  0  0  0  0  0  0  0  0
   20.6842  -22.1288  -11.3255 O   0  0  0  0  0  0  0  0  0  0  0  0
  2  1  1  6
  3  4  1  0
  3  2  1  0
  4  9  2  0
  5  6  2  0
  5  4  1  0
  6  7  1  0
  7  8  2  0
  9  8  1  0
 10  2  1  0
 10 11  2  0
 12 10  1  0
 13 12  1  0
 13 21  1  0
 13 14  1  1
 15 14  1  0
 15 16  2  0
 17 16  1  0
 18 17  2  0
 19 20  2  0
 19 18  1  0
 20 15  1  0
 21 22  2  0
 21 27  1  0
 24 23  1  1
 24 25  1  0
 24 26  1  0
 26 28  1  0
 26 27  1  1
 28 30  2  0
 28 29  1  0
M  END
$$$$
