FFV.pdb
     RDKit          3D

 30 31  0  0  1  0  0  0  0  0999 V2000
   16.3947  -19.3792    2.2780 N   0  0  0  0  0  0  0  0  0  0  0  0
   16.5882  -19.2632    3.7110 C   0  0  1  0  0  0  0  0  0  0  0  0
   17.3621  -20.5037    4.1723 C   0  0  0  0  0  0  0  0  0  0  0  0
   16.5583  -21.7224    4.0671 C   0  0  0  0  0  0  0  0  0  0  0  0
   16.8698  -22.6746    3.1334 C   0  0  0  0  0  0  0  0  0  0  0  0
   16.1117  -23.8030    3.0484 C   0  0  0  0  0  0  0  0  0  0  0  0
   15.0384  -24.0195    3.8726 C   0  0  0  0  0  0  0  0  0  0  0  0
   14.7149  -23.0721    4.8138 C   0  0  0  0  0  0  0  0  0  0  0  0
   15.4870  -21.9329    4.8936 C   0  0  0  0  0  0  0  0  0  0  0  0
   17.5232  -18.1085    3.9531 C   0  0  0  0  0  0  0  0  0  0  0  0
   17.9336  -17.3854    2.9971 O   0  0  0  0  0  0  0  0  0  0  0  0
   17.9888  -17.7722    5.2469 N   0  0  0  0  0  0  0  0  0  0  0  0
   18.5409  -16.4917    5.5414 C   0  0  1  0  0  0  0  0  0  0  0  0
   17.6582  -15.3388    5.1511 C   0  0  0  0  0  0  0  0  0  0  0  0
   18.2228  -14.0168    5.4129 C   0  0  0  0  0  0  0  0  0  0  0  0
   17.9007  -13.3102    6.5563 C   0  0  0  0  0  0  0  0  0  0  0  0
   18.4273  -12.0583    6.8159 C   0  0  0  0  0  0  0  0  0  0  0  0
   19.3033  -11.4540    5.9405 C   0  0  0  0  0  0  0  0  0  0  0  0
   19.6340  -12.1468    4.7958 C   0  0  0  0  0  0  0  0  0  0  0  0
   19.1004  -13.4123    4.5352 C   0  0  0  0  0  0  0  0  0  0  0  0
   18.9541  -16.3728    6.9682 C   0  0  0  0  0  0  0  0  0  0  0  0
   18.0753  -16.4515    7.8634 O   0  0  0  0  0  0  0  0  0  0  0  0
   23.1316  -15.8953    8.2857 C   0  0  0  0  0  0  0  0  0  0  0  0
   22.1179  -16.8576    8.8557 C   0  0  2  0  0  0  0  0  0  0  0  0
   22.1964  -18.2276    8.2629 C   0  0  0  0  0  0  0  0  0  0  0  0
   20.7482  -16.2281    8.7401 C   0  0  2  0  0  0  0  0  0  0  0  0
   20.2940  -16.1745    7.3651 N   0  0  0  0  0  0  0  0  0  0  0  0
   20.7827  -14.8661    9.3293 C   0  0  0  0  0  0  0  0  0  0  0  0
   20.7246  -14.7351   10.7061 O   0  0  0  0  0  0  0  0  0  0  0  0
   20.8614  -13.8260    8.6558 O   0  0  0  0  0  0  0  0  0  0  0  0
  2  1  1  6
  3  4  1  0
  3  2  1  0
  4  9  2  0
  5  6  2  0
  5  4  1  0
  6  7  1  0
  7  8  2  0
  9  8  1  0
 10  2  1  0
 10 11  2  0
 12 10  1  0
 13 12  1  0
 13 21  1  0
 13 14  1  1
 15 14  1  0
 15 16  2  0
 17 16  1  0
 18 17  2  0
 19 20  2  0
 19 18  1  0
 20 15  1  0
 21 22  2  0
 21 27  1  0
 24 23  1  6
 24 25  1  0
 24 26  1  0
 26 28  1  0
 26 27  1  6
 28 30  2  0
 28 29  1  0
M  END
$$$$
