FFV.pdb
     RDKit          3D

 30 31  0  0  1  0  0  0  0  0999 V2000
   26.5063  -21.9851  -12.8930 N   0  0  0  0  0  0  0  0  0  0  0  0
   26.6944  -20.7041  -12.2388 C   0  0  1  0  0  0  0  0  0  0  0  0
   25.4617  -19.8457  -12.5456 C   0  0  0  0  0  0  0  0  0  0  0  0
   25.6728  -18.9766  -13.7043 C   0  0  0  0  0  0  0  0  0  0  0  0
   25.2493  -19.3692  -14.9461 C   0  0  0  0  0  0  0  0  0  0  0  0
   25.4536  -18.5488  -16.0141 C   0  0  0  0  0  0  0  0  0  0  0  0
   26.0739  -17.3334  -15.8869 C   0  0  0  0  0  0  0  0  0  0  0  0
   26.5038  -16.9274  -14.6465 C   0  0  0  0  0  0  0  0  0  0  0  0
   26.2933  -17.7633  -13.5707 C   0  0  0  0  0  0  0  0  0  0  0  0
   26.6453  -20.9392  -10.7528 C   0  0  0  0  0  0  0  0  0  0  0  0
   25.9709  -21.8927  -10.2616 O   0  0  0  0  0  0  0  0  0  0  0  0
   27.3419  -20.1171   -9.8347 N   0  0  0  0  0  0  0  0  0  0  0  0
   27.3761  -20.4045   -8.4392 C   0  0  1  0  0  0  0  0  0  0  0  0
   28.4958  -19.7253   -7.7004 C   0  0  0  0  0  0  0  0  0  0  0  0
   28.4434  -19.8606   -6.2465 C   0  0  0  0  0  0  0  0  0  0  0  0
   27.8369  -18.9026   -5.4560 C   0  0  0  0  0  0  0  0  0  0  0  0
   27.7809  -19.0181   -4.0792 C   0  0  0  0  0  0  0  0  0  0  0  0
   28.3309  -20.1008   -3.4281 C   0  0  0  0  0  0  0  0  0  0  0  0
   28.9392  -21.0644   -4.2034 C   0  0  0  0  0  0  0  0  0  0  0  0
   28.9948  -20.9457   -5.5951 C   0  0  0  0  0  0  0  0  0  0  0  0
   26.0704  -20.1279   -7.7765 C   0  0  0  0  0  0  0  0  0  0  0  0
   25.4435  -19.0823   -8.0829 O   0  0  0  0  0  0  0  0  0  0  0  0
   21.7708  -21.0548   -6.4010 C   0  0  0  0  0  0  0  0  0  0  0  0
   23.0934  -21.4053   -7.0385 C   0  0  2  0  0  0  0  0  0  0  0  0
   23.2746  -22.8709   -7.2700 C   0  0  0  0  0  0  0  0  0  0  0  0
   24.1976  -20.7839   -6.2138 C   0  0  2  0  0  0  0  0  0  0  0  0
   25.5001  -20.9893   -6.8149 N   0  0  0  0  0  0  0  0  0  0  0  0
   24.1635  -21.3498   -4.8420 C   0  0  0  0  0  0  0  0  0  0  0  0
   23.0313  -21.1548   -4.0698 O   0  0  0  0  0  0  0  0  0  0  0  0
   25.0981  -21.9944   -4.3392 O   0  0  0  0  0  0  0  0  0  0  0  0
  2  1  1  6
  3  4  1  0
  3  2  1  0
  4  9  2  0
  5  6  2  0
  5  4  1  0
  6  7  1  0
  7  8  2  0
  9  8  1  0
 10  2  1  0
 10 11  2  0
 12 10  1  0
 13 12  1  0
 13 21  1  0
 13 14  1  1
 15 14  1  0
 15 16  2  0
 17 16  1  0
 18 17  2  0
 19 20  2  0
 19 18  1  0
 20 15  1  0
 21 22  2  0
 21 27  1  0
 24 23  1  1
 24 25  1  0
 24 26  1  0
 26 28  1  0
 26 27  1  6
 28 30  2  0
 28 29  1  0
M  END
$$$$
