WPK.pdb
     RDKit          3D

 31 33  0  0  1  0  0  0  0  0999 V2000
   24.9706  -19.4479  -17.3132 N   0  0  0  0  0  0  0  0  0  0  0  0
   25.8532  -19.0496  -16.2461 C   0  0  1  0  0  0  0  0  0  0  0  0
   25.4802  -17.6506  -15.8315 C   0  0  0  0  0  0  0  0  0  0  0  0
   25.5298  -16.6869  -16.9239 C   0  0  0  0  0  0  0  0  0  0  0  0
   24.5119  -15.8467  -17.3062 C   0  0  0  0  0  0  0  0  0  0  0  0
   24.9488  -15.1150  -18.3460 N   0  0  0  0  0  0  0  0  0  0  0  0
   26.2064  -15.4312  -18.6691 C   0  0  0  0  0  0  0  0  0  0  0  0
   27.0697  -14.9684  -19.6396 C   0  0  0  0  0  0  0  0  0  0  0  0
   28.3400  -15.4842  -19.7492 C   0  0  0  0  0  0  0  0  0  0  0  0
   28.7322  -16.4721  -18.8701 C   0  0  0  0  0  0  0  0  0  0  0  0
   27.8685  -16.9258  -17.9093 C   0  0  0  0  0  0  0  0  0  0  0  0
   26.5842  -16.4321  -17.7679 C   0  0  0  0  0  0  0  0  0  0  0  0
   25.9029  -19.9876  -15.1093 C   0  0  0  0  0  0  0  0  0  0  0  0
   24.9205  -20.7761  -14.9607 O   0  0  0  0  0  0  0  0  0  0  0  0
   26.9584  -20.0850  -14.1626 N   0  0  0  0  0  0  0  0  0  0  0  0
   28.1719  -19.3030  -14.1223 C   0  0  0  0  0  0  0  0  0  0  0  0
   29.0714  -19.9631  -13.0826 C   0  0  0  0  0  0  0  0  0  0  0  0
   28.4447  -21.3585  -12.9319 C   0  0  0  0  0  0  0  0  0  0  0  0
   26.9832  -21.0028  -13.0579 C   0  0  1  0  0  0  0  0  0  0  0  0
   26.5483  -20.3963  -11.7821 C   0  0  0  0  0  0  0  0  0  0  0  0
   26.7293  -19.1423  -11.6792 O   0  0  0  0  0  0  0  0  0  0  0  0
   25.9706  -21.0942  -10.7187 N   0  0  0  0  0  0  0  0  0  0  0  0
   24.9226  -20.4484   -9.8267 C   0  0  1  0  0  0  0  0  0  0  0  0
   23.6464  -20.7913  -10.4503 C   0  0  0  0  0  0  0  0  0  0  0  0
   22.3540  -20.2700   -9.9790 C   0  0  0  0  0  0  0  0  0  0  0  0
   21.1852  -20.7480  -10.7414 C   0  0  0  0  0  0  0  0  0  0  0  0
   19.8753  -20.1453  -10.2217 C   0  0  0  0  0  0  0  0  0  0  0  0
   18.8274  -20.6124  -11.1294 N   0  0  0  0  0  0  0  0  0  0  0  0
   25.2631  -20.6749   -8.4630 C   0  0  0  0  0  0  0  0  0  0  0  0
   25.1397  -19.8180   -7.3891 O   0  0  0  0  0  0  0  0  0  0  0  0
   25.7680  -21.8191   -8.1484 O   0  0  0  0  0  0  0  0  0  0  0  0
  2  1  1  6
  2 13  1  0
  2  3  1  0
  3  4  1  0
  4  5  2  0
  5  6  1  0
  7  8  2  0
  7  6  1  0
  9  8  1  0
 10  9  2  0
 11 10  1  0
 11 12  2  0
 12  4  1  0
 12  7  1  0
 13 14  2  0
 13 15  1  0
 15 19  1  0
 15 16  1  0
 16 17  1  0
 18 17  1  0
 19 18  1  0
 19 20  1  1
 21 20  2  0
 22 20  1  0
 23 29  1  0
 23 22  1  0
 23 24  1  6
 25 24  1  0
 26 25  1  0
 27 26  1  0
 27 28  1  0
 29 30  1  0
 31 29  2  0
M  END
$$$$
