WPK.pdb
     RDKit          3D

 31 33  0  0  1  0  0  0  0  0999 V2000
   25.9319  -19.4277  -18.0926 N   0  0  0  0  0  0  0  0  0  0  0  0
   26.0662  -18.9441  -16.7417 C   0  0  1  0  0  0  0  0  0  0  0  0
   25.0420  -17.8600  -16.5318 C   0  0  0  0  0  0  0  0  0  0  0  0
   25.3747  -16.6075  -17.1989 C   0  0  0  0  0  0  0  0  0  0  0  0
   24.9387  -16.2138  -18.4411 C   0  0  0  0  0  0  0  0  0  0  0  0
   25.4613  -15.0019  -18.6973 N   0  0  0  0  0  0  0  0  0  0  0  0
   26.2215  -14.5759  -17.6841 C   0  0  0  0  0  0  0  0  0  0  0  0
   26.9517  -13.4242  -17.4796 C   0  0  0  0  0  0  0  0  0  0  0  0
   27.6591  -13.2423  -16.3142 C   0  0  0  0  0  0  0  0  0  0  0  0
   27.6233  -14.2336  -15.3558 C   0  0  0  0  0  0  0  0  0  0  0  0
   26.8956  -15.3741  -15.5670 C   0  0  0  0  0  0  0  0  0  0  0  0
   26.1719  -15.5931  -16.7253 C   0  0  0  0  0  0  0  0  0  0  0  0
   26.0077  -19.9927  -15.7066 C   0  0  0  0  0  0  0  0  0  0  0  0
   25.2870  -21.0087  -15.9460 O   0  0  0  0  0  0  0  0  0  0  0  0
   26.6902  -19.9639  -14.4603 N   0  0  0  0  0  0  0  0  0  0  0  0
   27.6259  -18.9653  -13.9986 C   0  0  0  0  0  0  0  0  0  0  0  0
   28.2551  -19.5249  -12.7270 C   0  0  0  0  0  0  0  0  0  0  0  0
   27.9287  -21.0240  -12.8207 C   0  0  0  0  0  0  0  0  0  0  0  0
   26.5485  -20.9526  -13.4280 C   0  0  1  0  0  0  0  0  0  0  0  0
   25.6007  -20.5582  -12.3647 C   0  0  0  0  0  0  0  0  0  0  0  0
   25.5233  -19.3110  -12.1317 O   0  0  0  0  0  0  0  0  0  0  0  0
   24.8122  -21.4431  -11.6253 N   0  0  0  0  0  0  0  0  0  0  0  0
   23.5561  -20.9727  -10.9096 C   0  0  1  0  0  0  0  0  0  0  0  0
   22.4690  -21.7075  -11.5525 C   0  0  0  0  0  0  0  0  0  0  0  0
   21.0525  -21.5185  -11.2034 C   0  0  0  0  0  0  0  0  0  0  0  0
   20.1325  -22.4877  -11.8279 C   0  0  0  0  0  0  0  0  0  0  0  0
   18.6866  -22.2912  -11.3588 C   0  0  0  0  0  0  0  0  0  0  0  0
   17.9067  -23.3509  -11.9982 N   0  0  0  0  0  0  0  0  0  0  0  0
   23.8049  -20.9234   -9.5087 C   0  0  0  0  0  0  0  0  0  0  0  0
   23.2166  -20.1180   -8.5558 O   0  0  0  0  0  0  0  0  0  0  0  0
   24.7014  -21.7148   -9.0261 O   0  0  0  0  0  0  0  0  0  0  0  0
  2  1  1  6
  2 13  1  0
  2  3  1  0
  3  4  1  0
  4  5  2  0
  5  6  1  0
  7  8  2  0
  7  6  1  0
  9  8  1  0
 10  9  2  0
 11 10  1  0
 11 12  2  0
 12  4  1  0
 12  7  1  0
 13 14  2  0
 13 15  1  0
 15 19  1  0
 15 16  1  0
 16 17  1  0
 18 17  1  0
 19 18  1  0
 19 20  1  1
 21 20  2  0
 22 20  1  0
 23 29  1  0
 23 22  1  0
 23 24  1  1
 25 24  1  0
 26 25  1  0
 27 26  1  0
 27 28  1  0
 29 30  1  0
 31 29  2  0
M  END
$$$$
