WPK.pdb
     RDKit          3D

 31 33  0  0  1  0  0  0  0  0999 V2000
   24.4647  -21.9448  -13.6466 N   0  0  0  0  0  0  0  0  0  0  0  0
   24.3730  -21.1849  -12.4257 C   0  0  1  0  0  0  0  0  0  0  0  0
   23.6988  -19.8759  -12.7420 C   0  0  0  0  0  0  0  0  0  0  0  0
   24.3138  -19.1572  -13.8510 C   0  0  0  0  0  0  0  0  0  0  0  0
   23.6466  -18.4832  -14.8454 C   0  0  0  0  0  0  0  0  0  0  0  0
   24.5642  -17.9545  -15.6735 N   0  0  0  0  0  0  0  0  0  0  0  0
   25.8056  -18.2467  -15.2741 C   0  0  0  0  0  0  0  0  0  0  0  0
   27.0505  -17.9380  -15.7805 C   0  0  0  0  0  0  0  0  0  0  0  0
   28.1908  -18.3800  -15.1512 C   0  0  0  0  0  0  0  0  0  0  0  0
   28.0641  -19.1371  -14.0052 C   0  0  0  0  0  0  0  0  0  0  0  0
   26.8240  -19.4390  -13.5092 C   0  0  0  0  0  0  0  0  0  0  0  0
   25.6551  -19.0128  -14.1136 C   0  0  0  0  0  0  0  0  0  0  0  0
   23.7342  -21.8997  -11.3052 C   0  0  0  0  0  0  0  0  0  0  0  0
   23.1506  -22.9945  -11.5691 O   0  0  0  0  0  0  0  0  0  0  0  0
   23.7152  -21.4674   -9.9514 N   0  0  0  0  0  0  0  0  0  0  0  0
   24.0701  -20.1622   -9.4452 C   0  0  0  0  0  0  0  0  0  0  0  0
   24.1241  -20.2931   -7.9267 C   0  0  0  0  0  0  0  0  0  0  0  0
   24.2233  -21.8132   -7.7226 C   0  0  0  0  0  0  0  0  0  0  0  0
   23.3223  -22.2853   -8.8379 C   0  0  1  0  0  0  0  0  0  0  0  0
   21.9220  -22.0692   -8.4171 C   0  0  0  0  0  0  0  0  0  0  0  0
   21.4115  -20.9552   -8.7552 O   0  0  0  0  0  0  0  0  0  0  0  0
   21.1520  -22.9839   -7.6946 N   0  0  0  0  0  0  0  0  0  0  0  0
   19.6768  -23.1890   -7.9992 C   0  0  1  0  0  0  0  0  0  0  0  0
   19.5494  -24.6220   -8.2552 C   0  0  0  0  0  0  0  0  0  0  0  0
   18.2846  -25.2597   -8.6525 C   0  0  0  0  0  0  0  0  0  0  0  0
   18.3618  -26.7232   -8.8197 C   0  0  0  0  0  0  0  0  0  0  0  0
   16.9982  -27.3349   -9.1596 C   0  0  0  0  0  0  0  0  0  0  0  0
   17.2264  -28.7719   -9.3116 N   0  0  0  0  0  0  0  0  0  0  0  0
   18.8977  -22.4432   -7.0699 C   0  0  0  0  0  0  0  0  0  0  0  0
   17.5842  -22.0356   -7.1764 O   0  0  0  0  0  0  0  0  0  0  0  0
   19.4614  -22.0693   -5.9719 O   0  0  0  0  0  0  0  0  0  0  0  0
  2  1  1  6
  2 13  1  0
  2  3  1  0
  3  4  1  0
  4  5  2  0
  5  6  1  0
  7  8  2  0
  7  6  1  0
  9  8  1  0
 10  9  2  0
 11 10  1  0
 11 12  2  0
 12  4  1  0
 12  7  1  0
 13 14  2  0
 13 15  1  0
 15 19  1  0
 15 16  1  0
 16 17  1  0
 18 17  1  0
 19 18  1  0
 19 20  1  1
 21 20  2  0
 22 20  1  0
 23 29  1  0
 23 22  1  0
 23 24  1  1
 25 24  1  0
 26 25  1  0
 27 26  1  0
 27 28  1  0
 29 30  1  0
 31 29  2  0
M  END
$$$$
