WPK.pdb
     RDKit          3D

 31 33  0  0  1  0  0  0  0  0999 V2000
   26.9454  -17.8884  -16.7684 N   0  0  0  0  0  0  0  0  0  0  0  0
   27.0270  -19.0147  -15.8732 C   0  0  1  0  0  0  0  0  0  0  0  0
   26.6329  -18.5451  -14.4976 C   0  0  0  0  0  0  0  0  0  0  0  0
   27.1702  -19.3717  -13.4240 C   0  0  0  0  0  0  0  0  0  0  0  0
   28.4685  -19.8077  -13.3133 C   0  0  0  0  0  0  0  0  0  0  0  0
   28.5644  -20.5385  -12.1889 N   0  0  0  0  0  0  0  0  0  0  0  0
   27.3918  -20.6063  -11.5514 C   0  0  0  0  0  0  0  0  0  0  0  0
   26.9934  -21.2236  -10.3845 C   0  0  0  0  0  0  0  0  0  0  0  0
   25.6917  -21.1268   -9.9512 C   0  0  0  0  0  0  0  0  0  0  0  0
   24.7943  -20.4009  -10.7064 C   0  0  0  0  0  0  0  0  0  0  0  0
   25.1984  -19.7910  -11.8639 C   0  0  0  0  0  0  0  0  0  0  0  0
   26.4980  -19.8656  -12.3316 C   0  0  0  0  0  0  0  0  0  0  0  0
   26.2684  -20.2014  -16.3103 C   0  0  0  0  0  0  0  0  0  0  0  0
   25.1585  -20.0024  -16.8912 O   0  0  0  0  0  0  0  0  0  0  0  0
   26.6735  -21.5525  -16.1363 N   0  0  0  0  0  0  0  0  0  0  0  0
   27.9043  -22.0276  -15.5489 C   0  0  0  0  0  0  0  0  0  0  0  0
   27.9617  -23.5255  -15.8301 C   0  0  0  0  0  0  0  0  0  0  0  0
   26.9377  -23.6952  -16.9638 C   0  0  0  0  0  0  0  0  0  0  0  0
   25.8953  -22.6955  -16.5252 C   0  0  1  0  0  0  0  0  0  0  0  0
   25.1310  -23.2914  -15.4092 C   0  0  0  0  0  0  0  0  0  0  0  0
   25.6214  -23.1140  -14.2500 O   0  0  0  0  0  0  0  0  0  0  0  0
   23.9431  -24.0135  -15.5469 N   0  0  0  0  0  0  0  0  0  0  0  0
   22.7341  -23.7191  -14.6735 C   0  0  1  0  0  0  0  0  0  0  0  0
   22.9116  -22.3305  -14.2549 C   0  0  0  0  0  0  0  0  0  0  0  0
   21.9598  -21.6242  -13.3835 C   0  0  0  0  0  0  0  0  0  0  0  0
   20.7360  -21.1584  -14.0626 C   0  0  0  0  0  0  0  0  0  0  0  0
   19.7371  -20.5346  -13.0817 C   0  0  0  0  0  0  0  0  0  0  0  0
   18.5789  -20.1374  -13.8822 N   0  0  0  0  0  0  0  0  0  0  0  0
   21.5679  -24.2533  -15.2911 C   0  0  0  0  0  0  0  0  0  0  0  0
   21.1763  -24.1714  -16.6113 O   0  0  0  0  0  0  0  0  0  0  0  0
   20.7333  -24.8988  -14.5496 O   0  0  0  0  0  0  0  0  0  0  0  0
  2  1  1  6
  2 13  1  0
  2  3  1  0
  3  4  1  0
  4  5  2  0
  5  6  1  0
  7  8  2  0
  7  6  1  0
  9  8  1  0
 10  9  2  0
 11 10  1  0
 11 12  2  0
 12  4  1  0
 12  7  1  0
 13 14  2  0
 13 15  1  0
 15 19  1  0
 15 16  1  0
 16 17  1  0
 18 17  1  0
 19 18  1  0
 19 20  1  1
 21 20  2  0
 22 20  1  0
 23 29  1  0
 23 22  1  0
 23 24  1  6
 25 24  1  0
 26 25  1  0
 27 26  1  0
 27 28  1  0
 29 30  1  0
 31 29  2  0
M  END
$$$$
