WPK.pdb
     RDKit          3D

 31 33  0  0  1  0  0  0  0  0999 V2000
   26.4126  -18.4679   -9.8061 N   0  0  0  0  0  0  0  0  0  0  0  0
   26.1159  -19.8738   -9.9156 C   0  0  1  0  0  0  0  0  0  0  0  0
   26.0222  -20.4393   -8.5229 C   0  0  0  0  0  0  0  0  0  0  0  0
   26.9965  -19.8737   -7.5980 C   0  0  0  0  0  0  0  0  0  0  0  0
   27.8270  -18.8088   -7.8517 C   0  0  0  0  0  0  0  0  0  0  0  0
   28.5702  -18.5935   -6.7523 N   0  0  0  0  0  0  0  0  0  0  0  0
   28.2706  -19.4649   -5.7843 C   0  0  0  0  0  0  0  0  0  0  0  0
   28.7488  -19.6444   -4.5035 C   0  0  0  0  0  0  0  0  0  0  0  0
   28.2483  -20.6453   -3.7040 C   0  0  0  0  0  0  0  0  0  0  0  0
   27.2599  -21.4645   -4.2084 C   0  0  0  0  0  0  0  0  0  0  0  0
   26.7907  -21.2792   -5.4814 C   0  0  0  0  0  0  0  0  0  0  0  0
   27.2688  -20.2842   -6.3149 C   0  0  0  0  0  0  0  0  0  0  0  0
   24.9346  -20.1886  -10.7401 C   0  0  0  0  0  0  0  0  0  0  0  0
   23.8475  -19.6036  -10.4486 O   0  0  0  0  0  0  0  0  0  0  0  0
   24.9077  -21.0934  -11.8358 N   0  0  0  0  0  0  0  0  0  0  0  0
   25.8636  -22.1342  -12.1340 C   0  0  0  0  0  0  0  0  0  0  0  0
   25.5229  -22.6393  -13.5321 C   0  0  0  0  0  0  0  0  0  0  0  0
   24.6478  -21.5082  -14.0954 C   0  0  0  0  0  0  0  0  0  0  0  0
   23.8900  -21.1197  -12.8491 C   0  0  1  0  0  0  0  0  0  0  0  0
   22.8499  -22.1420  -12.6089 C   0  0  0  0  0  0  0  0  0  0  0  0
   23.2625  -23.2445  -12.1292 O   0  0  0  0  0  0  0  0  0  0  0  0
   21.4874  -21.9756  -12.8687 N   0  0  0  0  0  0  0  0  0  0  0  0
   20.4548  -22.9494  -12.3240 C   0  0  1  0  0  0  0  0  0  0  0  0
   20.2497  -22.5319  -10.9388 C   0  0  0  0  0  0  0  0  0  0  0  0
   19.5090  -23.3380   -9.9561 C   0  0  0  0  0  0  0  0  0  0  0  0
   19.3618  -22.7066   -8.6312 C   0  0  0  0  0  0  0  0  0  0  0  0
   18.6118  -23.6092   -7.6452 C   0  0  0  0  0  0  0  0  0  0  0  0
   19.6277  -24.1600   -6.7483 N   0  0  0  0  0  0  0  0  0  0  0  0
   19.4274  -23.1338  -13.2921 C   0  0  0  0  0  0  0  0  0  0  0  0
   18.6136  -24.2302  -13.4883 O   0  0  0  0  0  0  0  0  0  0  0  0
   19.2019  -22.1746  -14.1240 O   0  0  0  0  0  0  0  0  0  0  0  0
  2  1  1  1
  2 13  1  0
  2  3  1  0
  3  4  1  0
  4  5  2  0
  5  6  1  0
  7  8  2  0
  7  6  1  0
  9  8  1  0
 10  9  2  0
 11 10  1  0
 11 12  2  0
 12  4  1  0
 12  7  1  0
 13 14  2  0
 13 15  1  0
 15 19  1  0
 15 16  1  0
 16 17  1  0
 18 17  1  0
 19 18  1  0
 19 20  1  1
 21 20  2  0
 22 20  1  0
 23 29  1  0
 23 22  1  0
 23 24  1  1
 25 24  1  0
 26 25  1  0
 27 26  1  0
 27 28  1  0
 29 30  1  0
 31 29  2  0
M  END
$$$$
