WPK.pdb
     RDKit          3D

 31 33  0  0  1  0  0  0  0  0999 V2000
   25.6599  -19.1617  -17.5608 N   0  0  0  0  0  0  0  0  0  0  0  0
   26.3890  -18.7803  -16.3778 C   0  0  1  0  0  0  0  0  0  0  0  0
   25.8292  -17.4707  -15.8883 C   0  0  0  0  0  0  0  0  0  0  0  0
   24.4559  -17.2293  -16.3130 C   0  0  0  0  0  0  0  0  0  0  0  0
   23.3788  -18.0457  -16.0650 C   0  0  0  0  0  0  0  0  0  0  0  0
   22.2931  -17.4761  -16.6165 N   0  0  0  0  0  0  0  0  0  0  0  0
   22.6011  -16.3226  -17.2171 C   0  0  0  0  0  0  0  0  0  0  0  0
   21.8493  -15.3943  -17.9059 C   0  0  0  0  0  0  0  0  0  0  0  0
   22.4387  -14.2686  -18.4322 C   0  0  0  0  0  0  0  0  0  0  0  0
   23.7948  -14.0874  -18.2573 C   0  0  0  0  0  0  0  0  0  0  0  0
   24.5339  -15.0142  -17.5719 C   0  0  0  0  0  0  0  0  0  0  0  0
   23.9772  -16.1579  -17.0285 C   0  0  0  0  0  0  0  0  0  0  0  0
   26.4318  -19.8119  -15.3249 C   0  0  0  0  0  0  0  0  0  0  0  0
   25.5813  -20.7505  -15.3935 O   0  0  0  0  0  0  0  0  0  0  0  0
   27.3452  -19.8459  -14.2366 N   0  0  0  0  0  0  0  0  0  0  0  0
   28.3890  -18.8925  -13.9409 C   0  0  0  0  0  0  0  0  0  0  0  0
   29.2335  -19.5135  -12.8332 C   0  0  0  0  0  0  0  0  0  0  0  0
   28.8403  -20.9979  -12.9013 C   0  0  0  0  0  0  0  0  0  0  0  0
   27.3717  -20.8639  -13.2236 C   0  0  1  0  0  0  0  0  0  0  0  0
   26.6650  -20.4765  -11.9846 C   0  0  0  0  0  0  0  0  0  0  0  0
   26.6412  -19.2311  -11.7313 O   0  0  0  0  0  0  0  0  0  0  0  0
   26.0433  -21.3660  -11.1050 N   0  0  0  0  0  0  0  0  0  0  0  0
   24.9474  -20.9041  -10.1580 C   0  0  1  0  0  0  0  0  0  0  0  0
   23.8150  -21.7801  -10.4501 C   0  0  0  0  0  0  0  0  0  0  0  0
   22.4500  -21.5198   -9.9670 C   0  0  0  0  0  0  0  0  0  0  0  0
   21.4225  -21.4803  -11.0245 C   0  0  0  0  0  0  0  0  0  0  0  0
   20.0272  -21.1932  -10.4588 C   0  0  0  0  0  0  0  0  0  0  0  0
   19.1207  -21.1786  -11.6068 N   0  0  0  0  0  0  0  0  0  0  0  0
   25.5062  -20.6784   -8.8682 C   0  0  0  0  0  0  0  0  0  0  0  0
   25.0278  -19.8830   -7.8478 O   0  0  0  0  0  0  0  0  0  0  0  0
   26.6147  -21.2701   -8.5781 O   0  0  0  0  0  0  0  0  0  0  0  0
  2  1  1  6
  2 13  1  0
  2  3  1  0
  3  4  1  0
  4  5  2  0
  5  6  1  0
  7  8  2  0
  7  6  1  0
  9  8  1  0
 10  9  2  0
 11 10  1  0
 11 12  2  0
 12  4  1  0
 12  7  1  0
 13 14  2  0
 13 15  1  0
 15 19  1  0
 15 16  1  0
 16 17  1  0
 18 17  1  0
 19 18  1  0
 19 20  1  1
 21 20  2  0
 22 20  1  0
 23 29  1  0
 23 22  1  0
 23 24  1  1
 25 24  1  0
 26 25  1  0
 27 26  1  0
 27 28  1  0
 29 30  1  0
 31 29  2  0
M  END
$$$$
