LFI.pdb
     RDKit          3D

 28 28  0  0  1  0  0  0  0  0999 V2000
   27.9424  -17.3847  -15.1636 C   0  0  0  0  0  0  0  0  0  0  0  0
   28.6678  -18.5029  -14.4163 C   0  0  1  0  0  0  0  0  0  0  0  0
   30.1272  -18.1816  -14.4539 C   0  0  0  0  0  0  0  0  0  0  0  0
   28.1008  -18.5696  -13.0186 C   0  0  0  0  0  0  0  0  0  0  0  0
   28.7390  -19.6445  -12.1809 C   0  0  2  0  0  0  0  0  0  0  0  0
   29.4137  -20.6308  -13.0004 N   0  0  0  0  0  0  0  0  0  0  0  0
   27.6650  -20.2667  -11.3624 C   0  0  0  0  0  0  0  0  0  0  0  0
   27.2617  -21.4255  -11.6358 O   0  0  0  0  0  0  0  0  0  0  0  0
   27.0508  -19.6004  -10.2529 N   0  0  0  0  0  0  0  0  0  0  0  0
   25.9856  -20.2153   -9.4846 C   0  0  1  0  0  0  0  0  0  0  0  0
   25.7274  -19.3979   -8.2366 C   0  0  0  0  0  0  0  0  0  0  0  0
   26.7161  -19.7291   -7.1801 C   0  0  0  0  0  0  0  0  0  0  0  0
   27.8063  -18.9393   -6.9559 C   0  0  0  0  0  0  0  0  0  0  0  0
   28.7000  -19.2738   -5.9715 C   0  0  0  0  0  0  0  0  0  0  0  0
   28.5439  -20.3883   -5.1868 C   0  0  0  0  0  0  0  0  0  0  0  0
   27.4447  -21.1919   -5.4070 C   0  0  0  0  0  0  0  0  0  0  0  0
   26.5462  -20.8533   -6.3987 C   0  0  0  0  0  0  0  0  0  0  0  0
   24.7938  -20.3310  -10.3362 C   0  0  0  0  0  0  0  0  0  0  0  0
   24.3634  -19.3349  -11.0140 O   0  0  0  0  0  0  0  0  0  0  0  0
   24.5503  -23.9974  -14.0878 C   0  0  0  0  0  0  0  0  0  0  0  0
   24.3243  -22.7598  -13.2597 C   0  0  0  0  0  0  0  0  0  0  0  0
   23.1567  -22.8486  -12.3482 C   0  0  2  0  0  0  0  0  0  0  0  0
   21.8563  -23.1092  -13.0917 C   0  0  0  0  0  0  0  0  0  0  0  0
   22.9501  -21.7005  -11.4196 C   0  0  2  0  0  0  0  0  0  0  0  0
   24.0359  -21.5261  -10.4780 N   0  0  0  0  0  0  0  0  0  0  0  0
   21.6288  -21.6275  -10.7945 C   0  0  0  0  0  0  0  0  0  0  0  0
   21.3708  -21.7852   -9.4604 O   0  0  0  0  0  0  0  0  0  0  0  0
   20.6244  -21.3983  -11.5474 O   0  0  0  0  0  0  0  0  0  0  0  0
  2  4  1  0
  2  1  1  6
  3  2  1  0
  5  4  1  0
  5  6  1  6
  7  8  2  0
  7  5  1  0
  9  7  1  0
 10  9  1  0
 10 11  1  1
 11 12  1  0
 12 13  2  0
 12 17  1  0
 13 14  1  0
 14 15  2  0
 16 15  1  0
 17 16  2  0
 18 10  1  0
 19 18  2  0
 20 21  1  0
 21 22  1  0
 22 23  1  6
 24 22  1  0
 24 25  1  1
 25 18  1  0
 26 24  1  0
 27 26  1  0
 28 26  2  0
M  END
$$$$
