LFI.pdb
     RDKit          3D

 28 28  0  0  1  0  0  0  0  0999 V2000
   21.4986  -22.0201  -13.9224 C   0  0  0  0  0  0  0  0  0  0  0  0
   22.9045  -21.4397  -14.0699 C   0  0  1  0  0  0  0  0  0  0  0  0
   22.7761  -19.9524  -13.9935 C   0  0  0  0  0  0  0  0  0  0  0  0
   23.7653  -22.0277  -12.9778 C   0  0  0  0  0  0  0  0  0  0  0  0
   25.1331  -21.4035  -12.9133 C   0  0  2  0  0  0  0  0  0  0  0  0
   26.0553  -22.0412  -13.8312 N   0  0  0  0  0  0  0  0  0  0  0  0
   25.6067  -21.5147  -11.5085 C   0  0  0  0  0  0  0  0  0  0  0  0
   25.8592  -22.6455  -11.0209 O   0  0  0  0  0  0  0  0  0  0  0  0
   25.7951  -20.3752  -10.6610 N   0  0  0  0  0  0  0  0  0  0  0  0
   26.3692  -20.4939   -9.3345 C   0  0  1  0  0  0  0  0  0  0  0  0
   27.2216  -19.2771   -9.0432 C   0  0  0  0  0  0  0  0  0  0  0  0
   27.8422  -19.3824   -7.6989 C   0  0  0  0  0  0  0  0  0  0  0  0
   27.3973  -18.6295   -6.6511 C   0  0  0  0  0  0  0  0  0  0  0  0
   27.9927  -18.7517   -5.4221 C   0  0  0  0  0  0  0  0  0  0  0  0
   29.0356  -19.6136   -5.1947 C   0  0  0  0  0  0  0  0  0  0  0  0
   29.4913  -20.3781   -6.2484 C   0  0  0  0  0  0  0  0  0  0  0  0
   28.8905  -20.2535   -7.4849 C   0  0  0  0  0  0  0  0  0  0  0  0
   25.2814  -20.6631   -8.3614 C   0  0  0  0  0  0  0  0  0  0  0  0
   24.2143  -19.9607   -8.4303 O   0  0  0  0  0  0  0  0  0  0  0  0
   25.5992  -24.3200   -3.7313 C   0  0  0  0  0  0  0  0  0  0  0  0
   25.4958  -23.0210   -4.4865 C   0  0  0  0  0  0  0  0  0  0  0  0
   24.4030  -22.9917   -5.4899 C   0  0  2  0  0  0  0  0  0  0  0  0
   24.4528  -24.1778   -6.4397 C   0  0  0  0  0  0  0  0  0  0  0  0
   24.2743  -21.7439   -6.2958 C   0  0  2  0  0  0  0  0  0  0  0  0
   25.3179  -21.5959   -7.2883 N   0  0  0  0  0  0  0  0  0  0  0  0
   24.0327  -20.5216   -5.5280 C   0  0  0  0  0  0  0  0  0  0  0  0
   22.9541  -20.2914   -4.7189 O   0  0  0  0  0  0  0  0  0  0  0  0
   24.8939  -19.5837   -5.6128 O   0  0  0  0  0  0  0  0  0  0  0  0
  2  4  1  0
  2  1  1  1
  3  2  1  0
  5  4  1  0
  5  6  1  6
  7  8  2  0
  7  5  1  0
  9  7  1  0
 10  9  1  0
 10 11  1  1
 11 12  1  0
 12 13  2  0
 12 17  1  0
 13 14  1  0
 14 15  2  0
 16 15  1  0
 17 16  2  0
 18 10  1  0
 19 18  2  0
 20 21  1  0
 21 22  1  0
 22 23  1  6
 24 22  1  0
 24 25  1  1
 25 18  1  0
 26 24  1  0
 27 26  1  0
 28 26  2  0
M  END
$$$$
