LFI.pdb
     RDKit          3D

 28 28  0  0  1  0  0  0  0  0999 V2000
   27.3773  -22.2151  -15.4043 C   0  0  0  0  0  0  0  0  0  0  0  0
   26.5677  -21.2094  -14.5869 C   0  0  1  0  0  0  0  0  0  0  0  0
   25.3429  -20.8837  -15.3794 C   0  0  0  0  0  0  0  0  0  0  0  0
   26.2696  -21.8356  -13.2458 C   0  0  0  0  0  0  0  0  0  0  0  0
   25.5151  -20.9137  -12.3263 C   0  0  2  0  0  0  0  0  0  0  0  0
   25.6752  -19.5261  -12.7116 N   0  0  0  0  0  0  0  0  0  0  0  0
   26.0175  -21.1521  -10.9475 C   0  0  0  0  0  0  0  0  0  0  0  0
   26.0003  -22.3137  -10.4674 O   0  0  0  0  0  0  0  0  0  0  0  0
   26.5321  -20.1041  -10.1175 N   0  0  0  0  0  0  0  0  0  0  0  0
   26.9503  -20.3457   -8.7500 C   0  0  1  0  0  0  0  0  0  0  0  0
   28.0195  -19.3453   -8.3654 C   0  0  0  0  0  0  0  0  0  0  0  0
   28.4430  -19.5472   -6.9570 C   0  0  0  0  0  0  0  0  0  0  0  0
   29.1938  -20.6260   -6.5896 C   0  0  0  0  0  0  0  0  0  0  0  0
   29.5684  -20.7821   -5.2800 C   0  0  0  0  0  0  0  0  0  0  0  0
   29.2153  -19.8848   -4.3041 C   0  0  0  0  0  0  0  0  0  0  0  0
   28.4565  -18.7917   -4.6671 C   0  0  0  0  0  0  0  0  0  0  0  0
   28.0804  -18.6365   -5.9861 C   0  0  0  0  0  0  0  0  0  0  0  0
   25.7722  -20.2722   -7.8749 C   0  0  0  0  0  0  0  0  0  0  0  0
   24.8095  -19.4673   -8.1243 O   0  0  0  0  0  0  0  0  0  0  0  0
   20.8445  -21.8341   -6.2237 C   0  0  0  0  0  0  0  0  0  0  0  0
   22.1115  -21.8413   -5.4092 C   0  0  0  0  0  0  0  0  0  0  0  0
   23.3510  -21.9104   -6.2221 C   0  0  2  0  0  0  0  0  0  0  0  0
   23.9051  -23.3229   -6.3199 C   0  0  0  0  0  0  0  0  0  0  0  0
   24.4576  -20.9933   -5.8253 C   0  0  2  0  0  0  0  0  0  0  0  0
   25.6032  -21.0668   -6.7075 N   0  0  0  0  0  0  0  0  0  0  0  0
   24.8200  -21.0217   -4.4077 C   0  0  0  0  0  0  0  0  0  0  0  0
   26.0268  -21.4226   -3.9036 O   0  0  0  0  0  0  0  0  0  0  0  0
   23.9441  -20.6434   -3.5603 O   0  0  0  0  0  0  0  0  0  0  0  0
  2  4  1  0
  2  1  1  6
  3  2  1  0
  5  4  1  0
  5  6  1  6
  7  8  2  0
  7  5  1  0
  9  7  1  0
 10  9  1  0
 10 11  1  1
 11 12  1  0
 12 13  2  0
 12 17  1  0
 13 14  1  0
 14 15  2  0
 16 15  1  0
 17 16  2  0
 18 10  1  0
 19 18  2  0
 20 21  1  0
 21 22  1  0
 22 23  1  1
 24 22  1  0
 24 25  1  6
 25 18  1  0
 26 24  1  0
 27 26  1  0
 28 26  2  0
M  END
$$$$
