LFI.pdb
     RDKit          3D

 28 28  0  0  1  0  0  0  0  0999 V2000
   26.2911  -22.5037  -20.2602 C   0  0  0  0  0  0  0  0  0  0  0  0
   27.1841  -22.1451  -19.0733 C   0  0  1  0  0  0  0  0  0  0  0  0
   27.3875  -20.6645  -19.1081 C   0  0  0  0  0  0  0  0  0  0  0  0
   26.5020  -22.6308  -17.8170 C   0  0  0  0  0  0  0  0  0  0  0  0
   27.2594  -22.2738  -16.5666 C   0  0  2  0  0  0  0  0  0  0  0  0
   28.3000  -23.2400  -16.2779 N   0  0  0  0  0  0  0  0  0  0  0  0
   26.2734  -22.1950  -15.4567 C   0  0  0  0  0  0  0  0  0  0  0  0
   25.8150  -23.2505  -14.9509 O   0  0  0  0  0  0  0  0  0  0  0  0
   25.8068  -20.9512  -14.9206 N   0  0  0  0  0  0  0  0  0  0  0  0
   24.8417  -20.8973  -13.8394 C   0  0  1  0  0  0  0  0  0  0  0  0
   25.2347  -19.8059  -12.8665 C   0  0  0  0  0  0  0  0  0  0  0  0
   25.2359  -20.3212  -11.4744 C   0  0  0  0  0  0  0  0  0  0  0  0
   26.3259  -20.9565  -10.9539 C   0  0  0  0  0  0  0  0  0  0  0  0
   26.2938  -21.4199   -9.6639 C   0  0  0  0  0  0  0  0  0  0  0  0
   25.1937  -21.2703   -8.8579 C   0  0  0  0  0  0  0  0  0  0  0  0
   24.0879  -20.6294   -9.3763 C   0  0  0  0  0  0  0  0  0  0  0  0
   24.1223  -20.1637  -10.6753 C   0  0  0  0  0  0  0  0  0  0  0  0
   23.5039  -20.6860  -14.4093 C   0  0  0  0  0  0  0  0  0  0  0  0
   23.3140  -19.8606  -15.3681 O   0  0  0  0  0  0  0  0  0  0  0  0
   18.7505  -23.0798  -16.9199 C   0  0  0  0  0  0  0  0  0  0  0  0
   19.1525  -22.0091  -15.9397 C   0  0  0  0  0  0  0  0  0  0  0  0
   20.5041  -22.2004  -15.3579 C   0  0  2  0  0  0  0  0  0  0  0  0
   20.6424  -23.5287  -14.6311 C   0  0  0  0  0  0  0  0  0  0  0  0
   21.0018  -21.1163  -14.4634 C   0  0  2  0  0  0  0  0  0  0  0  0
   22.3363  -21.3614  -13.9584 N   0  0  0  0  0  0  0  0  0  0  0  0
   20.0661  -20.6767  -13.4276 C   0  0  0  0  0  0  0  0  0  0  0  0
   18.7898  -20.2351  -13.6449 O   0  0  0  0  0  0  0  0  0  0  0  0
   20.4630  -20.7024  -12.2151 O   0  0  0  0  0  0  0  0  0  0  0  0
  2  4  1  0
  2  1  1  6
  3  2  1  0
  5  4  1  0
  5  6  1  1
  7  8  2  0
  7  5  1  0
  9  7  1  0
 10  9  1  0
 10 11  1  1
 11 12  1  0
 12 13  2  0
 12 17  1  0
 13 14  1  0
 14 15  2  0
 16 15  1  0
 17 16  2  0
 18 10  1  0
 19 18  2  0
 20 21  1  0
 21 22  1  0
 22 23  1  1
 24 22  1  0
 24 25  1  1
 25 18  1  0
 26 24  1  0
 27 26  1  0
 28 26  2  0
M  END
$$$$
