LFI.pdb
     RDKit          3D

 28 28  0  0  1  0  0  0  0  0999 V2000
   28.3047  -22.4468  -15.5798 C   0  0  0  0  0  0  0  0  0  0  0  0
   27.5110  -21.3103  -14.9369 C   0  0  1  0  0  0  0  0  0  0  0  0
   26.4824  -20.8757  -15.9307 C   0  0  0  0  0  0  0  0  0  0  0  0
   26.9222  -21.8284  -13.6468 C   0  0  0  0  0  0  0  0  0  0  0  0
   26.2069  -20.7620  -12.8623 C   0  0  2  0  0  0  0  0  0  0  0  0
   26.6802  -19.4366  -13.2072 N   0  0  0  0  0  0  0  0  0  0  0  0
   26.4201  -21.0527  -11.4200 C   0  0  0  0  0  0  0  0  0  0  0  0
   26.1442  -22.1909  -10.9635 O   0  0  0  0  0  0  0  0  0  0  0  0
   26.9354  -20.0819  -10.5010 N   0  0  0  0  0  0  0  0  0  0  0  0
   27.0244  -20.3463   -9.0779 C   0  0  1  0  0  0  0  0  0  0  0  0
   28.0549  -19.4267   -8.4576 C   0  0  0  0  0  0  0  0  0  0  0  0
   28.1597  -19.6678   -6.9967 C   0  0  0  0  0  0  0  0  0  0  0  0
   28.7231  -20.8093   -6.5045 C   0  0  0  0  0  0  0  0  0  0  0  0
   28.8046  -21.0002   -5.1493 C   0  0  0  0  0  0  0  0  0  0  0  0
   28.3362  -20.0771   -4.2490 C   0  0  0  0  0  0  0  0  0  0  0  0
   27.7654  -18.9207   -4.7381 C   0  0  0  0  0  0  0  0  0  0  0  0
   27.6842  -18.7305   -6.1029 C   0  0  0  0  0  0  0  0  0  0  0  0
   25.6921  -20.1795   -8.4812 C   0  0  0  0  0  0  0  0  0  0  0  0
   25.0320  -19.0930   -8.6250 O   0  0  0  0  0  0  0  0  0  0  0  0
   21.5323  -21.4731  -10.3130 C   0  0  0  0  0  0  0  0  0  0  0  0
   22.5462  -20.8578   -9.3846 C   0  0  0  0  0  0  0  0  0  0  0  0
   22.6326  -21.5215   -8.0602 C   0  0  2  0  0  0  0  0  0  0  0  0
   21.3130  -21.4893   -7.3057 C   0  0  0  0  0  0  0  0  0  0  0  0
   23.7121  -21.0463   -7.1481 C   0  0  2  0  0  0  0  0  0  0  0  0
   25.0377  -21.1824   -7.7139 N   0  0  0  0  0  0  0  0  0  0  0  0
   23.6238  -21.5232   -5.7674 C   0  0  0  0  0  0  0  0  0  0  0  0
   22.9193  -20.9204   -4.7617 O   0  0  0  0  0  0  0  0  0  0  0  0
   24.2535  -22.5907   -5.4634 O   0  0  0  0  0  0  0  0  0  0  0  0
  2  4  1  0
  2  1  1  6
  3  2  1  0
  5  4  1  0
  5  6  1  6
  7  8  2  0
  7  5  1  0
  9  7  1  0
 10  9  1  0
 10 11  1  1
 11 12  1  0
 12 13  2  0
 12 17  1  0
 13 14  1  0
 14 15  2  0
 16 15  1  0
 17 16  2  0
 18 10  1  0
 19 18  2  0
 20 21  1  0
 21 22  1  0
 22 23  1  1
 24 22  1  0
 24 25  1  6
 25 18  1  0
 26 24  1  0
 27 26  1  0
 28 26  2  0
M  END
$$$$
