GND.pdb
     RDKit          3D

 21 20  0  0  1  0  0  0  0  0999 V2000
   15.5311  -11.5005  -14.1575 N   0  0  0  0  0  0  0  0  0  0  0  0
   15.7738  -10.1549  -14.5826 C   0  0  0  0  0  0  0  0  0  0  0  0
   17.0810  -10.0322  -15.3406 C   0  0  0  0  0  0  0  0  0  0  0  0
   17.5285  -11.1171  -15.7648 O   0  0  0  0  0  0  0  0  0  0  0  0
   20.1153  -10.4710  -18.0105 N   0  0  0  0  0  0  0  0  0  0  0  0
   19.0167   -9.7056  -18.5976 C   0  0  0  0  0  0  0  0  0  0  0  0
   18.7801  -10.0225  -19.7689 O   0  0  0  0  0  0  0  0  0  0  0  0
   18.3999   -8.7282  -17.7388 C   0  0  0  0  0  0  0  0  0  0  0  0
   18.8522   -8.5698  -16.3190 C   0  0  2  0  0  0  0  0  0  0  0  0
   17.6371   -8.7634  -15.4858 N   0  0  0  0  0  0  0  0  0  0  0  0
   19.4494   -7.2705  -15.9718 C   0  0  0  0  0  0  0  0  0  0  0  0
   18.6884   -6.2304  -16.0056 O   0  0  0  0  0  0  0  0  0  0  0  0
   20.7918   -7.0795  -15.5968 N   0  0  0  0  0  0  0  0  0  0  0  0
   21.3095   -5.7603  -15.2376 C   0  0  1  0  0  0  0  0  0  0  0  0
   20.8974   -5.3774  -13.8389 C   0  0  0  0  0  0  0  0  0  0  0  0
   21.4118   -4.0502  -13.4545 C   0  0  0  0  0  0  0  0  0  0  0  0
   22.5108   -3.9795  -12.8571 O   0  0  0  0  0  0  0  0  0  0  0  0
   22.7485   -5.6512  -15.5052 C   0  0  0  0  0  0  0  0  0  0  0  0
   23.4245   -6.6665  -15.7482 O   0  0  0  0  0  0  0  0  0  0  0  0
   20.7364   -2.8713  -13.7225 O   0  0  0  0  0  0  0  0  0  0  0  0
   23.3689   -4.4186  -15.4906 O   0  0  0  0  0  0  0  0  0  0  0  0
  2  1  1  0
  3  2  1  0
  3 10  1  0
  4  3  2  0
  5  6  1  0
  6  7  2  0
  6  8  1  0
  9  8  1  6
 10  9  1  0
 11  9  1  0
 12 11  2  0
 13 11  1  0
 14 13  1  0
 14 15  1  1
 16 15  1  0
 16 17  2  0
 18 14  1  0
 18 21  1  0
 19 18  2  0
 20 16  1  0
M  END
$$$$
