GND.pdb
     RDKit          3D

 21 20  0  0  1  0  0  0  0  0999 V2000
   28.0478  -22.9492  -16.4743 N   0  0  0  0  0  0  0  0  0  0  0  0
   27.4059  -21.7715  -15.9730 C   0  0  0  0  0  0  0  0  0  0  0  0
   26.2884  -22.1092  -15.0056 C   0  0  0  0  0  0  0  0  0  0  0  0
   25.8102  -23.2517  -15.1574 O   0  0  0  0  0  0  0  0  0  0  0  0
   27.5552  -20.5503  -10.9099 N   0  0  0  0  0  0  0  0  0  0  0  0
   26.3314  -21.3434  -11.0146 C   0  0  0  0  0  0  0  0  0  0  0  0
   26.3913  -22.4073  -10.3878 O   0  0  0  0  0  0  0  0  0  0  0  0
   25.2766  -20.7727  -11.8114 C   0  0  0  0  0  0  0  0  0  0  0  0
   24.8437  -21.4325  -13.0852 C   0  0  2  0  0  0  0  0  0  0  0  0
   25.9165  -21.1444  -14.0723 N   0  0  0  0  0  0  0  0  0  0  0  0
   23.5628  -20.9755  -13.6472 C   0  0  0  0  0  0  0  0  0  0  0  0
   23.5088  -19.7802  -14.1272 O   0  0  0  0  0  0  0  0  0  0  0  0
   22.3909  -21.7516  -13.7069 N   0  0  0  0  0  0  0  0  0  0  0  0
   21.1443  -21.2206  -14.2557 C   0  0  1  0  0  0  0  0  0  0  0  0
   20.2881  -22.3231  -14.8249 C   0  0  0  0  0  0  0  0  0  0  0  0
   19.0160  -21.8117  -15.3672 C   0  0  0  0  0  0  0  0  0  0  0  0
   17.9529  -22.0715  -14.7572 O   0  0  0  0  0  0  0  0  0  0  0  0
   20.4598  -20.3443  -13.2976 C   0  0  0  0  0  0  0  0  0  0  0  0
   20.4443  -20.6235  -12.0857 O   0  0  0  0  0  0  0  0  0  0  0  0
   18.9376  -21.0542  -16.5239 O   0  0  0  0  0  0  0  0  0  0  0  0
   19.8248  -19.1984  -13.7312 O   0  0  0  0  0  0  0  0  0  0  0  0
  2  1  1  0
  3  2  1  0
  3 10  1  0
  4  3  2  0
  5  6  1  0
  6  7  2  0
  6  8  1  0
  9  8  1  1
 10  9  1  0
 11  9  1  0
 12 11  2  0
 13 11  1  0
 14 13  1  0
 14 15  1  1
 16 15  1  0
 16 17  2  0
 18 14  1  0
 18 21  1  0
 19 18  2  0
 20 16  1  0
M  END
$$$$
