GND.pdb
     RDKit          3D

 21 20  0  0  1  0  0  0  0  0999 V2000
   18.8677  -12.0296  -15.5083 N   0  0  0  0  0  0  0  0  0  0  0  0
   19.7583  -11.5215  -16.5076 C   0  0  0  0  0  0  0  0  0  0  0  0
   20.9479  -10.8115  -15.8916 C   0  0  0  0  0  0  0  0  0  0  0  0
   21.5595  -11.4869  -15.0390 O   0  0  0  0  0  0  0  0  0  0  0  0
   25.6433  -10.0430  -14.8456 N   0  0  0  0  0  0  0  0  0  0  0  0
   24.9268   -9.1709  -15.7749 C   0  0  0  0  0  0  0  0  0  0  0  0
   25.5813   -8.1749  -16.1035 O   0  0  0  0  0  0  0  0  0  0  0  0
   23.6048   -9.6006  -16.1506 C   0  0  0  0  0  0  0  0  0  0  0  0
   22.4045   -8.7875  -15.7718 C   0  0  2  0  0  0  0  0  0  0  0  0
   21.2336   -9.5182  -16.3226 N   0  0  0  0  0  0  0  0  0  0  0  0
   22.3709   -7.4077  -16.2820 C   0  0  0  0  0  0  0  0  0  0  0  0
   22.2471   -7.2396  -17.5542 O   0  0  0  0  0  0  0  0  0  0  0  0
   22.4562   -6.2543  -15.4811 N   0  0  0  0  0  0  0  0  0  0  0  0
   22.4365   -4.9124  -16.0610 C   0  0  1  0  0  0  0  0  0  0  0  0
   21.6690   -3.9538  -15.1865 C   0  0  0  0  0  0  0  0  0  0  0  0
   20.2341   -4.2875  -15.1265 C   0  0  0  0  0  0  0  0  0  0  0  0
   19.6096   -4.4588  -16.1990 O   0  0  0  0  0  0  0  0  0  0  0  0
   23.7835   -4.4617  -16.4310 C   0  0  0  0  0  0  0  0  0  0  0  0
   24.7805   -5.1462  -16.1406 O   0  0  0  0  0  0  0  0  0  0  0  0
   19.5385   -4.4216  -13.9365 O   0  0  0  0  0  0  0  0  0  0  0  0
   23.9593   -3.2716  -17.1070 O   0  0  0  0  0  0  0  0  0  0  0  0
  2  1  1  0
  3  2  1  0
  3 10  1  0
  4  3  2  0
  5  6  1  0
  6  7  2  0
  6  8  1  0
  9  8  1  6
 10  9  1  0
 11  9  1  0
 12 11  2  0
 13 11  1  0
 14 13  1  0
 14 15  1  1
 16 15  1  0
 16 17  2  0
 18 14  1  0
 18 21  1  0
 19 18  2  0
 20 16  1  0
M  END
$$$$
