GND.pdb
     RDKit          3D

 21 20  0  0  1  0  0  0  0  0999 V2000
   15.5864  -14.1435  -14.4597 N   0  0  0  0  0  0  0  0  0  0  0  0
   15.8577  -13.3591  -15.6265 C   0  0  0  0  0  0  0  0  0  0  0  0
   17.0932  -12.4983  -15.4500 C   0  0  0  0  0  0  0  0  0  0  0  0
   17.3318  -12.1851  -14.2659 O   0  0  0  0  0  0  0  0  0  0  0  0
   21.6994  -10.4517  -16.2646 N   0  0  0  0  0  0  0  0  0  0  0  0
   21.3652  -11.3582  -17.3619 C   0  0  0  0  0  0  0  0  0  0  0  0
   22.3515  -11.6938  -18.0275 O   0  0  0  0  0  0  0  0  0  0  0  0
   19.9742  -11.7076  -17.4895 C   0  0  0  0  0  0  0  0  0  0  0  0
   18.9730  -11.2229  -16.4855 C   0  0  2  0  0  0  0  0  0  0  0  0
   17.8182  -12.1523  -16.5880 N   0  0  0  0  0  0  0  0  0  0  0  0
   18.4800   -9.8494  -16.6752 C   0  0  0  0  0  0  0  0  0  0  0  0
   17.7368   -9.6135  -17.7018 O   0  0  0  0  0  0  0  0  0  0  0  0
   18.7541   -8.7727  -15.8122 N   0  0  0  0  0  0  0  0  0  0  0  0
   18.2470   -7.4273  -16.0766 C   0  0  1  0  0  0  0  0  0  0  0  0
   17.1978   -7.0341  -15.0680 C   0  0  0  0  0  0  0  0  0  0  0  0
   16.7452   -5.6433  -15.2540 C   0  0  0  0  0  0  0  0  0  0  0  0
   16.9685   -4.8101  -14.3454 O   0  0  0  0  0  0  0  0  0  0  0  0
   19.3378   -6.4584  -16.2371 C   0  0  0  0  0  0  0  0  0  0  0  0
   20.5160   -6.7919  -16.0188 O   0  0  0  0  0  0  0  0  0  0  0  0
   16.0818   -5.2099  -16.3897 O   0  0  0  0  0  0  0  0  0  0  0  0
   19.0682   -5.1642  -16.6330 O   0  0  0  0  0  0  0  0  0  0  0  0
  2  1  1  0
  3  2  1  0
  3 10  1  0
  4  3  2  0
  5  6  1  0
  6  7  2  0
  6  8  1  0
  9  8  1  6
 10  9  1  0
 11  9  1  0
 12 11  2  0
 13 11  1  0
 14 13  1  0
 14 15  1  1
 16 15  1  0
 16 17  2  0
 18 14  1  0
 18 21  1  0
 19 18  2  0
 20 16  1  0
M  END
$$$$
