GND.pdb
     RDKit          3D

 21 20  0  0  1  0  0  0  0  0999 V2000
   15.9919  -10.5690  -16.1914 N   0  0  0  0  0  0  0  0  0  0  0  0
   16.3525   -9.1837  -16.1606 C   0  0  0  0  0  0  0  0  0  0  0  0
   17.7743   -8.9838  -15.6738 C   0  0  0  0  0  0  0  0  0  0  0  0
   17.8781   -8.8683  -14.4357 O   0  0  0  0  0  0  0  0  0  0  0  0
   20.9448  -11.5411  -15.9173 N   0  0  0  0  0  0  0  0  0  0  0  0
   21.2985  -10.8899  -17.1776 C   0  0  0  0  0  0  0  0  0  0  0  0
   21.7902  -11.6693  -18.0017 O   0  0  0  0  0  0  0  0  0  0  0  0
   21.0241   -9.4786  -17.2566 C   0  0  0  0  0  0  0  0  0  0  0  0
   20.2086   -8.8019  -16.1971 C   0  0  2  0  0  0  0  0  0  0  0  0
   18.7928   -8.9498  -16.6234 N   0  0  0  0  0  0  0  0  0  0  0  0
   20.4814   -7.3713  -15.9864 C   0  0  0  0  0  0  0  0  0  0  0  0
   20.2980   -6.5711  -16.9805 O   0  0  0  0  0  0  0  0  0  0  0  0
   20.9216   -6.8089  -14.7744 N   0  0  0  0  0  0  0  0  0  0  0  0
   21.1582   -5.3731  -14.6341 C   0  0  1  0  0  0  0  0  0  0  0  0
   19.8690   -4.5979  -14.7326 C   0  0  0  0  0  0  0  0  0  0  0  0
   20.0746   -3.1532  -14.5216 C   0  0  0  0  0  0  0  0  0  0  0  0
   21.2007   -2.6624  -14.7676 O   0  0  0  0  0  0  0  0  0  0  0  0
   21.9675   -5.0702  -13.4477 C   0  0  0  0  0  0  0  0  0  0  0  0
   22.2662   -5.9682  -12.6407 O   0  0  0  0  0  0  0  0  0  0  0  0
   19.0789   -2.3073  -14.0623 O   0  0  0  0  0  0  0  0  0  0  0  0
   22.4075   -3.7833  -13.2139 O   0  0  0  0  0  0  0  0  0  0  0  0
  2  1  1  0
  3  2  1  0
  3 10  1  0
  4  3  2  0
  5  6  1  0
  6  7  2  0
  6  8  1  0
  9  8  1  6
 10  9  1  0
 11  9  1  0
 12 11  2  0
 13 11  1  0
 14 13  1  0
 14 15  1  1
 16 15  1  0
 16 17  2  0
 18 14  1  0
 18 21  1  0
 19 18  2  0
 20 16  1  0
M  END
$$$$
