GND.pdb
     RDKit          3D

 21 20  0  0  1  0  0  0  0  0999 V2000
   16.9421  -11.4401  -14.3327 N   0  0  0  0  0  0  0  0  0  0  0  0
   16.2411  -11.9642  -13.1995 C   0  0  0  0  0  0  0  0  0  0  0  0
   15.3789  -10.9090  -12.5348 C   0  0  0  0  0  0  0  0  0  0  0  0
   14.6746  -10.2520  -13.3281 O   0  0  0  0  0  0  0  0  0  0  0  0
   12.2113   -8.8059   -9.3178 N   0  0  0  0  0  0  0  0  0  0  0  0
   12.8167   -9.9720   -8.6766 C   0  0  0  0  0  0  0  0  0  0  0  0
   12.1688  -10.3790   -7.7056 O   0  0  0  0  0  0  0  0  0  0  0  0
   14.0415  -10.4496   -9.2641 C   0  0  0  0  0  0  0  0  0  0  0  0
   14.6385   -9.7536  -10.4493 C   0  0  2  0  0  0  0  0  0  0  0  0
   15.4536  -10.7797  -11.1500 N   0  0  0  0  0  0  0  0  0  0  0  0
   15.5019   -8.5991  -10.1540 C   0  0  0  0  0  0  0  0  0  0  0  0
   16.6550   -8.8299   -9.6258 O   0  0  0  0  0  0  0  0  0  0  0  0
   15.1643   -7.2582  -10.4133 N   0  0  0  0  0  0  0  0  0  0  0  0
   16.0928   -6.1640  -10.1344 C   0  0  1  0  0  0  0  0  0  0  0  0
   16.8766   -5.7891  -11.3664 C   0  0  0  0  0  0  0  0  0  0  0  0
   17.7194   -4.5997  -11.1453 C   0  0  0  0  0  0  0  0  0  0  0  0
   17.3702   -3.5102  -11.6557 O   0  0  0  0  0  0  0  0  0  0  0  0
   15.4228   -5.0409   -9.4678 C   0  0  0  0  0  0  0  0  0  0  0  0
   14.1871   -4.9148   -9.5314 O   0  0  0  0  0  0  0  0  0  0  0  0
   18.8844   -4.6274  -10.3971 O   0  0  0  0  0  0  0  0  0  0  0  0
   16.1576   -4.1108   -8.7611 O   0  0  0  0  0  0  0  0  0  0  0  0
  2  1  1  0
  3  2  1  0
  3 10  1  0
  4  3  2  0
  5  6  1  0
  6  7  2  0
  6  8  1  0
  9  8  1  1
 10  9  1  0
 11  9  1  0
 12 11  2  0
 13 11  1  0
 14 13  1  0
 14 15  1  6
 16 15  1  0
 16 17  2  0
 18 14  1  0
 18 21  1  0
 19 18  2  0
 20 16  1  0
M  END
$$$$
