HAY.pdb
     RDKit          3D

 28 29  0  0  1  0  0  0  0  0999 V2000
   15.4719   -6.6653  -19.7206 N   0  0  0  0  0  0  0  0  0  0  0  0
   15.6614   -6.8392  -18.3094 C   0  0  1  0  0  0  0  0  0  0  0  0
   15.9326   -8.3248  -18.0752 C   0  0  0  0  0  0  0  0  0  0  0  0
   14.6492   -9.0511  -18.2606 C   0  0  0  0  0  0  0  0  0  0  0  0
   13.7976   -9.4912  -17.2412 C   0  0  0  0  0  0  0  0  0  0  0  0
   12.7430  -10.1031  -17.8035 N   0  0  0  0  0  0  0  0  0  0  0  0
   12.8948  -10.0661  -19.1198 C   0  0  0  0  0  0  0  0  0  0  0  0
   14.0527   -9.4275  -19.4099 N   0  0  0  0  0  0  0  0  0  0  0  0
   16.8364   -6.0919  -17.7961 C   0  0  0  0  0  0  0  0  0  0  0  0
   17.9221   -6.1144  -18.4303 O   0  0  0  0  0  0  0  0  0  0  0  0
   17.5542   -3.6133  -15.0077 C   0  0  0  0  0  0  0  0  0  0  0  0
   17.9393   -4.6401  -16.0481 C   0  0  2  0  0  0  0  0  0  0  0  0
   16.8079   -5.3301  -16.5956 N   0  0  0  0  0  0  0  0  0  0  0  0
   18.9521   -5.6022  -15.5330 C   0  0  0  0  0  0  0  0  0  0  0  0
   18.6752   -6.8352  -15.3898 O   0  0  0  0  0  0  0  0  0  0  0  0
   25.6226  -10.7504  -14.5843 O   0  0  0  0  0  0  0  0  0  0  0  0
   24.6167   -9.8642  -14.8950 C   0  0  0  0  0  0  0  0  0  0  0  0
   23.4991   -9.8244  -14.1075 C   0  0  0  0  0  0  0  0  0  0  0  0
   22.4850   -8.9342  -14.4168 C   0  0  0  0  0  0  0  0  0  0  0  0
   22.5985   -8.1020  -15.4992 C   0  0  0  0  0  0  0  0  0  0  0  0
   21.5207   -7.1605  -15.8223 C   0  0  0  0  0  0  0  0  0  0  0  0
   21.3137   -6.0918  -14.7933 C   0  0  2  0  0  0  0  0  0  0  0  0
   20.2508   -5.1885  -15.1853 N   0  0  0  0  0  0  0  0  0  0  0  0
   22.5639   -5.3596  -14.4697 C   0  0  0  0  0  0  0  0  0  0  0  0
   22.9449   -4.4307  -15.2255 O   0  0  0  0  0  0  0  0  0  0  0  0
   23.7263   -8.1614  -16.2706 C   0  0  0  0  0  0  0  0  0  0  0  0
   24.7476   -9.0344  -15.9874 C   0  0  0  0  0  0  0  0  0  0  0  0
   23.3421   -5.6495  -13.3658 O   0  0  0  0  0  0  0  0  0  0  0  0
  2  1  1  6
  2  9  1  0
  3  2  1  0
  4  3  1  0
  5  4  2  0
  6  5  1  0
  6  7  1  0
  7  8  2  0
  8  4  1  0
  9 10  2  0
 12 11  1  1
 13  9  1  0
 13 12  1  0
 14 15  2  0
 14 12  1  0
 16 17  1  0
 17 27  2  0
 17 18  1  0
 18 19  2  0
 19 20  1  0
 20 21  1  0
 22 21  1  6
 22 23  1  0
 23 14  1  0
 24 22  1  0
 24 28  1  0
 25 24  2  0
 26 20  2  0
 27 26  1  0
M  END
$$$$
