HAY.pdb
     RDKit          3D

 28 29  0  0  1  0  0  0  0  0999 V2000
   21.5239  -12.3827  -18.3413 N   0  0  0  0  0  0  0  0  0  0  0  0
   20.6222  -11.2688  -18.4033 C   0  0  1  0  0  0  0  0  0  0  0  0
   19.4715  -11.5720  -17.4444 C   0  0  0  0  0  0  0  0  0  0  0  0
   18.6838  -12.6901  -18.0263 C   0  0  0  0  0  0  0  0  0  0  0  0
   18.6283  -13.9999  -17.5372 C   0  0  0  0  0  0  0  0  0  0  0  0
   17.8135  -14.7149  -18.3293 N   0  0  0  0  0  0  0  0  0  0  0  0
   17.3593  -13.9173  -19.2858 C   0  0  0  0  0  0  0  0  0  0  0  0
   17.8829  -12.6811  -19.1112 N   0  0  0  0  0  0  0  0  0  0  0  0
   21.2494  -10.0024  -17.9501 C   0  0  0  0  0  0  0  0  0  0  0  0
   21.9062   -9.9743  -16.8781 O   0  0  0  0  0  0  0  0  0  0  0  0
   21.7295   -6.4977  -19.3574 C   0  0  0  0  0  0  0  0  0  0  0  0
   21.7561   -7.5489  -18.2714 C   0  0  2  0  0  0  0  0  0  0  0  0
   21.1495   -8.7836  -18.6760 N   0  0  0  0  0  0  0  0  0  0  0  0
   21.1586   -7.0526  -17.0013 C   0  0  0  0  0  0  0  0  0  0  0  0
   19.9383   -7.2723  -16.7182 O   0  0  0  0  0  0  0  0  0  0  0  0
   18.9378   -5.4926   -8.9601 O   0  0  0  0  0  0  0  0  0  0  0  0
   19.5584   -5.8401  -10.1382 C   0  0  0  0  0  0  0  0  0  0  0  0
   18.7936   -6.2365  -11.2007 C   0  0  0  0  0  0  0  0  0  0  0  0
   19.4142   -6.5868  -12.3875 C   0  0  0  0  0  0  0  0  0  0  0  0
   20.7789   -6.5374  -12.4977 C   0  0  0  0  0  0  0  0  0  0  0  0
   21.4314   -6.9098  -13.7580 C   0  0  0  0  0  0  0  0  0  0  0  0
   21.3984   -5.8375  -14.8034 C   0  0  2  0  0  0  0  0  0  0  0  0
   21.9160   -6.3238  -16.0665 N   0  0  0  0  0  0  0  0  0  0  0  0
   22.0869   -4.5955  -14.3707 C   0  0  0  0  0  0  0  0  0  0  0  0
   23.3257   -4.4852  -14.5506 O   0  0  0  0  0  0  0  0  0  0  0  0
   21.5209   -6.1376  -11.4206 C   0  0  0  0  0  0  0  0  0  0  0  0
   20.9322   -5.7845  -10.2315 C   0  0  0  0  0  0  0  0  0  0  0  0
   21.4282   -3.5391  -13.7719 O   0  0  0  0  0  0  0  0  0  0  0  0
  2  1  1  1
  2  9  1  0
  3  2  1  0
  4  3  1  0
  5  4  2  0
  6  5  1  0
  6  7  1  0
  7  8  2  0
  8  4  1  0
  9 10  2  0
 12 11  1  6
 13  9  1  0
 13 12  1  0
 14 15  2  0
 14 12  1  0
 16 17  1  0
 17 27  2  0
 17 18  1  0
 18 19  2  0
 19 20  1  0
 20 21  1  0
 22 21  1  1
 22 23  1  0
 23 14  1  0
 24 22  1  0
 24 28  1  0
 25 24  2  0
 26 20  2  0
 27 26  1  0
M  END
$$$$
