HAY.pdb
     RDKit          3D

 28 29  0  0  1  0  0  0  0  0999 V2000
   27.8412  -17.5304  -18.4897 N   0  0  0  0  0  0  0  0  0  0  0  0
   27.0938  -16.3503  -18.8157 C   0  0  1  0  0  0  0  0  0  0  0  0
   26.4911  -16.5724  -20.2024 C   0  0  0  0  0  0  0  0  0  0  0  0
   26.8225  -15.3849  -21.0325 C   0  0  0  0  0  0  0  0  0  0  0  0
   26.3359  -14.0866  -20.8434 C   0  0  0  0  0  0  0  0  0  0  0  0
   26.8617  -13.2939  -21.7909 N   0  0  0  0  0  0  0  0  0  0  0  0
   27.6502  -14.0321  -22.5594 C   0  0  0  0  0  0  0  0  0  0  0  0
   27.6341  -15.3079  -22.1066 N   0  0  0  0  0  0  0  0  0  0  0  0
   25.9667  -16.1131  -17.8798 C   0  0  0  0  0  0  0  0  0  0  0  0
   25.2034  -17.0606  -17.5618 O   0  0  0  0  0  0  0  0  0  0  0  0
   24.6382  -13.2012  -15.8123 C   0  0  0  0  0  0  0  0  0  0  0  0
   24.5630  -14.5638  -16.4625 C   0  0  2  0  0  0  0  0  0  0  0  0
   25.6898  -14.8425  -17.3043 N   0  0  0  0  0  0  0  0  0  0  0  0
   23.2850  -14.7588  -17.2009 C   0  0  0  0  0  0  0  0  0  0  0  0
   23.2038  -14.5263  -18.4486 O   0  0  0  0  0  0  0  0  0  0  0  0
   18.9849  -18.4554  -11.9508 O   0  0  0  0  0  0  0  0  0  0  0  0
   19.3550  -18.0737  -13.2202 C   0  0  0  0  0  0  0  0  0  0  0  0
   18.4644  -17.3791  -13.9917 C   0  0  0  0  0  0  0  0  0  0  0  0
   18.8330  -16.9934  -15.2691 C   0  0  0  0  0  0  0  0  0  0  0  0
   20.0755  -17.3033  -15.7560 C   0  0  0  0  0  0  0  0  0  0  0  0
   20.4609  -16.8919  -17.1106 C   0  0  0  0  0  0  0  0  0  0  0  0
   20.8595  -15.4523  -17.2220 C   0  0  2  0  0  0  0  0  0  0  0  0
   22.1202  -15.2062  -16.5514 N   0  0  0  0  0  0  0  0  0  0  0  0
   19.7984  -14.5270  -16.7511 C   0  0  0  0  0  0  0  0  0  0  0  0
   18.6819  -14.5281  -17.3279 O   0  0  0  0  0  0  0  0  0  0  0  0
   20.9476  -17.9986  -14.9645 C   0  0  0  0  0  0  0  0  0  0  0  0
   20.6089  -18.3938  -13.6939 C   0  0  0  0  0  0  0  0  0  0  0  0
   19.9759  -13.6520  -15.6969 O   0  0  0  0  0  0  0  0  0  0  0  0
  2  1  1  1
  2  9  1  0
  3  2  1  0
  4  3  1  0
  5  4  2  0
  6  5  1  0
  6  7  1  0
  7  8  2  0
  8  4  1  0
  9 10  2  0
 12 11  1  6
 13  9  1  0
 13 12  1  0
 14 15  2  0
 14 12  1  0
 16 17  1  0
 17 27  2  0
 17 18  1  0
 18 19  2  0
 19 20  1  0
 20 21  1  0
 22 21  1  1
 22 23  1  0
 23 14  1  0
 24 22  1  0
 24 28  1  0
 25 24  2  0
 26 20  2  0
 27 26  1  0
M  END
$$$$
