HAY.pdb
     RDKit          3D

 28 29  0  0  1  0  0  0  0  0999 V2000
   17.3685  -12.7802    4.4440 N   0  0  0  0  0  0  0  0  0  0  0  0
   17.6853  -12.2142    5.7234 C   0  0  1  0  0  0  0  0  0  0  0  0
   16.6884  -12.7929    6.7268 C   0  0  0  0  0  0  0  0  0  0  0  0
   15.3651  -12.1734    6.4545 C   0  0  0  0  0  0  0  0  0  0  0  0
   14.2610  -12.8105    5.8773 C   0  0  0  0  0  0  0  0  0  0  0  0
   13.2547  -11.9254    5.7957 N   0  0  0  0  0  0  0  0  0  0  0  0
   13.6760  -10.7708    6.2923 C   0  0  0  0  0  0  0  0  0  0  0  0
   14.9605  -10.9101    6.6968 N   0  0  0  0  0  0  0  0  0  0  0  0
   19.0442  -12.5861    6.1902 C   0  0  0  0  0  0  0  0  0  0  0  0
   19.5227  -13.7122    5.8996 O   0  0  0  0  0  0  0  0  0  0  0  0
   21.9896  -10.8555    7.8332 C   0  0  0  0  0  0  0  0  0  0  0  0
   21.1619  -12.0654    7.4645 C   0  0  2  0  0  0  0  0  0  0  0  0
   19.8614  -11.7209    6.9686 N   0  0  0  0  0  0  0  0  0  0  0  0
   21.0635  -13.0366    8.5886 C   0  0  0  0  0  0  0  0  0  0  0  0
   20.2305  -12.8662    9.5344 O   0  0  0  0  0  0  0  0  0  0  0  0
   20.0590  -19.9686   13.4789 O   0  0  0  0  0  0  0  0  0  0  0  0
   20.2019  -19.0026   12.5091 C   0  0  0  0  0  0  0  0  0  0  0  0
   19.2104  -18.8409   11.5809 C   0  0  0  0  0  0  0  0  0  0  0  0
   19.3504  -17.8702   10.6037 C   0  0  0  0  0  0  0  0  0  0  0  0
   20.4690  -17.0802   10.5659 C   0  0  0  0  0  0  0  0  0  0  0  0
   20.6122  -16.0531    9.5281 C   0  0  0  0  0  0  0  0  0  0  0  0
   21.8129  -15.1740    9.6996 C   0  0  2  0  0  0  0  0  0  0  0  0
   21.8844  -14.1773    8.6503 N   0  0  0  0  0  0  0  0  0  0  0  0
   23.0760  -15.9463    9.8090 C   0  0  0  0  0  0  0  0  0  0  0  0
   23.5488  -16.4990    8.7842 O   0  0  0  0  0  0  0  0  0  0  0  0
   21.4460  -17.2621   11.5056 C   0  0  0  0  0  0  0  0  0  0  0  0
   21.3337  -18.2168   12.4859 C   0  0  0  0  0  0  0  0  0  0  0  0
   23.7694  -16.0916   10.9950 O   0  0  0  0  0  0  0  0  0  0  0  0
  2  1  1  6
  2  9  1  0
  3  2  1  0
  4  3  1  0
  5  4  2  0
  6  5  1  0
  6  7  1  0
  7  8  2  0
  8  4  1  0
  9 10  2  0
 12 11  1  1
 13  9  1  0
 13 12  1  0
 14 15  2  0
 14 12  1  0
 16 17  1  0
 17 27  2  0
 17 18  1  0
 18 19  2  0
 19 20  1  0
 20 21  1  0
 22 21  1  6
 22 23  1  0
 23 14  1  0
 24 22  1  0
 24 28  1  0
 25 24  2  0
 26 20  2  0
 27 26  1  0
M  END
$$$$
