WCK.pdb
     RDKit          3D

 30 31  0  0  1  0  0  0  0  0999 V2000
   26.7863  -19.6517  -16.3209 N   0  0  0  0  0  0  0  0  0  0  0  0
   27.1096  -19.3904  -14.9527 C   0  0  1  0  0  0  0  0  0  0  0  0
   26.6391  -18.0642  -14.4571 C   0  0  0  0  0  0  0  0  0  0  0  0
   27.1894  -16.9344  -15.2332 C   0  0  0  0  0  0  0  0  0  0  0  0
   26.6509  -15.6705  -15.2781 C   0  0  0  0  0  0  0  0  0  0  0  0
   27.4198  -14.9076  -16.0858 N   0  0  0  0  0  0  0  0  0  0  0  0
   28.4411  -15.6510  -16.5622 C   0  0  0  0  0  0  0  0  0  0  0  0
   29.4772  -15.3274  -17.4116 C   0  0  0  0  0  0  0  0  0  0  0  0
   30.4044  -16.2849  -17.7480 C   0  0  0  0  0  0  0  0  0  0  0  0
   30.2963  -17.5574  -17.2387 C   0  0  0  0  0  0  0  0  0  0  0  0
   29.2458  -17.8536  -16.3885 C   0  0  0  0  0  0  0  0  0  0  0  0
   28.3045  -16.9169  -16.0349 C   0  0  0  0  0  0  0  0  0  0  0  0
   26.5116  -20.4396  -14.0517 C   0  0  0  0  0  0  0  0  0  0  0  0
   25.8446  -21.3921  -14.5000 O   0  0  0  0  0  0  0  0  0  0  0  0
   26.6823  -20.3896  -12.6439 N   0  0  0  0  0  0  0  0  0  0  0  0
   25.8150  -20.9568  -11.6743 C   0  0  1  0  0  0  0  0  0  0  0  0
   26.1984  -20.6949  -10.2503 C   0  0  0  0  0  0  0  0  0  0  0  0
   24.9224  -21.1909   -9.0806 S   0  0  0  0  0  0  0  0  0  0  0  0
   24.4217  -20.5461  -11.9164 C   0  0  0  0  0  0  0  0  0  0  0  0
   24.1609  -19.3204  -12.0130 O   0  0  0  0  0  0  0  0  0  0  0  0
   23.3331  -21.4688  -12.0502 N   0  0  0  0  0  0  0  0  0  0  0  0
   21.9779  -21.0161  -12.3094 C   0  0  1  0  0  0  0  0  0  0  0  0
   21.4720  -21.7991  -13.4863 C   0  0  0  0  0  0  0  0  0  0  0  0
   20.0730  -21.4804  -13.8850 C   0  0  0  0  0  0  0  0  0  0  0  0
   19.5111  -22.3433  -14.9557 C   0  0  0  0  0  0  0  0  0  0  0  0
   18.1060  -21.9385  -15.3611 C   0  0  0  0  0  0  0  0  0  0  0  0
   17.5392  -22.8800  -16.3079 N   0  0  0  0  0  0  0  0  0  0  0  0
   21.1530  -21.1725  -11.0978 C   0  0  0  0  0  0  0  0  0  0  0  0
   21.2861  -22.2677  -10.2528 O   0  0  0  0  0  0  0  0  0  0  0  0
   20.3086  -20.2888  -10.8271 O   0  0  0  0  0  0  0  0  0  0  0  0
  2  1  1  6
  2  3  1  0
  2 13  1  0
  3  4  1  0
  4 12  1  0
  4  5  2  0
  5  6  1  0
  7  6  1  0
  7  8  2  0
  9  8  1  0
 10  9  2  0
 11 12  2  0
 11 10  1  0
 12  7  1  0
 13 14  2  0
 15 13  1  0
 15 16  1  0
 16 17  1  1
 18 17  1  0
 19 21  1  0
 19 16  1  0
 20 19  2  0
 22 21  1  0
 23 24  1  0
 22 23  1  6
 24 25  1  0
 26 25  1  0
 27 26  1  0
 28 22  1  0
 28 29  1  0
 30 28  2  0
M  END
$$$$
