WCK.pdb
     RDKit          3D

 30 31  0  0  1  0  0  0  0  0999 V2000
   22.2258  -18.3260  -17.1134 N   0  0  0  0  0  0  0  0  0  0  0  0
   21.5434  -18.0717  -15.8829 C   0  0  1  0  0  0  0  0  0  0  0  0
   20.1706  -17.5123  -16.0508 C   0  0  0  0  0  0  0  0  0  0  0  0
   20.1757  -16.1187  -16.5403 C   0  0  0  0  0  0  0  0  0  0  0  0
   20.6253  -15.7173  -17.7757 C   0  0  0  0  0  0  0  0  0  0  0  0
   20.4762  -14.3777  -17.8694 N   0  0  0  0  0  0  0  0  0  0  0  0
   19.9410  -13.9070  -16.7228 C   0  0  0  0  0  0  0  0  0  0  0  0
   19.6048  -12.6265  -16.3394 C   0  0  0  0  0  0  0  0  0  0  0  0
   19.0645  -12.4098  -15.0940 C   0  0  0  0  0  0  0  0  0  0  0  0
   18.8618  -13.4663  -14.2378 C   0  0  0  0  0  0  0  0  0  0  0  0
   19.2088  -14.7408  -14.6497 C   0  0  0  0  0  0  0  0  0  0  0  0
   19.7505  -14.9871  -15.8884 C   0  0  0  0  0  0  0  0  0  0  0  0
   21.4128  -19.3350  -15.0723 C   0  0  0  0  0  0  0  0  0  0  0  0
   21.4998  -20.4645  -15.5920 O   0  0  0  0  0  0  0  0  0  0  0  0
   21.1834  -19.2950  -13.6726 N   0  0  0  0  0  0  0  0  0  0  0  0
   21.0327  -20.4164  -12.8160 C   0  0  1  0  0  0  0  0  0  0  0  0
   21.3643  -20.1643  -11.3773 C   0  0  0  0  0  0  0  0  0  0  0  0
   20.4293  -18.7955  -10.6742 S   0  0  0  0  0  0  0  0  0  0  0  0
   19.6824  -20.9904  -12.9403 C   0  0  0  0  0  0  0  0  0  0  0  0
   18.7272  -20.2297  -13.2383 O   0  0  0  0  0  0  0  0  0  0  0  0
   19.3875  -22.3787  -12.7404 N   0  0  0  0  0  0  0  0  0  0  0  0
   18.0301  -22.8886  -12.8191 C   0  0  1  0  0  0  0  0  0  0  0  0
   18.1288  -24.3828  -12.9259 C   0  0  0  0  0  0  0  0  0  0  0  0
   16.8210  -25.0793  -13.0751 C   0  0  0  0  0  0  0  0  0  0  0  0
   16.8775  -26.5586  -12.9519 C   0  0  0  0  0  0  0  0  0  0  0  0
   15.5265  -27.2183  -13.1570 C   0  0  0  0  0  0  0  0  0  0  0  0
   15.6013  -28.6505  -12.9399 N   0  0  0  0  0  0  0  0  0  0  0  0
   17.2504  -22.4302  -11.6552 C   0  0  0  0  0  0  0  0  0  0  0  0
   15.8831  -22.1936  -11.7318 O   0  0  0  0  0  0  0  0  0  0  0  0
   17.8433  -22.2500  -10.5674 O   0  0  0  0  0  0  0  0  0  0  0  0
  2  1  1  6
  2  3  1  0
  2 13  1  0
  3  4  1  0
  4 12  1  0
  4  5  2  0
  5  6  1  0
  7  6  1  0
  7  8  2  0
  9  8  1  0
 10  9  2  0
 11 12  2  0
 11 10  1  0
 12  7  1  0
 13 14  2  0
 15 13  1  0
 15 16  1  0
 16 17  1  1
 18 17  1  0
 19 21  1  0
 19 16  1  0
 20 19  2  0
 22 21  1  0
 23 24  1  0
 22 23  1  1
 24 25  1  0
 26 25  1  0
 27 26  1  0
 28 22  1  0
 28 29  1  0
 30 28  2  0
M  END
$$$$
