WCK.pdb
     RDKit          3D

 30 31  0  0  1  0  0  0  0  0999 V2000
   23.2916  -19.5122  -15.6120 N   0  0  0  0  0  0  0  0  0  0  0  0
   22.0848  -19.1542  -14.9335 C   0  0  1  0  0  0  0  0  0  0  0  0
   20.8734  -19.1503  -15.8041 C   0  0  0  0  0  0  0  0  0  0  0  0
   20.9251  -18.1118  -16.8531 C   0  0  0  0  0  0  0  0  0  0  0  0
   21.4336  -18.2911  -18.1175 C   0  0  0  0  0  0  0  0  0  0  0  0
   21.3136  -17.1280  -18.7946 N   0  0  0  0  0  0  0  0  0  0  0  0
   20.7395  -16.2037  -17.9954 C   0  0  0  0  0  0  0  0  0  0  0  0
   20.4115  -14.8851  -18.2267 C   0  0  0  0  0  0  0  0  0  0  0  0
   19.8235  -14.1459  -17.2280 C   0  0  0  0  0  0  0  0  0  0  0  0
   19.5653  -14.7211  -16.0062 C   0  0  0  0  0  0  0  0  0  0  0  0
   19.9054  -16.0467  -15.8025 C   0  0  0  0  0  0  0  0  0  0  0  0
   20.4940  -16.8096  -16.7823 C   0  0  0  0  0  0  0  0  0  0  0  0
   21.8106  -20.1010  -13.7939 C   0  0  0  0  0  0  0  0  0  0  0  0
   22.0633  -21.3189  -13.8725 O   0  0  0  0  0  0  0  0  0  0  0  0
   21.2489  -19.6455  -12.5731 N   0  0  0  0  0  0  0  0  0  0  0  0
   21.0072  -20.4323  -11.4170 C   0  0  1  0  0  0  0  0  0  0  0  0
   21.0196  -19.6783  -10.1230 C   0  0  0  0  0  0  0  0  0  0  0  0
   20.7217  -20.7350   -8.6957 S   0  0  0  0  0  0  0  0  0  0  0  0
   19.7551  -21.1946  -11.5569 C   0  0  0  0  0  0  0  0  0  0  0  0
   18.7152  -20.5880  -11.9181 O   0  0  0  0  0  0  0  0  0  0  0  0
   19.6486  -22.6014  -11.3039 N   0  0  0  0  0  0  0  0  0  0  0  0
   18.3710  -23.2899  -11.3525 C   0  0  1  0  0  0  0  0  0  0  0  0
   18.6508  -24.7484  -11.1323 C   0  0  0  0  0  0  0  0  0  0  0  0
   18.0672  -25.3074   -9.8814 C   0  0  0  0  0  0  0  0  0  0  0  0
   18.2084  -26.7776   -9.7227 C   0  0  0  0  0  0  0  0  0  0  0  0
   17.6547  -27.2830   -8.4035 C   0  0  0  0  0  0  0  0  0  0  0  0
   17.8449  -28.7144   -8.2662 N   0  0  0  0  0  0  0  0  0  0  0  0
   17.4470  -22.7099  -10.3614 C   0  0  0  0  0  0  0  0  0  0  0  0
   16.1152  -22.4490  -10.6607 O   0  0  0  0  0  0  0  0  0  0  0  0
   17.8807  -22.4462   -9.2170 O   0  0  0  0  0  0  0  0  0  0  0  0
  2  1  1  6
  2  3  1  0
  2 13  1  0
  3  4  1  0
  4 12  1  0
  4  5  2  0
  5  6  1  0
  7  6  1  0
  7  8  2  0
  9  8  1  0
 10  9  2  0
 11 12  2  0
 11 10  1  0
 12  7  1  0
 13 14  2  0
 15 13  1  0
 15 16  1  0
 16 17  1  1
 18 17  1  0
 19 21  1  0
 19 16  1  0
 20 19  2  0
 22 21  1  0
 23 24  1  0
 22 23  1  1
 24 25  1  0
 26 25  1  0
 27 26  1  0
 28 22  1  0
 28 29  1  0
 30 28  2  0
M  END
$$$$
