WCK.pdb
     RDKit          3D

 30 31  0  0  1  0  0  0  0  0999 V2000
   19.4894  -22.8027  -14.3093 N   0  0  0  0  0  0  0  0  0  0  0  0
   20.1846  -23.3973  -13.2102 C   0  0  1  0  0  0  0  0  0  0  0  0
   21.0841  -22.4592  -12.4777 C   0  0  0  0  0  0  0  0  0  0  0  0
   22.2456  -22.0321  -13.2841 C   0  0  0  0  0  0  0  0  0  0  0  0
   22.4504  -20.7594  -13.7614 C   0  0  0  0  0  0  0  0  0  0  0  0
   23.6114  -20.7446  -14.4524 N   0  0  0  0  0  0  0  0  0  0  0  0
   24.1590  -21.9785  -14.4311 C   0  0  0  0  0  0  0  0  0  0  0  0
   25.3248  -22.4613  -14.9857 C   0  0  0  0  0  0  0  0  0  0  0  0
   25.6620  -23.7830  -14.8152 C   0  0  0  0  0  0  0  0  0  0  0  0
   24.8391  -24.6164  -14.0952 C   0  0  0  0  0  0  0  0  0  0  0  0
   23.6752  -24.1042  -13.5499 C   0  0  0  0  0  0  0  0  0  0  0  0
   23.3128  -22.7876  -13.7041 C   0  0  0  0  0  0  0  0  0  0  0  0
   19.2140  -23.9596  -12.2042 C   0  0  0  0  0  0  0  0  0  0  0  0
   18.0947  -23.4473  -12.0094 O   0  0  0  0  0  0  0  0  0  0  0  0
   19.5331  -25.1044  -11.4290 N   0  0  0  0  0  0  0  0  0  0  0  0
   18.6507  -25.8034  -10.5648 C   0  0  1  0  0  0  0  0  0  0  0  0
   18.8133  -27.2923  -10.5619 C   0  0  0  0  0  0  0  0  0  0  0  0
   20.5389  -27.8067  -10.5673 S   0  0  0  0  0  0  0  0  0  0  0  0
   18.7345  -25.2735   -9.1935 C   0  0  0  0  0  0  0  0  0  0  0  0
   19.8675  -25.1351   -8.6671 O   0  0  0  0  0  0  0  0  0  0  0  0
   17.5908  -24.9016   -8.4138 N   0  0  0  0  0  0  0  0  0  0  0  0
   17.7216  -24.4225   -7.0492 C   0  0  1  0  0  0  0  0  0  0  0  0
   16.3411  -24.0739   -6.5731 C   0  0  0  0  0  0  0  0  0  0  0  0
   15.9020  -24.8131   -5.3571 C   0  0  0  0  0  0  0  0  0  0  0  0
   15.0598  -24.0322   -4.4151 C   0  0  0  0  0  0  0  0  0  0  0  0
   14.6307  -24.8377   -3.2029 C   0  0  0  0  0  0  0  0  0  0  0  0
   13.9053  -24.0150   -2.2537 N   0  0  0  0  0  0  0  0  0  0  0  0
   18.3931  -25.4390   -6.2195 C   0  0  0  0  0  0  0  0  0  0  0  0
   18.4019  -26.7845   -6.5670 O   0  0  0  0  0  0  0  0  0  0  0  0
   18.9712  -25.0732   -5.1710 O   0  0  0  0  0  0  0  0  0  0  0  0
  2  1  1  6
  2  3  1  0
  2 13  1  0
  3  4  1  0
  4 12  1  0
  4  5  2  0
  5  6  1  0
  7  6  1  0
  7  8  2  0
  9  8  1  0
 10  9  2  0
 11 12  2  0
 11 10  1  0
 12  7  1  0
 13 14  2  0
 15 13  1  0
 15 16  1  0
 16 17  1  1
 18 17  1  0
 19 21  1  0
 19 16  1  0
 20 19  2  0
 22 21  1  0
 23 24  1  0
 22 23  1  1
 24 25  1  0
 26 25  1  0
 27 26  1  0
 28 22  1  0
 28 29  1  0
 30 28  2  0
M  END
$$$$
