WCK.pdb
     RDKit          3D

 30 31  0  0  1  0  0  0  0  0999 V2000
   22.5208  -20.6566  -13.7828 N   0  0  0  0  0  0  0  0  0  0  0  0
   21.6810  -20.1383  -12.7481 C   0  0  1  0  0  0  0  0  0  0  0  0
   20.2595  -19.9428  -13.1566 C   0  0  0  0  0  0  0  0  0  0  0  0
   20.0676  -18.7548  -14.0130 C   0  0  0  0  0  0  0  0  0  0  0  0
   20.6949  -18.5397  -15.2170 C   0  0  0  0  0  0  0  0  0  0  0  0
   20.2757  -17.3538  -15.7106 N   0  0  0  0  0  0  0  0  0  0  0  0
   19.3928  -16.8003  -14.8523 C   0  0  0  0  0  0  0  0  0  0  0  0
   18.6970  -15.6119  -14.9104 C   0  0  0  0  0  0  0  0  0  0  0  0
   17.8429  -15.2738  -13.8876 C   0  0  0  0  0  0  0  0  0  0  0  0
   17.6856  -16.1182  -12.8140 C   0  0  0  0  0  0  0  0  0  0  0  0
   18.3970  -17.3045  -12.7826 C   0  0  0  0  0  0  0  0  0  0  0  0
   19.2575  -17.6683  -13.7905 C   0  0  0  0  0  0  0  0  0  0  0  0
   21.6781  -21.0544  -11.5519 C   0  0  0  0  0  0  0  0  0  0  0  0
   21.7260  -22.2942  -11.6700 O   0  0  0  0  0  0  0  0  0  0  0  0
   21.6204  -20.5433  -10.2294 N   0  0  0  0  0  0  0  0  0  0  0  0
   21.6570  -21.3071   -9.0339 C   0  0  1  0  0  0  0  0  0  0  0  0
   22.2693  -20.6127   -7.8565 C   0  0  0  0  0  0  0  0  0  0  0  0
   22.4605  -21.6940   -6.4294 S   0  0  0  0  0  0  0  0  0  0  0  0
   20.3153  -21.8101   -8.6946 C   0  0  0  0  0  0  0  0  0  0  0  0
   19.3496  -21.0055   -8.6968 O   0  0  0  0  0  0  0  0  0  0  0  0
   20.0401  -23.1760   -8.3585 N   0  0  0  0  0  0  0  0  0  0  0  0
   18.6964  -23.6274   -8.0433 C   0  0  1  0  0  0  0  0  0  0  0  0
   18.5380  -24.9905   -8.6524 C   0  0  0  0  0  0  0  0  0  0  0  0
   18.2138  -24.9837  -10.1059 C   0  0  0  0  0  0  0  0  0  0  0  0
   18.0503  -26.3259  -10.7210 C   0  0  0  0  0  0  0  0  0  0  0  0
   17.8392  -26.2635  -12.2223 C   0  0  0  0  0  0  0  0  0  0  0  0
   17.7115  -27.5914  -12.7919 N   0  0  0  0  0  0  0  0  0  0  0  0
   18.4853  -23.6045   -6.5846 C   0  0  0  0  0  0  0  0  0  0  0  0
   19.5416  -23.6960   -5.6863 O   0  0  0  0  0  0  0  0  0  0  0  0
   17.3168  -23.4995   -6.1477 O   0  0  0  0  0  0  0  0  0  0  0  0
  2  1  1  6
  2  3  1  0
  2 13  1  0
  3  4  1  0
  4 12  1  0
  4  5  2  0
  5  6  1  0
  7  6  1  0
  7  8  2  0
  9  8  1  0
 10  9  2  0
 11 12  2  0
 11 10  1  0
 12  7  1  0
 13 14  2  0
 15 13  1  0
 15 16  1  0
 16 17  1  1
 18 17  1  0
 19 21  1  0
 19 16  1  0
 20 19  2  0
 22 21  1  0
 23 24  1  0
 22 23  1  1
 24 25  1  0
 26 25  1  0
 27 26  1  0
 28 22  1  0
 28 29  1  0
 30 28  2  0
M  END
$$$$
