WCK.pdb
     RDKit          3D

 30 31  0  0  1  0  0  0  0  0999 V2000
   18.6755  -24.6074   -5.7388 N   0  0  0  0  0  0  0  0  0  0  0  0
   17.6618  -25.6105   -5.8438 C   0  0  1  0  0  0  0  0  0  0  0  0
   17.6352  -26.3159   -7.1581 C   0  0  0  0  0  0  0  0  0  0  0  0
   17.4316  -25.3979   -8.2971 C   0  0  0  0  0  0  0  0  0  0  0  0
   18.4371  -24.8144   -9.0306 C   0  0  0  0  0  0  0  0  0  0  0  0
   17.8750  -24.0415   -9.9858 N   0  0  0  0  0  0  0  0  0  0  0  0
   16.5307  -24.1138   -9.8844 C   0  0  0  0  0  0  0  0  0  0  0  0
   15.5335  -23.5129  -10.6222 C   0  0  0  0  0  0  0  0  0  0  0  0
   14.2170  -23.7554  -10.3097 C   0  0  0  0  0  0  0  0  0  0  0  0
   13.8995  -24.5929   -9.2666 C   0  0  0  0  0  0  0  0  0  0  0  0
   14.9214  -25.1822   -8.5435 C   0  0  0  0  0  0  0  0  0  0  0  0
   16.2459  -24.9581   -8.8331 C   0  0  0  0  0  0  0  0  0  0  0  0
   17.8365  -26.6614   -4.7784 C   0  0  0  0  0  0  0  0  0  0  0  0
   18.5862  -27.6442   -4.9375 O   0  0  0  0  0  0  0  0  0  0  0  0
   17.1510  -26.5785   -3.5387 N   0  0  0  0  0  0  0  0  0  0  0  0
   17.2573  -27.4943   -2.4598 C   0  0  1  0  0  0  0  0  0  0  0  0
   17.2255  -26.8745   -1.0967 C   0  0  0  0  0  0  0  0  0  0  0  0
   18.6775  -25.8665   -0.7534 S   0  0  0  0  0  0  0  0  0  0  0  0
   16.2372  -28.5505   -2.5693 C   0  0  0  0  0  0  0  0  0  0  0  0
   15.0285  -28.2169   -2.6560 O   0  0  0  0  0  0  0  0  0  0  0  0
   16.5416  -29.9511   -2.5833 N   0  0  0  0  0  0  0  0  0  0  0  0
   15.4964  -30.9577   -2.6396 C   0  0  1  0  0  0  0  0  0  0  0  0
   15.7565  -31.7914   -3.8607 C   0  0  0  0  0  0  0  0  0  0  0  0
   14.7464  -32.8576   -4.1074 C   0  0  0  0  0  0  0  0  0  0  0  0
   14.9553  -33.6484   -5.3474 C   0  0  0  0  0  0  0  0  0  0  0  0
   13.6765  -34.2800   -5.8651 C   0  0  0  0  0  0  0  0  0  0  0  0
   13.8987  -34.9619   -7.1259 N   0  0  0  0  0  0  0  0  0  0  0  0
   15.4763  -31.7350   -1.3874 C   0  0  0  0  0  0  0  0  0  0  0  0
   14.4153  -32.5687   -1.0553 O   0  0  0  0  0  0  0  0  0  0  0  0
   16.4471  -31.6369   -0.6030 O   0  0  0  0  0  0  0  0  0  0  0  0
  2  1  1  6
  2  3  1  0
  2 13  1  0
  3  4  1  0
  4 12  1  0
  4  5  2  0
  5  6  1  0
  7  6  1  0
  7  8  2  0
  9  8  1  0
 10  9  2  0
 11 12  2  0
 11 10  1  0
 12  7  1  0
 13 14  2  0
 15 13  1  0
 15 16  1  0
 16 17  1  1
 18 17  1  0
 19 21  1  0
 19 16  1  0
 20 19  2  0
 22 21  1  0
 23 24  1  0
 22 23  1  6
 24 25  1  0
 26 25  1  0
 27 26  1  0
 28 22  1  0
 28 29  1  0
 30 28  2  0
M  END
$$$$
