WCK.pdb
     RDKit          3D

 30 31  0  0  1  0  0  0  0  0999 V2000
   25.3090  -20.0158  -16.5051 N   0  0  0  0  0  0  0  0  0  0  0  0
   24.6876  -19.2399  -15.4772 C   0  0  1  0  0  0  0  0  0  0  0  0
   23.8236  -18.1347  -15.9849 C   0  0  0  0  0  0  0  0  0  0  0  0
   24.5755  -17.1333  -16.7683 C   0  0  0  0  0  0  0  0  0  0  0  0
   24.3804  -16.8658  -18.1024 C   0  0  0  0  0  0  0  0  0  0  0  0
   25.2450  -15.8962  -18.4739 N   0  0  0  0  0  0  0  0  0  0  0  0
   25.9925  -15.5332  -17.4099 C   0  0  0  0  0  0  0  0  0  0  0  0
   26.9968  -14.5974  -17.2859 C   0  0  0  0  0  0  0  0  0  0  0  0
   27.6107  -14.4166  -16.0693 C   0  0  0  0  0  0  0  0  0  0  0  0
   27.2231  -15.1663  -14.9840 C   0  0  0  0  0  0  0  0  0  0  0  0
   26.2121  -16.0983  -15.1379 C   0  0  0  0  0  0  0  0  0  0  0  0
   25.5808  -16.3005  -16.3417 C   0  0  0  0  0  0  0  0  0  0  0  0
   23.8271  -20.1087  -14.5970 C   0  0  0  0  0  0  0  0  0  0  0  0
   23.3942  -21.2128  -14.9804 O   0  0  0  0  0  0  0  0  0  0  0  0
   23.4689  -19.7062  -13.2843 N   0  0  0  0  0  0  0  0  0  0  0  0
   22.7797  -20.4934  -12.3254 C   0  0  1  0  0  0  0  0  0  0  0  0
   22.8537  -19.9867  -10.9180 C   0  0  0  0  0  0  0  0  0  0  0  0
   21.4794  -20.5494   -9.8996 S   0  0  0  0  0  0  0  0  0  0  0  0
   21.3776  -20.6959  -12.7270 C   0  0  0  0  0  0  0  0  0  0  0  0
   20.7237  -19.7121  -13.1564 O   0  0  0  0  0  0  0  0  0  0  0  0
   20.7056  -21.9600  -12.6574 N   0  0  0  0  0  0  0  0  0  0  0  0
   19.2952  -22.0919  -12.9771 C   0  0  1  0  0  0  0  0  0  0  0  0
   18.8778  -23.4711  -12.5557 C   0  0  0  0  0  0  0  0  0  0  0  0
   17.4371  -23.7757  -12.7789 C   0  0  0  0  0  0  0  0  0  0  0  0
   17.0018  -25.1239  -12.3321 C   0  0  0  0  0  0  0  0  0  0  0  0
   15.5456  -25.4076  -12.6502 C   0  0  0  0  0  0  0  0  0  0  0  0
   15.2234  -26.8062  -12.4401 N   0  0  0  0  0  0  0  0  0  0  0  0
   18.5268  -21.0171  -12.3236 C   0  0  0  0  0  0  0  0  0  0  0  0
   18.8018  -20.5989  -11.0272 O   0  0  0  0  0  0  0  0  0  0  0  0
   17.5993  -20.4682  -12.9607 O   0  0  0  0  0  0  0  0  0  0  0  0
  2  1  1  6
  2  3  1  0
  2 13  1  0
  3  4  1  0
  4 12  1  0
  4  5  2  0
  5  6  1  0
  7  6  1  0
  7  8  2  0
  9  8  1  0
 10  9  2  0
 11 12  2  0
 11 10  1  0
 12  7  1  0
 13 14  2  0
 15 13  1  0
 15 16  1  0
 16 17  1  1
 18 17  1  0
 19 21  1  0
 19 16  1  0
 20 19  2  0
 22 21  1  0
 23 24  1  0
 22 23  1  1
 24 25  1  0
 26 25  1  0
 27 26  1  0
 28 22  1  0
 28 29  1  0
 30 28  2  0
M  END
$$$$
