WCK.pdb
     RDKit          3D

 30 31  0  0  1  0  0  0  0  0999 V2000
   27.4504  -17.4405  -19.5460 N   0  0  0  0  0  0  0  0  0  0  0  0
   26.2537  -18.1617  -19.2419 C   0  0  1  0  0  0  0  0  0  0  0  0
   25.8821  -19.1851  -20.2618 C   0  0  0  0  0  0  0  0  0  0  0  0
   25.0512  -18.6331  -21.3511 C   0  0  0  0  0  0  0  0  0  0  0  0
   25.5245  -18.2218  -22.5744 C   0  0  0  0  0  0  0  0  0  0  0  0
   24.4805  -17.7777  -23.3083 N   0  0  0  0  0  0  0  0  0  0  0  0
   23.3459  -17.8935  -22.5859 C   0  0  0  0  0  0  0  0  0  0  0  0
   22.0401  -17.5781  -22.8944 C   0  0  0  0  0  0  0  0  0  0  0  0
   21.0506  -17.7969  -21.9656 C   0  0  0  0  0  0  0  0  0  0  0  0
   21.3645  -18.3274  -20.7367 C   0  0  0  0  0  0  0  0  0  0  0  0
   22.6838  -18.6344  -20.4547 C   0  0  0  0  0  0  0  0  0  0  0  0
   23.6935  -18.4264  -21.3635 C   0  0  0  0  0  0  0  0  0  0  0  0
   26.3801  -18.8755  -17.9210 C   0  0  0  0  0  0  0  0  0  0  0  0
   27.2927  -19.6945  -17.6981 O   0  0  0  0  0  0  0  0  0  0  0  0
   25.4600  -18.6457  -16.8654 N   0  0  0  0  0  0  0  0  0  0  0  0
   25.5479  -19.1683  -15.5489 C   0  0  1  0  0  0  0  0  0  0  0  0
   26.6729  -18.6230  -14.7242 C   0  0  0  0  0  0  0  0  0  0  0  0
   26.7903  -16.8279  -14.8023 S   0  0  0  0  0  0  0  0  0  0  0  0
   24.2670  -19.0135  -14.8393 C   0  0  0  0  0  0  0  0  0  0  0  0
   23.5593  -18.0037  -15.0827 O   0  0  0  0  0  0  0  0  0  0  0  0
   23.7723  -19.9544  -13.8778 N   0  0  0  0  0  0  0  0  0  0  0  0
   22.5080  -20.6433  -14.0662 C   0  0  1  0  0  0  0  0  0  0  0  0
   22.8233  -22.1031  -14.2200 C   0  0  0  0  0  0  0  0  0  0  0  0
   21.6423  -22.9630  -14.5095 C   0  0  0  0  0  0  0  0  0  0  0  0
   21.9295  -24.4176  -14.6008 C   0  0  0  0  0  0  0  0  0  0  0  0
   20.6830  -25.2499  -14.8368 C   0  0  0  0  0  0  0  0  0  0  0  0
   20.9997  -26.6636  -14.9100 N   0  0  0  0  0  0  0  0  0  0  0  0
   21.6011  -20.3505  -12.9418 C   0  0  0  0  0  0  0  0  0  0  0  0
   20.2194  -20.4232  -13.0720 O   0  0  0  0  0  0  0  0  0  0  0  0
   22.0962  -20.0268  -11.8384 O   0  0  0  0  0  0  0  0  0  0  0  0
  2  1  1  6
  2  3  1  0
  2 13  1  0
  3  4  1  0
  4 12  1  0
  4  5  2  0
  5  6  1  0
  7  6  1  0
  7  8  2  0
  9  8  1  0
 10  9  2  0
 11 12  2  0
 11 10  1  0
 12  7  1  0
 13 14  2  0
 15 13  1  0
 15 16  1  0
 16 17  1  1
 18 17  1  0
 19 21  1  0
 19 16  1  0
 20 19  2  0
 22 21  1  0
 23 24  1  0
 22 23  1  1
 24 25  1  0
 26 25  1  0
 27 26  1  0
 28 22  1  0
 28 29  1  0
 30 28  2  0
M  END
$$$$
