KNT.pdb
     RDKit          3D

 25 24  0  0  1  0  0  0  0  0999 V2000
   25.4389  -21.7286  -10.2095 N   0  0  0  0  0  0  0  0  0  0  0  0
   24.6666  -20.9750  -11.1512 C   0  0  1  0  0  0  0  0  0  0  0  0
   23.7107  -20.0897  -10.4572 C   0  0  0  0  0  0  0  0  0  0  0  0
   22.7074  -20.7433   -9.5762 C   0  0  0  0  0  0  0  0  0  0  0  0
   21.5422  -21.3496  -10.2775 C   0  0  0  0  0  0  0  0  0  0  0  0
   20.5901  -22.0130   -9.2878 C   0  0  0  0  0  0  0  0  0  0  0  0
   19.5325  -22.6924  -10.0016 N   0  0  0  0  0  0  0  0  0  0  0  0
   25.4087  -20.4607  -12.3004 C   0  0  0  0  0  0  0  0  0  0  0  0
   24.8452  -19.6749  -13.0961 O   0  0  0  0  0  0  0  0  0  0  0  0
   30.4526  -21.0500  -11.2650 N   0  0  0  0  0  0  0  0  0  0  0  0
   29.6758  -20.1522  -12.0480 C   0  0  0  0  0  0  0  0  0  0  0  0
   29.5181  -19.0018  -11.6225 O   0  0  0  0  0  0  0  0  0  0  0  0
   29.1049  -20.6108  -13.3000 C   0  0  0  0  0  0  0  0  0  0  0  0
   27.6570  -20.4361  -13.5290 C   0  0  2  0  0  0  0  0  0  0  0  0
   26.7438  -20.8202  -12.5260 N   0  0  0  0  0  0  0  0  0  0  0  0
   27.2361  -20.9512  -14.8985 C   0  0  0  0  0  0  0  0  0  0  0  0
   27.5729  -22.0722  -15.2882 O   0  0  0  0  0  0  0  0  0  0  0  0
   23.8513  -21.5260  -16.1592 C   0  0  0  0  0  0  0  0  0  0  0  0
   24.4256  -20.4518  -17.0628 C   0  0  1  0  0  0  0  0  0  0  0  0
   23.8781  -19.2260  -16.7367 O   0  0  0  0  0  0  0  0  0  0  0  0
   25.9315  -20.4804  -16.9886 C   0  0  2  0  0  0  0  0  0  0  0  0
   26.4481  -20.1032  -15.6928 N   0  0  0  0  0  0  0  0  0  0  0  0
   26.5947  -19.8239  -18.1391 C   0  0  0  0  0  0  0  0  0  0  0  0
   27.3811  -18.8698  -18.0036 O   0  0  0  0  0  0  0  0  0  0  0  0
   26.3526  -20.2629  -19.4251 O   0  0  0  0  0  0  0  0  0  0  0  0
  2  8  1  0
  2  1  1  1
  3  2  1  0
  4  3  1  0
  5  4  1  0
  5  6  1  0
  6  7  1  0
  8  9  2  0
 10 11  1  0
 11 12  2  0
 13 11  1  0
 14 13  1  1
 15 14  1  0
 15  8  1  0
 16 17  2  0
 16 14  1  0
 19 18  1  1
 19 21  1  0
 20 19  1  0
 21 22  1  1
 21 23  1  0
 22 16  1  0
 23 25  1  0
 24 23  2  0
M  END
$$$$
