KNT.pdb
     RDKit          3D

 25 24  0  0  1  0  0  0  0  0999 V2000
   21.2206  -11.8614  -17.5519 N   0  0  0  0  0  0  0  0  0  0  0  0
   20.1448  -10.9954  -17.9315 C   0  0  1  0  0  0  0  0  0  0  0  0
   19.2913  -11.6349  -18.9522 C   0  0  0  0  0  0  0  0  0  0  0  0
   19.1908  -13.1175  -18.9111 C   0  0  0  0  0  0  0  0  0  0  0  0
   18.3717  -13.7310  -19.9926 C   0  0  0  0  0  0  0  0  0  0  0  0
   18.3373  -15.2500  -19.8608 C   0  0  0  0  0  0  0  0  0  0  0  0
   17.4429  -15.8101  -20.8487 N   0  0  0  0  0  0  0  0  0  0  0  0
   19.5161  -10.2607  -16.8357 C   0  0  0  0  0  0  0  0  0  0  0  0
   18.3612  -10.5742  -16.4664 O   0  0  0  0  0  0  0  0  0  0  0  0
   19.0880   -7.0583  -12.6626 N   0  0  0  0  0  0  0  0  0  0  0  0
   19.3438   -8.4526  -12.5491 C   0  0  0  0  0  0  0  0  0  0  0  0
   19.2410   -8.9701  -11.4305 O   0  0  0  0  0  0  0  0  0  0  0  0
   19.7102   -9.2076  -13.7321 C   0  0  0  0  0  0  0  0  0  0  0  0
   19.8634   -8.4923  -15.0145 C   0  0  2  0  0  0  0  0  0  0  0  0
   20.1831   -9.2175  -16.1804 N   0  0  0  0  0  0  0  0  0  0  0  0
   20.7343   -7.2521  -14.8683 C   0  0  0  0  0  0  0  0  0  0  0  0
   20.5294   -6.4326  -13.9692 O   0  0  0  0  0  0  0  0  0  0  0  0
   23.5568   -6.5778  -18.0175 C   0  0  0  0  0  0  0  0  0  0  0  0
   23.9025   -6.1315  -16.6098 C   0  0  1  0  0  0  0  0  0  0  0  0
   24.7156   -5.0158  -16.6606 O   0  0  0  0  0  0  0  0  0  0  0  0
   22.6350   -5.9207  -15.8205 C   0  0  2  0  0  0  0  0  0  0  0  0
   21.7784   -7.0841  -15.7917 N   0  0  0  0  0  0  0  0  0  0  0  0
   21.9462   -4.6471  -16.1333 C   0  0  0  0  0  0  0  0  0  0  0  0
   22.5322   -3.5499  -16.1281 O   0  0  0  0  0  0  0  0  0  0  0  0
   20.6020   -4.6418  -16.4467 O   0  0  0  0  0  0  0  0  0  0  0  0
  2  8  1  0
  2  1  1  1
  3  2  1  0
  4  3  1  0
  5  4  1  0
  5  6  1  0
  6  7  1  0
  8  9  2  0
 10 11  1  0
 11 12  2  0
 13 11  1  0
 14 13  1  1
 15 14  1  0
 15  8  1  0
 16 17  2  0
 16 14  1  0
 19 18  1  6
 19 21  1  0
 20 19  1  0
 21 22  1  6
 21 23  1  0
 22 16  1  0
 23 25  1  0
 24 23  2  0
M  END
$$$$
