KNT.pdb
     RDKit          3D

 25 24  0  0  1  0  0  0  0  0999 V2000
   23.9938  -23.5349  -16.2418 N   0  0  0  0  0  0  0  0  0  0  0  0
   24.0590  -22.1325  -15.9584 C   0  0  1  0  0  0  0  0  0  0  0  0
   25.0387  -21.4643  -16.8375 C   0  0  0  0  0  0  0  0  0  0  0  0
   26.4625  -21.8625  -16.6817 C   0  0  0  0  0  0  0  0  0  0  0  0
   26.7049  -23.3263  -16.5569 C   0  0  0  0  0  0  0  0  0  0  0  0
   27.9208  -23.6087  -15.6805 C   0  0  0  0  0  0  0  0  0  0  0  0
   29.1275  -23.2095  -16.3689 N   0  0  0  0  0  0  0  0  0  0  0  0
   22.7740  -21.4852  -15.7021 C   0  0  0  0  0  0  0  0  0  0  0  0
   21.7934  -21.7509  -16.4342 O   0  0  0  0  0  0  0  0  0  0  0  0
   20.9237  -22.2576  -12.7960 N   0  0  0  0  0  0  0  0  0  0  0  0
   20.8781  -21.0295  -12.0803 C   0  0  0  0  0  0  0  0  0  0  0  0
   20.5938  -21.0715  -10.8774 O   0  0  0  0  0  0  0  0  0  0  0  0
   21.1632  -19.7893  -12.7763 C   0  0  0  0  0  0  0  0  0  0  0  0
   21.4926  -19.8390  -14.2146 C   0  0  2  0  0  0  0  0  0  0  0  0
   22.6121  -20.5797  -14.6455 N   0  0  0  0  0  0  0  0  0  0  0  0
   21.4560  -18.4560  -14.8500 C   0  0  0  0  0  0  0  0  0  0  0  0
   22.2450  -17.5740  -14.5013 O   0  0  0  0  0  0  0  0  0  0  0  0
   20.5263  -15.4855  -18.4436 C   0  0  0  0  0  0  0  0  0  0  0  0
   20.6157  -16.9096  -17.9294 C   0  0  1  0  0  0  0  0  0  0  0  0
   21.8610  -17.4329  -18.2192 O   0  0  0  0  0  0  0  0  0  0  0  0
   20.2739  -16.9396  -16.4610 C   0  0  2  0  0  0  0  0  0  0  0  0
   20.4950  -18.2294  -15.8481 N   0  0  0  0  0  0  0  0  0  0  0  0
   18.9696  -16.3137  -16.1426 C   0  0  0  0  0  0  0  0  0  0  0  0
   18.7908  -15.0833  -16.1777 O   0  0  0  0  0  0  0  0  0  0  0  0
   17.8897  -17.0972  -15.7889 O   0  0  0  0  0  0  0  0  0  0  0  0
  2  8  1  0
  2  1  1  6
  3  2  1  0
  4  3  1  0
  5  4  1  0
  5  6  1  0
  6  7  1  0
  8  9  2  0
 10 11  1  0
 11 12  2  0
 13 11  1  0
 14 13  1  1
 15 14  1  0
 15  8  1  0
 16 17  2  0
 16 14  1  0
 19 18  1  1
 19 21  1  0
 20 19  1  0
 21 22  1  6
 21 23  1  0
 22 16  1  0
 23 25  1  0
 24 23  2  0
M  END
$$$$
