KNT.pdb
     RDKit          3D

 25 24  0  0  1  0  0  0  0  0999 V2000
   22.9518  -21.7004  -12.1170 N   0  0  0  0  0  0  0  0  0  0  0  0
   23.7656  -20.5970  -11.7027 C   0  0  1  0  0  0  0  0  0  0  0  0
   24.3693  -20.8571  -10.3810 C   0  0  0  0  0  0  0  0  0  0  0  0
   23.5559  -21.6389   -9.4128 C   0  0  0  0  0  0  0  0  0  0  0  0
   23.2011  -20.9247   -8.1555 C   0  0  0  0  0  0  0  0  0  0  0  0
   22.4348  -21.8369   -7.2033 C   0  0  0  0  0  0  0  0  0  0  0  0
   22.1964  -21.1539   -5.9518 N   0  0  0  0  0  0  0  0  0  0  0  0
   24.5830  -19.9928  -12.7528 C   0  0  0  0  0  0  0  0  0  0  0  0
   25.2942  -18.9977  -12.4842 O   0  0  0  0  0  0  0  0  0  0  0  0
   28.0315  -19.5191  -14.5193 N   0  0  0  0  0  0  0  0  0  0  0  0
   27.7637  -20.7067  -15.2544 C   0  0  0  0  0  0  0  0  0  0  0  0
   28.7094  -21.4696  -15.4848 O   0  0  0  0  0  0  0  0  0  0  0  0
   26.4104  -20.9775  -15.7007 C   0  0  0  0  0  0  0  0  0  0  0  0
   25.3127  -20.1235  -15.2054 C   0  0  2  0  0  0  0  0  0  0  0  0
   24.5966  -20.5107  -14.0544 N   0  0  0  0  0  0  0  0  0  0  0  0
   24.3796  -19.6955  -16.3296 C   0  0  0  0  0  0  0  0  0  0  0  0
   23.6762  -20.5183  -16.9213 O   0  0  0  0  0  0  0  0  0  0  0  0
   21.5768  -17.2610  -16.2698 C   0  0  0  0  0  0  0  0  0  0  0  0
   22.6005  -16.6868  -17.2303 C   0  0  1  0  0  0  0  0  0  0  0  0
   23.2625  -15.6325  -16.6311 O   0  0  0  0  0  0  0  0  0  0  0  0
   23.5181  -17.7843  -17.7072 C   0  0  2  0  0  0  0  0  0  0  0  0
   24.3495  -18.3311  -16.6593 N   0  0  0  0  0  0  0  0  0  0  0  0
   24.2329  -17.4564  -18.9625 C   0  0  0  0  0  0  0  0  0  0  0  0
   25.4720  -17.5042  -19.0597 O   0  0  0  0  0  0  0  0  0  0  0  0
   23.5270  -17.0789  -20.0870 O   0  0  0  0  0  0  0  0  0  0  0  0
  2  8  1  0
  2  1  1  6
  3  2  1  0
  4  3  1  0
  5  4  1  0
  5  6  1  0
  6  7  1  0
  8  9  2  0
 10 11  1  0
 11 12  2  0
 13 11  1  0
 14 13  1  6
 15 14  1  0
 15  8  1  0
 16 17  2  0
 16 14  1  0
 19 18  1  1
 19 21  1  0
 20 19  1  0
 21 22  1  1
 21 23  1  0
 22 16  1  0
 23 25  1  0
 24 23  2  0
M  END
$$$$
