KNT.pdb
     RDKit          3D

 25 24  0  0  1  0  0  0  0  0999 V2000
   22.0460  -12.1935  -17.1182 N   0  0  0  0  0  0  0  0  0  0  0  0
   21.0719  -11.5360  -17.9368 C   0  0  1  0  0  0  0  0  0  0  0  0
   20.3206  -12.5147  -18.7473 C   0  0  0  0  0  0  0  0  0  0  0  0
   21.0802  -13.6835  -19.2639 C   0  0  0  0  0  0  0  0  0  0  0  0
   20.5229  -15.0161  -18.9025 C   0  0  0  0  0  0  0  0  0  0  0  0
   21.2978  -16.1387  -19.5847 C   0  0  0  0  0  0  0  0  0  0  0  0
   20.7686  -17.4207  -19.1774 N   0  0  0  0  0  0  0  0  0  0  0  0
   20.3502  -10.4402  -17.2933 C   0  0  0  0  0  0  0  0  0  0  0  0
   19.4659   -9.8256  -17.9325 O   0  0  0  0  0  0  0  0  0  0  0  0
   18.9867   -7.0000  -13.4867 N   0  0  0  0  0  0  0  0  0  0  0  0
   18.6589   -8.3530  -13.1963 C   0  0  0  0  0  0  0  0  0  0  0  0
   17.8946   -8.5721  -12.2489 O   0  0  0  0  0  0  0  0  0  0  0  0
   19.2237   -9.4125  -14.0101 C   0  0  0  0  0  0  0  0  0  0  0  0
   20.0783   -9.0504  -15.1581 C   0  0  2  0  0  0  0  0  0  0  0  0
   20.6192  -10.0683  -15.9697 N   0  0  0  0  0  0  0  0  0  0  0  0
   21.1307   -8.0191  -14.7749 C   0  0  0  0  0  0  0  0  0  0  0  0
   22.0833   -8.3202  -14.0511 O   0  0  0  0  0  0  0  0  0  0  0  0
   21.8028   -4.9226  -17.4396 C   0  0  0  0  0  0  0  0  0  0  0  0
   22.7426   -5.3530  -16.3298 C   0  0  1  0  0  0  0  0  0  0  0  0
   23.7109   -4.3865  -16.1375 O   0  0  0  0  0  0  0  0  0  0  0  0
   21.9478   -5.6682  -15.0877 C   0  0  2  0  0  0  0  0  0  0  0  0
   20.9752   -6.7192  -15.2819 N   0  0  0  0  0  0  0  0  0  0  0  0
   21.4354   -4.4660  -14.3903 C   0  0  0  0  0  0  0  0  0  0  0  0
   20.2318   -4.3127  -14.1164 O   0  0  0  0  0  0  0  0  0  0  0  0
   22.3000   -3.4573  -14.0159 O   0  0  0  0  0  0  0  0  0  0  0  0
  2  8  1  0
  2  1  1  1
  3  2  1  0
  4  3  1  0
  5  4  1  0
  5  6  1  0
  6  7  1  0
  8  9  2  0
 10 11  1  0
 11 12  2  0
 13 11  1  0
 14 13  1  1
 15 14  1  0
 15  8  1  0
 16 17  2  0
 16 14  1  0
 19 18  1  6
 19 21  1  0
 20 19  1  0
 21 22  1  6
 21 23  1  0
 22 16  1  0
 23 25  1  0
 24 23  2  0
M  END
$$$$
