KNT.pdb
     RDKit          3D

 25 24  0  0  1  0  0  0  0  0999 V2000
   28.0548  -22.0850  -17.5084 N   0  0  0  0  0  0  0  0  0  0  0  0
   27.1685  -22.8740  -16.7063 C   0  0  1  0  0  0  0  0  0  0  0  0
   27.9000  -23.9672  -16.0361 C   0  0  0  0  0  0  0  0  0  0  0  0
   27.9407  -25.2773  -16.7374 C   0  0  0  0  0  0  0  0  0  0  0  0
   26.6141  -25.8459  -17.1034 C   0  0  0  0  0  0  0  0  0  0  0  0
   26.7652  -27.2153  -17.7575 C   0  0  0  0  0  0  0  0  0  0  0  0
   25.4630  -27.8048  -17.9726 N   0  0  0  0  0  0  0  0  0  0  0  0
   26.1668  -22.1211  -15.9544 C   0  0  0  0  0  0  0  0  0  0  0  0
   26.3845  -21.8333  -14.7552 O   0  0  0  0  0  0  0  0  0  0  0  0
   22.6782  -18.2046  -14.6956 N   0  0  0  0  0  0  0  0  0  0  0  0
   22.5737  -18.8031  -15.9814 C   0  0  0  0  0  0  0  0  0  0  0  0
   21.5183  -18.6483  -16.6072 O   0  0  0  0  0  0  0  0  0  0  0  0
   23.6928  -19.5623  -16.5060 C   0  0  0  0  0  0  0  0  0  0  0  0
   23.8890  -20.9515  -16.0466 C   0  0  2  0  0  0  0  0  0  0  0  0
   24.9698  -21.7036  -16.5505 N   0  0  0  0  0  0  0  0  0  0  0  0
   22.5901  -21.7449  -16.0777 C   0  0  0  0  0  0  0  0  0  0  0  0
   22.0839  -22.0961  -17.1466 O   0  0  0  0  0  0  0  0  0  0  0  0
   21.7993  -24.6259  -13.5119 C   0  0  0  0  0  0  0  0  0  0  0  0
   20.6504  -23.6358  -13.5040 C   0  0  1  0  0  0  0  0  0  0  0  0
   20.6462  -22.9355  -12.3131 O   0  0  0  0  0  0  0  0  0  0  0  0
   20.7346  -22.7534  -14.7240 C   0  0  2  0  0  0  0  0  0  0  0  0
   21.9984  -22.0631  -14.8450 N   0  0  0  0  0  0  0  0  0  0  0  0
   19.5384  -21.9033  -14.9250 C   0  0  0  0  0  0  0  0  0  0  0  0
   19.6068  -20.6664  -15.0364 O   0  0  0  0  0  0  0  0  0  0  0  0
   18.2834  -22.4736  -14.9958 O   0  0  0  0  0  0  0  0  0  0  0  0
  2  8  1  0
  2  1  1  1
  3  2  1  0
  4  3  1  0
  5  4  1  0
  5  6  1  0
  6  7  1  0
  8  9  2  0
 10 11  1  0
 11 12  2  0
 13 11  1  0
 14 13  1  6
 15 14  1  0
 15  8  1  0
 16 17  2  0
 16 14  1  0
 19 18  1  1
 19 21  1  0
 20 19  1  0
 21 22  1  1
 21 23  1  0
 22 16  1  0
 23 25  1  0
 24 23  2  0
M  END
$$$$
