KNT.pdb
     RDKit          3D

 25 24  0  0  1  0  0  0  0  0999 V2000
   25.3256  -21.6501  -10.5269 N   0  0  0  0  0  0  0  0  0  0  0  0
   24.3732  -20.8738  -11.2627 C   0  0  1  0  0  0  0  0  0  0  0  0
   23.5462  -20.0574  -10.3523 C   0  0  0  0  0  0  0  0  0  0  0  0
   22.4520  -20.7571   -9.6290 C   0  0  0  0  0  0  0  0  0  0  0  0
   21.3744  -21.3167  -10.4907 C   0  0  0  0  0  0  0  0  0  0  0  0
   20.1811  -21.7672   -9.6546 C   0  0  0  0  0  0  0  0  0  0  0  0
   20.5457  -22.9140   -8.8537 N   0  0  0  0  0  0  0  0  0  0  0  0
   24.8736  -20.2765  -12.4991 C   0  0  0  0  0  0  0  0  0  0  0  0
   25.3920  -19.1370  -12.4670 O   0  0  0  0  0  0  0  0  0  0  0  0
   27.9673  -20.7966  -14.1909 N   0  0  0  0  0  0  0  0  0  0  0  0
   27.5211  -21.6272  -15.2554 C   0  0  0  0  0  0  0  0  0  0  0  0
   28.3241  -22.4384  -15.7314 O   0  0  0  0  0  0  0  0  0  0  0  0
   26.1594  -21.4960  -15.7377 C   0  0  0  0  0  0  0  0  0  0  0  0
   25.2304  -20.6050  -15.0149 C   0  0  2  0  0  0  0  0  0  0  0  0
   24.7956  -20.9573  -13.7209 N   0  0  0  0  0  0  0  0  0  0  0  0
   24.0701  -20.1646  -15.8966 C   0  0  0  0  0  0  0  0  0  0  0  0
   23.0242  -20.8171  -15.9456 O   0  0  0  0  0  0  0  0  0  0  0  0
   22.4515  -16.6788  -16.0573 C   0  0  0  0  0  0  0  0  0  0  0  0
   23.0182  -16.9915  -17.4289 C   0  0  1  0  0  0  0  0  0  0  0  0
   24.1567  -16.2396  -17.6458 O   0  0  0  0  0  0  0  0  0  0  0  0
   23.2412  -18.4773  -17.5574 C   0  0  2  0  0  0  0  0  0  0  0  0
   24.2375  -18.9877  -16.6436 N   0  0  0  0  0  0  0  0  0  0  0  0
   23.3869  -18.9364  -18.9583 C   0  0  0  0  0  0  0  0  0  0  0  0
   24.3726  -19.5854  -19.3512 O   0  0  0  0  0  0  0  0  0  0  0  0
   22.4096  -18.6496  -19.8897 O   0  0  0  0  0  0  0  0  0  0  0  0
  2  8  1  0
  2  1  1  1
  3  2  1  0
  4  3  1  0
  5  4  1  0
  5  6  1  0
  6  7  1  0
  8  9  2  0
 10 11  1  0
 11 12  2  0
 13 11  1  0
 14 13  1  6
 15 14  1  0
 15  8  1  0
 16 17  2  0
 16 14  1  0
 19 18  1  1
 19 21  1  0
 20 19  1  0
 21 22  1  1
 21 23  1  0
 22 16  1  0
 23 25  1  0
 24 23  2  0
M  END
$$$$
