KNT.pdb
     RDKit          3D

 25 24  0  0  1  0  0  0  0  0999 V2000
   23.9159  -33.8673  -10.2060 N   0  0  0  0  0  0  0  0  0  0  0  0
   25.1845  -34.5320  -10.2156 C   0  0  1  0  0  0  0  0  0  0  0  0
   25.9637  -34.1585  -11.4125 C   0  0  0  0  0  0  0  0  0  0  0  0
   25.3164  -34.3811  -12.7322 C   0  0  0  0  0  0  0  0  0  0  0  0
   25.3233  -33.2095  -13.6511 C   0  0  0  0  0  0  0  0  0  0  0  0
   24.6684  -33.5539  -14.9847 C   0  0  0  0  0  0  0  0  0  0  0  0
   24.7863  -32.4368  -15.8944 N   0  0  0  0  0  0  0  0  0  0  0  0
   25.8597  -34.6112   -8.9220 C   0  0  0  0  0  0  0  0  0  0  0  0
   26.9523  -35.2167   -8.8333 O   0  0  0  0  0  0  0  0  0  0  0  0
   28.3842  -33.2021   -4.4113 N   0  0  0  0  0  0  0  0  0  0  0  0
   27.1247  -32.6250   -4.7322 C   0  0  0  0  0  0  0  0  0  0  0  0
   26.5034  -32.0534   -3.8284 O   0  0  0  0  0  0  0  0  0  0  0  0
   26.6210  -32.7251   -6.0888 C   0  0  0  0  0  0  0  0  0  0  0  0
   25.8065  -33.8986   -6.4614 C   0  0  2  0  0  0  0  0  0  0  0  0
   25.3153  -34.0135   -7.7779 N   0  0  0  0  0  0  0  0  0  0  0  0
   24.7226  -34.1834   -5.4309 C   0  0  0  0  0  0  0  0  0  0  0  0
   23.7526  -33.4319   -5.3028 O   0  0  0  0  0  0  0  0  0  0  0  0
   23.3197  -37.8483   -4.7917 C   0  0  0  0  0  0  0  0  0  0  0  0
   23.8019  -37.2379   -3.4897 C   0  0  1  0  0  0  0  0  0  0  0  0
   24.9827  -37.8406   -3.1010 O   0  0  0  0  0  0  0  0  0  0  0  0
   23.9082  -35.7413   -3.6415 C   0  0  2  0  0  0  0  0  0  0  0  0
   24.8699  -35.3342   -4.6404 N   0  0  0  0  0  0  0  0  0  0  0  0
   24.0060  -35.0196   -2.3516 C   0  0  0  0  0  0  0  0  0  0  0  0
   24.9227  -34.2171   -2.1010 O   0  0  0  0  0  0  0  0  0  0  0  0
   23.0599  -35.2226   -1.3673 O   0  0  0  0  0  0  0  0  0  0  0  0
  2  8  1  0
  2  1  1  1
  3  2  1  0
  4  3  1  0
  5  4  1  0
  5  6  1  0
  6  7  1  0
  8  9  2  0
 10 11  1  0
 11 12  2  0
 13 11  1  0
 14 13  1  1
 15 14  1  0
 15  8  1  0
 16 17  2  0
 16 14  1  0
 19 18  1  6
 19 21  1  0
 20 19  1  0
 21 22  1  6
 21 23  1  0
 22 16  1  0
 23 25  1  0
 24 23  2  0
M  END
$$$$
