KNT.pdb
     RDKit          3D

 25 24  0  0  1  0  0  0  0  0999 V2000
   19.6763  -11.8476  -15.9538 N   0  0  0  0  0  0  0  0  0  0  0  0
   18.9996  -10.5853  -15.9702 C   0  0  1  0  0  0  0  0  0  0  0  0
   17.5384  -10.7742  -16.0614 C   0  0  0  0  0  0  0  0  0  0  0  0
   17.0533  -12.1598  -16.2956 C   0  0  0  0  0  0  0  0  0  0  0  0
   15.5733  -12.3224  -16.3131 C   0  0  0  0  0  0  0  0  0  0  0  0
   15.1839  -13.7870  -16.4845 C   0  0  0  0  0  0  0  0  0  0  0  0
   13.7498  -13.9023  -16.6236 N   0  0  0  0  0  0  0  0  0  0  0  0
   19.5321   -9.5776  -15.0554 C   0  0  0  0  0  0  0  0  0  0  0  0
   20.0840   -9.9413  -13.9918 O   0  0  0  0  0  0  0  0  0  0  0  0
   22.6156   -4.9828  -13.9971 N   0  0  0  0  0  0  0  0  0  0  0  0
   21.7826   -5.9501  -13.3704 C   0  0  0  0  0  0  0  0  0  0  0  0
   21.4854   -5.7747  -12.1828 O   0  0  0  0  0  0  0  0  0  0  0  0
   21.3171   -7.0911  -14.1354 C   0  0  0  0  0  0  0  0  0  0  0  0
   19.9402   -7.0780  -14.6678 C   0  0  2  0  0  0  0  0  0  0  0  0
   19.4479   -8.2103  -15.3484 N   0  0  0  0  0  0  0  0  0  0  0  0
   19.6410   -5.7926  -15.4268 C   0  0  0  0  0  0  0  0  0  0  0  0
   20.2076   -5.5356  -16.4921 O   0  0  0  0  0  0  0  0  0  0  0  0
   16.3123   -4.6744  -16.7018 C   0  0  0  0  0  0  0  0  0  0  0  0
   16.7571   -3.6321  -15.6938 C   0  0  1  0  0  0  0  0  0  0  0  0
   16.0516   -3.7907  -14.5166 O   0  0  0  0  0  0  0  0  0  0  0  0
   18.2528   -3.7052  -15.5170 C   0  0  2  0  0  0  0  0  0  0  0  0
   18.6939   -4.9192  -14.8689 N   0  0  0  0  0  0  0  0  0  0  0  0
   18.8483   -2.4600  -14.9792 C   0  0  0  0  0  0  0  0  0  0  0  0
   18.6497   -1.3457  -15.4948 O   0  0  0  0  0  0  0  0  0  0  0  0
   19.6603   -2.5023  -13.8638 O   0  0  0  0  0  0  0  0  0  0  0  0
  2  8  1  0
  2  1  1  1
  3  2  1  0
  4  3  1  0
  5  4  1  0
  5  6  1  0
  6  7  1  0
  8  9  2  0
 10 11  1  0
 11 12  2  0
 13 11  1  0
 14 13  1  6
 15 14  1  0
 15  8  1  0
 16 17  2  0
 16 14  1  0
 19 18  1  6
 19 21  1  0
 20 19  1  0
 21 22  1  1
 21 23  1  0
 22 16  1  0
 23 25  1  0
 24 23  2  0
M  END
$$$$
