KNT.pdb
     RDKit          3D

 25 24  0  0  1  0  0  0  0  0999 V2000
   23.3947  -20.5025   -8.7543 N   0  0  0  0  0  0  0  0  0  0  0  0
   23.8201  -20.8142  -10.0859 C   0  0  1  0  0  0  0  0  0  0  0  0
   22.7173  -20.6210  -11.0480 C   0  0  0  0  0  0  0  0  0  0  0  0
   21.4918  -21.4359  -10.8379 C   0  0  0  0  0  0  0  0  0  0  0  0
   20.4301  -21.2676  -11.8681 C   0  0  0  0  0  0  0  0  0  0  0  0
   19.2060  -22.1155  -11.5387 C   0  0  0  0  0  0  0  0  0  0  0  0
   18.1977  -21.9427  -12.5599 N   0  0  0  0  0  0  0  0  0  0  0  0
   25.1618  -20.3543  -10.4384 C   0  0  0  0  0  0  0  0  0  0  0  0
   25.5898  -19.2788   -9.9604 O   0  0  0  0  0  0  0  0  0  0  0  0
   30.7966  -20.7984  -11.5351 N   0  0  0  0  0  0  0  0  0  0  0  0
   29.6434  -21.0323  -12.3337 C   0  0  0  0  0  0  0  0  0  0  0  0
   29.7365  -20.8449  -13.5526 O   0  0  0  0  0  0  0  0  0  0  0  0
   28.4168  -21.4767  -11.6997 C   0  0  0  0  0  0  0  0  0  0  0  0
   27.1631  -20.7525  -11.9879 C   0  0  2  0  0  0  0  0  0  0  0  0
   25.9860  -21.0977  -11.2930 N   0  0  0  0  0  0  0  0  0  0  0  0
   26.9151  -20.6272  -13.4848 C   0  0  0  0  0  0  0  0  0  0  0  0
   26.5300  -21.5927  -14.1494 O   0  0  0  0  0  0  0  0  0  0  0  0
   25.6843  -17.0197  -15.1062 C   0  0  0  0  0  0  0  0  0  0  0  0
   26.8757  -17.6396  -15.8108 C   0  0  1  0  0  0  0  0  0  0  0  0
   28.0235  -16.9415  -15.4885 O   0  0  0  0  0  0  0  0  0  0  0  0
   26.9495  -19.1094  -15.4816 C   0  0  2  0  0  0  0  0  0  0  0  0
   27.1367  -19.3719  -14.0730 N   0  0  0  0  0  0  0  0  0  0  0  0
   27.8423  -19.8750  -16.3823 C   0  0  0  0  0  0  0  0  0  0  0  0
   28.7521  -20.6093  -15.9577 O   0  0  0  0  0  0  0  0  0  0  0  0
   27.6863  -19.7927  -17.7512 O   0  0  0  0  0  0  0  0  0  0  0  0
  2  8  1  0
  2  1  1  1
  3  2  1  0
  4  3  1  0
  5  4  1  0
  5  6  1  0
  6  7  1  0
  8  9  2  0
 10 11  1  0
 11 12  2  0
 13 11  1  0
 14 13  1  6
 15 14  1  0
 15  8  1  0
 16 17  2  0
 16 14  1  0
 19 18  1  1
 19 21  1  0
 20 19  1  0
 21 22  1  1
 21 23  1  0
 22 16  1  0
 23 25  1  0
 24 23  2  0
M  END
$$$$
