KNT.pdb
     RDKit          3D

 25 24  0  0  1  0  0  0  0  0999 V2000
   18.1609  -15.2205  -17.9537 N   0  0  0  0  0  0  0  0  0  0  0  0
   18.7224  -14.4080  -16.9165 C   0  0  1  0  0  0  0  0  0  0  0  0
   20.0496  -14.9137  -16.5141 C   0  0  0  0  0  0  0  0  0  0  0  0
   20.2170  -16.3897  -16.4558 C   0  0  0  0  0  0  0  0  0  0  0  0
   21.6035  -16.8639  -16.1917 C   0  0  0  0  0  0  0  0  0  0  0  0
   21.6668  -18.3875  -16.1645 C   0  0  0  0  0  0  0  0  0  0  0  0
   23.0386  -18.8211  -16.0242 N   0  0  0  0  0  0  0  0  0  0  0  0
   18.5260  -12.9684  -17.0733 C   0  0  0  0  0  0  0  0  0  0  0  0
   18.6118  -12.4553  -18.2124 O   0  0  0  0  0  0  0  0  0  0  0  0
   14.4032  -11.0543  -15.7321 N   0  0  0  0  0  0  0  0  0  0  0  0
   15.5914  -10.5881  -16.3592 C   0  0  0  0  0  0  0  0  0  0  0  0
   15.6063  -10.5238  -17.5942 O   0  0  0  0  0  0  0  0  0  0  0  0
   16.7269  -10.2094  -15.5400 C   0  0  0  0  0  0  0  0  0  0  0  0
   18.0583  -10.7538  -15.8726 C   0  0  2  0  0  0  0  0  0  0  0  0
   18.2322  -12.1490  -15.9756 N   0  0  0  0  0  0  0  0  0  0  0  0
   19.1557  -10.1115  -15.0353 C   0  0  0  0  0  0  0  0  0  0  0  0
   19.2685  -10.3627  -13.8327 O   0  0  0  0  0  0  0  0  0  0  0  0
   22.7585  -10.3627  -15.5241 C   0  0  0  0  0  0  0  0  0  0  0  0
   22.4744   -8.8775  -15.6416 C   0  0  1  0  0  0  0  0  0  0  0  0
   22.5804   -8.4853  -16.9621 O   0  0  0  0  0  0  0  0  0  0  0  0
   21.1335   -8.5686  -15.0248 C   0  0  2  0  0  0  0  0  0  0  0  0
   20.0326   -9.2301  -15.6873 N   0  0  0  0  0  0  0  0  0  0  0  0
   20.9228   -7.1276  -14.7542 C   0  0  0  0  0  0  0  0  0  0  0  0
   19.9573   -6.4936  -15.2159 O   0  0  0  0  0  0  0  0  0  0  0  0
   21.8137   -6.4306  -13.9632 O   0  0  0  0  0  0  0  0  0  0  0  0
  2  8  1  0
  2  1  1  6
  3  2  1  0
  4  3  1  0
  5  4  1  0
  5  6  1  0
  6  7  1  0
  8  9  2  0
 10 11  1  0
 11 12  2  0
 13 11  1  0
 14 13  1  1
 15 14  1  0
 15  8  1  0
 16 17  2  0
 16 14  1  0
 19 18  1  6
 19 21  1  0
 20 19  1  0
 21 22  1  6
 21 23  1  0
 22 16  1  0
 23 25  1  0
 24 23  2  0
M  END
$$$$
