KNT.pdb
     RDKit          3D

 25 24  0  0  1  0  0  0  0  0999 V2000
   18.9657  -13.2426  -17.7387 N   0  0  0  0  0  0  0  0  0  0  0  0
   17.9063  -12.8070  -16.8789 C   0  0  1  0  0  0  0  0  0  0  0  0
   17.3179  -13.9487  -16.1512 C   0  0  0  0  0  0  0  0  0  0  0  0
   17.0036  -15.1636  -16.9481 C   0  0  0  0  0  0  0  0  0  0  0  0
   16.3994  -16.2890  -16.1830 C   0  0  0  0  0  0  0  0  0  0  0  0
   16.1360  -17.4887  -17.0872 C   0  0  0  0  0  0  0  0  0  0  0  0
   15.5835  -18.5772  -16.3129 N   0  0  0  0  0  0  0  0  0  0  0  0
   18.1545  -11.5574  -16.1630 C   0  0  0  0  0  0  0  0  0  0  0  0
   17.2802  -11.1073  -15.3876 O   0  0  0  0  0  0  0  0  0  0  0  0
   21.4665   -8.3573  -13.0418 N   0  0  0  0  0  0  0  0  0  0  0  0
   21.6730   -8.4896  -14.4426 C   0  0  0  0  0  0  0  0  0  0  0  0
   22.2522   -7.5689  -15.0311 O   0  0  0  0  0  0  0  0  0  0  0  0
   21.2043   -9.6826  -15.1215 C   0  0  0  0  0  0  0  0  0  0  0  0
   19.8432   -9.6885  -15.6934 C   0  0  2  0  0  0  0  0  0  0  0  0
   19.3571  -10.8555  -16.3174 N   0  0  0  0  0  0  0  0  0  0  0  0
   19.5807   -8.4494  -16.5380 C   0  0  0  0  0  0  0  0  0  0  0  0
   20.0235   -8.3555  -17.6857 O   0  0  0  0  0  0  0  0  0  0  0  0
   16.4739   -7.1472  -17.7730 C   0  0  0  0  0  0  0  0  0  0  0  0
   16.9818   -6.0420  -16.8671 C   0  0  1  0  0  0  0  0  0  0  0  0
   16.2509   -6.0270  -15.6947 O   0  0  0  0  0  0  0  0  0  0  0  0
   18.4655   -6.2054  -16.6527 C   0  0  2  0  0  0  0  0  0  0  0  0
   18.8129   -7.4256  -15.9607 N   0  0  0  0  0  0  0  0  0  0  0  0
   19.1281   -4.9855  -16.1358 C   0  0  0  0  0  0  0  0  0  0  0  0
   19.0673   -3.8906  -16.7228 O   0  0  0  0  0  0  0  0  0  0  0  0
   19.8494   -5.0307  -14.9599 O   0  0  0  0  0  0  0  0  0  0  0  0
  2  8  1  0
  2  1  1  1
  3  2  1  0
  4  3  1  0
  5  4  1  0
  5  6  1  0
  6  7  1  0
  8  9  2  0
 10 11  1  0
 11 12  2  0
 13 11  1  0
 14 13  1  6
 15 14  1  0
 15  8  1  0
 16 17  2  0
 16 14  1  0
 19 18  1  6
 19 21  1  0
 20 19  1  0
 21 22  1  1
 21 23  1  0
 22 16  1  0
 23 25  1  0
 24 23  2  0
M  END
$$$$
