VGW.pdb
     RDKit          3D

 26 27  0  0  1  0  0  0  0  0999 V2000
   17.6507  -19.4013  -15.9458 C   0  0  0  0  0  0  0  0  0  0  0  0
   18.7631  -20.4222  -15.6908 C   0  0  1  0  0  0  0  0  0  0  0  0
   18.4247  -21.7401  -16.3548 C   0  0  0  0  0  0  0  0  0  0  0  0
   20.0194  -19.8897  -16.3395 C   0  0  2  0  0  0  0  0  0  0  0  0
   20.4777  -20.8683  -17.3225 N   0  0  0  0  0  0  0  0  0  0  0  0
   21.0796  -19.6164  -15.3538 C   0  0  0  0  0  0  0  0  0  0  0  0
   21.3254  -18.4295  -15.0286 O   0  0  0  0  0  0  0  0  0  0  0  0
   21.7868  -20.7339  -14.8079 N   0  0  0  0  0  0  0  0  0  0  0  0
   22.7909  -20.5410  -13.7966 C   0  0  0  0  0  0  0  0  0  0  0  0
   24.1707  -20.5188  -14.2813 C   0  0  0  0  0  0  0  0  0  0  0  0
   24.4109  -20.9302  -15.4687 O   0  0  0  0  0  0  0  0  0  0  0  0
   25.3109  -20.0827  -13.5647 N   0  0  0  0  0  0  0  0  0  0  0  0
   26.6219  -19.9484  -14.1847 C   0  0  1  0  0  0  0  0  0  0  0  0
   27.5385  -19.0850  -13.3421 C   0  0  0  0  0  0  0  0  0  0  0  0
   27.8203  -19.7748  -12.0613 C   0  0  0  0  0  0  0  0  0  0  0  0
   29.0256  -20.3735  -11.7001 C   0  0  0  0  0  0  0  0  0  0  0  0
   28.9132  -20.8974  -10.4747 N   0  0  0  0  0  0  0  0  0  0  0  0
   27.6718  -20.6634  -10.0155 C   0  0  0  0  0  0  0  0  0  0  0  0
   27.0313  -20.9778   -8.8346 C   0  0  0  0  0  0  0  0  0  0  0  0
   25.7224  -20.6293   -8.5720 C   0  0  0  0  0  0  0  0  0  0  0  0
   25.0285  -19.9300   -9.5501 C   0  0  0  0  0  0  0  0  0  0  0  0
   25.6524  -19.6062  -10.7390 C   0  0  0  0  0  0  0  0  0  0  0  0
   26.9606  -19.9582  -10.9930 C   0  0  0  0  0  0  0  0  0  0  0  0
   27.1753  -21.3082  -14.3713 C   0  0  0  0  0  0  0  0  0  0  0  0
   28.1996  -21.5262  -15.2823 O   0  0  0  0  0  0  0  0  0  0  0  0
   26.7526  -22.3027  -13.7284 O   0  0  0  0  0  0  0  0  0  0  0  0
  2  3  1  6
  2  1  1  0
  4  6  1  0
  4  2  1  0
  4  5  1  6
  6  8  1  0
  6  7  2  0
  8  9  1  0
 10 11  2  0
 10  9  1  0
 12 10  1  0
 13 14  1  1
 13 12  1  0
 14 15  1  0
 15 16  2  0
 16 17  1  0
 18 17  1  0
 19 18  2  0
 20 19  1  0
 21 22  1  0
 21 20  2  0
 22 23  2  0
 23 15  1  0
 23 18  1  0
 24 13  1  0
 25 24  1  0
 26 24  2  0
M  END
$$$$
