VGW.pdb
     RDKit          3D

 26 27  0  0  1  0  0  0  0  0999 V2000
   28.6823  -18.1866  -15.6472 C   0  0  0  0  0  0  0  0  0  0  0  0
   27.4767  -17.5741  -14.9286 C   0  0  1  0  0  0  0  0  0  0  0  0
   26.7141  -16.6655  -15.8696 C   0  0  0  0  0  0  0  0  0  0  0  0
   26.5588  -18.7102  -14.5419 C   0  0  2  0  0  0  0  0  0  0  0  0
   25.4880  -18.1704  -13.7077 N   0  0  0  0  0  0  0  0  0  0  0  0
   27.2740  -19.7831  -13.8294 C   0  0  0  0  0  0  0  0  0  0  0  0
   27.8450  -20.6848  -14.4895 O   0  0  0  0  0  0  0  0  0  0  0  0
   27.2824  -19.7433  -12.3993 N   0  0  0  0  0  0  0  0  0  0  0  0
   27.9473  -20.7700  -11.6428 C   0  0  0  0  0  0  0  0  0  0  0  0
   27.3373  -21.0909  -10.3528 C   0  0  0  0  0  0  0  0  0  0  0  0
   27.8279  -22.0507   -9.6637 O   0  0  0  0  0  0  0  0  0  0  0  0
   26.2280  -20.4430   -9.7584 N   0  0  0  0  0  0  0  0  0  0  0  0
   25.4132  -21.0718   -8.7280 C   0  0  1  0  0  0  0  0  0  0  0  0
   25.3040  -20.1870   -7.5028 C   0  0  0  0  0  0  0  0  0  0  0  0
   26.6448  -19.6575   -7.1600 C   0  0  0  0  0  0  0  0  0  0  0  0
   27.3241  -18.6454   -7.8354 C   0  0  0  0  0  0  0  0  0  0  0  0
   28.5056  -18.4319   -7.2461 N   0  0  0  0  0  0  0  0  0  0  0  0
   28.6277  -19.2709   -6.2031 C   0  0  0  0  0  0  0  0  0  0  0  0
   29.6244  -19.4730   -5.2707 C   0  0  0  0  0  0  0  0  0  0  0  0
   29.5342  -20.4120   -4.2638 C   0  0  0  0  0  0  0  0  0  0  0  0
   28.3817  -21.1829   -4.1969 C   0  0  0  0  0  0  0  0  0  0  0  0
   27.3729  -20.9955   -5.1214 C   0  0  0  0  0  0  0  0  0  0  0  0
   27.4712  -20.0550   -6.1242 C   0  0  0  0  0  0  0  0  0  0  0  0
   24.0842  -21.3564   -9.3135 C   0  0  0  0  0  0  0  0  0  0  0  0
   23.1216  -22.0237   -8.5687 O   0  0  0  0  0  0  0  0  0  0  0  0
   23.7752  -21.0146  -10.4834 O   0  0  0  0  0  0  0  0  0  0  0  0
  2  3  1  6
  2  1  1  0
  4  6  1  0
  4  2  1  0
  4  5  1  1
  6  8  1  0
  6  7  2  0
  8  9  1  0
 10 11  2  0
 10  9  1  0
 12 10  1  0
 13 14  1  1
 13 12  1  0
 14 15  1  0
 15 16  2  0
 16 17  1  0
 18 17  1  0
 19 18  2  0
 20 19  1  0
 21 22  1  0
 21 20  2  0
 22 23  2  0
 23 15  1  0
 23 18  1  0
 24 13  1  0
 25 24  1  0
 26 24  2  0
M  END
$$$$
