VGW.pdb
     RDKit          3D

 26 27  0  0  1  0  0  0  0  0999 V2000
   27.6274  -18.0416  -17.1529 C   0  0  0  0  0  0  0  0  0  0  0  0
   27.2924  -17.1636  -15.9440 C   0  0  1  0  0  0  0  0  0  0  0  0
   26.5326  -15.9314  -16.3879 C   0  0  0  0  0  0  0  0  0  0  0  0
   26.3818  -17.9659  -15.0440 C   0  0  2  0  0  0  0  0  0  0  0  0
   26.0863  -17.1642  -13.8592 N   0  0  0  0  0  0  0  0  0  0  0  0
   26.9805  -19.2548  -14.6561 C   0  0  0  0  0  0  0  0  0  0  0  0
   26.7553  -20.2723  -15.3551 O   0  0  0  0  0  0  0  0  0  0  0  0
   27.8012  -19.2830  -13.4845 N   0  0  0  0  0  0  0  0  0  0  0  0
   28.4205  -20.5078  -13.0546 C   0  0  0  0  0  0  0  0  0  0  0  0
   27.6899  -21.2518  -12.0290 C   0  0  0  0  0  0  0  0  0  0  0  0
   28.2111  -22.3212  -11.5582 O   0  0  0  0  0  0  0  0  0  0  0  0
   26.4292  -20.9169  -11.4793 N   0  0  0  0  0  0  0  0  0  0  0  0
   26.1403  -21.0287  -10.0563 C   0  0  1  0  0  0  0  0  0  0  0  0
   27.1558  -20.2645   -9.2313 C   0  0  0  0  0  0  0  0  0  0  0  0
   26.7578  -20.3049   -7.8045 C   0  0  0  0  0  0  0  0  0  0  0  0
   25.5725  -20.8347   -7.2983 C   0  0  0  0  0  0  0  0  0  0  0  0
   25.5552  -20.6966   -5.9682 N   0  0  0  0  0  0  0  0  0  0  0  0
   26.6915  -20.0926   -5.5802 C   0  0  0  0  0  0  0  0  0  0  0  0
   27.1817  -19.7143   -4.3472 C   0  0  0  0  0  0  0  0  0  0  0  0
   28.4022  -19.0927   -4.1806 C   0  0  0  0  0  0  0  0  0  0  0  0
   29.1628  -18.8420   -5.3145 C   0  0  0  0  0  0  0  0  0  0  0  0
   28.6891  -19.2132   -6.5577 C   0  0  0  0  0  0  0  0  0  0  0  0
   27.4686  -19.8338   -6.7151 C   0  0  0  0  0  0  0  0  0  0  0  0
   24.7672  -20.5239   -9.8326 C   0  0  0  0  0  0  0  0  0  0  0  0
   23.9293  -21.1582   -8.9259 O   0  0  0  0  0  0  0  0  0  0  0  0
   24.3095  -19.5221  -10.4392 O   0  0  0  0  0  0  0  0  0  0  0  0
  2  3  1  6
  2  1  1  0
  4  6  1  0
  4  2  1  0
  4  5  1  1
  6  8  1  0
  6  7  2  0
  8  9  1  0
 10 11  2  0
 10  9  1  0
 12 10  1  0
 13 14  1  1
 13 12  1  0
 14 15  1  0
 15 16  2  0
 16 17  1  0
 18 17  1  0
 19 18  2  0
 20 19  1  0
 21 22  1  0
 21 20  2  0
 22 23  2  0
 23 15  1  0
 23 18  1  0
 24 13  1  0
 25 24  1  0
 26 24  2  0
M  END
$$$$
