NEC.pdb
     RDKit          3D

 24 23  0  0  1  0  0  0  0  0999 V2000
    8.3890  -13.1182   17.1024 N   0  0  0  0  0  0  0  0  0  0  0  0
    7.6582  -14.3226   17.3758 C   0  0  0  0  0  0  0  0  0  0  0  0
    7.1384  -14.8585   16.3616 O   0  0  0  0  0  0  0  0  0  0  0  0
    7.5478  -14.8543   18.7354 C   0  0  0  0  0  0  0  0  0  0  0  0
    8.1362  -13.9991   19.8046 C   0  0  2  0  0  0  0  0  0  0  0  0
    9.5643  -13.7793   19.4987 N   0  0  0  0  0  0  0  0  0  0  0  0
    8.0776  -14.6510   21.1434 C   0  0  0  0  0  0  0  0  0  0  0  0
    7.0052  -14.9254   21.7075 O   0  0  0  0  0  0  0  0  0  0  0  0
    9.2864  -14.9852   21.8296 N   0  0  0  0  0  0  0  0  0  0  0  0
    9.2946  -15.6991   23.1094 C   0  0  1  0  0  0  0  0  0  0  0  0
   10.4097  -16.6903   23.1508 C   0  0  0  0  0  0  0  0  0  0  0  0
   10.1182  -17.9648   22.4358 C   0  0  0  0  0  0  0  0  0  0  0  0
   11.2408  -18.9095   22.3366 C   0  0  0  0  0  0  0  0  0  0  0  0
   11.4736  -19.7366   23.2222 O   0  0  0  0  0  0  0  0  0  0  0  0
    9.4463  -14.7371   24.2281 C   0  0  0  0  0  0  0  0  0  0  0  0
   10.3869  -13.9503   24.2591 O   0  0  0  0  0  0  0  0  0  0  0  0
   12.0910  -18.9053   21.2287 O   0  0  0  0  0  0  0  0  0  0  0  0
    8.4993  -14.6921   25.3129 N   0  0  0  0  0  0  0  0  0  0  0  0
    8.6221  -13.8403   26.4473 C   0  0  1  0  0  0  0  0  0  0  0  0
    7.6486  -12.6965   26.4819 C   0  0  0  0  0  0  0  0  0  0  0  0
    5.9251  -13.2507   26.3699 S   0  0  0  0  0  0  0  0  0  0  0  0
    8.4991  -14.5661   27.7364 C   0  0  0  0  0  0  0  0  0  0  0  0
    8.1439  -15.7683   27.7082 O   0  0  0  0  0  0  0  0  0  0  0  0
    8.7586  -13.9746   28.9593 O   0  0  0  0  0  0  0  0  0  0  0  0
  1  2  1  0
  2  3  2  0
  4  5  1  0
  4  2  1  0
  5  6  1  6
  7  5  1  0
  8  7  2  0
  9  7  1  0
 10 11  1  6
 10  9  1  0
 11 12  1  0
 13 12  1  0
 13 17  1  0
 14 13  2  0
 15 18  1  0
 15 10  1  0
 16 15  2  0
 19 20  1  6
 19 18  1  0
 20 21  1  0
 22 19  1  0
 22 24  1  0
 23 22  2  0
M  END
$$$$
