NEC.pdb
     RDKit          3D

 24 23  0  0  1  0  0  0  0  0999 V2000
   14.1142  -18.5197   21.3109 N   0  0  0  0  0  0  0  0  0  0  0  0
   12.6909  -18.3573   21.3954 C   0  0  0  0  0  0  0  0  0  0  0  0
   12.0276  -19.3150   20.9172 O   0  0  0  0  0  0  0  0  0  0  0  0
   12.0952  -17.1621   21.9956 C   0  0  0  0  0  0  0  0  0  0  0  0
   10.7036  -17.3286   22.5020 C   0  0  2  0  0  0  0  0  0  0  0  0
    9.8952  -17.9796   21.4513 N   0  0  0  0  0  0  0  0  0  0  0  0
   10.0521  -16.0217   22.7991 C   0  0  0  0  0  0  0  0  0  0  0  0
   10.5444  -15.1912   23.5812 O   0  0  0  0  0  0  0  0  0  0  0  0
    8.8115  -15.6826   22.1747 N   0  0  0  0  0  0  0  0  0  0  0  0
    8.1435  -14.3971   22.3955 C   0  0  1  0  0  0  0  0  0  0  0  0
    7.3318  -14.0153   21.2026 C   0  0  0  0  0  0  0  0  0  0  0  0
    8.1267  -13.4248   20.0890 C   0  0  0  0  0  0  0  0  0  0  0  0
    7.7658  -13.8812   18.7385 C   0  0  0  0  0  0  0  0  0  0  0  0
    6.7703  -14.5809   18.5338 O   0  0  0  0  0  0  0  0  0  0  0  0
    7.2638  -14.4784   23.5868 C   0  0  0  0  0  0  0  0  0  0  0  0
    6.5974  -15.4838   23.8104 O   0  0  0  0  0  0  0  0  0  0  0  0
    8.5422  -13.5372   17.6298 O   0  0  0  0  0  0  0  0  0  0  0  0
    7.1607  -13.3854   24.5198 N   0  0  0  0  0  0  0  0  0  0  0  0
    6.3958  -13.4275   25.7201 C   0  0  1  0  0  0  0  0  0  0  0  0
    6.8463  -14.4582   26.7159 C   0  0  0  0  0  0  0  0  0  0  0  0
    8.5600  -14.2006   27.2517 S   0  0  0  0  0  0  0  0  0  0  0  0
    6.3465  -12.1220   26.4250 C   0  0  0  0  0  0  0  0  0  0  0  0
    7.1328  -11.2183   26.0545 O   0  0  0  0  0  0  0  0  0  0  0  0
    5.4746  -11.8633   27.4669 O   0  0  0  0  0  0  0  0  0  0  0  0
  1  2  1  0
  2  3  2  0
  4  5  1  0
  4  2  1  0
  5  6  1  6
  7  5  1  0
  8  7  2  0
  9  7  1  0
 10 11  1  6
 10  9  1  0
 11 12  1  0
 13 12  1  0
 13 17  1  0
 14 13  2  0
 15 18  1  0
 15 10  1  0
 16 15  2  0
 19 20  1  1
 19 18  1  0
 20 21  1  0
 22 19  1  0
 22 24  1  0
 23 22  2  0
M  END
$$$$
