NEC.pdb
     RDKit          3D

 24 23  0  0  1  0  0  0  0  0999 V2000
    8.8777  -15.3082   18.0652 N   0  0  0  0  0  0  0  0  0  0  0  0
    7.7375  -14.5228   17.6879 C   0  0  0  0  0  0  0  0  0  0  0  0
    7.0874  -14.9828   16.7124 O   0  0  0  0  0  0  0  0  0  0  0  0
    7.3897  -13.2931   18.4024 C   0  0  0  0  0  0  0  0  0  0  0  0
    8.2318  -12.9873   19.5932 C   0  0  2  0  0  0  0  0  0  0  0  0
    9.6525  -13.0617   19.1965 N   0  0  0  0  0  0  0  0  0  0  0  0
    8.0381  -13.9779   20.6895 C   0  0  0  0  0  0  0  0  0  0  0  0
    6.9505  -14.1280   21.2712 O   0  0  0  0  0  0  0  0  0  0  0  0
    9.1283  -14.8016   21.1100 N   0  0  0  0  0  0  0  0  0  0  0  0
    9.0358  -15.7047   22.2603 C   0  0  1  0  0  0  0  0  0  0  0  0
    9.9603  -16.8645   22.0934 C   0  0  0  0  0  0  0  0  0  0  0  0
   11.4024  -16.4918   22.0482 C   0  0  0  0  0  0  0  0  0  0  0  0
   12.3450  -17.6127   21.9151 C   0  0  0  0  0  0  0  0  0  0  0  0
   13.1077  -17.7087   20.9499 O   0  0  0  0  0  0  0  0  0  0  0  0
    9.3755  -14.9771   23.5074 C   0  0  0  0  0  0  0  0  0  0  0  0
    9.9861  -13.9139   23.4699 O   0  0  0  0  0  0  0  0  0  0  0  0
   12.4122  -18.6170   22.8831 O   0  0  0  0  0  0  0  0  0  0  0  0
    9.0023  -15.4899   24.8010 N   0  0  0  0  0  0  0  0  0  0  0  0
    9.1362  -14.7639   26.0186 C   0  0  1  0  0  0  0  0  0  0  0  0
    8.1688  -13.6259   26.1805 C   0  0  0  0  0  0  0  0  0  0  0  0
    8.4027  -12.7356   27.7435 S   0  0  0  0  0  0  0  0  0  0  0  0
    9.0172  -15.6218   27.2241 C   0  0  0  0  0  0  0  0  0  0  0  0
    8.5174  -16.7641   27.0917 O   0  0  0  0  0  0  0  0  0  0  0  0
    9.4322  -15.2156   28.4793 O   0  0  0  0  0  0  0  0  0  0  0  0
  1  2  1  0
  2  3  2  0
  4  5  1  0
  4  2  1  0
  5  6  1  6
  7  5  1  0
  8  7  2  0
  9  7  1  0
 10 11  1  6
 10  9  1  0
 11 12  1  0
 13 12  1  0
 13 17  1  0
 14 13  2  0
 15 18  1  0
 15 10  1  0
 16 15  2  0
 19 20  1  1
 19 18  1  0
 20 21  1  0
 22 19  1  0
 22 24  1  0
 23 22  2  0
M  END
$$$$
