NEC.pdb
     RDKit          3D

 24 23  0  0  1  0  0  0  0  0999 V2000
    9.2800  -13.6274   16.4805 N   0  0  0  0  0  0  0  0  0  0  0  0
    7.9382  -14.1263   16.3811 C   0  0  0  0  0  0  0  0  0  0  0  0
    7.5833  -14.4386   15.2139 O   0  0  0  0  0  0  0  0  0  0  0  0
    7.0816  -14.2482   17.5622 C   0  0  0  0  0  0  0  0  0  0  0  0
    7.7187  -13.8674   18.8544 C   0  0  2  0  0  0  0  0  0  0  0  0
    8.2621  -12.5000   18.7261 N   0  0  0  0  0  0  0  0  0  0  0  0
    8.8641  -14.7554   19.2011 C   0  0  0  0  0  0  0  0  0  0  0  0
    8.7523  -15.9901   19.2833 O   0  0  0  0  0  0  0  0  0  0  0  0
   10.1539  -14.1932   19.4544 N   0  0  0  0  0  0  0  0  0  0  0  0
   11.3252  -15.0168   19.7664 C   0  0  1  0  0  0  0  0  0  0  0  0
   12.5078  -14.5700   18.9731 C   0  0  0  0  0  0  0  0  0  0  0  0
   13.7456  -15.3595   19.2286 C   0  0  0  0  0  0  0  0  0  0  0  0
   14.9084  -15.0044   18.4013 C   0  0  0  0  0  0  0  0  0  0  0  0
   16.0625  -15.2446   18.7660 O   0  0  0  0  0  0  0  0  0  0  0  0
   11.6385  -14.9289   21.2134 C   0  0  0  0  0  0  0  0  0  0  0  0
   11.9466  -13.8585   21.7274 O   0  0  0  0  0  0  0  0  0  0  0  0
   14.7484  -14.3776   17.1637 O   0  0  0  0  0  0  0  0  0  0  0  0
   11.5924  -16.0913   22.0634 N   0  0  0  0  0  0  0  0  0  0  0  0
   11.0655  -16.0948   23.3862 C   0  0  1  0  0  0  0  0  0  0  0  0
    9.6597  -15.5781   23.5033 C   0  0  0  0  0  0  0  0  0  0  0  0
    9.0448  -15.6246   25.2092 S   0  0  0  0  0  0  0  0  0  0  0  0
   11.0994  -17.4354   24.0228 C   0  0  0  0  0  0  0  0  0  0  0  0
   10.6207  -18.4052   23.3882 O   0  0  0  0  0  0  0  0  0  0  0  0
   11.6339  -17.6573   25.2789 O   0  0  0  0  0  0  0  0  0  0  0  0
  1  2  1  0
  2  3  2  0
  4  5  1  0
  4  2  1  0
  5  6  1  6
  7  5  1  0
  8  7  2  0
  9  7  1  0
 10 11  1  6
 10  9  1  0
 11 12  1  0
 13 12  1  0
 13 17  1  0
 14 13  2  0
 15 18  1  0
 15 10  1  0
 16 15  2  0
 19 20  1  6
 19 18  1  0
 20 21  1  0
 22 19  1  0
 22 24  1  0
 23 22  2  0
M  END
$$$$
