NEC.pdb
     RDKit          3D

 24 23  0  0  1  0  0  0  0  0999 V2000
    8.6937  -12.6726   17.2216 N   0  0  0  0  0  0  0  0  0  0  0  0
    7.7636  -13.7601   17.3282 C   0  0  0  0  0  0  0  0  0  0  0  0
    7.2002  -14.0724   16.2461 O   0  0  0  0  0  0  0  0  0  0  0  0
    7.5161  -14.4278   18.6075 C   0  0  0  0  0  0  0  0  0  0  0  0
    8.2751  -13.8834   19.7686 C   0  0  2  0  0  0  0  0  0  0  0  0
    9.7083  -14.1845   19.5767 N   0  0  0  0  0  0  0  0  0  0  0  0
    7.8699  -14.5184   21.0543 C   0  0  0  0  0  0  0  0  0  0  0  0
    6.7209  -14.4191   21.5166 O   0  0  0  0  0  0  0  0  0  0  0  0
    8.8187  -15.2777   21.8074 N   0  0  0  0  0  0  0  0  0  0  0  0
    8.4845  -15.9114   23.0858 C   0  0  1  0  0  0  0  0  0  0  0  0
    9.1644  -17.2343   23.2099 C   0  0  0  0  0  0  0  0  0  0  0  0
    8.7157  -18.2454   22.2114 C   0  0  0  0  0  0  0  0  0  0  0  0
    9.3592  -19.5641   22.3085 C   0  0  0  0  0  0  0  0  0  0  0  0
   10.3011  -19.8824   21.5776 O   0  0  0  0  0  0  0  0  0  0  0  0
    8.8959  -15.0366   24.2106 C   0  0  0  0  0  0  0  0  0  0  0  0
   10.0435  -14.6106   24.2902 O   0  0  0  0  0  0  0  0  0  0  0  0
    8.9251  -20.5116   23.2379 O   0  0  0  0  0  0  0  0  0  0  0  0
    7.9674  -14.6573   25.2449 N   0  0  0  0  0  0  0  0  0  0  0  0
    8.3137  -13.8756   26.3836 C   0  0  1  0  0  0  0  0  0  0  0  0
    7.1896  -13.0520   26.9451 C   0  0  0  0  0  0  0  0  0  0  0  0
    6.3336  -12.0877   25.6694 S   0  0  0  0  0  0  0  0  0  0  0  0
    8.8700  -14.6841   27.4974 C   0  0  0  0  0  0  0  0  0  0  0  0
    8.8315  -15.9336   27.3996 O   0  0  0  0  0  0  0  0  0  0  0  0
    9.4255  -14.1195   28.6311 O   0  0  0  0  0  0  0  0  0  0  0  0
  1  2  1  0
  2  3  2  0
  4  5  1  0
  4  2  1  0
  5  6  1  6
  7  5  1  0
  8  7  2  0
  9  7  1  0
 10 11  1  1
 10  9  1  0
 11 12  1  0
 13 12  1  0
 13 17  1  0
 14 13  2  0
 15 18  1  0
 15 10  1  0
 16 15  2  0
 19 20  1  1
 19 18  1  0
 20 21  1  0
 22 19  1  0
 22 24  1  0
 23 22  2  0
M  END
$$$$
