NEC.pdb
     RDKit          3D

 24 23  0  0  1  0  0  0  0  0999 V2000
    8.7429  -12.8019   17.4148 N   0  0  0  0  0  0  0  0  0  0  0  0
    7.7899  -13.8595   17.5957 C   0  0  0  0  0  0  0  0  0  0  0  0
    7.1471  -14.1653   16.5569 O   0  0  0  0  0  0  0  0  0  0  0  0
    7.6078  -14.5062   18.8965 C   0  0  0  0  0  0  0  0  0  0  0  0
    8.5062  -14.0206   19.9817 C   0  0  2  0  0  0  0  0  0  0  0  0
    9.8909  -14.4222   19.6612 N   0  0  0  0  0  0  0  0  0  0  0  0
    8.1757  -14.6290   21.3013 C   0  0  0  0  0  0  0  0  0  0  0  0
    7.0845  -14.4476   21.8670 O   0  0  0  0  0  0  0  0  0  0  0  0
    9.1317  -15.4584   21.9661 N   0  0  0  0  0  0  0  0  0  0  0  0
    8.9119  -15.9899   23.3140 C   0  0  1  0  0  0  0  0  0  0  0  0
    9.7681  -17.1889   23.5519 C   0  0  0  0  0  0  0  0  0  0  0  0
    9.6493  -17.7594   24.9234 C   0  0  0  0  0  0  0  0  0  0  0  0
   10.4634  -18.9551   25.1876 C   0  0  0  0  0  0  0  0  0  0  0  0
   10.2047  -20.0445   24.6689 O   0  0  0  0  0  0  0  0  0  0  0  0
    9.2217  -14.9520   24.3273 C   0  0  0  0  0  0  0  0  0  0  0  0
   10.3481  -14.4742   24.4155 O   0  0  0  0  0  0  0  0  0  0  0  0
   11.5673  -18.9017   26.0412 O   0  0  0  0  0  0  0  0  0  0  0  0
    8.2163  -14.4700   25.2396 N   0  0  0  0  0  0  0  0  0  0  0  0
    8.4581  -13.5080   26.2613 C   0  0  1  0  0  0  0  0  0  0  0  0
    7.4497  -12.3964   26.3282 C   0  0  0  0  0  0  0  0  0  0  0  0
    5.7452  -13.0116   26.4080 S   0  0  0  0  0  0  0  0  0  0  0  0
    8.5471  -14.1078   27.6162 C   0  0  0  0  0  0  0  0  0  0  0  0
    8.1835  -15.2989   27.7623 O   0  0  0  0  0  0  0  0  0  0  0  0
    9.0116  -13.4113   28.7171 O   0  0  0  0  0  0  0  0  0  0  0  0
  1  2  1  0
  2  3  2  0
  4  5  1  0
  4  2  1  0
  5  6  1  6
  7  5  1  0
  8  7  2  0
  9  7  1  0
 10 11  1  1
 10  9  1  0
 11 12  1  0
 13 12  1  0
 13 17  1  0
 14 13  2  0
 15 18  1  0
 15 10  1  0
 16 15  2  0
 19 20  1  1
 19 18  1  0
 20 21  1  0
 22 19  1  0
 22 24  1  0
 23 22  2  0
M  END
$$$$
