NEC.pdb
     RDKit          3D

 24 23  0  0  1  0  0  0  0  0999 V2000
    8.4177  -13.0204   17.1918 N   0  0  0  0  0  0  0  0  0  0  0  0
    7.5485  -14.1458   17.3852 C   0  0  0  0  0  0  0  0  0  0  0  0
    6.9981  -14.5661   16.3334 O   0  0  0  0  0  0  0  0  0  0  0  0
    7.3435  -14.7305   18.7117 C   0  0  0  0  0  0  0  0  0  0  0  0
    7.9134  -13.9518   19.8472 C   0  0  2  0  0  0  0  0  0  0  0  0
    9.3552  -13.7471   19.6007 N   0  0  0  0  0  0  0  0  0  0  0  0
    7.7967  -14.6780   21.1432 C   0  0  0  0  0  0  0  0  0  0  0  0
    6.7049  -14.8809   21.7004 O   0  0  0  0  0  0  0  0  0  0  0  0
    8.9697  -15.1721   21.7943 N   0  0  0  0  0  0  0  0  0  0  0  0
    8.9188  -15.8942   23.0685 C   0  0  1  0  0  0  0  0  0  0  0  0
    9.9622  -16.9606   23.1100 C   0  0  0  0  0  0  0  0  0  0  0  0
   10.0429  -17.6829   24.4109 C   0  0  0  0  0  0  0  0  0  0  0  0
   11.1079  -18.6918   24.5130 C   0  0  0  0  0  0  0  0  0  0  0  0
   11.9079  -18.8870   23.5940 O   0  0  0  0  0  0  0  0  0  0  0  0
    9.1284  -14.9532   24.1956 C   0  0  0  0  0  0  0  0  0  0  0  0
   10.1034  -14.2093   24.2222 O   0  0  0  0  0  0  0  0  0  0  0  0
   11.2542  -19.4720   25.6620 O   0  0  0  0  0  0  0  0  0  0  0  0
    8.1992  -14.8790   25.2942 N   0  0  0  0  0  0  0  0  0  0  0  0
    8.3499  -14.0103   26.4124 C   0  0  1  0  0  0  0  0  0  0  0  0
    7.1136  -13.2402   26.7802 C   0  0  0  0  0  0  0  0  0  0  0  0
    6.6237  -12.0608   25.4921 S   0  0  0  0  0  0  0  0  0  0  0  0
    8.8159  -14.7111   27.6352 C   0  0  0  0  0  0  0  0  0  0  0  0
    8.9147  -15.9607   27.6011 O   0  0  0  0  0  0  0  0  0  0  0  0
    9.1433  -14.0467   28.8032 O   0  0  0  0  0  0  0  0  0  0  0  0
  1  2  1  0
  2  3  2  0
  4  5  1  0
  4  2  1  0
  5  6  1  6
  7  5  1  0
  8  7  2  0
  9  7  1  0
 10 11  1  6
 10  9  1  0
 11 12  1  0
 13 12  1  0
 13 17  1  0
 14 13  2  0
 15 18  1  0
 15 10  1  0
 16 15  2  0
 19 20  1  1
 19 18  1  0
 20 21  1  0
 22 19  1  0
 22 24  1  0
 23 22  2  0
M  END
$$$$
