LYY.pdb
     RDKit          3D

 33 34  0  0  1  0  0  0  0  0999 V2000
    9.5190  -13.4133   20.3196 C   0  0  0  0  0  0  0  0  0  0  0  0
    8.0769  -13.8443   20.2398 C   0  0  1  0  0  0  0  0  0  0  0  0
    7.2494  -12.7341   19.6323 C   0  0  0  0  0  0  0  0  0  0  0  0
    7.9929  -15.1090   19.4202 C   0  0  0  0  0  0  0  0  0  0  0  0
    8.2442  -16.3549   20.2464 C   0  0  2  0  0  0  0  0  0  0  0  0
    7.5947  -16.1834   21.5241 N   0  0  0  0  0  0  0  0  0  0  0  0
    9.7046  -16.4563   20.4636 C   0  0  0  0  0  0  0  0  0  0  0  0
   10.5065  -16.5792   19.5038 O   0  0  0  0  0  0  0  0  0  0  0  0
   15.4393  -14.4239   17.2118 O   0  0  0  0  0  0  0  0  0  0  0  0
   14.6116  -14.5422   18.3334 C   0  0  0  0  0  0  0  0  0  0  0  0
   13.2651  -14.6610   18.1766 C   0  0  0  0  0  0  0  0  0  0  0  0
   12.4652  -14.7770   19.2882 C   0  0  0  0  0  0  0  0  0  0  0  0
   12.9699  -14.7781   20.5749 C   0  0  0  0  0  0  0  0  0  0  0  0
   12.0335  -14.9020   21.6840 C   0  0  0  0  0  0  0  0  0  0  0  0
   11.6493  -16.2900   22.0643 C   0  0  2  0  0  0  0  0  0  0  0  0
   10.2145  -16.4155   21.7624 N   0  0  0  0  0  0  0  0  0  0  0  0
   11.7642  -16.5572   23.5160 C   0  0  0  0  0  0  0  0  0  0  0  0
   12.8447  -16.2473   24.0833 O   0  0  0  0  0  0  0  0  0  0  0  0
   14.3391  -14.6555   20.6904 C   0  0  0  0  0  0  0  0  0  0  0  0
   15.1699  -14.5383   19.6154 C   0  0  0  0  0  0  0  0  0  0  0  0
    5.9535  -11.7332   27.4088 O   0  0  0  0  0  0  0  0  0  0  0  0
    6.7198  -12.6189   26.6461 C   0  0  0  0  0  0  0  0  0  0  0  0
    8.0826  -12.4274   26.5184 C   0  0  0  0  0  0  0  0  0  0  0  0
    8.8327  -13.3031   25.7655 C   0  0  0  0  0  0  0  0  0  0  0  0
    8.2858  -14.3936   25.1115 C   0  0  0  0  0  0  0  0  0  0  0  0
    9.1066  -15.3225   24.3046 C   0  0  0  0  0  0  0  0  0  0  0  0
    9.8445  -16.3485   25.1397 C   0  0  2  0  0  0  0  0  0  0  0  0
   10.7467  -17.1346   24.3080 N   0  0  0  0  0  0  0  0  0  0  0  0
    8.9341  -17.2501   25.8532 C   0  0  0  0  0  0  0  0  0  0  0  0
    8.6402  -17.1290   27.1916 O   0  0  0  0  0  0  0  0  0  0  0  0
    6.9111  -14.5637   25.2562 C   0  0  0  0  0  0  0  0  0  0  0  0
    6.1477  -13.6923   26.0089 C   0  0  0  0  0  0  0  0  0  0  0  0
    8.3809  -18.1935   25.2270 O   0  0  0  0  0  0  0  0  0  0  0  0
  2  1  1  6
  2  3  1  0
  4  2  1  0
  5  6  1  1
  5  4  1  0
  7  5  1  0
  8  7  2  0
  9 10  1  0
 10 11  2  0
 10 20  1  0
 11 12  1  0
 12 13  2  0
 13 14  1  0
 15 14  1  1
 15 16  1  0
 16  7  1  0
 17 15  1  0
 17 28  1  0
 18 17  2  0
 19 13  1  0
 20 19  2  0
 22 21  1  0
 23 22  2  0
 24 23  1  0
 25 24  2  0
 25 31  1  0
 26 25  1  0
 27 26  1  6
 27 28  1  0
 27 29  1  0
 29 30  1  0
 31 32  2  0
 32 22  1  0
 33 29  2  0
M  END
$$$$
