LYY.pdb
     RDKit          3D

 33 34  0  0  1  0  0  0  0  0999 V2000
    5.9877  -13.2702   20.1067 C   0  0  0  0  0  0  0  0  0  0  0  0
    6.9150  -13.9064   19.1031 C   0  0  1  0  0  0  0  0  0  0  0  0
    7.8544  -12.8601   18.5471 C   0  0  0  0  0  0  0  0  0  0  0  0
    7.6701  -15.0242   19.7804 C   0  0  0  0  0  0  0  0  0  0  0  0
    8.6573  -15.7045   18.8526 C   0  0  2  0  0  0  0  0  0  0  0  0
    8.0744  -16.9501   18.4141 N   0  0  0  0  0  0  0  0  0  0  0  0
    9.8756  -15.9990   19.6397 C   0  0  0  0  0  0  0  0  0  0  0  0
   10.0686  -17.1277   20.1576 O   0  0  0  0  0  0  0  0  0  0  0  0
   18.4354  -15.5902   19.2756 O   0  0  0  0  0  0  0  0  0  0  0  0
   17.0938  -15.2568   19.4903 C   0  0  0  0  0  0  0  0  0  0  0  0
   16.5956  -14.0890   19.0005 C   0  0  0  0  0  0  0  0  0  0  0  0
   15.2755  -13.7756   19.2191 C   0  0  0  0  0  0  0  0  0  0  0  0
   14.4184  -14.6008   19.9225 C   0  0  0  0  0  0  0  0  0  0  0  0
   13.0378  -14.1716   20.1011 C   0  0  0  0  0  0  0  0  0  0  0  0
   12.0846  -15.2135   20.5751 C   0  0  2  0  0  0  0  0  0  0  0  0
   10.8401  -15.0057   19.8176 N   0  0  0  0  0  0  0  0  0  0  0  0
   11.7022  -15.0600   21.9972 C   0  0  0  0  0  0  0  0  0  0  0  0
   11.1492  -13.9821   22.3403 O   0  0  0  0  0  0  0  0  0  0  0  0
   14.9623  -15.7744   20.4021 C   0  0  0  0  0  0  0  0  0  0  0  0
   16.2659  -16.1251   20.2085 C   0  0  0  0  0  0  0  0  0  0  0  0
    6.1917  -12.1440   25.4101 O   0  0  0  0  0  0  0  0  0  0  0  0
    7.0273  -13.1780   24.9788 C   0  0  0  0  0  0  0  0  0  0  0  0
    7.2109  -14.2985   25.7667 C   0  0  0  0  0  0  0  0  0  0  0  0
    8.0355  -15.3141   25.3369 C   0  0  0  0  0  0  0  0  0  0  0  0
    8.7095  -15.2765   24.1284 C   0  0  0  0  0  0  0  0  0  0  0  0
    9.5937  -16.3758   23.6838 C   0  0  0  0  0  0  0  0  0  0  0  0
   11.0289  -16.2105   24.1393 C   0  0  2  0  0  0  0  0  0  0  0  0
   11.9141  -16.0379   22.9946 N   0  0  0  0  0  0  0  0  0  0  0  0
   11.4951  -17.3431   24.9459 C   0  0  0  0  0  0  0  0  0  0  0  0
   12.4559  -18.2319   24.5227 O   0  0  0  0  0  0  0  0  0  0  0  0
    8.5075  -14.1368   23.3538 C   0  0  0  0  0  0  0  0  0  0  0  0
    7.6825  -13.1112   23.7739 C   0  0  0  0  0  0  0  0  0  0  0  0
   11.0026  -17.5317   26.0904 O   0  0  0  0  0  0  0  0  0  0  0  0
  2  1  1  1
  2  3  1  0
  4  2  1  0
  5  6  1  1
  5  4  1  0
  7  5  1  0
  8  7  2  0
  9 10  1  0
 10 11  2  0
 10 20  1  0
 11 12  1  0
 12 13  2  0
 13 14  1  0
 15 14  1  6
 15 16  1  0
 16  7  1  0
 17 15  1  0
 17 28  1  0
 18 17  2  0
 19 13  1  0
 20 19  2  0
 22 21  1  0
 23 22  2  0
 24 23  1  0
 25 24  2  0
 25 31  1  0
 26 25  1  0
 27 26  1  6
 27 28  1  0
 27 29  1  0
 29 30  1  0
 31 32  2  0
 32 22  1  0
 33 29  2  0
M  END
$$$$
