LYY.pdb
     RDKit          3D

 33 34  0  0  1  0  0  0  0  0999 V2000
    7.5453  -12.2030   19.7064 C   0  0  0  0  0  0  0  0  0  0  0  0
    7.8263  -13.6825   19.6428 C   0  0  1  0  0  0  0  0  0  0  0  0
    9.2885  -13.9074   19.3303 C   0  0  0  0  0  0  0  0  0  0  0  0
    7.4400  -14.3071   20.9615 C   0  0  0  0  0  0  0  0  0  0  0  0
    7.6762  -15.8044   20.9870 C   0  0  2  0  0  0  0  0  0  0  0  0
    6.6972  -16.4267   20.1279 N   0  0  0  0  0  0  0  0  0  0  0  0
    7.4537  -16.2651   22.3757 C   0  0  0  0  0  0  0  0  0  0  0  0
    6.3437  -16.1221   22.9475 O   0  0  0  0  0  0  0  0  0  0  0  0
    5.0072  -22.1343   21.3702 O   0  0  0  0  0  0  0  0  0  0  0  0
    5.9043  -21.3420   22.0945 C   0  0  0  0  0  0  0  0  0  0  0  0
    7.0449  -20.8918   21.5046 C   0  0  0  0  0  0  0  0  0  0  0  0
    7.9161  -20.1139   22.2290 C   0  0  0  0  0  0  0  0  0  0  0  0
    7.6861  -19.7630   23.5460 C   0  0  0  0  0  0  0  0  0  0  0  0
    8.6769  -18.9378   24.2240 C   0  0  0  0  0  0  0  0  0  0  0  0
    8.3240  -17.5010   24.3973 C   0  0  2  0  0  0  0  0  0  0  0  0
    8.4956  -16.8745   23.0768 N   0  0  0  0  0  0  0  0  0  0  0  0
    9.2476  -16.7709   25.2950 C   0  0  0  0  0  0  0  0  0  0  0  0
    9.6787  -15.6536   24.9061 O   0  0  0  0  0  0  0  0  0  0  0  0
    6.5193  -20.2396   24.1067 C   0  0  0  0  0  0  0  0  0  0  0  0
    5.6271  -21.0136   23.4252 C   0  0  0  0  0  0  0  0  0  0  0  0
    7.0948  -11.1123   25.1647 O   0  0  0  0  0  0  0  0  0  0  0  0
    7.4352  -12.2580   25.8893 C   0  0  0  0  0  0  0  0  0  0  0  0
    6.7121  -13.4244   25.7265 C   0  0  0  0  0  0  0  0  0  0  0  0
    7.0518  -14.5502   26.4432 C   0  0  0  0  0  0  0  0  0  0  0  0
    8.1043  -14.5817   27.3417 C   0  0  0  0  0  0  0  0  0  0  0  0
    8.4533  -15.7995   28.1052 C   0  0  0  0  0  0  0  0  0  0  0  0
    9.8006  -16.3783   27.7251 C   0  0  2  0  0  0  0  0  0  0  0  0
    9.6778  -17.2400   26.5563 N   0  0  0  0  0  0  0  0  0  0  0  0
   10.4157  -17.1336   28.8214 C   0  0  0  0  0  0  0  0  0  0  0  0
   10.6984  -18.4780   28.7520 O   0  0  0  0  0  0  0  0  0  0  0  0
    8.8164  -13.3937   27.4872 C   0  0  0  0  0  0  0  0  0  0  0  0
    8.4856  -12.2577   26.7738 C   0  0  0  0  0  0  0  0  0  0  0  0
   10.7086  -16.5399   29.8937 O   0  0  0  0  0  0  0  0  0  0  0  0
  2  1  1  1
  2  3  1  0
  4  2  1  0
  5  6  1  6
  5  4  1  0
  7  5  1  0
  8  7  2  0
  9 10  1  0
 10 11  2  0
 10 20  1  0
 11 12  1  0
 12 13  2  0
 13 14  1  0
 15 14  1  6
 15 16  1  0
 16  7  1  0
 17 15  1  0
 17 28  1  0
 18 17  2  0
 19 13  1  0
 20 19  2  0
 22 21  1  0
 23 22  2  0
 24 23  1  0
 25 24  2  0
 25 31  1  0
 26 25  1  0
 27 26  1  1
 27 28  1  0
 27 29  1  0
 29 30  1  0
 31 32  2  0
 32 22  1  0
 33 29  2  0
M  END
$$$$
