LYY.pdb
     RDKit          3D

 33 34  0  0  1  0  0  0  0  0999 V2000
    7.5254  -21.6971   21.4760 C   0  0  0  0  0  0  0  0  0  0  0  0
    6.7531  -20.5685   22.1096 C   0  0  1  0  0  0  0  0  0  0  0  0
    6.2935  -20.9814   23.4897 C   0  0  0  0  0  0  0  0  0  0  0  0
    7.6367  -19.3459   22.1635 C   0  0  0  0  0  0  0  0  0  0  0  0
    7.5690  -18.5232   20.8920 C   0  0  2  0  0  0  0  0  0  0  0  0
    7.6923  -19.4225   19.7697 N   0  0  0  0  0  0  0  0  0  0  0  0
    8.7288  -17.6038   20.8961 C   0  0  0  0  0  0  0  0  0  0  0  0
    9.8627  -17.9717   20.4980 O   0  0  0  0  0  0  0  0  0  0  0  0
    6.8989  -13.7830   15.7352 O   0  0  0  0  0  0  0  0  0  0  0  0
    7.3993  -13.8226   17.0411 C   0  0  0  0  0  0  0  0  0  0  0  0
    8.5524  -14.4939   17.3083 C   0  0  0  0  0  0  0  0  0  0  0  0
    9.0318  -14.5234   18.5960 C   0  0  0  0  0  0  0  0  0  0  0  0
    8.3895  -13.8956   19.6467 C   0  0  0  0  0  0  0  0  0  0  0  0
    8.9806  -13.9926   20.9746 C   0  0  0  0  0  0  0  0  0  0  0  0
    9.6418  -15.2861   21.3039 C   0  0  2  0  0  0  0  0  0  0  0  0
    8.5705  -16.2938   21.3515 N   0  0  0  0  0  0  0  0  0  0  0  0
   10.2549  -15.3090   22.6514 C   0  0  0  0  0  0  0  0  0  0  0  0
   11.2896  -14.6152   22.8343 O   0  0  0  0  0  0  0  0  0  0  0  0
    7.2244  -13.2266   19.3338 C   0  0  0  0  0  0  0  0  0  0  0  0
    6.7130  -13.1714   18.0708 C   0  0  0  0  0  0  0  0  0  0  0  0
   11.2988  -15.5557   31.4354 O   0  0  0  0  0  0  0  0  0  0  0  0
   10.8263  -15.5179   30.1206 C   0  0  0  0  0  0  0  0  0  0  0  0
   10.2728  -16.6471   29.5476 C   0  0  0  0  0  0  0  0  0  0  0  0
    9.8091  -16.6042   28.2516 C   0  0  0  0  0  0  0  0  0  0  0  0
    9.8670  -15.4643   27.4685 C   0  0  0  0  0  0  0  0  0  0  0  0
    9.3664  -15.4371   26.0769 C   0  0  0  0  0  0  0  0  0  0  0  0
   10.3524  -16.0022   25.0753 C   0  0  2  0  0  0  0  0  0  0  0  0
    9.7599  -16.0541   23.7449 N   0  0  0  0  0  0  0  0  0  0  0  0
   10.8255  -17.3394   25.4476 C   0  0  0  0  0  0  0  0  0  0  0  0
   11.9546  -17.5628   26.2008 O   0  0  0  0  0  0  0  0  0  0  0  0
   10.4292  -14.3407   28.0693 C   0  0  0  0  0  0  0  0  0  0  0  0
   10.8978  -14.3710   29.3687 C   0  0  0  0  0  0  0  0  0  0  0  0
   10.1792  -18.3523   25.0674 O   0  0  0  0  0  0  0  0  0  0  0  0
  2  1  1  1
  2  3  1  0
  4  2  1  0
  5  6  1  6
  5  4  1  0
  7  5  1  0
  8  7  2  0
  9 10  1  0
 10 11  2  0
 10 20  1  0
 11 12  1  0
 12 13  2  0
 13 14  1  0
 15 14  1  1
 15 16  1  0
 16  7  1  0
 17 15  1  0
 17 28  1  0
 18 17  2  0
 19 13  1  0
 20 19  2  0
 22 21  1  0
 23 22  2  0
 24 23  1  0
 25 24  2  0
 25 31  1  0
 26 25  1  0
 27 26  1  1
 27 28  1  0
 27 29  1  0
 29 30  1  0
 31 32  2  0
 32 22  1  0
 33 29  2  0
M  END
$$$$
