LYY.pdb
     RDKit          3D

 33 34  0  0  1  0  0  0  0  0999 V2000
    6.8400  -12.9471   20.0472 C   0  0  0  0  0  0  0  0  0  0  0  0
    7.8253  -13.5245   19.0635 C   0  0  1  0  0  0  0  0  0  0  0  0
    8.5376  -12.4024   18.3425 C   0  0  0  0  0  0  0  0  0  0  0  0
    8.7963  -14.4067   19.8101 C   0  0  0  0  0  0  0  0  0  0  0  0
    9.8210  -15.0478   18.8951 C   0  0  2  0  0  0  0  0  0  0  0  0
    9.1169  -15.8744   17.9440 N   0  0  0  0  0  0  0  0  0  0  0  0
   10.6835  -15.9121   19.7316 C   0  0  0  0  0  0  0  0  0  0  0  0
   10.5035  -17.1540   19.7998 O   0  0  0  0  0  0  0  0  0  0  0  0
   16.3664  -15.0436   16.0846 O   0  0  0  0  0  0  0  0  0  0  0  0
   15.7795  -15.1580   17.3494 C   0  0  0  0  0  0  0  0  0  0  0  0
   15.1823  -14.0783   17.9232 C   0  0  0  0  0  0  0  0  0  0  0  0
   14.6097  -14.2065   19.1660 C   0  0  0  0  0  0  0  0  0  0  0  0
   14.6120  -15.3957   19.8704 C   0  0  0  0  0  0  0  0  0  0  0  0
   13.9806  -15.4222   21.1830 C   0  0  0  0  0  0  0  0  0  0  0  0
   12.6748  -16.1339   21.2668 C   0  0  2  0  0  0  0  0  0  0  0  0
   11.7252  -15.3440   20.4669 N   0  0  0  0  0  0  0  0  0  0  0  0
   12.1033  -16.1590   22.6325 C   0  0  0  0  0  0  0  0  0  0  0  0
   12.6824  -15.4798   23.5206 O   0  0  0  0  0  0  0  0  0  0  0  0
   15.2273  -16.4656   19.2541 C   0  0  0  0  0  0  0  0  0  0  0  0
   15.8075  -16.3832   18.0227 C   0  0  0  0  0  0  0  0  0  0  0  0
    5.5248  -12.7876   26.9513 O   0  0  0  0  0  0  0  0  0  0  0  0
    6.4951  -13.3389   26.1098 C   0  0  0  0  0  0  0  0  0  0  0  0
    6.8403  -12.7000   24.9339 C   0  0  0  0  0  0  0  0  0  0  0  0
    7.7968  -13.2478   24.1085 C   0  0  0  0  0  0  0  0  0  0  0  0
    8.4501  -14.4337   24.3964 C   0  0  0  0  0  0  0  0  0  0  0  0
    9.4733  -15.0091   23.4964 C   0  0  0  0  0  0  0  0  0  0  0  0
    9.9527  -16.3780   23.9335 C   0  0  2  0  0  0  0  0  0  0  0  0
   10.9546  -16.8908   23.0076 N   0  0  0  0  0  0  0  0  0  0  0  0
    8.8569  -17.3460   24.0466 C   0  0  0  0  0  0  0  0  0  0  0  0
    8.2330  -17.6509   25.2340 O   0  0  0  0  0  0  0  0  0  0  0  0
    8.0838  -15.0573   25.5866 C   0  0  0  0  0  0  0  0  0  0  0  0
    7.1259  -14.5176   26.4232 C   0  0  0  0  0  0  0  0  0  0  0  0
    8.4495  -17.9427   23.0141 O   0  0  0  0  0  0  0  0  0  0  0  0
  2  1  1  1
  2  3  1  0
  4  2  1  0
  5  6  1  6
  5  4  1  0
  7  5  1  0
  8  7  2  0
  9 10  1  0
 10 11  2  0
 10 20  1  0
 11 12  1  0
 12 13  2  0
 13 14  1  0
 15 14  1  1
 15 16  1  0
 16  7  1  0
 17 15  1  0
 17 28  1  0
 18 17  2  0
 19 13  1  0
 20 19  2  0
 22 21  1  0
 23 22  2  0
 24 23  1  0
 25 24  2  0
 25 31  1  0
 26 25  1  0
 27 26  1  6
 27 28  1  0
 27 29  1  0
 29 30  1  0
 31 32  2  0
 32 22  1  0
 33 29  2  0
M  END
$$$$
