LYY.pdb
     RDKit          3D

 33 34  0  0  1  0  0  0  0  0999 V2000
    7.3942  -11.7631   20.4953 C   0  0  0  0  0  0  0  0  0  0  0  0
    7.7269  -13.1640   20.0497 C   0  0  1  0  0  0  0  0  0  0  0  0
    9.0639  -13.1668   19.3435 C   0  0  0  0  0  0  0  0  0  0  0  0
    7.7377  -14.0681   21.2584 C   0  0  0  0  0  0  0  0  0  0  0  0
    7.9546  -15.5235   20.8938 C   0  0  2  0  0  0  0  0  0  0  0  0
    6.7628  -16.0024   20.2349 N   0  0  0  0  0  0  0  0  0  0  0  0
    8.1365  -16.2748   22.1559 C   0  0  0  0  0  0  0  0  0  0  0  0
    7.1578  -16.6149   22.8671 O   0  0  0  0  0  0  0  0  0  0  0  0
   12.4068  -22.1066   27.2705 O   0  0  0  0  0  0  0  0  0  0  0  0
   12.0183  -21.1786   26.2983 C   0  0  0  0  0  0  0  0  0  0  0  0
   10.8478  -21.3473   25.6252 C   0  0  0  0  0  0  0  0  0  0  0  0
   10.4794  -20.4268   24.6733 C   0  0  0  0  0  0  0  0  0  0  0  0
   11.2519  -19.3235   24.3628 C   0  0  0  0  0  0  0  0  0  0  0  0
   10.7711  -18.4113   23.3337 C   0  0  0  0  0  0  0  0  0  0  0  0
    9.6900  -17.4725   23.7444 C   0  0  2  0  0  0  0  0  0  0  0  0
    9.4224  -16.6189   22.5760 N   0  0  0  0  0  0  0  0  0  0  0  0
   10.0959  -16.5398   24.8202 C   0  0  0  0  0  0  0  0  0  0  0  0
   10.9802  -15.6853   24.5496 O   0  0  0  0  0  0  0  0  0  0  0  0
   12.4303  -19.1893   25.0673 C   0  0  0  0  0  0  0  0  0  0  0  0
   12.8344  -20.0778   26.0196 C   0  0  0  0  0  0  0  0  0  0  0  0
    5.8343  -11.5836   24.5562 O   0  0  0  0  0  0  0  0  0  0  0  0
    6.5806  -12.4283   25.3825 C   0  0  0  0  0  0  0  0  0  0  0  0
    7.9231  -12.1815   25.5989 C   0  0  0  0  0  0  0  0  0  0  0  0
    8.6537  -13.0172   26.4137 C   0  0  0  0  0  0  0  0  0  0  0  0
    8.1062  -14.1204   27.0458 C   0  0  0  0  0  0  0  0  0  0  0  0
    8.9070  -15.0091   27.9157 C   0  0  0  0  0  0  0  0  0  0  0  0
   10.0568  -15.6780   27.1911 C   0  0  2  0  0  0  0  0  0  0  0  0
    9.5603  -16.5417   26.1275 N   0  0  0  0  0  0  0  0  0  0  0  0
   10.9084  -16.4604   28.0929 C   0  0  0  0  0  0  0  0  0  0  0  0
   11.1026  -17.8164   27.9674 O   0  0  0  0  0  0  0  0  0  0  0  0
    6.7522  -14.3468   26.8111 C   0  0  0  0  0  0  0  0  0  0  0  0
    6.0084  -13.5155   25.9959 C   0  0  0  0  0  0  0  0  0  0  0  0
   11.5031  -15.8805   29.0406 O   0  0  0  0  0  0  0  0  0  0  0  0
  2  1  1  1
  2  3  1  0
  4  2  1  0
  5  6  1  1
  5  4  1  0
  7  5  1  0
  8  7  2  0
  9 10  1  0
 10 11  2  0
 10 20  1  0
 11 12  1  0
 12 13  2  0
 13 14  1  0
 15 14  1  6
 15 16  1  0
 16  7  1  0
 17 15  1  0
 17 28  1  0
 18 17  2  0
 19 13  1  0
 20 19  2  0
 22 21  1  0
 23 22  2  0
 24 23  1  0
 25 24  2  0
 25 31  1  0
 26 25  1  0
 27 26  1  1
 27 28  1  0
 27 29  1  0
 29 30  1  0
 31 32  2  0
 32 22  1  0
 33 29  2  0
M  END
$$$$
