LYY.pdb
     RDKit          3D

 33 34  0  0  1  0  0  0  0  0999 V2000
    7.1207  -11.8256   18.5456 C   0  0  0  0  0  0  0  0  0  0  0  0
    7.2797  -13.2306   19.0678 C   0  0  1  0  0  0  0  0  0  0  0  0
    7.2528  -14.2062   17.9129 C   0  0  0  0  0  0  0  0  0  0  0  0
    8.5755  -13.3190   19.8367 C   0  0  0  0  0  0  0  0  0  0  0  0
    8.7959  -14.6882   20.4491 C   0  0  2  0  0  0  0  0  0  0  0  0
    7.5155  -15.1979   20.8787 N   0  0  0  0  0  0  0  0  0  0  0  0
    9.6608  -14.5091   21.6367 C   0  0  0  0  0  0  0  0  0  0  0  0
   10.7586  -13.9013   21.5667 O   0  0  0  0  0  0  0  0  0  0  0  0
   11.0703  -15.5625   30.3699 O   0  0  0  0  0  0  0  0  0  0  0  0
   10.5556  -15.3112   29.0935 C   0  0  0  0  0  0  0  0  0  0  0  0
   10.9781  -16.0495   28.0314 C   0  0  0  0  0  0  0  0  0  0  0  0
   10.4628  -15.7911   26.7838 C   0  0  0  0  0  0  0  0  0  0  0  0
    9.5236  -14.8036   26.5534 C   0  0  0  0  0  0  0  0  0  0  0  0
    9.0458  -14.6091   25.1910 C   0  0  0  0  0  0  0  0  0  0  0  0
   10.0360  -14.8631   24.1076 C   0  0  2  0  0  0  0  0  0  0  0  0
    9.2569  -15.0242   22.8696 N   0  0  0  0  0  0  0  0  0  0  0  0
   10.7734  -16.1368   24.2692 C   0  0  0  0  0  0  0  0  0  0  0  0
   10.1307  -17.2080   24.1111 O   0  0  0  0  0  0  0  0  0  0  0  0
    9.1220  -14.0781   27.6559 C   0  0  0  0  0  0  0  0  0  0  0  0
    9.6065  -14.3006   28.9111 C   0  0  0  0  0  0  0  0  0  0  0  0
   14.2093  -14.3146   19.0164 O   0  0  0  0  0  0  0  0  0  0  0  0
   13.8545  -15.2316   20.0097 C   0  0  0  0  0  0  0  0  0  0  0  0
   14.6572  -15.3971   21.1225 C   0  0  0  0  0  0  0  0  0  0  0  0
   14.3028  -16.3022   22.0979 C   0  0  0  0  0  0  0  0  0  0  0  0
   13.1580  -17.0770   22.0262 C   0  0  0  0  0  0  0  0  0  0  0  0
   12.7944  -18.0467   23.0823 C   0  0  0  0  0  0  0  0  0  0  0  0
   12.9013  -17.4756   24.4812 C   0  0  2  0  0  0  0  0  0  0  0  0
   12.1463  -16.2336   24.5878 N   0  0  0  0  0  0  0  0  0  0  0  0
   14.2908  -17.2340   24.8834 C   0  0  0  0  0  0  0  0  0  0  0  0
   15.2658  -18.2041   24.8655 O   0  0  0  0  0  0  0  0  0  0  0  0
   12.3670  -16.8913   20.8950 C   0  0  0  0  0  0  0  0  0  0  0  0
   12.7116  -15.9862   19.9097 C   0  0  0  0  0  0  0  0  0  0  0  0
   14.6318  -16.0842   25.2703 O   0  0  0  0  0  0  0  0  0  0  0  0
  2  1  1  6
  2  3  1  0
  4  2  1  0
  5  6  1  1
  5  4  1  0
  7  5  1  0
  8  7  2  0
  9 10  1  0
 10 11  2  0
 10 20  1  0
 11 12  1  0
 12 13  2  0
 13 14  1  0
 15 14  1  1
 15 16  1  0
 16  7  1  0
 17 15  1  0
 17 28  1  0
 18 17  2  0
 19 13  1  0
 20 19  2  0
 22 21  1  0
 23 22  2  0
 24 23  1  0
 25 24  2  0
 25 31  1  0
 26 25  1  0
 27 26  1  6
 27 28  1  0
 27 29  1  0
 29 30  1  0
 31 32  2  0
 32 22  1  0
 33 29  2  0
M  END
$$$$
