LYY.pdb
     RDKit          3D

 33 34  0  0  1  0  0  0  0  0999 V2000
    9.3434  -22.5440   21.2229 C   0  0  0  0  0  0  0  0  0  0  0  0
    8.4695  -21.4090   20.7539 C   0  0  1  0  0  0  0  0  0  0  0  0
    7.2252  -21.3408   21.6102 C   0  0  0  0  0  0  0  0  0  0  0  0
    9.2610  -20.1257   20.8248 C   0  0  0  0  0  0  0  0  0  0  0  0
    8.4287  -18.9091   20.4707 C   0  0  2  0  0  0  0  0  0  0  0  0
    7.9873  -19.0510   19.1037 N   0  0  0  0  0  0  0  0  0  0  0  0
    9.3111  -17.7247   20.5664 C   0  0  0  0  0  0  0  0  0  0  0  0
   10.3681  -17.6344   19.8927 O   0  0  0  0  0  0  0  0  0  0  0  0
    7.1690  -13.1303   16.0442 O   0  0  0  0  0  0  0  0  0  0  0  0
    7.5862  -13.4395   17.3433 C   0  0  0  0  0  0  0  0  0  0  0  0
    7.0263  -12.8031   18.4078 C   0  0  0  0  0  0  0  0  0  0  0  0
    7.4462  -13.1181   19.6780 C   0  0  0  0  0  0  0  0  0  0  0  0
    8.4235  -14.0627   19.9289 C   0  0  0  0  0  0  0  0  0  0  0  0
    8.7983  -14.3178   21.3133 C   0  0  0  0  0  0  0  0  0  0  0  0
    9.7554  -15.4372   21.5367 C   0  0  2  0  0  0  0  0  0  0  0  0
    8.9703  -16.6767   21.4232 N   0  0  0  0  0  0  0  0  0  0  0  0
   10.3242  -15.4632   22.9034 C   0  0  0  0  0  0  0  0  0  0  0  0
    9.5877  -15.0798   23.8499 O   0  0  0  0  0  0  0  0  0  0  0  0
    8.9655  -14.6845   18.8231 C   0  0  0  0  0  0  0  0  0  0  0  0
    8.5789  -14.4032   17.5460 C   0  0  0  0  0  0  0  0  0  0  0  0
    9.8969  -14.4485   30.4339 O   0  0  0  0  0  0  0  0  0  0  0  0
   10.2120  -15.0302   29.2028 C   0  0  0  0  0  0  0  0  0  0  0  0
   11.2136  -15.9786   29.1176 C   0  0  0  0  0  0  0  0  0  0  0  0
   11.5201  -16.5483   27.9019 C   0  0  0  0  0  0  0  0  0  0  0  0
   10.8650  -16.2168   26.7284 C   0  0  0  0  0  0  0  0  0  0  0  0
   11.2093  -16.8371   25.4305 C   0  0  0  0  0  0  0  0  0  0  0  0
   12.1315  -15.9830   24.5852 C   0  0  2  0  0  0  0  0  0  0  0  0
   11.6341  -15.8879   23.2187 N   0  0  0  0  0  0  0  0  0  0  0  0
   13.5066  -16.4924   24.5660 C   0  0  0  0  0  0  0  0  0  0  0  0
   14.3727  -16.3797   25.6287 O   0  0  0  0  0  0  0  0  0  0  0  0
    9.8604  -15.2589   26.8416 C   0  0  0  0  0  0  0  0  0  0  0  0
    9.5435  -14.6802   28.0555 C   0  0  0  0  0  0  0  0  0  0  0  0
   13.9392  -17.0667   23.5311 O   0  0  0  0  0  0  0  0  0  0  0  0
  2  1  1  1
  2  3  1  0
  4  2  1  0
  5  6  1  6
  5  4  1  0
  7  5  1  0
  8  7  2  0
  9 10  1  0
 10 11  2  0
 10 20  1  0
 11 12  1  0
 12 13  2  0
 13 14  1  0
 15 14  1  1
 15 16  1  0
 16  7  1  0
 17 15  1  0
 17 28  1  0
 18 17  2  0
 19 13  1  0
 20 19  2  0
 22 21  1  0
 23 22  2  0
 24 23  1  0
 25 24  2  0
 25 31  1  0
 26 25  1  0
 27 26  1  1
 27 28  1  0
 27 29  1  0
 29 30  1  0
 31 32  2  0
 32 22  1  0
 33 29  2  0
M  END
$$$$
