DTG.pdb
     RDKit          3D

 20 19  0  0  1  0  0  0  0  0999 V2000
   17.7761  -12.3356  -14.7895 N   0  0  0  0  0  0  0  0  0  0  0  0
   18.7426  -12.3669  -15.8426 C   0  0  1  0  0  0  0  0  0  0  0  0
   18.1425  -13.0673  -17.0450 C   0  0  0  0  0  0  0  0  0  0  0  0
   17.6528  -14.4155  -16.6622 C   0  0  0  0  0  0  0  0  0  0  0  0
   18.0456  -15.4161  -17.3142 O   0  0  0  0  0  0  0  0  0  0  0  0
   19.2490  -11.0167  -16.1965 C   0  0  0  0  0  0  0  0  0  0  0  0
   19.7866  -10.8311  -17.3012 O   0  0  0  0  0  0  0  0  0  0  0  0
   16.7787  -14.6284  -15.6152 O   0  0  0  0  0  0  0  0  0  0  0  0
   17.6420   -8.3160  -17.2295 C   0  0  0  0  0  0  0  0  0  0  0  0
   18.3395   -7.7049  -16.0328 C   0  0  1  0  0  0  0  0  0  0  0  0
   17.4551   -7.4675  -15.0017 O   0  0  0  0  0  0  0  0  0  0  0  0
   19.5019   -8.5718  -15.6658 C   0  0  2  0  0  0  0  0  0  0  0  0
   19.1407   -9.9119  -15.3064 N   0  0  0  0  0  0  0  0  0  0  0  0
   20.4066   -7.9366  -14.6680 C   0  0  0  0  0  0  0  0  0  0  0  0
   20.3567   -8.2278  -13.4418 O   0  0  0  0  0  0  0  0  0  0  0  0
   21.3781   -6.9671  -15.0331 N   0  0  0  0  0  0  0  0  0  0  0  0
   22.2406   -6.3202  -14.0643 C   0  0  0  0  0  0  0  0  0  0  0  0
   21.7908   -4.9517  -13.7994 C   0  0  0  0  0  0  0  0  0  0  0  0
   22.5435   -4.1413  -12.9645 O   0  0  0  0  0  0  0  0  0  0  0  0
   20.7443   -4.4806  -14.3016 O   0  0  0  0  0  0  0  0  0  0  0  0
  2  1  1  1
  3  2  1  0
  4  3  1  0
  4  5  2  0
  6  2  1  0
  7  6  2  0
  8  4  1  0
 10  9  1  6
 10 12  1  0
 11 10  1  0
 12 13  1  1
 13  6  1  0
 14 15  2  0
 14 12  1  0
 16 14  1  0
 17 18  1  0
 17 16  1  0
 18 19  1  0
 20 18  2  0
M  END
$$$$
