DTG.pdb
     RDKit          3D

 20 19  0  0  1  0  0  0  0  0999 V2000
   18.4660  -12.1076  -15.8490 N   0  0  0  0  0  0  0  0  0  0  0  0
   18.3736  -10.7831  -16.3793 C   0  0  1  0  0  0  0  0  0  0  0  0
   16.9510  -10.5306  -16.8363 C   0  0  0  0  0  0  0  0  0  0  0  0
   16.5715  -11.5017  -17.8933 C   0  0  0  0  0  0  0  0  0  0  0  0
   17.4509  -11.9062  -18.6955 O   0  0  0  0  0  0  0  0  0  0  0  0
   18.8275   -9.7473  -15.4170 C   0  0  0  0  0  0  0  0  0  0  0  0
   18.2853   -9.6630  -14.3024 O   0  0  0  0  0  0  0  0  0  0  0  0
   15.2881  -11.9881  -18.0413 O   0  0  0  0  0  0  0  0  0  0  0  0
   22.6711   -8.7531  -15.1254 C   0  0  0  0  0  0  0  0  0  0  0  0
   21.6413   -8.3731  -14.0827 C   0  0  1  0  0  0  0  0  0  0  0  0
   22.1583   -7.4819  -13.1661 O   0  0  0  0  0  0  0  0  0  0  0  0
   20.4083   -7.8973  -14.7831 C   0  0  2  0  0  0  0  0  0  0  0  0
   19.8743   -8.8348  -15.7273 N   0  0  0  0  0  0  0  0  0  0  0  0
   20.5579   -6.5311  -15.3564 C   0  0  0  0  0  0  0  0  0  0  0  0
   21.0817   -6.3358  -16.4870 O   0  0  0  0  0  0  0  0  0  0  0  0
   20.1220   -5.3674  -14.6687 N   0  0  0  0  0  0  0  0  0  0  0  0
   20.2296   -4.0375  -15.2349 C   0  0  0  0  0  0  0  0  0  0  0  0
   21.3859   -3.3287  -14.6818 C   0  0  0  0  0  0  0  0  0  0  0  0
   21.6417   -2.0291  -15.0891 O   0  0  0  0  0  0  0  0  0  0  0  0
   22.1593   -3.8548  -13.8485 O   0  0  0  0  0  0  0  0  0  0  0  0
  2  1  1  1
  3  2  1  0
  4  3  1  0
  4  5  2  0
  6  2  1  0
  7  6  2  0
  8  4  1  0
 10  9  1  6
 10 12  1  0
 11 10  1  0
 12 13  1  6
 13  6  1  0
 14 15  2  0
 14 12  1  0
 16 14  1  0
 17 18  1  0
 17 16  1  0
 18 19  1  0
 20 18  2  0
M  END
$$$$
