DTG.pdb
     RDKit          3D

 20 19  0  0  1  0  0  0  0  0999 V2000
   22.1321   -4.7263  -16.6824 N   0  0  0  0  0  0  0  0  0  0  0  0
   22.0927   -4.7616  -15.2537 C   0  0  1  0  0  0  0  0  0  0  0  0
   20.7407   -4.2647  -14.7829 C   0  0  0  0  0  0  0  0  0  0  0  0
   20.5620   -2.8375  -15.1507 C   0  0  0  0  0  0  0  0  0  0  0  0
   21.4832   -2.2459  -15.7688 O   0  0  0  0  0  0  0  0  0  0  0  0
   22.3989   -6.1069  -14.7047 C   0  0  0  0  0  0  0  0  0  0  0  0
   22.3083   -6.3077  -13.4819 O   0  0  0  0  0  0  0  0  0  0  0  0
   19.4234   -2.1194  -14.8449 O   0  0  0  0  0  0  0  0  0  0  0  0
   20.9520   -9.3008  -14.8968 C   0  0  0  0  0  0  0  0  0  0  0  0
   22.3518   -9.6022  -15.3885 C   0  0  1  0  0  0  0  0  0  0  0  0
   22.3552   -9.9284  -16.7284 O   0  0  0  0  0  0  0  0  0  0  0  0
   23.2403   -8.4544  -15.0272 C   0  0  2  0  0  0  0  0  0  0  0  0
   22.7975   -7.1898  -15.5372 N   0  0  0  0  0  0  0  0  0  0  0  0
   24.6762   -8.7181  -15.3210 C   0  0  0  0  0  0  0  0  0  0  0  0
   25.3146   -8.0516  -16.1807 O   0  0  0  0  0  0  0  0  0  0  0  0
   25.4136   -9.7325  -14.6543 N   0  0  0  0  0  0  0  0  0  0  0  0
   26.8174   -9.9801  -14.9168 C   0  0  0  0  0  0  0  0  0  0  0  0
   26.9937  -10.6675  -16.1981 C   0  0  0  0  0  0  0  0  0  0  0  0
   28.2606  -11.0847  -16.5739 O   0  0  0  0  0  0  0  0  0  0  0  0
   26.0370  -10.8952  -16.9742 O   0  0  0  0  0  0  0  0  0  0  0  0
  2  1  1  6
  3  2  1  0
  4  3  1  0
  4  5  2  0
  6  2  1  0
  7  6  2  0
  8  4  1  0
 10  9  1  6
 10 12  1  0
 11 10  1  0
 12 13  1  6
 13  6  1  0
 14 15  2  0
 14 12  1  0
 16 14  1  0
 17 18  1  0
 17 16  1  0
 18 19  1  0
 20 18  2  0
M  END
$$$$
