DTG.pdb
     RDKit          3D

 20 19  0  0  1  0  0  0  0  0999 V2000
   18.6965   -9.8891  -16.9420 N   0  0  0  0  0  0  0  0  0  0  0  0
   18.1319   -9.5669  -15.6686 C   0  0  1  0  0  0  0  0  0  0  0  0
   17.5531  -10.8239  -15.0510 C   0  0  0  0  0  0  0  0  0  0  0  0
   16.4795  -11.3736  -15.9166 C   0  0  0  0  0  0  0  0  0  0  0  0
   16.1833  -10.7712  -16.9796 O   0  0  0  0  0  0  0  0  0  0  0  0
   19.1058   -8.9126  -14.7585 C   0  0  0  0  0  0  0  0  0  0  0  0
   18.7995   -8.7116  -13.5713 O   0  0  0  0  0  0  0  0  0  0  0  0
   15.7825  -12.5251  -15.6100 O   0  0  0  0  0  0  0  0  0  0  0  0
   22.3569  -10.1586  -13.7175 C   0  0  0  0  0  0  0  0  0  0  0  0
   22.6636   -8.7971  -14.3043 C   0  0  1  0  0  0  0  0  0  0  0  0
   23.2879   -8.9058  -15.5290 O   0  0  0  0  0  0  0  0  0  0  0  0
   21.4038   -7.9909  -14.3195 C   0  0  2  0  0  0  0  0  0  0  0  0
   20.3943   -8.5014  -15.2004 N   0  0  0  0  0  0  0  0  0  0  0  0
   21.6494   -6.5352  -14.5145 C   0  0  0  0  0  0  0  0  0  0  0  0
   22.4342   -5.8856  -13.7709 O   0  0  0  0  0  0  0  0  0  0  0  0
   21.0180   -5.7902  -15.5458 N   0  0  0  0  0  0  0  0  0  0  0  0
   21.1989   -4.3605  -15.7015 C   0  0  0  0  0  0  0  0  0  0  0  0
   19.9053   -3.6765  -15.7654 C   0  0  0  0  0  0  0  0  0  0  0  0
   19.8735   -2.3056  -15.9649 O   0  0  0  0  0  0  0  0  0  0  0  0
   18.8175   -4.2864  -15.6459 O   0  0  0  0  0  0  0  0  0  0  0  0
  2  1  1  6
  3  2  1  0
  4  3  1  0
  4  5  2  0
  6  2  1  0
  7  6  2  0
  8  4  1  0
 10  9  1  6
 10 12  1  0
 11 10  1  0
 12 13  1  6
 13  6  1  0
 14 15  2  0
 14 12  1  0
 16 14  1  0
 17 18  1  0
 17 16  1  0
 18 19  1  0
 20 18  2  0
M  END
$$$$
