DTG.pdb
     RDKit          3D

 20 19  0  0  1  0  0  0  0  0999 V2000
   20.6145  -11.9455  -18.5425 N   0  0  0  0  0  0  0  0  0  0  0  0
   21.4660  -10.8228  -18.3003 C   0  0  1  0  0  0  0  0  0  0  0  0
   21.9863  -10.3010  -19.6245 C   0  0  0  0  0  0  0  0  0  0  0  0
   22.8108  -11.3370  -20.2961 C   0  0  0  0  0  0  0  0  0  0  0  0
   23.8548  -11.7490  -19.7296 O   0  0  0  0  0  0  0  0  0  0  0  0
   20.7954   -9.7523  -17.5198 C   0  0  0  0  0  0  0  0  0  0  0  0
   19.7280   -9.2675  -17.9310 O   0  0  0  0  0  0  0  0  0  0  0  0
   22.4855  -11.8766  -21.5244 O   0  0  0  0  0  0  0  0  0  0  0  0
   18.7035   -9.4737  -15.0811 C   0  0  0  0  0  0  0  0  0  0  0  0
   19.8219   -8.6659  -14.4575 C   0  0  1  0  0  0  0  0  0  0  0  0
   20.4495   -9.3688  -13.4508 O   0  0  0  0  0  0  0  0  0  0  0  0
   20.7329   -8.1950  -15.5464 C   0  0  2  0  0  0  0  0  0  0  0  0
   21.3363   -9.2537  -16.3018 N   0  0  0  0  0  0  0  0  0  0  0  0
   21.7262   -7.1898  -15.0769 C   0  0  0  0  0  0  0  0  0  0  0  0
   22.9572   -7.4536  -15.0004 O   0  0  0  0  0  0  0  0  0  0  0  0
   21.3510   -5.8765  -14.6875 N   0  0  0  0  0  0  0  0  0  0  0  0
   22.3042   -4.9069  -14.1852 C   0  0  0  0  0  0  0  0  0  0  0  0
   21.6295   -3.6646  -13.8020 C   0  0  0  0  0  0  0  0  0  0  0  0
   20.5353   -3.7223  -12.9538 O   0  0  0  0  0  0  0  0  0  0  0  0
   22.0053   -2.5427  -14.2139 O   0  0  0  0  0  0  0  0  0  0  0  0
  2  1  1  6
  3  2  1  0
  4  3  1  0
  4  5  2  0
  6  2  1  0
  7  6  2  0
  8  4  1  0
 10  9  1  6
 10 12  1  0
 11 10  1  0
 12 13  1  1
 13  6  1  0
 14 15  2  0
 14 12  1  0
 16 14  1  0
 17 18  1  0
 17 16  1  0
 18 19  1  0
 20 18  2  0
M  END
$$$$
