DTG.pdb
     RDKit          3D

 20 19  0  0  1  0  0  0  0  0999 V2000
   18.2181  -11.7266  -15.6883 N   0  0  0  0  0  0  0  0  0  0  0  0
   18.2678  -10.3385  -16.0270 C   0  0  1  0  0  0  0  0  0  0  0  0
   17.5059   -9.5463  -14.9837 C   0  0  0  0  0  0  0  0  0  0  0  0
   16.0865   -9.9800  -14.9456 C   0  0  0  0  0  0  0  0  0  0  0  0
   15.6374  -10.6843  -15.8853 O   0  0  0  0  0  0  0  0  0  0  0  0
   19.6562   -9.8360  -16.1842 C   0  0  0  0  0  0  0  0  0  0  0  0
   20.6117  -10.5464  -15.8293 O   0  0  0  0  0  0  0  0  0  0  0  0
   15.2256   -9.6455  -13.9196 O   0  0  0  0  0  0  0  0  0  0  0  0
   21.5572   -9.2254  -19.1930 C   0  0  0  0  0  0  0  0  0  0  0  0
   21.5061   -7.8795  -18.5016 C   0  0  1  0  0  0  0  0  0  0  0  0
   20.6006   -7.0355  -19.1094 O   0  0  0  0  0  0  0  0  0  0  0  0
   21.2633   -8.1030  -17.0427 C   0  0  2  0  0  0  0  0  0  0  0  0
   19.9380   -8.5540  -16.7335 N   0  0  0  0  0  0  0  0  0  0  0  0
   21.6852   -6.9490  -16.2014 C   0  0  0  0  0  0  0  0  0  0  0  0
   22.8442   -6.4572  -16.2762 O   0  0  0  0  0  0  0  0  0  0  0  0
   20.8123   -6.3323  -15.2660 N   0  0  0  0  0  0  0  0  0  0  0  0
   21.1416   -5.0952  -14.5861 C   0  0  0  0  0  0  0  0  0  0  0  0
   21.9672   -5.3550  -13.4045 C   0  0  0  0  0  0  0  0  0  0  0  0
   22.3388   -4.2956  -12.5921 O   0  0  0  0  0  0  0  0  0  0  0  0
   22.3540   -6.5060  -13.0964 O   0  0  0  0  0  0  0  0  0  0  0  0
  2  1  1  1
  3  2  1  0
  4  3  1  0
  4  5  2  0
  6  2  1  0
  7  6  2  0
  8  4  1  0
 10  9  1  6
 10 12  1  0
 11 10  1  0
 12 13  1  6
 13  6  1  0
 14 15  2  0
 14 12  1  0
 16 14  1  0
 17 18  1  0
 17 16  1  0
 18 19  1  0
 20 18  2  0
M  END
$$$$
