DTG.pdb
     RDKit          3D

 20 19  0  0  1  0  0  0  0  0999 V2000
   16.7038  -11.6404  -14.2292 N   0  0  0  0  0  0  0  0  0  0  0  0
   17.6969  -11.9483  -15.2105 C   0  0  1  0  0  0  0  0  0  0  0  0
   17.0556  -12.7387  -16.3332 C   0  0  0  0  0  0  0  0  0  0  0  0
   16.4265  -13.9724  -15.7980 C   0  0  0  0  0  0  0  0  0  0  0  0
   15.2084  -13.9518  -15.4875 O   0  0  0  0  0  0  0  0  0  0  0  0
   18.3902  -10.7396  -15.7236 C   0  0  0  0  0  0  0  0  0  0  0  0
   19.2480  -10.8540  -16.6150 O   0  0  0  0  0  0  0  0  0  0  0  0
   17.1188  -15.1537  -15.6223 O   0  0  0  0  0  0  0  0  0  0  0  0
   17.4289   -7.9150  -17.6253 C   0  0  0  0  0  0  0  0  0  0  0  0
   17.9674   -7.2652  -16.3683 C   0  0  1  0  0  0  0  0  0  0  0  0
   16.9536   -6.7170  -15.6112 O   0  0  0  0  0  0  0  0  0  0  0  0
   18.8140   -8.2623  -15.6427 C   0  0  2  0  0  0  0  0  0  0  0  0
   18.1055   -9.4372  -15.2263 N   0  0  0  0  0  0  0  0  0  0  0  0
   19.6098   -7.6542  -14.5407 C   0  0  0  0  0  0  0  0  0  0  0  0
   19.3623   -7.8949  -13.3276 O   0  0  0  0  0  0  0  0  0  0  0  0
   20.6929   -6.7687  -14.7858 N   0  0  0  0  0  0  0  0  0  0  0  0
   21.4586   -6.1549  -13.7190 C   0  0  0  0  0  0  0  0  0  0  0  0
   22.5419   -5.3328  -14.2629 C   0  0  0  0  0  0  0  0  0  0  0  0
   23.2945   -4.5493  -13.4027 O   0  0  0  0  0  0  0  0  0  0  0  0
   22.8176   -5.3095  -15.4848 O   0  0  0  0  0  0  0  0  0  0  0  0
  2  1  1  1
  3  2  1  0
  4  3  1  0
  4  5  2  0
  6  2  1  0
  7  6  2  0
  8  4  1  0
 10  9  1  6
 10 12  1  0
 11 10  1  0
 12 13  1  1
 13  6  1  0
 14 15  2  0
 14 12  1  0
 16 14  1  0
 17 18  1  0
 17 16  1  0
 18 19  1  0
 20 18  2  0
M  END
$$$$
