DTG.pdb
     RDKit          3D

 20 19  0  0  1  0  0  0  0  0999 V2000
   17.5554  -12.9769  -16.2722 N   0  0  0  0  0  0  0  0  0  0  0  0
   18.6582  -12.0724  -16.3714 C   0  0  1  0  0  0  0  0  0  0  0  0
   19.1172  -12.0072  -17.8142 C   0  0  0  0  0  0  0  0  0  0  0  0
   19.6003  -13.3384  -18.2597 C   0  0  0  0  0  0  0  0  0  0  0  0
   20.7328  -13.7346  -17.8839 O   0  0  0  0  0  0  0  0  0  0  0  0
   18.3423  -10.7224  -15.8398 C   0  0  0  0  0  0  0  0  0  0  0  0
   17.1574  -10.3633  -15.7372 O   0  0  0  0  0  0  0  0  0  0  0  0
   18.8611  -14.1722  -19.0745 O   0  0  0  0  0  0  0  0  0  0  0  0
   18.7350   -9.5409  -12.6429 C   0  0  0  0  0  0  0  0  0  0  0  0
   18.1531   -8.5974  -13.6740 C   0  0  1  0  0  0  0  0  0  0  0  0
   17.8497   -7.3716  -13.1201 O   0  0  0  0  0  0  0  0  0  0  0  0
   19.0847   -8.5367  -14.8427 C   0  0  2  0  0  0  0  0  0  0  0  0
   19.3591   -9.8118  -15.4379 N   0  0  0  0  0  0  0  0  0  0  0  0
   20.3233   -7.7610  -14.5568 C   0  0  0  0  0  0  0  0  0  0  0  0
   21.3089   -8.2739  -13.9599 O   0  0  0  0  0  0  0  0  0  0  0  0
   20.4717   -6.4006  -14.9370 N   0  0  0  0  0  0  0  0  0  0  0  0
   21.7085   -5.6673  -14.7537 C   0  0  0  0  0  0  0  0  0  0  0  0
   21.7918   -5.1185  -13.3983 C   0  0  0  0  0  0  0  0  0  0  0  0
   20.7724   -5.3821  -12.4974 O   0  0  0  0  0  0  0  0  0  0  0  0
   22.7556   -4.4144  -13.0178 O   0  0  0  0  0  0  0  0  0  0  0  0
  2  1  1  6
  3  2  1  0
  4  3  1  0
  4  5  2  0
  6  2  1  0
  7  6  2  0
  8  4  1  0
 10  9  1  1
 10 12  1  0
 11 10  1  0
 12 13  1  1
 13  6  1  0
 14 15  2  0
 14 12  1  0
 16 14  1  0
 17 18  1  0
 17 16  1  0
 18 19  1  0
 20 18  2  0
M  END
$$$$
