DTG.pdb
     RDKit          3D

 20 19  0  0  1  0  0  0  0  0999 V2000
   18.4921  -11.8361  -15.8884 N   0  0  0  0  0  0  0  0  0  0  0  0
   18.1586  -10.4470  -15.9460 C   0  0  1  0  0  0  0  0  0  0  0  0
   16.7304  -10.2604  -15.4750 C   0  0  0  0  0  0  0  0  0  0  0  0
   15.7850  -10.5093  -16.5923 C   0  0  0  0  0  0  0  0  0  0  0  0
   16.2420  -10.7102  -17.7461 O   0  0  0  0  0  0  0  0  0  0  0  0
   19.1011   -9.5985  -15.1734 C   0  0  0  0  0  0  0  0  0  0  0  0
   19.4633   -9.9559  -14.0400 O   0  0  0  0  0  0  0  0  0  0  0  0
   14.4147  -10.5314  -16.4265 O   0  0  0  0  0  0  0  0  0  0  0  0
   22.4184   -8.9397  -15.5374 C   0  0  0  0  0  0  0  0  0  0  0  0
   21.7024   -8.2374  -14.4032 C   0  0  1  0  0  0  0  0  0  0  0  0
   22.5632   -7.4339  -13.6855 O   0  0  0  0  0  0  0  0  0  0  0  0
   20.5102   -7.5267  -14.9609 C   0  0  2  0  0  0  0  0  0  0  0  0
   19.6124   -8.3749  -15.6890 N   0  0  0  0  0  0  0  0  0  0  0  0
   20.8704   -6.2943  -15.7152 C   0  0  0  0  0  0  0  0  0  0  0  0
   21.3072   -6.3395  -16.8976 O   0  0  0  0  0  0  0  0  0  0  0  0
   20.7451   -4.9962  -15.1527 N   0  0  0  0  0  0  0  0  0  0  0  0
   21.0261   -3.7880  -15.9025 C   0  0  0  0  0  0  0  0  0  0  0  0
   20.7619   -2.5983  -15.0900 C   0  0  0  0  0  0  0  0  0  0  0  0
   21.0096   -1.3443  -15.6251 O   0  0  0  0  0  0  0  0  0  0  0  0
   20.3173   -2.6698  -13.9210 O   0  0  0  0  0  0  0  0  0  0  0  0
  2  1  1  1
  3  2  1  0
  4  3  1  0
  4  5  2  0
  6  2  1  0
  7  6  2  0
  8  4  1  0
 10  9  1  6
 10 12  1  0
 11 10  1  0
 12 13  1  6
 13  6  1  0
 14 15  2  0
 14 12  1  0
 16 14  1  0
 17 18  1  0
 17 16  1  0
 18 19  1  0
 20 18  2  0
M  END
$$$$
