ITR.pdb
     RDKit          3D

 27 26  0  0  1  0  0  0  0  0999 V2000
   27.0551  -19.9628   -3.3265 C   0  0  0  0  0  0  0  0  0  0  0  0
   27.7592  -19.5921   -4.5870 C   0  0  0  0  0  0  0  0  0  0  0  0
   26.9783  -19.7737   -5.8434 C   0  0  2  0  0  0  0  0  0  0  0  0
   26.5295  -21.2288   -5.9046 C   0  0  0  0  0  0  0  0  0  0  0  0
   27.8484  -19.4268   -7.0254 C   0  0  2  0  0  0  0  0  0  0  0  0
   28.3215  -18.0682   -6.8840 N   0  0  0  0  0  0  0  0  0  0  0  0
   27.1189  -19.5334   -8.3131 C   0  0  0  0  0  0  0  0  0  0  0  0
   26.1921  -18.7385   -8.6382 O   0  0  0  0  0  0  0  0  0  0  0  0
   27.7354  -21.0402  -12.9672 C   0  0  0  0  0  0  0  0  0  0  0  0
   28.0817  -21.0748  -11.4828 C   0  0  1  0  0  0  0  0  0  0  0  0
   29.3316  -20.5599  -11.2237 O   0  0  0  0  0  0  0  0  0  0  0  0
   26.9855  -20.4967  -10.6418 C   0  0  2  0  0  0  0  0  0  0  0  0
   27.4314  -20.5483   -9.2562 N   0  0  0  0  0  0  0  0  0  0  0  0
   25.6909  -21.1706  -10.8037 C   0  0  0  0  0  0  0  0  0  0  0  0
   25.1981  -21.7606   -9.8110 O   0  0  0  0  0  0  0  0  0  0  0  0
   18.4806  -20.2521  -12.1317 N   0  0  0  0  0  0  0  0  0  0  0  0
   18.2872  -21.0610  -10.9393 C   0  0  0  0  0  0  0  0  0  0  0  0
   17.1787  -21.6367  -10.7717 N   0  0  0  0  0  0  0  0  0  0  0  0
   19.3194  -21.1970   -9.9879 N   0  0  0  0  0  0  0  0  0  0  0  0
   20.6449  -20.7610  -10.1308 C   0  0  0  0  0  0  0  0  0  0  0  0
   21.2388  -20.5604  -11.4734 C   0  0  0  0  0  0  0  0  0  0  0  0
   22.7641  -20.3960  -11.2154 C   0  0  0  0  0  0  0  0  0  0  0  0
   23.5220  -21.4228  -12.0235 C   0  0  2  0  0  0  0  0  0  0  0  0
   24.9536  -21.2025  -12.0084 N   0  0  0  0  0  0  0  0  0  0  0  0
   22.9958  -21.5121  -13.4062 C   0  0  0  0  0  0  0  0  0  0  0  0
   23.7702  -21.1277  -14.4671 O   0  0  0  0  0  0  0  0  0  0  0  0
   21.8366  -21.9411  -13.6128 O   0  0  0  0  0  0  0  0  0  0  0  0
  2  3  1  0
  2  1  1  0
  3  4  1  6
  5  6  1  1
  5  3  1  0
  7  5  1  0
  8  7  2  0
 10  9  1  6
 10 11  1  0
 10 12  1  0
 12 13  1  1
 13  7  1  0
 14 12  1  0
 14 15  2  0
 16 17  1  0
 17 19  1  0
 17 18  2  0
 19 20  1  0
 20 21  1  0
 21 22  1  0
 23 22  1  6
 23 24  1  0
 24 14  1  0
 25 23  1  0
 26 25  1  0
 27 25  2  0
M  END
$$$$
