ITR.pdb
     RDKit          3D

 27 26  0  0  1  0  0  0  0  0999 V2000
   16.0378  -12.4232  -18.8216 C   0  0  0  0  0  0  0  0  0  0  0  0
   17.4854  -12.6320  -18.5338 C   0  0  0  0  0  0  0  0  0  0  0  0
   18.0679  -11.7607  -17.4741 C   0  0  2  0  0  0  0  0  0  0  0  0
   17.9898  -10.3195  -17.9633 C   0  0  0  0  0  0  0  0  0  0  0  0
   19.4980  -12.1692  -17.2236 C   0  0  2  0  0  0  0  0  0  0  0  0
   19.5384  -13.5746  -16.8878 N   0  0  0  0  0  0  0  0  0  0  0  0
   20.1153  -11.4072  -16.1102 C   0  0  0  0  0  0  0  0  0  0  0  0
   19.7154  -11.5037  -14.9154 O   0  0  0  0  0  0  0  0  0  0  0  0
   23.0991  -11.6322  -14.4164 C   0  0  0  0  0  0  0  0  0  0  0  0
   23.1444  -10.2232  -14.9969 C   0  0  1  0  0  0  0  0  0  0  0  0
   24.0262  -10.1173  -16.0485 O   0  0  0  0  0  0  0  0  0  0  0  0
   21.7725   -9.6938  -15.2813 C   0  0  2  0  0  0  0  0  0  0  0  0
   21.2010  -10.5200  -16.3360 N   0  0  0  0  0  0  0  0  0  0  0  0
   21.7463   -8.2734  -15.6528 C   0  0  0  0  0  0  0  0  0  0  0  0
   21.4497   -7.9721  -16.8349 O   0  0  0  0  0  0  0  0  0  0  0  0
   17.6471   -3.5130  -19.4245 N   0  0  0  0  0  0  0  0  0  0  0  0
   18.2825   -2.4074  -18.7264 C   0  0  0  0  0  0  0  0  0  0  0  0
   18.1185   -1.2385  -19.1681 N   0  0  0  0  0  0  0  0  0  0  0  0
   19.0686   -2.6389  -17.5786 N   0  0  0  0  0  0  0  0  0  0  0  0
   19.4157   -3.8895  -17.0468 C   0  0  0  0  0  0  0  0  0  0  0  0
   20.3167   -3.9940  -15.8751 C   0  0  0  0  0  0  0  0  0  0  0  0
   20.4522   -5.5209  -15.6097 C   0  0  0  0  0  0  0  0  0  0  0  0
   21.8581   -5.8261  -15.1492 C   0  0  2  0  0  0  0  0  0  0  0  0
   22.0339   -7.2119  -14.7660 N   0  0  0  0  0  0  0  0  0  0  0  0
   22.2819   -4.9014  -14.0712 C   0  0  0  0  0  0  0  0  0  0  0  0
   22.5049   -5.3709  -12.8051 O   0  0  0  0  0  0  0  0  0  0  0  0
   22.4394   -3.6819  -14.3129 O   0  0  0  0  0  0  0  0  0  0  0  0
  2  3  1  0
  2  1  1  0
  3  4  1  6
  5  6  1  1
  5  3  1  0
  7  5  1  0
  8  7  2  0
 10  9  1  6
 10 11  1  0
 10 12  1  0
 12 13  1  6
 13  7  1  0
 14 12  1  0
 14 15  2  0
 16 17  1  0
 17 19  1  0
 17 18  2  0
 19 20  1  0
 20 21  1  0
 21 22  1  0
 23 22  1  1
 23 24  1  0
 24 14  1  0
 25 23  1  0
 26 25  1  0
 27 25  2  0
M  END
$$$$
