ITR.pdb
     RDKit          3D

 27 26  0  0  1  0  0  0  0  0999 V2000
   23.1054  -14.7152  -16.8427 C   0  0  0  0  0  0  0  0  0  0  0  0
   24.2602  -15.6077  -17.1455 C   0  0  0  0  0  0  0  0  0  0  0  0
   25.2151  -15.8355  -16.0240 C   0  0  2  0  0  0  0  0  0  0  0  0
   25.8553  -14.4959  -15.6804 C   0  0  0  0  0  0  0  0  0  0  0  0
   26.2572  -16.8379  -16.4528 C   0  0  2  0  0  0  0  0  0  0  0  0
   26.2847  -16.9061  -17.8964 N   0  0  0  0  0  0  0  0  0  0  0  0
   25.9806  -18.1980  -15.9283 C   0  0  0  0  0  0  0  0  0  0  0  0
   25.4229  -19.0948  -16.6222 O   0  0  0  0  0  0  0  0  0  0  0  0
   27.7866  -20.8640  -15.6269 C   0  0  0  0  0  0  0  0  0  0  0  0
   27.3719  -20.6608  -14.1740 C   0  0  1  0  0  0  0  0  0  0  0  0
   28.3987  -20.1709  -13.3991 O   0  0  0  0  0  0  0  0  0  0  0  0
   26.0900  -19.8943  -14.0629 C   0  0  2  0  0  0  0  0  0  0  0  0
   26.3345  -18.5636  -14.6023 N   0  0  0  0  0  0  0  0  0  0  0  0
   25.5566  -19.8187  -12.6969 C   0  0  0  0  0  0  0  0  0  0  0  0
   25.8663  -18.8282  -11.9903 O   0  0  0  0  0  0  0  0  0  0  0  0
   19.5242  -21.8370   -6.5302 N   0  0  0  0  0  0  0  0  0  0  0  0
   19.2680  -21.4182   -7.8986 C   0  0  0  0  0  0  0  0  0  0  0  0
   18.2184  -20.7658   -8.1454 N   0  0  0  0  0  0  0  0  0  0  0  0
   20.1756  -21.7377   -8.9298 N   0  0  0  0  0  0  0  0  0  0  0  0
   21.4784  -22.2313   -8.7676 C   0  0  0  0  0  0  0  0  0  0  0  0
   22.6543  -21.3491   -8.9531 C   0  0  0  0  0  0  0  0  0  0  0  0
   23.0544  -21.5245  -10.4462 C   0  0  0  0  0  0  0  0  0  0  0  0
   24.2965  -20.7132  -10.7303 C   0  0  2  0  0  0  0  0  0  0  0  0
   24.7118  -20.7906  -12.1159 N   0  0  0  0  0  0  0  0  0  0  0  0
   25.3975  -21.0769   -9.8070 C   0  0  0  0  0  0  0  0  0  0  0  0
   25.5136  -20.4585   -8.5916 O   0  0  0  0  0  0  0  0  0  0  0  0
   26.2301  -21.9545  -10.1340 O   0  0  0  0  0  0  0  0  0  0  0  0
  2  3  1  0
  2  1  1  0
  3  4  1  6
  5  6  1  6
  5  3  1  0
  7  5  1  0
  8  7  2  0
 10  9  1  6
 10 11  1  0
 10 12  1  0
 12 13  1  1
 13  7  1  0
 14 12  1  0
 14 15  2  0
 16 17  1  0
 17 19  1  0
 17 18  2  0
 19 20  1  0
 20 21  1  0
 21 22  1  0
 23 22  1  6
 23 24  1  0
 24 14  1  0
 25 23  1  0
 26 25  1  0
 27 25  2  0
M  END
$$$$
