ITR.pdb
     RDKit          3D

 27 26  0  0  1  0  0  0  0  0999 V2000
   26.3296  -22.1335  -17.8623 C   0  0  0  0  0  0  0  0  0  0  0  0
   26.6391  -20.9355  -17.0311 C   0  0  0  0  0  0  0  0  0  0  0  0
   25.7752  -20.7368  -15.8329 C   0  0  2  0  0  0  0  0  0  0  0  0
   25.8515  -22.0045  -14.9905 C   0  0  0  0  0  0  0  0  0  0  0  0
   24.3594  -20.4688  -16.2784 C   0  0  2  0  0  0  0  0  0  0  0  0
   24.3457  -19.3131  -17.1465 N   0  0  0  0  0  0  0  0  0  0  0  0
   23.4498  -20.2035  -15.1366 C   0  0  0  0  0  0  0  0  0  0  0  0
   23.5031  -19.1398  -14.4567 O   0  0  0  0  0  0  0  0  0  0  0  0
   21.6985  -18.4300  -14.0401 C   0  0  0  0  0  0  0  0  0  0  0  0
   20.7777  -19.6441  -13.9907 C   0  0  1  0  0  0  0  0  0  0  0  0
   19.9743  -19.7386  -15.1044 O   0  0  0  0  0  0  0  0  0  0  0  0
   21.5266  -20.8975  -13.6572 C   0  0  2  0  0  0  0  0  0  0  0  0
   22.4607  -21.1453  -14.7469 N   0  0  0  0  0  0  0  0  0  0  0  0
   20.6648  -22.0640  -13.4272 C   0  0  0  0  0  0  0  0  0  0  0  0
   20.4204  -22.8245  -14.3958 O   0  0  0  0  0  0  0  0  0  0  0  0
   18.9947  -25.1129   -5.9008 N   0  0  0  0  0  0  0  0  0  0  0  0
   17.8310  -25.5536   -6.6527 C   0  0  0  0  0  0  0  0  0  0  0  0
   16.9906  -26.3009   -6.0840 N   0  0  0  0  0  0  0  0  0  0  0  0
   17.6477  -25.1541   -7.9928 N   0  0  0  0  0  0  0  0  0  0  0  0
   18.3051  -25.6800   -9.1146 C   0  0  0  0  0  0  0  0  0  0  0  0
   18.0556  -25.1317  -10.4684 C   0  0  0  0  0  0  0  0  0  0  0  0
   18.9566  -23.8667  -10.5598 C   0  0  0  0  0  0  0  0  0  0  0  0
   19.2611  -23.5727  -12.0098 C   0  0  2  0  0  0  0  0  0  0  0  0
   20.0857  -22.3943  -12.1816 N   0  0  0  0  0  0  0  0  0  0  0  0
   18.0183  -23.4939  -12.8136 C   0  0  0  0  0  0  0  0  0  0  0  0
   17.5829  -24.5808  -13.5223 O   0  0  0  0  0  0  0  0  0  0  0  0
   17.3572  -22.4299  -12.8490 O   0  0  0  0  0  0  0  0  0  0  0  0
  2  3  1  0
  2  1  1  0
  3  4  1  1
  5  6  1  6
  5  3  1  0
  7  5  1  0
  8  7  2  0
 10  9  1  6
 10 11  1  0
 10 12  1  0
 12 13  1  6
 13  7  1  0
 14 12  1  0
 14 15  2  0
 16 17  1  0
 17 19  1  0
 17 18  2  0
 19 20  1  0
 20 21  1  0
 21 22  1  0
 23 22  1  1
 23 24  1  0
 24 14  1  0
 25 23  1  0
 26 25  1  0
 27 25  2  0
M  END
$$$$
