ITR.pdb
     RDKit          3D

 27 26  0  0  1  0  0  0  0  0999 V2000
   29.1657  -19.4457   -3.7421 C   0  0  0  0  0  0  0  0  0  0  0  0
   28.3921  -18.7656   -4.8195 C   0  0  0  0  0  0  0  0  0  0  0  0
   28.1279  -19.5789   -6.0402 C   0  0  2  0  0  0  0  0  0  0  0  0
   28.7004  -18.8240   -7.2338 C   0  0  0  0  0  0  0  0  0  0  0  0
   26.6410  -19.7813   -6.1919 C   0  0  2  0  0  0  0  0  0  0  0  0
   26.1442  -20.5217   -5.0542 N   0  0  0  0  0  0  0  0  0  0  0  0
   26.2972  -20.5346   -7.4230 C   0  0  0  0  0  0  0  0  0  0  0  0
   26.7499  -21.6897   -7.6630 O   0  0  0  0  0  0  0  0  0  0  0  0
   23.0630  -21.5484  -10.8675 C   0  0  0  0  0  0  0  0  0  0  0  0
   23.5651  -20.7670   -9.6584 C   0  0  1  0  0  0  0  0  0  0  0  0
   22.9774  -21.1820   -8.4849 O   0  0  0  0  0  0  0  0  0  0  0  0
   25.0610  -20.7069   -9.6164 C   0  0  2  0  0  0  0  0  0  0  0  0
   25.4303  -19.9867   -8.4055 N   0  0  0  0  0  0  0  0  0  0  0  0
   25.6666  -20.0881  -10.8023 C   0  0  0  0  0  0  0  0  0  0  0  0
   26.7192  -19.4201  -10.6539 O   0  0  0  0  0  0  0  0  0  0  0  0
   28.5187  -20.5862  -17.3737 N   0  0  0  0  0  0  0  0  0  0  0  0
   29.3042  -21.7971  -17.1995 C   0  0  0  0  0  0  0  0  0  0  0  0
   29.8772  -22.2967  -18.2047 N   0  0  0  0  0  0  0  0  0  0  0  0
   29.4209  -22.4017  -15.9307 N   0  0  0  0  0  0  0  0  0  0  0  0
   28.7421  -22.0227  -14.7633 C   0  0  0  0  0  0  0  0  0  0  0  0
   27.6298  -21.0450  -14.8138 C   0  0  0  0  0  0  0  0  0  0  0  0
   27.1633  -20.8933  -13.3375 C   0  0  0  0  0  0  0  0  0  0  0  0
   25.9668  -19.9728  -13.2827 C   0  0  2  0  0  0  0  0  0  0  0  0
   25.1441  -20.1922  -12.1108 N   0  0  0  0  0  0  0  0  0  0  0  0
   25.1730  -20.0502  -14.5319 C   0  0  0  0  0  0  0  0  0  0  0  0
   23.8637  -20.4472  -14.4959 O   0  0  0  0  0  0  0  0  0  0  0  0
   25.6965  -19.7517  -15.6306 O   0  0  0  0  0  0  0  0  0  0  0  0
  2  3  1  0
  2  1  1  0
  3  4  1  6
  5  6  1  1
  5  3  1  0
  7  5  1  0
  8  7  2  0
 10  9  1  6
 10 11  1  0
 10 12  1  0
 12 13  1  1
 13  7  1  0
 14 12  1  0
 14 15  2  0
 16 17  1  0
 17 19  1  0
 17 18  2  0
 19 20  1  0
 20 21  1  0
 21 22  1  0
 23 22  1  6
 23 24  1  0
 24 14  1  0
 25 23  1  0
 26 25  1  0
 27 25  2  0
M  END
$$$$
