ITR.pdb
     RDKit          3D

 27 26  0  0  1  0  0  0  0  0999 V2000
   22.4680  -20.8602   -7.3425 C   0  0  0  0  0  0  0  0  0  0  0  0
   23.8549  -21.0786   -7.8431 C   0  0  0  0  0  0  0  0  0  0  0  0
   24.1544  -20.5146   -9.1898 C   0  0  2  0  0  0  0  0  0  0  0  0
   23.1638  -21.1198  -10.1772 C   0  0  0  0  0  0  0  0  0  0  0  0
   25.5732  -20.8578   -9.5695 C   0  0  2  0  0  0  0  0  0  0  0  0
   26.4696  -20.3709   -8.5453 N   0  0  0  0  0  0  0  0  0  0  0  0
   25.9728  -20.2519  -10.8635 C   0  0  0  0  0  0  0  0  0  0  0  0
   26.2441  -19.0238  -10.9852 O   0  0  0  0  0  0  0  0  0  0  0  0
   28.7934  -20.6833  -12.9460 C   0  0  0  0  0  0  0  0  0  0  0  0
   27.6191  -21.0375  -13.8515 C   0  0  1  0  0  0  0  0  0  0  0  0
   27.5599  -22.3840  -14.1311 O   0  0  0  0  0  0  0  0  0  0  0  0
   26.3348  -20.4498  -13.3533 C   0  0  2  0  0  0  0  0  0  0  0  0
   26.0716  -21.0337  -12.0451 N   0  0  0  0  0  0  0  0  0  0  0  0
   25.1960  -20.6509  -14.2582 C   0  0  0  0  0  0  0  0  0  0  0  0
   24.1569  -21.1850  -13.7986 O   0  0  0  0  0  0  0  0  0  0  0  0
   19.1178  -19.7723  -15.6020 N   0  0  0  0  0  0  0  0  0  0  0  0
   18.8651  -18.4153  -16.0584 C   0  0  0  0  0  0  0  0  0  0  0  0
   17.8053  -18.1796  -16.6984 N   0  0  0  0  0  0  0  0  0  0  0  0
   19.7890  -17.3837  -15.7919 N   0  0  0  0  0  0  0  0  0  0  0  0
   21.1847  -17.5114  -15.7352 C   0  0  0  0  0  0  0  0  0  0  0  0
   21.8807  -18.5871  -16.4795 C   0  0  0  0  0  0  0  0  0  0  0  0
   23.1233  -18.9351  -15.6106 C   0  0  0  0  0  0  0  0  0  0  0  0
   23.9569  -19.9743  -16.3227 C   0  0  2  0  0  0  0  0  0  0  0  0
   25.1866  -20.2826  -15.6221 N   0  0  0  0  0  0  0  0  0  0  0  0
   24.2106  -19.5858  -17.7303 C   0  0  0  0  0  0  0  0  0  0  0  0
   23.2547  -19.7920  -18.6878 O   0  0  0  0  0  0  0  0  0  0  0  0
   25.3038  -19.0649  -18.0530 O   0  0  0  0  0  0  0  0  0  0  0  0
  2  3  1  0
  2  1  1  0
  3  4  1  6
  5  6  1  1
  5  3  1  0
  7  5  1  0
  8  7  2  0
 10  9  1  1
 10 11  1  0
 10 12  1  0
 12 13  1  1
 13  7  1  0
 14 12  1  0
 14 15  2  0
 16 17  1  0
 17 19  1  0
 17 18  2  0
 19 20  1  0
 20 21  1  0
 21 22  1  0
 23 22  1  1
 23 24  1  0
 24 14  1  0
 25 23  1  0
 26 25  1  0
 27 25  2  0
M  END
$$$$
