ETE.pdb
     RDKit          3D

 26 25  0  0  1  0  0  0  0  0999 V2000
   18.5992  -12.6270  -16.3633 N   0  0  0  0  0  0  0  0  0  0  0  0
   18.8427  -11.2756  -16.8684 C   0  0  1  0  0  0  0  0  0  0  0  0
   17.4997  -10.5995  -17.0304 C   0  0  0  0  0  0  0  0  0  0  0  0
   16.6896  -11.1348  -18.1674 C   0  0  0  0  0  0  0  0  0  0  0  0
   15.4033  -10.4296  -18.2329 C   0  0  0  0  0  0  0  0  0  0  0  0
   15.2406   -9.4026  -18.9231 O   0  0  0  0  0  0  0  0  0  0  0  0
   19.6943  -10.5743  -15.8500 C   0  0  0  0  0  0  0  0  0  0  0  0
   19.3442  -10.6348  -14.6422 O   0  0  0  0  0  0  0  0  0  0  0  0
   14.3196  -10.9272  -17.4943 O   0  0  0  0  0  0  0  0  0  0  0  0
   22.8787  -11.2816  -14.7434 C   0  0  0  0  0  0  0  0  0  0  0  0
   22.9943   -9.8428  -15.1502 C   0  0  1  0  0  0  0  0  0  0  0  0
   23.5140   -9.8582  -16.4741 O   0  0  0  0  0  0  0  0  0  0  0  0
   21.6289   -9.1871  -15.1741 C   0  0  2  0  0  0  0  0  0  0  0  0
   20.8631   -9.8615  -16.2311 N   0  0  0  0  0  0  0  0  0  0  0  0
   21.7402   -7.7371  -15.4732 C   0  0  0  0  0  0  0  0  0  0  0  0
   21.6207   -7.4339  -16.6931 O   0  0  0  0  0  0  0  0  0  0  0  0
   21.9568   -6.7083  -14.5491 N   0  0  0  0  0  0  0  0  0  0  0  0
   22.0399   -5.3183  -14.8318 C   0  0  1  0  0  0  0  0  0  0  0  0
   20.9628   -4.7260  -15.6982 C   0  0  0  0  0  0  0  0  0  0  0  0
   19.6574   -4.5513  -14.9846 C   0  0  0  0  0  0  0  0  0  0  0  0
   18.6832   -3.8944  -15.9163 C   0  0  0  0  0  0  0  0  0  0  0  0
   17.9322   -4.5448  -16.6669 O   0  0  0  0  0  0  0  0  0  0  0  0
   22.4593   -4.4635  -13.7137 C   0  0  0  0  0  0  0  0  0  0  0  0
   22.4570   -4.9145  -12.4120 O   0  0  0  0  0  0  0  0  0  0  0  0
   18.6119   -2.5139  -15.9472 O   0  0  0  0  0  0  0  0  0  0  0  0
   22.8299   -3.2928  -13.9448 O   0  0  0  0  0  0  0  0  0  0  0  0
  2  7  1  0
  2  1  1  1
  3  2  1  0
  4  3  1  0
  5  4  1  0
  6  5  2  0
  7  8  2  0
  9  5  1  0
 11 10  1  6
 11 12  1  0
 13 11  1  0
 13 14  1  6
 14  7  1  0
 15 16  2  0
 15 13  1  0
 17 15  1  0
 18 17  1  0
 19 20  1  0
 18 19  1  1
 20 21  1  0
 21 22  2  0
 21 25  1  0
 23 18  1  0
 23 24  1  0
 26 23  2  0
M  END
$$$$
