ETE.pdb
     RDKit          3D

 26 25  0  0  1  0  0  0  0  0999 V2000
   16.7184  -10.1985  -18.6600 N   0  0  0  0  0  0  0  0  0  0  0  0
   16.9331   -9.4461  -17.4237 C   0  0  1  0  0  0  0  0  0  0  0  0
   17.2570  -10.4424  -16.3329 C   0  0  0  0  0  0  0  0  0  0  0  0
   16.0853  -11.2654  -15.9022 C   0  0  0  0  0  0  0  0  0  0  0  0
   16.4698  -12.1182  -14.7703 C   0  0  0  0  0  0  0  0  0  0  0  0
   16.3718  -11.7380  -13.5857 O   0  0  0  0  0  0  0  0  0  0  0  0
   18.0799   -8.5101  -17.6742 C   0  0  0  0  0  0  0  0  0  0  0  0
   18.9562   -8.8569  -18.5089 O   0  0  0  0  0  0  0  0  0  0  0  0
   16.9644  -13.4051  -15.0292 O   0  0  0  0  0  0  0  0  0  0  0  0
   19.9869   -4.0202  -17.3148 C   0  0  0  0  0  0  0  0  0  0  0  0
   18.8400   -4.9794  -17.1981 C   0  0  1  0  0  0  0  0  0  0  0  0
   17.9979   -4.7089  -18.3120 O   0  0  0  0  0  0  0  0  0  0  0  0
   19.3318   -6.4086  -17.2993 C   0  0  2  0  0  0  0  0  0  0  0  0
   18.1794   -7.2669  -16.9931 N   0  0  0  0  0  0  0  0  0  0  0  0
   20.4276   -6.6641  -16.3306 C   0  0  0  0  0  0  0  0  0  0  0  0
   20.1124   -6.5123  -15.1172 O   0  0  0  0  0  0  0  0  0  0  0  0
   21.7384   -7.0489  -16.6353 N   0  0  0  0  0  0  0  0  0  0  0  0
   22.7866   -7.2962  -15.7084 C   0  0  1  0  0  0  0  0  0  0  0  0
   23.9156   -8.1788  -16.1646 C   0  0  0  0  0  0  0  0  0  0  0  0
   24.9886   -8.3490  -15.1334 C   0  0  0  0  0  0  0  0  0  0  0  0
   26.0537   -9.2459  -15.6900 C   0  0  0  0  0  0  0  0  0  0  0  0
   26.0193   -9.6824  -16.8557 O   0  0  0  0  0  0  0  0  0  0  0  0
   23.2041   -6.1467  -14.8952 C   0  0  0  0  0  0  0  0  0  0  0  0
   23.3379   -6.2335  -13.5269 O   0  0  0  0  0  0  0  0  0  0  0  0
   27.1168   -9.6053  -14.8823 O   0  0  0  0  0  0  0  0  0  0  0  0
   23.4459   -5.0568  -15.4561 O   0  0  0  0  0  0  0  0  0  0  0  0
  2  7  1  0
  2  1  1  6
  3  2  1  0
  4  3  1  0
  5  4  1  0
  6  5  2  0
  7  8  2  0
  9  5  1  0
 11 10  1  6
 11 12  1  0
 13 11  1  0
 13 14  1  1
 14  7  1  0
 15 16  2  0
 15 13  1  0
 17 15  1  0
 18 17  1  0
 19 20  1  0
 18 19  1  6
 20 21  1  0
 21 22  2  0
 21 25  1  0
 23 18  1  0
 23 24  1  0
 26 23  2  0
M  END
$$$$
