ETE.pdb
     RDKit          3D

 26 25  0  0  1  0  0  0  0  0999 V2000
   18.7012  -13.8847  -17.0556 N   0  0  0  0  0  0  0  0  0  0  0  0
   17.6532  -12.9095  -16.7530 C   0  0  1  0  0  0  0  0  0  0  0  0
   17.3775  -12.9812  -15.2678 C   0  0  0  0  0  0  0  0  0  0  0  0
   15.9226  -12.9589  -14.9239 C   0  0  0  0  0  0  0  0  0  0  0  0
   15.5208  -14.2664  -14.3900 C   0  0  0  0  0  0  0  0  0  0  0  0
   16.3513  -15.1515  -14.0992 O   0  0  0  0  0  0  0  0  0  0  0  0
   18.1808  -11.5617  -17.1520 C   0  0  0  0  0  0  0  0  0  0  0  0
   19.4288  -11.3985  -17.1798 O   0  0  0  0  0  0  0  0  0  0  0  0
   14.1563  -14.5303  -14.2001 O   0  0  0  0  0  0  0  0  0  0  0  0
   17.4408   -7.3001  -19.4142 C   0  0  0  0  0  0  0  0  0  0  0  0
   16.9534   -8.6426  -18.9568 C   0  0  1  0  0  0  0  0  0  0  0  0
   16.9658   -9.4705  -20.1133 O   0  0  0  0  0  0  0  0  0  0  0  0
   17.9014   -9.2297  -17.9314 C   0  0  2  0  0  0  0  0  0  0  0  0
   17.3028  -10.4967  -17.4901 N   0  0  0  0  0  0  0  0  0  0  0  0
   18.0661   -8.3147  -16.7738 C   0  0  0  0  0  0  0  0  0  0  0  0
   17.1291   -8.3513  -15.9281 O   0  0  0  0  0  0  0  0  0  0  0  0
   19.1375   -7.4439  -16.5438 N   0  0  0  0  0  0  0  0  0  0  0  0
   19.2830   -6.5490  -15.4497 C   0  0  1  0  0  0  0  0  0  0  0  0
   20.6751   -6.0861  -15.1189 C   0  0  0  0  0  0  0  0  0  0  0  0
   20.7455   -5.2680  -13.8661 C   0  0  0  0  0  0  0  0  0  0  0  0
   22.1716   -4.8684  -13.6311 C   0  0  0  0  0  0  0  0  0  0  0  0
   23.1255   -5.6434  -13.8310 O   0  0  0  0  0  0  0  0  0  0  0  0
   18.2529   -5.5087  -15.3345 C   0  0  0  0  0  0  0  0  0  0  0  0
   17.5787   -5.2795  -14.1552 O   0  0  0  0  0  0  0  0  0  0  0  0
   22.4435   -3.5917  -13.1751 O   0  0  0  0  0  0  0  0  0  0  0  0
   17.9767   -4.8088  -16.3320 O   0  0  0  0  0  0  0  0  0  0  0  0
  2  7  1  0
  2  1  1  1
  3  2  1  0
  4  3  1  0
  5  4  1  0
  6  5  2  0
  7  8  2  0
  9  5  1  0
 11 10  1  6
 11 12  1  0
 13 11  1  0
 13 14  1  1
 14  7  1  0
 15 16  2  0
 15 13  1  0
 17 15  1  0
 18 17  1  0
 19 20  1  0
 18 19  1  6
 20 21  1  0
 21 22  2  0
 21 25  1  0
 23 18  1  0
 23 24  1  0
 26 23  2  0
M  END
$$$$
