ETE.pdb
     RDKit          3D

 26 25  0  0  1  0  0  0  0  0999 V2000
   18.5637  -12.5573  -15.9503 N   0  0  0  0  0  0  0  0  0  0  0  0
   19.0595  -11.3824  -16.6676 C   0  0  1  0  0  0  0  0  0  0  0  0
   17.8587  -10.6248  -17.1886 C   0  0  0  0  0  0  0  0  0  0  0  0
   16.7071  -10.5930  -16.2355 C   0  0  0  0  0  0  0  0  0  0  0  0
   15.5513   -9.9546  -16.8780 C   0  0  0  0  0  0  0  0  0  0  0  0
   14.8405  -10.5494  -17.7139 O   0  0  0  0  0  0  0  0  0  0  0  0
   19.8421  -10.5649  -15.6810 C   0  0  0  0  0  0  0  0  0  0  0  0
   19.4154  -10.4952  -14.4987 O   0  0  0  0  0  0  0  0  0  0  0  0
   15.2348   -8.6303  -16.5408 O   0  0  0  0  0  0  0  0  0  0  0  0
   23.2057  -11.0634  -14.6451 C   0  0  0  0  0  0  0  0  0  0  0  0
   23.1646   -9.6126  -15.0226 C   0  0  1  0  0  0  0  0  0  0  0  0
   23.6832   -9.5447  -16.3453 O   0  0  0  0  0  0  0  0  0  0  0  0
   21.7362   -9.1086  -15.0365 C   0  0  2  0  0  0  0  0  0  0  0  0
   21.0312   -9.8873  -16.0636 N   0  0  0  0  0  0  0  0  0  0  0  0
   21.6854   -7.6628  -15.3706 C   0  0  0  0  0  0  0  0  0  0  0  0
   21.2613   -7.3984  -16.5302 O   0  0  0  0  0  0  0  0  0  0  0  0
   22.0530   -6.6000  -14.5372 N   0  0  0  0  0  0  0  0  0  0  0  0
   21.8167   -5.2184  -14.7708 C   0  0  1  0  0  0  0  0  0  0  0  0
   20.4598   -4.8297  -15.2895 C   0  0  0  0  0  0  0  0  0  0  0  0
   20.3331   -3.3655  -15.5791 C   0  0  0  0  0  0  0  0  0  0  0  0
   18.9284   -3.0814  -16.0202 C   0  0  0  0  0  0  0  0  0  0  0  0
   18.0424   -2.7036  -15.2310 O   0  0  0  0  0  0  0  0  0  0  0  0
   22.3717   -4.2978  -13.7702 C   0  0  0  0  0  0  0  0  0  0  0  0
   22.7150   -3.0014  -14.0853 O   0  0  0  0  0  0  0  0  0  0  0  0
   18.5986   -3.2436  -17.3532 O   0  0  0  0  0  0  0  0  0  0  0  0
   22.5390   -4.6972  -12.5982 O   0  0  0  0  0  0  0  0  0  0  0  0
  2  7  1  0
  2  1  1  1
  3  2  1  0
  4  3  1  0
  5  4  1  0
  6  5  2  0
  7  8  2  0
  9  5  1  0
 11 10  1  6
 11 12  1  0
 13 11  1  0
 13 14  1  6
 14  7  1  0
 15 16  2  0
 15 13  1  0
 17 15  1  0
 18 17  1  0
 19 20  1  0
 18 19  1  1
 20 21  1  0
 21 22  2  0
 21 25  1  0
 23 18  1  0
 23 24  1  0
 26 23  2  0
M  END
$$$$
