ETE.pdb
     RDKit          3D

 26 25  0  0  1  0  0  0  0  0999 V2000
   17.4871  -11.3631  -15.4115 N   0  0  0  0  0  0  0  0  0  0  0  0
   18.7841  -11.8917  -15.8346 C   0  0  1  0  0  0  0  0  0  0  0  0
   18.5308  -13.1872  -16.5726 C   0  0  0  0  0  0  0  0  0  0  0  0
   17.2507  -13.8580  -16.1891 C   0  0  0  0  0  0  0  0  0  0  0  0
   17.1005  -15.1066  -16.9472 C   0  0  0  0  0  0  0  0  0  0  0  0
   17.5935  -16.1854  -16.5592 O   0  0  0  0  0  0  0  0  0  0  0  0
   19.4068  -10.8595  -16.7296 C   0  0  0  0  0  0  0  0  0  0  0  0
   20.1848  -11.2542  -17.6372 O   0  0  0  0  0  0  0  0  0  0  0  0
   16.3779  -15.0864  -18.1493 O   0  0  0  0  0  0  0  0  0  0  0  0
   19.4034  -10.2150  -19.3533 C   0  0  0  0  0  0  0  0  0  0  0  0
   19.0093   -8.8522  -18.8670 C   0  0  1  0  0  0  0  0  0  0  0  0
   17.6050   -8.9129  -18.6493 O   0  0  0  0  0  0  0  0  0  0  0  0
   19.6900   -8.5420  -17.5497 C   0  0  2  0  0  0  0  0  0  0  0  0
   19.1302   -9.4756  -16.5631 N   0  0  0  0  0  0  0  0  0  0  0  0
   19.4264   -7.1420  -17.1314 C   0  0  0  0  0  0  0  0  0  0  0  0
   18.2072   -6.8531  -16.9747 O   0  0  0  0  0  0  0  0  0  0  0  0
   20.3821   -6.1457  -16.9003 N   0  0  0  0  0  0  0  0  0  0  0  0
   20.1321   -4.8133  -16.4748 C   0  0  1  0  0  0  0  0  0  0  0  0
   21.0885   -4.2173  -15.4789 C   0  0  0  0  0  0  0  0  0  0  0  0
   21.3282   -5.0950  -14.2890 C   0  0  0  0  0  0  0  0  0  0  0  0
   22.2360   -4.3769  -13.3357 C   0  0  0  0  0  0  0  0  0  0  0  0
   23.4500   -4.6377  -13.2424 O   0  0  0  0  0  0  0  0  0  0  0  0
   19.6840   -3.8831  -17.5191 C   0  0  0  0  0  0  0  0  0  0  0  0
   18.8532   -2.8203  -17.2394 O   0  0  0  0  0  0  0  0  0  0  0  0
   21.7104   -3.3863  -12.5269 O   0  0  0  0  0  0  0  0  0  0  0  0
   20.0645   -4.0564  -18.6965 O   0  0  0  0  0  0  0  0  0  0  0  0
  2  7  1  0
  2  1  1  6
  3  2  1  0
  4  3  1  0
  5  4  1  0
  6  5  2  0
  7  8  2  0
  9  5  1  0
 11 10  1  1
 11 12  1  0
 13 11  1  0
 13 14  1  1
 14  7  1  0
 15 16  2  0
 15 13  1  0
 17 15  1  0
 18 17  1  0
 19 20  1  0
 18 19  1  6
 20 21  1  0
 21 22  2  0
 21 25  1  0
 23 18  1  0
 23 24  1  0
 26 23  2  0
M  END
$$$$
