ETE.pdb
     RDKit          3D

 26 25  0  0  1  0  0  0  0  0999 V2000
   18.5190  -15.0179  -16.7674 N   0  0  0  0  0  0  0  0  0  0  0  0
   17.8313  -13.7304  -16.8676 C   0  0  1  0  0  0  0  0  0  0  0  0
   17.0316  -13.5395  -15.5983 C   0  0  0  0  0  0  0  0  0  0  0  0
   15.8734  -14.4763  -15.4700 C   0  0  0  0  0  0  0  0  0  0  0  0
   15.0946  -14.1381  -14.2719 C   0  0  0  0  0  0  0  0  0  0  0  0
   14.0997  -13.3859  -14.3139 O   0  0  0  0  0  0  0  0  0  0  0  0
   18.8916  -12.6778  -17.0154 C   0  0  0  0  0  0  0  0  0  0  0  0
   20.0526  -12.9453  -16.6086 O   0  0  0  0  0  0  0  0  0  0  0  0
   15.4822  -14.6792  -13.0371 O   0  0  0  0  0  0  0  0  0  0  0  0
   20.1056  -11.3326  -20.0736 C   0  0  0  0  0  0  0  0  0  0  0  0
   19.7390  -10.1283  -19.2585 C   0  0  1  0  0  0  0  0  0  0  0  0
   18.4225   -9.7752  -19.6652 O   0  0  0  0  0  0  0  0  0  0  0  0
   19.7135  -10.4738  -17.7839 C   0  0  2  0  0  0  0  0  0  0  0  0
   18.6005  -11.4143  -17.5970 N   0  0  0  0  0  0  0  0  0  0  0  0
   19.4977   -9.2598  -16.9567 C   0  0  0  0  0  0  0  0  0  0  0  0
   18.3042   -9.0695  -16.5909 O   0  0  0  0  0  0  0  0  0  0  0  0
   20.4720   -8.3377  -16.5572 N   0  0  0  0  0  0  0  0  0  0  0  0
   20.2688   -7.1848  -15.7518 C   0  0  1  0  0  0  0  0  0  0  0  0
   21.4532   -6.6612  -14.9873 C   0  0  0  0  0  0  0  0  0  0  0  0
   21.1391   -5.4491  -14.1652 C   0  0  0  0  0  0  0  0  0  0  0  0
   22.3862   -5.0107  -13.4573 C   0  0  0  0  0  0  0  0  0  0  0  0
   22.4999   -5.0463  -12.2178 O   0  0  0  0  0  0  0  0  0  0  0  0
   19.4113   -6.1435  -16.3325 C   0  0  0  0  0  0  0  0  0  0  0  0
   18.4479   -5.4965  -15.5901 O   0  0  0  0  0  0  0  0  0  0  0  0
   23.4537   -4.5482  -14.2044 O   0  0  0  0  0  0  0  0  0  0  0  0
   19.5561   -5.8320  -17.5338 O   0  0  0  0  0  0  0  0  0  0  0  0
  2  7  1  0
  2  1  1  1
  3  2  1  0
  4  3  1  0
  5  4  1  0
  6  5  2  0
  7  8  2  0
  9  5  1  0
 11 10  1  6
 11 12  1  0
 13 11  1  0
 13 14  1  6
 14  7  1  0
 15 16  2  0
 15 13  1  0
 17 15  1  0
 18 17  1  0
 19 20  1  0
 18 19  1  6
 20 21  1  0
 21 22  2  0
 21 25  1  0
 23 18  1  0
 23 24  1  0
 26 23  2  0
M  END
$$$$
