LEL.pdb
     RDKit          3D

 26 25  0  0  1  0  0  0  0  0999 V2000
   10.7610  -12.8472  -10.2793 C   0  0  0  0  0  0  0  0  0  0  0  0
   11.5834  -12.6398  -11.5191 C   0  0  1  0  0  0  0  0  0  0  0  0
   11.0154  -11.5815  -12.4288 C   0  0  0  0  0  0  0  0  0  0  0  0
   13.0178  -12.2762  -11.1130 C   0  0  0  0  0  0  0  0  0  0  0  0
   13.7981  -12.1523  -12.4006 C   0  0  2  0  0  0  0  0  0  0  0  0
   14.1437  -13.4371  -12.9233 N   0  0  0  0  0  0  0  0  0  0  0  0
   14.9636  -11.2628  -12.2883 C   0  0  0  0  0  0  0  0  0  0  0  0
   16.0820  -11.6230  -11.8727 O   0  0  0  0  0  0  0  0  0  0  0  0
   14.8076   -9.9070  -12.6773 N   0  0  0  0  0  0  0  0  0  0  0  0
   15.9289   -8.9436  -12.6532 C   0  0  1  0  0  0  0  0  0  0  0  0
   16.2650   -8.6891  -14.0856 C   0  0  0  0  0  0  0  0  0  0  0  0
   17.4071   -7.7644  -14.2591 C   0  0  0  0  0  0  0  0  0  0  0  0
   18.6915   -8.5321  -14.0114 C   0  0  0  0  0  0  0  0  0  0  0  0
   18.7988   -9.6793  -14.4740 O   0  0  0  0  0  0  0  0  0  0  0  0
   15.4338   -7.7299  -11.9974 C   0  0  0  0  0  0  0  0  0  0  0  0
   14.3441   -7.2105  -12.3515 O   0  0  0  0  0  0  0  0  0  0  0  0
   19.7388   -7.9914  -13.2889 O   0  0  0  0  0  0  0  0  0  0  0  0
   15.1511   -6.6014   -6.6080 C   0  0  0  0  0  0  0  0  0  0  0  0
   14.8629   -6.6051   -8.0861 C   0  0  1  0  0  0  0  0  0  0  0  0
   13.5404   -5.8629   -8.3418 C   0  0  0  0  0  0  0  0  0  0  0  0
   15.8990   -5.9100   -8.8825 C   0  0  0  0  0  0  0  0  0  0  0  0
   15.6906   -5.8442  -10.3608 C   0  0  2  0  0  0  0  0  0  0  0  0
   16.1490   -7.1122  -10.9524 N   0  0  0  0  0  0  0  0  0  0  0  0
   16.2681   -4.7097  -11.0520 C   0  0  0  0  0  0  0  0  0  0  0  0
   17.3245   -4.8078  -11.7096 O   0  0  0  0  0  0  0  0  0  0  0  0
   15.6568   -3.4635  -11.0055 O   0  0  0  0  0  0  0  0  0  0  0  0
  2  1  1  1
  2  3  1  0
  4  5  1  0
  4  2  1  0
  5  6  1  1
  7  5  1  0
  8  7  2  0
  9  7  1  0
 10  9  1  0
 10 11  1  6
 11 12  1  0
 12 13  1  0
 13 14  2  0
 13 17  1  0
 15 16  2  0
 15 10  1  0
 19 18  1  1
 19 21  1  0
 20 19  1  0
 22 21  1  1
 22 23  1  0
 23 15  1  0
 24 22  1  0
 25 24  2  0
 26 24  1  0
M  END
$$$$
