LEL.pdb
     RDKit          3D

 26 25  0  0  1  0  0  0  0  0999 V2000
   29.1736  -32.7236  -18.7757 C   0  0  0  0  0  0  0  0  0  0  0  0
   29.1469  -31.4147  -18.0390 C   0  0  1  0  0  0  0  0  0  0  0  0
   30.2326  -30.4696  -18.4841 C   0  0  0  0  0  0  0  0  0  0  0  0
   27.7691  -30.7648  -18.2235 C   0  0  0  0  0  0  0  0  0  0  0  0
   27.8265  -29.4471  -17.4870 C   0  0  2  0  0  0  0  0  0  0  0  0
   28.1330  -29.6389  -16.1040 N   0  0  0  0  0  0  0  0  0  0  0  0
   26.6264  -28.6206  -17.6840 C   0  0  0  0  0  0  0  0  0  0  0  0
   26.2918  -28.1208  -18.7755 O   0  0  0  0  0  0  0  0  0  0  0  0
   25.7943  -28.3750  -16.5610 N   0  0  0  0  0  0  0  0  0  0  0  0
   24.4963  -27.6765  -16.6766 C   0  0  1  0  0  0  0  0  0  0  0  0
   23.5569  -28.4357  -15.7987 C   0  0  0  0  0  0  0  0  0  0  0  0
   22.1731  -27.9134  -15.8392 C   0  0  0  0  0  0  0  0  0  0  0  0
   21.3348  -28.6899  -14.8418 C   0  0  0  0  0  0  0  0  0  0  0  0
   21.6833  -29.8428  -14.5401 O   0  0  0  0  0  0  0  0  0  0  0  0
   24.7017  -26.3115  -16.1839 C   0  0  0  0  0  0  0  0  0  0  0  0
   25.3372  -26.1047  -15.1182 O   0  0  0  0  0  0  0  0  0  0  0  0
   20.2005  -28.1509  -14.2636 O   0  0  0  0  0  0  0  0  0  0  0  0
   26.4348  -22.4161  -19.3759 C   0  0  0  0  0  0  0  0  0  0  0  0
   26.1427  -23.2791  -18.1769 C   0  0  1  0  0  0  0  0  0  0  0  0
   27.2261  -23.0421  -17.1115 C   0  0  0  0  0  0  0  0  0  0  0  0
   24.8449  -22.9664  -17.5374 C   0  0  0  0  0  0  0  0  0  0  0  0
   24.4290  -23.8245  -16.3869 C   0  0  2  0  0  0  0  0  0  0  0  0
   24.2067  -25.1929  -16.8832 N   0  0  0  0  0  0  0  0  0  0  0  0
   23.2994  -23.3657  -15.6046 C   0  0  0  0  0  0  0  0  0  0  0  0
   23.3340  -22.2950  -14.9640 O   0  0  0  0  0  0  0  0  0  0  0  0
   22.1288  -24.1104  -15.5431 O   0  0  0  0  0  0  0  0  0  0  0  0
  2  1  1  6
  2  3  1  0
  4  5  1  0
  4  2  1  0
  5  6  1  1
  7  5  1  0
  8  7  2  0
  9  7  1  0
 10  9  1  0
 10 11  1  1
 11 12  1  0
 12 13  1  0
 13 14  2  0
 13 17  1  0
 15 16  2  0
 15 10  1  0
 19 18  1  6
 19 21  1  0
 20 19  1  0
 22 21  1  6
 22 23  1  0
 23 15  1  0
 24 22  1  0
 25 24  2  0
 26 24  1  0
M  END
$$$$
