LEL.pdb
     RDKit          3D

 26 25  0  0  1  0  0  0  0  0999 V2000
   22.5843  -14.1971  -20.8196 C   0  0  0  0  0  0  0  0  0  0  0  0
   22.0890  -13.6940  -19.4936 C   0  0  1  0  0  0  0  0  0  0  0  0
   23.2058  -13.3043  -18.5603 C   0  0  0  0  0  0  0  0  0  0  0  0
   21.1535  -12.5006  -19.7289 C   0  0  0  0  0  0  0  0  0  0  0  0
   20.6383  -12.0984  -18.3670 C   0  0  2  0  0  0  0  0  0  0  0  0
   19.6814  -13.0398  -17.8757 N   0  0  0  0  0  0  0  0  0  0  0  0
   20.1367  -10.7169  -18.3223 C   0  0  0  0  0  0  0  0  0  0  0  0
   19.5829  -10.1416  -19.2791 O   0  0  0  0  0  0  0  0  0  0  0  0
   20.2920   -9.9899  -17.1134 N   0  0  0  0  0  0  0  0  0  0  0  0
   19.6712   -8.6647  -16.9025 C   0  0  1  0  0  0  0  0  0  0  0  0
   18.5274   -8.9052  -15.9733 C   0  0  0  0  0  0  0  0  0  0  0  0
   17.7671   -7.6758  -15.6572 C   0  0  0  0  0  0  0  0  0  0  0  0
   16.6142   -8.0431  -14.7426 C   0  0  0  0  0  0  0  0  0  0  0  0
   16.7471   -7.8760  -13.5196 O   0  0  0  0  0  0  0  0  0  0  0  0
   20.6897   -7.8104  -16.2853 C   0  0  0  0  0  0  0  0  0  0  0  0
   21.5077   -8.2866  -15.4567 O   0  0  0  0  0  0  0  0  0  0  0  0
   15.4272   -8.5558  -15.2321 O   0  0  0  0  0  0  0  0  0  0  0  0
   24.5723   -4.1397  -16.3808 C   0  0  0  0  0  0  0  0  0  0  0  0
   23.2051   -3.5279  -16.5358 C   0  0  1  0  0  0  0  0  0  0  0  0
   23.2597   -2.4457  -17.6271 C   0  0  0  0  0  0  0  0  0  0  0  0
   22.1757   -4.5037  -16.9589 C   0  0  0  0  0  0  0  0  0  0  0  0
   21.8389   -5.5974  -15.9979 C   0  0  2  0  0  0  0  0  0  0  0  0
   20.7933   -6.4411  -16.6005 N   0  0  0  0  0  0  0  0  0  0  0  0
   21.4733   -5.1971  -14.6546 C   0  0  0  0  0  0  0  0  0  0  0  0
   22.3062   -4.7079  -13.8641 O   0  0  0  0  0  0  0  0  0  0  0  0
   20.1696   -5.3452  -14.1995 O   0  0  0  0  0  0  0  0  0  0  0  0
  2  1  1  6
  2  3  1  0
  4  5  1  0
  4  2  1  0
  5  6  1  6
  7  5  1  0
  8  7  2  0
  9  7  1  0
 10  9  1  0
 10 11  1  1
 11 12  1  0
 12 13  1  0
 13 14  2  0
 13 17  1  0
 15 16  2  0
 15 10  1  0
 19 18  1  6
 19 21  1  0
 20 19  1  0
 22 21  1  6
 22 23  1  0
 23 15  1  0
 24 22  1  0
 25 24  2  0
 26 24  1  0
M  END
$$$$
