LEL.pdb
     RDKit          3D

 26 25  0  0  1  0  0  0  0  0999 V2000
   17.0378  -14.6075  -17.9347 C   0  0  0  0  0  0  0  0  0  0  0  0
   18.0218  -13.4754  -18.0161 C   0  0  1  0  0  0  0  0  0  0  0  0
   18.8767  -13.5301  -19.2556 C   0  0  0  0  0  0  0  0  0  0  0  0
   17.2597  -12.1448  -17.9556 C   0  0  0  0  0  0  0  0  0  0  0  0
   18.3097  -11.0595  -17.9966 C   0  0  2  0  0  0  0  0  0  0  0  0
   19.1801  -11.1370  -16.8654 N   0  0  0  0  0  0  0  0  0  0  0  0
   17.7449   -9.7138  -18.1759 C   0  0  0  0  0  0  0  0  0  0  0  0
   16.9536   -9.4021  -19.0869 O   0  0  0  0  0  0  0  0  0  0  0  0
   18.1236   -8.7034  -17.2541 N   0  0  0  0  0  0  0  0  0  0  0  0
   17.5516   -7.3407  -17.2957 C   0  0  1  0  0  0  0  0  0  0  0  0
   17.1948   -7.0161  -15.8827 C   0  0  0  0  0  0  0  0  0  0  0  0
   16.6090   -5.6663  -15.7265 C   0  0  0  0  0  0  0  0  0  0  0  0
   16.3186   -5.4335  -14.2561 C   0  0  0  0  0  0  0  0  0  0  0  0
   16.5687   -6.3423  -13.4481 O   0  0  0  0  0  0  0  0  0  0  0  0
   18.6036   -6.4522  -17.7980 C   0  0  0  0  0  0  0  0  0  0  0  0
   19.8106   -6.6659  -17.5149 O   0  0  0  0  0  0  0  0  0  0  0  0
   15.7863   -4.2436  -13.7955 O   0  0  0  0  0  0  0  0  0  0  0  0
   20.7514   -3.7301  -22.0235 C   0  0  0  0  0  0  0  0  0  0  0  0
   19.8349   -2.9546  -21.1146 C   0  0  1  0  0  0  0  0  0  0  0  0
   18.9946   -1.9822  -21.9592 C   0  0  0  0  0  0  0  0  0  0  0  0
   18.8781   -3.8142  -20.3821 C   0  0  0  0  0  0  0  0  0  0  0  0
   19.3708   -4.4697  -19.1328 C   0  0  2  0  0  0  0  0  0  0  0  0
   18.3049   -5.3432  -18.6140 N   0  0  0  0  0  0  0  0  0  0  0  0
   19.8791   -3.5974  -18.0941 C   0  0  0  0  0  0  0  0  0  0  0  0
   19.1189   -3.0127  -17.2953 O   0  0  0  0  0  0  0  0  0  0  0  0
   21.2439   -3.3827  -17.9519 O   0  0  0  0  0  0  0  0  0  0  0  0
  2  1  1  6
  2  3  1  0
  4  5  1  0
  4  2  1  0
  5  6  1  1
  7  5  1  0
  8  7  2  0
  9  7  1  0
 10  9  1  0
 10 11  1  1
 11 12  1  0
 12 13  1  0
 13 14  2  0
 13 17  1  0
 15 16  2  0
 15 10  1  0
 19 18  1  6
 19 21  1  0
 20 19  1  0
 22 21  1  6
 22 23  1  0
 23 15  1  0
 24 22  1  0
 25 24  2  0
 26 24  1  0
M  END
$$$$
