LEL.pdb
     RDKit          3D

 26 25  0  0  1  0  0  0  0  0999 V2000
   27.0476  -20.1503   -7.9371 C   0  0  0  0  0  0  0  0  0  0  0  0
   26.0264  -20.7868   -8.8364 C   0  0  1  0  0  0  0  0  0  0  0  0
   24.6639  -20.8824   -8.2004 C   0  0  0  0  0  0  0  0  0  0  0  0
   25.9462  -19.9899  -10.1453 C   0  0  0  0  0  0  0  0  0  0  0  0
   24.9973  -20.7512  -11.0408 C   0  0  2  0  0  0  0  0  0  0  0  0
   25.4793  -22.0709  -11.3044 N   0  0  0  0  0  0  0  0  0  0  0  0
   24.6551  -20.0250  -12.2727 C   0  0  0  0  0  0  0  0  0  0  0  0
   24.2592  -18.8436  -12.3021 O   0  0  0  0  0  0  0  0  0  0  0  0
   24.7829  -20.7108  -13.5085 N   0  0  0  0  0  0  0  0  0  0  0  0
   24.4575  -20.0748  -14.8030 C   0  0  1  0  0  0  0  0  0  0  0  0
   25.4760  -20.5896  -15.7658 C   0  0  0  0  0  0  0  0  0  0  0  0
   25.8072  -22.0161  -15.5541 C   0  0  0  0  0  0  0  0  0  0  0  0
   26.7819  -22.4504  -16.6319 C   0  0  0  0  0  0  0  0  0  0  0  0
   27.9905  -22.5093  -16.3539 O   0  0  0  0  0  0  0  0  0  0  0  0
   23.1080  -20.5159  -15.1671 C   0  0  0  0  0  0  0  0  0  0  0  0
   22.5875  -21.5137  -14.6050 O   0  0  0  0  0  0  0  0  0  0  0  0
   26.3625  -22.7801  -17.9074 O   0  0  0  0  0  0  0  0  0  0  0  0
   19.0406  -18.8443  -13.2339 C   0  0  0  0  0  0  0  0  0  0  0  0
   19.7731  -17.9097  -14.1600 C   0  0  1  0  0  0  0  0  0  0  0  0
   20.1189  -16.6183  -13.4000 C   0  0  0  0  0  0  0  0  0  0  0  0
   21.0528  -18.4652  -14.6544 C   0  0  0  0  0  0  0  0  0  0  0  0
   20.9903  -19.3558  -15.8528 C   0  0  2  0  0  0  0  0  0  0  0  0
   22.3499  -19.8405  -16.1440 N   0  0  0  0  0  0  0  0  0  0  0  0
   20.3679  -18.8093  -17.0411 C   0  0  0  0  0  0  0  0  0  0  0  0
   19.1695  -19.0255  -17.3151 O   0  0  0  0  0  0  0  0  0  0  0  0
   21.0927  -18.0175  -17.9223 O   0  0  0  0  0  0  0  0  0  0  0  0
  2  1  1  1
  2  3  1  0
  4  5  1  0
  4  2  1  0
  5  6  1  6
  7  5  1  0
  8  7  2  0
  9  7  1  0
 10  9  1  0
 10 11  1  6
 11 12  1  0
 12 13  1  0
 13 14  2  0
 13 17  1  0
 15 16  2  0
 15 10  1  0
 19 18  1  1
 19 21  1  0
 20 19  1  0
 22 21  1  1
 22 23  1  0
 23 15  1  0
 24 22  1  0
 25 24  2  0
 26 24  1  0
M  END
$$$$
