LEL.pdb
     RDKit          3D

 26 25  0  0  1  0  0  0  0  0999 V2000
   27.4702  -36.6791  -15.8155 C   0  0  0  0  0  0  0  0  0  0  0  0
   26.2092  -35.9418  -16.1662 C   0  0  1  0  0  0  0  0  0  0  0  0
   25.0550  -36.8635  -16.4635 C   0  0  0  0  0  0  0  0  0  0  0  0
   25.8478  -34.9932  -15.0154 C   0  0  0  0  0  0  0  0  0  0  0  0
   24.6198  -34.2378  -15.4663 C   0  0  2  0  0  0  0  0  0  0  0  0
   24.9550  -33.2213  -16.4138 N   0  0  0  0  0  0  0  0  0  0  0  0
   23.8170  -33.7178  -14.3495 C   0  0  0  0  0  0  0  0  0  0  0  0
   23.8090  -32.5250  -13.9887 O   0  0  0  0  0  0  0  0  0  0  0  0
   22.9981  -34.6306  -13.6353 N   0  0  0  0  0  0  0  0  0  0  0  0
   22.1618  -34.2130  -12.4897 C   0  0  1  0  0  0  0  0  0  0  0  0
   20.8849  -34.9737  -12.6317 C   0  0  0  0  0  0  0  0  0  0  0  0
   19.8985  -34.6559  -11.5755 C   0  0  0  0  0  0  0  0  0  0  0  0
   18.5231  -34.5722  -12.2091 C   0  0  0  0  0  0  0  0  0  0  0  0
   17.9850  -35.6185  -12.6058 O   0  0  0  0  0  0  0  0  0  0  0  0
   22.8815  -34.6005  -11.2731 C   0  0  0  0  0  0  0  0  0  0  0  0
   23.6029  -35.6310  -11.2573 O   0  0  0  0  0  0  0  0  0  0  0  0
   17.8574  -33.3694  -12.3555 O   0  0  0  0  0  0  0  0  0  0  0  0
   25.9694  -31.2468   -8.2324 C   0  0  0  0  0  0  0  0  0  0  0  0
   25.4817  -32.5385   -8.8332 C   0  0  1  0  0  0  0  0  0  0  0  0
   26.4721  -33.6614   -8.4821 C   0  0  0  0  0  0  0  0  0  0  0  0
   24.1619  -32.9605   -8.3127 C   0  0  0  0  0  0  0  0  0  0  0  0
   23.5678  -34.2036   -8.8915 C   0  0  2  0  0  0  0  0  0  0  0  0
   22.7986  -33.8364  -10.0922 N   0  0  0  0  0  0  0  0  0  0  0  0
   22.7771  -35.0264   -7.9994 C   0  0  0  0  0  0  0  0  0  0  0  0
   21.5405  -35.1371   -8.1290 O   0  0  0  0  0  0  0  0  0  0  0  0
   23.3767  -35.7270   -6.9610 O   0  0  0  0  0  0  0  0  0  0  0  0
  2  1  1  1
  2  3  1  0
  4  5  1  0
  4  2  1  0
  5  6  1  6
  7  5  1  0
  8  7  2  0
  9  7  1  0
 10  9  1  0
 10 11  1  6
 11 12  1  0
 12 13  1  0
 13 14  2  0
 13 17  1  0
 15 16  2  0
 15 10  1  0
 19 18  1  1
 19 21  1  0
 20 19  1  0
 22 21  1  1
 22 23  1  0
 23 15  1  0
 24 22  1  0
 25 24  2  0
 26 24  1  0
M  END
$$$$
