LEL.pdb
     RDKit          3D

 26 25  0  0  1  0  0  0  0  0999 V2000
   23.1350  -16.2865  -17.8575 C   0  0  0  0  0  0  0  0  0  0  0  0
   24.3481  -16.9161  -17.2339 C   0  0  1  0  0  0  0  0  0  0  0  0
   25.6382  -16.4323  -17.8436 C   0  0  0  0  0  0  0  0  0  0  0  0
   24.3369  -16.6370  -15.7250 C   0  0  0  0  0  0  0  0  0  0  0  0
   25.3765  -17.5528  -15.1228 C   0  0  2  0  0  0  0  0  0  0  0  0
   26.1702  -18.1739  -16.1366 N   0  0  0  0  0  0  0  0  0  0  0  0
   24.8117  -18.5288  -14.1791 C   0  0  0  0  0  0  0  0  0  0  0  0
   23.8916  -18.2762  -13.3775 O   0  0  0  0  0  0  0  0  0  0  0  0
   25.3470  -19.8431  -14.1792 N   0  0  0  0  0  0  0  0  0  0  0  0
   24.8859  -20.8845  -13.2363 C   0  0  1  0  0  0  0  0  0  0  0  0
   25.3069  -22.1830  -13.8415 C   0  0  0  0  0  0  0  0  0  0  0  0
   24.8962  -23.3576  -13.0408 C   0  0  0  0  0  0  0  0  0  0  0  0
   24.4161  -24.4421  -13.9863 C   0  0  0  0  0  0  0  0  0  0  0  0
   25.2294  -25.2949  -14.3771 O   0  0  0  0  0  0  0  0  0  0  0  0
   25.5720  -20.6413  -11.9642 C   0  0  0  0  0  0  0  0  0  0  0  0
   26.6694  -20.0270  -11.9363 O   0  0  0  0  0  0  0  0  0  0  0  0
   23.1053  -24.5053  -14.4211 O   0  0  0  0  0  0  0  0  0  0  0  0
   26.6236  -19.9268   -6.9984 C   0  0  0  0  0  0  0  0  0  0  0  0
   26.6072  -18.8874   -8.0879 C   0  0  1  0  0  0  0  0  0  0  0  0
   28.0551  -18.5291   -8.4622 C   0  0  0  0  0  0  0  0  0  0  0  0
   25.9529  -19.3567   -9.3299 C   0  0  0  0  0  0  0  0  0  0  0  0
   25.7263  -20.8275   -9.4658 C   0  0  2  0  0  0  0  0  0  0  0  0
   25.0289  -21.0754  -10.7387 N   0  0  0  0  0  0  0  0  0  0  0  0
   25.0528  -21.4890   -8.3670 C   0  0  0  0  0  0  0  0  0  0  0  0
   25.6765  -21.9125   -7.3722 O   0  0  0  0  0  0  0  0  0  0  0  0
   23.6765  -21.6734   -8.3853 O   0  0  0  0  0  0  0  0  0  0  0  0
  2  1  1  6
  2  3  1  0
  4  5  1  0
  4  2  1  0
  5  6  1  6
  7  5  1  0
  8  7  2  0
  9  7  1  0
 10  9  1  0
 10 11  1  6
 11 12  1  0
 12 13  1  0
 13 14  2  0
 13 17  1  0
 15 16  2  0
 15 10  1  0
 19 18  1  1
 19 21  1  0
 20 19  1  0
 22 21  1  1
 22 23  1  0
 23 15  1  0
 24 22  1  0
 25 24  2  0
 26 24  1  0
M  END
$$$$
