LEL.pdb
     RDKit          3D

 26 25  0  0  1  0  0  0  0  0999 V2000
   28.7379  -15.7310  -16.9145 C   0  0  0  0  0  0  0  0  0  0  0  0
   27.9613  -17.0129  -17.0150 C   0  0  1  0  0  0  0  0  0  0  0  0
   28.8365  -18.2081  -17.2903 C   0  0  0  0  0  0  0  0  0  0  0  0
   27.1707  -17.2221  -15.7166 C   0  0  0  0  0  0  0  0  0  0  0  0
   26.4366  -18.5322  -15.8806 C   0  0  2  0  0  0  0  0  0  0  0  0
   25.6690  -18.5492  -17.0863 N   0  0  0  0  0  0  0  0  0  0  0  0
   25.6358  -18.8988  -14.7031 C   0  0  0  0  0  0  0  0  0  0  0  0
   25.1293  -18.0752  -13.9168 O   0  0  0  0  0  0  0  0  0  0  0  0
   25.4248  -20.2779  -14.4433 N   0  0  0  0  0  0  0  0  0  0  0  0
   24.5077  -20.7516  -13.3847 C   0  0  1  0  0  0  0  0  0  0  0  0
   23.9695  -22.0538  -13.8787 C   0  0  0  0  0  0  0  0  0  0  0  0
   22.8930  -22.5999  -13.0229 C   0  0  0  0  0  0  0  0  0  0  0  0
   21.5691  -22.0217  -13.4850 C   0  0  0  0  0  0  0  0  0  0  0  0
   21.3939  -21.8300  -14.6991 O   0  0  0  0  0  0  0  0  0  0  0  0
   25.3125  -20.9318  -12.1731 C   0  0  0  0  0  0  0  0  0  0  0  0
   26.3751  -21.6044  -12.2050 O   0  0  0  0  0  0  0  0  0  0  0  0
   20.5594  -21.7049  -12.5954 O   0  0  0  0  0  0  0  0  0  0  0  0
   27.9244  -18.4757   -8.5824 C   0  0  0  0  0  0  0  0  0  0  0  0
   27.3118  -19.5903   -9.3885 C   0  0  1  0  0  0  0  0  0  0  0  0
   28.2780  -20.7866   -9.4070 C   0  0  0  0  0  0  0  0  0  0  0  0
   26.0368  -20.0851   -8.8223 C   0  0  0  0  0  0  0  0  0  0  0  0
   25.2363  -21.0236   -9.6658 C   0  0  2  0  0  0  0  0  0  0  0  0
   24.9331  -20.3576  -10.9436 N   0  0  0  0  0  0  0  0  0  0  0  0
   24.0369  -21.5759   -9.0703 C   0  0  0  0  0  0  0  0  0  0  0  0
   22.9051  -21.3633   -9.5520 O   0  0  0  0  0  0  0  0  0  0  0  0
   24.1093  -22.3693   -7.9329 O   0  0  0  0  0  0  0  0  0  0  0  0
  2  1  1  1
  2  3  1  0
  4  5  1  0
  4  2  1  0
  5  6  1  6
  7  5  1  0
  8  7  2  0
  9  7  1  0
 10  9  1  0
 10 11  1  6
 11 12  1  0
 12 13  1  0
 13 14  2  0
 13 17  1  0
 15 16  2  0
 15 10  1  0
 19 18  1  1
 19 21  1  0
 20 19  1  0
 22 21  1  1
 22 23  1  0
 23 15  1  0
 24 22  1  0
 25 24  2  0
 26 24  1  0
M  END
$$$$
