LEL.pdb
     RDKit          3D

 26 25  0  0  1  0  0  0  0  0999 V2000
   30.5005  -20.5911  -11.5328 C   0  0  0  0  0  0  0  0  0  0  0  0
   29.1195  -21.1798  -11.5879 C   0  0  1  0  0  0  0  0  0  0  0  0
   28.7522  -21.9309  -10.3345 C   0  0  0  0  0  0  0  0  0  0  0  0
   28.1070  -20.0567  -11.8494 C   0  0  0  0  0  0  0  0  0  0  0  0
   26.7593  -20.7285  -11.9694 C   0  0  2  0  0  0  0  0  0  0  0  0
   26.8901  -22.0743  -12.4331 N   0  0  0  0  0  0  0  0  0  0  0  0
   25.7950  -19.9546  -12.7652 C   0  0  0  0  0  0  0  0  0  0  0  0
   25.4559  -18.7830  -12.5088 O   0  0  0  0  0  0  0  0  0  0  0  0
   25.2118  -20.5792  -13.8981 N   0  0  0  0  0  0  0  0  0  0  0  0
   24.2112  -19.8993  -14.7482 C   0  0  1  0  0  0  0  0  0  0  0  0
   24.7693  -19.9445  -16.1324 C   0  0  0  0  0  0  0  0  0  0  0  0
   23.9068  -19.2720  -17.1290 C   0  0  0  0  0  0  0  0  0  0  0  0
   24.5437  -19.4214  -18.4974 C   0  0  0  0  0  0  0  0  0  0  0  0
   24.1001  -20.2861  -19.2700 O   0  0  0  0  0  0  0  0  0  0  0  0
   22.9704  -20.6730  -14.6475 C   0  0  0  0  0  0  0  0  0  0  0  0
   22.9873  -21.9262  -14.7557 O   0  0  0  0  0  0  0  0  0  0  0  0
   25.5982  -18.6250  -18.9040 O   0  0  0  0  0  0  0  0  0  0  0  0
   21.9809  -20.5255   -9.5600 C   0  0  0  0  0  0  0  0  0  0  0  0
   21.0445  -20.5777  -10.7382 C   0  0  1  0  0  0  0  0  0  0  0  0
   19.9398  -19.5247  -10.5489 C   0  0  0  0  0  0  0  0  0  0  0  0
   21.7091  -20.2673  -12.0238 C   0  0  0  0  0  0  0  0  0  0  0  0
   20.8910  -20.4140  -13.2657 C   0  0  2  0  0  0  0  0  0  0  0  0
   21.7281  -20.0482  -14.4205 N   0  0  0  0  0  0  0  0  0  0  0  0
   19.6238  -19.7130  -13.2997 C   0  0  0  0  0  0  0  0  0  0  0  0
   19.5311  -18.5410  -13.7191 O   0  0  0  0  0  0  0  0  0  0  0  0
   18.4588  -20.3303  -12.8633 O   0  0  0  0  0  0  0  0  0  0  0  0
  2  1  1  1
  2  3  1  0
  4  5  1  0
  4  2  1  0
  5  6  1  6
  7  5  1  0
  8  7  2  0
  9  7  1  0
 10  9  1  0
 10 11  1  6
 11 12  1  0
 12 13  1  0
 13 14  2  0
 13 17  1  0
 15 16  2  0
 15 10  1  0
 19 18  1  1
 19 21  1  0
 20 19  1  0
 22 21  1  1
 22 23  1  0
 23 15  1  0
 24 22  1  0
 25 24  2  0
 26 24  1  0
M  END
$$$$
