LEL.pdb
     RDKit          3D

 26 25  0  0  1  0  0  0  0  0999 V2000
   31.8075  -20.7186  -11.2623 C   0  0  0  0  0  0  0  0  0  0  0  0
   30.6799  -21.3602  -12.0195 C   0  0  1  0  0  0  0  0  0  0  0  0
   30.0000  -22.4564  -11.2409 C   0  0  0  0  0  0  0  0  0  0  0  0
   29.6634  -20.2802  -12.4134 C   0  0  0  0  0  0  0  0  0  0  0  0
   28.5452  -21.0001  -13.1300 C   0  0  2  0  0  0  0  0  0  0  0  0
   29.0141  -21.6252  -14.3270 N   0  0  0  0  0  0  0  0  0  0  0  0
   27.3682  -20.1512  -13.3672 C   0  0  0  0  0  0  0  0  0  0  0  0
   26.8555  -19.4088  -12.5074 O   0  0  0  0  0  0  0  0  0  0  0  0
   26.7762  -20.1772  -14.6567 N   0  0  0  0  0  0  0  0  0  0  0  0
   25.5398  -19.4312  -14.9741 C   0  0  1  0  0  0  0  0  0  0  0  0
   25.4488  -19.4287  -16.4645 C   0  0  0  0  0  0  0  0  0  0  0  0
   24.3086  -18.6362  -16.9758 C   0  0  0  0  0  0  0  0  0  0  0  0
   24.3461  -18.6594  -18.4919 C   0  0  0  0  0  0  0  0  0  0  0  0
   23.4132  -18.1324  -19.1192 O   0  0  0  0  0  0  0  0  0  0  0  0
   24.4281  -20.1734  -14.3728 C   0  0  0  0  0  0  0  0  0  0  0  0
   24.2116  -21.3709  -14.6918 O   0  0  0  0  0  0  0  0  0  0  0  0
   25.3850  -19.2480  -19.1886 O   0  0  0  0  0  0  0  0  0  0  0  0
   24.5210  -20.1068   -9.2037 C   0  0  0  0  0  0  0  0  0  0  0  0
   24.3160  -20.4599  -10.6531 C   0  0  1  0  0  0  0  0  0  0  0  0
   24.4671  -21.9805  -10.8259 C   0  0  0  0  0  0  0  0  0  0  0  0
   22.9672  -20.1094  -11.1521 C   0  0  0  0  0  0  0  0  0  0  0  0
   22.6767  -20.3993  -12.5890 C   0  0  2  0  0  0  0  0  0  0  0  0
   23.5758  -19.5812  -13.4200 N   0  0  0  0  0  0  0  0  0  0  0  0
   21.3005  -20.2583  -13.0186 C   0  0  0  0  0  0  0  0  0  0  0  0
   20.9359  -19.3253  -13.7634 O   0  0  0  0  0  0  0  0  0  0  0  0
   20.3329  -21.1677  -12.6118 O   0  0  0  0  0  0  0  0  0  0  0  0
  2  1  1  1
  2  3  1  0
  4  5  1  0
  4  2  1  0
  5  6  1  6
  7  5  1  0
  8  7  2  0
  9  7  1  0
 10  9  1  0
 10 11  1  6
 11 12  1  0
 12 13  1  0
 13 14  2  0
 13 17  1  0
 15 16  2  0
 15 10  1  0
 19 18  1  1
 19 21  1  0
 20 19  1  0
 22 21  1  1
 22 23  1  0
 23 15  1  0
 24 22  1  0
 25 24  2  0
 26 24  1  0
M  END
$$$$
