YKD.pdb
     RDKit          3D

 30 30  0  0  1  0  0  0  0  0999 V2000
    6.9142  -10.8312   26.8596 O   0  0  0  0  0  0  0  0  0  0  0  0
    6.9502  -12.2330   26.7421 C   0  0  0  0  0  0  0  0  0  0  0  0
    5.8022  -12.9762   26.7564 C   0  0  0  0  0  0  0  0  0  0  0  0
    5.9027  -14.3543   26.6366 C   0  0  0  0  0  0  0  0  0  0  0  0
    7.1197  -14.9903   26.5044 C   0  0  0  0  0  0  0  0  0  0  0  0
    7.1529  -16.4711   26.3792 C   0  0  0  0  0  0  0  0  0  0  0  0
    6.4942  -16.8477   25.0704 C   0  0  2  0  0  0  0  0  0  0  0  0
    6.1768  -18.2518   25.1416 N   0  0  0  0  0  0  0  0  0  0  0  0
    7.3838  -16.6233   23.9152 C   0  0  0  0  0  0  0  0  0  0  0  0
    8.2233  -17.4888   23.6158 O   0  0  0  0  0  0  0  0  0  0  0  0
    8.2548  -14.2175   26.4935 C   0  0  0  0  0  0  0  0  0  0  0  0
    8.1697  -12.8484   26.6115 C   0  0  0  0  0  0  0  0  0  0  0  0
    7.2502  -15.4215   23.1814 N   0  0  0  0  0  0  0  0  0  0  0  0
    7.9943  -15.2321   21.9420 C   0  0  1  0  0  0  0  0  0  0  0  0
    7.6706  -13.8624   21.4481 C   0  0  0  0  0  0  0  0  0  0  0  0
    8.5492  -13.4826   20.3071 C   0  0  0  0  0  0  0  0  0  0  0  0
    7.7876  -13.7884   19.0174 C   0  0  0  0  0  0  0  0  0  0  0  0
    8.6876  -13.4505   17.8687 C   0  0  0  0  0  0  0  0  0  0  0  0
    8.0967  -13.8361   16.6046 N   0  0  0  0  0  0  0  0  0  0  0  0
    9.4213  -15.4932   22.2004 C   0  0  0  0  0  0  0  0  0  0  0  0
   10.0643  -14.9146   23.1290 O   0  0  0  0  0  0  0  0  0  0  0  0
   10.1144  -16.4223   21.3901 N   0  0  0  0  0  0  0  0  0  0  0  0
   11.5908  -16.4820   21.3621 C   0  0  1  0  0  0  0  0  0  0  0  0
   12.1310  -15.1363   20.9643 C   0  0  0  0  0  0  0  0  0  0  0  0
   13.5875  -15.1256   20.9230 C   0  0  0  0  0  0  0  0  0  0  0  0
   14.2775  -15.8730   20.2125 O   0  0  0  0  0  0  0  0  0  0  0  0
   12.0514  -16.9235   22.7029 C   0  0  0  0  0  0  0  0  0  0  0  0
   11.2332  -17.1165   23.6534 O   0  0  0  0  0  0  0  0  0  0  0  0
   14.2653  -14.2043   21.7446 O   0  0  0  0  0  0  0  0  0  0  0  0
   13.3730  -17.1412   22.9684 O   0  0  0  0  0  0  0  0  0  0  0  0
  2  3  2  0
  2  1  1  0
  4  3  1  0
  5  4  2  0
  6  5  1  0
  7  6  1  0
  7  8  1  1
  9 10  2  0
  9  7  1  0
 11  5  1  0
 11 12  2  0
 12  2  1  0
 13  9  1  0
 14 13  1  0
 14 15  1  1
 16 17  1  0
 16 15  1  0
 18 17  1  0
 19 18  1  0
 20 14  1  0
 20 22  1  0
 21 20  2  0
 23 22  1  0
 23 27  1  0
 23 24  1  1
 25 26  2  0
 25 24  1  0
 27 28  2  0
 27 30  1  0
 29 25  1  0
M  END
$$$$
