YKD.pdb
     RDKit          3D

 30 30  0  0  1  0  0  0  0  0999 V2000
    5.3389  -10.2477   28.3799 O   0  0  0  0  0  0  0  0  0  0  0  0
    5.9722  -11.2396   27.6083 C   0  0  0  0  0  0  0  0  0  0  0  0
    5.6725  -11.4080   26.2845 C   0  0  0  0  0  0  0  0  0  0  0  0
    6.3305  -12.4030   25.5770 C   0  0  0  0  0  0  0  0  0  0  0  0
    7.2715  -13.2207   26.1679 C   0  0  0  0  0  0  0  0  0  0  0  0
    7.9388  -14.2661   25.3487 C   0  0  0  0  0  0  0  0  0  0  0  0
    6.8691  -15.0374   24.6075 C   0  0  2  0  0  0  0  0  0  0  0  0
    6.3716  -16.0478   25.5070 N   0  0  0  0  0  0  0  0  0  0  0  0
    7.3969  -15.6998   23.3997 C   0  0  0  0  0  0  0  0  0  0  0  0
    7.6953  -16.9049   23.4471 O   0  0  0  0  0  0  0  0  0  0  0  0
    7.5511  -13.0275   27.4985 C   0  0  0  0  0  0  0  0  0  0  0  0
    6.9054  -12.0436   28.2129 C   0  0  0  0  0  0  0  0  0  0  0  0
    7.5466  -14.9353   22.2191 N   0  0  0  0  0  0  0  0  0  0  0  0
    8.1409  -15.5322   21.0290 C   0  0  1  0  0  0  0  0  0  0  0  0
    7.9622  -14.5525   19.9185 C   0  0  0  0  0  0  0  0  0  0  0  0
    8.4843  -15.0969   18.6344 C   0  0  0  0  0  0  0  0  0  0  0  0
    8.2126  -14.0561   17.5483 C   0  0  0  0  0  0  0  0  0  0  0  0
    8.6337  -14.6477   16.2381 C   0  0  0  0  0  0  0  0  0  0  0  0
    8.5626  -13.6715   15.1715 N   0  0  0  0  0  0  0  0  0  0  0  0
    9.5346  -15.9040   21.3297 C   0  0  0  0  0  0  0  0  0  0  0  0
   10.2497  -15.2604   22.1574 O   0  0  0  0  0  0  0  0  0  0  0  0
   10.1111  -17.0191   20.6784 N   0  0  0  0  0  0  0  0  0  0  0  0
   11.4324  -17.5527   21.0705 C   0  0  1  0  0  0  0  0  0  0  0  0
   11.3336  -19.0445   21.2304 C   0  0  0  0  0  0  0  0  0  0  0  0
   12.6216  -19.6429   21.5565 C   0  0  0  0  0  0  0  0  0  0  0  0
   12.8907  -20.8476   21.4304 O   0  0  0  0  0  0  0  0  0  0  0  0
   12.4128  -17.1396   20.0347 C   0  0  0  0  0  0  0  0  0  0  0  0
   13.6322  -16.9364   20.3211 O   0  0  0  0  0  0  0  0  0  0  0  0
   13.6363  -18.7999   22.0494 O   0  0  0  0  0  0  0  0  0  0  0  0
   12.0438  -16.9622   18.7321 O   0  0  0  0  0  0  0  0  0  0  0  0
  2  3  2  0
  2  1  1  0
  4  3  1  0
  5  4  2  0
  6  5  1  0
  7  6  1  0
  7  8  1  1
  9 10  2  0
  9  7  1  0
 11  5  1  0
 11 12  2  0
 12  2  1  0
 13  9  1  0
 14 13  1  0
 14 15  1  6
 16 17  1  0
 16 15  1  0
 18 17  1  0
 19 18  1  0
 20 14  1  0
 20 22  1  0
 21 20  2  0
 23 22  1  0
 23 27  1  0
 23 24  1  6
 25 26  2  0
 25 24  1  0
 27 28  2  0
 27 30  1  0
 29 25  1  0
M  END
$$$$
