YKD.pdb
     RDKit          3D

 30 30  0  0  1  0  0  0  0  0999 V2000
   17.8232  -15.8471   13.1187 O   0  0  0  0  0  0  0  0  0  0  0  0
   17.1883  -15.8239   14.3743 C   0  0  0  0  0  0  0  0  0  0  0  0
   15.9846  -16.4424   14.5725 C   0  0  0  0  0  0  0  0  0  0  0  0
   15.4088  -16.3845   15.8329 C   0  0  0  0  0  0  0  0  0  0  0  0
   16.0127  -15.7251   16.8835 C   0  0  0  0  0  0  0  0  0  0  0  0
   15.3391  -15.7044   18.2083 C   0  0  0  0  0  0  0  0  0  0  0  0
   14.1943  -14.7178   18.1390 C   0  0  2  0  0  0  0  0  0  0  0  0
   14.7717  -13.3983   18.0832 N   0  0  0  0  0  0  0  0  0  0  0  0
   13.3173  -14.7992   19.3224 C   0  0  0  0  0  0  0  0  0  0  0  0
   13.7453  -14.4187   20.4249 O   0  0  0  0  0  0  0  0  0  0  0  0
   17.2207  -15.1136   16.6538 C   0  0  0  0  0  0  0  0  0  0  0  0
   17.8037  -15.1632   15.4075 C   0  0  0  0  0  0  0  0  0  0  0  0
   12.0088  -15.3114   19.1612 N   0  0  0  0  0  0  0  0  0  0  0  0
   11.1060  -15.3904   20.3033 C   0  0  1  0  0  0  0  0  0  0  0  0
    9.7261  -15.1750   19.7796 C   0  0  0  0  0  0  0  0  0  0  0  0
    9.6623  -13.9598   18.9210 C   0  0  0  0  0  0  0  0  0  0  0  0
    8.2239  -13.8233   18.4218 C   0  0  0  0  0  0  0  0  0  0  0  0
    8.1605  -12.6075   17.5491 C   0  0  0  0  0  0  0  0  0  0  0  0
    6.8283  -12.4077   17.0191 N   0  0  0  0  0  0  0  0  0  0  0  0
   11.3293  -16.6709   20.9973 C   0  0  0  0  0  0  0  0  0  0  0  0
   11.8321  -17.6825   20.4190 O   0  0  0  0  0  0  0  0  0  0  0  0
   10.9744  -16.7920   22.3609 N   0  0  0  0  0  0  0  0  0  0  0  0
   11.7783  -17.5944   23.3065 C   0  0  1  0  0  0  0  0  0  0  0  0
   13.1862  -17.0672   23.3271 C   0  0  0  0  0  0  0  0  0  0  0  0
   13.9976  -17.7229   24.3445 C   0  0  0  0  0  0  0  0  0  0  0  0
   13.5690  -18.5557   25.1585 O   0  0  0  0  0  0  0  0  0  0  0  0
   11.1119  -17.5334   24.6321 C   0  0  0  0  0  0  0  0  0  0  0  0
   10.8558  -18.5858   25.2932 O   0  0  0  0  0  0  0  0  0  0  0  0
   15.3648  -17.3926   24.4139 O   0  0  0  0  0  0  0  0  0  0  0  0
   10.7483  -16.3436   25.1947 O   0  0  0  0  0  0  0  0  0  0  0  0
  2  3  2  0
  2  1  1  0
  4  3  1  0
  5  4  2  0
  6  5  1  0
  7  6  1  0
  7  8  1  1
  9 10  2  0
  9  7  1  0
 11  5  1  0
 11 12  2  0
 12  2  1  0
 13  9  1  0
 14 13  1  0
 14 15  1  6
 16 17  1  0
 16 15  1  0
 18 17  1  0
 19 18  1  0
 20 14  1  0
 20 22  1  0
 21 20  2  0
 23 22  1  0
 23 27  1  0
 23 24  1  1
 25 26  2  0
 25 24  1  0
 27 28  2  0
 27 30  1  0
 29 25  1  0
M  END
$$$$
