YKD.pdb
     RDKit          3D

 30 30  0  0  1  0  0  0  0  0999 V2000
    5.8187  -10.2511   28.0162 O   0  0  0  0  0  0  0  0  0  0  0  0
    6.4517  -11.3692   27.4421 C   0  0  0  0  0  0  0  0  0  0  0  0
    7.3555  -12.1137   28.1487 C   0  0  0  0  0  0  0  0  0  0  0  0
    7.9460  -13.2044   27.5280 C   0  0  0  0  0  0  0  0  0  0  0  0
    7.6485  -13.5555   26.2275 C   0  0  0  0  0  0  0  0  0  0  0  0
    8.3184  -14.7381   25.6256 C   0  0  0  0  0  0  0  0  0  0  0  0
    7.2579  -15.6009   24.9780 C   0  0  2  0  0  0  0  0  0  0  0  0
    7.0409  -16.7320   25.8447 N   0  0  0  0  0  0  0  0  0  0  0  0
    7.6762  -16.0957   23.6527 C   0  0  0  0  0  0  0  0  0  0  0  0
    7.8115  -17.3177   23.4737 O   0  0  0  0  0  0  0  0  0  0  0  0
    6.7372  -12.7890   25.5435 C   0  0  0  0  0  0  0  0  0  0  0  0
    6.1434  -11.7035   26.1475 C   0  0  0  0  0  0  0  0  0  0  0  0
    7.9108  -15.1555   22.6223 N   0  0  0  0  0  0  0  0  0  0  0  0
    8.1146  -15.6059   21.2507 C   0  0  1  0  0  0  0  0  0  0  0  0
    7.8576  -14.4319   20.3672 C   0  0  0  0  0  0  0  0  0  0  0  0
    7.9102  -14.8208   18.9305 C   0  0  0  0  0  0  0  0  0  0  0  0
    8.1708  -13.5518   18.1190 C   0  0  0  0  0  0  0  0  0  0  0  0
    8.1269  -13.9242   16.6688 C   0  0  0  0  0  0  0  0  0  0  0  0
    8.1350  -12.7499   15.8222 N   0  0  0  0  0  0  0  0  0  0  0  0
    9.4580  -16.2012   21.1411 C   0  0  0  0  0  0  0  0  0  0  0  0
    9.7593  -17.0465   20.2438 O   0  0  0  0  0  0  0  0  0  0  0  0
   10.4608  -15.8255   22.0649 N   0  0  0  0  0  0  0  0  0  0  0  0
   11.8124  -16.4224   22.0328 C   0  0  1  0  0  0  0  0  0  0  0  0
   12.8020  -15.3780   21.5963 C   0  0  0  0  0  0  0  0  0  0  0  0
   12.9802  -15.3683   20.1501 C   0  0  0  0  0  0  0  0  0  0  0  0
   12.8079  -16.3512   19.4126 O   0  0  0  0  0  0  0  0  0  0  0  0
   12.0977  -16.9697   23.3833 C   0  0  0  0  0  0  0  0  0  0  0  0
   13.2046  -17.5298   23.6502 O   0  0  0  0  0  0  0  0  0  0  0  0
   13.3754  -14.1618   19.5407 O   0  0  0  0  0  0  0  0  0  0  0  0
   11.1823  -16.8922   24.3935 O   0  0  0  0  0  0  0  0  0  0  0  0
  2  3  2  0
  2  1  1  0
  4  3  1  0
  5  4  2  0
  6  5  1  0
  7  6  1  0
  7  8  1  1
  9 10  2  0
  9  7  1  0
 11  5  1  0
 11 12  2  0
 12  2  1  0
 13  9  1  0
 14 13  1  0
 14 15  1  6
 16 17  1  0
 16 15  1  0
 18 17  1  0
 19 18  1  0
 20 14  1  0
 20 22  1  0
 21 20  2  0
 23 22  1  0
 23 27  1  0
 23 24  1  1
 25 26  2  0
 25 24  1  0
 27 28  2  0
 27 30  1  0
 29 25  1  0
M  END
$$$$
