YKD.pdb
     RDKit          3D

 30 30  0  0  1  0  0  0  0  0999 V2000
    5.9295  -10.8300   28.8251 O   0  0  0  0  0  0  0  0  0  0  0  0
    6.5062  -11.7170   27.8973 C   0  0  0  0  0  0  0  0  0  0  0  0
    6.2057  -11.6447   26.5650 C   0  0  0  0  0  0  0  0  0  0  0  0
    6.8065  -12.5469   25.6997 C   0  0  0  0  0  0  0  0  0  0  0  0
    7.6917  -13.5075   26.1433 C   0  0  0  0  0  0  0  0  0  0  0  0
    8.2995  -14.4414   25.1595 C   0  0  0  0  0  0  0  0  0  0  0  0
    7.1800  -15.1566   24.4357 C   0  0  2  0  0  0  0  0  0  0  0  0
    6.7090  -16.2032   25.3076 N   0  0  0  0  0  0  0  0  0  0  0  0
    7.6348  -15.7652   23.1712 C   0  0  0  0  0  0  0  0  0  0  0  0
    7.6160  -17.0014   23.0489 O   0  0  0  0  0  0  0  0  0  0  0  0
    7.9736  -13.5554   27.4865 C   0  0  0  0  0  0  0  0  0  0  0  0
    7.3844  -12.6659   28.3567 C   0  0  0  0  0  0  0  0  0  0  0  0
    8.0801  -14.9148   22.1323 N   0  0  0  0  0  0  0  0  0  0  0  0
    8.1176  -15.3952   20.7563 C   0  0  1  0  0  0  0  0  0  0  0  0
    7.6770  -14.2631   19.8908 C   0  0  0  0  0  0  0  0  0  0  0  0
    7.5043  -14.7038   18.4787 C   0  0  0  0  0  0  0  0  0  0  0  0
    8.0547  -13.5964   17.5799 C   0  0  0  0  0  0  0  0  0  0  0  0
    7.7919  -13.9931   16.1595 C   0  0  0  0  0  0  0  0  0  0  0  0
    8.3207  -13.0151   15.2324 N   0  0  0  0  0  0  0  0  0  0  0  0
    9.4639  -15.9236   20.4743 C   0  0  0  0  0  0  0  0  0  0  0  0
    9.9258  -16.0225   19.2964 O   0  0  0  0  0  0  0  0  0  0  0  0
   10.2844  -16.3404   21.5480 N   0  0  0  0  0  0  0  0  0  0  0  0
   11.7589  -16.3382   21.4479 C   0  0  1  0  0  0  0  0  0  0  0  0
   12.2248  -14.9604   21.0667 C   0  0  0  0  0  0  0  0  0  0  0  0
   13.3954  -15.0025   20.1999 C   0  0  0  0  0  0  0  0  0  0  0  0
   14.3395  -15.7972   20.3294 O   0  0  0  0  0  0  0  0  0  0  0  0
   12.3018  -16.7990   22.7509 C   0  0  0  0  0  0  0  0  0  0  0  0
   13.1341  -17.7543   22.8205 O   0  0  0  0  0  0  0  0  0  0  0  0
   13.4658  -14.0793   19.1388 O   0  0  0  0  0  0  0  0  0  0  0  0
   11.9293  -16.2140   23.9270 O   0  0  0  0  0  0  0  0  0  0  0  0
  2  3  2  0
  2  1  1  0
  4  3  1  0
  5  4  2  0
  6  5  1  0
  7  6  1  0
  7  8  1  1
  9 10  2  0
  9  7  1  0
 11  5  1  0
 11 12  2  0
 12  2  1  0
 13  9  1  0
 14 13  1  0
 14 15  1  6
 16 17  1  0
 16 15  1  0
 18 17  1  0
 19 18  1  0
 20 14  1  0
 20 22  1  0
 21 20  2  0
 23 22  1  0
 23 27  1  0
 23 24  1  1
 25 26  2  0
 25 24  1  0
 27 28  2  0
 27 30  1  0
 29 25  1  0
M  END
$$$$
