YKD.pdb
     RDKit          3D

 30 30  0  0  1  0  0  0  0  0999 V2000
    7.8884  -11.1088   18.2179 O   0  0  0  0  0  0  0  0  0  0  0  0
    7.9394  -12.1620   19.1498 C   0  0  0  0  0  0  0  0  0  0  0  0
    6.8022  -12.6503   19.7318 C   0  0  0  0  0  0  0  0  0  0  0  0
    6.9173  -13.6896   20.6431 C   0  0  0  0  0  0  0  0  0  0  0  0
    8.1381  -14.2393   20.9754 C   0  0  0  0  0  0  0  0  0  0  0  0
    8.1871  -15.3525   21.9592 C   0  0  0  0  0  0  0  0  0  0  0  0
    8.2248  -16.6564   21.1931 C   0  0  2  0  0  0  0  0  0  0  0  0
    6.8660  -16.9829   20.8402 N   0  0  0  0  0  0  0  0  0  0  0  0
    8.7806  -17.7596   21.9996 C   0  0  0  0  0  0  0  0  0  0  0  0
    8.0979  -18.2486   22.9152 O   0  0  0  0  0  0  0  0  0  0  0  0
    9.2621  -13.7279   20.3746 C   0  0  0  0  0  0  0  0  0  0  0  0
    9.1625  -12.6964   19.4682 C   0  0  0  0  0  0  0  0  0  0  0  0
   10.0817  -18.2274   21.7012 N   0  0  0  0  0  0  0  0  0  0  0  0
   10.6073  -19.4108   22.3711 C   0  0  1  0  0  0  0  0  0  0  0  0
   11.3780  -20.1789   21.3509 C   0  0  0  0  0  0  0  0  0  0  0  0
   10.4664  -20.9370   20.4495 C   0  0  0  0  0  0  0  0  0  0  0  0
   11.3370  -21.7587   19.4989 C   0  0  0  0  0  0  0  0  0  0  0  0
   10.4216  -22.5447   18.6112 C   0  0  0  0  0  0  0  0  0  0  0  0
   11.1646  -23.3085   17.6314 N   0  0  0  0  0  0  0  0  0  0  0  0
   11.3718  -18.9851   23.5566 C   0  0  0  0  0  0  0  0  0  0  0  0
   12.0140  -17.8912   23.5985 O   0  0  0  0  0  0  0  0  0  0  0  0
   11.4002  -19.8174   24.6996 N   0  0  0  0  0  0  0  0  0  0  0  0
   12.1066  -19.4198   25.9354 C   0  0  1  0  0  0  0  0  0  0  0  0
   11.6509  -20.2977   27.0677 C   0  0  0  0  0  0  0  0  0  0  0  0
   12.4437  -20.0872   28.2720 C   0  0  0  0  0  0  0  0  0  0  0  0
   13.4761  -20.7149   28.5544 O   0  0  0  0  0  0  0  0  0  0  0  0
   13.5651  -19.5140   25.6732 C   0  0  0  0  0  0  0  0  0  0  0  0
   14.3923  -18.7431   26.2492 O   0  0  0  0  0  0  0  0  0  0  0  0
   12.0133  -19.1035   29.1833 O   0  0  0  0  0  0  0  0  0  0  0  0
   14.0766  -20.4337   24.8032 O   0  0  0  0  0  0  0  0  0  0  0  0
  2  3  2  0
  2  1  1  0
  4  3  1  0
  5  4  2  0
  6  5  1  0
  7  6  1  0
  7  8  1  1
  9 10  2  0
  9  7  1  0
 11  5  1  0
 11 12  2  0
 12  2  1  0
 13  9  1  0
 14 13  1  0
 14 15  1  6
 16 17  1  0
 16 15  1  0
 18 17  1  0
 19 18  1  0
 20 14  1  0
 20 22  1  0
 21 20  2  0
 23 22  1  0
 23 27  1  0
 23 24  1  1
 25 26  2  0
 25 24  1  0
 27 28  2  0
 27 30  1  0
 29 25  1  0
M  END
$$$$
