YKD.pdb
     RDKit          3D

 30 30  0  0  1  0  0  0  0  0999 V2000
    5.3743  -10.3713   28.0977 O   0  0  0  0  0  0  0  0  0  0  0  0
    6.0292  -11.4578   27.4887 C   0  0  0  0  0  0  0  0  0  0  0  0
    7.0887  -12.0768   28.0927 C   0  0  0  0  0  0  0  0  0  0  0  0
    7.6928  -13.1426   27.4423 C   0  0  0  0  0  0  0  0  0  0  0  0
    7.2571  -13.5913   26.2128 C   0  0  0  0  0  0  0  0  0  0  0  0
    7.9509  -14.7402   25.5739 C   0  0  0  0  0  0  0  0  0  0  0  0
    6.9230  -15.5449   24.8094 C   0  0  2  0  0  0  0  0  0  0  0  0
    6.5606  -16.6686   25.6361 N   0  0  0  0  0  0  0  0  0  0  0  0
    7.4534  -16.0524   23.5298 C   0  0  0  0  0  0  0  0  0  0  0  0
    7.8200  -17.2368   23.4493 O   0  0  0  0  0  0  0  0  0  0  0  0
    6.1911  -12.9498   25.6314 C   0  0  0  0  0  0  0  0  0  0  0  0
    5.5820  -11.8904   26.2658 C   0  0  0  0  0  0  0  0  0  0  0  0
    7.5272  -15.1673   22.4289 N   0  0  0  0  0  0  0  0  0  0  0  0
    8.2234  -15.5668   21.2118 C   0  0  1  0  0  0  0  0  0  0  0  0
    7.9026  -14.5440   20.1746 C   0  0  0  0  0  0  0  0  0  0  0  0
    8.5241  -14.8937   18.8670 C   0  0  0  0  0  0  0  0  0  0  0  0
    8.0945  -13.8323   17.8542 C   0  0  0  0  0  0  0  0  0  0  0  0
    8.6069  -14.2537   16.5112 C   0  0  0  0  0  0  0  0  0  0  0  0
    8.2863  -13.2752   15.4936 N   0  0  0  0  0  0  0  0  0  0  0  0
    9.6551  -15.7344   21.5170 C   0  0  0  0  0  0  0  0  0  0  0  0
   10.2225  -15.1356   22.4815 O   0  0  0  0  0  0  0  0  0  0  0  0
   10.4401  -16.5928   20.7126 N   0  0  0  0  0  0  0  0  0  0  0  0
   11.8744  -16.8207   20.9863 C   0  0  1  0  0  0  0  0  0  0  0  0
   12.0181  -17.5269   22.3059 C   0  0  0  0  0  0  0  0  0  0  0  0
   13.3910  -17.4945   22.7933 C   0  0  0  0  0  0  0  0  0  0  0  0
   14.3337  -16.9401   22.2072 O   0  0  0  0  0  0  0  0  0  0  0  0
   12.4358  -17.5904   19.8473 C   0  0  0  0  0  0  0  0  0  0  0  0
   13.6599  -17.9228   19.8123 O   0  0  0  0  0  0  0  0  0  0  0  0
   13.6740  -18.1354   24.0150 O   0  0  0  0  0  0  0  0  0  0  0  0
   11.6588  -17.9732   18.7917 O   0  0  0  0  0  0  0  0  0  0  0  0
  2  3  2  0
  2  1  1  0
  4  3  1  0
  5  4  2  0
  6  5  1  0
  7  6  1  0
  7  8  1  1
  9 10  2  0
  9  7  1  0
 11  5  1  0
 11 12  2  0
 12  2  1  0
 13  9  1  0
 14 13  1  0
 14 15  1  6
 16 17  1  0
 16 15  1  0
 18 17  1  0
 19 18  1  0
 20 14  1  0
 20 22  1  0
 21 20  2  0
 23 22  1  0
 23 27  1  0
 23 24  1  1
 25 26  2  0
 25 24  1  0
 27 28  2  0
 27 30  1  0
 29 25  1  0
M  END
$$$$
