YKD.pdb
     RDKit          3D

 30 30  0  0  1  0  0  0  0  0999 V2000
    5.8011  -10.6277   28.6185 O   0  0  0  0  0  0  0  0  0  0  0  0
    6.3667  -11.5774   27.7476 C   0  0  0  0  0  0  0  0  0  0  0  0
    6.2477  -11.4555   26.3906 C   0  0  0  0  0  0  0  0  0  0  0  0
    6.8271  -12.4239   25.5843 C   0  0  0  0  0  0  0  0  0  0  0  0
    7.5147  -13.4981   26.1102 C   0  0  0  0  0  0  0  0  0  0  0  0
    8.1117  -14.4980   25.1865 C   0  0  0  0  0  0  0  0  0  0  0  0
    6.9892  -15.1509   24.4104 C   0  0  2  0  0  0  0  0  0  0  0  0
    6.5754  -16.3130   25.1560 N   0  0  0  0  0  0  0  0  0  0  0  0
    7.4190  -15.5813   23.0664 C   0  0  0  0  0  0  0  0  0  0  0  0
    7.7637  -16.7612   22.8860 O   0  0  0  0  0  0  0  0  0  0  0  0
    7.6173  -13.5934   27.4763 C   0  0  0  0  0  0  0  0  0  0  0  0
    7.0470  -12.6392   28.2886 C   0  0  0  0  0  0  0  0  0  0  0  0
    7.4242  -14.6294   22.0203 N   0  0  0  0  0  0  0  0  0  0  0  0
    8.0403  -14.9512   20.7387 C   0  0  1  0  0  0  0  0  0  0  0  0
    7.9563  -13.7221   19.8977 C   0  0  0  0  0  0  0  0  0  0  0  0
    8.6631  -13.9111   18.6004 C   0  0  0  0  0  0  0  0  0  0  0  0
    7.6831  -14.5768   17.6344 C   0  0  0  0  0  0  0  0  0  0  0  0
    8.3833  -14.7418   16.3206 C   0  0  0  0  0  0  0  0  0  0  0  0
    7.4854  -15.2488   15.3045 N   0  0  0  0  0  0  0  0  0  0  0  0
    9.4005  -15.4632   20.9810 C   0  0  0  0  0  0  0  0  0  0  0  0
   10.1811  -14.9487   21.8393 O   0  0  0  0  0  0  0  0  0  0  0  0
    9.8681  -16.5703   20.2355 N   0  0  0  0  0  0  0  0  0  0  0  0
   11.2304  -17.1133   20.4189 C   0  0  1  0  0  0  0  0  0  0  0  0
   11.1384  -18.4662   21.0683 C   0  0  0  0  0  0  0  0  0  0  0  0
   12.4421  -19.1085   21.1740 C   0  0  0  0  0  0  0  0  0  0  0  0
   12.9579  -19.8055   20.2865 O   0  0  0  0  0  0  0  0  0  0  0  0
   11.8869  -17.1475   19.0874 C   0  0  0  0  0  0  0  0  0  0  0  0
   11.2294  -17.3981   18.0315 O   0  0  0  0  0  0  0  0  0  0  0  0
   13.1728  -18.9290   22.3644 O   0  0  0  0  0  0  0  0  0  0  0  0
   13.2238  -16.9100   18.9439 O   0  0  0  0  0  0  0  0  0  0  0  0
  2  3  2  0
  2  1  1  0
  4  3  1  0
  5  4  2  0
  6  5  1  0
  7  6  1  0
  7  8  1  1
  9 10  2  0
  9  7  1  0
 11  5  1  0
 11 12  2  0
 12  2  1  0
 13  9  1  0
 14 13  1  0
 14 15  1  6
 16 17  1  0
 16 15  1  0
 18 17  1  0
 19 18  1  0
 20 14  1  0
 20 22  1  0
 21 20  2  0
 23 22  1  0
 23 27  1  0
 23 24  1  6
 25 26  2  0
 25 24  1  0
 27 28  2  0
 27 30  1  0
 29 25  1  0
M  END
$$$$
