YKD.pdb
     RDKit          3D

 30 30  0  0  1  0  0  0  0  0999 V2000
    5.4095  -10.2116   28.3552 O   0  0  0  0  0  0  0  0  0  0  0  0
    6.0663  -11.2253   27.6332 C   0  0  0  0  0  0  0  0  0  0  0  0
    6.9178  -12.0991   28.2512 C   0  0  0  0  0  0  0  0  0  0  0  0
    7.5354  -13.0769   27.4856 C   0  0  0  0  0  0  0  0  0  0  0  0
    7.3157  -13.1906   26.1284 C   0  0  0  0  0  0  0  0  0  0  0  0
    8.0105  -14.2637   25.3700 C   0  0  0  0  0  0  0  0  0  0  0  0
    6.9608  -15.1160   24.6916 C   0  0  2  0  0  0  0  0  0  0  0  0
    6.6473  -16.2000   25.5883 N   0  0  0  0  0  0  0  0  0  0  0  0
    7.4424  -15.6823   23.4174 C   0  0  0  0  0  0  0  0  0  0  0  0
    7.7974  -16.8721   23.3752 O   0  0  0  0  0  0  0  0  0  0  0  0
    6.4556  -12.2988   25.5361 C   0  0  0  0  0  0  0  0  0  0  0  0
    5.8357  -11.3232   26.2841 C   0  0  0  0  0  0  0  0  0  0  0  0
    7.4840  -14.8456   22.2777 N   0  0  0  0  0  0  0  0  0  0  0  0
    8.0585  -15.3339   21.0298 C   0  0  1  0  0  0  0  0  0  0  0  0
    7.7953  -14.2918   19.9956 C   0  0  0  0  0  0  0  0  0  0  0  0
    8.7745  -14.3872   18.8774 C   0  0  0  0  0  0  0  0  0  0  0  0
    8.0004  -14.2116   17.5709 C   0  0  0  0  0  0  0  0  0  0  0  0
    8.9798  -14.3333   16.4441 C   0  0  0  0  0  0  0  0  0  0  0  0
    8.3094  -14.3399   15.1611 N   0  0  0  0  0  0  0  0  0  0  0  0
    9.4776  -15.6599   21.2560 C   0  0  0  0  0  0  0  0  0  0  0  0
   10.1899  -15.0518   22.1124 O   0  0  0  0  0  0  0  0  0  0  0  0
   10.0827  -16.6882   20.4967 N   0  0  0  0  0  0  0  0  0  0  0  0
   11.4769  -17.1159   20.7365 C   0  0  1  0  0  0  0  0  0  0  0  0
   11.4724  -18.3583   21.5833 C   0  0  0  0  0  0  0  0  0  0  0  0
   12.8066  -18.9281   21.7199 C   0  0  0  0  0  0  0  0  0  0  0  0
   13.8216  -18.4876   21.1583 O   0  0  0  0  0  0  0  0  0  0  0  0
   12.1239  -17.3119   19.4145 C   0  0  0  0  0  0  0  0  0  0  0  0
   13.3855  -17.2769   19.2833 O   0  0  0  0  0  0  0  0  0  0  0  0
   12.9615  -20.0579   22.5462 O   0  0  0  0  0  0  0  0  0  0  0  0
   11.3891  -17.5389   18.2862 O   0  0  0  0  0  0  0  0  0  0  0  0
  2  3  2  0
  2  1  1  0
  4  3  1  0
  5  4  2  0
  6  5  1  0
  7  6  1  0
  7  8  1  1
  9 10  2  0
  9  7  1  0
 11  5  1  0
 11 12  2  0
 12  2  1  0
 13  9  1  0
 14 13  1  0
 14 15  1  6
 16 17  1  0
 16 15  1  0
 18 17  1  0
 19 18  1  0
 20 14  1  0
 20 22  1  0
 21 20  2  0
 23 22  1  0
 23 27  1  0
 23 24  1  6
 25 26  2  0
 25 24  1  0
 27 28  2  0
 27 30  1  0
 29 25  1  0
M  END
$$$$
