YKD.pdb
     RDKit          3D

 30 30  0  0  1  0  0  0  0  0999 V2000
    8.3478  -12.4837   18.0736 O   0  0  0  0  0  0  0  0  0  0  0  0
    8.3186  -13.2582   19.2482 C   0  0  0  0  0  0  0  0  0  0  0  0
    8.2522  -14.6233   19.1967 C   0  0  0  0  0  0  0  0  0  0  0  0
    8.2264  -15.3314   20.3890 C   0  0  0  0  0  0  0  0  0  0  0  0
    8.2657  -14.7009   21.6154 C   0  0  0  0  0  0  0  0  0  0  0  0
    8.2361  -15.5230   22.8534 C   0  0  0  0  0  0  0  0  0  0  0  0
    6.9104  -16.2501   22.9040 C   0  0  2  0  0  0  0  0  0  0  0  0
    5.9054  -15.2796   23.2584 N   0  0  0  0  0  0  0  0  0  0  0  0
    6.9041  -17.3256   23.9137 C   0  0  0  0  0  0  0  0  0  0  0  0
    6.8919  -17.0286   25.1200 O   0  0  0  0  0  0  0  0  0  0  0  0
    8.3322  -13.3294   21.6350 C   0  0  0  0  0  0  0  0  0  0  0  0
    8.3585  -12.6139   20.4590 C   0  0  0  0  0  0  0  0  0  0  0  0
    6.9119  -18.6692   23.4714 N   0  0  0  0  0  0  0  0  0  0  0  0
    7.0589  -19.7566   24.4314 C   0  0  1  0  0  0  0  0  0  0  0  0
    6.5968  -21.0004   23.7500 C   0  0  0  0  0  0  0  0  0  0  0  0
    5.1240  -20.9752   23.5296 C   0  0  0  0  0  0  0  0  0  0  0  0
    4.7519  -22.2410   22.7575 C   0  0  0  0  0  0  0  0  0  0  0  0
    3.2942  -22.1560   22.4235 C   0  0  0  0  0  0  0  0  0  0  0  0
    2.8701  -23.2848   21.6225 N   0  0  0  0  0  0  0  0  0  0  0  0
    8.4503  -19.7773   24.9159 C   0  0  0  0  0  0  0  0  0  0  0  0
    9.3554  -19.0353   24.4254 O   0  0  0  0  0  0  0  0  0  0  0  0
    8.8055  -20.6531   25.9680 N   0  0  0  0  0  0  0  0  0  0  0  0
   10.1253  -20.5811   26.6292 C   0  0  1  0  0  0  0  0  0  0  0  0
   10.3447  -19.1842   27.1403 C   0  0  0  0  0  0  0  0  0  0  0  0
   11.5760  -19.0745   27.9117 C   0  0  0  0  0  0  0  0  0  0  0  0
   12.7137  -19.2607   27.4527 O   0  0  0  0  0  0  0  0  0  0  0  0
   10.1503  -21.6068   27.7026 C   0  0  0  0  0  0  0  0  0  0  0  0
    9.0878  -21.9770   28.2892 O   0  0  0  0  0  0  0  0  0  0  0  0
   11.4744  -18.7332   29.2742 O   0  0  0  0  0  0  0  0  0  0  0  0
   11.3163  -22.1945   28.1019 O   0  0  0  0  0  0  0  0  0  0  0  0
  2  3  2  0
  2  1  1  0
  4  3  1  0
  5  4  2  0
  6  5  1  0
  7  6  1  0
  7  8  1  1
  9 10  2  0
  9  7  1  0
 11  5  1  0
 11 12  2  0
 12  2  1  0
 13  9  1  0
 14 13  1  0
 14 15  1  6
 16 17  1  0
 16 15  1  0
 18 17  1  0
 19 18  1  0
 20 14  1  0
 20 22  1  0
 21 20  2  0
 23 22  1  0
 23 27  1  0
 23 24  1  1
 25 26  2  0
 25 24  1  0
 27 28  2  0
 27 30  1  0
 29 25  1  0
M  END
$$$$
