YKD.pdb
     RDKit          3D

 30 30  0  0  1  0  0  0  0  0999 V2000
    5.6092  -10.1913   27.1365 O   0  0  0  0  0  0  0  0  0  0  0  0
    6.0997  -11.4796   26.8540 C   0  0  0  0  0  0  0  0  0  0  0  0
    6.2519  -12.4134   27.8417 C   0  0  0  0  0  0  0  0  0  0  0  0
    6.7401  -13.6660   27.5005 C   0  0  0  0  0  0  0  0  0  0  0  0
    7.0736  -13.9925   26.2023 C   0  0  0  0  0  0  0  0  0  0  0  0
    7.5900  -15.3550   25.9084 C   0  0  0  0  0  0  0  0  0  0  0  0
    6.7145  -15.9695   24.8386 C   0  0  2  0  0  0  0  0  0  0  0  0
    6.2015  -17.2083   25.3673 N   0  0  0  0  0  0  0  0  0  0  0  0
    7.4667  -16.2597   23.6031 C   0  0  0  0  0  0  0  0  0  0  0  0
    7.9746  -17.3830   23.4489 O   0  0  0  0  0  0  0  0  0  0  0  0
    6.9099  -13.0341   25.2326 C   0  0  0  0  0  0  0  0  0  0  0  0
    6.4263  -11.7865   25.5571 C   0  0  0  0  0  0  0  0  0  0  0  0
    7.5852  -15.2419   22.6280 N   0  0  0  0  0  0  0  0  0  0  0  0
    8.3270  -15.4880   21.3972 C   0  0  1  0  0  0  0  0  0  0  0  0
    8.1221  -14.2968   20.5232 C   0  0  0  0  0  0  0  0  0  0  0  0
    8.9307  -14.4012   19.2768 C   0  0  0  0  0  0  0  0  0  0  0  0
    8.0838  -13.8483   18.1306 C   0  0  0  0  0  0  0  0  0  0  0  0
    8.8492  -14.0571   16.8600 C   0  0  0  0  0  0  0  0  0  0  0  0
    8.0627  -13.6845   15.7032 N   0  0  0  0  0  0  0  0  0  0  0  0
    9.7278  -15.7911   21.7396 C   0  0  0  0  0  0  0  0  0  0  0  0
   10.2350  -15.4958   22.8648 O   0  0  0  0  0  0  0  0  0  0  0  0
   10.5508  -16.4359   20.7873 N   0  0  0  0  0  0  0  0  0  0  0  0
   11.9273  -16.8655   21.1112 C   0  0  1  0  0  0  0  0  0  0  0  0
   11.8694  -18.0309   22.0594 C   0  0  0  0  0  0  0  0  0  0  0  0
   12.8168  -17.8865   23.1571 C   0  0  0  0  0  0  0  0  0  0  0  0
   12.5077  -17.5766   24.3182 O   0  0  0  0  0  0  0  0  0  0  0  0
   12.6142  -17.1846   19.8341 C   0  0  0  0  0  0  0  0  0  0  0  0
   13.5617  -16.4643   19.3942 O   0  0  0  0  0  0  0  0  0  0  0  0
   14.1803  -18.1134   22.8877 O   0  0  0  0  0  0  0  0  0  0  0  0
   12.2561  -18.2659   19.0812 O   0  0  0  0  0  0  0  0  0  0  0  0
  2  3  2  0
  2  1  1  0
  4  3  1  0
  5  4  2  0
  6  5  1  0
  7  6  1  0
  7  8  1  1
  9 10  2  0
  9  7  1  0
 11  5  1  0
 11 12  2  0
 12  2  1  0
 13  9  1  0
 14 13  1  0
 14 15  1  6
 16 17  1  0
 16 15  1  0
 18 17  1  0
 19 18  1  0
 20 14  1  0
 20 22  1  0
 21 20  2  0
 23 22  1  0
 23 27  1  0
 23 24  1  1
 25 26  2  0
 25 24  1  0
 27 28  2  0
 27 30  1  0
 29 25  1  0
M  END
$$$$
