QEF.pdb
     RDKit          3D

 30 30  0  0  1  0  0  0  0  0999 V2000
   23.6550  -33.4938   -6.3290 N   0  0  0  0  0  0  0  0  0  0  0  0
   24.4688  -33.7402   -7.4741 C   0  0  0  0  0  0  0  0  0  0  0  0
   25.1525  -34.7742   -7.5035 O   0  0  0  0  0  0  0  0  0  0  0  0
   24.4420  -32.7376   -8.5545 C   0  0  0  0  0  0  0  0  0  0  0  0
   23.3850  -31.6928   -8.3417 C   0  0  0  0  0  0  0  0  0  0  0  0
   22.0524  -32.0181   -8.9566 C   0  0  2  0  0  0  0  0  0  0  0  0
   22.1413  -31.5632  -10.3470 N   0  0  0  0  0  0  0  0  0  0  0  0
   21.0035  -31.2373   -8.2355 C   0  0  0  0  0  0  0  0  0  0  0  0
   21.1018  -30.0038   -8.0378 O   0  0  0  0  0  0  0  0  0  0  0  0
   19.8238  -31.8513   -7.7273 N   0  0  0  0  0  0  0  0  0  0  0  0
   18.8183  -31.0977   -7.0475 C   0  0  1  0  0  0  0  0  0  0  0  0
   17.4300  -31.6072   -7.3338 C   0  0  0  0  0  0  0  0  0  0  0  0
   16.9903  -31.3766   -8.7437 C   0  0  0  0  0  0  0  0  0  0  0  0
   15.6036  -31.8929   -8.8849 C   0  0  0  0  0  0  0  0  0  0  0  0
   14.6055  -31.1286   -8.8552 O   0  0  0  0  0  0  0  0  0  0  0  0
   19.0724  -31.0231   -5.5719 C   0  0  0  0  0  0  0  0  0  0  0  0
   19.5957  -31.9921   -4.9667 O   0  0  0  0  0  0  0  0  0  0  0  0
   15.3411  -33.2574   -9.0582 O   0  0  0  0  0  0  0  0  0  0  0  0
   18.7437  -29.8810   -4.7954 N   0  0  0  0  0  0  0  0  0  0  0  0
   19.0639  -29.8118   -3.3595 C   0  0  1  0  0  0  0  0  0  0  0  0
   19.5727  -28.4639   -2.9834 C   0  0  0  0  0  0  0  0  0  0  0  0
   18.5729  -27.4259   -3.2519 C   0  0  0  0  0  0  0  0  0  0  0  0
   17.5622  -27.2042   -2.3410 C   0  0  0  0  0  0  0  0  0  0  0  0
   16.6417  -26.2205   -2.6255 C   0  0  0  0  0  0  0  0  0  0  0  0
   16.7152  -25.4664   -3.7893 C   0  0  0  0  0  0  0  0  0  0  0  0
   17.7249  -25.6764   -4.7156 C   0  0  0  0  0  0  0  0  0  0  0  0
   18.6424  -26.6623   -4.4244 C   0  0  0  0  0  0  0  0  0  0  0  0
   17.9241  -30.3036   -2.5800 C   0  0  0  0  0  0  0  0  0  0  0  0
   18.0688  -30.6531   -1.2190 O   0  0  0  0  0  0  0  0  0  0  0  0
   16.7614  -30.4548   -3.0273 O   0  0  0  0  0  0  0  0  0  0  0  0
  2  1  1  0
  2  3  2  0
  4  2  1  0
  5  4  1  0
  6  5  1  0
  6  7  1  6
  8  9  2  0
  8  6  1  0
 10  8  1  0
 11 10  1  0
 11 12  1  1
 13 14  1  0
 13 12  1  0
 14 18  1  0
 15 14  2  0
 16 17  2  0
 16 11  1  0
 19 16  1  0
 20 21  1  1
 20 19  1  0
 22 21  1  0
 22 23  2  0
 24 23  1  0
 25 24  2  0
 26 27  2  0
 26 25  1  0
 27 22  1  0
 28 20  1  0
 29 28  1  0
 30 28  2  0
M  END
$$$$
