QEF.pdb
     RDKit          3D

 30 30  0  0  1  0  0  0  0  0999 V2000
   29.8362  -17.8209  -15.8520 N   0  0  0  0  0  0  0  0  0  0  0  0
   28.9191  -17.3820  -16.8522 C   0  0  0  0  0  0  0  0  0  0  0  0
   29.3089  -17.3214  -18.0277 O   0  0  0  0  0  0  0  0  0  0  0  0
   27.5571  -17.0255  -16.4150 C   0  0  0  0  0  0  0  0  0  0  0  0
   27.3502  -17.2462  -14.9444 C   0  0  0  0  0  0  0  0  0  0  0  0
   27.4004  -18.6862  -14.5158 C   0  0  2  0  0  0  0  0  0  0  0  0
   26.7034  -19.4322  -15.5673 N   0  0  0  0  0  0  0  0  0  0  0  0
   26.6568  -18.8149  -13.2272 C   0  0  0  0  0  0  0  0  0  0  0  0
   26.8701  -18.0592  -12.2506 O   0  0  0  0  0  0  0  0  0  0  0  0
   25.6566  -19.8089  -13.0310 N   0  0  0  0  0  0  0  0  0  0  0  0
   24.8853  -19.8711  -11.8300 C   0  0  1  0  0  0  0  0  0  0  0  0
   23.6031  -20.6402  -12.0127 C   0  0  0  0  0  0  0  0  0  0  0  0
   22.7385  -20.6541  -10.7934 C   0  0  0  0  0  0  0  0  0  0  0  0
   21.5307  -21.4669  -11.0935 C   0  0  0  0  0  0  0  0  0  0  0  0
   20.7308  -21.8236  -10.1910 O   0  0  0  0  0  0  0  0  0  0  0  0
   25.6793  -20.4111  -10.6788 C   0  0  0  0  0  0  0  0  0  0  0  0
   26.4620  -21.3801  -10.8446 O   0  0  0  0  0  0  0  0  0  0  0  0
   21.2245  -21.8754  -12.3973 O   0  0  0  0  0  0  0  0  0  0  0  0
   25.5931  -19.8704   -9.3689 N   0  0  0  0  0  0  0  0  0  0  0  0
   26.4632  -20.3507   -8.2821 C   0  0  1  0  0  0  0  0  0  0  0  0
   27.3525  -19.2661   -7.7821 C   0  0  0  0  0  0  0  0  0  0  0  0
   27.9817  -19.6396   -6.5119 C   0  0  0  0  0  0  0  0  0  0  0  0
   27.4563  -19.1667   -5.3283 C   0  0  0  0  0  0  0  0  0  0  0  0
   28.0724  -19.5391   -4.1546 C   0  0  0  0  0  0  0  0  0  0  0  0
   29.1890  -20.3647   -4.1462 C   0  0  0  0  0  0  0  0  0  0  0  0
   29.7300  -20.8489   -5.3272 C   0  0  0  0  0  0  0  0  0  0  0  0
   29.1084  -20.4722   -6.4978 C   0  0  0  0  0  0  0  0  0  0  0  0
   25.6501  -21.0274   -7.2674 C   0  0  0  0  0  0  0  0  0  0  0  0
   26.2346  -21.9209   -6.3425 O   0  0  0  0  0  0  0  0  0  0  0  0
   24.4111  -20.8842   -7.1291 O   0  0  0  0  0  0  0  0  0  0  0  0
  2  1  1  0
  2  3  2  0
  4  2  1  0
  5  4  1  0
  6  5  1  0
  6  7  1  6
  8  9  2  0
  8  6  1  0
 10  8  1  0
 11 10  1  0
 11 12  1  6
 13 14  1  0
 13 12  1  0
 14 18  1  0
 15 14  2  0
 16 17  2  0
 16 11  1  0
 19 16  1  0
 20 21  1  1
 20 19  1  0
 22 21  1  0
 22 23  2  0
 24 23  1  0
 25 24  2  0
 26 27  2  0
 26 25  1  0
 27 22  1  0
 28 20  1  0
 29 28  1  0
 30 28  2  0
M  END
$$$$
