QEF.pdb
     RDKit          3D

 30 30  0  0  1  0  0  0  0  0999 V2000
   27.3525  -15.2598  -15.5584 N   0  0  0  0  0  0  0  0  0  0  0  0
   28.3451  -16.0351  -16.2276 C   0  0  0  0  0  0  0  0  0  0  0  0
   28.9826  -15.5103  -17.1526 O   0  0  0  0  0  0  0  0  0  0  0  0
   28.5459  -17.4220  -15.7699 C   0  0  0  0  0  0  0  0  0  0  0  0
   27.7210  -17.7520  -14.5596 C   0  0  0  0  0  0  0  0  0  0  0  0
   26.9139  -19.0146  -14.6789 C   0  0  2  0  0  0  0  0  0  0  0  0
   25.9733  -18.7756  -15.7771 N   0  0  0  0  0  0  0  0  0  0  0  0
   26.1626  -19.2096  -13.4033 C   0  0  0  0  0  0  0  0  0  0  0  0
   25.3304  -18.3739  -12.9798 O   0  0  0  0  0  0  0  0  0  0  0  0
   26.3482  -20.3623  -12.5887 N   0  0  0  0  0  0  0  0  0  0  0  0
   25.5669  -20.5850  -11.4135 C   0  0  1  0  0  0  0  0  0  0  0  0
   24.4986  -21.6256  -11.6253 C   0  0  0  0  0  0  0  0  0  0  0  0
   23.4439  -21.2063  -12.5981 C   0  0  0  0  0  0  0  0  0  0  0  0
   22.2280  -20.8343  -11.8283 C   0  0  0  0  0  0  0  0  0  0  0  0
   21.8402  -19.6415  -11.7374 O   0  0  0  0  0  0  0  0  0  0  0  0
   26.4191  -20.9201  -10.2265 C   0  0  0  0  0  0  0  0  0  0  0  0
   27.6580  -21.0836  -10.3585 O   0  0  0  0  0  0  0  0  0  0  0  0
   21.4541  -21.7953  -11.1662 O   0  0  0  0  0  0  0  0  0  0  0  0
   25.8862  -21.0677   -8.9189 N   0  0  0  0  0  0  0  0  0  0  0  0
   26.7538  -21.0361   -7.7291 C   0  0  1  0  0  0  0  0  0  0  0  0
   27.6101  -19.8180   -7.7167 C   0  0  0  0  0  0  0  0  0  0  0  0
   28.3857  -19.7278   -6.4761 C   0  0  0  0  0  0  0  0  0  0  0  0
   27.9690  -18.8769   -5.4747 C   0  0  0  0  0  0  0  0  0  0  0  0
   28.7213  -18.8189   -4.3228 C   0  0  0  0  0  0  0  0  0  0  0  0
   29.8666  -19.5870   -4.1594 C   0  0  0  0  0  0  0  0  0  0  0  0
   30.2995  -20.4476   -5.1563 C   0  0  0  0  0  0  0  0  0  0  0  0
   29.5419  -20.5005   -6.3060 C   0  0  0  0  0  0  0  0  0  0  0  0
   25.9443  -21.2588   -6.5275 C   0  0  0  0  0  0  0  0  0  0  0  0
   24.5792  -20.8976   -6.4914 O   0  0  0  0  0  0  0  0  0  0  0  0
   26.3678  -21.7695   -5.4623 O   0  0  0  0  0  0  0  0  0  0  0  0
  2  1  1  0
  2  3  2  0
  4  2  1  0
  5  4  1  0
  6  5  1  0
  6  7  1  6
  8  9  2  0
  8  6  1  0
 10  8  1  0
 11 10  1  0
 11 12  1  6
 13 14  1  0
 13 12  1  0
 14 18  1  0
 15 14  2  0
 16 17  2  0
 16 11  1  0
 19 16  1  0
 20 21  1  1
 20 19  1  0
 22 21  1  0
 22 23  2  0
 24 23  1  0
 25 24  2  0
 26 27  2  0
 26 25  1  0
 27 22  1  0
 28 20  1  0
 29 28  1  0
 30 28  2  0
M  END
$$$$
