QEF.pdb
     RDKit          3D

 30 30  0  0  1  0  0  0  0  0999 V2000
   26.1202  -26.9166  -16.0720 N   0  0  0  0  0  0  0  0  0  0  0  0
   25.0990  -26.2996  -16.8533 C   0  0  0  0  0  0  0  0  0  0  0  0
   24.5772  -26.9532  -17.7688 O   0  0  0  0  0  0  0  0  0  0  0  0
   24.7312  -24.9123  -16.5162 C   0  0  0  0  0  0  0  0  0  0  0  0
   25.5237  -24.3732  -15.3607 C   0  0  0  0  0  0  0  0  0  0  0  0
   24.7088  -23.6385  -14.3330 C   0  0  2  0  0  0  0  0  0  0  0  0
   23.7362  -22.8503  -15.0951 N   0  0  0  0  0  0  0  0  0  0  0  0
   25.6206  -22.7260  -13.5809 C   0  0  0  0  0  0  0  0  0  0  0  0
   26.6273  -23.1431  -12.9622 O   0  0  0  0  0  0  0  0  0  0  0  0
   25.3990  -21.3208  -13.5220 N   0  0  0  0  0  0  0  0  0  0  0  0
   26.2715  -20.4529  -12.7963 C   0  0  1  0  0  0  0  0  0  0  0  0
   26.0423  -19.0019  -13.1299 C   0  0  0  0  0  0  0  0  0  0  0  0
   26.2239  -18.6888  -14.5801 C   0  0  0  0  0  0  0  0  0  0  0  0
   25.4673  -17.4455  -14.8820 C   0  0  0  0  0  0  0  0  0  0  0  0
   24.7865  -16.8545  -14.0052 O   0  0  0  0  0  0  0  0  0  0  0  0
   26.1941  -20.6856  -11.3174 C   0  0  0  0  0  0  0  0  0  0  0  0
   25.0948  -20.9578  -10.7728 O   0  0  0  0  0  0  0  0  0  0  0  0
   25.4758  -16.8711  -16.1590 O   0  0  0  0  0  0  0  0  0  0  0  0
   27.3313  -20.6131  -10.4705 N   0  0  0  0  0  0  0  0  0  0  0  0
   27.2229  -20.8417   -9.0197 C   0  0  1  0  0  0  0  0  0  0  0  0
   28.5435  -20.6905   -8.3485 C   0  0  0  0  0  0  0  0  0  0  0  0
   28.3838  -20.4656   -6.9088 C   0  0  0  0  0  0  0  0  0  0  0  0
   28.5334  -21.5217   -6.0353 C   0  0  0  0  0  0  0  0  0  0  0  0
   28.3776  -21.2732   -4.6900 C   0  0  0  0  0  0  0  0  0  0  0  0
   28.0790  -20.0042   -4.2117 C   0  0  0  0  0  0  0  0  0  0  0  0
   27.9253  -18.9314   -5.0762 C   0  0  0  0  0  0  0  0  0  0  0  0
   28.0825  -19.1873   -6.4209 C   0  0  0  0  0  0  0  0  0  0  0  0
   26.1339  -20.0251   -8.4758 C   0  0  0  0  0  0  0  0  0  0  0  0
   25.1912  -20.5727   -7.5777 O   0  0  0  0  0  0  0  0  0  0  0  0
   25.9429  -18.8141   -8.7442 O   0  0  0  0  0  0  0  0  0  0  0  0
  2  1  1  0
  2  3  2  0
  4  2  1  0
  5  4  1  0
  6  5  1  0
  6  7  1  6
  8  9  2  0
  8  6  1  0
 10  8  1  0
 11 10  1  0
 11 12  1  1
 13 14  1  0
 13 12  1  0
 14 18  1  0
 15 14  2  0
 16 17  2  0
 16 11  1  0
 19 16  1  0
 20 21  1  1
 20 19  1  0
 22 21  1  0
 22 23  2  0
 24 23  1  0
 25 24  2  0
 26 27  2  0
 26 25  1  0
 27 22  1  0
 28 20  1  0
 29 28  1  0
 30 28  2  0
M  END
$$$$
