QEF.pdb
     RDKit          3D

 30 30  0  0  1  0  0  0  0  0999 V2000
   19.3740  -10.8113  -23.3673 N   0  0  0  0  0  0  0  0  0  0  0  0
   18.2042  -11.4722  -23.8455 C   0  0  0  0  0  0  0  0  0  0  0  0
   18.2660  -12.0785  -24.9254 O   0  0  0  0  0  0  0  0  0  0  0  0
   16.9890  -11.3871  -23.0152 C   0  0  0  0  0  0  0  0  0  0  0  0
   17.1982  -10.5685  -21.7741 C   0  0  0  0  0  0  0  0  0  0  0  0
   17.8854  -11.2976  -20.6534 C   0  0  2  0  0  0  0  0  0  0  0  0
   17.3856  -12.6738  -20.7171 N   0  0  0  0  0  0  0  0  0  0  0  0
   17.4702  -10.6682  -19.3645 C   0  0  0  0  0  0  0  0  0  0  0  0
   17.6184   -9.4450  -19.1362 O   0  0  0  0  0  0  0  0  0  0  0  0
   16.8785  -11.4245  -18.3134 N   0  0  0  0  0  0  0  0  0  0  0  0
   16.4504  -10.8112  -17.0962 C   0  0  1  0  0  0  0  0  0  0  0  0
   15.4132  -11.6324  -16.3757 C   0  0  0  0  0  0  0  0  0  0  0  0
   14.9545  -11.0187  -15.0922 C   0  0  0  0  0  0  0  0  0  0  0  0
   13.8922  -11.8865  -14.5196 C   0  0  0  0  0  0  0  0  0  0  0  0
   13.6736  -13.0443  -14.9592 O   0  0  0  0  0  0  0  0  0  0  0  0
   17.6029  -10.4856  -16.1945 C   0  0  0  0  0  0  0  0  0  0  0  0
   18.5646  -11.2860  -16.0769 O   0  0  0  0  0  0  0  0  0  0  0  0
   13.0823  -11.4565  -13.4613 O   0  0  0  0  0  0  0  0  0  0  0  0
   17.6701   -9.2838  -15.4417 N   0  0  0  0  0  0  0  0  0  0  0  0
   18.8704   -8.9321  -14.6641 C   0  0  1  0  0  0  0  0  0  0  0  0
   20.0937   -8.9680  -15.5122 C   0  0  0  0  0  0  0  0  0  0  0  0
   21.2739   -8.5333  -14.7591 C   0  0  0  0  0  0  0  0  0  0  0  0
   21.9764   -9.4511  -14.0076 C   0  0  0  0  0  0  0  0  0  0  0  0
   23.0803   -9.0075  -13.3144 C   0  0  0  0  0  0  0  0  0  0  0  0
   23.4866   -7.6804  -13.3603 C   0  0  0  0  0  0  0  0  0  0  0  0
   22.7917   -6.7448  -14.1109 C   0  0  0  0  0  0  0  0  0  0  0  0
   21.6881   -7.1956  -14.8020 C   0  0  0  0  0  0  0  0  0  0  0  0
   18.6338   -7.6805  -13.9387 C   0  0  0  0  0  0  0  0  0  0  0  0
   19.2117   -7.4533  -12.6700 O   0  0  0  0  0  0  0  0  0  0  0  0
   17.9261   -6.7323  -14.3569 O   0  0  0  0  0  0  0  0  0  0  0  0
  2  1  1  0
  2  3  2  0
  4  2  1  0
  5  4  1  0
  6  5  1  0
  6  7  1  1
  8  9  2  0
  8  6  1  0
 10  8  1  0
 11 10  1  0
 11 12  1  1
 13 14  1  0
 13 12  1  0
 14 18  1  0
 15 14  2  0
 16 17  2  0
 16 11  1  0
 19 16  1  0
 20 21  1  6
 20 19  1  0
 22 21  1  0
 22 23  2  0
 24 23  1  0
 25 24  2  0
 26 27  2  0
 26 25  1  0
 27 22  1  0
 28 20  1  0
 29 28  1  0
 30 28  2  0
M  END
$$$$
