QEF.pdb
     RDKit          3D

 30 30  0  0  1  0  0  0  0  0999 V2000
   30.3044  -22.4701  -14.4799 N   0  0  0  0  0  0  0  0  0  0  0  0
   29.9120  -22.2522  -15.8336 C   0  0  0  0  0  0  0  0  0  0  0  0
   30.6060  -22.7408  -16.7375 O   0  0  0  0  0  0  0  0  0  0  0  0
   28.6964  -21.4516  -16.0676 C   0  0  0  0  0  0  0  0  0  0  0  0
   27.9861  -21.1006  -14.7923 C   0  0  0  0  0  0  0  0  0  0  0  0
   26.7334  -20.2905  -14.9775 C   0  0  2  0  0  0  0  0  0  0  0  0
   27.1591  -19.0594  -15.6491 N   0  0  0  0  0  0  0  0  0  0  0  0
   26.1846  -19.9659  -13.6272 C   0  0  0  0  0  0  0  0  0  0  0  0
   26.5475  -18.9561  -12.9800 O   0  0  0  0  0  0  0  0  0  0  0  0
   25.2118  -20.7888  -12.9920 N   0  0  0  0  0  0  0  0  0  0  0  0
   24.6167  -20.4224  -11.7460 C   0  0  1  0  0  0  0  0  0  0  0  0
   23.2287  -20.9856  -11.5873 C   0  0  0  0  0  0  0  0  0  0  0  0
   22.2229  -20.3544  -12.4954 C   0  0  0  0  0  0  0  0  0  0  0  0
   20.8957  -20.9565  -12.2034 C   0  0  0  0  0  0  0  0  0  0  0  0
   20.0955  -20.4329  -11.3868 O   0  0  0  0  0  0  0  0  0  0  0  0
   25.4842  -20.7879  -10.5792 C   0  0  0  0  0  0  0  0  0  0  0  0
   26.0608  -21.9037  -10.5399 O   0  0  0  0  0  0  0  0  0  0  0  0
   20.4713  -22.1377  -12.8243 O   0  0  0  0  0  0  0  0  0  0  0  0
   25.6971  -19.9144   -9.4804 N   0  0  0  0  0  0  0  0  0  0  0  0
   26.5111  -20.3225   -8.3228 C   0  0  1  0  0  0  0  0  0  0  0  0
   27.4859  -19.2616   -7.9466 C   0  0  0  0  0  0  0  0  0  0  0  0
   28.1161  -19.5543   -6.6558 C   0  0  0  0  0  0  0  0  0  0  0  0
   27.6642  -18.9184   -5.5193 C   0  0  0  0  0  0  0  0  0  0  0  0
   28.2789  -19.2188   -4.3243 C   0  0  0  0  0  0  0  0  0  0  0  0
   29.3227  -20.1315   -4.2494 C   0  0  0  0  0  0  0  0  0  0  0  0
   29.7893  -20.7798   -5.3825 C   0  0  0  0  0  0  0  0  0  0  0  0
   29.1696  -20.4744   -6.5747 C   0  0  0  0  0  0  0  0  0  0  0  0
   25.6321  -20.7913   -7.2476 C   0  0  0  0  0  0  0  0  0  0  0  0
   26.0824  -21.7345   -6.2975 O   0  0  0  0  0  0  0  0  0  0  0  0
   24.4470  -20.4161   -7.0756 O   0  0  0  0  0  0  0  0  0  0  0  0
  2  1  1  0
  2  3  2  0
  4  2  1  0
  5  4  1  0
  6  5  1  0
  6  7  1  1
  8  9  2  0
  8  6  1  0
 10  8  1  0
 11 10  1  0
 11 12  1  1
 13 14  1  0
 13 12  1  0
 14 18  1  0
 15 14  2  0
 16 17  2  0
 16 11  1  0
 19 16  1  0
 20 21  1  1
 20 19  1  0
 22 21  1  0
 22 23  2  0
 24 23  1  0
 25 24  2  0
 26 27  2  0
 26 25  1  0
 27 22  1  0
 28 20  1  0
 29 28  1  0
 30 28  2  0
M  END
$$$$
