QEF.pdb
     RDKit          3D

 30 30  0  0  1  0  0  0  0  0999 V2000
   28.6498  -15.3651  -16.3162 N   0  0  0  0  0  0  0  0  0  0  0  0
   28.5409  -16.4336  -17.2547 C   0  0  0  0  0  0  0  0  0  0  0  0
   28.9741  -16.2596  -18.4033 O   0  0  0  0  0  0  0  0  0  0  0  0
   27.9128  -17.6838  -16.7901 C   0  0  0  0  0  0  0  0  0  0  0  0
   27.4666  -17.6045  -15.3588 C   0  0  0  0  0  0  0  0  0  0  0  0
   27.9934  -18.7031  -14.4783 C   0  0  2  0  0  0  0  0  0  0  0  0
   27.9617  -19.9145  -15.3026 N   0  0  0  0  0  0  0  0  0  0  0  0
   27.0653  -18.8563  -13.3187 C   0  0  0  0  0  0  0  0  0  0  0  0
   26.7932  -17.9076  -12.5465 O   0  0  0  0  0  0  0  0  0  0  0  0
   26.4313  -20.0957  -13.0202 N   0  0  0  0  0  0  0  0  0  0  0  0
   25.4992  -20.2224  -11.9449 C   0  0  1  0  0  0  0  0  0  0  0  0
   24.2051  -20.8578  -12.3813 C   0  0  0  0  0  0  0  0  0  0  0  0
   23.1962  -20.9676  -11.2839 C   0  0  0  0  0  0  0  0  0  0  0  0
   21.9891  -21.6395  -11.8325 C   0  0  0  0  0  0  0  0  0  0  0  0
   21.9996  -22.2098  -12.9532 O   0  0  0  0  0  0  0  0  0  0  0  0
   26.0882  -20.9477  -10.7725 C   0  0  0  0  0  0  0  0  0  0  0  0
   27.1772  -21.5641  -10.8872 O   0  0  0  0  0  0  0  0  0  0  0  0
   20.7799  -21.6701  -11.1269 O   0  0  0  0  0  0  0  0  0  0  0  0
   25.4631  -20.9774   -9.4981 N   0  0  0  0  0  0  0  0  0  0  0  0
   26.2543  -20.9930   -8.2560 C   0  0  1  0  0  0  0  0  0  0  0  0
   27.2381  -19.8757   -8.2276 C   0  0  0  0  0  0  0  0  0  0  0  0
   27.9723  -19.8478   -6.9591 C   0  0  0  0  0  0  0  0  0  0  0  0
   27.5491  -19.0126   -5.9473 C   0  0  0  0  0  0  0  0  0  0  0  0
   28.2621  -19.0135   -4.7693 C   0  0  0  0  0  0  0  0  0  0  0  0
   29.3750  -19.8245   -4.5902 C   0  0  0  0  0  0  0  0  0  0  0  0
   29.8140  -20.6701   -5.5973 C   0  0  0  0  0  0  0  0  0  0  0  0
   29.0958  -20.6639   -6.7732 C   0  0  0  0  0  0  0  0  0  0  0  0
   25.3531  -21.0786   -7.1031 C   0  0  0  0  0  0  0  0  0  0  0  0
   24.0200  -20.6186   -7.1847 O   0  0  0  0  0  0  0  0  0  0  0  0
   25.6657  -21.5482   -5.9821 O   0  0  0  0  0  0  0  0  0  0  0  0
  2  1  1  0
  2  3  2  0
  4  2  1  0
  5  4  1  0
  6  5  1  0
  6  7  1  6
  8  9  2  0
  8  6  1  0
 10  8  1  0
 11 10  1  0
 11 12  1  6
 13 14  1  0
 13 12  1  0
 14 18  1  0
 15 14  2  0
 16 17  2  0
 16 11  1  0
 19 16  1  0
 20 21  1  1
 20 19  1  0
 22 21  1  0
 22 23  2  0
 24 23  1  0
 25 24  2  0
 26 27  2  0
 26 25  1  0
 27 22  1  0
 28 20  1  0
 29 28  1  0
 30 28  2  0
M  END
$$$$
