QEF.pdb
     RDKit          3D

 30 30  0  0  1  0  0  0  0  0999 V2000
   21.9749  -15.2250  -17.8196 N   0  0  0  0  0  0  0  0  0  0  0  0
   22.2293  -14.0481  -18.5841 C   0  0  0  0  0  0  0  0  0  0  0  0
   23.3917  -13.6207  -18.6444 O   0  0  0  0  0  0  0  0  0  0  0  0
   21.0807  -13.4134  -19.2557 C   0  0  0  0  0  0  0  0  0  0  0  0
   21.0585  -11.9238  -19.0696 C   0  0  0  0  0  0  0  0  0  0  0  0
   20.6773  -11.4725  -17.6872 C   0  0  2  0  0  0  0  0  0  0  0  0
   19.3223  -11.9860  -17.4675 N   0  0  0  0  0  0  0  0  0  0  0  0
   20.6605   -9.9794  -17.6726 C   0  0  0  0  0  0  0  0  0  0  0  0
   21.6810   -9.2941  -17.9159 O   0  0  0  0  0  0  0  0  0  0  0  0
   19.4781   -9.2425  -17.3798 N   0  0  0  0  0  0  0  0  0  0  0  0
   19.4573   -7.8142  -17.4079 C   0  0  1  0  0  0  0  0  0  0  0  0
   18.0761   -7.2670  -17.6567 C   0  0  0  0  0  0  0  0  0  0  0  0
   18.0324   -5.7749  -17.7355 C   0  0  0  0  0  0  0  0  0  0  0  0
   16.6264   -5.3674  -17.9931 C   0  0  0  0  0  0  0  0  0  0  0  0
   16.2913   -4.7736  -19.0498 O   0  0  0  0  0  0  0  0  0  0  0  0
   20.0594   -7.2183  -16.1711 C   0  0  0  0  0  0  0  0  0  0  0  0
   19.6617   -7.5759  -15.0340 O   0  0  0  0  0  0  0  0  0  0  0  0
   15.6051   -5.6254  -17.0704 O   0  0  0  0  0  0  0  0  0  0  0  0
   21.0877   -6.2404  -16.2151 N   0  0  0  0  0  0  0  0  0  0  0  0
   21.6069   -5.6176  -14.9856 C   0  0  1  0  0  0  0  0  0  0  0  0
   23.0481   -5.9342  -14.7863 C   0  0  0  0  0  0  0  0  0  0  0  0
   23.2643   -7.3806  -14.6860 C   0  0  0  0  0  0  0  0  0  0  0  0
   22.7549   -8.0706  -13.6067 C   0  0  0  0  0  0  0  0  0  0  0  0
   22.9762   -9.4282  -13.5462 C   0  0  0  0  0  0  0  0  0  0  0  0
   23.6884  -10.0966  -14.5334 C   0  0  0  0  0  0  0  0  0  0  0  0
   24.2074   -9.4180  -15.6251 C   0  0  0  0  0  0  0  0  0  0  0  0
   23.9821   -8.0597  -15.6792 C   0  0  0  0  0  0  0  0  0  0  0  0
   21.2592   -4.1936  -14.9742 C   0  0  0  0  0  0  0  0  0  0  0  0
   21.3506   -3.4309  -13.7888 O   0  0  0  0  0  0  0  0  0  0  0  0
   20.8643   -3.5440  -15.9726 O   0  0  0  0  0  0  0  0  0  0  0  0
  2  1  1  0
  2  3  2  0
  4  2  1  0
  5  4  1  0
  6  5  1  0
  6  7  1  6
  8  9  2  0
  8  6  1  0
 10  8  1  0
 11 10  1  0
 11 12  1  1
 13 14  1  0
 13 12  1  0
 14 18  1  0
 15 14  2  0
 16 17  2  0
 16 11  1  0
 19 16  1  0
 20 21  1  6
 20 19  1  0
 22 21  1  0
 22 23  2  0
 24 23  1  0
 25 24  2  0
 26 27  2  0
 26 25  1  0
 27 22  1  0
 28 20  1  0
 29 28  1  0
 30 28  2  0
M  END
$$$$
