LGA.pdb
     RDKit          3D

 18 17  0  0  1  0  0  0  0  0999 V2000
    7.1096  -12.1824   20.7077 C   0  0  0  0  0  0  0  0  0  0  0  0
    7.4403  -13.6534   20.7499 C   0  0  1  0  0  0  0  0  0  0  0  0
    7.8046  -14.0680   19.3370 C   0  0  0  0  0  0  0  0  0  0  0  0
    8.5962  -13.9742   21.6343 C   0  0  0  0  0  0  0  0  0  0  0  0
    8.8223  -15.4609   21.7955 C   0  0  2  0  0  0  0  0  0  0  0  0
    7.6916  -16.0769   22.4328 N   0  0  0  0  0  0  0  0  0  0  0  0
   10.0701  -15.7487   22.5444 C   0  0  0  0  0  0  0  0  0  0  0  0
   11.1693  -15.3336   22.0998 O   0  0  0  0  0  0  0  0  0  0  0  0
   10.0826  -16.4852   23.7634 N   0  0  0  0  0  0  0  0  0  0  0  0
   11.3019  -16.7873   24.4834 C   0  0  0  0  0  0  0  0  0  0  0  0
   11.2783  -15.9852   25.7498 C   0  0  0  0  0  0  0  0  0  0  0  0
   12.2460  -16.0268   26.5555 O   0  0  0  0  0  0  0  0  0  0  0  0
    9.1455  -13.3535   27.3813 C   0  0  0  0  0  0  0  0  0  0  0  0
   10.2011  -14.4438   27.3466 C   0  0  2  0  0  0  0  0  0  0  0  0
   10.1809  -15.1579   26.0886 N   0  0  0  0  0  0  0  0  0  0  0  0
    9.9919  -15.4314   28.4320 C   0  0  0  0  0  0  0  0  0  0  0  0
   10.2251  -15.1151   29.6221 O   0  0  0  0  0  0  0  0  0  0  0  0
    9.5399  -16.7105   28.1638 O   0  0  0  0  0  0  0  0  0  0  0  0
  2  1  1  6
  3  2  1  0
  4  5  1  0
  4  2  1  0
  5  6  1  1
  7  5  1  0
  7  8  2  0
  9 10  1  0
  9  7  1  0
 10 11  1  0
 11 12  2  0
 11 15  1  0
 14 13  1  6
 15 14  1  0
 16 18  1  0
 16 14  1  0
 17 16  2  0
M  END
$$$$
