LGA.pdb
     RDKit          3D

 18 17  0  0  1  0  0  0  0  0999 V2000
    8.3241  -11.7547   26.9727 C   0  0  0  0  0  0  0  0  0  0  0  0
    7.3920  -12.8899   26.6298 C   0  0  1  0  0  0  0  0  0  0  0  0
    5.9778  -12.3515   26.7357 C   0  0  0  0  0  0  0  0  0  0  0  0
    7.5812  -13.4129   25.2471 C   0  0  0  0  0  0  0  0  0  0  0  0
    6.7177  -14.6179   24.9477 C   0  0  2  0  0  0  0  0  0  0  0  0
    6.8166  -15.5848   26.0058 N   0  0  0  0  0  0  0  0  0  0  0  0
    7.0629  -15.2301   23.6412 C   0  0  0  0  0  0  0  0  0  0  0  0
    7.1371  -14.5054   22.6178 O   0  0  0  0  0  0  0  0  0  0  0  0
    7.3186  -16.6229   23.4885 N   0  0  0  0  0  0  0  0  0  0  0  0
    7.7426  -17.2083   22.2339 C   0  0  0  0  0  0  0  0  0  0  0  0
    9.2344  -17.3446   22.2911 C   0  0  0  0  0  0  0  0  0  0  0  0
    9.8639  -17.9172   21.3619 O   0  0  0  0  0  0  0  0  0  0  0  0
   12.2104  -15.8155   23.2840 C   0  0  0  0  0  0  0  0  0  0  0  0
   11.4115  -17.0985   23.4249 C   0  0  2  0  0  0  0  0  0  0  0  0
    9.9885  -16.8418   23.3782 N   0  0  0  0  0  0  0  0  0  0  0  0
   11.7075  -17.7796   24.7079 C   0  0  0  0  0  0  0  0  0  0  0  0
   10.8008  -17.9377   25.5585 O   0  0  0  0  0  0  0  0  0  0  0  0
   12.9748  -18.2521   24.9960 O   0  0  0  0  0  0  0  0  0  0  0  0
  2  1  1  6
  3  2  1  0
  4  5  1  0
  4  2  1  0
  5  6  1  1
  7  5  1  0
  7  8  2  0
  9 10  1  0
  9  7  1  0
 10 11  1  0
 11 12  2  0
 11 15  1  0
 14 13  1  1
 15 14  1  0
 16 18  1  0
 16 14  1  0
 17 16  2  0
M  END
$$$$
