LGA.pdb
     RDKit          3D

 18 17  0  0  1  0  0  0  0  0999 V2000
    7.6068  -11.5113   26.3022 C   0  0  0  0  0  0  0  0  0  0  0  0
    6.9176  -12.8152   25.9861 C   0  0  1  0  0  0  0  0  0  0  0  0
    5.5483  -12.7636   26.6367 C   0  0  0  0  0  0  0  0  0  0  0  0
    6.7233  -13.0422   24.5260 C   0  0  0  0  0  0  0  0  0  0  0  0
    6.8818  -14.4924   24.1271 C   0  0  2  0  0  0  0  0  0  0  0  0
    6.3425  -15.3562   25.1406 N   0  0  0  0  0  0  0  0  0  0  0  0
    8.2978  -14.8327   23.8442 C   0  0  0  0  0  0  0  0  0  0  0  0
    8.9426  -14.1540   23.0065 O   0  0  0  0  0  0  0  0  0  0  0  0
    8.9729  -15.9094   24.4871 N   0  0  0  0  0  0  0  0  0  0  0  0
   10.3866  -16.1659   24.3080 C   0  0  0  0  0  0  0  0  0  0  0  0
   11.0370  -16.0167   25.6504 C   0  0  0  0  0  0  0  0  0  0  0  0
   12.2622  -16.2677   25.8029 O   0  0  0  0  0  0  0  0  0  0  0  0
   10.4832  -14.3163   28.8718 C   0  0  0  0  0  0  0  0  0  0  0  0
   10.9914  -15.4946   28.0611 C   0  0  2  0  0  0  0  0  0  0  0  0
   10.3103  -15.5926   26.7886 N   0  0  0  0  0  0  0  0  0  0  0  0
   10.7891  -16.7732   28.7833 C   0  0  0  0  0  0  0  0  0  0  0  0
    9.9379  -17.5972   28.3745 O   0  0  0  0  0  0  0  0  0  0  0  0
   11.5243  -17.0862   29.9120 O   0  0  0  0  0  0  0  0  0  0  0  0
  2  1  1  6
  3  2  1  0
  4  5  1  0
  4  2  1  0
  5  6  1  1
  7  5  1  0
  7  8  2  0
  9 10  1  0
  9  7  1  0
 10 11  1  0
 11 12  2  0
 11 15  1  0
 14 13  1  1
 15 14  1  0
 16 18  1  0
 16 14  1  0
 17 16  2  0
M  END
$$$$
