LGA.pdb
     RDKit          3D

 18 17  0  0  1  0  0  0  0  0999 V2000
    6.8635  -12.7314   20.0704 C   0  0  0  0  0  0  0  0  0  0  0  0
    7.7630  -13.9189   19.8347 C   0  0  1  0  0  0  0  0  0  0  0  0
    8.5244  -13.6520   18.5501 C   0  0  0  0  0  0  0  0  0  0  0  0
    8.7594  -14.1308   20.9226 C   0  0  0  0  0  0  0  0  0  0  0  0
    9.5924  -15.3778   20.7265 C   0  0  2  0  0  0  0  0  0  0  0  0
    8.7475  -16.5283   20.5629 N   0  0  0  0  0  0  0  0  0  0  0  0
   10.5483  -15.5810   21.8426 C   0  0  0  0  0  0  0  0  0  0  0  0
   11.3968  -14.6915   22.1014 O   0  0  0  0  0  0  0  0  0  0  0  0
   10.5508  -16.7554   22.6484 N   0  0  0  0  0  0  0  0  0  0  0  0
   11.3886  -16.8991   23.8205 C   0  0  0  0  0  0  0  0  0  0  0  0
   10.4772  -17.0986   24.9940 C   0  0  0  0  0  0  0  0  0  0  0  0
   10.9465  -17.3119   26.1438 O   0  0  0  0  0  0  0  0  0  0  0  0
    6.9171  -16.5697   25.9249 C   0  0  0  0  0  0  0  0  0  0  0  0
    8.2449  -17.2987   26.0248 C   0  0  2  0  0  0  0  0  0  0  0  0
    9.0688  -17.0562   24.8606 N   0  0  0  0  0  0  0  0  0  0  0  0
    8.0482  -18.7631   26.1441 C   0  0  0  0  0  0  0  0  0  0  0  0
    8.2319  -19.5042   25.1503 O   0  0  0  0  0  0  0  0  0  0  0  0
    7.6619  -19.3422   27.3390 O   0  0  0  0  0  0  0  0  0  0  0  0
  2  1  1  1
  3  2  1  0
  4  5  1  0
  4  2  1  0
  5  6  1  1
  7  5  1  0
  7  8  2  0
  9 10  1  0
  9  7  1  0
 10 11  1  0
 11 12  2  0
 11 15  1  0
 14 13  1  6
 15 14  1  0
 16 18  1  0
 16 14  1  0
 17 16  2  0
M  END
$$$$
