LGA.pdb
     RDKit          3D

 18 17  0  0  1  0  0  0  0  0999 V2000
    6.5268  -11.0284   26.8578 C   0  0  0  0  0  0  0  0  0  0  0  0
    6.3815  -12.4001   26.2476 C   0  0  1  0  0  0  0  0  0  0  0  0
    4.9891  -12.4758   25.6505 C   0  0  0  0  0  0  0  0  0  0  0  0
    7.3627  -12.6696   25.1587 C   0  0  0  0  0  0  0  0  0  0  0  0
    7.1683  -14.0216   24.5094 C   0  0  2  0  0  0  0  0  0  0  0  0
    6.4390  -14.9000   25.3816 N   0  0  0  0  0  0  0  0  0  0  0  0
    8.4610  -14.6302   24.1103 C   0  0  0  0  0  0  0  0  0  0  0  0
    9.2538  -13.9804   23.3840 O   0  0  0  0  0  0  0  0  0  0  0  0
    8.8536  -15.9374   24.5174 N   0  0  0  0  0  0  0  0  0  0  0  0
   10.1584  -16.4909   24.2218 C   0  0  0  0  0  0  0  0  0  0  0  0
   10.9914  -16.3456   25.4598 C   0  0  0  0  0  0  0  0  0  0  0  0
   12.1885  -16.7383   25.4791 O   0  0  0  0  0  0  0  0  0  0  0  0
   11.0628  -14.5235   28.6693 C   0  0  0  0  0  0  0  0  0  0  0  0
   11.2838  -15.7771   27.8425 C   0  0  2  0  0  0  0  0  0  0  0  0
   10.4738  -15.7683   26.6439 N   0  0  0  0  0  0  0  0  0  0  0  0
   10.9422  -16.9974   28.6117 C   0  0  0  0  0  0  0  0  0  0  0  0
    9.9812  -17.7173   28.2526 O   0  0  0  0  0  0  0  0  0  0  0  0
   11.6651  -17.3686   29.7306 O   0  0  0  0  0  0  0  0  0  0  0  0
  2  1  1  6
  3  2  1  0
  4  5  1  0
  4  2  1  0
  5  6  1  1
  7  5  1  0
  7  8  2  0
  9 10  1  0
  9  7  1  0
 10 11  1  0
 11 12  2  0
 11 15  1  0
 14 13  1  1
 15 14  1  0
 16 18  1  0
 16 14  1  0
 17 16  2  0
M  END
$$$$
