LGA.pdb
     RDKit          3D

 18 17  0  0  1  0  0  0  0  0999 V2000
    7.0128  -12.2571   21.0719 C   0  0  0  0  0  0  0  0  0  0  0  0
    7.4646  -13.6818   20.8691 C   0  0  1  0  0  0  0  0  0  0  0  0
    8.4377  -13.6782   19.7054 C   0  0  0  0  0  0  0  0  0  0  0  0
    8.1674  -14.2532   22.0527 C   0  0  0  0  0  0  0  0  0  0  0  0
    8.5211  -15.7137   21.8817 C   0  0  2  0  0  0  0  0  0  0  0  0
    7.3524  -16.4801   21.5487 N   0  0  0  0  0  0  0  0  0  0  0  0
    9.1845  -16.2632   23.0895 C   0  0  0  0  0  0  0  0  0  0  0  0
    8.5138  -16.9328   23.9141 O   0  0  0  0  0  0  0  0  0  0  0  0
   10.5679  -16.0651   23.3641 N   0  0  0  0  0  0  0  0  0  0  0  0
   11.2811  -16.8169   24.3753 C   0  0  0  0  0  0  0  0  0  0  0  0
   11.2360  -16.0119   25.6392 C   0  0  0  0  0  0  0  0  0  0  0  0
   12.1300  -16.1430   26.5173 O   0  0  0  0  0  0  0  0  0  0  0  0
    9.0695  -13.3423   27.1965 C   0  0  0  0  0  0  0  0  0  0  0  0
   10.2163  -14.3348   27.1336 C   0  0  2  0  0  0  0  0  0  0  0  0
   10.1997  -15.0825   25.8952 N   0  0  0  0  0  0  0  0  0  0  0  0
   10.1501  -15.3066   28.2510 C   0  0  0  0  0  0  0  0  0  0  0  0
   10.4848  -14.9575   29.4072 O   0  0  0  0  0  0  0  0  0  0  0  0
    9.7230  -16.6064   28.0499 O   0  0  0  0  0  0  0  0  0  0  0  0
  2  1  1  1
  3  2  1  0
  4  5  1  0
  4  2  1  0
  5  6  1  1
  7  5  1  0
  7  8  2  0
  9 10  1  0
  9  7  1  0
 10 11  1  0
 11 12  2  0
 11 15  1  0
 14 13  1  6
 15 14  1  0
 16 18  1  0
 16 14  1  0
 17 16  2  0
M  END
$$$$
