EIN.pdb
     RDKit          3D

 26 25  0  0  1  0  0  0  0  0999 V2000
   10.7245  -15.5362   14.5637 N   0  0  0  0  0  0  0  0  0  0  0  0
   10.6989  -16.3982   15.6960 C   0  0  1  0  0  0  0  0  0  0  0  0
   11.5616  -17.5958   15.6422 C   0  0  0  0  0  0  0  0  0  0  0  0
   10.8269  -18.8188   15.2162 C   0  0  0  0  0  0  0  0  0  0  0  0
   11.6127  -19.8118   14.4963 C   0  0  0  0  0  0  0  0  0  0  0  0
   11.9348  -20.9042   14.9738 O   0  0  0  0  0  0  0  0  0  0  0  0
   10.7932  -15.6610   16.9896 C   0  0  0  0  0  0  0  0  0  0  0  0
   11.8546  -15.0713   17.3095 O   0  0  0  0  0  0  0  0  0  0  0  0
   12.0649  -19.5774   13.1766 O   0  0  0  0  0  0  0  0  0  0  0  0
    6.6846  -12.6502   19.1681 C   0  0  0  0  0  0  0  0  0  0  0  0
    8.0367  -13.2122   18.6996 C   0  0  0  0  0  0  0  0  0  0  0  0
    8.6336  -14.1738   19.6431 C   0  0  2  0  0  0  0  0  0  0  0  0
    8.8822  -13.4815   20.9657 C   0  0  0  0  0  0  0  0  0  0  0  0
    9.8461  -14.9140   19.1990 C   0  0  2  0  0  0  0  0  0  0  0  0
    9.7290  -15.5674   17.9355 N   0  0  0  0  0  0  0  0  0  0  0  0
   10.4944  -15.7338   20.2600 C   0  0  0  0  0  0  0  0  0  0  0  0
   10.1955  -16.9204   20.5371 O   0  0  0  0  0  0  0  0  0  0  0  0
   14.5642  -14.5124   20.1167 N   0  0  0  0  0  0  0  0  0  0  0  0
   14.3916  -15.5466   21.0705 C   0  0  0  0  0  0  0  0  0  0  0  0
   14.9158  -16.6744   20.8119 O   0  0  0  0  0  0  0  0  0  0  0  0
   13.6343  -15.3662   22.3340 C   0  0  0  0  0  0  0  0  0  0  0  0
   12.2518  -15.9515   22.0935 C   0  0  2  0  0  0  0  0  0  0  0  0
   11.5437  -15.2044   21.0654 N   0  0  0  0  0  0  0  0  0  0  0  0
   11.4795  -15.7988   23.3414 C   0  0  0  0  0  0  0  0  0  0  0  0
   11.7255  -16.4885   24.5162 O   0  0  0  0  0  0  0  0  0  0  0  0
   10.5275  -14.9822   23.3448 O   0  0  0  0  0  0  0  0  0  0  0  0
  2  1  1  6
  3  2  1  0
  4  3  1  0
  5  4  1  0
  5  6  2  0
  7  2  1  0
  7  8  2  0
  9  5  1  0
 10 11  1  0
 11 12  1  0
 12 14  1  0
 12 13  1  1
 14 15  1  6
 15  7  1  0
 16 14  1  0
 17 16  2  0
 18 19  1  0
 19 20  2  0
 19 21  1  0
 22 21  1  1
 22 24  1  0
 22 23  1  0
 23 16  1  0
 24 25  1  0
 26 24  2  0
M  END
$$$$
