EIN.pdb
     RDKit          3D

 26 25  0  0  1  0  0  0  0  0999 V2000
    8.6081  -15.1871   20.7259 N   0  0  0  0  0  0  0  0  0  0  0  0
    8.2476  -15.9343   21.8824 C   0  0  1  0  0  0  0  0  0  0  0  0
    8.4331  -17.3981   21.8154 C   0  0  0  0  0  0  0  0  0  0  0  0
    7.7945  -18.0073   20.6162 C   0  0  0  0  0  0  0  0  0  0  0  0
    7.8684  -19.4594   20.5275 C   0  0  0  0  0  0  0  0  0  0  0  0
    6.9423  -20.2107   20.8482 O   0  0  0  0  0  0  0  0  0  0  0  0
    8.7618  -15.3320   23.1467 C   0  0  0  0  0  0  0  0  0  0  0  0
    9.9764  -15.0348   23.2615 O   0  0  0  0  0  0  0  0  0  0  0  0
    9.0336  -20.1102   20.0586 O   0  0  0  0  0  0  0  0  0  0  0  0
    6.0846  -11.6058   26.0792 C   0  0  0  0  0  0  0  0  0  0  0  0
    7.1587  -12.4547   25.3799 C   0  0  0  0  0  0  0  0  0  0  0  0
    7.6809  -13.5496   26.2163 C   0  0  2  0  0  0  0  0  0  0  0  0
    8.4546  -12.9615   27.3765 C   0  0  0  0  0  0  0  0  0  0  0  0
    8.4702  -14.6163   25.5424 C   0  0  2  0  0  0  0  0  0  0  0  0
    7.9507  -15.0542   24.2873 N   0  0  0  0  0  0  0  0  0  0  0  0
    8.9200  -15.7153   26.4413 C   0  0  0  0  0  0  0  0  0  0  0  0
    8.1840  -16.6286   26.8868 O   0  0  0  0  0  0  0  0  0  0  0  0
   12.9938  -17.2881   24.8971 N   0  0  0  0  0  0  0  0  0  0  0  0
   12.1998  -17.7739   25.9661 C   0  0  0  0  0  0  0  0  0  0  0  0
   11.4212  -18.7473   25.7211 O   0  0  0  0  0  0  0  0  0  0  0  0
   12.2406  -17.1982   27.3333 C   0  0  0  0  0  0  0  0  0  0  0  0
   10.8022  -16.8779   27.7077 C   0  0  2  0  0  0  0  0  0  0  0  0
   10.2745  -15.8092   26.8733 N   0  0  0  0  0  0  0  0  0  0  0  0
   10.8036  -16.3760   29.0951 C   0  0  0  0  0  0  0  0  0  0  0  0
   10.9735  -17.1609   30.2227 O   0  0  0  0  0  0  0  0  0  0  0  0
   10.6405  -15.1451   29.2729 O   0  0  0  0  0  0  0  0  0  0  0  0
  2  1  1  6
  3  2  1  0
  4  3  1  0
  5  4  1  0
  5  6  2  0
  7  2  1  0
  7  8  2  0
  9  5  1  0
 10 11  1  0
 11 12  1  0
 12 14  1  0
 12 13  1  1
 14 15  1  6
 15  7  1  0
 16 14  1  0
 17 16  2  0
 18 19  1  0
 19 20  2  0
 19 21  1  0
 22 21  1  6
 22 24  1  0
 22 23  1  0
 23 16  1  0
 24 25  1  0
 26 24  2  0
M  END
$$$$
