EIN.pdb
     RDKit          3D

 26 25  0  0  1  0  0  0  0  0999 V2000
    7.9419  -14.2981   20.3868 N   0  0  0  0  0  0  0  0  0  0  0  0
    7.7807  -15.3613   21.3193 C   0  0  1  0  0  0  0  0  0  0  0  0
    8.1500  -16.7149   20.8578 C   0  0  0  0  0  0  0  0  0  0  0  0
    7.5728  -17.0493   19.5267 C   0  0  0  0  0  0  0  0  0  0  0  0
    7.7501  -18.4266   19.0868 C   0  0  0  0  0  0  0  0  0  0  0  0
    7.2990  -18.8673   18.0251 O   0  0  0  0  0  0  0  0  0  0  0  0
    8.3157  -15.0332   22.6727 C   0  0  0  0  0  0  0  0  0  0  0  0
    9.5539  -15.0222   22.8814 O   0  0  0  0  0  0  0  0  0  0  0  0
    8.4658  -19.3631   19.8690 O   0  0  0  0  0  0  0  0  0  0  0  0
    5.6776  -11.5581   26.0233 C   0  0  0  0  0  0  0  0  0  0  0  0
    6.8462  -12.2588   25.3114 C   0  0  0  0  0  0  0  0  0  0  0  0
    7.2415  -13.5311   25.9407 C   0  0  2  0  0  0  0  0  0  0  0  0
    7.9643  -13.2391   27.2379 C   0  0  0  0  0  0  0  0  0  0  0  0
    8.0120  -14.4996   25.1139 C   0  0  2  0  0  0  0  0  0  0  0  0
    7.4996  -14.7175   23.7997 N   0  0  0  0  0  0  0  0  0  0  0  0
    8.4187  -15.7399   25.8310 C   0  0  0  0  0  0  0  0  0  0  0  0
    7.6477  -16.6813   26.1365 O   0  0  0  0  0  0  0  0  0  0  0  0
   13.0063  -18.7366   27.9796 N   0  0  0  0  0  0  0  0  0  0  0  0
   12.1643  -18.7218   26.8394 C   0  0  0  0  0  0  0  0  0  0  0  0
   11.8104  -19.8432   26.3589 O   0  0  0  0  0  0  0  0  0  0  0  0
   11.6916  -17.4704   26.1967 C   0  0  0  0  0  0  0  0  0  0  0  0
   10.2927  -17.2134   26.7338 C   0  0  2  0  0  0  0  0  0  0  0  0
    9.7688  -15.9513   26.2345 N   0  0  0  0  0  0  0  0  0  0  0  0
   10.3947  -17.0838   28.2000 C   0  0  0  0  0  0  0  0  0  0  0  0
   10.2787  -18.1300   29.0991 O   0  0  0  0  0  0  0  0  0  0  0  0
   10.6041  -15.9414   28.6739 O   0  0  0  0  0  0  0  0  0  0  0  0
  2  1  1  6
  3  2  1  0
  4  3  1  0
  5  4  1  0
  5  6  2  0
  7  2  1  0
  7  8  2  0
  9  5  1  0
 10 11  1  0
 11 12  1  0
 12 14  1  0
 12 13  1  1
 14 15  1  6
 15  7  1  0
 16 14  1  0
 17 16  2  0
 18 19  1  0
 19 20  2  0
 19 21  1  0
 22 21  1  6
 22 24  1  0
 22 23  1  0
 23 16  1  0
 24 25  1  0
 26 24  2  0
M  END
$$$$
