EIN.pdb
     RDKit          3D

 26 25  0  0  1  0  0  0  0  0999 V2000
    7.9849  -17.4555   16.3056 N   0  0  0  0  0  0  0  0  0  0  0  0
    9.3452  -17.5731   16.7079 C   0  0  1  0  0  0  0  0  0  0  0  0
   10.3685  -17.4088   15.6556 C   0  0  0  0  0  0  0  0  0  0  0  0
    9.8678  -17.7706   14.3009 C   0  0  0  0  0  0  0  0  0  0  0  0
   10.8084  -17.5786   13.2053 C   0  0  0  0  0  0  0  0  0  0  0  0
   10.5452  -16.9346   12.1850 O   0  0  0  0  0  0  0  0  0  0  0  0
    9.6510  -16.8093   17.9524 C   0  0  0  0  0  0  0  0  0  0  0  0
   10.8408  -16.6228   18.3078 O   0  0  0  0  0  0  0  0  0  0  0  0
   12.1094  -18.1324   13.2461 O   0  0  0  0  0  0  0  0  0  0  0  0
    6.8826  -12.3145   19.5846 C   0  0  0  0  0  0  0  0  0  0  0  0
    7.9610  -13.3667   19.2788 C   0  0  0  0  0  0  0  0  0  0  0  0
    8.0958  -14.3936   20.3268 C   0  0  2  0  0  0  0  0  0  0  0  0
    8.5203  -13.7304   21.6192 C   0  0  0  0  0  0  0  0  0  0  0  0
    8.9555  -15.5721   20.0313 C   0  0  2  0  0  0  0  0  0  0  0  0
    8.6582  -16.2490   18.8105 N   0  0  0  0  0  0  0  0  0  0  0  0
    9.1933  -16.4721   21.1938 C   0  0  0  0  0  0  0  0  0  0  0  0
    8.3499  -17.2674   21.6737 O   0  0  0  0  0  0  0  0  0  0  0  0
   13.3931  -18.1506   20.8144 N   0  0  0  0  0  0  0  0  0  0  0  0
   12.4939  -18.5270   21.8435 C   0  0  0  0  0  0  0  0  0  0  0  0
   11.8880  -19.6359   21.7142 O   0  0  0  0  0  0  0  0  0  0  0  0
   12.2364  -17.6898   23.0415 C   0  0  0  0  0  0  0  0  0  0  0  0
   10.7574  -17.3388   23.0105 C   0  0  2  0  0  0  0  0  0  0  0  0
   10.4487  -16.4933   21.8675 N   0  0  0  0  0  0  0  0  0  0  0  0
   10.4614  -16.5474   24.2201 C   0  0  0  0  0  0  0  0  0  0  0  0
   10.3133  -17.0696   25.4935 O   0  0  0  0  0  0  0  0  0  0  0  0
   10.3348  -15.3061   24.0913 O   0  0  0  0  0  0  0  0  0  0  0  0
  2  1  1  6
  3  2  1  0
  4  3  1  0
  5  4  1  0
  5  6  2  0
  7  2  1  0
  7  8  2  0
  9  5  1  0
 10 11  1  0
 11 12  1  0
 12 14  1  0
 12 13  1  1
 14 15  1  6
 15  7  1  0
 16 14  1  0
 17 16  2  0
 18 19  1  0
 19 20  2  0
 19 21  1  0
 22 21  1  1
 22 24  1  0
 22 23  1  0
 23 16  1  0
 24 25  1  0
 26 24  2  0
M  END
$$$$
