EIN.pdb
     RDKit          3D

 26 25  0  0  1  0  0  0  0  0999 V2000
   10.5345  -16.8514   15.8349 N   0  0  0  0  0  0  0  0  0  0  0  0
    9.8774  -17.4579   16.9422 C   0  0  1  0  0  0  0  0  0  0  0  0
   10.0596  -18.9140   17.1102 C   0  0  0  0  0  0  0  0  0  0  0  0
    9.3336  -19.4548   18.2923 C   0  0  0  0  0  0  0  0  0  0  0  0
    9.5782  -20.8576   18.5991 C   0  0  0  0  0  0  0  0  0  0  0  0
    9.2286  -21.7875   17.8656 O   0  0  0  0  0  0  0  0  0  0  0  0
   10.0498  -16.6918   18.2107 C   0  0  0  0  0  0  0  0  0  0  0  0
   11.1971  -16.4819   18.6759 O   0  0  0  0  0  0  0  0  0  0  0  0
   10.2458  -21.2467   19.7840 O   0  0  0  0  0  0  0  0  0  0  0  0
    6.7649  -12.3579   19.6266 C   0  0  0  0  0  0  0  0  0  0  0  0
    7.9452  -13.3067   19.3615 C   0  0  0  0  0  0  0  0  0  0  0  0
    8.1149  -14.3396   20.3986 C   0  0  2  0  0  0  0  0  0  0  0  0
    8.3286  -13.6674   21.7376 C   0  0  0  0  0  0  0  0  0  0  0  0
    9.1439  -15.3892   20.1650 C   0  0  2  0  0  0  0  0  0  0  0  0
    8.9698  -16.1547   18.9731 N   0  0  0  0  0  0  0  0  0  0  0  0
    9.4929  -16.1931   21.3692 C   0  0  0  0  0  0  0  0  0  0  0  0
    8.8433  -17.1809   21.7893 O   0  0  0  0  0  0  0  0  0  0  0  0
   13.4831  -18.2650   24.7937 N   0  0  0  0  0  0  0  0  0  0  0  0
   12.8065  -17.0289   24.9464 C   0  0  0  0  0  0  0  0  0  0  0  0
   12.5110  -16.6657   26.1273 O   0  0  0  0  0  0  0  0  0  0  0  0
   12.4351  -16.1609   23.8014 C   0  0  0  0  0  0  0  0  0  0  0  0
   11.0954  -16.6698   23.2935 C   0  0  2  0  0  0  0  0  0  0  0  0
   10.6380  -15.8829   22.1584 N   0  0  0  0  0  0  0  0  0  0  0  0
   10.1074  -16.4783   24.3724 C   0  0  0  0  0  0  0  0  0  0  0  0
    9.4353  -15.2963   24.6323 O   0  0  0  0  0  0  0  0  0  0  0  0
    9.8515  -17.4578   25.1129 O   0  0  0  0  0  0  0  0  0  0  0  0
  2  1  1  6
  3  2  1  0
  4  3  1  0
  5  4  1  0
  5  6  2  0
  7  2  1  0
  7  8  2  0
  9  5  1  0
 10 11  1  0
 11 12  1  0
 12 14  1  0
 12 13  1  1
 14 15  1  6
 15  7  1  0
 16 14  1  0
 17 16  2  0
 18 19  1  0
 19 20  2  0
 19 21  1  0
 22 21  1  1
 22 24  1  0
 22 23  1  0
 23 16  1  0
 24 25  1  0
 26 24  2  0
M  END
$$$$
