EIN.pdb
     RDKit          3D

 26 25  0  0  1  0  0  0  0  0999 V2000
   10.4377  -16.9809   15.9033 N   0  0  0  0  0  0  0  0  0  0  0  0
    9.7487  -17.4693   17.0490 C   0  0  1  0  0  0  0  0  0  0  0  0
    9.8742  -18.9123   17.3380 C   0  0  0  0  0  0  0  0  0  0  0  0
    9.7592  -19.7582   16.1181 C   0  0  0  0  0  0  0  0  0  0  0  0
    9.9285  -21.1906   16.3218 C   0  0  0  0  0  0  0  0  0  0  0  0
    9.0155  -22.0114   16.1885 O   0  0  0  0  0  0  0  0  0  0  0  0
    9.9391  -16.6081   18.2522 C   0  0  0  0  0  0  0  0  0  0  0  0
   11.0898  -16.2419   18.5965 O   0  0  0  0  0  0  0  0  0  0  0  0
   11.1782  -21.7388   16.6941 O   0  0  0  0  0  0  0  0  0  0  0  0
    6.4025  -12.5935   19.8681 C   0  0  0  0  0  0  0  0  0  0  0  0
    7.6298  -13.4521   19.5217 C   0  0  0  0  0  0  0  0  0  0  0  0
    8.0024  -14.4027   20.5841 C   0  0  2  0  0  0  0  0  0  0  0  0
    8.3308  -13.6330   21.8452 C   0  0  0  0  0  0  0  0  0  0  0  0
    9.0688  -15.3951   20.2789 C   0  0  2  0  0  0  0  0  0  0  0  0
    8.8735  -16.1464   19.0813 N   0  0  0  0  0  0  0  0  0  0  0  0
    9.5161  -16.2025   21.4478 C   0  0  0  0  0  0  0  0  0  0  0  0
    8.9198  -17.2104   21.8979 O   0  0  0  0  0  0  0  0  0  0  0  0
   13.0377  -17.5011   21.5070 N   0  0  0  0  0  0  0  0  0  0  0  0
   13.5047  -16.6764   22.5610 C   0  0  0  0  0  0  0  0  0  0  0  0
   14.7358  -16.3630   22.5571 O   0  0  0  0  0  0  0  0  0  0  0  0
   12.6279  -16.1772   23.6494 C   0  0  0  0  0  0  0  0  0  0  0  0
   11.2159  -16.6203   23.3009 C   0  0  2  0  0  0  0  0  0  0  0  0
   10.7031  -15.8721   22.1635 N   0  0  0  0  0  0  0  0  0  0  0  0
   10.3502  -16.2967   24.4510 C   0  0  0  0  0  0  0  0  0  0  0  0
   10.2757  -17.0340   25.6203 O   0  0  0  0  0  0  0  0  0  0  0  0
    9.6255  -15.2762   24.3698 O   0  0  0  0  0  0  0  0  0  0  0  0
  2  1  1  6
  3  2  1  0
  4  3  1  0
  5  4  1  0
  5  6  2  0
  7  2  1  0
  7  8  2  0
  9  5  1  0
 10 11  1  0
 11 12  1  0
 12 14  1  0
 12 13  1  1
 14 15  1  6
 15  7  1  0
 16 14  1  0
 17 16  2  0
 18 19  1  0
 19 20  2  0
 19 21  1  0
 22 21  1  1
 22 24  1  0
 22 23  1  0
 23 16  1  0
 24 25  1  0
 26 24  2  0
M  END
$$$$
