VMV.pdb
     RDKit          3D

 23 22  0  0  1  0  0  0  0  0999 V2000
   23.8102  -20.4024  -10.6508 C   0  0  0  0  0  0  0  0  0  0  0  0
   24.8135  -19.8321  -11.5965 C   0  0  2  0  0  0  0  0  0  0  0  0
   24.1251  -19.3394  -12.8723 C   0  0  0  0  0  0  0  0  0  0  0  0
   25.8597  -20.8325  -12.0390 C   0  0  2  0  0  0  0  0  0  0  0  0
   25.2590  -21.9530  -12.7297 N   0  0  0  0  0  0  0  0  0  0  0  0
   26.6787  -21.3461  -10.9326 C   0  0  0  0  0  0  0  0  0  0  0  0
   26.2999  -22.3181  -10.2230 O   0  0  0  0  0  0  0  0  0  0  0  0
   32.7585  -21.8836   -8.7239 C   0  0  0  0  0  0  0  0  0  0  0  0
   32.2539  -22.5893  -10.3204 S   0  0  0  0  0  0  0  0  0  0  0  0
   30.6292  -21.9828  -10.8258 C   0  0  0  0  0  0  0  0  0  0  0  0
   30.1909  -20.9039   -9.8401 C   0  0  0  0  0  0  0  0  0  0  0  0
   28.7223  -21.1263   -9.4717 C   0  0  2  0  0  0  0  0  0  0  0  0
   27.9362  -20.7661  -10.6155 N   0  0  0  0  0  0  0  0  0  0  0  0
   28.3300  -20.3002   -8.3151 C   0  0  0  0  0  0  0  0  0  0  0  0
   27.8150  -19.1605   -8.4929 O   0  0  0  0  0  0  0  0  0  0  0  0
   28.4566  -21.5513   -4.0898 C   0  0  0  0  0  0  0  0  0  0  0  0
   27.5352  -20.5349   -4.7148 C   0  0  1  0  0  0  0  0  0  0  0  0
   27.1454  -19.5116   -3.6737 C   0  0  0  0  0  0  0  0  0  0  0  0
   28.1556  -19.8130   -5.8679 C   0  0  2  0  0  0  0  0  0  0  0  0
   28.4984  -20.7149   -6.9648 N   0  0  0  0  0  0  0  0  0  0  0  0
   29.3804  -19.1239   -5.4344 C   0  0  0  0  0  0  0  0  0  0  0  0
   30.5206  -19.5607   -5.7311 O   0  0  0  0  0  0  0  0  0  0  0  0
   29.3285  -17.9627   -4.6797 O   0  0  0  0  0  0  0  0  0  0  0  0
  2  1  1  1
  2  3  1  0
  4  2  1  0
  4  6  1  0
  4  5  1  1
  6  7  2  0
  8  9  1  0
 10  9  1  0
 11 10  1  0
 12 11  1  6
 13  6  1  0
 13 12  1  0
 14 12  1  0
 14 20  1  0
 15 14  2  0
 17 16  1  1
 18 17  1  0
 19 21  1  0
 19 20  1  6
 19 17  1  0
 21 23  1  0
 22 21  2  0
M  END
$$$$
