VMV.pdb
     RDKit          3D

 23 22  0  0  1  0  0  0  0  0999 V2000
   28.9930  -20.2800  -12.0149 C   0  0  0  0  0  0  0  0  0  0  0  0
   28.0670  -20.6621  -13.1206 C   0  0  2  0  0  0  0  0  0  0  0  0
   28.4131  -19.8914  -14.3974 C   0  0  0  0  0  0  0  0  0  0  0  0
   26.6149  -20.3566  -12.8218 C   0  0  2  0  0  0  0  0  0  0  0  0
   26.3853  -18.9316  -12.7232 N   0  0  0  0  0  0  0  0  0  0  0  0
   26.1259  -20.9981  -11.5937 C   0  0  0  0  0  0  0  0  0  0  0  0
   26.2051  -22.2453  -11.4206 O   0  0  0  0  0  0  0  0  0  0  0  0
   26.8891  -19.5730   -5.1873 C   0  0  0  0  0  0  0  0  0  0  0  0
   27.8229  -19.2975   -6.7213 S   0  0  0  0  0  0  0  0  0  0  0  0
   27.1424  -20.2601   -8.0900 C   0  0  0  0  0  0  0  0  0  0  0  0
   25.6443  -19.9833   -8.1740 C   0  0  0  0  0  0  0  0  0  0  0  0
   25.0465  -20.7976   -9.3237 C   0  0  2  0  0  0  0  0  0  0  0  0
   25.5415  -20.2363  -10.5467 N   0  0  0  0  0  0  0  0  0  0  0  0
   23.5731  -20.7424   -9.3084 C   0  0  0  0  0  0  0  0  0  0  0  0
   22.9734  -19.6735   -9.6143 O   0  0  0  0  0  0  0  0  0  0  0  0
   19.1644  -22.7900   -9.8020 C   0  0  0  0  0  0  0  0  0  0  0  0
   20.6682  -22.8803   -9.7471 C   0  0  1  0  0  0  0  0  0  0  0  0
   21.2164  -22.8965  -11.1551 C   0  0  0  0  0  0  0  0  0  0  0  0
   21.2971  -21.7378   -9.0157 C   0  0  2  0  0  0  0  0  0  0  0  0
   22.7526  -21.8511   -8.9604 N   0  0  0  0  0  0  0  0  0  0  0  0
   20.7845  -21.6739   -7.6388 C   0  0  0  0  0  0  0  0  0  0  0  0
   21.4072  -22.1962   -6.6805 O   0  0  0  0  0  0  0  0  0  0  0  0
   19.5918  -21.0345   -7.3399 O   0  0  0  0  0  0  0  0  0  0  0  0
  2  1  1  1
  2  3  1  0
  4  2  1  0
  4  6  1  0
  4  5  1  1
  6  7  2  0
  8  9  1  0
 10  9  1  0
 11 10  1  0
 12 11  1  1
 13  6  1  0
 13 12  1  0
 14 12  1  0
 14 20  1  0
 15 14  2  0
 17 16  1  6
 18 17  1  0
 19 21  1  0
 19 20  1  1
 19 17  1  0
 21 23  1  0
 22 21  2  0
M  END
$$$$
