VMV.pdb
     RDKit          3D

 23 22  0  0  1  0  0  0  0  0999 V2000
   20.6967  -16.2526  -18.9797 C   0  0  0  0  0  0  0  0  0  0  0  0
   22.0185  -15.6495  -19.3191 C   0  0  2  0  0  0  0  0  0  0  0  0
   23.0735  -16.0607  -18.2886 C   0  0  0  0  0  0  0  0  0  0  0  0
   22.0042  -14.1360  -19.3299 C   0  0  2  0  0  0  0  0  0  0  0  0
   22.9952  -13.6058  -20.2410 N   0  0  0  0  0  0  0  0  0  0  0  0
   22.2195  -13.5424  -18.0032 C   0  0  0  0  0  0  0  0  0  0  0  0
   21.4883  -13.8378  -17.0183 O   0  0  0  0  0  0  0  0  0  0  0  0
   27.8396  -11.7623  -15.7288 C   0  0  0  0  0  0  0  0  0  0  0  0
   27.0208  -13.2991  -15.2101 S   0  0  0  0  0  0  0  0  0  0  0  0
   25.2493  -13.2537  -15.5609 C   0  0  0  0  0  0  0  0  0  0  0  0
   24.9207  -11.9089  -16.2022 C   0  0  0  0  0  0  0  0  0  0  0  0
   23.4322  -11.8711  -16.5560 C   0  0  2  0  0  0  0  0  0  0  0  0
   23.2645  -12.6076  -17.7747 N   0  0  0  0  0  0  0  0  0  0  0  0
   22.9613  -10.4861  -16.7398 C   0  0  0  0  0  0  0  0  0  0  0  0
   23.4106   -9.7818  -17.6873 O   0  0  0  0  0  0  0  0  0  0  0  0
   19.6856   -6.9836  -16.7730 C   0  0  0  0  0  0  0  0  0  0  0  0
   20.1713   -8.4025  -16.6192 C   0  0  1  0  0  0  0  0  0  0  0  0
   20.0900   -9.1025  -17.9558 C   0  0  0  0  0  0  0  0  0  0  0  0
   21.5828   -8.4888  -16.1335 C   0  0  2  0  0  0  0  0  0  0  0  0
   22.0007   -9.8677  -15.8920 N   0  0  0  0  0  0  0  0  0  0  0  0
   21.7349   -7.7323  -14.8815 C   0  0  0  0  0  0  0  0  0  0  0  0
   21.7644   -8.3079  -13.7650 O   0  0  0  0  0  0  0  0  0  0  0  0
   21.8522   -6.3514  -14.8806 O   0  0  0  0  0  0  0  0  0  0  0  0
  2  1  1  1
  2  3  1  0
  4  2  1  0
  4  6  1  0
  4  5  1  6
  6  7  2  0
  8  9  1  0
 10  9  1  0
 11 10  1  0
 12 11  1  6
 13  6  1  0
 13 12  1  0
 14 12  1  0
 14 20  1  0
 15 14  2  0
 17 16  1  6
 18 17  1  0
 19 21  1  0
 19 20  1  1
 19 17  1  0
 21 23  1  0
 22 21  2  0
M  END
$$$$
