VMV.pdb
     RDKit          3D

 23 22  0  0  1  0  0  0  0  0999 V2000
   26.0500  -31.7496   -6.7572 C   0  0  0  0  0  0  0  0  0  0  0  0
   25.7863  -32.4897   -8.0255 C   0  0  2  0  0  0  0  0  0  0  0  0
   24.6459  -33.4926   -7.8314 C   0  0  0  0  0  0  0  0  0  0  0  0
   26.9751  -33.2893   -8.5138 C   0  0  2  0  0  0  0  0  0  0  0  0
   26.6525  -34.0371   -9.7096 N   0  0  0  0  0  0  0  0  0  0  0  0
   27.5050  -34.2184   -7.5065 C   0  0  0  0  0  0  0  0  0  0  0  0
   27.0333  -35.3797   -7.3626 O   0  0  0  0  0  0  0  0  0  0  0  0
   33.7756  -35.1455   -6.2804 C   0  0  0  0  0  0  0  0  0  0  0  0
   33.1016  -34.9484   -4.6047 S   0  0  0  0  0  0  0  0  0  0  0  0
   31.3247  -35.2711   -4.5660 C   0  0  0  0  0  0  0  0  0  0  0  0
   30.6460  -34.3446   -5.5704 C   0  0  0  0  0  0  0  0  0  0  0  0
   29.1646  -34.7144   -5.6739 C   0  0  2  0  0  0  0  0  0  0  0  0
   28.5749  -33.8450   -6.6498 N   0  0  0  0  0  0  0  0  0  0  0  0
   28.4804  -34.5490   -4.3783 C   0  0  0  0  0  0  0  0  0  0  0  0
   28.1233  -33.4014   -3.9895 O   0  0  0  0  0  0  0  0  0  0  0  0
   26.7673  -37.8283   -2.1188 C   0  0  0  0  0  0  0  0  0  0  0  0
   26.2883  -36.3992   -2.1499 C   0  0  1  0  0  0  0  0  0  0  0  0
   25.5510  -36.0948   -0.8666 C   0  0  0  0  0  0  0  0  0  0  0  0
   27.4016  -35.4114   -2.2929 C   0  0  2  0  0  0  0  0  0  0  0  0
   28.1847  -35.6332   -3.5061 N   0  0  0  0  0  0  0  0  0  0  0  0
   28.3055  -35.4958   -1.1358 C   0  0  0  0  0  0  0  0  0  0  0  0
   29.3133  -36.2461   -1.1421 O   0  0  0  0  0  0  0  0  0  0  0  0
   28.0834  -34.7505    0.0113 O   0  0  0  0  0  0  0  0  0  0  0  0
  2  1  1  1
  2  3  1  0
  4  2  1  0
  4  6  1  0
  4  5  1  6
  6  7  2  0
  8  9  1  0
 10  9  1  0
 11 10  1  0
 12 11  1  1
 13  6  1  0
 13 12  1  0
 14 12  1  0
 14 20  1  0
 15 14  2  0
 17 16  1  1
 18 17  1  0
 19 21  1  0
 19 20  1  6
 19 17  1  0
 21 23  1  0
 22 21  2  0
M  END
$$$$
