VMV.pdb
     RDKit          3D

 23 22  0  0  1  0  0  0  0  0999 V2000
   25.3136  -17.3010  -16.0332 C   0  0  0  0  0  0  0  0  0  0  0  0
   26.4032  -17.0388  -15.0483 C   0  0  2  0  0  0  0  0  0  0  0  0
   27.3499  -15.9567  -15.5747 C   0  0  0  0  0  0  0  0  0  0  0  0
   27.2627  -18.2521  -14.7648 C   0  0  2  0  0  0  0  0  0  0  0  0
   27.8841  -18.7519  -15.9720 N   0  0  0  0  0  0  0  0  0  0  0  0
   26.5260  -19.3507  -14.1253 C   0  0  0  0  0  0  0  0  0  0  0  0
   25.9743  -20.2613  -14.8022 O   0  0  0  0  0  0  0  0  0  0  0  0
   26.7754  -19.9006   -7.7058 C   0  0  0  0  0  0  0  0  0  0  0  0
   25.4724  -21.1310   -8.0049 S   0  0  0  0  0  0  0  0  0  0  0  0
   25.1907  -21.3775   -9.7721 C   0  0  0  0  0  0  0  0  0  0  0  0
   25.8618  -20.2357  -10.5295 C   0  0  0  0  0  0  0  0  0  0  0  0
   25.6092  -20.4102  -12.0288 C   0  0  2  0  0  0  0  0  0  0  0  0
   26.4045  -19.4324  -12.7122 N   0  0  0  0  0  0  0  0  0  0  0  0
   24.1851  -20.2150  -12.3574 C   0  0  0  0  0  0  0  0  0  0  0  0
   23.6889  -19.0534  -12.3709 O   0  0  0  0  0  0  0  0  0  0  0  0
   22.3566  -20.9990  -15.4874 C   0  0  0  0  0  0  0  0  0  0  0  0
   21.5423  -21.5768  -14.3578 C   0  0  1  0  0  0  0  0  0  0  0  0
   21.7512  -23.0725  -14.3097 C   0  0  0  0  0  0  0  0  0  0  0  0
   21.9096  -21.0123  -13.0228 C   0  0  2  0  0  0  0  0  0  0  0  0
   23.3013  -21.2844  -12.6716 N   0  0  0  0  0  0  0  0  0  0  0  0
   21.0475  -21.5829  -11.9768 C   0  0  0  0  0  0  0  0  0  0  0  0
   21.4996  -22.3728  -11.1106 O   0  0  0  0  0  0  0  0  0  0  0  0
   19.6986  -21.2732  -11.9026 O   0  0  0  0  0  0  0  0  0  0  0  0
  2  1  1  6
  2  3  1  0
  4  2  1  0
  4  6  1  0
  4  5  1  6
  6  7  2  0
  8  9  1  0
 10  9  1  0
 11 10  1  0
 12 11  1  1
 13  6  1  0
 13 12  1  0
 14 12  1  0
 14 20  1  0
 15 14  2  0
 17 16  1  6
 18 17  1  0
 19 21  1  0
 19 20  1  1
 19 17  1  0
 21 23  1  0
 22 21  2  0
M  END
$$$$
