VMV.pdb
     RDKit          3D

 23 22  0  0  1  0  0  0  0  0999 V2000
   12.7674  -10.6397  -13.7647 C   0  0  0  0  0  0  0  0  0  0  0  0
   13.5914  -10.7060  -15.0067 C   0  0  2  0  0  0  0  0  0  0  0  0
   12.8838  -11.5468  -16.0728 C   0  0  0  0  0  0  0  0  0  0  0  0
   14.9477  -11.3440  -14.7955 C   0  0  2  0  0  0  0  0  0  0  0  0
   14.8272  -12.7579  -14.5134 N   0  0  0  0  0  0  0  0  0  0  0  0
   15.7260  -10.7143  -13.7202 C   0  0  0  0  0  0  0  0  0  0  0  0
   15.8427  -11.2513  -12.5845 O   0  0  0  0  0  0  0  0  0  0  0  0
   21.0204   -5.1828  -12.8346 C   0  0  0  0  0  0  0  0  0  0  0  0
   20.7450   -6.9188  -13.2945 S   0  0  0  0  0  0  0  0  0  0  0  0
   19.2739   -7.5895  -12.4887 C   0  0  0  0  0  0  0  0  0  0  0  0
   18.4312   -8.3015  -13.5426 C   0  0  0  0  0  0  0  0  0  0  0  0
   17.1282   -8.7849  -12.9017 C   0  0  2  0  0  0  0  0  0  0  0  0
   16.3817   -9.4695  -13.9166 N   0  0  0  0  0  0  0  0  0  0  0  0
   16.3392   -7.6552  -12.3769 C   0  0  0  0  0  0  0  0  0  0  0  0
   15.6785   -6.9207  -13.1640 O   0  0  0  0  0  0  0  0  0  0  0  0
   13.8118   -7.5103   -9.2403 C   0  0  0  0  0  0  0  0  0  0  0  0
   14.8455   -6.4131   -9.2163 C   0  0  1  0  0  0  0  0  0  0  0  0
   15.9336   -6.7777   -8.2333 C   0  0  0  0  0  0  0  0  0  0  0  0
   15.4816   -6.1787  -10.5491 C   0  0  2  0  0  0  0  0  0  0  0  0
   16.2694   -7.3253  -10.9949 N   0  0  0  0  0  0  0  0  0  0  0  0
   16.3650   -5.0044  -10.4893 C   0  0  0  0  0  0  0  0  0  0  0  0
   15.9056   -3.8417  -10.3637 O   0  0  0  0  0  0  0  0  0  0  0  0
   17.7428   -5.1311  -10.5691 O   0  0  0  0  0  0  0  0  0  0  0  0
  2  1  1  1
  2  3  1  0
  4  2  1  0
  4  6  1  0
  4  5  1  1
  6  7  2  0
  8  9  1  0
 10  9  1  0
 11 10  1  0
 12 11  1  6
 13  6  1  0
 13 12  1  0
 14 12  1  0
 14 20  1  0
 15 14  2  0
 17 16  1  6
 18 17  1  0
 19 21  1  0
 19 20  1  1
 19 17  1  0
 21 23  1  0
 22 21  2  0
M  END
$$$$
