VMV.pdb
     RDKit          3D

 23 22  0  0  1  0  0  0  0  0999 V2000
   24.5117  -12.9687  -15.3322 C   0  0  0  0  0  0  0  0  0  0  0  0
   23.3707  -12.1761  -15.8762 C   0  0  2  0  0  0  0  0  0  0  0  0
   23.3078  -12.3073  -17.4003 C   0  0  0  0  0  0  0  0  0  0  0  0
   23.4729  -10.6948  -15.5824 C   0  0  2  0  0  0  0  0  0  0  0  0
   23.5374  -10.4426  -14.1592 N   0  0  0  0  0  0  0  0  0  0  0  0
   22.3668   -9.9113  -16.1495 C   0  0  0  0  0  0  0  0  0  0  0  0
   22.1540   -9.8683  -17.3923 O   0  0  0  0  0  0  0  0  0  0  0  0
   16.1822  -12.0745  -15.6493 C   0  0  0  0  0  0  0  0  0  0  0  0
   17.0323  -10.7056  -14.8099 S   0  0  0  0  0  0  0  0  0  0  0  0
   18.4789  -10.1565  -15.7422 C   0  0  0  0  0  0  0  0  0  0  0  0
   19.1290   -9.0025  -14.9848 C   0  0  0  0  0  0  0  0  0  0  0  0
   20.3213   -8.4812  -15.7902 C   0  0  2  0  0  0  0  0  0  0  0  0
   21.4883   -9.1670  -15.3174 N   0  0  0  0  0  0  0  0  0  0  0  0
   20.4904   -7.0270  -15.6147 C   0  0  0  0  0  0  0  0  0  0  0  0
   21.0367   -6.5715  -14.5708 O   0  0  0  0  0  0  0  0  0  0  0  0
   22.2750   -4.6121  -18.0365 C   0  0  0  0  0  0  0  0  0  0  0  0
   20.9388   -4.0373  -17.6402 C   0  0  1  0  0  0  0  0  0  0  0  0
   19.9500   -4.2616  -18.7606 C   0  0  0  0  0  0  0  0  0  0  0  0
   20.3816   -4.6537  -16.3971 C   0  0  2  0  0  0  0  0  0  0  0  0
   20.0648   -6.0686  -16.5759 N   0  0  0  0  0  0  0  0  0  0  0  0
   19.1551   -3.9520  -15.9895 C   0  0  0  0  0  0  0  0  0  0  0  0
   19.1893   -2.7870  -15.5201 O   0  0  0  0  0  0  0  0  0  0  0  0
   17.9088   -4.5468  -16.1059 O   0  0  0  0  0  0  0  0  0  0  0  0
  2  1  1  6
  2  3  1  0
  4  2  1  0
  4  6  1  0
  4  5  1  1
  6  7  2  0
  8  9  1  0
 10  9  1  0
 11 10  1  0
 12 11  1  1
 13  6  1  0
 13 12  1  0
 14 12  1  0
 14 20  1  0
 15 14  2  0
 17 16  1  6
 18 17  1  0
 19 21  1  0
 19 20  1  6
 19 17  1  0
 21 23  1  0
 22 21  2  0
M  END
$$$$
