TAP.pdb
     RDKit          3D

 20 20  0  0  1  0  0  0  0  0999 V2000
   26.0205  -30.9009  -16.9664 C   0  0  0  0  0  0  0  0  0  0  0  0
   27.4683  -30.8850  -16.5326 C   0  0  1  0  0  0  0  0  0  0  0  0
   27.5772  -30.5514  -15.1718 O   0  0  0  0  0  0  0  0  0  0  0  0
   28.0289  -32.2641  -16.6916 C   0  0  2  0  0  0  0  0  0  0  0  0
   28.4283  -32.8472  -15.4225 N   0  0  0  0  0  0  0  0  0  0  0  0
   29.2267  -32.1628  -17.5993 C   0  0  0  0  0  0  0  0  0  0  0  0
   30.3677  -32.4933  -17.1896 O   0  0  0  0  0  0  0  0  0  0  0  0
   29.8541  -31.7007  -21.2668 C   0  0  0  0  0  0  0  0  0  0  0  0
   30.2680  -31.6781  -19.8178 C   0  0  2  0  0  0  0  0  0  0  0  0
   29.1195  -31.6963  -18.9367 N   0  0  0  0  0  0  0  0  0  0  0  0
   31.1672  -30.5524  -19.4943 C   0  0  0  0  0  0  0  0  0  0  0  0
   30.6230  -29.5073  -19.0557 O   0  0  0  0  0  0  0  0  0  0  0  0
   32.5743  -30.6049  -19.6547 N   0  0  0  0  0  0  0  0  0  0  0  0
   33.3319  -31.7758  -20.0580 C   0  0  0  0  0  0  0  0  0  0  0  0
   34.7567  -31.5239  -19.5614 C   0  0  0  0  0  0  0  0  0  0  0  0
   34.8646  -30.0322  -19.7358 C   0  0  0  0  0  0  0  0  0  0  0  0
   33.4936  -29.5291  -19.4507 C   0  0  1  0  0  0  0  0  0  0  0  0
   33.2266  -28.3612  -20.3089 C   0  0  0  0  0  0  0  0  0  0  0  0
   33.7781  -27.2535  -20.1051 O   0  0  0  0  0  0  0  0  0  0  0  0
   32.3518  -28.4837  -21.3608 O   0  0  0  0  0  0  0  0  0  0  0  0
  2  1  1  1
  3  2  1  0
  4  6  1  0
  4  2  1  0
  4  5  1  1
  6 10  1  0
  7  6  2  0
  9  8  1  6
  9 11  1  0
 10  9  1  0
 11 13  1  0
 11 12  2  0
 13 17  1  0
 14 15  1  0
 14 13  1  0
 15 16  1  0
 16 17  1  0
 17 18  1  6
 18 19  2  0
 18 20  1  0
M  END
$$$$
