TAP.pdb
     RDKit          3D

 20 20  0  0  1  0  0  0  0  0999 V2000
   13.7670  -10.2957  -16.4753 C   0  0  0  0  0  0  0  0  0  0  0  0
   15.1127   -9.8500  -15.9512 C   0  0  1  0  0  0  0  0  0  0  0  0
   15.1190   -9.8319  -14.5459 O   0  0  0  0  0  0  0  0  0  0  0  0
   16.1454  -10.8453  -16.3809 C   0  0  2  0  0  0  0  0  0  0  0  0
   15.9566  -12.1420  -15.7541 N   0  0  0  0  0  0  0  0  0  0  0  0
   17.4929  -10.2914  -15.9984 C   0  0  0  0  0  0  0  0  0  0  0  0
   17.9262  -10.4199  -14.8259 O   0  0  0  0  0  0  0  0  0  0  0  0
   20.5849   -9.2116  -17.7535 C   0  0  0  0  0  0  0  0  0  0  0  0
   19.6499   -9.1694  -16.5723 C   0  0  2  0  0  0  0  0  0  0  0  0
   18.3189   -9.6106  -16.9321 N   0  0  0  0  0  0  0  0  0  0  0  0
   19.6115   -7.8470  -15.9165 C   0  0  0  0  0  0  0  0  0  0  0  0
   18.6479   -7.0981  -16.2191 O   0  0  0  0  0  0  0  0  0  0  0  0
   20.5881   -7.4055  -14.9894 N   0  0  0  0  0  0  0  0  0  0  0  0
   21.6535   -8.2224  -14.4369 C   0  0  0  0  0  0  0  0  0  0  0  0
   22.0634   -7.5249  -13.1386 C   0  0  0  0  0  0  0  0  0  0  0  0
   21.8690   -6.0793  -13.5128 C   0  0  0  0  0  0  0  0  0  0  0  0
   20.7014   -6.0926  -14.4350 C   0  0  1  0  0  0  0  0  0  0  0  0
   20.8856   -5.0422  -15.4520 C   0  0  0  0  0  0  0  0  0  0  0  0
   21.3396   -5.3007  -16.5920 O   0  0  0  0  0  0  0  0  0  0  0  0
   20.5529   -3.7445  -15.1485 O   0  0  0  0  0  0  0  0  0  0  0  0
  2  1  1  1
  3  2  1  0
  4  6  1  0
  4  2  1  0
  4  5  1  1
  6 10  1  0
  7  6  2  0
  9  8  1  6
  9 11  1  0
 10  9  1  0
 11 13  1  0
 11 12  2  0
 13 17  1  0
 14 15  1  0
 14 13  1  0
 15 16  1  0
 16 17  1  0
 17 18  1  6
 18 19  2  0
 18 20  1  0
M  END
$$$$
