TAP.pdb
     RDKit          3D

 20 20  0  0  1  0  0  0  0  0999 V2000
   23.4953  -14.1353  -14.5671 C   0  0  0  0  0  0  0  0  0  0  0  0
   23.4443  -12.7512  -15.1722 C   0  0  1  0  0  0  0  0  0  0  0  0
   24.6595  -12.4391  -15.8054 O   0  0  0  0  0  0  0  0  0  0  0  0
   22.3827  -12.7310  -16.2278 C   0  0  2  0  0  0  0  0  0  0  0  0
   22.7778  -13.4579  -17.4218 N   0  0  0  0  0  0  0  0  0  0  0  0
   22.1216  -11.2895  -16.5779 C   0  0  0  0  0  0  0  0  0  0  0  0
   22.8188  -10.7073  -17.4464 O   0  0  0  0  0  0  0  0  0  0  0  0
   19.3535   -8.8630  -16.3270 C   0  0  0  0  0  0  0  0  0  0  0  0
   20.8299   -9.1655  -16.3305 C   0  0  2  0  0  0  0  0  0  0  0  0
   21.0922  -10.5377  -15.9512 N   0  0  0  0  0  0  0  0  0  0  0  0
   21.6110   -8.2269  -15.5001 C   0  0  0  0  0  0  0  0  0  0  0  0
   21.9180   -8.6201  -14.3460 O   0  0  0  0  0  0  0  0  0  0  0  0
   22.0139   -6.9419  -15.9415 N   0  0  0  0  0  0  0  0  0  0  0  0
   21.7683   -6.3906  -17.2619 C   0  0  0  0  0  0  0  0  0  0  0  0
   22.8200   -5.2946  -17.4423 C   0  0  0  0  0  0  0  0  0  0  0  0
   22.9339   -4.7683  -16.0361 C   0  0  0  0  0  0  0  0  0  0  0  0
   22.7274   -5.9662  -15.1779 C   0  0  1  0  0  0  0  0  0  0  0  0
   22.0242   -5.5566  -13.9494 C   0  0  0  0  0  0  0  0  0  0  0  0
   22.6411   -5.0997  -12.9578 O   0  0  0  0  0  0  0  0  0  0  0  0
   20.6573   -5.6763  -13.8835 O   0  0  0  0  0  0  0  0  0  0  0  0
  2  1  1  6
  3  2  1  0
  4  6  1  0
  4  2  1  0
  4  5  1  6
  6 10  1  0
  7  6  2  0
  9  8  1  1
  9 11  1  0
 10  9  1  0
 11 13  1  0
 11 12  2  0
 13 17  1  0
 14 15  1  0
 14 13  1  0
 15 16  1  0
 16 17  1  0
 17 18  1  1
 18 19  2  0
 18 20  1  0
M  END
$$$$
