TAP.pdb
     RDKit          3D

 20 20  0  0  1  0  0  0  0  0999 V2000
   15.7037   -5.1431   -9.3170 C   0  0  0  0  0  0  0  0  0  0  0  0
   15.2064   -6.4012   -8.6430 C   0  0  1  0  0  0  0  0  0  0  0  0
   14.0662   -6.1332   -7.8664 O   0  0  0  0  0  0  0  0  0  0  0  0
   14.7962   -7.3785   -9.7004 C   0  0  2  0  0  0  0  0  0  0  0  0
   14.4046   -8.6618   -9.1438 N   0  0  0  0  0  0  0  0  0  0  0  0
   15.9724   -7.5663  -10.6224 C   0  0  0  0  0  0  0  0  0  0  0  0
   16.8691   -8.4036  -10.3504 O   0  0  0  0  0  0  0  0  0  0  0  0
   16.6560   -7.1386  -14.1812 C   0  0  0  0  0  0  0  0  0  0  0  0
   17.1725   -7.1110  -12.7657 C   0  0  2  0  0  0  0  0  0  0  0  0
   16.1164   -6.8167  -11.8203 N   0  0  0  0  0  0  0  0  0  0  0  0
   18.3148   -6.1922  -12.5883 C   0  0  0  0  0  0  0  0  0  0  0  0
   18.0463   -5.0365  -12.1723 O   0  0  0  0  0  0  0  0  0  0  0  0
   19.6579   -6.5531  -12.8606 N   0  0  0  0  0  0  0  0  0  0  0  0
   20.1018   -7.8560  -13.3223 C   0  0  0  0  0  0  0  0  0  0  0  0
   21.5812   -7.9352  -12.9414 C   0  0  0  0  0  0  0  0  0  0  0  0
   22.0047   -6.5020  -13.1250 C   0  0  0  0  0  0  0  0  0  0  0  0
   20.8067   -5.7120  -12.7316 C   0  0  1  0  0  0  0  0  0  0  0  0
   20.7404   -4.4995  -13.5665 C   0  0  0  0  0  0  0  0  0  0  0  0
   21.3885   -3.4650  -13.2795 O   0  0  0  0  0  0  0  0  0  0  0  0
   19.9495   -4.4971  -14.6897 O   0  0  0  0  0  0  0  0  0  0  0  0
  2  1  1  6
  3  2  1  0
  4  6  1  0
  4  2  1  0
  4  5  1  1
  6 10  1  0
  7  6  2  0
  9  8  1  6
  9 11  1  0
 10  9  1  0
 11 13  1  0
 11 12  2  0
 13 17  1  0
 14 15  1  0
 14 13  1  0
 15 16  1  0
 16 17  1  0
 17 18  1  6
 18 19  2  0
 18 20  1  0
M  END
$$$$
