TAP.pdb
     RDKit          3D

 20 20  0  0  1  0  0  0  0  0999 V2000
   16.1346   -9.2612  -16.3578 C   0  0  0  0  0  0  0  0  0  0  0  0
   16.4320  -10.5149  -15.5677 C   0  0  1  0  0  0  0  0  0  0  0  0
   15.4206  -11.4728  -15.7537 O   0  0  0  0  0  0  0  0  0  0  0  0
   17.7030  -11.1140  -16.0846 C   0  0  2  0  0  0  0  0  0  0  0  0
   17.9882  -12.4058  -15.4846 N   0  0  0  0  0  0  0  0  0  0  0  0
   18.8178  -10.1526  -15.7657 C   0  0  0  0  0  0  0  0  0  0  0  0
   19.1544   -9.9383  -14.5742 O   0  0  0  0  0  0  0  0  0  0  0  0
   21.5566   -8.4146  -17.6517 C   0  0  0  0  0  0  0  0  0  0  0  0
   20.6503   -8.6042  -16.4626 C   0  0  2  0  0  0  0  0  0  0  0  0
   19.5254   -9.4574  -16.7825 N   0  0  0  0  0  0  0  0  0  0  0  0
   20.1977   -7.3272  -15.8753 C   0  0  0  0  0  0  0  0  0  0  0  0
   19.0919   -6.8848  -16.2780 O   0  0  0  0  0  0  0  0  0  0  0  0
   20.9392   -6.6061  -14.9065 N   0  0  0  0  0  0  0  0  0  0  0  0
   22.1877   -7.0417  -14.3072 C   0  0  0  0  0  0  0  0  0  0  0  0
   22.2950   -6.2666  -12.9927 C   0  0  0  0  0  0  0  0  0  0  0  0
   21.6589   -4.9568  -13.3762 C   0  0  0  0  0  0  0  0  0  0  0  0
   20.5980   -5.3347  -14.3487 C   0  0  1  0  0  0  0  0  0  0  0  0
   20.4745   -4.2677  -15.3575 C   0  0  0  0  0  0  0  0  0  0  0  0
   20.9631   -4.3867  -16.5063 O   0  0  0  0  0  0  0  0  0  0  0  0
   19.8077   -3.1104  -15.0362 O   0  0  0  0  0  0  0  0  0  0  0  0
  2  1  1  6
  3  2  1  0
  4  6  1  0
  4  2  1  0
  4  5  1  1
  6 10  1  0
  7  6  2  0
  9  8  1  6
  9 11  1  0
 10  9  1  0
 11 13  1  0
 11 12  2  0
 13 17  1  0
 14 15  1  0
 14 13  1  0
 15 16  1  0
 16 17  1  0
 17 18  1  6
 18 19  2  0
 18 20  1  0
M  END
$$$$
