TAP.pdb
     RDKit          3D

 20 20  0  0  1  0  0  0  0  0999 V2000
   46.0723  -11.3053   -8.2476 C   0  0  0  0  0  0  0  0  0  0  0  0
   44.8649  -10.9285   -7.4202 C   0  0  1  0  0  0  0  0  0  0  0  0
   45.0175   -9.6432   -6.8725 O   0  0  0  0  0  0  0  0  0  0  0  0
   43.6673  -10.8827   -8.3176 C   0  0  2  0  0  0  0  0  0  0  0  0
   42.5118  -10.2908   -7.6660 N   0  0  0  0  0  0  0  0  0  0  0  0
   43.3496  -12.2992   -8.7191 C   0  0  0  0  0  0  0  0  0  0  0  0
   42.8848  -13.1113   -7.8803 O   0  0  0  0  0  0  0  0  0  0  0  0
   42.9124  -14.2821  -11.8502 C   0  0  0  0  0  0  0  0  0  0  0  0
   43.2916  -14.1486  -10.3977 C   0  0  2  0  0  0  0  0  0  0  0  0
   43.5586  -12.7707  -10.0426 N   0  0  0  0  0  0  0  0  0  0  0  0
   44.4182  -15.0230  -10.0150 C   0  0  0  0  0  0  0  0  0  0  0  0
   45.5588  -14.4943   -9.9982 O   0  0  0  0  0  0  0  0  0  0  0  0
   44.2662  -16.3909   -9.6769 N   0  0  0  0  0  0  0  0  0  0  0  0
   43.0002  -17.0890   -9.5443 C   0  0  0  0  0  0  0  0  0  0  0  0
   43.3002  -18.3019   -8.6618 C   0  0  0  0  0  0  0  0  0  0  0  0
   44.7003  -18.6401   -9.1006 C   0  0  0  0  0  0  0  0  0  0  0  0
   45.3176  -17.3214   -9.4072 C   0  0  1  0  0  0  0  0  0  0  0  0
   46.2565  -17.4848  -10.5312 C   0  0  0  0  0  0  0  0  0  0  0  0
   47.4484  -17.8296  -10.3498 O   0  0  0  0  0  0  0  0  0  0  0  0
   45.8197  -17.2546  -11.8131 O   0  0  0  0  0  0  0  0  0  0  0  0
  2  1  1  6
  3  2  1  0
  4  6  1  0
  4  2  1  0
  4  5  1  1
  6 10  1  0
  7  6  2  0
  9  8  1  6
  9 11  1  0
 10  9  1  0
 11 13  1  0
 11 12  2  0
 13 17  1  0
 14 15  1  0
 14 13  1  0
 15 16  1  0
 16 17  1  0
 17 18  1  6
 18 19  2  0
 18 20  1  0
M  END
$$$$
