TAP.pdb
     RDKit          3D

 20 20  0  0  1  0  0  0  0  0999 V2000
   14.7227  -11.8437  -10.7190 C   0  0  0  0  0  0  0  0  0  0  0  0
   13.2349  -11.7624  -10.4659 C   0  0  1  0  0  0  0  0  0  0  0  0
   12.7188  -13.0228  -10.1192 O   0  0  0  0  0  0  0  0  0  0  0  0
   12.9986  -10.8561   -9.2979 C   0  0  2  0  0  0  0  0  0  0  0  0
   11.5978  -10.7999   -8.9174 N   0  0  0  0  0  0  0  0  0  0  0  0
   13.4700   -9.4806   -9.6911 C   0  0  0  0  0  0  0  0  0  0  0  0
   12.8590   -8.8239  -10.5712 O   0  0  0  0  0  0  0  0  0  0  0  0
   15.7324   -6.8355   -8.3579 C   0  0  0  0  0  0  0  0  0  0  0  0
   15.0519   -7.5572   -9.4926 C   0  0  2  0  0  0  0  0  0  0  0  0
   14.6079   -8.8760   -9.0934 N   0  0  0  0  0  0  0  0  0  0  0  0
   15.8819   -7.6232  -10.7120 C   0  0  0  0  0  0  0  0  0  0  0  0
   16.7215   -8.5573  -10.7698 O   0  0  0  0  0  0  0  0  0  0  0  0
   15.7707   -6.7030  -11.7841 N   0  0  0  0  0  0  0  0  0  0  0  0
   14.8399   -5.5905  -11.8447 C   0  0  0  0  0  0  0  0  0  0  0  0
   14.7008   -5.2628  -13.3324 C   0  0  0  0  0  0  0  0  0  0  0  0
   16.0924   -5.5587  -13.8254 C   0  0  0  0  0  0  0  0  0  0  0  0
   16.5437   -6.7020  -12.9868 C   0  0  1  0  0  0  0  0  0  0  0  0
   17.9928   -6.5767  -12.7504 C   0  0  0  0  0  0  0  0  0  0  0  0
   18.4517   -6.2345  -11.6346 O   0  0  0  0  0  0  0  0  0  0  0  0
   18.8682   -6.8405  -13.7756 O   0  0  0  0  0  0  0  0  0  0  0  0
  2  1  1  1
  3  2  1  0
  4  6  1  0
  4  2  1  0
  4  5  1  6
  6 10  1  0
  7  6  2  0
  9  8  1  1
  9 11  1  0
 10  9  1  0
 11 13  1  0
 11 12  2  0
 13 17  1  0
 14 15  1  0
 14 13  1  0
 15 16  1  0
 16 17  1  0
 17 18  1  1
 18 19  2  0
 18 20  1  0
M  END
$$$$
