TAP.pdb
     RDKit          3D

 20 20  0  0  1  0  0  0  0  0999 V2000
   15.7067  -10.8131  -14.6568 C   0  0  0  0  0  0  0  0  0  0  0  0
   16.1631  -11.4615  -15.9434 C   0  0  1  0  0  0  0  0  0  0  0  0
   15.0670  -11.9692  -16.6618 O   0  0  0  0  0  0  0  0  0  0  0  0
   16.8039  -10.4165  -16.8030 C   0  0  2  0  0  0  0  0  0  0  0  0
   17.1246  -10.9137  -18.1297 N   0  0  0  0  0  0  0  0  0  0  0  0
   18.0667   -9.9748  -16.1110 C   0  0  0  0  0  0  0  0  0  0  0  0
   18.0618   -9.7091  -14.8828 O   0  0  0  0  0  0  0  0  0  0  0  0
   21.7196   -9.5453  -16.9404 C   0  0  0  0  0  0  0  0  0  0  0  0
   20.4579   -9.2538  -16.1694 C   0  0  2  0  0  0  0  0  0  0  0  0
   19.2982   -9.8415  -16.8061 N   0  0  0  0  0  0  0  0  0  0  0  0
   20.2546   -7.8120  -15.9234 C   0  0  0  0  0  0  0  0  0  0  0  0
   19.4096   -7.2319  -16.6516 O   0  0  0  0  0  0  0  0  0  0  0  0
   20.9535   -7.0824  -14.9297 N   0  0  0  0  0  0  0  0  0  0  0  0
   21.8024   -7.6597  -13.9032 C   0  0  0  0  0  0  0  0  0  0  0  0
   21.8627   -6.6090  -12.7931 C   0  0  0  0  0  0  0  0  0  0  0  0
   21.8214   -5.3362  -13.5965 C   0  0  0  0  0  0  0  0  0  0  0  0
   20.9503   -5.6631  -14.7577 C   0  0  1  0  0  0  0  0  0  0  0  0
   21.4369   -4.9298  -15.9396 C   0  0  0  0  0  0  0  0  0  0  0  0
   22.1793   -5.4720  -16.7925 O   0  0  0  0  0  0  0  0  0  0  0  0
   21.0706   -3.6177  -16.1166 O   0  0  0  0  0  0  0  0  0  0  0  0
  2  1  1  1
  3  2  1  0
  4  6  1  0
  4  2  1  0
  4  5  1  6
  6 10  1  0
  7  6  2  0
  9  8  1  6
  9 11  1  0
 10  9  1  0
 11 13  1  0
 11 12  2  0
 13 17  1  0
 14 15  1  0
 14 13  1  0
 15 16  1  0
 16 17  1  0
 17 18  1  6
 18 19  2  0
 18 20  1  0
M  END
$$$$
