TAP.pdb
     RDKit          3D

 20 20  0  0  1  0  0  0  0  0999 V2000
   14.5224   -6.4522  -11.4892 C   0  0  0  0  0  0  0  0  0  0  0  0
   14.7871   -6.2434  -10.0158 C   0  0  1  0  0  0  0  0  0  0  0  0
   13.5839   -6.2348   -9.2897 O   0  0  0  0  0  0  0  0  0  0  0  0
   15.5965   -7.3961   -9.5085 C   0  0  2  0  0  0  0  0  0  0  0  0
   15.7978   -7.3390   -8.0711 N   0  0  0  0  0  0  0  0  0  0  0  0
   16.9304   -7.3532  -10.2069 C   0  0  0  0  0  0  0  0  0  0  0  0
   17.7950   -6.5020   -9.8796 O   0  0  0  0  0  0  0  0  0  0  0  0
   18.9313   -9.6322  -12.3896 C   0  0  0  0  0  0  0  0  0  0  0  0
   18.5876   -8.2743  -11.8337 C   0  0  2  0  0  0  0  0  0  0  0  0
   17.2633   -8.2589  -11.2493 N   0  0  0  0  0  0  0  0  0  0  0  0
   18.7428   -7.1911  -12.8252 C   0  0  0  0  0  0  0  0  0  0  0  0
   17.7115   -6.8646  -13.4660 O   0  0  0  0  0  0  0  0  0  0  0  0
   19.9705   -6.5279  -13.0727 N   0  0  0  0  0  0  0  0  0  0  0  0
   21.1798   -6.6741  -12.2829 C   0  0  0  0  0  0  0  0  0  0  0  0
   21.9993   -5.4136  -12.5647 C   0  0  0  0  0  0  0  0  0  0  0  0
   21.6542   -5.1605  -14.0083 C   0  0  0  0  0  0  0  0  0  0  0  0
   20.2394   -5.6049  -14.1309 C   0  0  1  0  0  0  0  0  0  0  0  0
   20.0347   -6.1782  -15.4729 C   0  0  0  0  0  0  0  0  0  0  0  0
   19.9526   -5.4543  -16.4936 O   0  0  0  0  0  0  0  0  0  0  0  0
   19.9305   -7.5405  -15.6151 O   0  0  0  0  0  0  0  0  0  0  0  0
  2  1  1  6
  3  2  1  0
  4  6  1  0
  4  2  1  0
  4  5  1  1
  6 10  1  0
  7  6  2  0
  9  8  1  6
  9 11  1  0
 10  9  1  0
 11 13  1  0
 11 12  2  0
 13 17  1  0
 14 15  1  0
 14 13  1  0
 15 16  1  0
 16 17  1  0
 17 18  1  6
 18 19  2  0
 18 20  1  0
M  END
$$$$
