TAP.pdb
     RDKit          3D

 20 20  0  0  1  0  0  0  0  0999 V2000
   27.6247  -11.7287  -15.6982 C   0  0  0  0  0  0  0  0  0  0  0  0
   26.5523  -10.6871  -15.9211 C   0  0  1  0  0  0  0  0  0  0  0  0
   27.0792   -9.5622  -16.5784 O   0  0  0  0  0  0  0  0  0  0  0  0
   25.5033  -11.2670  -16.8181 C   0  0  2  0  0  0  0  0  0  0  0  0
   25.9998  -11.5131  -18.1609 N   0  0  0  0  0  0  0  0  0  0  0  0
   24.3634  -10.2839  -16.8741 C   0  0  0  0  0  0  0  0  0  0  0  0
   24.3518   -9.3686  -17.7349 O   0  0  0  0  0  0  0  0  0  0  0  0
   20.9234   -9.9375  -15.4264 C   0  0  0  0  0  0  0  0  0  0  0  0
   22.1887   -9.3873  -16.0328 C   0  0  2  0  0  0  0  0  0  0  0  0
   23.2695  -10.3483  -15.9702 N   0  0  0  0  0  0  0  0  0  0  0  0
   22.5932   -8.0947  -15.4446 C   0  0  0  0  0  0  0  0  0  0  0  0
   23.4772   -8.1364  -14.5514 O   0  0  0  0  0  0  0  0  0  0  0  0
   22.0403   -6.8502  -15.8368 N   0  0  0  0  0  0  0  0  0  0  0  0
   21.0769   -6.6571  -16.9056 C   0  0  0  0  0  0  0  0  0  0  0  0
   21.2123   -5.1877  -17.3088 C   0  0  0  0  0  0  0  0  0  0  0  0
   21.5212   -4.5502  -15.9801 C   0  0  0  0  0  0  0  0  0  0  0  0
   22.3264   -5.5736  -15.2602 C   0  0  1  0  0  0  0  0  0  0  0  0
   22.0156   -5.4989  -13.8217 C   0  0  0  0  0  0  0  0  0  0  0  0
   21.1796   -6.2656  -13.2870 O   0  0  0  0  0  0  0  0  0  0  0  0
   22.6555   -4.5668  -13.0415 O   0  0  0  0  0  0  0  0  0  0  0  0
  2  1  1  6
  3  2  1  0
  4  6  1  0
  4  2  1  0
  4  5  1  6
  6 10  1  0
  7  6  2  0
  9  8  1  1
  9 11  1  0
 10  9  1  0
 11 13  1  0
 11 12  2  0
 13 17  1  0
 14 15  1  0
 14 13  1  0
 15 16  1  0
 16 17  1  0
 17 18  1  1
 18 19  2  0
 18 20  1  0
M  END
$$$$
