LER.pdb
     RDKit          3D

 29 28  0  0  1  0  0  0  0  0999 V2000
    8.6790  -12.0203   19.0985 C   0  0  0  0  0  0  0  0  0  0  0  0
    7.7034  -13.1556   19.2731 C   0  0  2  0  0  0  0  0  0  0  0  0
    6.3918  -12.5354   19.7744 C   0  0  0  0  0  0  0  0  0  0  0  0
    8.1807  -14.2006   20.2603 C   0  0  0  0  0  0  0  0  0  0  0  0
    9.5213  -14.7564   19.8896 C   0  0  2  0  0  0  0  0  0  0  0  0
    9.5091  -15.3287   18.5722 N   0  0  0  0  0  0  0  0  0  0  0  0
    9.9057  -15.7974   20.8861 C   0  0  0  0  0  0  0  0  0  0  0  0
    9.2639  -15.9430   21.9650 O   0  0  0  0  0  0  0  0  0  0  0  0
   10.9956  -16.6545   20.6624 N   0  0  0  0  0  0  0  0  0  0  0  0
   11.3205  -17.7803   21.5711 C   0  0  1  0  0  0  0  0  0  0  0  0
   12.4789  -18.4630   20.9308 C   0  0  0  0  0  0  0  0  0  0  0  0
   13.0308  -19.6546   21.6195 C   0  0  0  0  0  0  0  0  0  0  0  0
   14.1919  -20.1782   20.8097 C   0  0  0  0  0  0  0  0  0  0  0  0
   15.3562  -19.8712   21.1458 O   0  0  0  0  0  0  0  0  0  0  0  0
   11.5551  -17.2665   22.9313 C   0  0  0  0  0  0  0  0  0  0  0  0
   12.4441  -16.3604   23.0728 O   0  0  0  0  0  0  0  0  0  0  0  0
   14.0223  -20.9844   19.7099 O   0  0  0  0  0  0  0  0  0  0  0  0
    5.7947  -13.2857   26.8772 N   0  0  0  0  0  0  0  0  0  0  0  0
    6.5674  -12.8827   25.7462 C   0  0  0  0  0  0  0  0  0  0  0  0
    6.3015  -11.8247   25.0758 N   0  0  0  0  0  0  0  0  0  0  0  0
    7.6845  -13.6801   25.3325 N   0  0  0  0  0  0  0  0  0  0  0  0
    8.1305  -14.8671   26.0294 C   0  0  0  0  0  0  0  0  0  0  0  0
    9.3321  -15.4551   25.3745 C   0  0  0  0  0  0  0  0  0  0  0  0
    9.8809  -16.6792   25.9687 C   0  0  0  0  0  0  0  0  0  0  0  0
   11.1810  -17.1686   25.4294 C   0  0  2  0  0  0  0  0  0  0  0  0
   10.8799  -17.6897   24.0807 N   0  0  0  0  0  0  0  0  0  0  0  0
   11.7673  -18.2666   26.2295 C   0  0  0  0  0  0  0  0  0  0  0  0
   12.5019  -17.9601   27.3684 O   0  0  0  0  0  0  0  0  0  0  0  0
   11.6468  -19.4861   25.9480 O   0  0  0  0  0  0  0  0  0  0  0  0
  2  4  1  0
  2  3  1  1
  2  1  1  0
  5  6  1  6
  5  4  1  0
  7  5  1  0
  8  7  2  0
  9  7  1  0
 10 15  1  0
 10  9  1  0
 10 11  1  6
 12 11  1  0
 13 12  1  0
 14 13  2  0
 15 16  2  0
 17 13  1  0
 18 19  1  0
 19 21  1  0
 20 19  2  0
 21 22  1  0
 23 24  1  0
 23 22  1  0
 25 24  1  1
 25 27  1  0
 26 25  1  0
 26 15  1  0
 27 29  2  0
 27 28  1  0
M  END
$$$$
