LER.pdb
     RDKit          3D

 29 28  0  0  1  0  0  0  0  0999 V2000
    6.8683  -11.9066   24.6435 C   0  0  0  0  0  0  0  0  0  0  0  0
    6.5983  -12.7492   25.8634 C   0  0  2  0  0  0  0  0  0  0  0  0
    6.9941  -11.9013   27.0802 C   0  0  0  0  0  0  0  0  0  0  0  0
    7.3804  -14.0464   25.8727 C   0  0  0  0  0  0  0  0  0  0  0  0
    7.1348  -14.8621   24.6406 C   0  0  2  0  0  0  0  0  0  0  0  0
    5.7950  -15.3788   24.6085 N   0  0  0  0  0  0  0  0  0  0  0  0
    8.1095  -15.9904   24.6054 C   0  0  0  0  0  0  0  0  0  0  0  0
    7.9323  -17.0337   25.2962 O   0  0  0  0  0  0  0  0  0  0  0  0
    9.2608  -15.9353   23.8028 N   0  0  0  0  0  0  0  0  0  0  0  0
   10.1734  -17.0928   23.6423 C   0  0  1  0  0  0  0  0  0  0  0  0
   10.9065  -16.8254   22.3738 C   0  0  0  0  0  0  0  0  0  0  0  0
   11.9758  -17.7796   21.9929 C   0  0  0  0  0  0  0  0  0  0  0  0
   12.5321  -17.3623   20.6533 C   0  0  0  0  0  0  0  0  0  0  0  0
   13.6237  -16.7545   20.6099 O   0  0  0  0  0  0  0  0  0  0  0  0
   11.0111  -17.2334   24.8455 C   0  0  0  0  0  0  0  0  0  0  0  0
   11.4136  -16.1610   25.4107 O   0  0  0  0  0  0  0  0  0  0  0  0
   11.8846  -17.6242   19.4699 O   0  0  0  0  0  0  0  0  0  0  0  0
   13.9631  -21.0718   32.2619 N   0  0  0  0  0  0  0  0  0  0  0  0
   12.8741  -21.3651   31.3862 C   0  0  0  0  0  0  0  0  0  0  0  0
   11.6623  -21.4258   31.7953 N   0  0  0  0  0  0  0  0  0  0  0  0
   13.1290  -21.6031   29.9958 N   0  0  0  0  0  0  0  0  0  0  0  0
   13.4783  -20.5649   29.0503 C   0  0  0  0  0  0  0  0  0  0  0  0
   12.3321  -19.6429   28.8171 C   0  0  0  0  0  0  0  0  0  0  0  0
   11.7919  -19.5856   27.4542 C   0  0  0  0  0  0  0  0  0  0  0  0
   12.3456  -18.5377   26.5508 C   0  0  2  0  0  0  0  0  0  0  0  0
   11.3988  -18.4478   25.4208 N   0  0  0  0  0  0  0  0  0  0  0  0
   13.6798  -18.8801   26.0105 C   0  0  0  0  0  0  0  0  0  0  0  0
   14.8129  -18.3362   26.6032 O   0  0  0  0  0  0  0  0  0  0  0  0
   13.8686  -19.6454   25.0309 O   0  0  0  0  0  0  0  0  0  0  0  0
  2  4  1  0
  2  3  1  1
  2  1  1  0
  5  6  1  1
  5  4  1  0
  7  5  1  0
  8  7  2  0
  9  7  1  0
 10 15  1  0
 10  9  1  0
 10 11  1  6
 12 11  1  0
 13 12  1  0
 14 13  2  0
 15 16  2  0
 17 13  1  0
 18 19  1  0
 19 21  1  0
 20 19  2  0
 21 22  1  0
 23 24  1  0
 23 22  1  0
 25 24  1  1
 25 27  1  0
 26 25  1  0
 26 15  1  0
 27 29  2  0
 27 28  1  0
M  END
$$$$
