LER.pdb
     RDKit          3D

 29 28  0  0  1  0  0  0  0  0999 V2000
    8.7103  -12.3592   18.9079 C   0  0  0  0  0  0  0  0  0  0  0  0
    7.8881  -13.6070   18.7136 C   0  0  2  0  0  0  0  0  0  0  0  0
    6.4288  -13.1540   18.5666 C   0  0  0  0  0  0  0  0  0  0  0  0
    8.0037  -14.5790   19.8696 C   0  0  0  0  0  0  0  0  0  0  0  0
    9.4301  -14.8910   20.2039 C   0  0  2  0  0  0  0  0  0  0  0  0
   10.1247  -15.4526   19.0791 N   0  0  0  0  0  0  0  0  0  0  0  0
    9.4606  -15.8518   21.3442 C   0  0  0  0  0  0  0  0  0  0  0  0
    8.5531  -15.8569   22.2237 O   0  0  0  0  0  0  0  0  0  0  0  0
   10.4994  -16.7869   21.4829 N   0  0  0  0  0  0  0  0  0  0  0  0
   10.5390  -17.7719   22.5905 C   0  0  1  0  0  0  0  0  0  0  0  0
   11.7637  -18.5802   22.3363 C   0  0  0  0  0  0  0  0  0  0  0  0
   12.0367  -19.7086   23.2589 C   0  0  0  0  0  0  0  0  0  0  0  0
   13.3325  -20.3614   22.8434 C   0  0  0  0  0  0  0  0  0  0  0  0
   13.8203  -21.2594   23.5636 O   0  0  0  0  0  0  0  0  0  0  0  0
   10.4975  -17.0659   23.8824 C   0  0  0  0  0  0  0  0  0  0  0  0
   11.4034  -16.1936   24.1055 O   0  0  0  0  0  0  0  0  0  0  0  0
   14.0044  -20.0079   21.6981 O   0  0  0  0  0  0  0  0  0  0  0  0
    6.9949  -10.2867   26.0177 N   0  0  0  0  0  0  0  0  0  0  0  0
    6.3735  -11.5088   26.4165 C   0  0  0  0  0  0  0  0  0  0  0  0
    5.6971  -11.6128   27.4987 N   0  0  0  0  0  0  0  0  0  0  0  0
    6.5017  -12.6709   25.5871 N   0  0  0  0  0  0  0  0  0  0  0  0
    6.5766  -14.0225   26.0983 C   0  0  0  0  0  0  0  0  0  0  0  0
    7.9677  -14.5493   26.0225 C   0  0  0  0  0  0  0  0  0  0  0  0
    8.1522  -15.9799   26.2903 C   0  0  0  0  0  0  0  0  0  0  0  0
    9.5343  -16.5205   26.1550 C   0  0  2  0  0  0  0  0  0  0  0  0
    9.5433  -17.2725   24.8839 N   0  0  0  0  0  0  0  0  0  0  0  0
    9.9057  -17.4497   27.2451 C   0  0  0  0  0  0  0  0  0  0  0  0
   10.0010  -18.8095   26.9758 O   0  0  0  0  0  0  0  0  0  0  0  0
   10.1473  -17.0908   28.4257 O   0  0  0  0  0  0  0  0  0  0  0  0
  2  4  1  0
  2  3  1  1
  2  1  1  0
  5  6  1  6
  5  4  1  0
  7  5  1  0
  8  7  2  0
  9  7  1  0
 10 15  1  0
 10  9  1  0
 10 11  1  1
 12 11  1  0
 13 12  1  0
 14 13  2  0
 15 16  2  0
 17 13  1  0
 18 19  1  0
 19 21  1  0
 20 19  2  0
 21 22  1  0
 23 24  1  0
 23 22  1  0
 25 24  1  1
 25 27  1  0
 26 25  1  0
 26 15  1  0
 27 29  2  0
 27 28  1  0
M  END
$$$$
