LER.pdb
     RDKit          3D

 29 28  0  0  1  0  0  0  0  0999 V2000
    6.3981  -12.2183   27.4652 C   0  0  0  0  0  0  0  0  0  0  0  0
    7.0616  -12.3456   26.1181 C   0  0  2  0  0  0  0  0  0  0  0  0
    7.2753  -10.9179   25.5963 C   0  0  0  0  0  0  0  0  0  0  0  0
    6.2345  -13.1316   25.1219 C   0  0  0  0  0  0  0  0  0  0  0  0
    6.4083  -14.6103   25.2864 C   0  0  2  0  0  0  0  0  0  0  0  0
    6.3172  -15.0019   26.6652 N   0  0  0  0  0  0  0  0  0  0  0  0
    7.7383  -15.0047   24.7388 C   0  0  0  0  0  0  0  0  0  0  0  0
    8.2623  -14.3813   23.7725 O   0  0  0  0  0  0  0  0  0  0  0  0
    8.4579  -16.0842   25.2769 N   0  0  0  0  0  0  0  0  0  0  0  0
    9.7609  -16.5251   24.7234 C   0  0  1  0  0  0  0  0  0  0  0  0
   10.2328  -17.5829   25.6595 C   0  0  0  0  0  0  0  0  0  0  0  0
   10.5375  -17.1718   27.0514 C   0  0  0  0  0  0  0  0  0  0  0  0
   11.0335  -18.3801   27.8076 C   0  0  0  0  0  0  0  0  0  0  0  0
   11.8866  -19.1234   27.2757 O   0  0  0  0  0  0  0  0  0  0  0  0
    9.5870  -16.9447   23.3223 C   0  0  0  0  0  0  0  0  0  0  0  0
    8.7134  -17.8450   23.0819 O   0  0  0  0  0  0  0  0  0  0  0  0
   10.5839  -18.7007   29.0659 O   0  0  0  0  0  0  0  0  0  0  0  0
    8.2343  -12.4174   16.2217 N   0  0  0  0  0  0  0  0  0  0  0  0
    8.0827  -13.7713   15.7941 C   0  0  0  0  0  0  0  0  0  0  0  0
    7.9579  -14.0908   14.5605 N   0  0  0  0  0  0  0  0  0  0  0  0
    8.0673  -14.8230   16.7679 N   0  0  0  0  0  0  0  0  0  0  0  0
    8.2807  -14.6146   18.1839 C   0  0  0  0  0  0  0  0  0  0  0  0
    9.0621  -15.7337   18.7799 C   0  0  0  0  0  0  0  0  0  0  0  0
    9.3305  -15.6636   20.2206 C   0  0  0  0  0  0  0  0  0  0  0  0
   10.0281  -16.8278   20.8360 C   0  0  2  0  0  0  0  0  0  0  0  0
   10.3002  -16.4338   22.2332 N   0  0  0  0  0  0  0  0  0  0  0  0
   11.3184  -17.1447   20.1848 C   0  0  0  0  0  0  0  0  0  0  0  0
   12.5040  -16.8556   20.8493 O   0  0  0  0  0  0  0  0  0  0  0  0
   11.4237  -17.6690   19.0468 O   0  0  0  0  0  0  0  0  0  0  0  0
  2  4  1  0
  2  3  1  6
  2  1  1  0
  5  6  1  1
  5  4  1  0
  7  5  1  0
  8  7  2  0
  9  7  1  0
 10 15  1  0
 10  9  1  0
 10 11  1  1
 12 11  1  0
 13 12  1  0
 14 13  2  0
 15 16  2  0
 17 13  1  0
 18 19  1  0
 19 21  1  0
 20 19  2  0
 21 22  1  0
 23 24  1  0
 23 22  1  0
 25 24  1  6
 25 27  1  0
 26 25  1  0
 26 15  1  0
 27 29  2  0
 27 28  1  0
M  END
$$$$
