LER.pdb
     RDKit          3D

 29 28  0  0  1  0  0  0  0  0999 V2000
    8.3952  -12.9271   19.3902 C   0  0  0  0  0  0  0  0  0  0  0  0
    7.7068  -13.5404   20.5822 C   0  0  2  0  0  0  0  0  0  0  0  0
    7.4607  -12.4021   21.5821 C   0  0  0  0  0  0  0  0  0  0  0  0
    8.5256  -14.6293   21.2442 C   0  0  0  0  0  0  0  0  0  0  0  0
    8.8071  -15.7685   20.3133 C   0  0  2  0  0  0  0  0  0  0  0  0
    7.5949  -16.3948   19.8645 N   0  0  0  0  0  0  0  0  0  0  0  0
    9.6590  -16.7697   21.0179 C   0  0  0  0  0  0  0  0  0  0  0  0
    9.1621  -17.5975   21.8333 O   0  0  0  0  0  0  0  0  0  0  0  0
   11.0454  -16.8295   20.8012 N   0  0  0  0  0  0  0  0  0  0  0  0
   11.9148  -17.8155   21.4871 C   0  0  1  0  0  0  0  0  0  0  0  0
   13.1183  -17.9305   20.6174 C   0  0  0  0  0  0  0  0  0  0  0  0
   14.2494  -18.7432   21.1266 C   0  0  0  0  0  0  0  0  0  0  0  0
   15.3617  -18.7035   20.1072 C   0  0  0  0  0  0  0  0  0  0  0  0
   15.6009  -17.6325   19.5084 O   0  0  0  0  0  0  0  0  0  0  0  0
   12.1669  -17.3756   22.8700 C   0  0  0  0  0  0  0  0  0  0  0  0
   12.3691  -16.1294   23.0633 O   0  0  0  0  0  0  0  0  0  0  0  0
   16.1289  -19.8032   19.8069 O   0  0  0  0  0  0  0  0  0  0  0  0
   13.4969  -22.0755   29.0637 N   0  0  0  0  0  0  0  0  0  0  0  0
   13.3258  -21.0582   30.0510 C   0  0  0  0  0  0  0  0  0  0  0  0
   13.9054  -21.1054   31.1917 N   0  0  0  0  0  0  0  0  0  0  0  0
   12.4778  -19.9368   29.7714 N   0  0  0  0  0  0  0  0  0  0  0  0
   11.7306  -19.7770   28.5426 C   0  0  0  0  0  0  0  0  0  0  0  0
   12.4516  -18.8910   27.5868 C   0  0  0  0  0  0  0  0  0  0  0  0
   11.8276  -18.6801   26.2758 C   0  0  0  0  0  0  0  0  0  0  0  0
   12.5035  -17.7274   25.3505 C   0  0  2  0  0  0  0  0  0  0  0  0
   12.1996  -18.2135   23.9893 N   0  0  0  0  0  0  0  0  0  0  0  0
   13.9738  -17.6999   25.5146 C   0  0  0  0  0  0  0  0  0  0  0  0
   14.5438  -16.7746   26.3804 O   0  0  0  0  0  0  0  0  0  0  0  0
   14.7647  -18.4710   24.9138 O   0  0  0  0  0  0  0  0  0  0  0  0
  2  4  1  0
  2  3  1  1
  2  1  1  0
  5  6  1  1
  5  4  1  0
  7  5  1  0
  8  7  2  0
  9  7  1  0
 10 15  1  0
 10  9  1  0
 10 11  1  6
 12 11  1  0
 13 12  1  0
 14 13  2  0
 15 16  2  0
 17 13  1  0
 18 19  1  0
 19 21  1  0
 20 19  2  0
 21 22  1  0
 23 24  1  0
 23 22  1  0
 25 24  1  1
 25 27  1  0
 26 25  1  0
 26 15  1  0
 27 29  2  0
 27 28  1  0
M  END
$$$$
