LER.pdb
     RDKit          3D

 29 28  0  0  1  0  0  0  0  0999 V2000
    8.8714  -11.8026   19.9831 C   0  0  0  0  0  0  0  0  0  0  0  0
    7.9884  -12.9736   19.6365 C   0  0  2  0  0  0  0  0  0  0  0  0
    6.5599  -12.5816   20.0390 C   0  0  0  0  0  0  0  0  0  0  0  0
    8.3858  -14.2479   20.3524 C   0  0  0  0  0  0  0  0  0  0  0  0
    9.8041  -14.6365   20.0672 C   0  0  2  0  0  0  0  0  0  0  0  0
   10.0252  -14.8309   18.6614 N   0  0  0  0  0  0  0  0  0  0  0  0
   10.1183  -15.8946   20.8040 C   0  0  0  0  0  0  0  0  0  0  0  0
    9.4566  -16.2421   21.8230 O   0  0  0  0  0  0  0  0  0  0  0  0
   11.1618  -16.7399   20.3925 N   0  0  0  0  0  0  0  0  0  0  0  0
   11.4932  -17.9974   21.1048 C   0  0  1  0  0  0  0  0  0  0  0  0
   12.3862  -18.7386   20.1714 C   0  0  0  0  0  0  0  0  0  0  0  0
   12.9712  -20.0115   20.6578 C   0  0  0  0  0  0  0  0  0  0  0  0
   13.5486  -20.7528   19.4767 C   0  0  0  0  0  0  0  0  0  0  0  0
   14.3684  -20.1704   18.7338 O   0  0  0  0  0  0  0  0  0  0  0  0
   12.0690  -17.6825   22.4233 C   0  0  0  0  0  0  0  0  0  0  0  0
   12.8787  -16.6971   22.4915 O   0  0  0  0  0  0  0  0  0  0  0  0
   13.2090  -22.0509   19.1806 O   0  0  0  0  0  0  0  0  0  0  0  0
   13.3727  -20.7453   29.1914 N   0  0  0  0  0  0  0  0  0  0  0  0
   12.4407  -20.1611   30.1018 C   0  0  0  0  0  0  0  0  0  0  0  0
   12.3073  -20.5749   31.3061 N   0  0  0  0  0  0  0  0  0  0  0  0
   11.6166  -19.0713   29.6680 N   0  0  0  0  0  0  0  0  0  0  0  0
   10.9864  -19.0044   28.3672 C   0  0  0  0  0  0  0  0  0  0  0  0
   11.9585  -18.5836   27.3202 C   0  0  0  0  0  0  0  0  0  0  0  0
   11.4591  -18.5038   25.9430 C   0  0  0  0  0  0  0  0  0  0  0  0
   12.4143  -18.0260   24.9038 C   0  0  2  0  0  0  0  0  0  0  0  0
   11.7976  -18.3747   23.6079 N   0  0  0  0  0  0  0  0  0  0  0  0
   13.7362  -18.6864   24.9799 C   0  0  0  0  0  0  0  0  0  0  0  0
   14.6898  -18.1981   25.8647 O   0  0  0  0  0  0  0  0  0  0  0  0
   14.0683  -19.6810   24.2860 O   0  0  0  0  0  0  0  0  0  0  0  0
  2  4  1  0
  2  3  1  1
  2  1  1  0
  5  6  1  6
  5  4  1  0
  7  5  1  0
  8  7  2  0
  9  7  1  0
 10 15  1  0
 10  9  1  0
 10 11  1  6
 12 11  1  0
 13 12  1  0
 14 13  2  0
 15 16  2  0
 17 13  1  0
 18 19  1  0
 19 21  1  0
 20 19  2  0
 21 22  1  0
 23 24  1  0
 23 22  1  0
 25 24  1  1
 25 27  1  0
 26 25  1  0
 26 15  1  0
 27 29  2  0
 27 28  1  0
M  END
$$$$
