LER.pdb
     RDKit          3D

 29 28  0  0  1  0  0  0  0  0999 V2000
    6.0799  -12.1955   24.5237 C   0  0  0  0  0  0  0  0  0  0  0  0
    6.2935  -12.8418   25.8682 C   0  0  2  0  0  0  0  0  0  0  0  0
    6.8777  -11.7609   26.7882 C   0  0  0  0  0  0  0  0  0  0  0  0
    7.2368  -14.0258   25.8135 C   0  0  0  0  0  0  0  0  0  0  0  0
    6.7105  -15.1269   24.9451 C   0  0  2  0  0  0  0  0  0  0  0  0
    5.6057  -15.8046   25.5642 N   0  0  0  0  0  0  0  0  0  0  0  0
    7.8096  -16.0987   24.6769 C   0  0  0  0  0  0  0  0  0  0  0  0
    8.0852  -17.0214   25.4953 O   0  0  0  0  0  0  0  0  0  0  0  0
    8.5794  -16.0243   23.5045 N   0  0  0  0  0  0  0  0  0  0  0  0
    9.5678  -17.0662   23.1357 C   0  0  1  0  0  0  0  0  0  0  0  0
    9.9228  -16.7689   21.7203 C   0  0  0  0  0  0  0  0  0  0  0  0
   11.0247  -17.5564   21.1163 C   0  0  0  0  0  0  0  0  0  0  0  0
   11.1953  -17.1161   19.6828 C   0  0  0  0  0  0  0  0  0  0  0  0
   10.2056  -17.1319   18.9192 O   0  0  0  0  0  0  0  0  0  0  0  0
   10.6879  -17.0465   24.0919 C   0  0  0  0  0  0  0  0  0  0  0  0
   11.0454  -15.9115   24.5559 O   0  0  0  0  0  0  0  0  0  0  0  0
   12.4017  -16.6952   19.1772 O   0  0  0  0  0  0  0  0  0  0  0  0
   12.4032  -22.1162   31.1010 N   0  0  0  0  0  0  0  0  0  0  0  0
   13.2443  -20.9626   31.1249 C   0  0  0  0  0  0  0  0  0  0  0  0
   13.8639  -20.5876   32.1808 N   0  0  0  0  0  0  0  0  0  0  0  0
   13.4120  -20.1848   29.9326 N   0  0  0  0  0  0  0  0  0  0  0  0
   12.4805  -20.1944   28.8254 C   0  0  0  0  0  0  0  0  0  0  0  0
   12.9506  -19.3138   27.7200 C   0  0  0  0  0  0  0  0  0  0  0  0
   11.9736  -18.9740   26.6796 C   0  0  0  0  0  0  0  0  0  0  0  0
   12.4479  -18.1082   25.5633 C   0  0  2  0  0  0  0  0  0  0  0  0
   11.3899  -18.1721   24.5348 N   0  0  0  0  0  0  0  0  0  0  0  0
   13.7122  -18.5804   24.9567 C   0  0  0  0  0  0  0  0  0  0  0  0
   14.9015  -18.4276   25.6590 O   0  0  0  0  0  0  0  0  0  0  0  0
   13.7918  -19.1229   23.8252 O   0  0  0  0  0  0  0  0  0  0  0  0
  2  4  1  0
  2  3  1  1
  2  1  1  0
  5  6  1  1
  5  4  1  0
  7  5  1  0
  8  7  2  0
  9  7  1  0
 10 15  1  0
 10  9  1  0
 10 11  1  6
 12 11  1  0
 13 12  1  0
 14 13  2  0
 15 16  2  0
 17 13  1  0
 18 19  1  0
 19 21  1  0
 20 19  2  0
 21 22  1  0
 23 24  1  0
 23 22  1  0
 25 24  1  1
 25 27  1  0
 26 25  1  0
 26 15  1  0
 27 29  2  0
 27 28  1  0
M  END
$$$$
