YND.pdb
     RDKit          3D

 29 29  0  0  1  0  0  0  0  0999 V2000
   27.0087  -15.5781  -21.8974 O   0  0  0  0  0  0  0  0  0  0  0  0
   27.3829  -14.3948  -21.2966 C   0  0  0  0  0  0  0  0  0  0  0  0
   28.7033  -14.0982  -21.0512 C   0  0  0  0  0  0  0  0  0  0  0  0
   29.1074  -12.9277  -20.4547 C   0  0  0  0  0  0  0  0  0  0  0  0
   28.1671  -11.9800  -20.0692 C   0  0  0  0  0  0  0  0  0  0  0  0
   28.6434  -10.7452  -19.4273 C   0  0  0  0  0  0  0  0  0  0  0  0
   29.4911  -11.0652  -18.1854 C   0  0  2  0  0  0  0  0  0  0  0  0
   28.6795  -11.7718  -17.2256 N   0  0  0  0  0  0  0  0  0  0  0  0
   30.0343   -9.7887  -17.7243 C   0  0  0  0  0  0  0  0  0  0  0  0
   29.3225   -9.1493  -16.8854 O   0  0  0  0  0  0  0  0  0  0  0  0
   26.8455  -12.2726  -20.3129 C   0  0  0  0  0  0  0  0  0  0  0  0
   26.4390  -13.4438  -20.9103 C   0  0  0  0  0  0  0  0  0  0  0  0
   33.8001   -8.4149  -14.8380 N   0  0  0  0  0  0  0  0  0  0  0  0
   33.4736   -8.9681  -16.1130 C   0  0  0  0  0  0  0  0  0  0  0  0
   33.4431  -10.2030  -16.2875 O   0  0  0  0  0  0  0  0  0  0  0  0
   33.1755   -8.0133  -17.2040 C   0  0  0  0  0  0  0  0  0  0  0  0
   31.6863   -7.9854  -17.5448 C   0  0  2  0  0  0  0  0  0  0  0  0
   31.2721   -9.2276  -18.1384 N   0  0  0  0  0  0  0  0  0  0  0  0
   31.4291   -6.8139  -18.3783 C   0  0  0  0  0  0  0  0  0  0  0  0
   31.2687   -6.8660  -19.6211 O   0  0  0  0  0  0  0  0  0  0  0  0
   31.3515   -5.5279  -17.7742 N   0  0  0  0  0  0  0  0  0  0  0  0
   30.9452   -4.3496  -18.5286 C   0  0  1  0  0  0  0  0  0  0  0  0
   29.4758   -4.4909  -18.9193 C   0  0  0  0  0  0  0  0  0  0  0  0
   29.0977   -3.2741  -19.6679 C   0  0  0  0  0  0  0  0  0  0  0  0
   29.8920   -2.7164  -20.4712 O   0  0  0  0  0  0  0  0  0  0  0  0
   31.0754   -3.1494  -17.6794 C   0  0  0  0  0  0  0  0  0  0  0  0
   30.8186   -2.0200  -18.1528 O   0  0  0  0  0  0  0  0  0  0  0  0
   27.8520   -2.6600  -19.5442 O   0  0  0  0  0  0  0  0  0  0  0  0
   31.4768   -3.2132  -16.3531 O   0  0  0  0  0  0  0  0  0  0  0  0
  2  1  1  0
  3  2  2  0
  4  3  1  0
  5 11  1  0
  5  4  2  0
  6  5  1  0
  7  6  1  0
  7  8  1  1
  9 18  1  0
  9  7  1  0
 10  9  2  0
 11 12  2  0
 12  2  1  0
 13 14  1  0
 14 15  2  0
 16 14  1  0
 17 16  1  6
 17 18  1  0
 19 21  1  0
 19 17  1  0
 20 19  2  0
 22 21  1  0
 22 26  1  0
 23 24  1  0
 22 23  1  1
 24 25  2  0
 26 29  1  0
 27 26  2  0
 28 24  1  0
M  END
$$$$
