YND.pdb
     RDKit          3D

 29 29  0  0  1  0  0  0  0  0999 V2000
   28.8883  -19.1032   -3.9147 O   0  0  0  0  0  0  0  0  0  0  0  0
   28.6214  -19.3414   -5.2464 C   0  0  0  0  0  0  0  0  0  0  0  0
   27.7782  -18.5291   -5.9681 C   0  0  0  0  0  0  0  0  0  0  0  0
   27.4929  -18.7404   -7.2959 C   0  0  0  0  0  0  0  0  0  0  0  0
   28.0638  -19.8128   -7.9702 C   0  0  0  0  0  0  0  0  0  0  0  0
   27.7248  -20.0058   -9.3885 C   0  0  0  0  0  0  0  0  0  0  0  0
   26.3826  -20.7407   -9.5358 C   0  0  2  0  0  0  0  0  0  0  0  0
   26.4732  -22.0284   -8.8932 N   0  0  0  0  0  0  0  0  0  0  0  0
   26.0942  -20.7767  -10.9685 C   0  0  0  0  0  0  0  0  0  0  0  0
   26.9333  -21.4031  -11.6915 O   0  0  0  0  0  0  0  0  0  0  0  0
   28.9079  -20.6276   -7.2523 C   0  0  0  0  0  0  0  0  0  0  0  0
   29.1949  -20.4175   -5.9229 C   0  0  0  0  0  0  0  0  0  0  0  0
   25.1185  -22.7528  -14.5047 N   0  0  0  0  0  0  0  0  0  0  0  0
   24.4880  -23.2551  -13.3264 C   0  0  0  0  0  0  0  0  0  0  0  0
   24.3973  -24.4824  -13.1212 O   0  0  0  0  0  0  0  0  0  0  0  0
   23.9549  -22.2578  -12.3715 C   0  0  0  0  0  0  0  0  0  0  0  0
   24.3893  -20.8375  -12.7301 C   0  0  2  0  0  0  0  0  0  0  0  0
   24.9687  -20.1753  -11.5930 N   0  0  0  0  0  0  0  0  0  0  0  0
   23.2421  -20.1387  -13.3034 C   0  0  0  0  0  0  0  0  0  0  0  0
   22.2516  -19.7607  -12.6331 O   0  0  0  0  0  0  0  0  0  0  0  0
   23.2186  -19.8578  -14.6981 N   0  0  0  0  0  0  0  0  0  0  0  0
   22.2034  -18.9963  -15.2898 C   0  0  1  0  0  0  0  0  0  0  0  0
   22.6230  -18.6378  -16.7136 C   0  0  0  0  0  0  0  0  0  0  0  0
   21.6760  -17.6178  -17.2106 C   0  0  0  0  0  0  0  0  0  0  0  0
   21.6305  -17.2922  -18.4268 O   0  0  0  0  0  0  0  0  0  0  0  0
   20.9207  -19.7226  -15.3642 C   0  0  0  0  0  0  0  0  0  0  0  0
   20.9079  -20.9352  -15.6728 O   0  0  0  0  0  0  0  0  0  0  0  0
   20.7743  -16.9486  -16.3840 O   0  0  0  0  0  0  0  0  0  0  0  0
   19.7018  -19.1141  -15.1028 O   0  0  0  0  0  0  0  0  0  0  0  0
  2  1  1  0
  3  2  2  0
  4  3  1  0
  5 11  1  0
  5  4  2  0
  6  5  1  0
  7  6  1  0
  7  8  1  6
  9 18  1  0
  9  7  1  0
 10  9  2  0
 11 12  2  0
 12  2  1  0
 13 14  1  0
 14 15  2  0
 16 14  1  0
 17 16  1  1
 17 18  1  0
 19 21  1  0
 19 17  1  0
 20 19  2  0
 22 21  1  0
 22 26  1  0
 23 24  1  0
 22 23  1  6
 24 25  2  0
 26 29  1  0
 27 26  2  0
 28 24  1  0
M  END
$$$$
