YND.pdb
     RDKit          3D

 29 29  0  0  1  0  0  0  0  0999 V2000
   21.2591  -14.7826  -18.7869 O   0  0  0  0  0  0  0  0  0  0  0  0
   21.0339  -13.6080  -18.1007 C   0  0  0  0  0  0  0  0  0  0  0  0
   21.0382  -12.3896  -18.7387 C   0  0  0  0  0  0  0  0  0  0  0  0
   20.8170  -11.2023  -18.0825 C   0  0  0  0  0  0  0  0  0  0  0  0
   20.5754  -11.1957  -16.7141 C   0  0  0  0  0  0  0  0  0  0  0  0
   20.3514   -9.9018  -16.0512 C   0  0  0  0  0  0  0  0  0  0  0  0
   21.6782   -9.3020  -15.5580 C   0  0  2  0  0  0  0  0  0  0  0  0
   22.2625  -10.1835  -14.5778 N   0  0  0  0  0  0  0  0  0  0  0  0
   21.3631   -7.9572  -15.0793 C   0  0  0  0  0  0  0  0  0  0  0  0
   20.8988   -7.8797  -13.8971 O   0  0  0  0  0  0  0  0  0  0  0  0
   20.5700  -12.4121  -16.0723 C   0  0  0  0  0  0  0  0  0  0  0  0
   20.7911  -13.6018  -16.7276 C   0  0  0  0  0  0  0  0  0  0  0  0
   22.0315   -3.1067  -13.2602 N   0  0  0  0  0  0  0  0  0  0  0  0
   22.0255   -3.2177  -14.6835 C   0  0  0  0  0  0  0  0  0  0  0  0
   21.7382   -2.2389  -15.4018 O   0  0  0  0  0  0  0  0  0  0  0  0
   22.3743   -4.5369  -15.2569 C   0  0  0  0  0  0  0  0  0  0  0  0
   21.2004   -5.5131  -15.1944 C   0  0  2  0  0  0  0  0  0  0  0  0
   21.5359   -6.7606  -15.8254 N   0  0  0  0  0  0  0  0  0  0  0  0
   20.0273   -4.8557  -15.7644 C   0  0  0  0  0  0  0  0  0  0  0  0
   19.6554   -5.0044  -16.9529 O   0  0  0  0  0  0  0  0  0  0  0  0
   19.2435   -3.9919  -14.9495 N   0  0  0  0  0  0  0  0  0  0  0  0
   17.9173   -3.5473  -15.3575 C   0  0  1  0  0  0  0  0  0  0  0  0
   16.9502   -4.7262  -15.2761 C   0  0  0  0  0  0  0  0  0  0  0  0
   15.6138   -4.2301  -15.6660 C   0  0  0  0  0  0  0  0  0  0  0  0
   14.8706   -3.6184  -14.8531 O   0  0  0  0  0  0  0  0  0  0  0  0
   17.4388   -2.5031  -14.4306 C   0  0  0  0  0  0  0  0  0  0  0  0
   16.4183   -1.8373  -14.7149 O   0  0  0  0  0  0  0  0  0  0  0  0
   15.0818   -4.3985  -16.9439 O   0  0  0  0  0  0  0  0  0  0  0  0
   18.0785   -2.2174  -13.2333 O   0  0  0  0  0  0  0  0  0  0  0  0
  2  1  1  0
  3  2  2  0
  4  3  1  0
  5 11  1  0
  5  4  2  0
  6  5  1  0
  7  6  1  0
  7  8  1  1
  9 18  1  0
  9  7  1  0
 10  9  2  0
 11 12  2  0
 12  2  1  0
 13 14  1  0
 14 15  2  0
 16 14  1  0
 17 16  1  6
 17 18  1  0
 19 21  1  0
 19 17  1  0
 20 19  2  0
 22 21  1  0
 22 26  1  0
 23 24  1  0
 22 23  1  1
 24 25  2  0
 26 29  1  0
 27 26  2  0
 28 24  1  0
M  END
$$$$
