YND.pdb
     RDKit          3D

 29 29  0  0  1  0  0  0  0  0999 V2000
   28.5691  -20.1707   -6.6183 O   0  0  0  0  0  0  0  0  0  0  0  0
   27.8782  -20.1611   -7.8116 C   0  0  0  0  0  0  0  0  0  0  0  0
   28.5318  -20.1330   -9.0214 C   0  0  0  0  0  0  0  0  0  0  0  0
   27.8715  -20.1230  -10.2268 C   0  0  0  0  0  0  0  0  0  0  0  0
   26.4825  -20.1411  -10.2619 C   0  0  0  0  0  0  0  0  0  0  0  0
   25.8171  -20.1218  -11.5736 C   0  0  0  0  0  0  0  0  0  0  0  0
   25.4219  -21.5424  -12.0083 C   0  0  2  0  0  0  0  0  0  0  0  0
   26.6134  -22.3382  -12.1704 N   0  0  0  0  0  0  0  0  0  0  0  0
   24.6064  -21.3870  -13.2115 C   0  0  0  0  0  0  0  0  0  0  0  0
   25.2379  -21.3723  -14.3162 O   0  0  0  0  0  0  0  0  0  0  0  0
   25.8249  -20.1695   -9.0541 C   0  0  0  0  0  0  0  0  0  0  0  0
   26.4843  -20.1798   -7.8463 C   0  0  0  0  0  0  0  0  0  0  0  0
   23.6288  -23.6047  -16.0245 N   0  0  0  0  0  0  0  0  0  0  0  0
   23.3916  -24.3142  -14.8085 C   0  0  0  0  0  0  0  0  0  0  0  0
   23.7770  -25.4925  -14.6679 O   0  0  0  0  0  0  0  0  0  0  0  0
   22.6749  -23.5892  -13.7355 C   0  0  0  0  0  0  0  0  0  0  0  0
   22.4413  -22.1231  -14.0971 C   0  0  2  0  0  0  0  0  0  0  0  0
   23.1919  -21.2549  -13.2312 N   0  0  0  0  0  0  0  0  0  0  0  0
   21.0024  -21.8726  -14.0870 C   0  0  0  0  0  0  0  0  0  0  0  0
   20.2258  -22.3127  -13.2059 O   0  0  0  0  0  0  0  0  0  0  0  0
   20.4207  -21.0892  -15.1227 N   0  0  0  0  0  0  0  0  0  0  0  0
   19.6346  -19.8971  -14.8328 C   0  0  1  0  0  0  0  0  0  0  0  0
   20.4844  -18.9271  -14.0151 C   0  0  0  0  0  0  0  0  0  0  0  0
   19.6222  -17.7842  -13.6482 C   0  0  0  0  0  0  0  0  0  0  0  0
   18.4078  -17.7366  -13.9802 O   0  0  0  0  0  0  0  0  0  0  0  0
   19.2693  -19.2265  -16.0958 C   0  0  0  0  0  0  0  0  0  0  0  0
   20.0509  -19.2673  -17.0720 O   0  0  0  0  0  0  0  0  0  0  0  0
   20.0801  -16.6884  -12.9177 O   0  0  0  0  0  0  0  0  0  0  0  0
   18.0757  -18.5382  -16.2577 O   0  0  0  0  0  0  0  0  0  0  0  0
  2  1  1  0
  3  2  2  0
  4  3  1  0
  5 11  1  0
  5  4  2  0
  6  5  1  0
  7  6  1  0
  7  8  1  6
  9 18  1  0
  9  7  1  0
 10  9  2  0
 11 12  2  0
 12  2  1  0
 13 14  1  0
 14 15  2  0
 16 14  1  0
 17 16  1  1
 17 18  1  0
 19 21  1  0
 19 17  1  0
 20 19  2  0
 22 21  1  0
 22 26  1  0
 23 24  1  0
 22 23  1  1
 24 25  2  0
 26 29  1  0
 27 26  2  0
 28 24  1  0
M  END
$$$$
