AHY.pdb
     RDKit          3D

 28 29  0  0  1  0  0  0  0  0999 V2000
   22.7532  -12.4420  -18.5449 C   0  0  0  0  0  0  0  0  0  0  0  0
   24.1611  -12.7877  -18.1744 C   0  0  2  0  0  0  0  0  0  0  0  0
   25.1072  -12.3443  -19.1772 N   0  0  0  0  0  0  0  0  0  0  0  0
   24.3376  -14.2532  -17.9507 C   0  0  0  0  0  0  0  0  0  0  0  0
   24.5012  -15.0504  -18.9171 O   0  0  0  0  0  0  0  0  0  0  0  0
   24.3214  -14.7490  -16.6521 N   0  0  0  0  0  0  0  0  0  0  0  0
   24.6179  -16.1940  -16.3275 C   0  0  1  0  0  0  0  0  0  0  0  0
   25.8806  -16.0795  -15.5455 C   0  0  0  0  0  0  0  0  0  0  0  0
   27.1464  -16.0003  -16.2383 C   0  0  0  0  0  0  0  0  0  0  0  0
   28.0866  -15.0498  -16.4110 C   0  0  0  0  0  0  0  0  0  0  0  0
   29.1453  -15.5338  -17.1143 N   0  0  0  0  0  0  0  0  0  0  0  0
   28.8447  -16.7949  -17.3711 C   0  0  0  0  0  0  0  0  0  0  0  0
   27.6672  -17.1126  -16.8687 N   0  0  0  0  0  0  0  0  0  0  0  0
   23.4766  -16.4943  -15.3808 C   0  0  0  0  0  0  0  0  0  0  0  0
   23.2890  -15.7279  -14.3611 O   0  0  0  0  0  0  0  0  0  0  0  0
   15.4383  -16.3224  -12.4446 O   0  0  0  0  0  0  0  0  0  0  0  0
   16.6674  -16.3216  -13.0926 C   0  0  0  0  0  0  0  0  0  0  0  0
   17.8064  -15.9183  -12.4292 C   0  0  0  0  0  0  0  0  0  0  0  0
   19.0324  -15.9136  -13.0632 C   0  0  0  0  0  0  0  0  0  0  0  0
   19.1843  -16.3064  -14.3770 C   0  0  0  0  0  0  0  0  0  0  0  0
   20.5156  -16.2919  -15.0348 C   0  0  0  0  0  0  0  0  0  0  0  0
   21.2977  -17.5507  -14.7524 C   0  0  2  0  0  0  0  0  0  0  0  0
   22.5665  -17.5518  -15.4991 N   0  0  0  0  0  0  0  0  0  0  0  0
   20.5295  -18.7673  -15.1161 C   0  0  0  0  0  0  0  0  0  0  0  0
   20.4936  -19.2054  -16.2916 O   0  0  0  0  0  0  0  0  0  0  0  0
   18.0371  -16.7097  -15.0360 C   0  0  0  0  0  0  0  0  0  0  0  0
   16.8011  -16.7176  -14.4065 C   0  0  0  0  0  0  0  0  0  0  0  0
   19.8290  -19.4419  -14.1261 O   0  0  0  0  0  0  0  0  0  0  0  0
  2  1  1  6
  2  4  1  0
  3  2  1  0
  4  6  1  0
  5  4  2  0
  6  7  1  0
  7  8  1  1
  9  8  1  0
 10  9  2  0
 11 10  1  0
 12 11  1  0
 12 13  2  0
 13  9  1  0
 14  7  1  0
 14 15  2  0
 16 17  1  0
 17 18  2  0
 17 27  1  0
 18 19  1  0
 19 20  2  0
 20 21  1  0
 22 21  1  6
 22 23  1  0
 22 24  1  0
 23 14  1  0
 24 25  2  0
 24 28  1  0
 26 20  1  0
 27 26  2  0
M  END
$$$$
