AHY.pdb
     RDKit          3D

 28 29  0  0  1  0  0  0  0  0999 V2000
   22.5781  -13.2327  -16.3496 C   0  0  0  0  0  0  0  0  0  0  0  0
   21.1524  -13.2423  -16.8037 C   0  0  2  0  0  0  0  0  0  0  0  0
   20.9580  -14.1020  -17.9528 N   0  0  0  0  0  0  0  0  0  0  0  0
   20.6596  -11.8715  -17.1306 C   0  0  0  0  0  0  0  0  0  0  0  0
   20.8544  -11.3571  -18.2680 O   0  0  0  0  0  0  0  0  0  0  0  0
   19.9725  -11.1478  -16.1629 N   0  0  0  0  0  0  0  0  0  0  0  0
   19.3818   -9.7839  -16.4312 C   0  0  1  0  0  0  0  0  0  0  0  0
   17.9255  -10.0395  -16.2492 C   0  0  0  0  0  0  0  0  0  0  0  0
   17.0827  -10.2312  -17.4073 C   0  0  0  0  0  0  0  0  0  0  0  0
   17.1835   -9.9530  -18.7225 C   0  0  0  0  0  0  0  0  0  0  0  0
   16.1030  -10.4203  -19.4035 N   0  0  0  0  0  0  0  0  0  0  0  0
   15.3366  -10.9908  -18.4904 C   0  0  0  0  0  0  0  0  0  0  0  0
   15.8811  -10.9011  -17.2924 N   0  0  0  0  0  0  0  0  0  0  0  0
   19.9038   -9.0261  -15.2302 C   0  0  0  0  0  0  0  0  0  0  0  0
   19.7914   -9.5527  -14.0587 O   0  0  0  0  0  0  0  0  0  0  0  0
   25.6495   -5.6116  -18.2488 O   0  0  0  0  0  0  0  0  0  0  0  0
   24.8887   -6.0549  -17.1740 C   0  0  0  0  0  0  0  0  0  0  0  0
   24.4863   -7.3712  -17.0989 C   0  0  0  0  0  0  0  0  0  0  0  0
   23.7304   -7.8222  -16.0358 C   0  0  0  0  0  0  0  0  0  0  0  0
   23.3410   -6.9933  -15.0040 C   0  0  0  0  0  0  0  0  0  0  0  0
   22.5278   -7.5050  -13.8717 C   0  0  0  0  0  0  0  0  0  0  0  0
   21.0663   -7.1653  -14.0285 C   0  0  2  0  0  0  0  0  0  0  0  0
   20.5217   -7.7699  -15.2554 N   0  0  0  0  0  0  0  0  0  0  0  0
   20.8464   -5.6985  -14.0818 C   0  0  0  0  0  0  0  0  0  0  0  0
   20.4098   -5.1277  -15.1106 O   0  0  0  0  0  0  0  0  0  0  0  0
   23.7485   -5.6741  -15.0862 C   0  0  0  0  0  0  0  0  0  0  0  0
   24.5082   -5.2124  -16.1510 C   0  0  0  0  0  0  0  0  0  0  0  0
   21.1323   -4.9339  -12.9595 O   0  0  0  0  0  0  0  0  0  0  0  0
  2  1  1  6
  2  4  1  0
  3  2  1  0
  4  6  1  0
  5  4  2  0
  6  7  1  0
  7  8  1  1
  9  8  1  0
 10  9  2  0
 11 10  1  0
 12 11  1  0
 12 13  2  0
 13  9  1  0
 14  7  1  0
 14 15  2  0
 16 17  1  0
 17 18  2  0
 17 27  1  0
 18 19  1  0
 19 20  2  0
 20 21  1  0
 22 21  1  6
 22 23  1  0
 22 24  1  0
 23 14  1  0
 24 25  2  0
 24 28  1  0
 26 20  1  0
 27 26  2  0
M  END
$$$$
