AHY.pdb
     RDKit          3D

 28 29  0  0  1  0  0  0  0  0999 V2000
   15.7309  -12.2635  -18.6580 C   0  0  0  0  0  0  0  0  0  0  0  0
   17.0577  -12.9553  -18.6567 C   0  0  2  0  0  0  0  0  0  0  0  0
   16.9151  -14.3956  -18.6052 N   0  0  0  0  0  0  0  0  0  0  0  0
   17.9207  -12.5093  -17.5231 C   0  0  0  0  0  0  0  0  0  0  0  0
   17.4799  -12.4642  -16.3399 O   0  0  0  0  0  0  0  0  0  0  0  0
   19.2358  -12.1365  -17.7762 N   0  0  0  0  0  0  0  0  0  0  0  0
   20.1775  -11.6794  -16.6875 C   0  0  1  0  0  0  0  0  0  0  0  0
   21.4857  -12.1981  -17.1761 C   0  0  0  0  0  0  0  0  0  0  0  0
   22.7080  -11.7787  -16.5292 C   0  0  0  0  0  0  0  0  0  0  0  0
   23.0148  -10.9982  -15.4737 C   0  0  0  0  0  0  0  0  0  0  0  0
   24.3554  -10.9922  -15.2455 N   0  0  0  0  0  0  0  0  0  0  0  0
   24.8696  -11.7801  -16.1736 C   0  0  0  0  0  0  0  0  0  0  0  0
   23.9264  -12.2678  -16.9561 N   0  0  0  0  0  0  0  0  0  0  0  0
   20.1283  -10.1827  -16.9032 C   0  0  0  0  0  0  0  0  0  0  0  0
   19.8274   -9.7267  -18.0710 O   0  0  0  0  0  0  0  0  0  0  0  0
   18.3369   -1.8592  -17.7978 O   0  0  0  0  0  0  0  0  0  0  0  0
   18.4654   -3.2196  -17.5461 C   0  0  0  0  0  0  0  0  0  0  0  0
   19.3680   -3.9795  -18.2587 C   0  0  0  0  0  0  0  0  0  0  0  0
   19.5039   -5.3316  -18.0167 C   0  0  0  0  0  0  0  0  0  0  0  0
   18.7550   -5.9885  -17.0622 C   0  0  0  0  0  0  0  0  0  0  0  0
   18.9217   -7.4444  -16.8221 C   0  0  0  0  0  0  0  0  0  0  0  0
   20.2825   -7.7706  -16.2581 C   0  0  2  0  0  0  0  0  0  0  0  0
   20.3802   -9.2035  -15.9346 N   0  0  0  0  0  0  0  0  0  0  0  0
   20.5715   -6.9845  -15.0328 C   0  0  0  0  0  0  0  0  0  0  0  0
   20.4169   -7.4629  -13.8830 O   0  0  0  0  0  0  0  0  0  0  0  0
   17.8516   -5.2194  -16.3512 C   0  0  0  0  0  0  0  0  0  0  0  0
   17.7086   -3.8602  -16.5879 C   0  0  0  0  0  0  0  0  0  0  0  0
   21.0268   -5.6800  -15.1620 O   0  0  0  0  0  0  0  0  0  0  0  0
  2  1  1  1
  2  4  1  0
  3  2  1  0
  4  6  1  0
  5  4  2  0
  6  7  1  0
  7  8  1  6
  9  8  1  0
 10  9  2  0
 11 10  1  0
 12 11  1  0
 12 13  2  0
 13  9  1  0
 14  7  1  0
 14 15  2  0
 16 17  1  0
 17 18  2  0
 17 27  1  0
 18 19  1  0
 19 20  2  0
 20 21  1  0
 22 21  1  1
 22 23  1  0
 22 24  1  0
 23 14  1  0
 24 25  2  0
 24 28  1  0
 26 20  1  0
 27 26  2  0
M  END
$$$$
