AHY.pdb
     RDKit          3D

 28 29  0  0  1  0  0  0  0  0999 V2000
   15.7980   -3.7200  -18.1943 C   0  0  0  0  0  0  0  0  0  0  0  0
   16.8988   -4.3423  -18.9941 C   0  0  2  0  0  0  0  0  0  0  0  0
   16.4718   -4.6654  -20.3397 N   0  0  0  0  0  0  0  0  0  0  0  0
   17.4366   -5.5737  -18.3436 C   0  0  0  0  0  0  0  0  0  0  0  0
   16.6881   -6.3483  -17.6832 O   0  0  0  0  0  0  0  0  0  0  0  0
   18.7885   -5.8726  -18.4679 N   0  0  0  0  0  0  0  0  0  0  0  0
   19.3794   -7.1834  -18.0055 C   0  0  1  0  0  0  0  0  0  0  0  0
   20.6162   -7.2703  -18.8312 C   0  0  0  0  0  0  0  0  0  0  0  0
   21.5877   -8.3046  -18.5575 C   0  0  0  0  0  0  0  0  0  0  0  0
   21.6792   -9.3263  -17.6829 C   0  0  0  0  0  0  0  0  0  0  0  0
   22.8044  -10.0576  -17.9039 N   0  0  0  0  0  0  0  0  0  0  0  0
   23.4034   -9.4733  -18.9268 C   0  0  0  0  0  0  0  0  0  0  0  0
   22.7146   -8.4291  -19.3452 N   0  0  0  0  0  0  0  0  0  0  0  0
   19.7579   -6.8196  -16.5865 C   0  0  0  0  0  0  0  0  0  0  0  0
   20.0057   -5.5873  -16.2995 O   0  0  0  0  0  0  0  0  0  0  0  0
   15.8602  -11.4819  -12.0027 O   0  0  0  0  0  0  0  0  0  0  0  0
   16.5961  -10.3613  -12.3681 C   0  0  0  0  0  0  0  0  0  0  0  0
   17.2020   -9.5801  -11.4076 C   0  0  0  0  0  0  0  0  0  0  0  0
   17.9352   -8.4649  -11.7595 C   0  0  0  0  0  0  0  0  0  0  0  0
   18.1003   -8.0754  -13.0726 C   0  0  0  0  0  0  0  0  0  0  0  0
   18.8950   -6.8709  -13.4233 C   0  0  0  0  0  0  0  0  0  0  0  0
   20.1668   -7.2272  -14.1523 C   0  0  2  0  0  0  0  0  0  0  0  0
   19.8685   -7.7094  -15.5110 N   0  0  0  0  0  0  0  0  0  0  0  0
   20.9368   -8.2728  -13.4337 C   0  0  0  0  0  0  0  0  0  0  0  0
   21.3094   -8.1260  -12.2444 O   0  0  0  0  0  0  0  0  0  0  0  0
   17.4895   -8.8642  -14.0306 C   0  0  0  0  0  0  0  0  0  0  0  0
   16.7508   -9.9865  -13.6859 C   0  0  0  0  0  0  0  0  0  0  0  0
   21.2548   -9.4496  -14.0970 O   0  0  0  0  0  0  0  0  0  0  0  0
  2  1  1  1
  2  4  1  0
  3  2  1  0
  4  6  1  0
  5  4  2  0
  6  7  1  0
  7  8  1  6
  9  8  1  0
 10  9  2  0
 11 10  1  0
 12 11  1  0
 12 13  2  0
 13  9  1  0
 14  7  1  0
 14 15  2  0
 16 17  1  0
 17 18  2  0
 17 27  1  0
 18 19  1  0
 19 20  2  0
 20 21  1  0
 22 21  1  1
 22 23  1  0
 22 24  1  0
 23 14  1  0
 24 25  2  0
 24 28  1  0
 26 20  1  0
 27 26  2  0
M  END
$$$$
