AHY.pdb
     RDKit          3D

 28 29  0  0  1  0  0  0  0  0999 V2000
   12.8060   -9.5432  -14.7104 C   0  0  0  0  0  0  0  0  0  0  0  0
   13.7279  -10.3408  -15.5780 C   0  0  2  0  0  0  0  0  0  0  0  0
   13.4741  -11.7626  -15.4710 N   0  0  0  0  0  0  0  0  0  0  0  0
   15.1629  -10.0759  -15.2627 C   0  0  0  0  0  0  0  0  0  0  0  0
   15.5818  -10.0613  -14.0708 O   0  0  0  0  0  0  0  0  0  0  0  0
   16.0548   -9.8407  -16.3027 N   0  0  0  0  0  0  0  0  0  0  0  0
   17.5321   -9.6232  -16.0761 C   0  0  1  0  0  0  0  0  0  0  0  0
   18.1332  -10.6751  -16.9429 C   0  0  0  0  0  0  0  0  0  0  0  0
   18.1955  -12.0401  -16.4723 C   0  0  0  0  0  0  0  0  0  0  0  0
   17.4518  -13.1503  -16.6508 C   0  0  0  0  0  0  0  0  0  0  0  0
   18.0079  -14.2165  -16.0156 N   0  0  0  0  0  0  0  0  0  0  0  0
   19.1040  -13.7482  -15.4449 C   0  0  0  0  0  0  0  0  0  0  0  0
   19.2531  -12.4611  -15.6912 N   0  0  0  0  0  0  0  0  0  0  0  0
   17.7085   -8.2757  -16.7411 C   0  0  0  0  0  0  0  0  0  0  0  0
   17.3337   -8.1265  -17.9657 O   0  0  0  0  0  0  0  0  0  0  0  0
   13.8072   -3.2647  -13.1864 O   0  0  0  0  0  0  0  0  0  0  0  0
   14.5768   -3.8087  -14.2074 C   0  0  0  0  0  0  0  0  0  0  0  0
   15.4905   -3.0296  -14.8843 C   0  0  0  0  0  0  0  0  0  0  0  0
   16.2600   -3.5598  -15.9001 C   0  0  0  0  0  0  0  0  0  0  0  0
   16.1595   -4.8796  -16.2890 C   0  0  0  0  0  0  0  0  0  0  0  0
   17.0002   -5.4244  -17.3852 C   0  0  0  0  0  0  0  0  0  0  0  0
   18.3560   -5.8639  -16.8906 C   0  0  2  0  0  0  0  0  0  0  0  0
   18.2516   -7.1301  -16.1468 N   0  0  0  0  0  0  0  0  0  0  0  0
   18.9762   -4.8432  -16.0096 C   0  0  0  0  0  0  0  0  0  0  0  0
   19.2418   -5.0760  -14.8054 O   0  0  0  0  0  0  0  0  0  0  0  0
   15.2407   -5.6551  -15.6052 C   0  0  0  0  0  0  0  0  0  0  0  0
   14.4633   -5.1305  -14.5833 C   0  0  0  0  0  0  0  0  0  0  0  0
   19.2718   -3.5924  -16.5331 O   0  0  0  0  0  0  0  0  0  0  0  0
  2  1  1  1
  2  4  1  0
  3  2  1  0
  4  6  1  0
  5  4  2  0
  6  7  1  0
  7  8  1  6
  9  8  1  0
 10  9  2  0
 11 10  1  0
 12 11  1  0
 12 13  2  0
 13  9  1  0
 14  7  1  0
 14 15  2  0
 16 17  1  0
 17 18  2  0
 17 27  1  0
 18 19  1  0
 19 20  2  0
 20 21  1  0
 22 21  1  1
 22 23  1  0
 22 24  1  0
 23 14  1  0
 24 25  2  0
 24 28  1  0
 26 20  1  0
 27 26  2  0
M  END
$$$$
