AHY.pdb
     RDKit          3D

 28 29  0  0  1  0  0  0  0  0999 V2000
   15.5782  -10.8610  -15.7167 C   0  0  0  0  0  0  0  0  0  0  0  0
   16.7597  -11.6738  -16.1434 C   0  0  2  0  0  0  0  0  0  0  0  0
   16.5998  -13.0742  -15.8105 N   0  0  0  0  0  0  0  0  0  0  0  0
   18.0312  -11.1716  -15.5434 C   0  0  0  0  0  0  0  0  0  0  0  0
   18.3147  -11.3847  -14.3307 O   0  0  0  0  0  0  0  0  0  0  0  0
   18.9200  -10.4550  -16.3364 N   0  0  0  0  0  0  0  0  0  0  0  0
   20.2242   -9.9065  -15.8078 C   0  0  1  0  0  0  0  0  0  0  0  0
   21.1650  -10.2316  -16.9162 C   0  0  0  0  0  0  0  0  0  0  0  0
   22.5231   -9.7399  -16.8689 C   0  0  0  0  0  0  0  0  0  0  0  0
   23.2551   -9.0295  -15.9875 C   0  0  0  0  0  0  0  0  0  0  0  0
   24.5388   -8.8957  -16.4162 N   0  0  0  0  0  0  0  0  0  0  0  0
   24.5875   -9.5341  -17.5723 C   0  0  0  0  0  0  0  0  0  0  0  0
   23.4127  -10.0500  -17.8780 N   0  0  0  0  0  0  0  0  0  0  0  0
   19.9214   -8.4244  -15.8363 C   0  0  0  0  0  0  0  0  0  0  0  0
   19.4350   -7.9039  -16.9110 O   0  0  0  0  0  0  0  0  0  0  0  0
   17.3879   -7.1341   -9.1026 O   0  0  0  0  0  0  0  0  0  0  0  0
   17.6414   -6.7856  -10.4235 C   0  0  0  0  0  0  0  0  0  0  0  0
   17.5197   -7.7212  -11.4284 C   0  0  0  0  0  0  0  0  0  0  0  0
   17.7692   -7.3857  -12.7439 C   0  0  0  0  0  0  0  0  0  0  0  0
   18.1486   -6.1141  -13.1210 C   0  0  0  0  0  0  0  0  0  0  0  0
   18.4106   -5.7802  -14.5441 C   0  0  0  0  0  0  0  0  0  0  0  0
   19.8322   -6.0893  -14.9432 C   0  0  2  0  0  0  0  0  0  0  0  0
   20.1162   -7.5247  -14.7813 N   0  0  0  0  0  0  0  0  0  0  0  0
   20.8092   -5.3161  -14.1367 C   0  0  0  0  0  0  0  0  0  0  0  0
   21.6503   -5.8768  -13.3930 O   0  0  0  0  0  0  0  0  0  0  0  0
   18.2687   -5.1808  -12.1073 C   0  0  0  0  0  0  0  0  0  0  0  0
   18.0199   -5.5093  -10.7828 C   0  0  0  0  0  0  0  0  0  0  0  0
   20.7925   -3.9302  -14.2068 O   0  0  0  0  0  0  0  0  0  0  0  0
  2  1  1  1
  2  4  1  0
  3  2  1  0
  4  6  1  0
  5  4  2  0
  6  7  1  0
  7  8  1  6
  9  8  1  0
 10  9  2  0
 11 10  1  0
 12 11  1  0
 12 13  2  0
 13  9  1  0
 14  7  1  0
 14 15  2  0
 16 17  1  0
 17 18  2  0
 17 27  1  0
 18 19  1  0
 19 20  2  0
 20 21  1  0
 22 21  1  1
 22 23  1  0
 22 24  1  0
 23 14  1  0
 24 25  2  0
 24 28  1  0
 26 20  1  0
 27 26  2  0
M  END
$$$$
