WCM.pdb
     RDKit          3D

 29 30  0  0  1  0  0  0  0  0999 V2000
    6.6809  -18.4390   24.5432 N   0  0  0  0  0  0  0  0  0  0  0  0
    7.1204  -17.5996   23.4501 C   0  0  1  0  0  0  0  0  0  0  0  0
    6.4870  -16.2864   23.3171 C   0  0  0  0  0  0  0  0  0  0  0  0
    6.3312  -15.4035   24.4254 C   0  0  0  0  0  0  0  0  0  0  0  0
    5.8404  -15.7664   25.6705 C   0  0  0  0  0  0  0  0  0  0  0  0
    5.8128  -14.7081   26.4617 N   0  0  0  0  0  0  0  0  0  0  0  0
    6.2678  -13.6158   25.8131 C   0  0  0  0  0  0  0  0  0  0  0  0
    6.4500  -12.2923   26.1524 C   0  0  0  0  0  0  0  0  0  0  0  0
    6.9551  -11.4090   25.2204 C   0  0  0  0  0  0  0  0  0  0  0  0
    7.2765  -11.8540   23.9514 C   0  0  0  0  0  0  0  0  0  0  0  0
    7.0987  -13.1788   23.5977 C   0  0  0  0  0  0  0  0  0  0  0  0
    6.5937  -14.0630   24.5269 C   0  0  0  0  0  0  0  0  0  0  0  0
    8.5912  -17.6140   23.2669 C   0  0  0  0  0  0  0  0  0  0  0  0
    9.2793  -17.9866   24.2607 O   0  0  0  0  0  0  0  0  0  0  0  0
    9.2921  -17.2565   22.1021 N   0  0  0  0  0  0  0  0  0  0  0  0
   10.7240  -17.1488   22.0081 C   0  0  1  0  0  0  0  0  0  0  0  0
   11.0259  -16.6092   20.6131 C   0  0  0  0  0  0  0  0  0  0  0  0
   12.8503  -16.6885   20.4440 S   0  0  0  0  0  0  0  0  0  0  0  0
   11.3127  -16.3125   23.0724 C   0  0  0  0  0  0  0  0  0  0  0  0
   11.1521  -15.0682   22.9841 O   0  0  0  0  0  0  0  0  0  0  0  0
   10.8096  -13.6590   28.7582 C   0  0  0  0  0  0  0  0  0  0  0  0
   10.2283  -15.2529   28.1660 S   0  0  0  0  0  0  0  0  0  0  0  0
   10.8152  -15.6509   26.5369 C   0  0  0  0  0  0  0  0  0  0  0  0
   12.2229  -16.0310   26.3711 C   0  0  0  0  0  0  0  0  0  0  0  0
   12.8809  -15.9454   25.0460 C   0  0  2  0  0  0  0  0  0  0  0  0
   12.0347  -16.8068   24.1690 N   0  0  0  0  0  0  0  0  0  0  0  0
   14.2466  -16.4953   25.0711 C   0  0  0  0  0  0  0  0  0  0  0  0
   15.2649  -15.9351   25.5204 O   0  0  0  0  0  0  0  0  0  0  0  0
   14.4875  -17.7877   24.5454 O   0  0  0  0  0  0  0  0  0  0  0  0
  2  3  1  0
  2  1  1  1
  2 13  1  0
  4  3  1  0
  4 12  1  0
  5  6  1  0
  5  4  2  0
  6  7  1  0
  7 12  2  0
  7  8  1  0
  8  9  2  0
  9 10  1  0
 11 10  2  0
 12 11  1  0
 13 14  2  0
 15 13  1  0
 15 16  1  0
 16 17  1  6
 18 17  1  0
 19 16  1  0
 19 20  2  0
 22 21  1  0
 23 22  1  0
 23 24  1  0
 25 24  1  1
 25 26  1  0
 25 27  1  0
 26 19  1  0
 27 29  1  0
 28 27  2  0
M  END
$$$$
