WCM.pdb
     RDKit          3D

 29 30  0  0  1  0  0  0  0  0999 V2000
    8.9619  -16.0260   25.8443 N   0  0  0  0  0  0  0  0  0  0  0  0
    8.2408  -16.7563   24.8248 C   0  0  1  0  0  0  0  0  0  0  0  0
    7.2482  -16.0148   24.0448 C   0  0  0  0  0  0  0  0  0  0  0  0
    7.2481  -14.5911   23.9745 C   0  0  0  0  0  0  0  0  0  0  0  0
    7.7054  -13.8463   22.8979 C   0  0  0  0  0  0  0  0  0  0  0  0
    7.5768  -12.5580   23.1636 N   0  0  0  0  0  0  0  0  0  0  0  0
    7.0448  -12.3749   24.3900 C   0  0  0  0  0  0  0  0  0  0  0  0
    6.7046  -11.2727   25.1447 C   0  0  0  0  0  0  0  0  0  0  0  0
    6.1606  -11.4437   26.4012 C   0  0  0  0  0  0  0  0  0  0  0  0
    5.9586  -12.7181   26.8980 C   0  0  0  0  0  0  0  0  0  0  0  0
    6.2953  -13.8323   26.1517 C   0  0  0  0  0  0  0  0  0  0  0  0
    6.8395  -13.6640   24.8964 C   0  0  0  0  0  0  0  0  0  0  0  0
    9.1114  -17.6645   24.0410 C   0  0  0  0  0  0  0  0  0  0  0  0
    9.3632  -17.3162   22.8513 O   0  0  0  0  0  0  0  0  0  0  0  0
    9.6820  -18.8684   24.4888 N   0  0  0  0  0  0  0  0  0  0  0  0
   11.0667  -19.2273   24.3316 C   0  0  1  0  0  0  0  0  0  0  0  0
   11.5462  -18.5486   23.0518 C   0  0  0  0  0  0  0  0  0  0  0  0
   13.2671  -19.1326   22.8056 S   0  0  0  0  0  0  0  0  0  0  0  0
   11.8938  -18.8689   25.5003 C   0  0  0  0  0  0  0  0  0  0  0  0
   12.7649  -17.9760   25.3390 O   0  0  0  0  0  0  0  0  0  0  0  0
   10.4592  -14.7226   26.9603 C   0  0  0  0  0  0  0  0  0  0  0  0
   10.2298  -15.1679   28.6860 S   0  0  0  0  0  0  0  0  0  0  0  0
   10.0655  -16.9185   28.9413 C   0  0  0  0  0  0  0  0  0  0  0  0
   10.4995  -17.8276   27.8742 C   0  0  0  0  0  0  0  0  0  0  0  0
   11.7169  -18.6574   28.0328 C   0  0  2  0  0  0  0  0  0  0  0  0
   11.7764  -19.4520   26.7708 N   0  0  0  0  0  0  0  0  0  0  0  0
   11.6079  -19.5861   29.1702 C   0  0  0  0  0  0  0  0  0  0  0  0
   11.6906  -19.2937   30.3786 O   0  0  0  0  0  0  0  0  0  0  0  0
   11.3864  -20.9633   28.9271 O   0  0  0  0  0  0  0  0  0  0  0  0
  2  3  1  0
  2  1  1  6
  2 13  1  0
  4  3  1  0
  4 12  1  0
  5  6  1  0
  5  4  2  0
  6  7  1  0
  7 12  2  0
  7  8  1  0
  8  9  2  0
  9 10  1  0
 11 10  2  0
 12 11  1  0
 13 14  2  0
 15 13  1  0
 15 16  1  0
 16 17  1  6
 18 17  1  0
 19 16  1  0
 19 20  2  0
 22 21  1  0
 23 22  1  0
 23 24  1  0
 25 24  1  6
 25 26  1  0
 25 27  1  0
 26 19  1  0
 27 29  1  0
 28 27  2  0
M  END
$$$$
