WCM.pdb
     RDKit          3D

 29 30  0  0  1  0  0  0  0  0999 V2000
    6.1504  -18.0965   24.9322 N   0  0  0  0  0  0  0  0  0  0  0  0
    6.8851  -16.9363   24.4775 C   0  0  1  0  0  0  0  0  0  0  0  0
    7.4297  -16.0438   25.5023 C   0  0  0  0  0  0  0  0  0  0  0  0
    6.7230  -14.8935   25.9597 C   0  0  0  0  0  0  0  0  0  0  0  0
    5.4244  -14.8970   26.4461 C   0  0  0  0  0  0  0  0  0  0  0  0
    5.0687  -13.6659   26.7692 N   0  0  0  0  0  0  0  0  0  0  0  0
    6.0742  -12.7996   26.5258 C   0  0  0  0  0  0  0  0  0  0  0  0
    6.2399  -11.4394   26.6755 C   0  0  0  0  0  0  0  0  0  0  0  0
    7.4366  -10.8514   26.3203 C   0  0  0  0  0  0  0  0  0  0  0  0
    8.4639  -11.6275   25.8164 C   0  0  0  0  0  0  0  0  0  0  0  0
    8.3112  -12.9929   25.6610 C   0  0  0  0  0  0  0  0  0  0  0  0
    7.1164  -13.5825   26.0146 C   0  0  0  0  0  0  0  0  0  0  0  0
    7.7993  -17.2377   23.3504 C   0  0  0  0  0  0  0  0  0  0  0  0
    8.6075  -18.1958   23.5210 O   0  0  0  0  0  0  0  0  0  0  0  0
    7.8551  -16.5666   22.1166 N   0  0  0  0  0  0  0  0  0  0  0  0
    9.0178  -16.5012   21.2712 C   0  0  1  0  0  0  0  0  0  0  0  0
    8.6423  -15.6137   20.0882 C   0  0  0  0  0  0  0  0  0  0  0  0
   10.1203  -15.5975   19.0025 S   0  0  0  0  0  0  0  0  0  0  0  0
   10.2200  -16.0163   21.9769 C   0  0  0  0  0  0  0  0  0  0  0  0
   10.3294  -14.7745   22.1445 O   0  0  0  0  0  0  0  0  0  0  0  0
   10.1559  -13.4350   26.3290 C   0  0  0  0  0  0  0  0  0  0  0  0
   11.5089  -14.4314   26.9657 S   0  0  0  0  0  0  0  0  0  0  0  0
   12.3799  -15.3211   25.6982 C   0  0  0  0  0  0  0  0  0  0  0  0
   11.6374  -15.7576   24.5100 C   0  0  0  0  0  0  0  0  0  0  0  0
   12.3442  -16.3402   23.3452 C   0  0  2  0  0  0  0  0  0  0  0  0
   11.2430  -16.8397   22.4704 N   0  0  0  0  0  0  0  0  0  0  0  0
   13.1953  -17.4790   23.7287 C   0  0  0  0  0  0  0  0  0  0  0  0
   12.8360  -18.6654   23.8551 O   0  0  0  0  0  0  0  0  0  0  0  0
   14.5697  -17.2645   23.9925 O   0  0  0  0  0  0  0  0  0  0  0  0
  2  3  1  0
  2  1  1  1
  2 13  1  0
  4  3  1  0
  4 12  1  0
  5  6  1  0
  5  4  2  0
  6  7  1  0
  7 12  2  0
  7  8  1  0
  8  9  2  0
  9 10  1  0
 11 10  2  0
 12 11  1  0
 13 14  2  0
 15 13  1  0
 15 16  1  0
 16 17  1  6
 18 17  1  0
 19 16  1  0
 19 20  2  0
 22 21  1  0
 23 22  1  0
 23 24  1  0
 25 24  1  1
 25 26  1  0
 25 27  1  0
 26 19  1  0
 27 29  1  0
 28 27  2  0
M  END
$$$$
