WCM.pdb
     RDKit          3D

 29 30  0  0  1  0  0  0  0  0999 V2000
    5.9688  -18.5163   24.2260 N   0  0  0  0  0  0  0  0  0  0  0  0
    6.7959  -17.3428   24.0486 C   0  0  1  0  0  0  0  0  0  0  0  0
    7.3056  -16.6932   25.2576 C   0  0  0  0  0  0  0  0  0  0  0  0
    6.7144  -15.5102   25.7897 C   0  0  0  0  0  0  0  0  0  0  0  0
    5.4233  -15.4189   26.2874 C   0  0  0  0  0  0  0  0  0  0  0  0
    5.1887  -14.1812   26.6869 N   0  0  0  0  0  0  0  0  0  0  0  0
    6.2719  -13.4020   26.4862 C   0  0  0  0  0  0  0  0  0  0  0  0
    6.5681  -12.0754   26.7155 C   0  0  0  0  0  0  0  0  0  0  0  0
    7.8144  -11.5842   26.3847 C   0  0  0  0  0  0  0  0  0  0  0  0
    8.7605  -12.4232   25.8255 C   0  0  0  0  0  0  0  0  0  0  0  0
    8.4767  -13.7558   25.5901 C   0  0  0  0  0  0  0  0  0  0  0  0
    7.2321  -14.2487   25.9192 C   0  0  0  0  0  0  0  0  0  0  0  0
    7.7775  -17.4899   22.9477 C   0  0  0  0  0  0  0  0  0  0  0  0
    8.4756  -18.5448   22.9522 O   0  0  0  0  0  0  0  0  0  0  0  0
    8.0067  -16.5763   21.9044 N   0  0  0  0  0  0  0  0  0  0  0  0
    9.2352  -16.4710   21.1625 C   0  0  1  0  0  0  0  0  0  0  0  0
    9.0166  -15.3813   20.1171 C   0  0  0  0  0  0  0  0  0  0  0  0
    8.6429  -13.8595   21.0700 S   0  0  0  0  0  0  0  0  0  0  0  0
   10.4068  -16.2002   22.0184 C   0  0  0  0  0  0  0  0  0  0  0  0
   11.5402  -16.2369   21.4741 O   0  0  0  0  0  0  0  0  0  0  0  0
   11.1492  -12.4646   28.2562 C   0  0  0  0  0  0  0  0  0  0  0  0
   11.1126  -14.2577   28.1452 S   0  0  0  0  0  0  0  0  0  0  0  0
   11.8518  -14.8821   26.6551 C   0  0  0  0  0  0  0  0  0  0  0  0
   11.0025  -15.0623   25.4720 C   0  0  0  0  0  0  0  0  0  0  0  0
   11.5521  -15.6445   24.2250 C   0  0  2  0  0  0  0  0  0  0  0  0
   10.3441  -15.9068   23.3888 N   0  0  0  0  0  0  0  0  0  0  0  0
   12.2429  -16.9217   24.4695 C   0  0  0  0  0  0  0  0  0  0  0  0
   11.7398  -18.0604   24.4165 O   0  0  0  0  0  0  0  0  0  0  0  0
   13.6191  -16.9174   24.8022 O   0  0  0  0  0  0  0  0  0  0  0  0
  2  3  1  0
  2  1  1  1
  2 13  1  0
  4  3  1  0
  4 12  1  0
  5  6  1  0
  5  4  2  0
  6  7  1  0
  7 12  2  0
  7  8  1  0
  8  9  2  0
  9 10  1  0
 11 10  2  0
 12 11  1  0
 13 14  2  0
 15 13  1  0
 15 16  1  0
 16 17  1  6
 18 17  1  0
 19 16  1  0
 19 20  2  0
 22 21  1  0
 23 22  1  0
 23 24  1  0
 25 24  1  1
 25 26  1  0
 25 27  1  0
 26 19  1  0
 27 29  1  0
 28 27  2  0
M  END
$$$$
