WCM.pdb
     RDKit          3D

 29 30  0  0  1  0  0  0  0  0999 V2000
    6.9994  -18.4494   22.5060 N   0  0  0  0  0  0  0  0  0  0  0  0
    7.3266  -17.1961   21.8620 C   0  0  1  0  0  0  0  0  0  0  0  0
    6.6433  -15.9953   22.3464 C   0  0  0  0  0  0  0  0  0  0  0  0
    6.4348  -15.7492   23.7349 C   0  0  0  0  0  0  0  0  0  0  0  0
    5.8690  -16.6472   24.6273 C   0  0  0  0  0  0  0  0  0  0  0  0
    5.8088  -16.0998   25.8287 N   0  0  0  0  0  0  0  0  0  0  0  0
    6.3135  -14.8485   25.8084 C   0  0  0  0  0  0  0  0  0  0  0  0
    6.4920  -13.8595   26.7519 C   0  0  0  0  0  0  0  0  0  0  0  0
    7.0604  -12.6569   26.3850 C   0  0  0  0  0  0  0  0  0  0  0  0
    7.4487  -12.4485   25.0746 C   0  0  0  0  0  0  0  0  0  0  0  0
    7.2756  -13.4319   24.1182 C   0  0  0  0  0  0  0  0  0  0  0  0
    6.7073  -14.6339   24.4820 C   0  0  0  0  0  0  0  0  0  0  0  0
    8.7787  -17.0391   21.6092 C   0  0  0  0  0  0  0  0  0  0  0  0
    9.1255  -16.0377   20.9186 O   0  0  0  0  0  0  0  0  0  0  0  0
    9.8026  -17.8899   22.0602 N   0  0  0  0  0  0  0  0  0  0  0  0
   11.1356  -17.4626   22.3937 C   0  0  1  0  0  0  0  0  0  0  0  0
   11.5536  -16.4691   21.3137 C   0  0  0  0  0  0  0  0  0  0  0  0
   13.3677  -16.2780   21.5027 S   0  0  0  0  0  0  0  0  0  0  0  0
   11.2378  -16.8916   23.7509 C   0  0  0  0  0  0  0  0  0  0  0  0
   10.1791  -16.4640   24.2786 O   0  0  0  0  0  0  0  0  0  0  0  0
   10.2341  -12.3087   28.9228 C   0  0  0  0  0  0  0  0  0  0  0  0
   10.4052  -13.0355   27.2884 S   0  0  0  0  0  0  0  0  0  0  0  0
   11.3962  -14.5102   27.2782 C   0  0  0  0  0  0  0  0  0  0  0  0
   11.6355  -15.1865   25.9980 C   0  0  0  0  0  0  0  0  0  0  0  0
   12.4654  -16.4124   25.9310 C   0  0  2  0  0  0  0  0  0  0  0  0
   12.4271  -16.7932   24.4885 N   0  0  0  0  0  0  0  0  0  0  0  0
   11.8914  -17.5119   26.7245 C   0  0  0  0  0  0  0  0  0  0  0  0
   12.4250  -18.0863   27.6931 O   0  0  0  0  0  0  0  0  0  0  0  0
   10.6056  -18.0081   26.4005 O   0  0  0  0  0  0  0  0  0  0  0  0
  2  3  1  0
  2  1  1  1
  2 13  1  0
  4  3  1  0
  4 12  1  0
  5  6  1  0
  5  4  2  0
  6  7  1  0
  7 12  2  0
  7  8  1  0
  8  9  2  0
  9 10  1  0
 11 10  2  0
 12 11  1  0
 13 14  2  0
 15 13  1  0
 15 16  1  0
 16 17  1  6
 18 17  1  0
 19 16  1  0
 19 20  2  0
 22 21  1  0
 23 22  1  0
 23 24  1  0
 25 24  1  6
 25 26  1  0
 25 27  1  0
 26 19  1  0
 27 29  1  0
 28 27  2  0
M  END
$$$$
