WCM.pdb
     RDKit          3D

 29 30  0  0  1  0  0  0  0  0999 V2000
    6.9732  -17.8191   24.6277 N   0  0  0  0  0  0  0  0  0  0  0  0
    7.7550  -16.7326   24.0790 C   0  0  1  0  0  0  0  0  0  0  0  0
    7.9766  -15.5667   24.9364 C   0  0  0  0  0  0  0  0  0  0  0  0
    6.9081  -14.7258   25.3643 C   0  0  0  0  0  0  0  0  0  0  0  0
    5.7361  -15.1671   25.9600 C   0  0  0  0  0  0  0  0  0  0  0  0
    4.9537  -14.1337   26.2180 N   0  0  0  0  0  0  0  0  0  0  0  0
    5.5378  -12.9831   25.8235 C   0  0  0  0  0  0  0  0  0  0  0  0
    5.1783  -11.6528   25.8545 C   0  0  0  0  0  0  0  0  0  0  0  0
    6.0395  -10.6981   25.3535 C   0  0  0  0  0  0  0  0  0  0  0  0
    7.2583  -11.0787   24.8232 C   0  0  0  0  0  0  0  0  0  0  0  0
    7.6315  -12.4095   24.7859 C   0  0  0  0  0  0  0  0  0  0  0  0
    6.7726  -13.3651   25.2852 C   0  0  0  0  0  0  0  0  0  0  0  0
    8.9437  -17.1998   23.3268 C   0  0  0  0  0  0  0  0  0  0  0  0
    9.4027  -18.3344   23.6462 O   0  0  0  0  0  0  0  0  0  0  0  0
    9.6067  -16.5087   22.2980 N   0  0  0  0  0  0  0  0  0  0  0  0
   10.9922  -16.6864   21.9520 C   0  0  1  0  0  0  0  0  0  0  0  0
   11.2796  -15.7181   20.8084 C   0  0  0  0  0  0  0  0  0  0  0  0
    9.9598  -16.0194   19.5711 S   0  0  0  0  0  0  0  0  0  0  0  0
   11.9042  -16.4900   23.0958 C   0  0  0  0  0  0  0  0  0  0  0  0
   12.9695  -15.8561   22.8825 O   0  0  0  0  0  0  0  0  0  0  0  0
   10.6790  -12.7896   28.2456 C   0  0  0  0  0  0  0  0  0  0  0  0
   11.6693  -14.2883   28.2021 S   0  0  0  0  0  0  0  0  0  0  0  0
   11.3280  -15.3123   26.7908 C   0  0  0  0  0  0  0  0  0  0  0  0
   11.9973  -16.6144   26.6896 C   0  0  0  0  0  0  0  0  0  0  0  0
   12.7181  -17.0030   25.4546 C   0  0  2  0  0  0  0  0  0  0  0  0
   11.6666  -16.9589   24.3965 N   0  0  0  0  0  0  0  0  0  0  0  0
   13.2503  -18.3736   25.5339 C   0  0  0  0  0  0  0  0  0  0  0  0
   12.7686  -19.3898   24.9971 O   0  0  0  0  0  0  0  0  0  0  0  0
   14.4265  -18.6227   26.2816 O   0  0  0  0  0  0  0  0  0  0  0  0
  2  3  1  0
  2  1  1  1
  2 13  1  0
  4  3  1  0
  4 12  1  0
  5  6  1  0
  5  4  2  0
  6  7  1  0
  7 12  2  0
  7  8  1  0
  8  9  2  0
  9 10  1  0
 11 10  2  0
 12 11  1  0
 13 14  2  0
 15 13  1  0
 15 16  1  0
 16 17  1  6
 18 17  1  0
 19 16  1  0
 19 20  2  0
 22 21  1  0
 23 22  1  0
 23 24  1  0
 25 24  1  1
 25 26  1  0
 25 27  1  0
 26 19  1  0
 27 29  1  0
 28 27  2  0
M  END
$$$$
