RGM.pdb
     RDKit          3D

 24 23  0  0  1  0  0  0  0  0999 V2000
   21.3267  -26.3268  -16.0431 N   0  0  0  0  0  0  0  0  0  0  0  0
   21.6388  -26.2171  -14.6424 C   0  0  0  0  0  0  0  0  0  0  0  0
   22.4294  -27.0724  -14.1338 N   0  0  0  0  0  0  0  0  0  0  0  0
   21.0748  -25.1844  -13.8555 N   0  0  0  0  0  0  0  0  0  0  0  0
   20.2087  -24.1899  -14.4068 C   0  0  0  0  0  0  0  0  0  0  0  0
   20.9560  -23.0738  -15.1399 C   0  0  0  0  0  0  0  0  0  0  0  0
   21.8385  -22.4244  -14.1253 C   0  0  0  0  0  0  0  0  0  0  0  0
   21.4968  -20.9881  -13.9158 C   0  0  2  0  0  0  0  0  0  0  0  0
   20.0941  -20.8390  -13.5355 N   0  0  0  0  0  0  0  0  0  0  0  0
   21.7682  -20.1062  -15.0716 C   0  0  0  0  0  0  0  0  0  0  0  0
   21.0121  -19.1498  -15.3833 O   0  0  0  0  0  0  0  0  0  0  0  0
   22.6681  -27.0994  -13.1223 N   0  0  0  0  0  0  0  0  0  0  0  0
   22.9312  -20.3119  -15.9009 C   0  0  0  0  0  0  0  0  0  0  0  0
   23.7623  -19.1792  -16.1868 C   0  0  0  0  0  0  0  0  0  0  0  0
   25.1375  -19.3210  -15.6677 O   0  0  0  0  0  0  0  0  0  0  0  0
   26.0473  -18.4906  -15.9302 C   0  0  0  0  0  0  0  0  0  0  0  0
   24.5308  -21.4457  -10.5401 S   0  0  0  0  0  0  0  0  0  0  0  0
   26.0545  -20.5131  -10.2922 C   0  0  0  0  0  0  0  0  0  0  0  0
   26.6398  -19.9126  -11.9293 C   0  0  0  0  0  0  0  0  0  0  0  0
   26.7394  -21.0570  -12.8825 C   0  0  2  0  0  0  0  0  0  0  0  0
   26.8296  -20.6148  -14.3013 N   0  0  0  0  0  0  0  0  0  0  0  0
   25.4654  -20.4206  -14.8453 C   0  0  0  0  0  0  0  0  0  0  0  0
   27.4785  -21.6029  -15.1744 O   0  0  0  0  0  0  0  0  0  0  0  0
   28.7197  -21.6543  -15.2628 O   0  0  0  0  0  0  0  0  0  0  0  0
  2  1  1  0
  2  3  2  0
  4  2  1  0
  5  4  1  0
  6  7  1  0
  6  5  1  0
  7  8  1  0
  8  9  1  6
 10  8  1  0
 10 12  1  0
 11 10  2  0
 13 12  1  0
 14 13  1  0
 15 14  2  0
 17 16  1  0
 18 17  1  0
 19 18  1  0
 20 21  1  0
 20 19  1  1
 21 14  1  0
 22 20  1  0
 23 22  2  0
 24 22  1  0
M  END
$$$$
