RGM.pdb
     RDKit          3D

 24 23  0  0  1  0  0  0  0  0999 V2000
   27.8623  -20.6072  -13.0150 N   0  0  0  0  0  0  0  0  0  0  0  0
   27.0907  -20.6348  -14.2297 C   0  0  0  0  0  0  0  0  0  0  0  0
   26.4283  -21.6859  -14.4972 N   0  0  0  0  0  0  0  0  0  0  0  0
   27.0763  -19.5198  -15.1016 N   0  0  0  0  0  0  0  0  0  0  0  0
   27.5385  -18.2286  -14.6989 C   0  0  0  0  0  0  0  0  0  0  0  0
   26.4104  -17.2120  -14.5110 C   0  0  0  0  0  0  0  0  0  0  0  0
   26.2567  -16.5106  -15.8204 C   0  0  0  0  0  0  0  0  0  0  0  0
   24.8299  -16.2194  -16.1413 C   0  0  2  0  0  0  0  0  0  0  0  0
   24.0365  -16.1055  -14.9198 N   0  0  0  0  0  0  0  0  0  0  0  0
   24.1783  -17.1992  -17.0371 C   0  0  0  0  0  0  0  0  0  0  0  0
   24.6246  -17.4678  -18.1826 O   0  0  0  0  0  0  0  0  0  0  0  0
   25.9076  -21.8222  -15.3867 N   0  0  0  0  0  0  0  0  0  0  0  0
   22.9845  -17.8976  -16.6248 C   0  0  0  0  0  0  0  0  0  0  0  0
   22.7852  -19.2323  -17.1087 C   0  0  0  0  0  0  0  0  0  0  0  0
   22.6010  -20.2214  -16.0277 O   0  0  0  0  0  0  0  0  0  0  0  0
   21.7067  -21.1073  -16.0684 C   0  0  0  0  0  0  0  0  0  0  0  0
   26.2299  -19.8187  -10.6046 S   0  0  0  0  0  0  0  0  0  0  0  0
   25.6375  -21.5134  -10.4321 C   0  0  0  0  0  0  0  0  0  0  0  0
   24.1841  -21.7351  -11.5375 C   0  0  0  0  0  0  0  0  0  0  0  0
   24.3809  -20.9557  -12.7952 C   0  0  1  0  0  0  0  0  0  0  0  0
   23.2225  -21.0648  -13.7242 N   0  0  0  0  0  0  0  0  0  0  0  0
   23.4475  -20.1902  -14.8984 C   0  0  0  0  0  0  0  0  0  0  0  0
   21.9565  -20.6216  -13.1238 O   0  0  0  0  0  0  0  0  0  0  0  0
   21.6137  -19.4254  -13.1750 O   0  0  0  0  0  0  0  0  0  0  0  0
  2  1  1  0
  2  3  2  0
  4  2  1  0
  5  4  1  0
  6  7  1  0
  6  5  1  0
  7  8  1  0
  8  9  1  1
 10  8  1  0
 10 12  1  0
 11 10  2  0
 13 12  1  0
 14 13  1  0
 15 14  2  0
 17 16  1  0
 18 17  1  0
 19 18  1  0
 20 21  1  0
 20 19  1  6
 21 14  1  0
 22 20  1  0
 23 22  2  0
 24 22  1  0
M  END
$$$$
