RGM.pdb
     RDKit          3D

 24 23  0  0  1  0  0  0  0  0999 V2000
   18.2803  -20.0067  -15.7163 N   0  0  0  0  0  0  0  0  0  0  0  0
   18.4492  -21.3739  -15.2992 C   0  0  0  0  0  0  0  0  0  0  0  0
   17.7514  -22.2679  -15.8727 N   0  0  0  0  0  0  0  0  0  0  0  0
   19.3668  -21.7081  -14.2745 N   0  0  0  0  0  0  0  0  0  0  0  0
   20.0574  -20.7149  -13.5132 C   0  0  0  0  0  0  0  0  0  0  0  0
   21.1764  -20.0219  -14.2936 C   0  0  0  0  0  0  0  0  0  0  0  0
   22.3904  -20.8763  -14.1320 C   0  0  0  0  0  0  0  0  0  0  0  0
   23.5315  -20.1285  -13.5298 C   0  0  2  0  0  0  0  0  0  0  0  0
   24.6950  -20.1588  -14.4128 N   0  0  0  0  0  0  0  0  0  0  0  0
   23.9454  -20.5942  -12.1885 C   0  0  0  0  0  0  0  0  0  0  0  0
   23.3467  -20.2450  -11.1381 O   0  0  0  0  0  0  0  0  0  0  0  0
   17.7639  -23.2692  -15.5932 N   0  0  0  0  0  0  0  0  0  0  0  0
   25.0714  -21.4827  -12.0297 C   0  0  0  0  0  0  0  0  0  0  0  0
   25.4538  -21.8525  -10.6984 C   0  0  0  0  0  0  0  0  0  0  0  0
   26.3509  -20.8703  -10.0569 O   0  0  0  0  0  0  0  0  0  0  0  0
   26.8193  -19.8786  -10.6760 C   0  0  0  0  0  0  0  0  0  0  0  0
   27.6503  -18.1339   -4.4598 S   0  0  0  0  0  0  0  0  0  0  0  0
   28.7974  -19.5194   -4.3283 C   0  0  0  0  0  0  0  0  0  0  0  0
   29.2019  -20.1005   -6.0260 C   0  0  0  0  0  0  0  0  0  0  0  0
   27.9833  -20.6751   -6.6684 C   0  0  1  0  0  0  0  0  0  0  0  0
   27.9300  -20.4129   -8.1331 N   0  0  0  0  0  0  0  0  0  0  0  0
   26.7091  -21.0306   -8.7008 C   0  0  0  0  0  0  0  0  0  0  0  0
   29.0607  -20.9988   -8.8666 O   0  0  0  0  0  0  0  0  0  0  0  0
   29.0558  -22.2027   -9.1850 O   0  0  0  0  0  0  0  0  0  0  0  0
  2  1  1  0
  2  3  2  0
  4  2  1  0
  5  4  1  0
  6  7  1  0
  6  5  1  0
  7  8  1  0
  8  9  1  6
 10  8  1  0
 10 12  1  0
 11 10  2  0
 13 12  1  0
 14 13  1  0
 15 14  2  0
 17 16  1  0
 18 17  1  0
 19 18  1  0
 20 21  1  0
 20 19  1  1
 21 14  1  0
 22 20  1  0
 23 22  2  0
 24 22  1  0
M  END
$$$$
