RGM.pdb
     RDKit          3D

 24 23  0  0  1  0  0  0  0  0999 V2000
   26.7306  -19.3630  -20.6989 N   0  0  0  0  0  0  0  0  0  0  0  0
   26.8579  -20.7379  -21.1050 C   0  0  0  0  0  0  0  0  0  0  0  0
   27.9099  -21.0860  -21.7272 N   0  0  0  0  0  0  0  0  0  0  0  0
   25.8341  -21.6729  -20.8198 N   0  0  0  0  0  0  0  0  0  0  0  0
   24.6862  -21.3346  -20.0382 C   0  0  0  0  0  0  0  0  0  0  0  0
   25.0089  -21.0841  -18.5635 C   0  0  0  0  0  0  0  0  0  0  0  0
   24.8689  -22.4016  -17.8748 C   0  0  0  0  0  0  0  0  0  0  0  0
   26.1215  -22.8099  -17.1761 C   0  0  2  0  0  0  0  0  0  0  0  0
   26.3521  -24.2452  -17.3214 N   0  0  0  0  0  0  0  0  0  0  0  0
   26.1753  -22.4669  -15.7385 C   0  0  0  0  0  0  0  0  0  0  0  0
   26.0802  -23.3357  -14.8331 O   0  0  0  0  0  0  0  0  0  0  0  0
   28.0543  -22.0389  -22.1171 N   0  0  0  0  0  0  0  0  0  0  0  0
   26.3421  -21.0986  -15.3110 C   0  0  0  0  0  0  0  0  0  0  0  0
   26.2036  -20.8090  -13.9138 C   0  0  0  0  0  0  0  0  0  0  0  0
   24.8050  -20.8673  -13.4435 O   0  0  0  0  0  0  0  0  0  0  0  0
   23.8454  -21.1431  -14.2111 C   0  0  0  0  0  0  0  0  0  0  0  0
   23.6358  -21.1056   -7.1655 S   0  0  0  0  0  0  0  0  0  0  0  0
   21.9538  -20.6386   -7.6190 C   0  0  0  0  0  0  0  0  0  0  0  0
   21.8121  -20.6893   -9.4522 C   0  0  0  0  0  0  0  0  0  0  0  0
   23.1687  -20.5952  -10.0678 C   0  0  2  0  0  0  0  0  0  0  0  0
   23.1318  -20.6910  -11.5531 N   0  0  0  0  0  0  0  0  0  0  0  0
   24.5110  -20.6076  -12.0873 C   0  0  0  0  0  0  0  0  0  0  0  0
   22.3843  -19.5945  -12.1845 O   0  0  0  0  0  0  0  0  0  0  0  0
   22.9610  -18.5424  -12.5186 O   0  0  0  0  0  0  0  0  0  0  0  0
  2  1  1  0
  2  3  2  0
  4  2  1  0
  5  4  1  0
  6  7  1  0
  6  5  1  0
  7  8  1  0
  8  9  1  1
 10  8  1  0
 10 12  1  0
 11 10  2  0
 13 12  1  0
 14 13  1  0
 15 14  2  0
 17 16  1  0
 18 17  1  0
 19 18  1  0
 20 21  1  0
 20 19  1  1
 21 14  1  0
 22 20  1  0
 23 22  2  0
 24 22  1  0
M  END
$$$$
