RGM.pdb
     RDKit          3D

 24 23  0  0  1  0  0  0  0  0999 V2000
   23.0181  -20.2502  -18.2084 N   0  0  0  0  0  0  0  0  0  0  0  0
   22.0452  -21.1790  -18.7205 C   0  0  0  0  0  0  0  0  0  0  0  0
   21.0225  -20.7125  -19.3134 N   0  0  0  0  0  0  0  0  0  0  0  0
   22.2254  -22.5741  -18.5622 N   0  0  0  0  0  0  0  0  0  0  0  0
   23.3627  -23.1270  -17.8960 C   0  0  0  0  0  0  0  0  0  0  0  0
   23.2440  -23.1012  -16.3706 C   0  0  0  0  0  0  0  0  0  0  0  0
   24.5419  -23.6158  -15.8410 C   0  0  0  0  0  0  0  0  0  0  0  0
   25.6826  -22.7116  -16.1651 C   0  0  2  0  0  0  0  0  0  0  0  0
   26.7017  -23.4187  -16.9371 N   0  0  0  0  0  0  0  0  0  0  0  0
   26.3310  -22.0798  -14.9956 C   0  0  0  0  0  0  0  0  0  0  0  0
   26.1275  -22.4717  -13.8173 O   0  0  0  0  0  0  0  0  0  0  0  0
   20.2792  -21.3105  -19.7267 N   0  0  0  0  0  0  0  0  0  0  0  0
   27.2384  -20.9702  -15.1637 C   0  0  0  0  0  0  0  0  0  0  0  0
   27.7911  -20.3691  -13.9853 C   0  0  0  0  0  0  0  0  0  0  0  0
   26.7631  -19.9027  -13.0333 O   0  0  0  0  0  0  0  0  0  0  0  0
   25.9364  -18.9976  -13.3220 C   0  0  0  0  0  0  0  0  0  0  0  0
   21.8081  -21.2096  -12.5451 S   0  0  0  0  0  0  0  0  0  0  0  0
   21.6253  -20.6867  -10.8288 C   0  0  0  0  0  0  0  0  0  0  0  0
   23.2557  -20.0811  -10.2302 C   0  0  0  0  0  0  0  0  0  0  0  0
   24.3257  -20.4694  -11.1957 C   0  0  1  0  0  0  0  0  0  0  0  0
   25.6814  -20.0449  -10.7499 N   0  0  0  0  0  0  0  0  0  0  0  0
   26.6872  -20.4794  -11.7470 C   0  0  0  0  0  0  0  0  0  0  0  0
   26.0861  -20.6508   -9.4737 O   0  0  0  0  0  0  0  0  0  0  0  0
   26.6378  -21.7670   -9.4471 O   0  0  0  0  0  0  0  0  0  0  0  0
  2  1  1  0
  2  3  2  0
  4  2  1  0
  5  4  1  0
  6  7  1  0
  6  5  1  0
  7  8  1  0
  8  9  1  1
 10  8  1  0
 10 12  1  0
 11 10  2  0
 13 12  1  0
 14 13  1  0
 15 14  2  0
 17 16  1  0
 18 17  1  0
 19 18  1  0
 20 21  1  0
 20 19  1  6
 21 14  1  0
 22 20  1  0
 23 22  2  0
 24 22  1  0
M  END
$$$$
