RGM.pdb
     RDKit          3D

 24 23  0  0  1  0  0  0  0  0999 V2000
   18.5565  -20.9648  -11.1072 N   0  0  0  0  0  0  0  0  0  0  0  0
   19.0049  -22.1710  -11.7519 C   0  0  0  0  0  0  0  0  0  0  0  0
   19.6055  -22.0689  -12.8672 N   0  0  0  0  0  0  0  0  0  0  0  0
   18.7772  -23.4352  -11.1573 N   0  0  0  0  0  0  0  0  0  0  0  0
   18.1116  -23.5800   -9.9007 C   0  0  0  0  0  0  0  0  0  0  0  0
   17.8671  -25.0387   -9.5084 C   0  0  0  0  0  0  0  0  0  0  0  0
   17.0615  -25.0046   -8.2515 C   0  0  0  0  0  0  0  0  0  0  0  0
   17.7875  -25.6107   -7.0985 C   0  0  2  0  0  0  0  0  0  0  0  0
   18.4731  -26.8356   -7.5034 N   0  0  0  0  0  0  0  0  0  0  0  0
   16.9477  -25.9086   -5.9182 C   0  0  0  0  0  0  0  0  0  0  0  0
   16.4128  -27.0331   -5.7366 O   0  0  0  0  0  0  0  0  0  0  0  0
   19.9722  -22.8857  -13.3957 N   0  0  0  0  0  0  0  0  0  0  0  0
   16.7052  -24.9036   -4.9112 C   0  0  0  0  0  0  0  0  0  0  0  0
   15.7761  -25.2116   -3.8637 C   0  0  0  0  0  0  0  0  0  0  0  0
   15.5750  -24.0956   -2.9178 O   0  0  0  0  0  0  0  0  0  0  0  0
   16.2435  -23.0300   -2.9788 C   0  0  0  0  0  0  0  0  0  0  0  0
   10.4766  -20.9292    2.1879 S   0  0  0  0  0  0  0  0  0  0  0  0
   10.8752  -22.3146    1.1041 C   0  0  0  0  0  0  0  0  0  0  0  0
   12.6203  -22.1351    0.5514 C   0  0  0  0  0  0  0  0  0  0  0  0
   12.9647  -23.2305   -0.4023 C   0  0  2  0  0  0  0  0  0  0  0  0
   14.3513  -23.1144   -0.9318 N   0  0  0  0  0  0  0  0  0  0  0  0
   14.6029  -24.2069   -1.9002 C   0  0  0  0  0  0  0  0  0  0  0  0
   15.3804  -23.2486    0.1087 O   0  0  0  0  0  0  0  0  0  0  0  0
   15.8687  -24.3618    0.3792 O   0  0  0  0  0  0  0  0  0  0  0  0
  2  1  1  0
  2  3  2  0
  4  2  1  0
  5  4  1  0
  6  7  1  0
  6  5  1  0
  7  8  1  0
  8  9  1  6
 10  8  1  0
 10 12  1  0
 11 10  2  0
 13 12  1  0
 14 13  1  0
 15 14  2  0
 17 16  1  0
 18 17  1  0
 19 18  1  0
 20 21  1  0
 20 19  1  6
 21 14  1  0
 22 20  1  0
 23 22  2  0
 24 22  1  0
M  END
$$$$
