RGM.pdb
     RDKit          3D

 24 23  0  0  1  0  0  0  0  0999 V2000
   20.0150  -22.0619  -14.9690 N   0  0  0  0  0  0  0  0  0  0  0  0
   20.0647  -22.3974  -13.5703 C   0  0  0  0  0  0  0  0  0  0  0  0
   19.0539  -22.9675  -13.0525 N   0  0  0  0  0  0  0  0  0  0  0  0
   21.2101  -22.0948  -12.7954 N   0  0  0  0  0  0  0  0  0  0  0  0
   22.4155  -21.5930  -13.3769 C   0  0  0  0  0  0  0  0  0  0  0  0
   22.1884  -20.4026  -14.3111 C   0  0  0  0  0  0  0  0  0  0  0  0
   23.2186  -19.3839  -13.9491 C   0  0  0  0  0  0  0  0  0  0  0  0
   24.5336  -19.6549  -14.5980 C   0  0  2  0  0  0  0  0  0  0  0  0
   24.5490  -20.9846  -15.2031 N   0  0  0  0  0  0  0  0  0  0  0  0
   25.7076  -19.5286  -13.7075 C   0  0  0  0  0  0  0  0  0  0  0  0
   25.8829  -18.5327  -12.9585 O   0  0  0  0  0  0  0  0  0  0  0  0
   19.0124  -23.2634  -12.0567 N   0  0  0  0  0  0  0  0  0  0  0  0
   26.7151  -20.5608  -13.6623 C   0  0  0  0  0  0  0  0  0  0  0  0
   27.7571  -20.4412  -12.6849 C   0  0  0  0  0  0  0  0  0  0  0  0
   27.4021  -21.0356  -11.3805 O   0  0  0  0  0  0  0  0  0  0  0  0
   27.4815  -22.2727  -11.1582 C   0  0  0  0  0  0  0  0  0  0  0  0
   27.5443  -20.0093   -3.6887 S   0  0  0  0  0  0  0  0  0  0  0  0
   27.8935  -19.3681   -5.3379 C   0  0  0  0  0  0  0  0  0  0  0  0
   26.9780  -20.3897   -6.5632 C   0  0  0  0  0  0  0  0  0  0  0  0
   27.3230  -19.9504   -7.9474 C   0  0  1  0  0  0  0  0  0  0  0  0
   26.6178  -20.7424   -8.9924 N   0  0  0  0  0  0  0  0  0  0  0  0
   26.9549  -20.2043  -10.3308 C   0  0  0  0  0  0  0  0  0  0  0  0
   25.1541  -20.6708   -8.8824 O   0  0  0  0  0  0  0  0  0  0  0  0
   24.4933  -19.9537   -9.6571 O   0  0  0  0  0  0  0  0  0  0  0  0
  2  1  1  0
  2  3  2  0
  4  2  1  0
  5  4  1  0
  6  7  1  0
  6  5  1  0
  7  8  1  0
  8  9  1  1
 10  8  1  0
 10 12  1  0
 11 10  2  0
 13 12  1  0
 14 13  1  0
 15 14  2  0
 17 16  1  0
 18 17  1  0
 19 18  1  0
 20 21  1  0
 20 19  1  6
 21 14  1  0
 22 20  1  0
 23 22  2  0
 24 22  1  0
M  END
$$$$
