RGM.pdb
     RDKit          3D

 24 23  0  0  1  0  0  0  0  0999 V2000
   23.3979  -26.1618  -14.2851 N   0  0  0  0  0  0  0  0  0  0  0  0
   22.0026  -26.5122  -14.3255 C   0  0  0  0  0  0  0  0  0  0  0  0
   21.6589  -27.5354  -14.9963 N   0  0  0  0  0  0  0  0  0  0  0  0
   21.0419  -25.7325  -13.6377 N   0  0  0  0  0  0  0  0  0  0  0  0
   20.7062  -24.4030  -14.0409 C   0  0  0  0  0  0  0  0  0  0  0  0
   20.3134  -24.2975  -15.5161 C   0  0  0  0  0  0  0  0  0  0  0  0
   20.4789  -22.8617  -15.8916 C   0  0  0  0  0  0  0  0  0  0  0  0
   21.8930  -22.5236  -16.2226 C   0  0  2  0  0  0  0  0  0  0  0  0
   22.8172  -23.3915  -15.4966 N   0  0  0  0  0  0  0  0  0  0  0  0
   22.2737  -21.1164  -15.9736 C   0  0  0  0  0  0  0  0  0  0  0  0
   21.6450  -20.1481  -16.4743 O   0  0  0  0  0  0  0  0  0  0  0  0
   20.6888  -27.9089  -15.0122 N   0  0  0  0  0  0  0  0  0  0  0  0
   23.4007  -20.7937  -15.1318 C   0  0  0  0  0  0  0  0  0  0  0  0
   23.7436  -19.4113  -14.9679 C   0  0  0  0  0  0  0  0  0  0  0  0
   24.8431  -19.1948  -14.0062 O   0  0  0  0  0  0  0  0  0  0  0  0
   25.5792  -18.1736  -14.0408 C   0  0  0  0  0  0  0  0  0  0  0  0
   26.8308  -19.3608   -7.4788 S   0  0  0  0  0  0  0  0  0  0  0  0
   26.9229  -20.9804   -8.2670 C   0  0  0  0  0  0  0  0  0  0  0  0
   27.3545  -20.7395  -10.0387 C   0  0  0  0  0  0  0  0  0  0  0  0
   26.1085  -20.6455  -10.8552 C   0  0  1  0  0  0  0  0  0  0  0  0
   26.3689  -20.1858  -12.2471 N   0  0  0  0  0  0  0  0  0  0  0  0
   25.0954  -20.1559  -13.0033 C   0  0  0  0  0  0  0  0  0  0  0  0
   27.2639  -21.0811  -12.9936 O   0  0  0  0  0  0  0  0  0  0  0  0
   26.8061  -22.0414  -13.6411 O   0  0  0  0  0  0  0  0  0  0  0  0
  2  1  1  0
  2  3  2  0
  4  2  1  0
  5  4  1  0
  6  7  1  0
  6  5  1  0
  7  8  1  0
  8  9  1  1
 10  8  1  0
 10 12  1  0
 11 10  2  0
 13 12  1  0
 14 13  1  0
 15 14  2  0
 17 16  1  0
 18 17  1  0
 19 18  1  0
 20 21  1  0
 20 19  1  1
 21 14  1  0
 22 20  1  0
 23 22  2  0
 24 22  1  0
M  END
$$$$
