GTY.pdb
     RDKit          3D

 24 24  0  0  1  0  0  0  0  0999 V2000
    4.2682  -19.2049   21.3359 N   0  0  0  0  0  0  0  0  0  0  0  0
    4.5877  -17.8372   21.6439 C   0  0  0  0  0  0  0  0  0  0  0  0
    6.0270  -17.5709   21.3789 C   0  0  0  0  0  0  0  0  0  0  0  0
    6.8310  -18.4993   21.0607 O   0  0  0  0  0  0  0  0  0  0  0  0
    9.5118  -14.4963   20.0865 C   0  0  0  0  0  0  0  0  0  0  0  0
    8.0602  -14.8803   20.2660 C   0  0  1  0  0  0  0  0  0  0  0  0
    7.5970  -15.3681   19.0540 O   0  0  0  0  0  0  0  0  0  0  0  0
    7.8798  -15.8674   21.3899 C   0  0  2  0  0  0  0  0  0  0  0  0
    6.5016  -16.2346   21.4887 N   0  0  0  0  0  0  0  0  0  0  0  0
    8.4071  -15.2907   22.6539 C   0  0  0  0  0  0  0  0  0  0  0  0
    8.0982  -14.1190   22.9647 O   0  0  0  0  0  0  0  0  0  0  0  0
    6.4303  -10.7558   27.2162 O   0  0  0  0  0  0  0  0  0  0  0  0
    6.7802  -12.0294   26.7935 C   0  0  0  0  0  0  0  0  0  0  0  0
    7.9517  -12.2478   26.1106 C   0  0  0  0  0  0  0  0  0  0  0  0
    8.2671  -13.5183   25.7076 C   0  0  0  0  0  0  0  0  0  0  0  0
    7.4605  -14.6068   25.9532 C   0  0  0  0  0  0  0  0  0  0  0  0
    7.8601  -15.9379   25.4913 C   0  0  0  0  0  0  0  0  0  0  0  0
    9.2762  -15.9390   24.9128 C   0  0  2  0  0  0  0  0  0  0  0  0
    9.2487  -16.0792   23.4822 N   0  0  0  0  0  0  0  0  0  0  0  0
   10.1468  -16.9133   25.5873 C   0  0  0  0  0  0  0  0  0  0  0  0
   10.2629  -18.1722   25.0163 O   0  0  0  0  0  0  0  0  0  0  0  0
    6.2855  -14.3875   26.6382 C   0  0  0  0  0  0  0  0  0  0  0  0
    5.9504  -13.1024   27.0548 C   0  0  0  0  0  0  0  0  0  0  0  0
   10.7888  -16.6919   26.6347 O   0  0  0  0  0  0  0  0  0  0  0  0
  1  2  1  0
  3  2  1  0
  3  9  1  0
  4  3  2  0
  6  5  1  6
  7  6  1  0
  8  6  1  0
  8  9  1  1
  8 10  1  0
 10 19  1  0
 11 10  2  0
 13 12  1  0
 14 13  2  0
 15 14  1  0
 16 22  1  0
 16 15  2  0
 17 16  1  0
 18 17  1  1
 19 18  1  0
 20 21  1  0
 20 18  1  0
 22 23  2  0
 23 13  1  0
 24 20  2  0
M  END
$$$$
