GTY.pdb
     RDKit          3D

 24 24  0  0  1  0  0  0  0  0999 V2000
    6.8832  -12.3655   18.6542 N   0  0  0  0  0  0  0  0  0  0  0  0
    8.1633  -12.9697   18.9068 C   0  0  0  0  0  0  0  0  0  0  0  0
    8.0288  -14.0678   19.9013 C   0  0  0  0  0  0  0  0  0  0  0  0
    6.9481  -14.2670   20.5350 O   0  0  0  0  0  0  0  0  0  0  0  0
    9.4295  -18.4554   21.2697 C   0  0  0  0  0  0  0  0  0  0  0  0
    9.7204  -17.2204   20.4470 C   0  0  1  0  0  0  0  0  0  0  0  0
    9.2184  -17.4313   19.1723 O   0  0  0  0  0  0  0  0  0  0  0  0
    9.1581  -15.9785   21.0883 C   0  0  2  0  0  0  0  0  0  0  0  0
    9.1503  -14.9100   20.1383 N   0  0  0  0  0  0  0  0  0  0  0  0
    9.9367  -15.6479   22.3101 C   0  0  0  0  0  0  0  0  0  0  0  0
   10.2829  -14.4626   22.5100 O   0  0  0  0  0  0  0  0  0  0  0  0
   10.3803  -14.6931   30.7335 O   0  0  0  0  0  0  0  0  0  0  0  0
   10.1214  -14.9587   29.3972 C   0  0  0  0  0  0  0  0  0  0  0  0
   10.0936  -16.2493   28.9281 C   0  0  0  0  0  0  0  0  0  0  0  0
    9.8347  -16.4764   27.6024 C   0  0  0  0  0  0  0  0  0  0  0  0
    9.5971  -15.4650   26.6990 C   0  0  0  0  0  0  0  0  0  0  0  0
    9.3282  -15.7810   25.2944 C   0  0  0  0  0  0  0  0  0  0  0  0
   10.5364  -16.4277   24.6145 C   0  0  2  0  0  0  0  0  0  0  0  0
   10.2713  -16.6814   23.2244 N   0  0  0  0  0  0  0  0  0  0  0  0
   11.0185  -17.6057   25.3507 C   0  0  0  0  0  0  0  0  0  0  0  0
   12.2230  -17.4892   26.0288 O   0  0  0  0  0  0  0  0  0  0  0  0
    9.6251  -14.1705   27.1698 C   0  0  0  0  0  0  0  0  0  0  0  0
    9.8865  -13.9227   28.5142 C   0  0  0  0  0  0  0  0  0  0  0  0
   10.4246  -18.7020   25.4110 O   0  0  0  0  0  0  0  0  0  0  0  0
  1  2  1  0
  3  2  1  0
  3  9  1  0
  4  3  2  0
  6  5  1  1
  7  6  1  0
  8  6  1  0
  8  9  1  6
  8 10  1  0
 10 19  1  0
 11 10  2  0
 13 12  1  0
 14 13  2  0
 15 14  1  0
 16 22  1  0
 16 15  2  0
 17 16  1  0
 18 17  1  1
 19 18  1  0
 20 21  1  0
 20 18  1  0
 22 23  2  0
 23 13  1  0
 24 20  2  0
M  END
$$$$
