GTY.pdb
     RDKit          3D

 24 24  0  0  1  0  0  0  0  0999 V2000
    8.0672  -12.7030   17.1566 N   0  0  0  0  0  0  0  0  0  0  0  0
    8.9937  -13.3680   18.0323 C   0  0  0  0  0  0  0  0  0  0  0  0
    8.2832  -13.9059   19.2234 C   0  0  0  0  0  0  0  0  0  0  0  0
    7.2324  -13.3595   19.6781 O   0  0  0  0  0  0  0  0  0  0  0  0
    7.1232  -17.3721   19.6453 C   0  0  0  0  0  0  0  0  0  0  0  0
    8.0237  -17.1141   20.8325 C   0  0  1  0  0  0  0  0  0  0  0  0
    9.2046  -17.8109   20.6292 O   0  0  0  0  0  0  0  0  0  0  0  0
    8.2548  -15.6408   21.0466 C   0  0  2  0  0  0  0  0  0  0  0  0
    8.8069  -15.0649   19.8602 N   0  0  0  0  0  0  0  0  0  0  0  0
    9.1228  -15.4364   22.2354 C   0  0  0  0  0  0  0  0  0  0  0  0
   10.3540  -15.2867   22.0726 O   0  0  0  0  0  0  0  0  0  0  0  0
   11.2896  -14.8404   30.7745 O   0  0  0  0  0  0  0  0  0  0  0  0
   10.5921  -14.8285   29.5759 C   0  0  0  0  0  0  0  0  0  0  0  0
    9.9233  -15.9458   29.1391 C   0  0  0  0  0  0  0  0  0  0  0  0
    9.2441  -15.8999   27.9505 C   0  0  0  0  0  0  0  0  0  0  0  0
    9.1943  -14.7765   27.1561 C   0  0  0  0  0  0  0  0  0  0  0  0
    8.4493  -14.7991   25.8955 C   0  0  0  0  0  0  0  0  0  0  0  0
    9.3196  -15.2664   24.7275 C   0  0  2  0  0  0  0  0  0  0  0  0
    8.5388  -15.4148   23.5295 N   0  0  0  0  0  0  0  0  0  0  0  0
   10.1104  -16.4576   25.0711 C   0  0  0  0  0  0  0  0  0  0  0  0
   11.3990  -16.2571   25.5438 O   0  0  0  0  0  0  0  0  0  0  0  0
    9.8652  -13.6559   27.5945 C   0  0  0  0  0  0  0  0  0  0  0  0
   10.5601  -13.6860   28.8001 C   0  0  0  0  0  0  0  0  0  0  0  0
    9.7085  -17.6350   24.9691 O   0  0  0  0  0  0  0  0  0  0  0  0
  1  2  1  0
  3  2  1  0
  3  9  1  0
  4  3  2  0
  6  5  1  6
  7  6  1  0
  8  6  1  0
  8  9  1  6
  8 10  1  0
 10 19  1  0
 11 10  2  0
 13 12  1  0
 14 13  2  0
 15 14  1  0
 16 22  1  0
 16 15  2  0
 17 16  1  0
 18 17  1  1
 19 18  1  0
 20 21  1  0
 20 18  1  0
 22 23  2  0
 23 13  1  0
 24 20  2  0
M  END
$$$$
