GTY.pdb
     RDKit          3D

 24 24  0  0  1  0  0  0  0  0999 V2000
   10.5396  -17.0440   17.5747 N   0  0  0  0  0  0  0  0  0  0  0  0
    9.7204  -17.3599   18.7134 C   0  0  0  0  0  0  0  0  0  0  0  0
    9.5683  -16.1657   19.5873 C   0  0  0  0  0  0  0  0  0  0  0  0
    9.4750  -14.9946   19.1086 O   0  0  0  0  0  0  0  0  0  0  0  0
    7.8315  -14.2448   20.0559 C   0  0  0  0  0  0  0  0  0  0  0  0
    7.7287  -14.8332   21.4451 C   0  0  1  0  0  0  0  0  0  0  0  0
    6.7377  -15.8022   21.4236 O   0  0  0  0  0  0  0  0  0  0  0  0
    9.0521  -15.3745   21.9202 C   0  0  2  0  0  0  0  0  0  0  0  0
    9.5278  -16.3564   20.9962 N   0  0  0  0  0  0  0  0  0  0  0  0
    8.9090  -15.9120   23.2982 C   0  0  0  0  0  0  0  0  0  0  0  0
    8.3789  -17.0329   23.4632 O   0  0  0  0  0  0  0  0  0  0  0  0
    5.7554  -10.4968   26.8349 O   0  0  0  0  0  0  0  0  0  0  0  0
    6.3033  -11.7649   26.7132 C   0  0  0  0  0  0  0  0  0  0  0  0
    5.5268  -12.8350   26.3413 C   0  0  0  0  0  0  0  0  0  0  0  0
    6.0999  -14.0741   26.2303 C   0  0  0  0  0  0  0  0  0  0  0  0
    7.4340  -14.3099   26.4755 C   0  0  0  0  0  0  0  0  0  0  0  0
    7.9796  -15.6621   26.3386 C   0  0  0  0  0  0  0  0  0  0  0  0
    9.3888  -15.6504   25.7435 C   0  0  2  0  0  0  0  0  0  0  0  0
    9.3761  -15.1446   24.3978 N   0  0  0  0  0  0  0  0  0  0  0  0
   10.0563  -16.9534   25.8808 C   0  0  0  0  0  0  0  0  0  0  0  0
    9.2620  -18.0532   26.1702 O   0  0  0  0  0  0  0  0  0  0  0  0
    8.2127  -13.2363   26.8485 C   0  0  0  0  0  0  0  0  0  0  0  0
    7.6458  -11.9706   26.9656 C   0  0  0  0  0  0  0  0  0  0  0  0
   11.2838  -17.1432   25.7563 O   0  0  0  0  0  0  0  0  0  0  0  0
  1  2  1  0
  3  2  1  0
  3  9  1  0
  4  3  2  0
  6  5  1  6
  7  6  1  0
  8  6  1  0
  8  9  1  6
  8 10  1  0
 10 19  1  0
 11 10  2  0
 13 12  1  0
 14 13  2  0
 15 14  1  0
 16 22  1  0
 16 15  2  0
 17 16  1  0
 18 17  1  6
 19 18  1  0
 20 21  1  0
 20 18  1  0
 22 23  2  0
 23 13  1  0
 24 20  2  0
M  END
$$$$
