GTY.pdb
     RDKit          3D

 24 24  0  0  1  0  0  0  0  0999 V2000
    3.5471  -17.4850   20.7917 N   0  0  0  0  0  0  0  0  0  0  0  0
    4.3803  -16.3415   21.0484 C   0  0  0  0  0  0  0  0  0  0  0  0
    5.8095  -16.7484   21.1147 C   0  0  0  0  0  0  0  0  0  0  0  0
    6.2735  -17.6805   20.3899 O   0  0  0  0  0  0  0  0  0  0  0  0
   10.1685  -15.9815   20.6847 C   0  0  0  0  0  0  0  0  0  0  0  0
    8.6788  -15.7306   20.7529 C   0  0  1  0  0  0  0  0  0  0  0  0
    8.0970  -16.3241   19.6436 O   0  0  0  0  0  0  0  0  0  0  0  0
    8.0887  -16.2276   22.0470 C   0  0  2  0  0  0  0  0  0  0  0  0
    6.6685  -16.0654   22.0196 N   0  0  0  0  0  0  0  0  0  0  0  0
    8.7203  -15.5203   23.1911 C   0  0  0  0  0  0  0  0  0  0  0  0
    8.4475  -14.3155   23.3885 O   0  0  0  0  0  0  0  0  0  0  0  0
    5.7307  -11.1904   26.6893 O   0  0  0  0  0  0  0  0  0  0  0  0
    6.3427  -12.4248   26.5316 C   0  0  0  0  0  0  0  0  0  0  0  0
    7.6529  -12.6133   26.8979 C   0  0  0  0  0  0  0  0  0  0  0  0
    8.2268  -13.8454   26.7289 C   0  0  0  0  0  0  0  0  0  0  0  0
    7.5511  -14.9235   26.2028 C   0  0  0  0  0  0  0  0  0  0  0  0
    8.2285  -16.2128   26.0490 C   0  0  0  0  0  0  0  0  0  0  0  0
    9.6325  -16.0525   25.4633 C   0  0  2  0  0  0  0  0  0  0  0  0
    9.6186  -16.2243   24.0359 N   0  0  0  0  0  0  0  0  0  0  0  0
   10.6176  -16.8990   26.1526 C   0  0  0  0  0  0  0  0  0  0  0  0
   11.1649  -17.9559   25.4400 O   0  0  0  0  0  0  0  0  0  0  0  0
    6.2368  -14.7342   25.8354 C   0  0  0  0  0  0  0  0  0  0  0  0
    5.6388  -13.4883   26.0009 C   0  0  0  0  0  0  0  0  0  0  0  0
   10.9979  -16.7373   27.3305 O   0  0  0  0  0  0  0  0  0  0  0  0
  1  2  1  0
  3  2  1  0
  3  9  1  0
  4  3  2  0
  6  5  1  1
  7  6  1  0
  8  6  1  0
  8  9  1  6
  8 10  1  0
 10 19  1  0
 11 10  2  0
 13 12  1  0
 14 13  2  0
 15 14  1  0
 16 22  1  0
 16 15  2  0
 17 16  1  0
 18 17  1  1
 19 18  1  0
 20 21  1  0
 20 18  1  0
 22 23  2  0
 23 13  1  0
 24 20  2  0
M  END
$$$$
