GTY.pdb
     RDKit          3D

 24 24  0  0  1  0  0  0  0  0999 V2000
    8.3214  -13.2187   16.9861 N   0  0  0  0  0  0  0  0  0  0  0  0
    9.0163  -14.1482   17.8350 C   0  0  0  0  0  0  0  0  0  0  0  0
    8.3880  -14.1859   19.1828 C   0  0  0  0  0  0  0  0  0  0  0  0
    7.8483  -13.1597   19.6976 O   0  0  0  0  0  0  0  0  0  0  0  0
    5.8522  -16.6954   20.2214 C   0  0  0  0  0  0  0  0  0  0  0  0
    6.9620  -16.7882   21.2444 C   0  0  1  0  0  0  0  0  0  0  0  0
    7.6614  -17.9612   21.0070 O   0  0  0  0  0  0  0  0  0  0  0  0
    7.8511  -15.5723   21.2137 C   0  0  2  0  0  0  0  0  0  0  0  0
    8.3993  -15.4124   19.9030 N   0  0  0  0  0  0  0  0  0  0  0  0
    8.9007  -15.6915   22.2589 C   0  0  0  0  0  0  0  0  0  0  0  0
   10.0503  -16.0584   21.9292 O   0  0  0  0  0  0  0  0  0  0  0  0
    5.0055  -11.7269   27.1519 O   0  0  0  0  0  0  0  0  0  0  0  0
    6.1799  -12.3013   26.6893 C   0  0  0  0  0  0  0  0  0  0  0  0
    6.9842  -13.0330   27.5285 C   0  0  0  0  0  0  0  0  0  0  0  0
    8.1373  -13.5870   27.0391 C   0  0  0  0  0  0  0  0  0  0  0  0
    8.5415  -13.4480   25.7303 C   0  0  0  0  0  0  0  0  0  0  0  0
    9.7884  -14.0671   25.2754 C   0  0  0  0  0  0  0  0  0  0  0  0
    9.5491  -15.4501   24.6671 C   0  0  2  0  0  0  0  0  0  0  0  0
    8.5790  -15.3868   23.6079 N   0  0  0  0  0  0  0  0  0  0  0  0
    9.2420  -16.4581   25.6927 C   0  0  0  0  0  0  0  0  0  0  0  0
    8.0733  -17.1901   25.5424 O   0  0  0  0  0  0  0  0  0  0  0  0
    7.7345  -12.7140   24.8888 C   0  0  0  0  0  0  0  0  0  0  0  0
    6.5593  -12.1446   25.3704 C   0  0  0  0  0  0  0  0  0  0  0  0
    9.9544  -16.7040   26.6878 O   0  0  0  0  0  0  0  0  0  0  0  0
  1  2  1  0
  3  2  1  0
  3  9  1  0
  4  3  2  0
  6  5  1  6
  7  6  1  0
  8  6  1  0
  8  9  1  6
  8 10  1  0
 10 19  1  0
 11 10  2  0
 13 12  1  0
 14 13  2  0
 15 14  1  0
 16 22  1  0
 16 15  2  0
 17 16  1  0
 18 17  1  1
 19 18  1  0
 20 21  1  0
 20 18  1  0
 22 23  2  0
 23 13  1  0
 24 20  2  0
M  END
$$$$
