WQP.pdb
     RDKit          3D

 31 33  0  0  1  0  0  0  0  0999 V2000
   20.9081  -18.6253  -15.6857 N   0  0  0  0  0  0  0  0  0  0  0  0
   21.4034  -19.7904  -15.0388 C   0  0  1  0  0  0  0  0  0  0  0  0
   21.3843  -21.0487  -15.8466 C   0  0  0  0  0  0  0  0  0  0  0  0
   20.0207  -21.5725  -16.1134 C   0  0  0  0  0  0  0  0  0  0  0  0
   19.4586  -21.8231  -17.3679 C   0  0  0  0  0  0  0  0  0  0  0  0
   18.2176  -22.3047  -17.2012 N   0  0  0  0  0  0  0  0  0  0  0  0
   17.9150  -22.3902  -15.8785 C   0  0  0  0  0  0  0  0  0  0  0  0
   16.7784  -22.8131  -15.2196 C   0  0  0  0  0  0  0  0  0  0  0  0
   16.7266  -22.7931  -13.8451 C   0  0  0  0  0  0  0  0  0  0  0  0
   17.8300  -22.3438  -13.1530 C   0  0  0  0  0  0  0  0  0  0  0  0
   18.9679  -21.9213  -13.8385 C   0  0  0  0  0  0  0  0  0  0  0  0
   19.0385  -21.9344  -15.2167 C   0  0  0  0  0  0  0  0  0  0  0  0
   22.7974  -19.5808  -14.5706 C   0  0  0  0  0  0  0  0  0  0  0  0
   23.5728  -18.9114  -15.2940 O   0  0  0  0  0  0  0  0  0  0  0  0
   26.9783  -19.6745   -8.6771 N   0  0  0  0  0  0  0  0  0  0  0  0
   26.2597  -20.5548   -9.5098 C   0  0  0  0  0  0  0  0  0  0  0  0
   25.6885  -21.5993   -9.1245 O   0  0  0  0  0  0  0  0  0  0  0  0
   26.1847  -20.2001  -10.9551 C   0  0  0  0  0  0  0  0  0  0  0  0
   24.7570  -20.3027  -11.4551 C   0  0  0  0  0  0  0  0  0  0  0  0
   24.6731  -19.8921  -12.9013 C   0  0  2  0  0  0  0  0  0  0  0  0
   23.3056  -20.0953  -13.3486 N   0  0  0  0  0  0  0  0  0  0  0  0
   25.5752  -20.6238  -13.7956 C   0  0  0  0  0  0  0  0  0  0  0  0
   25.2855  -21.8260  -14.1391 O   0  0  0  0  0  0  0  0  0  0  0  0
   26.7545  -20.0698  -14.3045 N   0  0  0  0  0  0  0  0  0  0  0  0
   27.3845  -18.8104  -13.9412 C   0  0  0  0  0  0  0  0  0  0  0  0
   27.8486  -18.3325  -15.2935 C   0  0  0  0  0  0  0  0  0  0  0  0
   28.4136  -19.5661  -15.9321 C   0  0  0  0  0  0  0  0  0  0  0  0
   27.5885  -20.6814  -15.3435 C   0  0  1  0  0  0  0  0  0  0  0  0
   28.5383  -21.6693  -14.7822 C   0  0  0  0  0  0  0  0  0  0  0  0
   29.2254  -22.3261  -15.6052 O   0  0  0  0  0  0  0  0  0  0  0  0
   28.7265  -21.9253  -13.4434 O   0  0  0  0  0  0  0  0  0  0  0  0
  2 13  1  0
  2  1  1  6
  3  2  1  0
  4  3  1  0
  4  5  2  0
  6  5  1  0
  7  6  1  0
  8  7  2  0
  9  8  1  0
 10  9  2  0
 10 11  1  0
 11 12  2  0
 12  7  1  0
 12  4  1  0
 13 14  2  0
 16 15  1  0
 16 17  2  0
 18 16  1  0
 19 18  1  0
 20 19  1  1
 20 22  1  0
 21 20  1  0
 21 13  1  0
 22 23  2  0
 24 22  1  0
 24 28  1  0
 25 26  1  0
 25 24  1  0
 26 27  1  0
 27 28  1  0
 28 29  1  1
 29 30  2  0
 29 31  1  0
M  END
$$$$
