WQP.pdb
     RDKit          3D

 31 33  0  0  1  0  0  0  0  0999 V2000
   24.2095  -19.9065   -9.2665 N   0  0  0  0  0  0  0  0  0  0  0  0
   25.5727  -19.9485   -9.6683 C   0  0  1  0  0  0  0  0  0  0  0  0
   26.4264  -20.9718   -8.9899 C   0  0  0  0  0  0  0  0  0  0  0  0
   26.5614  -20.7681   -7.5252 C   0  0  0  0  0  0  0  0  0  0  0  0
   25.6144  -21.0949   -6.5511 C   0  0  0  0  0  0  0  0  0  0  0  0
   26.1036  -20.7762   -5.3432 N   0  0  0  0  0  0  0  0  0  0  0  0
   27.3491  -20.2439   -5.4606 C   0  0  0  0  0  0  0  0  0  0  0  0
   28.2394  -19.7680   -4.5194 C   0  0  0  0  0  0  0  0  0  0  0  0
   29.4584  -19.2650   -4.9110 C   0  0  0  0  0  0  0  0  0  0  0  0
   29.7615  -19.2503   -6.2550 C   0  0  0  0  0  0  0  0  0  0  0  0
   28.8475  -19.7359   -7.1889 C   0  0  0  0  0  0  0  0  0  0  0  0
   27.6204  -20.2445   -6.8150 C   0  0  0  0  0  0  0  0  0  0  0  0
   25.6838  -20.1733  -11.1325 C   0  0  0  0  0  0  0  0  0  0  0  0
   25.1529  -21.2005  -11.6178 O   0  0  0  0  0  0  0  0  0  0  0  0
   27.4153  -15.7107  -15.0336 N   0  0  0  0  0  0  0  0  0  0  0  0
   26.3417  -16.3254  -15.7076 C   0  0  0  0  0  0  0  0  0  0  0  0
   25.7255  -15.8284  -16.6767 O   0  0  0  0  0  0  0  0  0  0  0  0
   25.9212  -17.6677  -15.2160 C   0  0  0  0  0  0  0  0  0  0  0  0
   26.7898  -18.1049  -14.0527 C   0  0  0  0  0  0  0  0  0  0  0  0
   26.2765  -19.3926  -13.4650 C   0  0  2  0  0  0  0  0  0  0  0  0
   26.3576  -19.2911  -12.0177 N   0  0  0  0  0  0  0  0  0  0  0  0
   27.0035  -20.5907  -13.8949 C   0  0  0  0  0  0  0  0  0  0  0  0
   28.0361  -20.9733  -13.2356 O   0  0  0  0  0  0  0  0  0  0  0  0
   26.6227  -21.3532  -15.0042 N   0  0  0  0  0  0  0  0  0  0  0  0
   25.4720  -21.1621  -15.8726 C   0  0  0  0  0  0  0  0  0  0  0  0
   25.0546  -22.5929  -16.0983 C   0  0  0  0  0  0  0  0  0  0  0  0
   26.3515  -23.3098  -16.3284 C   0  0  0  0  0  0  0  0  0  0  0  0
   27.3399  -22.5329  -15.4974 C   0  0  1  0  0  0  0  0  0  0  0  0
   28.4608  -22.1661  -16.3932 C   0  0  0  0  0  0  0  0  0  0  0  0
   28.4576  -20.9969  -16.8556 O   0  0  0  0  0  0  0  0  0  0  0  0
   29.4958  -22.9959  -16.7586 O   0  0  0  0  0  0  0  0  0  0  0  0
  2 13  1  0
  2  1  1  1
  3  2  1  0
  4  3  1  0
  4  5  2  0
  6  5  1  0
  7  6  1  0
  8  7  2  0
  9  8  1  0
 10  9  2  0
 10 11  1  0
 11 12  2  0
 12  7  1  0
 12  4  1  0
 13 14  2  0
 16 15  1  0
 16 17  2  0
 18 16  1  0
 19 18  1  0
 20 19  1  6
 20 22  1  0
 21 20  1  0
 21 13  1  0
 22 23  2  0
 24 22  1  0
 24 28  1  0
 25 26  1  0
 25 24  1  0
 26 27  1  0
 27 28  1  0
 28 29  1  6
 29 30  2  0
 29 31  1  0
M  END
$$$$
