WQP.pdb
     RDKit          3D

 31 33  0  0  1  0  0  0  0  0999 V2000
   28.3262  -20.6743   -9.7483 N   0  0  0  0  0  0  0  0  0  0  0  0
   26.9655  -21.0689   -9.6298 C   0  0  1  0  0  0  0  0  0  0  0  0
   26.1810  -20.4050   -8.5435 C   0  0  0  0  0  0  0  0  0  0  0  0
   27.0206  -19.7654   -7.4990 C   0  0  0  0  0  0  0  0  0  0  0  0
   27.3239  -18.4053   -7.3958 C   0  0  0  0  0  0  0  0  0  0  0  0
   28.0938  -18.2112   -6.3144 N   0  0  0  0  0  0  0  0  0  0  0  0
   28.3257  -19.3903   -5.6786 C   0  0  0  0  0  0  0  0  0  0  0  0
   29.0514  -19.6982   -4.5457 C   0  0  0  0  0  0  0  0  0  0  0  0
   29.1339  -20.9999   -4.1085 C   0  0  0  0  0  0  0  0  0  0  0  0
   28.4784  -21.9764   -4.8262 C   0  0  0  0  0  0  0  0  0  0  0  0
   27.7509  -21.6434   -5.9677 C   0  0  0  0  0  0  0  0  0  0  0  0
   27.6565  -20.3435   -6.4213 C   0  0  0  0  0  0  0  0  0  0  0  0
   26.2390  -20.8459  -10.9061 C   0  0  0  0  0  0  0  0  0  0  0  0
   26.2609  -19.6974  -11.4092 O   0  0  0  0  0  0  0  0  0  0  0  0
   26.9926  -23.4714  -15.7704 N   0  0  0  0  0  0  0  0  0  0  0  0
   25.8714  -22.6385  -15.9543 C   0  0  0  0  0  0  0  0  0  0  0  0
   25.8028  -21.7020  -16.7814 O   0  0  0  0  0  0  0  0  0  0  0  0
   24.6873  -22.9066  -15.0904 C   0  0  0  0  0  0  0  0  0  0  0  0
   25.1053  -23.0328  -13.6384 C   0  0  0  0  0  0  0  0  0  0  0  0
   25.0044  -21.7017  -12.9420 C   0  0  2  0  0  0  0  0  0  0  0  0
   25.5191  -21.8592  -11.5923 N   0  0  0  0  0  0  0  0  0  0  0  0
   23.6465  -21.1545  -12.8678 C   0  0  0  0  0  0  0  0  0  0  0  0
   22.9118  -21.4243  -11.8506 O   0  0  0  0  0  0  0  0  0  0  0  0
   23.1010  -20.3378  -13.8639 N   0  0  0  0  0  0  0  0  0  0  0  0
   23.6871  -19.9680  -15.1423 C   0  0  0  0  0  0  0  0  0  0  0  0
   23.2652  -18.5237  -15.2333 C   0  0  0  0  0  0  0  0  0  0  0  0
   21.8375  -18.5407  -14.7745 C   0  0  0  0  0  0  0  0  0  0  0  0
   21.7953  -19.6759  -13.7842 C   0  0  1  0  0  0  0  0  0  0  0  0
   20.6929  -20.5716  -14.2032 C   0  0  0  0  0  0  0  0  0  0  0  0
   21.0199  -21.6536  -14.7539 O   0  0  0  0  0  0  0  0  0  0  0  0
   19.3506  -20.3161  -14.0413 O   0  0  0  0  0  0  0  0  0  0  0  0
  2 13  1  0
  2  1  1  6
  3  2  1  0
  4  3  1  0
  4  5  2  0
  6  5  1  0
  7  6  1  0
  8  7  2  0
  9  8  1  0
 10  9  2  0
 10 11  1  0
 11 12  2  0
 12  7  1  0
 12  4  1  0
 13 14  2  0
 16 15  1  0
 16 17  2  0
 18 16  1  0
 19 18  1  0
 20 19  1  1
 20 22  1  0
 21 20  1  0
 21 13  1  0
 22 23  2  0
 24 22  1  0
 24 28  1  0
 25 26  1  0
 25 24  1  0
 26 27  1  0
 27 28  1  0
 28 29  1  6
 29 30  2  0
 29 31  1  0
M  END
$$$$
