WQP.pdb
     RDKit          3D

 31 33  0  0  1  0  0  0  0  0999 V2000
   28.2520  -20.5067  -10.0739 N   0  0  0  0  0  0  0  0  0  0  0  0
   26.8963  -20.8425   -9.8082 C   0  0  1  0  0  0  0  0  0  0  0  0
   26.2454  -20.1051   -8.6817 C   0  0  0  0  0  0  0  0  0  0  0  0
   27.2013  -19.5784   -7.6748 C   0  0  0  0  0  0  0  0  0  0  0  0
   27.9664  -18.4145   -7.7861 C   0  0  0  0  0  0  0  0  0  0  0  0
   28.6955  -18.2636   -6.6700 N   0  0  0  0  0  0  0  0  0  0  0  0
   28.4541  -19.2833   -5.8037 C   0  0  0  0  0  0  0  0  0  0  0  0
   28.9590  -19.5656   -4.5505 C   0  0  0  0  0  0  0  0  0  0  0  0
   28.5453  -20.6897   -3.8742 C   0  0  0  0  0  0  0  0  0  0  0  0
   27.6225  -21.5164   -4.4772 C   0  0  0  0  0  0  0  0  0  0  0  0
   27.1255  -21.2124   -5.7436 C   0  0  0  0  0  0  0  0  0  0  0  0
   27.5284  -20.0893   -6.4371 C   0  0  0  0  0  0  0  0  0  0  0  0
   26.0571  -20.6425  -11.0174 C   0  0  0  0  0  0  0  0  0  0  0  0
   26.0528  -19.5105  -11.5570 O   0  0  0  0  0  0  0  0  0  0  0  0
   24.4654  -25.3998  -14.2799 N   0  0  0  0  0  0  0  0  0  0  0  0
   25.4826  -24.5974  -14.8332 C   0  0  0  0  0  0  0  0  0  0  0  0
   26.3829  -25.0088  -15.5986 O   0  0  0  0  0  0  0  0  0  0  0  0
   25.4705  -23.1527  -14.4686 C   0  0  0  0  0  0  0  0  0  0  0  0
   24.3672  -22.8649  -13.4692 C   0  0  0  0  0  0  0  0  0  0  0  0
   24.5496  -21.5003  -12.8595 C   0  0  2  0  0  0  0  0  0  0  0  0
   25.2571  -21.6604  -11.6004 N   0  0  0  0  0  0  0  0  0  0  0  0
   23.3016  -20.7731  -12.6097 C   0  0  0  0  0  0  0  0  0  0  0  0
   22.7634  -20.8238  -11.4456 O   0  0  0  0  0  0  0  0  0  0  0  0
   22.6565  -20.0120  -13.5902 N   0  0  0  0  0  0  0  0  0  0  0  0
   23.1105  -19.7157  -14.9395 C   0  0  0  0  0  0  0  0  0  0  0  0
   22.6771  -18.2777  -15.0683 C   0  0  0  0  0  0  0  0  0  0  0  0
   21.3026  -18.2653  -14.4686 C   0  0  0  0  0  0  0  0  0  0  0  0
   21.3633  -19.3434  -13.4172 C   0  0  1  0  0  0  0  0  0  0  0  0
   20.2273  -20.2583  -13.6730 C   0  0  0  0  0  0  0  0  0  0  0  0
   19.0953  -19.8812  -13.2762 O   0  0  0  0  0  0  0  0  0  0  0  0
   20.3106  -21.4787  -14.3032 O   0  0  0  0  0  0  0  0  0  0  0  0
  2 13  1  0
  2  1  1  6
  3  2  1  0
  4  3  1  0
  4  5  2  0
  6  5  1  0
  7  6  1  0
  8  7  2  0
  9  8  1  0
 10  9  2  0
 10 11  1  0
 11 12  2  0
 12  7  1  0
 12  4  1  0
 13 14  2  0
 16 15  1  0
 16 17  2  0
 18 16  1  0
 19 18  1  0
 20 19  1  1
 20 22  1  0
 21 20  1  0
 21 13  1  0
 22 23  2  0
 24 22  1  0
 24 28  1  0
 25 26  1  0
 25 24  1  0
 26 27  1  0
 27 28  1  0
 28 29  1  6
 29 30  2  0
 29 31  1  0
M  END
$$$$
