WQP.pdb
     RDKit          3D

 31 33  0  0  1  0  0  0  0  0999 V2000
   27.6119  -19.0152  -14.8538 N   0  0  0  0  0  0  0  0  0  0  0  0
   27.1919  -19.6862  -13.6728 C   0  0  1  0  0  0  0  0  0  0  0  0
   28.0929  -19.5546  -12.4866 C   0  0  0  0  0  0  0  0  0  0  0  0
   27.7076  -20.4149  -11.3392 C   0  0  0  0  0  0  0  0  0  0  0  0
   27.5539  -21.8036  -11.3580 C   0  0  0  0  0  0  0  0  0  0  0  0
   27.2153  -22.2214  -10.1289 N   0  0  0  0  0  0  0  0  0  0  0  0
   27.1326  -21.1668   -9.2748 C   0  0  0  0  0  0  0  0  0  0  0  0
   26.8180  -21.0912   -7.9331 C   0  0  0  0  0  0  0  0  0  0  0  0
   26.7988  -19.8735   -7.2936 C   0  0  0  0  0  0  0  0  0  0  0  0
   27.0996  -18.7440   -8.0232 C   0  0  0  0  0  0  0  0  0  0  0  0
   27.4148  -18.8430   -9.3775 C   0  0  0  0  0  0  0  0  0  0  0  0
   27.4394  -20.0556  -10.0358 C   0  0  0  0  0  0  0  0  0  0  0  0
   25.8399  -19.2300  -13.2599 C   0  0  0  0  0  0  0  0  0  0  0  0
   25.7197  -18.0707  -12.7970 O   0  0  0  0  0  0  0  0  0  0  0  0
   20.5497  -19.3549  -15.6453 N   0  0  0  0  0  0  0  0  0  0  0  0
   21.7793  -19.8054  -16.1646 C   0  0  0  0  0  0  0  0  0  0  0  0
   21.9350  -20.3160  -17.2964 O   0  0  0  0  0  0  0  0  0  0  0  0
   22.9738  -19.6555  -15.2865 C   0  0  0  0  0  0  0  0  0  0  0  0
   22.5869  -19.0210  -13.9650 C   0  0  0  0  0  0  0  0  0  0  0  0
   23.3774  -19.6279  -12.8363 C   0  0  2  0  0  0  0  0  0  0  0  0
   24.6719  -20.0313  -13.3588 N   0  0  0  0  0  0  0  0  0  0  0  0
   22.7427  -20.7874  -12.2027 C   0  0  0  0  0  0  0  0  0  0  0  0
   22.9461  -21.9598  -12.6837 O   0  0  0  0  0  0  0  0  0  0  0  0
   21.9143  -20.6812  -11.0805 N   0  0  0  0  0  0  0  0  0  0  0  0
   21.6046  -19.4922  -10.3026 C   0  0  0  0  0  0  0  0  0  0  0  0
   21.6093  -20.0644   -8.9080 C   0  0  0  0  0  0  0  0  0  0  0  0
   20.8735  -21.3630   -9.0538 C   0  0  0  0  0  0  0  0  0  0  0  0
   21.1941  -21.7977  -10.4607 C   0  0  1  0  0  0  0  0  0  0  0  0
   19.9022  -22.0659  -11.1331 C   0  0  0  0  0  0  0  0  0  0  0  0
   19.5020  -21.2039  -11.9564 O   0  0  0  0  0  0  0  0  0  0  0  0
   19.1102  -23.1725  -10.9296 O   0  0  0  0  0  0  0  0  0  0  0  0
  2 13  1  0
  2  1  1  6
  3  2  1  0
  4  3  1  0
  4  5  2  0
  6  5  1  0
  7  6  1  0
  8  7  2  0
  9  8  1  0
 10  9  2  0
 10 11  1  0
 11 12  2  0
 12  7  1  0
 12  4  1  0
 13 14  2  0
 16 15  1  0
 16 17  2  0
 18 16  1  0
 19 18  1  0
 20 19  1  6
 20 22  1  0
 21 20  1  0
 21 13  1  0
 22 23  2  0
 24 22  1  0
 24 28  1  0
 25 26  1  0
 25 24  1  0
 26 27  1  0
 27 28  1  0
 28 29  1  6
 29 30  2  0
 29 31  1  0
M  END
$$$$
