WQP.pdb
     RDKit          3D

 31 33  0  0  1  0  0  0  0  0999 V2000
   25.2840  -21.4194   -8.2013 N   0  0  0  0  0  0  0  0  0  0  0  0
   25.8294  -20.4761   -9.1146 C   0  0  1  0  0  0  0  0  0  0  0  0
   27.2948  -20.2077   -8.9849 C   0  0  0  0  0  0  0  0  0  0  0  0
   27.6632  -19.4556   -7.7587 C   0  0  0  0  0  0  0  0  0  0  0  0
   27.2655  -18.1568   -7.4309 C   0  0  0  0  0  0  0  0  0  0  0  0
   27.7861  -17.8293   -6.2385 N   0  0  0  0  0  0  0  0  0  0  0  0
   28.5240  -18.8585   -5.7437 C   0  0  0  0  0  0  0  0  0  0  0  0
   29.2457  -18.9954   -4.5752 C   0  0  0  0  0  0  0  0  0  0  0  0
   29.9230  -20.1634   -4.3123 C   0  0  0  0  0  0  0  0  0  0  0  0
   29.8607  -21.1813   -5.2387 C   0  0  0  0  0  0  0  0  0  0  0  0
   29.1258  -21.0219   -6.4125 C   0  0  0  0  0  0  0  0  0  0  0  0
   28.4398  -19.8579   -6.6934 C   0  0  0  0  0  0  0  0  0  0  0  0
   25.5736  -20.8921  -10.5174 C   0  0  0  0  0  0  0  0  0  0  0  0
   26.1703  -21.9045  -10.9551 O   0  0  0  0  0  0  0  0  0  0  0  0
   21.4868  -20.5036  -10.8966 N   0  0  0  0  0  0  0  0  0  0  0  0
   21.7472  -21.5592  -11.7924 C   0  0  0  0  0  0  0  0  0  0  0  0
   21.7094  -22.7747  -11.4977 O   0  0  0  0  0  0  0  0  0  0  0  0
   22.0925  -21.1817  -13.1919 C   0  0  0  0  0  0  0  0  0  0  0  0
   23.1280  -20.0744  -13.2047 C   0  0  0  0  0  0  0  0  0  0  0  0
   24.4714  -20.6025  -12.7764 C   0  0  2  0  0  0  0  0  0  0  0  0
   24.6905  -20.2092  -11.3948 N   0  0  0  0  0  0  0  0  0  0  0  0
   25.5982  -20.1289  -13.5856 C   0  0  0  0  0  0  0  0  0  0  0  0
   26.1030  -18.9727  -13.3499 O   0  0  0  0  0  0  0  0  0  0  0  0
   26.1632  -20.8854  -14.6179 N   0  0  0  0  0  0  0  0  0  0  0  0
   25.8111  -22.2315  -15.0406 C   0  0  0  0  0  0  0  0  0  0  0  0
   27.1778  -22.7969  -15.3318 C   0  0  0  0  0  0  0  0  0  0  0  0
   27.8735  -21.6874  -16.0625 C   0  0  0  0  0  0  0  0  0  0  0  0
   27.2613  -20.4393  -15.4807 C   0  0  1  0  0  0  0  0  0  0  0  0
   26.7765  -19.6266  -16.6198 C   0  0  0  0  0  0  0  0  0  0  0  0
   25.5326  -19.5864  -16.7988 O   0  0  0  0  0  0  0  0  0  0  0  0
   27.5716  -18.9192  -17.4921 O   0  0  0  0  0  0  0  0  0  0  0  0
  2 13  1  0
  2  1  1  1
  3  2  1  0
  4  3  1  0
  4  5  2  0
  6  5  1  0
  7  6  1  0
  8  7  2  0
  9  8  1  0
 10  9  2  0
 10 11  1  0
 11 12  2  0
 12  7  1  0
 12  4  1  0
 13 14  2  0
 16 15  1  0
 16 17  2  0
 18 16  1  0
 19 18  1  0
 20 19  1  6
 20 22  1  0
 21 20  1  0
 21 13  1  0
 22 23  2  0
 24 22  1  0
 24 28  1  0
 25 26  1  0
 25 24  1  0
 26 27  1  0
 27 28  1  0
 28 29  1  6
 29 30  2  0
 29 31  1  0
M  END
$$$$
