GHR.pdb
     RDKit          3D

 26 26  0  0  1  0  0  0  0  0999 V2000
   23.2655   -8.3021  -14.5152 N   0  0  0  0  0  0  0  0  0  0  0  0
   24.2836   -9.2856  -14.2193 C   0  0  0  0  0  0  0  0  0  0  0  0
   25.2697   -9.2692  -15.3303 C   0  0  0  0  0  0  0  0  0  0  0  0
   25.0490   -8.6000  -16.3929 O   0  0  0  0  0  0  0  0  0  0  0  0
   26.4966   -9.9864  -15.2752 N   0  0  0  0  0  0  0  0  0  0  0  0
   27.4387   -9.9237  -16.4026 C   0  0  1  0  0  0  0  0  0  0  0  0
   28.8572  -10.0164  -15.9023 C   0  0  0  0  0  0  0  0  0  0  0  0
   29.7878   -9.9168  -17.0406 C   0  0  0  0  0  0  0  0  0  0  0  0
   30.1428   -8.7298  -17.6514 C   0  0  0  0  0  0  0  0  0  0  0  0
   30.9923   -8.9601  -18.6418 N   0  0  0  0  0  0  0  0  0  0  0  0
   31.1964  -10.2852  -18.6850 C   0  0  0  0  0  0  0  0  0  0  0  0
   30.4639  -10.8639  -17.7119 N   0  0  0  0  0  0  0  0  0  0  0  0
   27.0559  -11.0261  -17.3138 C   0  0  0  0  0  0  0  0  0  0  0  0
   26.7621  -12.1405  -16.8075 O   0  0  0  0  0  0  0  0  0  0  0  0
   22.6774  -10.2717  -24.5212 N   0  0  0  0  0  0  0  0  0  0  0  0
   23.7433   -9.6510  -23.8082 C   0  0  0  0  0  0  0  0  0  0  0  0
   24.0060   -8.4219  -23.9808 N   0  0  0  0  0  0  0  0  0  0  0  0
   24.5163  -10.4144  -22.8978 N   0  0  0  0  0  0  0  0  0  0  0  0
   24.2421  -11.8052  -22.6396 C   0  0  0  0  0  0  0  0  0  0  0  0
   25.2382  -12.3782  -21.6589 C   0  0  0  0  0  0  0  0  0  0  0  0
   25.7170  -11.3888  -20.6503 C   0  0  0  0  0  0  0  0  0  0  0  0
   26.6804  -11.9806  -19.6323 C   0  0  2  0  0  0  0  0  0  0  0  0
   26.9991  -10.9077  -18.7111 N   0  0  0  0  0  0  0  0  0  0  0  0
   27.8657  -12.5744  -20.2496 C   0  0  0  0  0  0  0  0  0  0  0  0
   27.8612  -13.8107  -20.8332 O   0  0  0  0  0  0  0  0  0  0  0  0
   28.9481  -11.9312  -20.2517 O   0  0  0  0  0  0  0  0  0  0  0  0
  2  1  1  0
  3  2  1  0
  3  4  2  0
  5  3  1  0
  6  5  1  0
  6  7  1  1
  8  7  1  0
  8  9  2  0
 10  9  1  0
 11 10  1  0
 12 11  2  0
 12  8  1  0
 13  6  1  0
 14 13  2  0
 16 15  1  0
 17 16  2  0
 18 16  1  0
 19 20  1  0
 19 18  1  0
 20 21  1  0
 22 23  1  0
 22 21  1  6
 23 13  1  0
 24 22  1  0
 25 24  1  0
 26 24  2  0
M  END
$$$$
