GHR.pdb
     RDKit          3D

 26 26  0  0  1  0  0  0  0  0999 V2000
   26.7265  -21.2032  -18.1491 N   0  0  0  0  0  0  0  0  0  0  0  0
   26.1990  -22.1920  -17.2351 C   0  0  0  0  0  0  0  0  0  0  0  0
   25.6753  -21.4771  -16.0428 C   0  0  0  0  0  0  0  0  0  0  0  0
   26.4381  -20.7453  -15.3297 O   0  0  0  0  0  0  0  0  0  0  0  0
   24.3161  -21.5649  -15.6335 N   0  0  0  0  0  0  0  0  0  0  0  0
   23.8429  -20.7908  -14.4761 C   0  0  1  0  0  0  0  0  0  0  0  0
   22.3365  -20.7854  -14.4334 C   0  0  0  0  0  0  0  0  0  0  0  0
   21.8216  -19.7710  -15.3700 C   0  0  0  0  0  0  0  0  0  0  0  0
   22.6154  -18.8665  -16.0482 C   0  0  0  0  0  0  0  0  0  0  0  0
   21.8682  -18.0845  -16.8136 N   0  0  0  0  0  0  0  0  0  0  0  0
   20.5942  -18.4682  -16.6430 C   0  0  0  0  0  0  0  0  0  0  0  0
   20.5685  -19.4923  -15.7660 N   0  0  0  0  0  0  0  0  0  0  0  0
   24.4697  -21.4127  -13.2877 C   0  0  0  0  0  0  0  0  0  0  0  0
   24.4657  -22.6685  -13.2026 O   0  0  0  0  0  0  0  0  0  0  0  0
   32.0216  -20.3900   -9.6213 N   0  0  0  0  0  0  0  0  0  0  0  0
   31.5190  -21.6804   -9.9565 C   0  0  0  0  0  0  0  0  0  0  0  0
   32.3115  -22.6213  -10.2666 N   0  0  0  0  0  0  0  0  0  0  0  0
   30.1211  -21.9138   -9.9426 N   0  0  0  0  0  0  0  0  0  0  0  0
   29.1753  -20.8775   -9.6145 C   0  0  0  0  0  0  0  0  0  0  0  0
   27.7569  -21.3811   -9.7444 C   0  0  0  0  0  0  0  0  0  0  0  0
   27.0636  -20.8969  -10.9734 C   0  0  0  0  0  0  0  0  0  0  0  0
   25.5864  -21.2582  -11.0168 C   0  0  2  0  0  0  0  0  0  0  0  0
   25.0704  -20.6889  -12.2460 N   0  0  0  0  0  0  0  0  0  0  0  0
   24.8569  -20.8123   -9.8305 C   0  0  0  0  0  0  0  0  0  0  0  0
   24.0706  -19.6940   -9.8164 O   0  0  0  0  0  0  0  0  0  0  0  0
   24.9465  -21.4769   -8.7649 O   0  0  0  0  0  0  0  0  0  0  0  0
  2  1  1  0
  3  2  1  0
  3  4  2  0
  5  3  1  0
  6  5  1  0
  6  7  1  1
  8  7  1  0
  8  9  2  0
 10  9  1  0
 11 10  1  0
 12 11  2  0
 12  8  1  0
 13  6  1  0
 14 13  2  0
 16 15  1  0
 17 16  2  0
 18 16  1  0
 19 20  1  0
 19 18  1  0
 20 21  1  0
 22 23  1  0
 22 21  1  1
 23 13  1  0
 24 22  1  0
 25 24  1  0
 26 24  2  0
M  END
$$$$
