GHR.pdb
     RDKit          3D

 26 26  0  0  1  0  0  0  0  0999 V2000
   17.8606   -9.8867  -16.4766 N   0  0  0  0  0  0  0  0  0  0  0  0
   17.5304  -10.6608  -15.3006 C   0  0  0  0  0  0  0  0  0  0  0  0
   18.2161  -10.0393  -14.1385 C   0  0  0  0  0  0  0  0  0  0  0  0
   18.4806  -10.7194  -13.0928 O   0  0  0  0  0  0  0  0  0  0  0  0
   18.6113   -8.6732  -14.1239 N   0  0  0  0  0  0  0  0  0  0  0  0
   19.2547   -8.1044  -12.9302 C   0  0  1  0  0  0  0  0  0  0  0  0
   20.4565   -7.2856  -13.3260 C   0  0  0  0  0  0  0  0  0  0  0  0
   21.4977   -8.1732  -13.8731 C   0  0  0  0  0  0  0  0  0  0  0  0
   21.8786   -8.1968  -15.2008 C   0  0  0  0  0  0  0  0  0  0  0  0
   22.8339   -9.0957  -15.3878 N   0  0  0  0  0  0  0  0  0  0  0  0
   23.0815   -9.6603  -14.1964 C   0  0  0  0  0  0  0  0  0  0  0  0
   22.2690   -9.0985  -13.2784 N   0  0  0  0  0  0  0  0  0  0  0  0
   18.2054   -7.3239  -12.2360 C   0  0  0  0  0  0  0  0  0  0  0  0
   17.5727   -6.4596  -12.8970 O   0  0  0  0  0  0  0  0  0  0  0  0
   11.2474   -9.3808   -7.6293 N   0  0  0  0  0  0  0  0  0  0  0  0
   11.3596   -7.9714   -7.4540 C   0  0  0  0  0  0  0  0  0  0  0  0
   10.4375   -7.3169   -6.8788 N   0  0  0  0  0  0  0  0  0  0  0  0
   12.5125   -7.2956   -7.9264 N   0  0  0  0  0  0  0  0  0  0  0  0
   13.5847   -7.9873   -8.5957 C   0  0  0  0  0  0  0  0  0  0  0  0
   14.6860   -7.0286   -8.9834 C   0  0  0  0  0  0  0  0  0  0  0  0
   15.8063   -7.6773   -9.7247 C   0  0  0  0  0  0  0  0  0  0  0  0
   16.8885   -6.7011  -10.1610 C   0  0  2  0  0  0  0  0  0  0  0  0
   17.8697   -7.4868  -10.8830 N   0  0  0  0  0  0  0  0  0  0  0  0
   17.4649   -5.9545   -9.0435 C   0  0  0  0  0  0  0  0  0  0  0  0
   18.7165   -6.1995   -8.5509 O   0  0  0  0  0  0  0  0  0  0  0  0
   16.7908   -5.0414   -8.4983 O   0  0  0  0  0  0  0  0  0  0  0  0
  2  1  1  0
  3  2  1  0
  3  4  2  0
  5  3  1  0
  6  5  1  0
  6  7  1  6
  8  7  1  0
  8  9  2  0
 10  9  1  0
 11 10  1  0
 12 11  2  0
 12  8  1  0
 13  6  1  0
 14 13  2  0
 16 15  1  0
 17 16  2  0
 18 16  1  0
 19 20  1  0
 19 18  1  0
 20 21  1  0
 22 23  1  0
 22 21  1  1
 23 13  1  0
 24 22  1  0
 25 24  1  0
 26 24  2  0
M  END
$$$$
