GHR.pdb
     RDKit          3D

 26 26  0  0  1  0  0  0  0  0999 V2000
   28.4787  -20.4079  -14.1101 N   0  0  0  0  0  0  0  0  0  0  0  0
   28.9569  -20.8142  -12.8072 C   0  0  0  0  0  0  0  0  0  0  0  0
   27.7746  -21.0193  -11.9314 C   0  0  0  0  0  0  0  0  0  0  0  0
   27.2312  -22.1676  -11.8219 O   0  0  0  0  0  0  0  0  0  0  0  0
   27.1894  -19.9656  -11.1765 N   0  0  0  0  0  0  0  0  0  0  0  0
   25.9782  -20.2134  -10.3801 C   0  0  1  0  0  0  0  0  0  0  0  0
   25.9156  -19.2587   -9.2158 C   0  0  0  0  0  0  0  0  0  0  0  0
   27.0344  -19.5304   -8.2961 C   0  0  0  0  0  0  0  0  0  0  0  0
   28.0153  -20.4759   -8.5249 C   0  0  0  0  0  0  0  0  0  0  0  0
   28.8819  -20.4890   -7.5228 N   0  0  0  0  0  0  0  0  0  0  0  0
   28.4781  -19.5622   -6.6412 C   0  0  0  0  0  0  0  0  0  0  0  0
   27.3562  -18.9816   -7.1130 N   0  0  0  0  0  0  0  0  0  0  0  0
   24.8408  -20.0825  -11.3188 C   0  0  0  0  0  0  0  0  0  0  0  0
   25.0253  -19.4497  -12.3912 O   0  0  0  0  0  0  0  0  0  0  0  0
   23.3803  -26.5745  -15.7099 N   0  0  0  0  0  0  0  0  0  0  0  0
   22.8326  -25.4950  -16.4613 C   0  0  0  0  0  0  0  0  0  0  0  0
   22.6272  -25.6145  -17.7075 N   0  0  0  0  0  0  0  0  0  0  0  0
   22.5143  -24.2772  -15.8095 N   0  0  0  0  0  0  0  0  0  0  0  0
   22.7296  -24.0858  -14.3977 C   0  0  0  0  0  0  0  0  0  0  0  0
   22.4044  -22.6679  -13.9899 C   0  0  0  0  0  0  0  0  0  0  0  0
   23.2415  -22.1663  -12.8616 C   0  0  0  0  0  0  0  0  0  0  0  0
   22.6149  -20.9971  -12.1167 C   0  0  2  0  0  0  0  0  0  0  0  0
   23.5653  -20.6210  -11.0888 N   0  0  0  0  0  0  0  0  0  0  0  0
   21.2894  -21.3077  -11.5829 C   0  0  0  0  0  0  0  0  0  0  0  0
   20.1334  -21.0608  -12.2698 O   0  0  0  0  0  0  0  0  0  0  0  0
   21.1904  -21.8259  -10.4397 O   0  0  0  0  0  0  0  0  0  0  0  0
  2  1  1  0
  3  2  1  0
  3  4  2  0
  5  3  1  0
  6  5  1  0
  6  7  1  1
  8  7  1  0
  8  9  2  0
 10  9  1  0
 11 10  1  0
 12 11  2  0
 12  8  1  0
 13  6  1  0
 14 13  2  0
 16 15  1  0
 17 16  2  0
 18 16  1  0
 19 20  1  0
 19 18  1  0
 20 21  1  0
 22 23  1  0
 22 21  1  1
 23 13  1  0
 24 22  1  0
 25 24  1  0
 26 24  2  0
M  END
$$$$
