GHR.pdb
     RDKit          3D

 26 26  0  0  1  0  0  0  0  0999 V2000
   26.9866  -13.3413  -15.1907 N   0  0  0  0  0  0  0  0  0  0  0  0
   26.5844  -13.1918  -16.5718 C   0  0  0  0  0  0  0  0  0  0  0  0
   25.1744  -12.7244  -16.5878 C   0  0  0  0  0  0  0  0  0  0  0  0
   24.5755  -12.4853  -17.6878 O   0  0  0  0  0  0  0  0  0  0  0  0
   24.4224  -12.5198  -15.3982 N   0  0  0  0  0  0  0  0  0  0  0  0
   22.9891  -12.2004  -15.4775 C   0  0  1  0  0  0  0  0  0  0  0  0
   22.2164  -13.0192  -14.4756 C   0  0  0  0  0  0  0  0  0  0  0  0
   21.2098  -13.8343  -15.1783 C   0  0  0  0  0  0  0  0  0  0  0  0
   21.0236  -13.8279  -16.5471 C   0  0  0  0  0  0  0  0  0  0  0  0
   20.0487  -14.6608  -16.8810 N   0  0  0  0  0  0  0  0  0  0  0  0
   19.5954  -15.2116  -15.7450 C   0  0  0  0  0  0  0  0  0  0  0  0
   20.3019  -14.7082  -14.7126 N   0  0  0  0  0  0  0  0  0  0  0  0
   22.8855  -10.7398  -15.2587 C   0  0  0  0  0  0  0  0  0  0  0  0
   23.6083  -10.2196  -14.3692 O   0  0  0  0  0  0  0  0  0  0  0  0
   18.3063   -4.5374  -19.9139 N   0  0  0  0  0  0  0  0  0  0  0  0
   18.9705   -3.8387  -18.8649 C   0  0  0  0  0  0  0  0  0  0  0  0
   18.8999   -2.5744  -18.7856 N   0  0  0  0  0  0  0  0  0  0  0  0
   19.7163   -4.5634  -17.9018 N   0  0  0  0  0  0  0  0  0  0  0  0
   19.8492   -5.9971  -17.9573 C   0  0  0  0  0  0  0  0  0  0  0  0
   20.7076   -6.5034  -16.8219 C   0  0  0  0  0  0  0  0  0  0  0  0
   20.9760   -7.9694  -16.8867 C   0  0  0  0  0  0  0  0  0  0  0  0
   21.8844   -8.4680  -15.7728 C   0  0  2  0  0  0  0  0  0  0  0  0
   22.0299   -9.8949  -15.9826 N   0  0  0  0  0  0  0  0  0  0  0  0
   21.3845   -8.1348  -14.4395 C   0  0  0  0  0  0  0  0  0  0  0  0
   21.7717   -7.0151  -13.7574 O   0  0  0  0  0  0  0  0  0  0  0  0
   20.5597   -8.9040  -13.8797 O   0  0  0  0  0  0  0  0  0  0  0  0
  2  1  1  0
  3  2  1  0
  3  4  2  0
  5  3  1  0
  6  5  1  0
  6  7  1  1
  8  7  1  0
  8  9  2  0
 10  9  1  0
 11 10  1  0
 12 11  2  0
 12  8  1  0
 13  6  1  0
 14 13  2  0
 16 15  1  0
 17 16  2  0
 18 16  1  0
 19 20  1  0
 19 18  1  0
 20 21  1  0
 22 23  1  0
 22 21  1  6
 23 13  1  0
 24 22  1  0
 25 24  1  0
 26 24  2  0
M  END
$$$$
