GHR.pdb
     RDKit          3D

 26 26  0  0  1  0  0  0  0  0999 V2000
   21.2049  -13.4950  -17.8575 N   0  0  0  0  0  0  0  0  0  0  0  0
   20.8923  -13.6509  -16.4542 C   0  0  0  0  0  0  0  0  0  0  0  0
   21.3666  -12.4354  -15.7438 C   0  0  0  0  0  0  0  0  0  0  0  0
   21.3259  -12.3618  -14.4716 O   0  0  0  0  0  0  0  0  0  0  0  0
   21.8851  -11.3020  -16.4289 N   0  0  0  0  0  0  0  0  0  0  0  0
   22.2781  -10.1014  -15.6761 C   0  0  1  0  0  0  0  0  0  0  0  0
   23.4284   -9.4098  -16.3614 C   0  0  0  0  0  0  0  0  0  0  0  0
   24.6992  -10.0011  -15.9066 C   0  0  0  0  0  0  0  0  0  0  0  0
   24.9237  -11.3586  -15.7835 C   0  0  0  0  0  0  0  0  0  0  0  0
   26.1570  -11.5821  -15.3537 N   0  0  0  0  0  0  0  0  0  0  0  0
   26.7412  -10.3851  -15.1945 C   0  0  0  0  0  0  0  0  0  0  0  0
   25.8540   -9.4268  -15.5308 N   0  0  0  0  0  0  0  0  0  0  0  0
   21.0584   -9.2683  -15.5742 C   0  0  0  0  0  0  0  0  0  0  0  0
   20.3186   -9.1715  -16.5878 O   0  0  0  0  0  0  0  0  0  0  0  0
   14.6697   -9.3401   -9.7182 N   0  0  0  0  0  0  0  0  0  0  0  0
   14.3011   -8.3857  -10.7098 C   0  0  0  0  0  0  0  0  0  0  0  0
   13.0992   -7.9928  -10.8124 N   0  0  0  0  0  0  0  0  0  0  0  0
   15.2870   -7.8711  -11.5886 N   0  0  0  0  0  0  0  0  0  0  0  0
   16.5350   -8.5524  -11.8219 C   0  0  0  0  0  0  0  0  0  0  0  0
   17.3339   -7.8599  -12.9011 C   0  0  0  0  0  0  0  0  0  0  0  0
   18.6309   -8.5312  -13.2048 C   0  0  0  0  0  0  0  0  0  0  0  0
   19.4527   -7.8095  -14.2623 C   0  0  2  0  0  0  0  0  0  0  0  0
   20.6727   -8.5772  -14.4151 N   0  0  0  0  0  0  0  0  0  0  0  0
   19.6985   -6.4064  -13.9315 C   0  0  0  0  0  0  0  0  0  0  0  0
   18.8040   -5.4091  -14.2045 O   0  0  0  0  0  0  0  0  0  0  0  0
   20.7786   -6.0848  -13.3698 O   0  0  0  0  0  0  0  0  0  0  0  0
  2  1  1  0
  3  2  1  0
  3  4  2  0
  5  3  1  0
  6  5  1  0
  6  7  1  6
  8  7  1  0
  8  9  2  0
 10  9  1  0
 11 10  1  0
 12 11  2  0
 12  8  1  0
 13  6  1  0
 14 13  2  0
 16 15  1  0
 17 16  2  0
 18 16  1  0
 19 20  1  0
 19 18  1  0
 20 21  1  0
 22 23  1  0
 22 21  1  1
 23 13  1  0
 24 22  1  0
 25 24  1  0
 26 24  2  0
M  END
$$$$
