WMW.pdb
     RDKit          3D

 37 40  0  0  1  0  0  0  0  0999 V2000
    7.6443  -15.1753   23.3723 N   0  0  0  0  0  0  0  0  0  0  0  0
    8.5824  -16.1070   24.0357 C   0  0  1  0  0  0  0  0  0  0  0  0
    7.9205  -16.4367   25.3600 C   0  0  0  0  0  0  0  0  0  0  0  0
    7.1111  -15.3171   25.9004 C   0  0  0  0  0  0  0  0  0  0  0  0
    5.8388  -15.4479   26.4607 C   0  0  0  0  0  0  0  0  0  0  0  0
    5.4189  -14.2445   26.8755 N   0  0  0  0  0  0  0  0  0  0  0  0
    6.3649  -13.3244   26.6099 C   0  0  0  0  0  0  0  0  0  0  0  0
    6.3778  -11.9544   26.8491 C   0  0  0  0  0  0  0  0  0  0  0  0
    7.4755  -11.2114   26.4722 C   0  0  0  0  0  0  0  0  0  0  0  0
    8.5322  -11.8612   25.8650 C   0  0  0  0  0  0  0  0  0  0  0  0
    8.5021  -13.2264   25.6346 C   0  0  0  0  0  0  0  0  0  0  0  0
    7.4173  -13.9816   26.0047 C   0  0  0  0  0  0  0  0  0  0  0  0
    8.7646  -17.2546   23.1427 C   0  0  0  0  0  0  0  0  0  0  0  0
    9.0669  -18.3947   23.6044 O   0  0  0  0  0  0  0  0  0  0  0  0
    8.0222  -12.4168   20.6646 C   0  0  0  0  0  0  0  0  0  0  0  0
    7.2550  -13.5887   19.4949 S   0  0  0  0  0  0  0  0  0  0  0  0
    7.6805  -15.2897   20.0369 C   0  0  0  0  0  0  0  0  0  0  0  0
    9.1327  -15.2713   20.3931 C   0  0  0  0  0  0  0  0  0  0  0  0
    9.6283  -16.6491   20.8400 C   0  0  2  0  0  0  0  0  0  0  0  0
    8.6176  -17.1891   21.7265 N   0  0  0  0  0  0  0  0  0  0  0  0
   10.9503  -16.5331   21.4974 C   0  0  0  0  0  0  0  0  0  0  0  0
   11.9061  -16.0566   20.8285 O   0  0  0  0  0  0  0  0  0  0  0  0
   11.2034  -16.9230   22.8240 N   0  0  0  0  0  0  0  0  0  0  0  0
   12.5291  -16.6304   23.4107 C   0  0  1  0  0  0  0  0  0  0  0  0
   12.3679  -15.6563   24.5272 C   0  0  0  0  0  0  0  0  0  0  0  0
   11.6897  -16.1161   25.7349 C   0  0  0  0  0  0  0  0  0  0  0  0
   11.7643  -17.4288   26.2271 C   0  0  0  0  0  0  0  0  0  0  0  0
   11.0082  -17.5432   27.3318 N   0  0  0  0  0  0  0  0  0  0  0  0
   10.4338  -16.3771   27.6038 C   0  0  0  0  0  0  0  0  0  0  0  0
    9.5955  -15.9956   28.6247 C   0  0  0  0  0  0  0  0  0  0  0  0
    9.1575  -14.6772   28.6674 C   0  0  0  0  0  0  0  0  0  0  0  0
    9.5544  -13.7550   27.7006 C   0  0  0  0  0  0  0  0  0  0  0  0
   10.3890  -14.1965   26.7095 C   0  0  0  0  0  0  0  0  0  0  0  0
   10.8480  -15.4937   26.6266 C   0  0  0  0  0  0  0  0  0  0  0  0
   13.0979  -17.9154   23.8282 C   0  0  0  0  0  0  0  0  0  0  0  0
   14.4184  -17.9720   24.2419 O   0  0  0  0  0  0  0  0  0  0  0  0
   12.4714  -19.0113   23.8438 O   0  0  0  0  0  0  0  0  0  0  0  0
  2  1  1  6
  3  2  1  0
  4  5  2  0
  4  3  1  0
  6  5  1  0
  7 12  2  0
  7  6  1  0
  8  7  1  0
  9 10  1  0
  9  8  2  0
 10 11  2  0
 11 12  1  0
 12  4  1  0
 13  2  1  0
 14 13  2  0
 16 17  1  0
 16 15  1  0
 17 18  1  0
 19 18  1  1
 19 21  1  0
 19 20  1  0
 20 13  1  0
 21 22  2  0
 23 24  1  0
 23 21  1  0
 25 26  1  0
 24 25  1  1
 26 27  2  0
 27 28  1  0
 29 28  1  0
 30 29  2  0
 31 30  1  0
 32 33  1  0
 32 31  2  0
 33 34  2  0
 34 26  1  0
 34 29  1  0
 35 36  1  0
 35 24  1  0
 37 35  2  0
M  END
$$$$
