WMW.pdb
     RDKit          3D

 37 40  0  0  1  0  0  0  0  0999 V2000
    8.7737  -16.7735   20.7098 N   0  0  0  0  0  0  0  0  0  0  0  0
    8.1697  -15.8805   21.7227 C   0  0  1  0  0  0  0  0  0  0  0  0
    7.0294  -15.1941   20.9951 C   0  0  0  0  0  0  0  0  0  0  0  0
    7.4913  -14.2688   19.9315 C   0  0  0  0  0  0  0  0  0  0  0  0
    6.6525  -13.5266   19.0978 C   0  0  0  0  0  0  0  0  0  0  0  0
    7.4034  -12.7746   18.2809 N   0  0  0  0  0  0  0  0  0  0  0  0
    8.7056  -12.9925   18.5431 C   0  0  0  0  0  0  0  0  0  0  0  0
    9.8433  -12.4506   17.9548 C   0  0  0  0  0  0  0  0  0  0  0  0
   11.0877  -12.8440   18.3977 C   0  0  0  0  0  0  0  0  0  0  0  0
   11.1593  -13.7708   19.4191 C   0  0  0  0  0  0  0  0  0  0  0  0
   10.0156  -14.3001   19.9933 C   0  0  0  0  0  0  0  0  0  0  0  0
    8.7685  -13.9184   19.5652 C   0  0  0  0  0  0  0  0  0  0  0  0
    7.7563  -16.7167   22.8529 C   0  0  0  0  0  0  0  0  0  0  0  0
    6.7640  -16.3932   23.5707 O   0  0  0  0  0  0  0  0  0  0  0  0
    4.8437  -21.7605   23.7236 C   0  0  0  0  0  0  0  0  0  0  0  0
    6.0976  -20.7644   24.5984 S   0  0  0  0  0  0  0  0  0  0  0  0
    7.6287  -20.7659   23.5863 C   0  0  0  0  0  0  0  0  0  0  0  0
    8.6563  -20.0131   24.3694 C   0  0  0  0  0  0  0  0  0  0  0  0
    8.2815  -18.5379   24.5330 C   0  0  2  0  0  0  0  0  0  0  0  0
    8.4105  -17.9268   23.2256 N   0  0  0  0  0  0  0  0  0  0  0  0
    9.1516  -17.8939   25.5438 C   0  0  0  0  0  0  0  0  0  0  0  0
   10.3722  -17.7452   25.2680 O   0  0  0  0  0  0  0  0  0  0  0  0
    8.6973  -17.4382   26.7936 N   0  0  0  0  0  0  0  0  0  0  0  0
    9.6777  -16.8650   27.7409 C   0  0  1  0  0  0  0  0  0  0  0  0
    9.1629  -15.5634   28.2529 C   0  0  0  0  0  0  0  0  0  0  0  0
    8.0983  -14.9114   27.4969 C   0  0  0  0  0  0  0  0  0  0  0  0
    6.9990  -15.5873   26.9440 C   0  0  0  0  0  0  0  0  0  0  0  0
    6.2161  -14.7175   26.2843 N   0  0  0  0  0  0  0  0  0  0  0  0
    6.7332  -13.4970   26.3679 C   0  0  0  0  0  0  0  0  0  0  0  0
    6.2946  -12.2908   25.8750 C   0  0  0  0  0  0  0  0  0  0  0  0
    7.0456  -11.1518   26.1408 C   0  0  0  0  0  0  0  0  0  0  0  0
    8.2189  -11.2215   26.8897 C   0  0  0  0  0  0  0  0  0  0  0  0
    8.6029  -12.4515   27.3516 C   0  0  0  0  0  0  0  0  0  0  0  0
    7.8908  -13.6074   27.1125 C   0  0  0  0  0  0  0  0  0  0  0  0
    9.8872  -17.8684   28.7889 C   0  0  0  0  0  0  0  0  0  0  0  0
   10.8453  -17.6438   29.7633 O   0  0  0  0  0  0  0  0  0  0  0  0
    9.2521  -18.9552   28.8852 O   0  0  0  0  0  0  0  0  0  0  0  0
  2  1  1  6
  3  2  1  0
  4  5  2  0
  4  3  1  0
  6  5  1  0
  7 12  2  0
  7  6  1  0
  8  7  1  0
  9 10  1  0
  9  8  2  0
 10 11  2  0
 11 12  1  0
 12  4  1  0
 13  2  1  0
 14 13  2  0
 16 17  1  0
 16 15  1  0
 17 18  1  0
 19 18  1  6
 19 21  1  0
 19 20  1  0
 20 13  1  0
 21 22  2  0
 23 24  1  0
 23 21  1  0
 25 26  1  0
 24 25  1  1
 26 27  2  0
 27 28  1  0
 29 28  1  0
 30 29  2  0
 31 30  1  0
 32 33  1  0
 32 31  2  0
 33 34  2  0
 34 26  1  0
 34 29  1  0
 35 36  1  0
 35 24  1  0
 37 35  2  0
M  END
$$$$
