WMW.pdb
     RDKit          3D

 37 40  0  0  1  0  0  0  0  0999 V2000
    9.2907  -17.7243   20.0392 N   0  0  0  0  0  0  0  0  0  0  0  0
   10.1871  -16.7261   20.6624 C   0  0  1  0  0  0  0  0  0  0  0  0
    9.3861  -16.1650   21.8219 C   0  0  0  0  0  0  0  0  0  0  0  0
    8.2571  -15.3064   21.3873 C   0  0  0  0  0  0  0  0  0  0  0  0
    6.9498  -15.4006   21.8685 C   0  0  0  0  0  0  0  0  0  0  0  0
    6.2013  -14.4528   21.2869 N   0  0  0  0  0  0  0  0  0  0  0  0
    6.9645  -13.7372   20.4398 C   0  0  0  0  0  0  0  0  0  0  0  0
    6.6315  -12.6668   19.6167 C   0  0  0  0  0  0  0  0  0  0  0  0
    7.6015  -12.0974   18.8204 C   0  0  0  0  0  0  0  0  0  0  0  0
    8.8806  -12.6160   18.8699 C   0  0  0  0  0  0  0  0  0  0  0  0
    9.1942  -13.6827   19.6956 C   0  0  0  0  0  0  0  0  0  0  0  0
    8.2406  -14.2608   20.4959 C   0  0  0  0  0  0  0  0  0  0  0  0
   11.4160  -17.4235   21.0512 C   0  0  0  0  0  0  0  0  0  0  0  0
   11.3675  -18.5267   21.6717 O   0  0  0  0  0  0  0  0  0  0  0  0
   16.5297  -14.0834   19.9322 C   0  0  0  0  0  0  0  0  0  0  0  0
   15.6291  -15.1331   18.7419 S   0  0  0  0  0  0  0  0  0  0  0  0
   15.2706  -16.7366   19.5595 C   0  0  0  0  0  0  0  0  0  0  0  0
   15.0525  -16.4356   21.0079 C   0  0  0  0  0  0  0  0  0  0  0  0
   13.8842  -17.2369   21.5879 C   0  0  2  0  0  0  0  0  0  0  0  0
   12.7263  -16.9387   20.7697 N   0  0  0  0  0  0  0  0  0  0  0  0
   13.6738  -16.8849   23.0110 C   0  0  0  0  0  0  0  0  0  0  0  0
   13.9348  -15.7074   23.3760 O   0  0  0  0  0  0  0  0  0  0  0  0
   13.1999  -17.7862   23.9801 N   0  0  0  0  0  0  0  0  0  0  0  0
   12.9437  -17.2888   25.3491 C   0  0  1  0  0  0  0  0  0  0  0  0
   11.4752  -17.2866   25.6040 C   0  0  0  0  0  0  0  0  0  0  0  0
   11.0159  -16.8388   26.9150 C   0  0  0  0  0  0  0  0  0  0  0  0
   10.9352  -17.6677   28.0452 C   0  0  0  0  0  0  0  0  0  0  0  0
   10.4479  -16.9711   29.0854 N   0  0  0  0  0  0  0  0  0  0  0  0
   10.1999  -15.7213   28.7105 C   0  0  0  0  0  0  0  0  0  0  0  0
    9.7153  -14.6433   29.4127 C   0  0  0  0  0  0  0  0  0  0  0  0
    9.5750  -13.4284   28.7521 C   0  0  0  0  0  0  0  0  0  0  0  0
    9.9156  -13.2969   27.4070 C   0  0  0  0  0  0  0  0  0  0  0  0
   10.3916  -14.4070   26.7630 C   0  0  0  0  0  0  0  0  0  0  0  0
   10.5469  -15.6315   27.3769 C   0  0  0  0  0  0  0  0  0  0  0  0
   13.6980  -18.1550   26.2600 C   0  0  0  0  0  0  0  0  0  0  0  0
   13.9956  -17.7049   27.5355 O   0  0  0  0  0  0  0  0  0  0  0  0
   14.1152  -19.3122   25.9761 O   0  0  0  0  0  0  0  0  0  0  0  0
  2  1  1  1
  3  2  1  0
  4  5  2  0
  4  3  1  0
  6  5  1  0
  7 12  2  0
  7  6  1  0
  8  7  1  0
  9 10  1  0
  9  8  2  0
 10 11  2  0
 11 12  1  0
 12  4  1  0
 13  2  1  0
 14 13  2  0
 16 17  1  0
 16 15  1  0
 17 18  1  0
 19 18  1  6
 19 21  1  0
 19 20  1  0
 20 13  1  0
 21 22  2  0
 23 24  1  0
 23 21  1  0
 25 26  1  0
 24 25  1  1
 26 27  2  0
 27 28  1  0
 29 28  1  0
 30 29  2  0
 31 30  1  0
 32 33  1  0
 32 31  2  0
 33 34  2  0
 34 26  1  0
 34 29  1  0
 35 36  1  0
 35 24  1  0
 37 35  2  0
M  END
$$$$
