WMW.pdb
     RDKit          3D

 37 40  0  0  1  0  0  0  0  0999 V2000
    6.6006  -18.3747   24.7003 N   0  0  0  0  0  0  0  0  0  0  0  0
    7.0394  -17.0672   24.1655 C   0  0  1  0  0  0  0  0  0  0  0  0
    7.9246  -16.4878   25.2525 C   0  0  0  0  0  0  0  0  0  0  0  0
    7.1981  -15.5762   26.1699 C   0  0  0  0  0  0  0  0  0  0  0  0
    6.2774  -15.9828   27.1377 C   0  0  0  0  0  0  0  0  0  0  0  0
    5.8425  -14.9055   27.8062 N   0  0  0  0  0  0  0  0  0  0  0  0
    6.4403  -13.8034   27.3163 C   0  0  0  0  0  0  0  0  0  0  0  0
    6.3029  -12.4689   27.6827 C   0  0  0  0  0  0  0  0  0  0  0  0
    7.0274  -11.5052   27.0152 C   0  0  0  0  0  0  0  0  0  0  0  0
    7.8711  -11.9044   25.9972 C   0  0  0  0  0  0  0  0  0  0  0  0
    7.9953  -13.2382   25.6456 C   0  0  0  0  0  0  0  0  0  0  0  0
    7.2821  -14.2109   26.3008 C   0  0  0  0  0  0  0  0  0  0  0  0
    7.7221  -17.3210   22.8938 C   0  0  0  0  0  0  0  0  0  0  0  0
    8.5621  -18.2628   22.7850 O   0  0  0  0  0  0  0  0  0  0  0  0
    9.4182  -12.0370   17.2701 C   0  0  0  0  0  0  0  0  0  0  0  0
    8.2030  -12.8301   18.3764 S   0  0  0  0  0  0  0  0  0  0  0  0
    9.0217  -14.2604   19.1842 C   0  0  0  0  0  0  0  0  0  0  0  0
    8.0448  -14.8037   20.1774 C   0  0  0  0  0  0  0  0  0  0  0  0
    8.5719  -16.0660   20.8646 C   0  0  2  0  0  0  0  0  0  0  0  0
    7.5031  -16.5586   21.7098 N   0  0  0  0  0  0  0  0  0  0  0  0
    9.8012  -15.7603   21.6319 C   0  0  0  0  0  0  0  0  0  0  0  0
   10.1878  -14.5619   21.6806 O   0  0  0  0  0  0  0  0  0  0  0  0
   10.5634  -16.7275   22.3098 N   0  0  0  0  0  0  0  0  0  0  0  0
   11.9199  -16.3659   22.7751 C   0  0  1  0  0  0  0  0  0  0  0  0
   11.8315  -15.1781   23.6711 C   0  0  0  0  0  0  0  0  0  0  0  0
   11.3583  -15.3921   25.0350 C   0  0  0  0  0  0  0  0  0  0  0  0
   11.8756  -16.3668   25.9029 C   0  0  0  0  0  0  0  0  0  0  0  0
   11.2118  -16.3336   27.0704 N   0  0  0  0  0  0  0  0  0  0  0  0
   10.2796  -15.3885   27.0287 C   0  0  0  0  0  0  0  0  0  0  0  0
    9.3703  -14.9697   27.9710 C   0  0  0  0  0  0  0  0  0  0  0  0
    8.5133  -13.9238   27.6489 C   0  0  0  0  0  0  0  0  0  0  0  0
    8.5676  -13.3072   26.4001 C   0  0  0  0  0  0  0  0  0  0  0  0
    9.4940  -13.7703   25.5052 C   0  0  0  0  0  0  0  0  0  0  0  0
   10.3633  -14.8043   25.7803 C   0  0  0  0  0  0  0  0  0  0  0  0
   12.4723  -17.5563   23.4285 C   0  0  0  0  0  0  0  0  0  0  0  0
   13.7910  -17.5492   23.8517 O   0  0  0  0  0  0  0  0  0  0  0  0
   11.8327  -18.6228   23.6462 O   0  0  0  0  0  0  0  0  0  0  0  0
  2  1  1  1
  3  2  1  0
  4  5  2  0
  4  3  1  0
  6  5  1  0
  7 12  2  0
  7  6  1  0
  8  7  1  0
  9 10  1  0
  9  8  2  0
 10 11  2  0
 11 12  1  0
 12  4  1  0
 13  2  1  0
 14 13  2  0
 16 17  1  0
 16 15  1  0
 17 18  1  0
 19 18  1  1
 19 21  1  0
 19 20  1  0
 20 13  1  0
 21 22  2  0
 23 24  1  0
 23 21  1  0
 25 26  1  0
 24 25  1  1
 26 27  2  0
 27 28  1  0
 29 28  1  0
 30 29  2  0
 31 30  1  0
 32 33  1  0
 32 31  2  0
 33 34  2  0
 34 26  1  0
 34 29  1  0
 35 36  1  0
 35 24  1  0
 37 35  2  0
M  END
$$$$
