WMW.pdb
     RDKit          3D

 37 40  0  0  1  0  0  0  0  0999 V2000
    9.0411  -19.7856   18.6804 N   0  0  0  0  0  0  0  0  0  0  0  0
    8.6504  -19.6528   20.1010 C   0  0  1  0  0  0  0  0  0  0  0  0
    9.5172  -20.6610   20.8311 C   0  0  0  0  0  0  0  0  0  0  0  0
    8.7519  -21.5083   21.7782 C   0  0  0  0  0  0  0  0  0  0  0  0
    8.8980  -22.8904   21.9120 C   0  0  0  0  0  0  0  0  0  0  0  0
    8.0788  -23.3241   22.8803 N   0  0  0  0  0  0  0  0  0  0  0  0
    7.3973  -22.2813   23.3902 C   0  0  0  0  0  0  0  0  0  0  0  0
    6.4392  -22.2404   24.3975 C   0  0  0  0  0  0  0  0  0  0  0  0
    5.8693  -21.0338   24.7416 C   0  0  0  0  0  0  0  0  0  0  0  0
    6.2745  -19.8990   24.0667 C   0  0  0  0  0  0  0  0  0  0  0  0
    7.2300  -19.9584   23.0660 C   0  0  0  0  0  0  0  0  0  0  0  0
    7.8087  -21.1516   22.7116 C   0  0  0  0  0  0  0  0  0  0  0  0
    8.8782  -18.2583   20.4893 C   0  0  0  0  0  0  0  0  0  0  0  0
   10.0095  -17.7142   20.3206 O   0  0  0  0  0  0  0  0  0  0  0  0
    8.0754  -11.3927   20.9057 C   0  0  0  0  0  0  0  0  0  0  0  0
    8.0318  -13.2019   20.6719 S   0  0  0  0  0  0  0  0  0  0  0  0
    6.9943  -13.9201   22.0046 C   0  0  0  0  0  0  0  0  0  0  0  0
    6.8148  -15.3666   21.6703 C   0  0  0  0  0  0  0  0  0  0  0  0
    8.1518  -16.1105   21.6182 C   0  0  2  0  0  0  0  0  0  0  0  0
    7.8787  -17.4219   21.0662 N   0  0  0  0  0  0  0  0  0  0  0  0
    8.7548  -16.1824   22.9689 C   0  0  0  0  0  0  0  0  0  0  0  0
    8.1152  -16.7835   23.8732 O   0  0  0  0  0  0  0  0  0  0  0  0
    9.9988  -15.6199   23.3034 N   0  0  0  0  0  0  0  0  0  0  0  0
   10.5238  -15.8173   24.6719 C   0  0  1  0  0  0  0  0  0  0  0  0
    9.9756  -14.7581   25.5658 C   0  0  0  0  0  0  0  0  0  0  0  0
    8.5351  -14.7481   25.8001 C   0  0  0  0  0  0  0  0  0  0  0  0
    7.7319  -15.8994   25.8091 C   0  0  0  0  0  0  0  0  0  0  0  0
    6.4500  -15.5573   26.0199 N   0  0  0  0  0  0  0  0  0  0  0  0
    6.3545  -14.2393   26.1531 C   0  0  0  0  0  0  0  0  0  0  0  0
    5.2706  -13.4285   26.3938 C   0  0  0  0  0  0  0  0  0  0  0  0
    5.4774  -12.0586   26.5062 C   0  0  0  0  0  0  0  0  0  0  0  0
    6.7523  -11.5101   26.3792 C   0  0  0  0  0  0  0  0  0  0  0  0
    7.7902  -12.3697   26.1392 C   0  0  0  0  0  0  0  0  0  0  0  0
    7.6327  -13.7340   26.0196 C   0  0  0  0  0  0  0  0  0  0  0  0
   10.1518  -17.1772   25.0736 C   0  0  0  0  0  0  0  0  0  0  0  0
   10.5741  -17.6633   26.2997 O   0  0  0  0  0  0  0  0  0  0  0  0
    9.4589  -17.9713   24.3785 O   0  0  0  0  0  0  0  0  0  0  0  0
  2  1  1  6
  3  2  1  0
  4  5  2  0
  4  3  1  0
  6  5  1  0
  7 12  2  0
  7  6  1  0
  8  7  1  0
  9 10  1  0
  9  8  2  0
 10 11  2  0
 11 12  1  0
 12  4  1  0
 13  2  1  0
 14 13  2  0
 16 17  1  0
 16 15  1  0
 17 18  1  0
 19 18  1  1
 19 21  1  0
 19 20  1  0
 20 13  1  0
 21 22  2  0
 23 24  1  0
 23 21  1  0
 25 26  1  0
 24 25  1  1
 26 27  2  0
 27 28  1  0
 29 28  1  0
 30 29  2  0
 31 30  1  0
 32 33  1  0
 32 31  2  0
 33 34  2  0
 34 26  1  0
 34 29  1  0
 35 36  1  0
 35 24  1  0
 37 35  2  0
M  END
$$$$
