WMW.pdb
     RDKit          3D

 37 40  0  0  1  0  0  0  0  0999 V2000
    6.1446  -20.4347   20.6948 N   0  0  0  0  0  0  0  0  0  0  0  0
    6.0652  -19.9886   22.1030 C   0  0  1  0  0  0  0  0  0  0  0  0
    6.6252  -21.1491   22.9032 C   0  0  0  0  0  0  0  0  0  0  0  0
    6.5030  -20.9575   24.3692 C   0  0  0  0  0  0  0  0  0  0  0  0
    5.3411  -21.1809   25.1106 C   0  0  0  0  0  0  0  0  0  0  0  0
    5.5968  -20.9432   26.4047 N   0  0  0  0  0  0  0  0  0  0  0  0
    6.8827  -20.5709   26.5457 C   0  0  0  0  0  0  0  0  0  0  0  0
    7.5963  -20.2200   27.6867 C   0  0  0  0  0  0  0  0  0  0  0  0
    8.9220  -19.8613   27.5728 C   0  0  0  0  0  0  0  0  0  0  0  0
    9.4982  -19.8635   26.3176 C   0  0  0  0  0  0  0  0  0  0  0  0
    8.7722  -20.2157   25.1921 C   0  0  0  0  0  0  0  0  0  0  0  0
    7.4513  -20.5767   25.2878 C   0  0  0  0  0  0  0  0  0  0  0  0
    6.8334  -18.7454   22.2125 C   0  0  0  0  0  0  0  0  0  0  0  0
    7.9086  -18.5876   21.5618 O   0  0  0  0  0  0  0  0  0  0  0  0
    7.3482  -11.7374   25.6404 C   0  0  0  0  0  0  0  0  0  0  0  0
    6.4934  -13.3290   25.3837 S   0  0  0  0  0  0  0  0  0  0  0  0
    7.0873  -14.0417   23.8002 C   0  0  0  0  0  0  0  0  0  0  0  0
    6.3434  -15.3242   23.6061 C   0  0  0  0  0  0  0  0  0  0  0  0
    7.2823  -16.4812   23.2550 C   0  0  2  0  0  0  0  0  0  0  0  0
    6.4469  -17.6432   23.0292 N   0  0  0  0  0  0  0  0  0  0  0  0
    8.2643  -16.6964   24.3425 C   0  0  0  0  0  0  0  0  0  0  0  0
    7.8990  -16.4657   25.5263 O   0  0  0  0  0  0  0  0  0  0  0  0
    9.5807  -17.1430   24.1335 N   0  0  0  0  0  0  0  0  0  0  0  0
   10.6607  -16.1402   24.0099 C   0  0  1  0  0  0  0  0  0  0  0  0
   10.5157  -15.1262   25.0926 C   0  0  0  0  0  0  0  0  0  0  0  0
   10.6437  -15.5850   26.4721 C   0  0  0  0  0  0  0  0  0  0  0  0
   10.7358  -16.9350   26.8463 C   0  0  0  0  0  0  0  0  0  0  0  0
   10.8113  -17.0311   28.1842 N   0  0  0  0  0  0  0  0  0  0  0  0
   10.7755  -15.8177   28.7230 C   0  0  0  0  0  0  0  0  0  0  0  0
   10.8375  -15.4053   30.0331 C   0  0  0  0  0  0  0  0  0  0  0  0
   10.7965  -14.0425   30.3034 C   0  0  0  0  0  0  0  0  0  0  0  0
   10.6948  -13.1073   29.2750 C   0  0  0  0  0  0  0  0  0  0  0  0
   10.6361  -13.5810   27.9921 C   0  0  0  0  0  0  0  0  0  0  0  0
   10.6729  -14.9225   27.6767 C   0  0  0  0  0  0  0  0  0  0  0  0
   11.9271  -16.8769   24.0591 C   0  0  0  0  0  0  0  0  0  0  0  0
   11.9080  -18.2510   24.2307 O   0  0  0  0  0  0  0  0  0  0  0  0
   13.0714  -16.3533   23.9567 O   0  0  0  0  0  0  0  0  0  0  0  0
  2  1  1  6
  3  2  1  0
  4  5  2  0
  4  3  1  0
  6  5  1  0
  7 12  2  0
  7  6  1  0
  8  7  1  0
  9 10  1  0
  9  8  2  0
 10 11  2  0
 11 12  1  0
 12  4  1  0
 13  2  1  0
 14 13  2  0
 16 17  1  0
 16 15  1  0
 17 18  1  0
 19 18  1  1
 19 21  1  0
 19 20  1  0
 20 13  1  0
 21 22  2  0
 23 24  1  0
 23 21  1  0
 25 26  1  0
 24 25  1  1
 26 27  2  0
 27 28  1  0
 29 28  1  0
 30 29  2  0
 31 30  1  0
 32 33  1  0
 32 31  2  0
 33 34  2  0
 34 26  1  0
 34 29  1  0
 35 36  1  0
 35 24  1  0
 37 35  2  0
M  END
$$$$
