WMW.pdb
     RDKit          3D

 37 40  0  0  1  0  0  0  0  0999 V2000
    7.1800  -17.5953   24.5602 N   0  0  0  0  0  0  0  0  0  0  0  0
    7.4535  -16.1501   24.7180 C   0  0  1  0  0  0  0  0  0  0  0  0
    7.0850  -15.8469   26.1578 C   0  0  0  0  0  0  0  0  0  0  0  0
    6.3319  -14.5780   26.3106 C   0  0  0  0  0  0  0  0  0  0  0  0
    4.9423  -14.4795   26.4056 C   0  0  0  0  0  0  0  0  0  0  0  0
    4.6063  -13.1922   26.5694 N   0  0  0  0  0  0  0  0  0  0  0  0
    5.7207  -12.4374   26.5854 C   0  0  0  0  0  0  0  0  0  0  0  0
    5.8720  -11.0618   26.7227 C   0  0  0  0  0  0  0  0  0  0  0  0
    7.1362  -10.5136   26.6986 C   0  0  0  0  0  0  0  0  0  0  0  0
    8.2164  -11.3590   26.5372 C   0  0  0  0  0  0  0  0  0  0  0  0
    8.0470  -12.7268   26.4018 C   0  0  0  0  0  0  0  0  0  0  0  0
    6.7951  -13.2894   26.4249 C   0  0  0  0  0  0  0  0  0  0  0  0
    8.8656  -15.9336   24.3914 C   0  0  0  0  0  0  0  0  0  0  0  0
    9.2519  -14.8450   23.8716 O   0  0  0  0  0  0  0  0  0  0  0  0
   10.8442  -14.9481   28.8773 C   0  0  0  0  0  0  0  0  0  0  0  0
   11.5344  -15.3031   27.2258 S   0  0  0  0  0  0  0  0  0  0  0  0
   11.4081  -17.1109   26.9360 C   0  0  0  0  0  0  0  0  0  0  0  0
   12.0243  -17.3708   25.5985 C   0  0  0  0  0  0  0  0  0  0  0  0
   11.3043  -16.6116   24.4811 C   0  0  2  0  0  0  0  0  0  0  0  0
    9.8910  -16.8950   24.6271 N   0  0  0  0  0  0  0  0  0  0  0  0
   11.8274  -17.0233   23.1581 C   0  0  0  0  0  0  0  0  0  0  0  0
   12.7178  -17.9144   23.1230 O   0  0  0  0  0  0  0  0  0  0  0  0
   11.3900  -16.4794   21.9380 N   0  0  0  0  0  0  0  0  0  0  0  0
   11.8978  -17.0619   20.6769 C   0  0  1  0  0  0  0  0  0  0  0  0
   11.0339  -16.6161   19.5471 C   0  0  0  0  0  0  0  0  0  0  0  0
    9.6544  -16.2502   19.8526 C   0  0  0  0  0  0  0  0  0  0  0  0
    8.6151  -17.1777   20.0271 C   0  0  0  0  0  0  0  0  0  0  0  0
    7.4629  -16.5292   20.2652 N   0  0  0  0  0  0  0  0  0  0  0  0
    7.6775  -15.2185   20.2598 C   0  0  0  0  0  0  0  0  0  0  0  0
    6.8255  -14.1595   20.4667 C   0  0  0  0  0  0  0  0  0  0  0  0
    7.3438  -12.8706   20.4197 C   0  0  0  0  0  0  0  0  0  0  0  0
    8.6965  -12.6473   20.1689 C   0  0  0  0  0  0  0  0  0  0  0  0
    9.4928  -13.7429   19.9704 C   0  0  0  0  0  0  0  0  0  0  0  0
    9.0231  -15.0384   20.0071 C   0  0  0  0  0  0  0  0  0  0  0  0
   13.2960  -16.6398   20.5509 C   0  0  0  0  0  0  0  0  0  0  0  0
   14.0165  -17.0017   19.4249 O   0  0  0  0  0  0  0  0  0  0  0  0
   13.9230  -15.9540   21.4056 O   0  0  0  0  0  0  0  0  0  0  0  0
  2  1  1  1
  3  2  1  0
  4  5  2  0
  4  3  1  0
  6  5  1  0
  7 12  2  0
  7  6  1  0
  8  7  1  0
  9 10  1  0
  9  8  2  0
 10 11  2  0
 11 12  1  0
 12  4  1  0
 13  2  1  0
 14 13  2  0
 16 17  1  0
 16 15  1  0
 17 18  1  0
 19 18  1  1
 19 21  1  0
 19 20  1  0
 20 13  1  0
 21 22  2  0
 23 24  1  0
 23 21  1  0
 25 26  1  0
 24 25  1  6
 26 27  2  0
 27 28  1  0
 29 28  1  0
 30 29  2  0
 31 30  1  0
 32 33  1  0
 32 31  2  0
 33 34  2  0
 34 26  1  0
 34 29  1  0
 35 36  1  0
 35 24  1  0
 37 35  2  0
M  END
$$$$
