WMW.pdb
     RDKit          3D

 37 40  0  0  1  0  0  0  0  0999 V2000
    6.3686  -19.1427   24.1243 N   0  0  0  0  0  0  0  0  0  0  0  0
    6.5676  -17.6790   24.0457 C   0  0  1  0  0  0  0  0  0  0  0  0
    7.1251  -17.2961   25.4034 C   0  0  0  0  0  0  0  0  0  0  0  0
    6.6444  -15.9755   25.8782 C   0  0  0  0  0  0  0  0  0  0  0  0
    5.4756  -15.7671   26.6132 C   0  0  0  0  0  0  0  0  0  0  0  0
    5.3684  -14.4626   26.9018 N   0  0  0  0  0  0  0  0  0  0  0  0
    6.4212  -13.8019   26.3850 C   0  0  0  0  0  0  0  0  0  0  0  0
    6.7376  -12.4481   26.4206 C   0  0  0  0  0  0  0  0  0  0  0  0
    7.8854  -12.0043   25.8002 C   0  0  0  0  0  0  0  0  0  0  0  0
    8.6863  -12.9294   25.1599 C   0  0  0  0  0  0  0  0  0  0  0  0
    8.3555  -14.2739   25.1343 C   0  0  0  0  0  0  0  0  0  0  0  0
    7.2168  -14.7331   25.7481 C   0  0  0  0  0  0  0  0  0  0  0  0
    7.4700  -17.4196   22.9206 C   0  0  0  0  0  0  0  0  0  0  0  0
    8.3228  -18.2840   22.5602 O   0  0  0  0  0  0  0  0  0  0  0  0
    7.8264  -11.4226   19.5541 C   0  0  0  0  0  0  0  0  0  0  0  0
    7.9934  -12.8760   18.4634 S   0  0  0  0  0  0  0  0  0  0  0  0
    8.9115  -14.1718   19.3835 C   0  0  0  0  0  0  0  0  0  0  0  0
    8.0608  -14.5439   20.5556 C   0  0  0  0  0  0  0  0  0  0  0  0
    8.3752  -15.9530   21.0646 C   0  0  2  0  0  0  0  0  0  0  0  0
    7.4623  -16.2151   22.1588 N   0  0  0  0  0  0  0  0  0  0  0  0
    9.7937  -16.0466   21.4799 C   0  0  0  0  0  0  0  0  0  0  0  0
   10.6811  -15.9178   20.5945 O   0  0  0  0  0  0  0  0  0  0  0  0
   10.2101  -16.2705   22.8037 N   0  0  0  0  0  0  0  0  0  0  0  0
   11.5474  -15.7943   23.2187 C   0  0  1  0  0  0  0  0  0  0  0  0
   11.4141  -14.9718   24.4545 C   0  0  0  0  0  0  0  0  0  0  0  0
   10.6952  -15.5556   25.5826 C   0  0  0  0  0  0  0  0  0  0  0  0
    9.9392  -16.7361   25.5071 C   0  0  0  0  0  0  0  0  0  0  0  0
    9.3772  -16.9925   26.7002 N   0  0  0  0  0  0  0  0  0  0  0  0
    9.7184  -16.0469   27.5682 C   0  0  0  0  0  0  0  0  0  0  0  0
    9.4090  -15.8823   28.8976 C   0  0  0  0  0  0  0  0  0  0  0  0
    9.9346  -14.7860   29.5715 C   0  0  0  0  0  0  0  0  0  0  0  0
   10.7584  -13.8687   28.9215 C   0  0  0  0  0  0  0  0  0  0  0  0
   11.0285  -14.0874   27.5975 C   0  0  0  0  0  0  0  0  0  0  0  0
   10.5294  -15.1594   26.8889 C   0  0  0  0  0  0  0  0  0  0  0  0
   12.3838  -16.9857   23.3919 C   0  0  0  0  0  0  0  0  0  0  0  0
   11.8230  -18.2405   23.2217 O   0  0  0  0  0  0  0  0  0  0  0  0
   13.6097  -16.9697   23.6932 O   0  0  0  0  0  0  0  0  0  0  0  0
  2  1  1  1
  3  2  1  0
  4  5  2  0
  4  3  1  0
  6  5  1  0
  7 12  2  0
  7  6  1  0
  8  7  1  0
  9 10  1  0
  9  8  2  0
 10 11  2  0
 11 12  1  0
 12  4  1  0
 13  2  1  0
 14 13  2  0
 16 17  1  0
 16 15  1  0
 17 18  1  0
 19 18  1  1
 19 21  1  0
 19 20  1  0
 20 13  1  0
 21 22  2  0
 23 24  1  0
 23 21  1  0
 25 26  1  0
 24 25  1  1
 26 27  2  0
 27 28  1  0
 29 28  1  0
 30 29  2  0
 31 30  1  0
 32 33  1  0
 32 31  2  0
 33 34  2  0
 34 26  1  0
 34 29  1  0
 35 36  1  0
 35 24  1  0
 37 35  2  0
M  END
$$$$
