WMW.pdb
     RDKit          3D

 37 40  0  0  1  0  0  0  0  0999 V2000
    7.0049  -19.8628   19.0695 N   0  0  0  0  0  0  0  0  0  0  0  0
    7.5392  -19.2466   20.3036 C   0  0  1  0  0  0  0  0  0  0  0  0
    7.8770  -20.4215   21.2015 C   0  0  0  0  0  0  0  0  0  0  0  0
    7.1221  -20.4137   22.4785 C   0  0  0  0  0  0  0  0  0  0  0  0
    5.7483  -20.6334   22.5963 C   0  0  0  0  0  0  0  0  0  0  0  0
    5.4089  -20.5893   23.8923 N   0  0  0  0  0  0  0  0  0  0  0  0
    6.5060  -20.3484   24.6342 C   0  0  0  0  0  0  0  0  0  0  0  0
    6.6470  -20.2111   26.0110 C   0  0  0  0  0  0  0  0  0  0  0  0
    7.8924  -19.9537   26.5419 C   0  0  0  0  0  0  0  0  0  0  0  0
    8.9645  -19.8403   25.6786 C   0  0  0  0  0  0  0  0  0  0  0  0
    8.8055  -19.9798   24.3100 C   0  0  0  0  0  0  0  0  0  0  0  0
    7.5725  -20.2376   23.7647 C   0  0  0  0  0  0  0  0  0  0  0  0
    8.6885  -18.4225   19.9194 C   0  0  0  0  0  0  0  0  0  0  0  0
    9.7828  -18.9570   19.5712 O   0  0  0  0  0  0  0  0  0  0  0  0
    7.6959  -12.1115   21.2546 C   0  0  0  0  0  0  0  0  0  0  0  0
    6.4840  -13.3320   20.6453 S   0  0  0  0  0  0  0  0  0  0  0  0
    7.3980  -14.8545   20.1815 C   0  0  0  0  0  0  0  0  0  0  0  0
    8.6159  -14.8994   21.0480 C   0  0  0  0  0  0  0  0  0  0  0  0
    9.4309  -16.1752   20.8215 C   0  0  2  0  0  0  0  0  0  0  0  0
    8.6722  -16.9975   19.9009 N   0  0  0  0  0  0  0  0  0  0  0  0
    9.6853  -16.8600   22.1098 C   0  0  0  0  0  0  0  0  0  0  0  0
    8.8412  -17.7063   22.5089 O   0  0  0  0  0  0  0  0  0  0  0  0
   10.8128  -16.6226   22.9149 N   0  0  0  0  0  0  0  0  0  0  0  0
   10.6618  -15.7767   24.1186 C   0  0  1  0  0  0  0  0  0  0  0  0
    9.5904  -14.7686   23.8792 C   0  0  0  0  0  0  0  0  0  0  0  0
    8.4967  -14.7003   24.8432 C   0  0  0  0  0  0  0  0  0  0  0  0
    7.8735  -15.8253   25.4061 C   0  0  0  0  0  0  0  0  0  0  0  0
    6.8866  -15.4334   26.2292 N   0  0  0  0  0  0  0  0  0  0  0  0
    6.8183  -14.1071   26.2465 C   0  0  0  0  0  0  0  0  0  0  0  0
    5.9939  -13.2507   26.9373 C   0  0  0  0  0  0  0  0  0  0  0  0
    6.1678  -11.8818   26.7703 C   0  0  0  0  0  0  0  0  0  0  0  0
    7.1538  -11.3794   25.9231 C   0  0  0  0  0  0  0  0  0  0  0  0
    7.9418  -12.2832   25.2628 C   0  0  0  0  0  0  0  0  0  0  0  0
    7.8055  -13.6484   25.3969 C   0  0  0  0  0  0  0  0  0  0  0  0
   10.3792  -16.6817   25.2367 C   0  0  0  0  0  0  0  0  0  0  0  0
   10.4279  -18.0506   25.0322 O   0  0  0  0  0  0  0  0  0  0  0  0
   10.0847  -16.3128   26.4076 O   0  0  0  0  0  0  0  0  0  0  0  0
  2  1  1  6
  3  2  1  0
  4  5  2  0
  4  3  1  0
  6  5  1  0
  7 12  2  0
  7  6  1  0
  8  7  1  0
  9 10  1  0
  9  8  2  0
 10 11  2  0
 11 12  1  0
 12  4  1  0
 13  2  1  0
 14 13  2  0
 16 17  1  0
 16 15  1  0
 17 18  1  0
 19 18  1  1
 19 21  1  0
 19 20  1  0
 20 13  1  0
 21 22  2  0
 23 24  1  0
 23 21  1  0
 25 26  1  0
 24 25  1  6
 26 27  2  0
 27 28  1  0
 29 28  1  0
 30 29  2  0
 31 30  1  0
 32 33  1  0
 32 31  2  0
 33 34  2  0
 34 26  1  0
 34 29  1  0
 35 36  1  0
 35 24  1  0
 37 35  2  0
M  END
$$$$
