FMR.pdb
     RDKit          3D

 31 31  0  0  1  0  0  0  0  0999 V2000
    8.4722  -15.8609   25.7626 N   0  0  0  0  0  0  0  0  0  0  0  0
    7.1911  -16.4485   25.4239 C   0  0  1  0  0  0  0  0  0  0  0  0
    6.0368  -15.5491   25.7945 C   0  0  0  0  0  0  0  0  0  0  0  0
    6.4853  -14.1803   26.1418 C   0  0  0  0  0  0  0  0  0  0  0  0
    7.8281  -13.8994   26.0070 C   0  0  0  0  0  0  0  0  0  0  0  0
    8.3306  -12.6666   26.3039 C   0  0  0  0  0  0  0  0  0  0  0  0
    7.4777  -11.6757   26.7497 C   0  0  0  0  0  0  0  0  0  0  0  0
    6.1443  -11.9583   26.8824 C   0  0  0  0  0  0  0  0  0  0  0  0
    5.6294  -13.1967   26.5859 C   0  0  0  0  0  0  0  0  0  0  0  0
    7.0696  -16.7418   23.9847 C   0  0  0  0  0  0  0  0  0  0  0  0
    6.0919  -17.3999   23.5835 O   0  0  0  0  0  0  0  0  0  0  0  0
    7.9305  -11.3664   20.4393 C   0  0  0  0  0  0  0  0  0  0  0  0
    7.0915  -12.9428   20.1747 S   0  0  0  0  0  0  0  0  0  0  0  0
    7.8890  -14.2292   21.1777 C   0  0  0  0  0  0  0  0  0  0  0  0
    7.1788  -15.5240   20.9587 C   0  0  0  0  0  0  0  0  0  0  0  0
    7.8770  -16.6538   21.6653 C   0  0  2  0  0  0  0  0  0  0  0  0
    8.0273  -16.2945   23.0817 N   0  0  0  0  0  0  0  0  0  0  0  0
    9.2658  -16.7593   21.1534 C   0  0  0  0  0  0  0  0  0  0  0  0
    9.9889  -15.7195   21.1951 O   0  0  0  0  0  0  0  0  0  0  0  0
   16.1942  -15.9669   23.4951 N   0  0  0  0  0  0  0  0  0  0  0  0
   16.2494  -17.3723   23.5761 C   0  0  0  0  0  0  0  0  0  0  0  0
   17.3643  -18.0320   23.6133 N   0  0  0  0  0  0  0  0  0  0  0  0
   15.0166  -18.0780   23.6185 N   0  0  0  0  0  0  0  0  0  0  0  0
   13.7942  -17.2993   23.3281 C   0  0  0  0  0  0  0  0  0  0  0  0
   13.2883  -17.7827   22.0296 C   0  0  0  0  0  0  0  0  0  0  0  0
   11.8650  -17.5965   21.7769 C   0  0  0  0  0  0  0  0  0  0  0  0
   11.2971  -18.0279   20.4803 C   0  0  2  0  0  0  0  0  0  0  0  0
    9.8036  -17.9373   20.6431 N   0  0  0  0  0  0  0  0  0  0  0  0
   11.5698  -19.3235   19.9212 C   0  0  0  0  0  0  0  0  0  0  0  0
   12.7112  -19.7251   19.6238 O   0  0  0  0  0  0  0  0  0  0  0  0
   10.5342  -20.2326   19.6741 O   0  0  0  0  0  0  0  0  0  0  0  0
  2  1  1  6
  2  3  1  0
  3  4  1  0
  4  9  2  0
  4  5  1  0
  5  6  2  0
  6  7  1  0
  8  7  2  0
  9  8  1  0
 10  2  1  0
 10 17  1  0
 11 10  2  0
 12 13  1  0
 13 14  1  0
 16 15  1  6
 15 14  1  0
 16 17  1  0
 18 16  1  0
 19 18  2  0
 20 21  1  0
 21 22  2  0
 23 21  1  0
 24 23  1  0
 24 25  1  0
 25 26  1  0
 27 28  1  0
 27 26  1  1
 28 18  1  0
 29 27  1  0
 30 29  2  0
 31 29  1  0
M  END
$$$$
