FMR.pdb
     RDKit          3D

 31 31  0  0  1  0  0  0  0  0999 V2000
    8.6663  -16.4096   26.0541 N   0  0  0  0  0  0  0  0  0  0  0  0
    7.3061  -16.7196   25.6601 C   0  0  1  0  0  0  0  0  0  0  0  0
    6.2950  -15.8642   26.3846 C   0  0  0  0  0  0  0  0  0  0  0  0
    6.6635  -14.4292   26.3670 C   0  0  0  0  0  0  0  0  0  0  0  0
    7.9340  -14.0952   26.7850 C   0  0  0  0  0  0  0  0  0  0  0  0
    8.3598  -12.7995   26.8026 C   0  0  0  0  0  0  0  0  0  0  0  0
    7.5015  -11.7977   26.3932 C   0  0  0  0  0  0  0  0  0  0  0  0
    6.2401  -12.1331   25.9786 C   0  0  0  0  0  0  0  0  0  0  0  0
    5.8026  -13.4350   25.9575 C   0  0  0  0  0  0  0  0  0  0  0  0
    7.0815  -16.5298   24.2160 C   0  0  0  0  0  0  0  0  0  0  0  0
    5.9483  -16.7461   23.7481 O   0  0  0  0  0  0  0  0  0  0  0  0
    9.5640  -12.6361   19.5881 C   0  0  0  0  0  0  0  0  0  0  0  0
    7.7872  -12.6532   19.9069 S   0  0  0  0  0  0  0  0  0  0  0  0
    7.2839  -14.3138   20.4418 C   0  0  0  0  0  0  0  0  0  0  0  0
    8.3478  -14.8828   21.3210 C   0  0  0  0  0  0  0  0  0  0  0  0
    7.9114  -16.1881   21.9282 C   0  0  2  0  0  0  0  0  0  0  0  0
    8.1134  -16.1158   23.3815 N   0  0  0  0  0  0  0  0  0  0  0  0
    8.8274  -17.2631   21.4731 C   0  0  0  0  0  0  0  0  0  0  0  0
    9.4426  -17.9268   22.3602 O   0  0  0  0  0  0  0  0  0  0  0  0
   15.0145  -15.2078   19.3695 N   0  0  0  0  0  0  0  0  0  0  0  0
   15.0187  -15.3107   17.9646 C   0  0  0  0  0  0  0  0  0  0  0  0
   16.1006  -15.4961   17.2755 N   0  0  0  0  0  0  0  0  0  0  0  0
   13.7707  -15.2046   17.2932 N   0  0  0  0  0  0  0  0  0  0  0  0
   12.5798  -14.9686   18.1365 C   0  0  0  0  0  0  0  0  0  0  0  0
   12.2534  -16.2595   18.7709 C   0  0  0  0  0  0  0  0  0  0  0  0
   10.8392  -16.5374   18.9882 C   0  0  0  0  0  0  0  0  0  0  0  0
   10.4429  -17.7961   19.6579 C   0  0  2  0  0  0  0  0  0  0  0  0
    9.0317  -17.5746   20.1320 N   0  0  0  0  0  0  0  0  0  0  0  0
   11.1718  -18.3272   20.7769 C   0  0  0  0  0  0  0  0  0  0  0  0
   12.3637  -18.6862   20.7218 O   0  0  0  0  0  0  0  0  0  0  0  0
   10.5620  -18.4730   22.0286 O   0  0  0  0  0  0  0  0  0  0  0  0
  2  1  1  6
  2  3  1  0
  3  4  1  0
  4  9  2  0
  4  5  1  0
  5  6  2  0
  6  7  1  0
  8  7  2  0
  9  8  1  0
 10  2  1  0
 10 17  1  0
 11 10  2  0
 12 13  1  0
 13 14  1  0
 16 15  1  6
 15 14  1  0
 16 17  1  0
 18 16  1  0
 19 18  2  0
 20 21  1  0
 21 22  2  0
 23 21  1  0
 24 23  1  0
 24 25  1  0
 25 26  1  0
 27 28  1  0
 27 26  1  1
 28 18  1  0
 29 27  1  0
 30 29  2  0
 31 29  1  0
M  END
$$$$
