FMR.pdb
     RDKit          3D

 31 31  0  0  1  0  0  0  0  0999 V2000
   10.3094  -16.9307   20.5637 N   0  0  0  0  0  0  0  0  0  0  0  0
    9.6647  -16.0519   21.5194 C   0  0  1  0  0  0  0  0  0  0  0  0
    8.1668  -16.0125   21.3357 C   0  0  0  0  0  0  0  0  0  0  0  0
    7.6966  -14.6866   20.8706 C   0  0  0  0  0  0  0  0  0  0  0  0
    6.9789  -14.6448   19.6943 C   0  0  0  0  0  0  0  0  0  0  0  0
    6.5067  -13.4686   19.1902 C   0  0  0  0  0  0  0  0  0  0  0  0
    6.7513  -12.2919   19.8709 C   0  0  0  0  0  0  0  0  0  0  0  0
    7.4645  -12.3371   21.0391 C   0  0  0  0  0  0  0  0  0  0  0  0
    7.9439  -13.5168   21.5544 C   0  0  0  0  0  0  0  0  0  0  0  0
    9.9216  -16.4523   22.9143 C   0  0  0  0  0  0  0  0  0  0  0  0
   10.8459  -17.2517   23.1520 O   0  0  0  0  0  0  0  0  0  0  0  0
    9.9566  -13.3758   29.9082 C   0  0  0  0  0  0  0  0  0  0  0  0
    9.3978  -13.3815   28.1916 S   0  0  0  0  0  0  0  0  0  0  0  0
    9.2819  -15.0935   27.5980 C   0  0  0  0  0  0  0  0  0  0  0  0
    8.8111  -15.0843   26.1814 C   0  0  0  0  0  0  0  0  0  0  0  0
    9.7530  -15.8467   25.2900 C   0  0  2  0  0  0  0  0  0  0  0  0
    9.1488  -15.9501   23.9549 N   0  0  0  0  0  0  0  0  0  0  0  0
    9.8469  -17.2472   25.7712 C   0  0  0  0  0  0  0  0  0  0  0  0
    8.8065  -17.9668   25.6945 O   0  0  0  0  0  0  0  0  0  0  0  0
   14.5958  -22.0282   22.2785 N   0  0  0  0  0  0  0  0  0  0  0  0
   14.6640  -20.6352   22.4773 C   0  0  0  0  0  0  0  0  0  0  0  0
   15.5676  -19.8886   21.9242 N   0  0  0  0  0  0  0  0  0  0  0  0
   13.6891  -20.0428   23.3247 N   0  0  0  0  0  0  0  0  0  0  0  0
   12.6051  -20.9237   23.8086 C   0  0  0  0  0  0  0  0  0  0  0  0
   11.6764  -20.0661   24.5686 C   0  0  0  0  0  0  0  0  0  0  0  0
   11.8921  -19.9909   26.0081 C   0  0  0  0  0  0  0  0  0  0  0  0
   10.9589  -19.1990   26.8400 C   0  0  2  0  0  0  0  0  0  0  0  0
   11.0147  -17.7995   26.2892 N   0  0  0  0  0  0  0  0  0  0  0  0
   11.1154  -19.0849   28.2640 C   0  0  0  0  0  0  0  0  0  0  0  0
   11.5513  -18.0669   28.8352 O   0  0  0  0  0  0  0  0  0  0  0  0
   10.7743  -20.1451   29.1123 O   0  0  0  0  0  0  0  0  0  0  0  0
  2  1  1  6
  2  3  1  0
  3  4  1  0
  4  9  2  0
  4  5  1  0
  5  6  2  0
  6  7  1  0
  8  7  2  0
  9  8  1  0
 10  2  1  0
 10 17  1  0
 11 10  2  0
 12 13  1  0
 13 14  1  0
 16 15  1  1
 15 14  1  0
 16 17  1  0
 18 16  1  0
 19 18  2  0
 20 21  1  0
 21 22  2  0
 23 21  1  0
 24 23  1  0
 24 25  1  0
 25 26  1  0
 27 28  1  0
 27 26  1  6
 28 18  1  0
 29 27  1  0
 30 29  2  0
 31 29  1  0
M  END
$$$$
