FMR.pdb
     RDKit          3D

 31 31  0  0  1  0  0  0  0  0999 V2000
   10.2040  -16.8462   20.7999 N   0  0  0  0  0  0  0  0  0  0  0  0
    9.3815  -15.8805   21.5017 C   0  0  1  0  0  0  0  0  0  0  0  0
    8.0292  -15.7072   20.8536 C   0  0  0  0  0  0  0  0  0  0  0  0
    7.8290  -14.3320   20.3398 C   0  0  0  0  0  0  0  0  0  0  0  0
    6.6651  -14.0770   19.6464 C   0  0  0  0  0  0  0  0  0  0  0  0
    6.3965  -12.8405   19.1370 C   0  0  0  0  0  0  0  0  0  0  0  0
    7.3088  -11.8194   19.3182 C   0  0  0  0  0  0  0  0  0  0  0  0
    8.4639  -12.0762   20.0076 C   0  0  0  0  0  0  0  0  0  0  0  0
    8.7429  -13.3181   20.5240 C   0  0  0  0  0  0  0  0  0  0  0  0
    9.1456  -16.2579   22.9067 C   0  0  0  0  0  0  0  0  0  0  0  0
    9.6939  -17.2810   23.3568 O   0  0  0  0  0  0  0  0  0  0  0  0
    6.3767  -11.5427   26.2026 C   0  0  0  0  0  0  0  0  0  0  0  0
    7.1538  -12.3813   27.5997 S   0  0  0  0  0  0  0  0  0  0  0  0
    8.3101  -13.6388   26.9844 C   0  0  0  0  0  0  0  0  0  0  0  0
    7.8585  -14.0939   25.6362 C   0  0  0  0  0  0  0  0  0  0  0  0
    8.8438  -15.0541   25.0278 C   0  0  2  0  0  0  0  0  0  0  0  0
    8.3250  -15.4892   23.7241 N   0  0  0  0  0  0  0  0  0  0  0  0
    8.8850  -16.2894   25.8488 C   0  0  0  0  0  0  0  0  0  0  0  0
    7.8859  -17.0670   25.7925 O   0  0  0  0  0  0  0  0  0  0  0  0
   10.7953  -21.3166   21.7188 N   0  0  0  0  0  0  0  0  0  0  0  0
   10.3024  -22.1819   22.7152 C   0  0  0  0  0  0  0  0  0  0  0  0
    9.8237  -23.3574   22.4528 N   0  0  0  0  0  0  0  0  0  0  0  0
   10.3418  -21.7264   24.0607 N   0  0  0  0  0  0  0  0  0  0  0  0
   10.7196  -20.3133   24.2737 C   0  0  0  0  0  0  0  0  0  0  0  0
   10.6469  -20.0748   25.7274 C   0  0  0  0  0  0  0  0  0  0  0  0
   10.9711  -18.7285   26.1819 C   0  0  0  0  0  0  0  0  0  0  0  0
   10.0716  -18.0520   27.1426 C   0  0  2  0  0  0  0  0  0  0  0  0
    9.9623  -16.6301   26.6615 N   0  0  0  0  0  0  0  0  0  0  0  0
   10.3662  -17.9870   28.5478 C   0  0  0  0  0  0  0  0  0  0  0  0
   10.4444  -18.9864   29.2878 O   0  0  0  0  0  0  0  0  0  0  0  0
   10.5892  -16.7578   29.1798 O   0  0  0  0  0  0  0  0  0  0  0  0
  2  1  1  6
  2  3  1  0
  3  4  1  0
  4  9  2  0
  4  5  1  0
  5  6  2  0
  6  7  1  0
  8  7  2  0
  9  8  1  0
 10  2  1  0
 10 17  1  0
 11 10  2  0
 12 13  1  0
 13 14  1  0
 16 15  1  1
 15 14  1  0
 16 17  1  0
 18 16  1  0
 19 18  2  0
 20 21  1  0
 21 22  2  0
 23 21  1  0
 24 23  1  0
 24 25  1  0
 25 26  1  0
 27 28  1  0
 27 26  1  6
 28 18  1  0
 29 27  1  0
 30 29  2  0
 31 29  1  0
M  END
$$$$
