FMR.pdb
     RDKit          3D

 31 31  0  0  1  0  0  0  0  0999 V2000
    7.4150  -17.0343   20.7251 N   0  0  0  0  0  0  0  0  0  0  0  0
    8.8150  -16.6725   20.8274 C   0  0  1  0  0  0  0  0  0  0  0  0
    9.2422  -15.7344   19.7245 C   0  0  0  0  0  0  0  0  0  0  0  0
    8.5494  -14.4271   19.8046 C   0  0  0  0  0  0  0  0  0  0  0  0
    7.1981  -14.4075   19.5329 C   0  0  0  0  0  0  0  0  0  0  0  0
    6.4790  -13.2496   19.5820 C   0  0  0  0  0  0  0  0  0  0  0  0
    7.1159  -12.0689   19.9109 C   0  0  0  0  0  0  0  0  0  0  0  0
    8.4585  -12.0920   20.1802 C   0  0  0  0  0  0  0  0  0  0  0  0
    9.1907  -13.2532   20.1332 C   0  0  0  0  0  0  0  0  0  0  0  0
    9.1339  -16.0140   22.1067 C   0  0  0  0  0  0  0  0  0  0  0  0
   10.3232  -15.7641   22.3767 O   0  0  0  0  0  0  0  0  0  0  0  0
    6.9825  -11.5828   28.0790 C   0  0  0  0  0  0  0  0  0  0  0  0
    6.5408  -12.3320   26.4970 S   0  0  0  0  0  0  0  0  0  0  0  0
    7.6100  -13.7663   26.1866 C   0  0  0  0  0  0  0  0  0  0  0  0
    7.3420  -14.2818   24.8114 C   0  0  0  0  0  0  0  0  0  0  0  0
    8.5102  -15.0731   24.2896 C   0  0  2  0  0  0  0  0  0  0  0  0
    8.1285  -15.6734   23.0043 N   0  0  0  0  0  0  0  0  0  0  0  0
    8.7517  -16.2285   25.1888 C   0  0  0  0  0  0  0  0  0  0  0  0
    7.8529  -17.1194   25.2566 O   0  0  0  0  0  0  0  0  0  0  0  0
   14.1348  -21.1957   22.1460 N   0  0  0  0  0  0  0  0  0  0  0  0
   13.9985  -21.8690   23.3760 C   0  0  0  0  0  0  0  0  0  0  0  0
   14.4827  -23.0523   23.5882 N   0  0  0  0  0  0  0  0  0  0  0  0
   13.2962  -21.2029   24.4165 N   0  0  0  0  0  0  0  0  0  0  0  0
   12.6506  -19.9198   24.0677 C   0  0  0  0  0  0  0  0  0  0  0  0
   11.8437  -19.5253   25.2377 C   0  0  0  0  0  0  0  0  0  0  0  0
   11.2003  -18.2191   25.1725 C   0  0  0  0  0  0  0  0  0  0  0  0
   10.3555  -17.7706   26.3016 C   0  0  2  0  0  0  0  0  0  0  0  0
    9.9105  -16.3778   25.9451 N   0  0  0  0  0  0  0  0  0  0  0  0
   10.8522  -17.7093   27.6488 C   0  0  0  0  0  0  0  0  0  0  0  0
   11.2779  -18.6972   28.2775 O   0  0  0  0  0  0  0  0  0  0  0  0
   10.8862  -16.4970   28.3483 O   0  0  0  0  0  0  0  0  0  0  0  0
  2  1  1  1
  2  3  1  0
  3  4  1  0
  4  9  2  0
  4  5  1  0
  5  6  2  0
  6  7  1  0
  8  7  2  0
  9  8  1  0
 10  2  1  0
 10 17  1  0
 11 10  2  0
 12 13  1  0
 13 14  1  0
 16 15  1  1
 15 14  1  0
 16 17  1  0
 18 16  1  0
 19 18  2  0
 20 21  1  0
 21 22  2  0
 23 21  1  0
 24 23  1  0
 24 25  1  0
 25 26  1  0
 27 28  1  0
 27 26  1  6
 28 18  1  0
 29 27  1  0
 30 29  2  0
 31 29  1  0
M  END
$$$$
