FMR.pdb
     RDKit          3D

 31 31  0  0  1  0  0  0  0  0999 V2000
    6.3181  -16.3455   26.5302 N   0  0  0  0  0  0  0  0  0  0  0  0
    6.8446  -15.9726   25.2321 C   0  0  1  0  0  0  0  0  0  0  0  0
    6.1867  -14.7278   24.6875 C   0  0  0  0  0  0  0  0  0  0  0  0
    6.3862  -13.5578   25.5745 C   0  0  0  0  0  0  0  0  0  0  0  0
    5.7729  -13.5855   26.8088 C   0  0  0  0  0  0  0  0  0  0  0  0
    5.9008  -12.5526   27.6904 C   0  0  0  0  0  0  0  0  0  0  0  0
    6.6609  -11.4533   27.3417 C   0  0  0  0  0  0  0  0  0  0  0  0
    7.2687  -11.4291   26.1147 C   0  0  0  0  0  0  0  0  0  0  0  0
    7.1455  -12.4645   25.2205 C   0  0  0  0  0  0  0  0  0  0  0  0
    8.2960  -15.7186   25.2655 C   0  0  0  0  0  0  0  0  0  0  0  0
    8.7029  -14.5841   25.5772 O   0  0  0  0  0  0  0  0  0  0  0  0
   10.2946  -14.3304   29.3241 C   0  0  0  0  0  0  0  0  0  0  0  0
   11.3395  -15.0979   28.0678 S   0  0  0  0  0  0  0  0  0  0  0  0
   10.5403  -16.6091   27.4559 C   0  0  0  0  0  0  0  0  0  0  0  0
   11.2360  -17.0558   26.2129 C   0  0  0  0  0  0  0  0  0  0  0  0
   10.6384  -16.4098   24.9928 C   0  0  2  0  0  0  0  0  0  0  0  0
    9.2039  -16.7244   24.9552 N   0  0  0  0  0  0  0  0  0  0  0  0
   11.1983  -17.0564   23.7802 C   0  0  0  0  0  0  0  0  0  0  0  0
   10.8471  -18.2489   23.5337 O   0  0  0  0  0  0  0  0  0  0  0  0
    8.4434  -14.4061   17.4905 N   0  0  0  0  0  0  0  0  0  0  0  0
    8.7210  -13.4945   18.5281 C   0  0  0  0  0  0  0  0  0  0  0  0
    8.2841  -12.2743   18.5287 N   0  0  0  0  0  0  0  0  0  0  0  0
    9.5160  -13.9540   19.6126 N   0  0  0  0  0  0  0  0  0  0  0  0
   10.0185  -15.3416   19.5278 C   0  0  0  0  0  0  0  0  0  0  0  0
   10.8757  -15.5496   20.7099 C   0  0  0  0  0  0  0  0  0  0  0  0
   12.0240  -16.4297   20.5329 C   0  0  0  0  0  0  0  0  0  0  0  0
   12.5562  -17.1694   21.6989 C   0  0  2  0  0  0  0  0  0  0  0  0
   12.0751  -16.4157   22.9095 N   0  0  0  0  0  0  0  0  0  0  0  0
   13.9643  -17.3878   21.8858 C   0  0  0  0  0  0  0  0  0  0  0  0
   14.6141  -16.9414   22.8507 O   0  0  0  0  0  0  0  0  0  0  0  0
   14.7041  -18.1390   20.9646 O   0  0  0  0  0  0  0  0  0  0  0  0
  2  1  1  1
  2  3  1  0
  3  4  1  0
  4  9  2  0
  4  5  1  0
  5  6  2  0
  6  7  1  0
  8  7  2  0
  9  8  1  0
 10  2  1  0
 10 17  1  0
 11 10  2  0
 12 13  1  0
 13 14  1  0
 16 15  1  1
 15 14  1  0
 16 17  1  0
 18 16  1  0
 19 18  2  0
 20 21  1  0
 21 22  2  0
 23 21  1  0
 24 23  1  0
 24 25  1  0
 25 26  1  0
 27 28  1  0
 27 26  1  6
 28 18  1  0
 29 27  1  0
 30 29  2  0
 31 29  1  0
M  END
$$$$
