FMR.pdb
     RDKit          3D

 31 31  0  0  1  0  0  0  0  0999 V2000
    8.3466  -14.2268   19.1484 N   0  0  0  0  0  0  0  0  0  0  0  0
    7.5818  -15.0714   20.0446 C   0  0  1  0  0  0  0  0  0  0  0  0
    7.5863  -16.5162   19.6070 C   0  0  0  0  0  0  0  0  0  0  0  0
    6.8514  -17.3879   20.5532 C   0  0  0  0  0  0  0  0  0  0  0  0
    7.5579  -17.9077   21.6166 C   0  0  0  0  0  0  0  0  0  0  0  0
    6.9635  -18.7200   22.5371 C   0  0  0  0  0  0  0  0  0  0  0  0
    5.6242  -19.0303   22.4036 C   0  0  0  0  0  0  0  0  0  0  0  0
    4.9253  -18.5122   21.3460 C   0  0  0  0  0  0  0  0  0  0  0  0
    5.5155  -17.6934   20.4142 C   0  0  0  0  0  0  0  0  0  0  0  0
    8.0929  -15.0336   21.4264 C   0  0  0  0  0  0  0  0  0  0  0  0
    9.3020  -15.2504   21.6286 O   0  0  0  0  0  0  0  0  0  0  0  0
    6.8870  -11.4772   28.2578 C   0  0  0  0  0  0  0  0  0  0  0  0
    6.2216  -11.9985   26.6626 S   0  0  0  0  0  0  0  0  0  0  0  0
    7.3616  -13.1804   25.8879 C   0  0  0  0  0  0  0  0  0  0  0  0
    6.8869  -13.4751   24.5035 C   0  0  0  0  0  0  0  0  0  0  0  0
    7.8403  -14.3902   23.7847 C   0  0  2  0  0  0  0  0  0  0  0  0
    7.2451  -14.7610   22.4938 N   0  0  0  0  0  0  0  0  0  0  0  0
    7.9422  -15.6671   24.5337 C   0  0  0  0  0  0  0  0  0  0  0  0
    7.1561  -16.6057   24.2064 O   0  0  0  0  0  0  0  0  0  0  0  0
   13.1770  -18.6749   21.0902 N   0  0  0  0  0  0  0  0  0  0  0  0
   13.4003  -19.7560   21.9653 C   0  0  0  0  0  0  0  0  0  0  0  0
   14.4439  -20.5206   21.8875 N   0  0  0  0  0  0  0  0  0  0  0  0
   12.4263  -20.0009   22.9707 N   0  0  0  0  0  0  0  0  0  0  0  0
   11.2446  -19.1131   22.9821 C   0  0  0  0  0  0  0  0  0  0  0  0
   11.4456  -18.1624   24.0917 C   0  0  0  0  0  0  0  0  0  0  0  0
   10.3985  -17.1688   24.2936 C   0  0  0  0  0  0  0  0  0  0  0  0
    9.6421  -17.1618   25.5655 C   0  0  2  0  0  0  0  0  0  0  0  0
    8.8566  -15.8780   25.5616 N   0  0  0  0  0  0  0  0  0  0  0  0
   10.2966  -17.2372   26.8428 C   0  0  0  0  0  0  0  0  0  0  0  0
   10.7693  -16.2510   27.4399 O   0  0  0  0  0  0  0  0  0  0  0  0
   10.4412  -18.4618   27.5057 O   0  0  0  0  0  0  0  0  0  0  0  0
  2  1  1  6
  2  3  1  0
  3  4  1  0
  4  9  2  0
  4  5  1  0
  5  6  2  0
  6  7  1  0
  8  7  2  0
  9  8  1  0
 10  2  1  0
 10 17  1  0
 11 10  2  0
 12 13  1  0
 13 14  1  0
 16 15  1  1
 15 14  1  0
 16 17  1  0
 18 16  1  0
 19 18  2  0
 20 21  1  0
 21 22  2  0
 23 21  1  0
 24 23  1  0
 24 25  1  0
 25 26  1  0
 27 28  1  0
 27 26  1  6
 28 18  1  0
 29 27  1  0
 30 29  2  0
 31 29  1  0
M  END
$$$$
