FMR.pdb
     RDKit          3D

 31 31  0  0  1  0  0  0  0  0999 V2000
    7.5853  -16.6359   21.0387 N   0  0  0  0  0  0  0  0  0  0  0  0
    9.0016  -16.3562   21.1695 C   0  0  1  0  0  0  0  0  0  0  0  0
    9.4410  -15.2172   20.2816 C   0  0  0  0  0  0  0  0  0  0  0  0
    8.4713  -14.0969   20.2904 C   0  0  0  0  0  0  0  0  0  0  0  0
    7.1406  -14.4083   20.1098 C   0  0  0  0  0  0  0  0  0  0  0  0
    6.1781  -13.4418   20.1031 C   0  0  0  0  0  0  0  0  0  0  0  0
    6.5416  -12.1212   20.2808 C   0  0  0  0  0  0  0  0  0  0  0  0
    7.8644  -11.8154   20.4600 C   0  0  0  0  0  0  0  0  0  0  0  0
    8.8405  -12.7819   20.4682 C   0  0  0  0  0  0  0  0  0  0  0  0
    9.3804  -16.0034   22.5494 C   0  0  0  0  0  0  0  0  0  0  0  0
   10.5699  -15.7334   22.7982 O   0  0  0  0  0  0  0  0  0  0  0  0
    6.0608  -11.4044   26.7445 C   0  0  0  0  0  0  0  0  0  0  0  0
    6.2813  -13.1931   26.8505 S   0  0  0  0  0  0  0  0  0  0  0  0
    7.5443  -13.7194   25.6570 C   0  0  0  0  0  0  0  0  0  0  0  0
    7.6895  -15.2035   25.7281 C   0  0  0  0  0  0  0  0  0  0  0  0
    8.8763  -15.6729   24.9318 C   0  0  2  0  0  0  0  0  0  0  0  0
    8.4306  -15.9701   23.5639 N   0  0  0  0  0  0  0  0  0  0  0  0
    9.3349  -16.9772   25.4709 C   0  0  0  0  0  0  0  0  0  0  0  0
    8.6181  -17.9956   25.2365 O   0  0  0  0  0  0  0  0  0  0  0  0
   14.1170  -22.4048   23.6693 N   0  0  0  0  0  0  0  0  0  0  0  0
   14.1237  -21.0799   23.1906 C   0  0  0  0  0  0  0  0  0  0  0  0
   14.3405  -20.7815   21.9482 N   0  0  0  0  0  0  0  0  0  0  0  0
   13.8790  -20.0402   24.1280 N   0  0  0  0  0  0  0  0  0  0  0  0
   14.0539  -20.3778   25.5564 C   0  0  0  0  0  0  0  0  0  0  0  0
   12.7483  -20.1497   26.2036 C   0  0  0  0  0  0  0  0  0  0  0  0
   12.1164  -18.8601   25.9546 C   0  0  0  0  0  0  0  0  0  0  0  0
   10.8765  -18.5086   26.6819 C   0  0  2  0  0  0  0  0  0  0  0  0
   10.5064  -17.1293   26.2068 N   0  0  0  0  0  0  0  0  0  0  0  0
   10.8172  -18.4764   28.1175 C   0  0  0  0  0  0  0  0  0  0  0  0
   11.0967  -19.4479   28.8459 O   0  0  0  0  0  0  0  0  0  0  0  0
   10.4310  -17.3139   28.7955 O   0  0  0  0  0  0  0  0  0  0  0  0
  2  1  1  1
  2  3  1  0
  3  4  1  0
  4  9  2  0
  4  5  1  0
  5  6  2  0
  6  7  1  0
  8  7  2  0
  9  8  1  0
 10  2  1  0
 10 17  1  0
 11 10  2  0
 12 13  1  0
 13 14  1  0
 16 15  1  1
 15 14  1  0
 16 17  1  0
 18 16  1  0
 19 18  2  0
 20 21  1  0
 21 22  2  0
 23 21  1  0
 24 23  1  0
 24 25  1  0
 25 26  1  0
 27 28  1  0
 27 26  1  1
 28 18  1  0
 29 27  1  0
 30 29  2  0
 31 29  1  0
M  END
$$$$
