FMR.pdb
     RDKit          3D

 31 31  0  0  1  0  0  0  0  0999 V2000
    8.3213  -19.6146   27.8902 N   0  0  0  0  0  0  0  0  0  0  0  0
    8.3888  -18.1837   27.6685 C   0  0  1  0  0  0  0  0  0  0  0  0
    9.7925  -17.6498   27.8219 C   0  0  0  0  0  0  0  0  0  0  0  0
    9.8284  -16.3915   28.6034 C   0  0  0  0  0  0  0  0  0  0  0  0
    9.7598  -15.2067   27.9020 C   0  0  0  0  0  0  0  0  0  0  0  0
    9.7865  -14.0005   28.5380 C   0  0  0  0  0  0  0  0  0  0  0  0
    9.8843  -13.9618   29.9152 C   0  0  0  0  0  0  0  0  0  0  0  0
    9.9522  -15.1406   30.6090 C   0  0  0  0  0  0  0  0  0  0  0  0
    9.9260  -16.3599   29.9770 C   0  0  0  0  0  0  0  0  0  0  0  0
    7.9218  -17.8000   26.3243 C   0  0  0  0  0  0  0  0  0  0  0  0
    7.8743  -18.6667   25.4319 O   0  0  0  0  0  0  0  0  0  0  0  0
    7.2784  -10.9528   26.2319 C   0  0  0  0  0  0  0  0  0  0  0  0
    6.2735  -12.2617   25.4997 S   0  0  0  0  0  0  0  0  0  0  0  0
    7.2810  -13.7590   25.3002 C   0  0  0  0  0  0  0  0  0  0  0  0
    6.4410  -14.8300   24.6871 C   0  0  0  0  0  0  0  0  0  0  0  0
    7.1667  -16.1476   24.6694 C   0  0  2  0  0  0  0  0  0  0  0  0
    7.5382  -16.4926   26.0482 N   0  0  0  0  0  0  0  0  0  0  0  0
    8.4598  -15.9777   23.9616 C   0  0  0  0  0  0  0  0  0  0  0  0
    9.5169  -15.9711   24.6605 O   0  0  0  0  0  0  0  0  0  0  0  0
   11.8932  -19.6000   18.0293 N   0  0  0  0  0  0  0  0  0  0  0  0
   10.8090  -19.3508   17.1650 C   0  0  0  0  0  0  0  0  0  0  0  0
   10.9073  -19.4198   15.8745 N   0  0  0  0  0  0  0  0  0  0  0  0
    9.5616  -19.0112   17.7549 N   0  0  0  0  0  0  0  0  0  0  0  0
    9.3671  -17.5948   18.1304 C   0  0  0  0  0  0  0  0  0  0  0  0
    9.9486  -17.4348   19.4764 C   0  0  0  0  0  0  0  0  0  0  0  0
    9.0930  -16.8225   20.4851 C   0  0  0  0  0  0  0  0  0  0  0  0
    9.6143  -16.6288   21.8564 C   0  0  2  0  0  0  0  0  0  0  0  0
    8.5609  -15.8346   22.5808 N   0  0  0  0  0  0  0  0  0  0  0  0
   10.8678  -15.9734   22.1106 C   0  0  0  0  0  0  0  0  0  0  0  0
   10.9882  -14.7437   22.2720 O   0  0  0  0  0  0  0  0  0  0  0  0
   12.0582  -16.7055   22.1943 O   0  0  0  0  0  0  0  0  0  0  0  0
  2  1  1  6
  2  3  1  0
  3  4  1  0
  4  9  2  0
  4  5  1  0
  5  6  2  0
  6  7  1  0
  8  7  2  0
  9  8  1  0
 10  2  1  0
 10 17  1  0
 11 10  2  0
 12 13  1  0
 13 14  1  0
 16 15  1  1
 15 14  1  0
 16 17  1  0
 18 16  1  0
 19 18  2  0
 20 21  1  0
 21 22  2  0
 23 21  1  0
 24 23  1  0
 24 25  1  0
 25 26  1  0
 27 28  1  0
 27 26  1  6
 28 18  1  0
 29 27  1  0
 30 29  2  0
 31 29  1  0
M  END
$$$$
