FMR.pdb
     RDKit          3D

 31 31  0  0  1  0  0  0  0  0999 V2000
    7.8018  -17.0706   21.3922 N   0  0  0  0  0  0  0  0  0  0  0  0
    9.1938  -16.6733   21.4685 C   0  0  1  0  0  0  0  0  0  0  0  0
    9.5780  -15.7299   20.3544 C   0  0  0  0  0  0  0  0  0  0  0  0
    8.6621  -14.5685   20.2661 C   0  0  0  0  0  0  0  0  0  0  0  0
    9.2189  -13.3119   20.3721 C   0  0  0  0  0  0  0  0  0  0  0  0
    8.4525  -12.1857   20.3027 C   0  0  0  0  0  0  0  0  0  0  0  0
    7.0882  -12.3037   20.1221 C   0  0  0  0  0  0  0  0  0  0  0  0
    6.5384  -13.5535   20.0171 C   0  0  0  0  0  0  0  0  0  0  0  0
    7.3022  -14.6931   20.0859 C   0  0  0  0  0  0  0  0  0  0  0  0
    9.5182  -16.0010   22.7393 C   0  0  0  0  0  0  0  0  0  0  0  0
   10.6756  -15.5799   22.9207 O   0  0  0  0  0  0  0  0  0  0  0  0
    5.8625  -11.9830   26.4589 C   0  0  0  0  0  0  0  0  0  0  0  0
    7.6526  -11.9613   26.2264 S   0  0  0  0  0  0  0  0  0  0  0  0
    8.1258  -13.2572   25.0458 C   0  0  0  0  0  0  0  0  0  0  0  0
    8.0475  -14.5840   25.7257 C   0  0  0  0  0  0  0  0  0  0  0  0
    8.9950  -15.5719   25.1017 C   0  0  2  0  0  0  0  0  0  0  0  0
    8.5529  -15.8352   23.7258 N   0  0  0  0  0  0  0  0  0  0  0  0
    8.8609  -16.8758   25.7972 C   0  0  0  0  0  0  0  0  0  0  0  0
    8.1895  -17.7834   25.2216 O   0  0  0  0  0  0  0  0  0  0  0  0
   12.9363  -19.1307   22.1722 N   0  0  0  0  0  0  0  0  0  0  0  0
   13.1921  -20.4232   22.6708 C   0  0  0  0  0  0  0  0  0  0  0  0
   13.2898  -21.4657   21.9070 N   0  0  0  0  0  0  0  0  0  0  0  0
   13.3472  -20.5678   24.0760 N   0  0  0  0  0  0  0  0  0  0  0  0
   13.2023  -19.3429   24.8906 C   0  0  0  0  0  0  0  0  0  0  0  0
   11.7655  -19.2110   25.1966 C   0  0  0  0  0  0  0  0  0  0  0  0
   11.3796  -18.0768   26.0268 C   0  0  0  0  0  0  0  0  0  0  0  0
   10.4183  -18.2826   27.1328 C   0  0  2  0  0  0  0  0  0  0  0  0
    9.4392  -17.1438   27.0345 N   0  0  0  0  0  0  0  0  0  0  0  0
   10.8373  -18.3445   28.5062 C   0  0  0  0  0  0  0  0  0  0  0  0
   10.9300  -19.4031   29.1568 O   0  0  0  0  0  0  0  0  0  0  0  0
   11.1755  -17.1813   29.2080 O   0  0  0  0  0  0  0  0  0  0  0  0
  2  1  1  1
  2  3  1  0
  3  4  1  0
  4  9  2  0
  4  5  1  0
  5  6  2  0
  6  7  1  0
  8  7  2  0
  9  8  1  0
 10  2  1  0
 10 17  1  0
 11 10  2  0
 12 13  1  0
 13 14  1  0
 16 15  1  1
 15 14  1  0
 16 17  1  0
 18 16  1  0
 19 18  2  0
 20 21  1  0
 21 22  2  0
 23 21  1  0
 24 23  1  0
 24 25  1  0
 25 26  1  0
 27 28  1  0
 27 26  1  6
 28 18  1  0
 29 27  1  0
 30 29  2  0
 31 29  1  0
M  END
$$$$
