FMR.pdb
     RDKit          3D

 31 31  0  0  1  0  0  0  0  0999 V2000
    7.5662  -14.5831   19.6450 N   0  0  0  0  0  0  0  0  0  0  0  0
    7.3996  -15.6106   20.6539 C   0  0  1  0  0  0  0  0  0  0  0  0
    7.9012  -16.9550   20.1850 C   0  0  0  0  0  0  0  0  0  0  0  0
    6.8088  -17.9496   20.0722 C   0  0  0  0  0  0  0  0  0  0  0  0
    6.1976  -18.0840   18.8439 C   0  0  0  0  0  0  0  0  0  0  0  0
    5.1830  -18.9742   18.6474 C   0  0  0  0  0  0  0  0  0  0  0  0
    4.7563  -19.7596   19.7004 C   0  0  0  0  0  0  0  0  0  0  0  0
    5.3657  -19.6235   20.9193 C   0  0  0  0  0  0  0  0  0  0  0  0
    6.3881  -18.7298   21.1264 C   0  0  0  0  0  0  0  0  0  0  0  0
    8.1121  -15.2922   21.9041 C   0  0  0  0  0  0  0  0  0  0  0  0
    9.2270  -14.7420   21.8399 O   0  0  0  0  0  0  0  0  0  0  0  0
    6.2005  -10.6425   26.3612 C   0  0  0  0  0  0  0  0  0  0  0  0
    6.5834  -12.3818   26.6565 S   0  0  0  0  0  0  0  0  0  0  0  0
    6.9380  -13.2008   25.0753 C   0  0  0  0  0  0  0  0  0  0  0  0
    7.2449  -14.6389   25.3327 C   0  0  0  0  0  0  0  0  0  0  0  0
    8.2602  -15.1623   24.3537 C   0  0  2  0  0  0  0  0  0  0  0  0
    7.5553  -15.5979   23.1407 N   0  0  0  0  0  0  0  0  0  0  0  0
    8.8672  -16.4002   24.9023 C   0  0  0  0  0  0  0  0  0  0  0  0
    8.0981  -17.3807   25.1327 O   0  0  0  0  0  0  0  0  0  0  0  0
   12.5656  -17.0150   20.5892 N   0  0  0  0  0  0  0  0  0  0  0  0
   11.5257  -17.9651   20.6063 C   0  0  0  0  0  0  0  0  0  0  0  0
   10.6804  -18.1011   19.6333 N   0  0  0  0  0  0  0  0  0  0  0  0
   11.4172  -18.8016   21.7500 N   0  0  0  0  0  0  0  0  0  0  0  0
   12.5295  -18.7468   22.7220 C   0  0  0  0  0  0  0  0  0  0  0  0
   12.1870  -17.6890   23.6912 C   0  0  0  0  0  0  0  0  0  0  0  0
   12.0032  -18.1101   25.0744 C   0  0  0  0  0  0  0  0  0  0  0  0
   10.7192  -17.8266   25.7533 C   0  0  2  0  0  0  0  0  0  0  0  0
   10.2279  -16.5317   25.1643 N   0  0  0  0  0  0  0  0  0  0  0  0
   10.6252  -17.6885   27.1808 C   0  0  0  0  0  0  0  0  0  0  0  0
   10.3294  -16.6243   27.7574 O   0  0  0  0  0  0  0  0  0  0  0  0
   10.8676  -18.7778   28.0262 O   0  0  0  0  0  0  0  0  0  0  0  0
  2  1  1  6
  2  3  1  0
  3  4  1  0
  4  9  2  0
  4  5  1  0
  5  6  2  0
  6  7  1  0
  8  7  2  0
  9  8  1  0
 10  2  1  0
 10 17  1  0
 11 10  2  0
 12 13  1  0
 13 14  1  0
 16 15  1  1
 15 14  1  0
 16 17  1  0
 18 16  1  0
 19 18  2  0
 20 21  1  0
 21 22  2  0
 23 21  1  0
 24 23  1  0
 24 25  1  0
 25 26  1  0
 27 28  1  0
 27 26  1  1
 28 18  1  0
 29 27  1  0
 30 29  2  0
 31 29  1  0
M  END
$$$$
