FMR.pdb
     RDKit          3D

 31 31  0  0  1  0  0  0  0  0999 V2000
    6.7425  -17.5732   26.3558 N   0  0  0  0  0  0  0  0  0  0  0  0
    7.0608  -16.3854   25.5881 C   0  0  1  0  0  0  0  0  0  0  0  0
    8.3392  -15.7321   26.0547 C   0  0  0  0  0  0  0  0  0  0  0  0
    8.1818  -14.2711   26.2451 C   0  0  0  0  0  0  0  0  0  0  0  0
    7.4940  -13.5752   25.2740 C   0  0  0  0  0  0  0  0  0  0  0  0
    7.3009  -12.2281   25.3658 C   0  0  0  0  0  0  0  0  0  0  0  0
    7.8044  -11.5433   26.4546 C   0  0  0  0  0  0  0  0  0  0  0  0
    8.4871  -12.2378   27.4175 C   0  0  0  0  0  0  0  0  0  0  0  0
    8.6864  -13.5943   27.3334 C   0  0  0  0  0  0  0  0  0  0  0  0
    7.2170  -16.6698   24.1505 C   0  0  0  0  0  0  0  0  0  0  0  0
    7.3456  -17.8512   23.7796 O   0  0  0  0  0  0  0  0  0  0  0  0
    7.7051  -12.0570   19.6241 C   0  0  0  0  0  0  0  0  0  0  0  0
    7.1617  -13.4464   18.6076 S   0  0  0  0  0  0  0  0  0  0  0  0
    7.3884  -14.9951   19.5278 C   0  0  0  0  0  0  0  0  0  0  0  0
    7.1846  -14.7287   20.9825 C   0  0  0  0  0  0  0  0  0  0  0  0
    7.3353  -15.9873   21.7926 C   0  0  2  0  0  0  0  0  0  0  0  0
    7.2219  -15.6409   23.2157 N   0  0  0  0  0  0  0  0  0  0  0  0
    8.7195  -16.4988   21.6380 C   0  0  0  0  0  0  0  0  0  0  0  0
    9.0003  -17.1238   20.5719 O   0  0  0  0  0  0  0  0  0  0  0  0
   10.5126  -15.3392   15.4578 N   0  0  0  0  0  0  0  0  0  0  0  0
   11.2566  -15.0274   16.6127 C   0  0  0  0  0  0  0  0  0  0  0  0
   12.5401  -14.8481   16.5961 N   0  0  0  0  0  0  0  0  0  0  0  0
   10.5489  -14.9080   17.8393 N   0  0  0  0  0  0  0  0  0  0  0  0
   11.3598  -14.6988   19.0573 C   0  0  0  0  0  0  0  0  0  0  0  0
   10.7557  -15.5352   20.1114 C   0  0  0  0  0  0  0  0  0  0  0  0
   11.6126  -15.8781   21.2394 C   0  0  0  0  0  0  0  0  0  0  0  0
   11.1038  -16.7957   22.2830 C   0  0  2  0  0  0  0  0  0  0  0  0
    9.7116  -16.3179   22.5973 N   0  0  0  0  0  0  0  0  0  0  0  0
   11.7731  -16.9636   23.5436 C   0  0  0  0  0  0  0  0  0  0  0  0
   12.9306  -17.4096   23.6611 O   0  0  0  0  0  0  0  0  0  0  0  0
   11.1401  -16.6229   24.7450 O   0  0  0  0  0  0  0  0  0  0  0  0
  2  1  1  1
  2  3  1  0
  3  4  1  0
  4  9  2  0
  4  5  1  0
  5  6  2  0
  6  7  1  0
  8  7  2  0
  9  8  1  0
 10  2  1  0
 10 17  1  0
 11 10  2  0
 12 13  1  0
 13 14  1  0
 16 15  1  6
 15 14  1  0
 16 17  1  0
 18 16  1  0
 19 18  2  0
 20 21  1  0
 21 22  2  0
 23 21  1  0
 24 23  1  0
 24 25  1  0
 25 26  1  0
 27 28  1  0
 27 26  1  6
 28 18  1  0
 29 27  1  0
 30 29  2  0
 31 29  1  0
M  END
$$$$
