FMR.pdb
     RDKit          3D

 31 31  0  0  1  0  0  0  0  0999 V2000
    9.4308  -15.6269   20.0130 N   0  0  0  0  0  0  0  0  0  0  0  0
    8.5119  -15.9225   21.0945 C   0  0  1  0  0  0  0  0  0  0  0  0
    8.3370  -17.4074   21.3025 C   0  0  0  0  0  0  0  0  0  0  0  0
    7.6325  -18.0504   20.1686 C   0  0  0  0  0  0  0  0  0  0  0  0
    8.3956  -18.7668   19.2716 C   0  0  0  0  0  0  0  0  0  0  0  0
    7.8326  -19.3917   18.1978 C   0  0  0  0  0  0  0  0  0  0  0  0
    6.4679  -19.3066   18.0022 C   0  0  0  0  0  0  0  0  0  0  0  0
    5.7128  -18.5940   18.8952 C   0  0  0  0  0  0  0  0  0  0  0  0
    6.2710  -17.9616   19.9793 C   0  0  0  0  0  0  0  0  0  0  0  0
    8.9535  -15.3521   22.3797 C   0  0  0  0  0  0  0  0  0  0  0  0
   10.1189  -14.9268   22.4824 O   0  0  0  0  0  0  0  0  0  0  0  0
    6.3579  -11.1458   26.0687 C   0  0  0  0  0  0  0  0  0  0  0  0
    6.5587  -12.4074   27.3443 S   0  0  0  0  0  0  0  0  0  0  0  0
    7.8037  -13.6162   26.8099 C   0  0  0  0  0  0  0  0  0  0  0  0
    7.3840  -14.1973   25.5004 C   0  0  0  0  0  0  0  0  0  0  0  0
    8.5723  -14.6743   24.7109 C   0  0  2  0  0  0  0  0  0  0  0  0
    8.0886  -15.2861   23.4660 N   0  0  0  0  0  0  0  0  0  0  0  0
    9.2276  -15.7839   25.4467 C   0  0  0  0  0  0  0  0  0  0  0  0
    9.7042  -15.5293   26.5930 O   0  0  0  0  0  0  0  0  0  0  0  0
   15.0034  -19.1019   21.5908 N   0  0  0  0  0  0  0  0  0  0  0  0
   13.7808  -18.9925   20.8996 C   0  0  0  0  0  0  0  0  0  0  0  0
   13.6851  -19.1231   19.6137 N   0  0  0  0  0  0  0  0  0  0  0  0
   12.6132  -18.7277   21.6653 N   0  0  0  0  0  0  0  0  0  0  0  0
   12.7734  -18.7006   23.1345 C   0  0  0  0  0  0  0  0  0  0  0  0
   11.4297  -18.4721   23.6982 C   0  0  0  0  0  0  0  0  0  0  0  0
   11.3498  -18.3193   25.1454 C   0  0  0  0  0  0  0  0  0  0  0  0
   10.0287  -18.1153   25.7804 C   0  0  2  0  0  0  0  0  0  0  0  0
    9.3334  -17.0767   24.9419 N   0  0  0  0  0  0  0  0  0  0  0  0
    9.8965  -17.6929   27.1477 C   0  0  0  0  0  0  0  0  0  0  0  0
   10.2721  -18.3710   28.1232 O   0  0  0  0  0  0  0  0  0  0  0  0
    9.3213  -16.4569   27.4661 O   0  0  0  0  0  0  0  0  0  0  0  0
  2  1  1  6
  2  3  1  0
  3  4  1  0
  4  9  2  0
  4  5  1  0
  5  6  2  0
  6  7  1  0
  8  7  2  0
  9  8  1  0
 10  2  1  0
 10 17  1  0
 11 10  2  0
 12 13  1  0
 13 14  1  0
 16 15  1  1
 15 14  1  0
 16 17  1  0
 18 16  1  0
 19 18  2  0
 20 21  1  0
 21 22  2  0
 23 21  1  0
 24 23  1  0
 24 25  1  0
 25 26  1  0
 27 28  1  0
 27 26  1  6
 28 18  1  0
 29 27  1  0
 30 29  2  0
 31 29  1  0
M  END
$$$$
