TIK.pdb
     RDKit          3D

 25 24  0  0  1  0  0  0  0  0999 V2000
   22.3537  -13.1684  -19.7193 C   0  0  0  0  0  0  0  0  0  0  0  0
   21.9365  -14.4090  -18.9445 C   0  0  1  0  0  0  0  0  0  0  0  0
   21.5105  -15.4060  -19.7944 O   0  0  0  0  0  0  0  0  0  0  0  0
   23.1033  -14.8150  -18.0937 C   0  0  2  0  0  0  0  0  0  0  0  0
   22.8996  -16.0762  -17.4386 N   0  0  0  0  0  0  0  0  0  0  0  0
   23.4598  -13.7882  -17.0782 C   0  0  0  0  0  0  0  0  0  0  0  0
   22.8084  -13.7036  -15.9926 O   0  0  0  0  0  0  0  0  0  0  0  0
   28.5316  -12.6244  -15.5991 C   0  0  0  0  0  0  0  0  0  0  0  0
   27.0450  -12.7765  -15.6585 C   0  0  0  0  0  0  0  0  0  0  0  0
   26.2800  -11.6016  -16.1233 C   0  0  2  0  0  0  0  0  0  0  0  0
   26.4377  -10.5162  -15.0450 C   0  0  0  0  0  0  0  0  0  0  0  0
   24.8141  -11.7980  -16.3058 C   0  0  2  0  0  0  0  0  0  0  0  0
   24.5194  -12.8619  -17.2481 N   0  0  0  0  0  0  0  0  0  0  0  0
   24.0990  -10.5445  -16.6348 C   0  0  0  0  0  0  0  0  0  0  0  0
   24.3791  -10.0283  -17.7604 O   0  0  0  0  0  0  0  0  0  0  0  0
   23.1660   -9.9167  -15.8090 N   0  0  0  0  0  0  0  0  0  0  0  0
   22.4632   -8.7346  -16.3252 C   0  0  1  0  0  0  0  0  0  0  0  0
   21.0385   -9.0971  -16.6937 C   0  0  0  0  0  0  0  0  0  0  0  0
   20.2517   -7.9346  -17.2149 C   0  0  0  0  0  0  0  0  0  0  0  0
   18.8415   -8.3264  -17.5869 C   0  0  0  0  0  0  0  0  0  0  0  0
   18.1358   -7.1787  -18.2520 C   0  0  0  0  0  0  0  0  0  0  0  0
   16.7565   -7.5102  -18.5143 N   0  0  0  0  0  0  0  0  0  0  0  0
   22.5402   -7.6738  -15.2916 C   0  0  0  0  0  0  0  0  0  0  0  0
   22.4471   -6.3160  -15.5484 O   0  0  0  0  0  0  0  0  0  0  0  0
   22.7042   -7.9701  -14.0567 O   0  0  0  0  0  0  0  0  0  0  0  0
  2  1  1  6
  2  3  1  0
  4  5  1  1
  4  2  1  0
  6  4  1  0
  7  6  2  0
  8  9  1  0
 10 11  1  1
 10  9  1  0
 10 12  1  0
 12 13  1  6
 13  6  1  0
 14 12  1  0
 14 15  2  0
 16 14  1  0
 17 16  1  0
 17 18  1  1
 19 18  1  0
 20 19  1  0
 21 20  1  0
 22 21  1  0
 23 24  1  0
 23 17  1  0
 25 23  2  0
M  END
$$$$
