TIK.pdb
     RDKit          3D

 25 24  0  0  1  0  0  0  0  0999 V2000
   27.1355  -18.6391  -15.9747 C   0  0  0  0  0  0  0  0  0  0  0  0
   27.5542  -19.8878  -16.7358 C   0  0  1  0  0  0  0  0  0  0  0  0
   28.5530  -19.6061  -17.6418 O   0  0  0  0  0  0  0  0  0  0  0  0
   27.9506  -20.9164  -15.7185 C   0  0  2  0  0  0  0  0  0  0  0  0
   28.4903  -22.1060  -16.3143 N   0  0  0  0  0  0  0  0  0  0  0  0
   26.8327  -21.2881  -14.8104 C   0  0  0  0  0  0  0  0  0  0  0  0
   25.9491  -22.1187  -15.1839 O   0  0  0  0  0  0  0  0  0  0  0  0
   25.2520  -21.0815   -8.7599 C   0  0  0  0  0  0  0  0  0  0  0  0
   24.9025  -21.2801  -10.2004 C   0  0  0  0  0  0  0  0  0  0  0  0
   25.9595  -20.9700  -11.1842 C   0  0  2  0  0  0  0  0  0  0  0  0
   26.3437  -19.4960  -10.9711 C   0  0  0  0  0  0  0  0  0  0  0  0
   25.5835  -21.0992  -12.6204 C   0  0  2  0  0  0  0  0  0  0  0  0
   26.6821  -20.7563  -13.5049 N   0  0  0  0  0  0  0  0  0  0  0  0
   24.3416  -20.3696  -12.9613 C   0  0  0  0  0  0  0  0  0  0  0  0
   24.4644  -19.1164  -13.1234 O   0  0  0  0  0  0  0  0  0  0  0  0
   23.0851  -20.9575  -13.1102 N   0  0  0  0  0  0  0  0  0  0  0  0
   21.9634  -20.1064  -13.5289 C   0  0  1  0  0  0  0  0  0  0  0  0
   21.5397  -20.4626  -14.9398 C   0  0  0  0  0  0  0  0  0  0  0  0
   20.3673  -19.6650  -15.4210 C   0  0  0  0  0  0  0  0  0  0  0  0
   19.9227  -20.0879  -16.8010 C   0  0  0  0  0  0  0  0  0  0  0  0
   18.8543  -19.1645  -17.3143 C   0  0  0  0  0  0  0  0  0  0  0  0
   18.4458  -19.5457  -18.6444 N   0  0  0  0  0  0  0  0  0  0  0  0
   20.8723  -20.2743  -12.5386 C   0  0  0  0  0  0  0  0  0  0  0  0
   19.7606  -19.4534  -12.4450 O   0  0  0  0  0  0  0  0  0  0  0  0
   20.9025  -21.2260  -11.6825 O   0  0  0  0  0  0  0  0  0  0  0  0
  2  1  1  1
  2  3  1  0
  4  5  1  6
  4  2  1  0
  6  4  1  0
  7  6  2  0
  8  9  1  0
 10 11  1  6
 10  9  1  0
 10 12  1  0
 12 13  1  6
 13  6  1  0
 14 12  1  0
 14 15  2  0
 16 14  1  0
 17 16  1  0
 17 18  1  6
 19 18  1  0
 20 19  1  0
 21 20  1  0
 22 21  1  0
 23 24  1  0
 23 17  1  0
 25 23  2  0
M  END
$$$$
