TIK.pdb
     RDKit          3D

 25 24  0  0  1  0  0  0  0  0999 V2000
   27.3716  -24.8326  -19.3284 C   0  0  0  0  0  0  0  0  0  0  0  0
   26.5843  -23.9782  -18.3467 C   0  0  1  0  0  0  0  0  0  0  0  0
   25.4118  -24.5993  -17.9762 O   0  0  0  0  0  0  0  0  0  0  0  0
   27.4900  -23.6838  -17.1878 C   0  0  2  0  0  0  0  0  0  0  0  0
   27.9306  -24.8718  -16.5127 N   0  0  0  0  0  0  0  0  0  0  0  0
   26.8761  -22.7582  -16.1984 C   0  0  0  0  0  0  0  0  0  0  0  0
   26.5567  -23.1718  -15.0421 O   0  0  0  0  0  0  0  0  0  0  0  0
   28.4738  -17.5379  -15.9715 C   0  0  0  0  0  0  0  0  0  0  0  0
   27.9596  -18.8922  -15.5997 C   0  0  0  0  0  0  0  0  0  0  0  0
   26.4977  -19.0870  -15.6787 C   0  0  2  0  0  0  0  0  0  0  0  0
   25.8804  -18.2758  -14.5270 C   0  0  0  0  0  0  0  0  0  0  0  0
   26.0078  -20.4846  -15.5134 C   0  0  2  0  0  0  0  0  0  0  0  0
   26.6136  -21.3919  -16.4709 N   0  0  0  0  0  0  0  0  0  0  0  0
   24.5309  -20.5830  -15.5059 C   0  0  0  0  0  0  0  0  0  0  0  0
   23.9534  -20.3031  -16.6013 O   0  0  0  0  0  0  0  0  0  0  0  0
   23.7606  -20.9527  -14.4029 N   0  0  0  0  0  0  0  0  0  0  0  0
   22.3081  -21.0823  -14.5800 C   0  0  1  0  0  0  0  0  0  0  0  0
   21.7859  -22.2425  -13.7564 C   0  0  0  0  0  0  0  0  0  0  0  0
   20.3299  -22.5129  -13.9779 C   0  0  0  0  0  0  0  0  0  0  0  0
   19.7982  -23.5618  -13.0304 C   0  0  0  0  0  0  0  0  0  0  0  0
   18.3903  -23.9362  -13.3981 C   0  0  0  0  0  0  0  0  0  0  0  0
   17.9401  -25.0615  -12.6156 N   0  0  0  0  0  0  0  0  0  0  0  0
   21.6886  -19.7865  -14.2100 C   0  0  0  0  0  0  0  0  0  0  0  0
   20.5490  -19.2624  -14.7972 O   0  0  0  0  0  0  0  0  0  0  0  0
   22.1963  -19.0541  -13.2905 O   0  0  0  0  0  0  0  0  0  0  0  0
  2  1  1  6
  2  3  1  0
  4  5  1  1
  4  2  1  0
  6  4  1  0
  7  6  2  0
  8  9  1  0
 10 11  1  1
 10  9  1  0
 10 12  1  0
 12 13  1  6
 13  6  1  0
 14 12  1  0
 14 15  2  0
 16 14  1  0
 17 16  1  0
 17 18  1  1
 19 18  1  0
 20 19  1  0
 21 20  1  0
 22 21  1  0
 23 24  1  0
 23 17  1  0
 25 23  2  0
M  END
$$$$
