TIK.pdb
     RDKit          3D

 25 24  0  0  1  0  0  0  0  0999 V2000
   24.1307   -9.6940  -22.9951 C   0  0  0  0  0  0  0  0  0  0  0  0
   23.6714   -9.3946  -21.5763 C   0  0  1  0  0  0  0  0  0  0  0  0
   22.3745   -8.9301  -21.5613 O   0  0  0  0  0  0  0  0  0  0  0  0
   23.8606  -10.6477  -20.7740 C   0  0  2  0  0  0  0  0  0  0  0  0
   23.0672  -11.7417  -21.2591 N   0  0  0  0  0  0  0  0  0  0  0  0
   23.5875  -10.4501  -19.3252 C   0  0  0  0  0  0  0  0  0  0  0  0
   22.5060  -10.8697  -18.8111 O   0  0  0  0  0  0  0  0  0  0  0  0
   27.1732  -11.3872  -15.4007 C   0  0  0  0  0  0  0  0  0  0  0  0
   25.9113  -11.1614  -16.1709 C   0  0  0  0  0  0  0  0  0  0  0  0
   25.3778   -9.7842  -16.1736 C   0  0  2  0  0  0  0  0  0  0  0  0
   24.9183   -9.4850  -14.7366 C   0  0  0  0  0  0  0  0  0  0  0  0
   24.1978   -9.5348  -17.0489 C   0  0  2  0  0  0  0  0  0  0  0  0
   24.4892   -9.7992  -18.4460 N   0  0  0  0  0  0  0  0  0  0  0  0
   23.5990   -8.1965  -16.8454 C   0  0  0  0  0  0  0  0  0  0  0  0
   24.3030   -7.2125  -17.2301 O   0  0  0  0  0  0  0  0  0  0  0  0
   22.3482   -7.9594  -16.2747 N   0  0  0  0  0  0  0  0  0  0  0  0
   21.9014   -6.5675  -16.1299 C   0  0  1  0  0  0  0  0  0  0  0  0
   20.4598   -6.4355  -16.5786 C   0  0  0  0  0  0  0  0  0  0  0  0
   19.9133   -5.0525  -16.4029 C   0  0  0  0  0  0  0  0  0  0  0  0
   18.4424   -4.9782  -16.7368 C   0  0  0  0  0  0  0  0  0  0  0  0
   17.9508   -3.5623  -16.6310 C   0  0  0  0  0  0  0  0  0  0  0  0
   16.6261   -3.4385  -17.1887 N   0  0  0  0  0  0  0  0  0  0  0  0
   22.1046   -6.1706  -14.7155 C   0  0  0  0  0  0  0  0  0  0  0  0
   22.4576   -4.8983  -14.2976 O   0  0  0  0  0  0  0  0  0  0  0  0
   21.9586   -7.0189  -13.7674 O   0  0  0  0  0  0  0  0  0  0  0  0
  2  1  1  6
  2  3  1  0
  4  5  1  6
  4  2  1  0
  6  4  1  0
  7  6  2  0
  8  9  1  0
 10 11  1  1
 10  9  1  0
 10 12  1  0
 12 13  1  6
 13  6  1  0
 14 12  1  0
 14 15  2  0
 16 14  1  0
 17 16  1  0
 17 18  1  1
 19 18  1  0
 20 19  1  0
 21 20  1  0
 22 21  1  0
 23 24  1  0
 23 17  1  0
 25 23  2  0
M  END
$$$$
