TIK.pdb
     RDKit          3D

 25 24  0  0  1  0  0  0  0  0999 V2000
   21.8112  -10.0310  -20.4436 C   0  0  0  0  0  0  0  0  0  0  0  0
   21.2977  -11.4372  -20.1740 C   0  0  1  0  0  0  0  0  0  0  0  0
   20.9196  -12.0609  -21.3426 O   0  0  0  0  0  0  0  0  0  0  0  0
   22.3770  -12.1704  -19.4340 C   0  0  2  0  0  0  0  0  0  0  0  0
   22.0552  -13.5514  -19.2090 N   0  0  0  0  0  0  0  0  0  0  0  0
   22.7215  -11.5306  -18.1361 C   0  0  0  0  0  0  0  0  0  0  0  0
   22.0419  -11.7819  -17.0945 O   0  0  0  0  0  0  0  0  0  0  0  0
   27.6426  -11.5111  -16.0519 C   0  0  0  0  0  0  0  0  0  0  0  0
   26.1747  -11.4273  -16.3254 C   0  0  0  0  0  0  0  0  0  0  0  0
   25.5991  -10.0709  -16.4259 C   0  0  2  0  0  0  0  0  0  0  0  0
   25.8016   -9.4017  -15.0560 C   0  0  0  0  0  0  0  0  0  0  0  0
   24.1395   -9.9927  -16.7163 C   0  0  2  0  0  0  0  0  0  0  0  0
   23.7997  -10.6238  -17.9784 N   0  0  0  0  0  0  0  0  0  0  0  0
   23.6024   -8.6171  -16.6157 C   0  0  0  0  0  0  0  0  0  0  0  0
   24.1002   -7.7699  -17.4197 O   0  0  0  0  0  0  0  0  0  0  0  0
   22.6142   -8.2089  -15.7194 N   0  0  0  0  0  0  0  0  0  0  0  0
   22.1806   -6.8058  -15.7525 C   0  0  1  0  0  0  0  0  0  0  0  0
   20.7318   -6.7201  -16.1891 C   0  0  0  0  0  0  0  0  0  0  0  0
   20.1985   -5.3209  -16.1869 C   0  0  0  0  0  0  0  0  0  0  0  0
   18.7078   -5.2826  -16.4255 C   0  0  0  0  0  0  0  0  0  0  0  0
   18.2162   -3.8630  -16.4496 C   0  0  0  0  0  0  0  0  0  0  0  0
   16.7742   -3.8220  -16.4650 N   0  0  0  0  0  0  0  0  0  0  0  0
   22.4134   -6.2272  -14.4069 C   0  0  0  0  0  0  0  0  0  0  0  0
   22.6402   -4.8842  -14.1558 O   0  0  0  0  0  0  0  0  0  0  0  0
   22.4176   -6.9699  -13.3639 O   0  0  0  0  0  0  0  0  0  0  0  0
  2  1  1  6
  2  3  1  0
  4  5  1  1
  4  2  1  0
  6  4  1  0
  7  6  2  0
  8  9  1  0
 10 11  1  1
 10  9  1  0
 10 12  1  0
 12 13  1  6
 13  6  1  0
 14 12  1  0
 14 15  2  0
 16 14  1  0
 17 16  1  0
 17 18  1  1
 19 18  1  0
 20 19  1  0
 21 20  1  0
 22 21  1  0
 23 24  1  0
 23 17  1  0
 25 23  2  0
M  END
$$$$
