TIK.pdb
     RDKit          3D

 25 24  0  0  1  0  0  0  0  0999 V2000
   21.7385  -11.1267  -20.6393 C   0  0  0  0  0  0  0  0  0  0  0  0
   21.3723  -12.5290  -20.1777 C   0  0  1  0  0  0  0  0  0  0  0  0
   21.0435  -13.3341  -21.2461 O   0  0  0  0  0  0  0  0  0  0  0  0
   22.5294  -13.0501  -19.3779 C   0  0  2  0  0  0  0  0  0  0  0  0
   22.3724  -14.4288  -19.0093 N   0  0  0  0  0  0  0  0  0  0  0  0
   22.7938  -12.2441  -18.1561 C   0  0  0  0  0  0  0  0  0  0  0  0
   22.0913  -12.4085  -17.1123 O   0  0  0  0  0  0  0  0  0  0  0  0
   27.5922  -11.4385  -15.8085 C   0  0  0  0  0  0  0  0  0  0  0  0
   26.1459  -11.5497  -16.1724 C   0  0  0  0  0  0  0  0  0  0  0  0
   25.4652  -10.2975  -16.5597 C   0  0  2  0  0  0  0  0  0  0  0  0
   25.5297   -9.3632  -15.3396 C   0  0  0  0  0  0  0  0  0  0  0  0
   24.0239  -10.4134  -16.9202 C   0  0  2  0  0  0  0  0  0  0  0  0
   23.8175  -11.2667  -18.0761 N   0  0  0  0  0  0  0  0  0  0  0  0
   23.3568   -9.1003  -17.0673 C   0  0  0  0  0  0  0  0  0  0  0  0
   23.8130   -8.3490  -17.9833 O   0  0  0  0  0  0  0  0  0  0  0  0
   22.2915   -8.6534  -16.2849 N   0  0  0  0  0  0  0  0  0  0  0  0
   21.6652   -7.3701  -16.6292 C   0  0  1  0  0  0  0  0  0  0  0  0
   20.1564   -7.4917  -16.5537 C   0  0  0  0  0  0  0  0  0  0  0  0
   19.4474   -6.2034  -16.8360 C   0  0  0  0  0  0  0  0  0  0  0  0
   17.9473   -6.3505  -16.7438 C   0  0  0  0  0  0  0  0  0  0  0  0
   17.2676   -5.0837  -17.1807 C   0  0  0  0  0  0  0  0  0  0  0  0
   15.8398   -5.2728  -17.2644 N   0  0  0  0  0  0  0  0  0  0  0  0
   22.2080   -6.3396  -15.7110 C   0  0  0  0  0  0  0  0  0  0  0  0
   22.4666   -6.5414  -14.3655 O   0  0  0  0  0  0  0  0  0  0  0  0
   22.4767   -5.1604  -16.1318 O   0  0  0  0  0  0  0  0  0  0  0  0
  2  1  1  6
  2  3  1  0
  4  5  1  1
  4  2  1  0
  6  4  1  0
  7  6  2  0
  8  9  1  0
 10 11  1  1
 10  9  1  0
 10 12  1  0
 12 13  1  6
 13  6  1  0
 14 12  1  0
 14 15  2  0
 16 14  1  0
 17 16  1  0
 17 18  1  1
 19 18  1  0
 20 19  1  0
 21 20  1  0
 22 21  1  0
 23 24  1  0
 23 17  1  0
 25 23  2  0
M  END
$$$$
