TIK.pdb
     RDKit          3D

 25 24  0  0  1  0  0  0  0  0999 V2000
   16.6020  -13.3858  -17.4719 C   0  0  0  0  0  0  0  0  0  0  0  0
   17.0177  -12.3587  -16.4298 C   0  0  1  0  0  0  0  0  0  0  0  0
   16.3499  -12.5581  -15.2414 O   0  0  0  0  0  0  0  0  0  0  0  0
   18.5089  -12.4435  -16.2923 C   0  0  2  0  0  0  0  0  0  0  0  0
   18.9491  -13.7207  -15.8061 N   0  0  0  0  0  0  0  0  0  0  0  0
   19.0688  -11.3712  -15.4267 C   0  0  0  0  0  0  0  0  0  0  0  0
   19.3040  -11.5920  -14.1995 O   0  0  0  0  0  0  0  0  0  0  0  0
   23.2179   -8.2331  -16.9525 C   0  0  0  0  0  0  0  0  0  0  0  0
   22.1861   -8.9940  -16.1823 C   0  0  0  0  0  0  0  0  0  0  0  0
   20.9826   -8.2427  -15.7720 C   0  0  2  0  0  0  0  0  0  0  0  0
   21.4520   -7.1590  -14.7867 C   0  0  0  0  0  0  0  0  0  0  0  0
   19.9277   -9.0212  -15.0636 C   0  0  2  0  0  0  0  0  0  0  0  0
   19.3691  -10.0687  -15.8989 N   0  0  0  0  0  0  0  0  0  0  0  0
   18.8800   -8.1642  -14.4647 C   0  0  0  0  0  0  0  0  0  0  0  0
   17.9289   -7.8332  -15.2378 O   0  0  0  0  0  0  0  0  0  0  0  0
   18.8752   -7.7130  -13.1444 N   0  0  0  0  0  0  0  0  0  0  0  0
   17.6897   -6.9947  -12.6584 C   0  0  1  0  0  0  0  0  0  0  0  0
   17.2859   -7.5211  -11.2957 C   0  0  0  0  0  0  0  0  0  0  0  0
   16.1753   -6.7373  -10.6677 C   0  0  0  0  0  0  0  0  0  0  0  0
   15.8072   -7.2702   -9.3034 C   0  0  0  0  0  0  0  0  0  0  0  0
   14.6730   -6.4771   -8.7185 C   0  0  0  0  0  0  0  0  0  0  0  0
   14.2399   -7.0512   -7.4678 N   0  0  0  0  0  0  0  0  0  0  0  0
   18.0099   -5.5466  -12.6463 C   0  0  0  0  0  0  0  0  0  0  0  0
   17.0805   -4.5332  -12.8122 O   0  0  0  0  0  0  0  0  0  0  0  0
   19.2123   -5.1409  -12.4752 O   0  0  0  0  0  0  0  0  0  0  0  0
  2  1  1  6
  2  3  1  0
  4  5  1  1
  4  2  1  0
  6  4  1  0
  7  6  2  0
  8  9  1  0
 10 11  1  1
 10  9  1  0
 10 12  1  0
 12 13  1  6
 13  6  1  0
 14 12  1  0
 14 15  2  0
 16 14  1  0
 17 16  1  0
 17 18  1  1
 19 18  1  0
 20 19  1  0
 21 20  1  0
 22 21  1  0
 23 24  1  0
 23 17  1  0
 25 23  2  0
M  END
$$$$
