TIK.pdb
     RDKit          3D

 25 24  0  0  1  0  0  0  0  0999 V2000
   25.2340  -25.1568  -18.0950 C   0  0  0  0  0  0  0  0  0  0  0  0
   26.4474  -25.8547  -17.4999 C   0  0  1  0  0  0  0  0  0  0  0  0
   27.0292  -26.7056  -18.4139 O   0  0  0  0  0  0  0  0  0  0  0  0
   27.3789  -24.7861  -17.0097 C   0  0  2  0  0  0  0  0  0  0  0  0
   28.5525  -25.3204  -16.3784 N   0  0  0  0  0  0  0  0  0  0  0  0
   26.7185  -23.8278  -16.0833 C   0  0  0  0  0  0  0  0  0  0  0  0
   26.5976  -24.1038  -14.8507 O   0  0  0  0  0  0  0  0  0  0  0  0
   28.3152  -18.7815  -16.1034 C   0  0  0  0  0  0  0  0  0  0  0  0
   27.7230  -20.1028  -15.7288 C   0  0  0  0  0  0  0  0  0  0  0  0
   26.2565  -20.2270  -15.8525 C   0  0  2  0  0  0  0  0  0  0  0  0
   25.6426  -19.2827  -14.8051 C   0  0  0  0  0  0  0  0  0  0  0  0
   25.6830  -21.5760  -15.5844 C   0  0  2  0  0  0  0  0  0  0  0  0
   26.1948  -22.5784  -16.5009 N   0  0  0  0  0  0  0  0  0  0  0  0
   24.2040  -21.5746  -15.5252 C   0  0  0  0  0  0  0  0  0  0  0  0
   23.6081  -21.3122  -16.6150 O   0  0  0  0  0  0  0  0  0  0  0  0
   23.4501  -21.8358  -14.3806 N   0  0  0  0  0  0  0  0  0  0  0  0
   21.9856  -21.8001  -14.4882 C   0  0  1  0  0  0  0  0  0  0  0  0
   21.3657  -22.7049  -13.4422 C   0  0  0  0  0  0  0  0  0  0  0  0
   19.8710  -22.7541  -13.5181 C   0  0  0  0  0  0  0  0  0  0  0  0
   19.2682  -23.4883  -12.3441 C   0  0  0  0  0  0  0  0  0  0  0  0
   17.7679  -23.4534  -12.4173 C   0  0  0  0  0  0  0  0  0  0  0  0
   17.1851  -24.0055  -11.2186 N   0  0  0  0  0  0  0  0  0  0  0  0
   21.5554  -20.3869  -14.3575 C   0  0  0  0  0  0  0  0  0  0  0  0
   20.4906  -19.8216  -15.0393 O   0  0  0  0  0  0  0  0  0  0  0  0
   22.1718  -19.5820  -13.5753 O   0  0  0  0  0  0  0  0  0  0  0  0
  2  1  1  6
  2  3  1  0
  4  5  1  1
  4  2  1  0
  6  4  1  0
  7  6  2  0
  8  9  1  0
 10 11  1  1
 10  9  1  0
 10 12  1  0
 12 13  1  6
 13  6  1  0
 14 12  1  0
 14 15  2  0
 16 14  1  0
 17 16  1  0
 17 18  1  1
 19 18  1  0
 20 19  1  0
 21 20  1  0
 22 21  1  0
 23 24  1  0
 23 17  1  0
 25 23  2  0
M  END
$$$$
