TIK.pdb
     RDKit          3D

 25 24  0  0  1  0  0  0  0  0999 V2000
   27.5372  -18.4933  -13.8802 C   0  0  0  0  0  0  0  0  0  0  0  0
   28.2354  -19.6974  -14.4937 C   0  0  1  0  0  0  0  0  0  0  0  0
   29.1519  -19.3087  -15.4459 O   0  0  0  0  0  0  0  0  0  0  0  0
   28.8463  -20.4782  -13.3680 C   0  0  2  0  0  0  0  0  0  0  0  0
   29.6169  -21.5999  -13.8256 N   0  0  0  0  0  0  0  0  0  0  0  0
   27.8384  -20.9476  -12.3799 C   0  0  0  0  0  0  0  0  0  0  0  0
   27.1618  -21.9981  -12.6003 O   0  0  0  0  0  0  0  0  0  0  0  0
   27.9794  -19.4925   -6.9538 C   0  0  0  0  0  0  0  0  0  0  0  0
   27.7331  -20.2828   -8.1994 C   0  0  0  0  0  0  0  0  0  0  0  0
   26.5330  -19.9235   -8.9817 C   0  0  2  0  0  0  0  0  0  0  0  0
   25.3170  -20.4093   -8.1748 C   0  0  0  0  0  0  0  0  0  0  0  0
   26.4134  -20.5453  -10.3306 C   0  0  2  0  0  0  0  0  0  0  0  0
   27.5725  -20.2740  -11.1612 N   0  0  0  0  0  0  0  0  0  0  0  0
   25.1442  -20.2073  -11.0131 C   0  0  0  0  0  0  0  0  0  0  0  0
   24.9797  -18.9809  -11.2973 O   0  0  0  0  0  0  0  0  0  0  0  0
   24.1500  -21.1258  -11.3516 N   0  0  0  0  0  0  0  0  0  0  0  0
   23.0288  -20.6643  -12.1810 C   0  0  1  0  0  0  0  0  0  0  0  0
   22.8689  -21.5678  -13.3873 C   0  0  0  0  0  0  0  0  0  0  0  0
   21.6952  -21.2041  -14.2431 C   0  0  0  0  0  0  0  0  0  0  0  0
   21.4874  -22.1901  -15.3679 C   0  0  0  0  0  0  0  0  0  0  0  0
   20.3748  -21.7328  -16.2682 C   0  0  0  0  0  0  0  0  0  0  0  0
   20.2340  -22.6198  -17.3973 N   0  0  0  0  0  0  0  0  0  0  0  0
   21.8182  -20.6238  -11.3253 C   0  0  0  0  0  0  0  0  0  0  0  0
   20.6968  -19.8531  -11.5836 O   0  0  0  0  0  0  0  0  0  0  0  0
   21.7435  -21.3281  -10.2585 O   0  0  0  0  0  0  0  0  0  0  0  0
  2  1  1  1
  2  3  1  0
  4  5  1  6
  4  2  1  0
  6  4  1  0
  7  6  2  0
  8  9  1  0
 10 11  1  1
 10  9  1  0
 10 12  1  0
 12 13  1  6
 13  6  1  0
 14 12  1  0
 14 15  2  0
 16 14  1  0
 17 16  1  0
 17 18  1  6
 19 18  1  0
 20 19  1  0
 21 20  1  0
 22 21  1  0
 23 24  1  0
 23 17  1  0
 25 23  2  0
M  END
$$$$
