TIK.pdb
     RDKit          3D

 25 24  0  0  1  0  0  0  0  0999 V2000
   35.7934  -27.0549    5.5134 C   0  0  0  0  0  0  0  0  0  0  0  0
   37.2477  -26.6622    5.3023 C   0  0  1  0  0  0  0  0  0  0  0  0
   37.9042  -27.5879    4.5213 O   0  0  0  0  0  0  0  0  0  0  0  0
   37.2547  -25.2816    4.7159 C   0  0  2  0  0  0  0  0  0  0  0  0
   38.5751  -24.8287    4.3799 N   0  0  0  0  0  0  0  0  0  0  0  0
   36.6034  -24.2778    5.5995 C   0  0  0  0  0  0  0  0  0  0  0  0
   37.2659  -23.6998    6.5144 O   0  0  0  0  0  0  0  0  0  0  0  0
   32.0090  -21.4041    4.0219 C   0  0  0  0  0  0  0  0  0  0  0  0
   33.3187  -21.7663    4.6465 C   0  0  0  0  0  0  0  0  0  0  0  0
   33.2585  -22.5465    5.8991 C   0  0  2  0  0  0  0  0  0  0  0  0
   32.6841  -21.6105    6.9761 C   0  0  0  0  0  0  0  0  0  0  0  0
   34.5588  -23.0443    6.4302 C   0  0  2  0  0  0  0  0  0  0  0  0
   35.2394  -23.9092    5.4838 N   0  0  0  0  0  0  0  0  0  0  0  0
   34.4377  -23.6647    7.7687 C   0  0  0  0  0  0  0  0  0  0  0  0
   33.8132  -24.7692    7.8108 O   0  0  0  0  0  0  0  0  0  0  0  0
   34.9520  -23.1257    8.9484 N   0  0  0  0  0  0  0  0  0  0  0  0
   34.8512  -23.9211   10.1792 C   0  0  1  0  0  0  0  0  0  0  0  0
   36.2313  -24.3518   10.6338 C   0  0  0  0  0  0  0  0  0  0  0  0
   36.2230  -25.0513   11.9577 C   0  0  0  0  0  0  0  0  0  0  0  0
   37.6190  -25.3614   12.4432 C   0  0  0  0  0  0  0  0  0  0  0  0
   37.5678  -26.1231   13.7373 C   0  0  0  0  0  0  0  0  0  0  0  0
   38.8986  -26.4260   14.2047 N   0  0  0  0  0  0  0  0  0  0  0  0
   34.1391  -23.1031   11.1909 C   0  0  0  0  0  0  0  0  0  0  0  0
   33.6406  -23.5898   12.3879 O   0  0  0  0  0  0  0  0  0  0  0  0
   33.9394  -21.8524   11.0025 O   0  0  0  0  0  0  0  0  0  0  0  0
  2  1  1  6
  2  3  1  0
  4  5  1  1
  4  2  1  0
  6  4  1  0
  7  6  2  0
  8  9  1  0
 10 11  1  1
 10  9  1  0
 10 12  1  0
 12 13  1  6
 13  6  1  0
 14 12  1  0
 14 15  2  0
 16 14  1  0
 17 16  1  0
 17 18  1  1
 19 18  1  0
 20 19  1  0
 21 20  1  0
 22 21  1  0
 23 24  1  0
 23 17  1  0
 25 23  2  0
M  END
$$$$
