TIK.pdb
     RDKit          3D

 25 24  0  0  1  0  0  0  0  0999 V2000
   15.1223  -13.0736  -11.8946 C   0  0  0  0  0  0  0  0  0  0  0  0
   13.7766  -13.7336  -12.1539 C   0  0  1  0  0  0  0  0  0  0  0  0
   13.8545  -15.1000  -11.9962 O   0  0  0  0  0  0  0  0  0  0  0  0
   12.7806  -13.0878  -11.2369 C   0  0  2  0  0  0  0  0  0  0  0  0
   11.4661  -13.6517  -11.3606 N   0  0  0  0  0  0  0  0  0  0  0  0
   12.7000  -11.6140  -11.4212 C   0  0  0  0  0  0  0  0  0  0  0  0
   12.0247  -11.1208  -12.3755 O   0  0  0  0  0  0  0  0  0  0  0  0
   10.9685   -8.0618   -7.9175 C   0  0  0  0  0  0  0  0  0  0  0  0
   11.4418   -8.7727   -9.1452 C   0  0  0  0  0  0  0  0  0  0  0  0
   12.8416   -8.5305   -9.5490 C   0  0  2  0  0  0  0  0  0  0  0  0
   12.9577   -7.0296   -9.8645 C   0  0  0  0  0  0  0  0  0  0  0  0
   13.3117   -9.2498  -10.7666 C   0  0  2  0  0  0  0  0  0  0  0  0
   13.3522  -10.6873  -10.5694 N   0  0  0  0  0  0  0  0  0  0  0  0
   14.5894   -8.7208  -11.2941 C   0  0  0  0  0  0  0  0  0  0  0  0
   15.5785   -8.7732  -10.4999 O   0  0  0  0  0  0  0  0  0  0  0  0
   14.7662   -8.1852  -12.5702 N   0  0  0  0  0  0  0  0  0  0  0  0
   16.1170   -7.7684  -12.9695 C   0  0  1  0  0  0  0  0  0  0  0  0
   16.5048   -8.4414  -14.2710 C   0  0  0  0  0  0  0  0  0  0  0  0
   17.7855   -7.9191  -14.8445 C   0  0  0  0  0  0  0  0  0  0  0  0
   18.0802   -8.5097  -16.2028 C   0  0  0  0  0  0  0  0  0  0  0  0
   19.4221   -8.0478  -16.6963 C   0  0  0  0  0  0  0  0  0  0  0  0
   19.6386   -8.4706  -18.0586 N   0  0  0  0  0  0  0  0  0  0  0  0
   16.1270   -6.2881  -13.0595 C   0  0  0  0  0  0  0  0  0  0  0  0
   15.0044   -5.5044  -13.2683 O   0  0  0  0  0  0  0  0  0  0  0  0
   17.2194   -5.6301  -12.9445 O   0  0  0  0  0  0  0  0  0  0  0  0
  2  1  1  1
  2  3  1  0
  4  5  1  6
  4  2  1  0
  6  4  1  0
  7  6  2  0
  8  9  1  0
 10 11  1  6
 10  9  1  0
 10 12  1  0
 12 13  1  1
 13  6  1  0
 14 12  1  0
 14 15  2  0
 16 14  1  0
 17 16  1  0
 17 18  1  6
 19 18  1  0
 20 19  1  0
 21 20  1  0
 22 21  1  0
 23 24  1  0
 23 17  1  0
 25 23  2  0
M  END
$$$$
