TIK.pdb
     RDKit          3D

 25 24  0  0  1  0  0  0  0  0999 V2000
   15.2215   -8.5829  -15.3030 C   0  0  0  0  0  0  0  0  0  0  0  0
   15.4866  -10.0269  -15.7007 C   0  0  1  0  0  0  0  0  0  0  0  0
   14.9912  -10.2952  -16.9579 O   0  0  0  0  0  0  0  0  0  0  0  0
   16.9646  -10.2555  -15.5858 C   0  0  2  0  0  0  0  0  0  0  0  0
   17.3604  -11.5605  -16.0349 N   0  0  0  0  0  0  0  0  0  0  0  0
   17.4749  -10.0375  -14.2057 C   0  0  0  0  0  0  0  0  0  0  0  0
   17.2287  -10.8787  -13.2882 O   0  0  0  0  0  0  0  0  0  0  0  0
   22.5433   -8.6949  -12.8534 C   0  0  0  0  0  0  0  0  0  0  0  0
   21.1189   -9.1472  -12.9114 C   0  0  0  0  0  0  0  0  0  0  0  0
   20.1039   -8.1941  -12.4187 C   0  0  2  0  0  0  0  0  0  0  0  0
   20.4181   -7.9410  -10.9345 C   0  0  0  0  0  0  0  0  0  0  0  0
   18.6868   -8.6520  -12.4725 C   0  0  2  0  0  0  0  0  0  0  0  0
   18.2479   -8.9094  -13.8319 N   0  0  0  0  0  0  0  0  0  0  0  0
   17.7608   -7.7549  -11.7456 C   0  0  0  0  0  0  0  0  0  0  0  0
   17.5925   -6.6045  -12.2556 O   0  0  0  0  0  0  0  0  0  0  0  0
   17.0839   -8.0868  -10.5716 N   0  0  0  0  0  0  0  0  0  0  0  0
   16.0682   -7.1539  -10.0659 C   0  0  1  0  0  0  0  0  0  0  0  0
   14.9555   -7.9199   -9.3788 C   0  0  0  0  0  0  0  0  0  0  0  0
   13.9326   -7.0292   -8.7445 C   0  0  0  0  0  0  0  0  0  0  0  0
   12.9087   -7.8129   -7.9582 C   0  0  0  0  0  0  0  0  0  0  0  0
   11.9167   -6.8847   -7.3165 C   0  0  0  0  0  0  0  0  0  0  0  0
   10.9887   -7.6198   -6.4920 N   0  0  0  0  0  0  0  0  0  0  0  0
   16.7461   -6.1893   -9.1661 C   0  0  0  0  0  0  0  0  0  0  0  0
   17.9026   -6.4569   -8.4526 O   0  0  0  0  0  0  0  0  0  0  0  0
   16.2780   -5.0099   -8.9946 O   0  0  0  0  0  0  0  0  0  0  0  0
  2  1  1  6
  2  3  1  0
  4  5  1  1
  4  2  1  0
  6  4  1  0
  7  6  2  0
  8  9  1  0
 10 11  1  1
 10  9  1  0
 10 12  1  0
 12 13  1  6
 13  6  1  0
 14 12  1  0
 14 15  2  0
 16 14  1  0
 17 16  1  0
 17 18  1  1
 19 18  1  0
 20 19  1  0
 21 20  1  0
 22 21  1  0
 23 24  1  0
 23 17  1  0
 25 23  2  0
M  END
$$$$
