DAH.pdb
     RDKit          3D

 24 24  0  0  1  0  0  0  0  0999 V2000
    7.9237  -15.9275   15.9688 N   0  0  0  0  0  0  0  0  0  0  0  0
    9.3058  -16.1120   16.3504 C   0  0  1  0  0  0  0  0  0  0  0  0
   10.1566  -15.7861   15.1528 C   0  0  0  0  0  0  0  0  0  0  0  0
    9.6978  -16.5980   14.0104 C   0  0  0  0  0  0  0  0  0  0  0  0
    9.4979  -17.8209   14.1696 O   0  0  0  0  0  0  0  0  0  0  0  0
    9.6366  -15.2820   17.5257 C   0  0  0  0  0  0  0  0  0  0  0  0
   10.8259  -15.2373   17.9328 O   0  0  0  0  0  0  0  0  0  0  0  0
    9.4771  -16.0556   12.7558 O   0  0  0  0  0  0  0  0  0  0  0  0
    7.7301  -12.8915   19.7737 C   0  0  0  0  0  0  0  0  0  0  0  0
    8.8568  -13.8648   19.4578 C   0  0  2  0  0  0  0  0  0  0  0  0
    8.6613  -14.5342   18.2110 N   0  0  0  0  0  0  0  0  0  0  0  0
    8.8537  -14.8793   20.5447 C   0  0  0  0  0  0  0  0  0  0  0  0
    7.7750  -15.3808   20.9607 O   0  0  0  0  0  0  0  0  0  0  0  0
   10.0420  -15.3331   21.1646 N   0  0  0  0  0  0  0  0  0  0  0  0
   10.0570  -16.3738   22.1983 C   0  0  1  0  0  0  0  0  0  0  0  0
   10.9420  -17.4656   21.6380 C   0  0  0  0  0  0  0  0  0  0  0  0
   10.2812  -18.1480   20.5193 C   0  0  0  0  0  0  0  0  0  0  0  0
    9.0752  -18.8097   20.6551 C   0  0  0  0  0  0  0  0  0  0  0  0
    8.7748  -19.3061   19.4518 N   0  0  0  0  0  0  0  0  0  0  0  0
    9.7485  -18.9745   18.5860 C   0  0  0  0  0  0  0  0  0  0  0  0
   10.6718  -18.2622   19.2493 N   0  0  0  0  0  0  0  0  0  0  0  0
   10.6561  -15.8877   23.4472 C   0  0  0  0  0  0  0  0  0  0  0  0
   10.5961  -16.5137   24.6577 O   0  0  0  0  0  0  0  0  0  0  0  0
   11.2905  -14.7820   23.4041 O   0  0  0  0  0  0  0  0  0  0  0  0
  2  1  1  6
  2  3  1  0
  3  4  1  0
  4  8  1  0
  5  4  2  0
  6 11  1  0
  6  2  1  0
  7  6  2  0
 10  9  1  1
 10 12  1  0
 10 11  1  0
 12 14  1  0
 13 12  2  0
 14 15  1  0
 15 22  1  0
 15 16  1  6
 17 16  1  0
 17 18  2  0
 19 18  1  0
 20 19  1  0
 21 20  2  0
 21 17  1  0
 22 23  1  0
 24 22  2  0
M  END
$$$$
