DAH.pdb
     RDKit          3D

 24 24  0  0  1  0  0  0  0  0999 V2000
    9.5968  -18.6903   15.2195 N   0  0  0  0  0  0  0  0  0  0  0  0
   10.5949  -18.6142   16.2625 C   0  0  1  0  0  0  0  0  0  0  0  0
   11.5774  -17.5420   15.8758 C   0  0  0  0  0  0  0  0  0  0  0  0
   12.3445  -18.0026   14.7035 C   0  0  0  0  0  0  0  0  0  0  0  0
   12.6315  -19.2138   14.5972 O   0  0  0  0  0  0  0  0  0  0  0  0
    9.9614  -18.3597   17.5715 C   0  0  0  0  0  0  0  0  0  0  0  0
    9.0822  -17.4652   17.6664 O   0  0  0  0  0  0  0  0  0  0  0  0
   12.7641  -17.1395   13.7056 O   0  0  0  0  0  0  0  0  0  0  0  0
    9.9738  -20.1793   20.8931 C   0  0  0  0  0  0  0  0  0  0  0  0
    9.6519  -18.9975   19.9895 C   0  0  2  0  0  0  0  0  0  0  0  0
   10.3093  -19.0876   18.7243 N   0  0  0  0  0  0  0  0  0  0  0  0
   10.1443  -17.7836   20.6928 C   0  0  0  0  0  0  0  0  0  0  0  0
   11.3230  -17.3704   20.5253 O   0  0  0  0  0  0  0  0  0  0  0  0
    9.3315  -17.0344   21.5762 N   0  0  0  0  0  0  0  0  0  0  0  0
    9.8096  -15.8431   22.2859 C   0  0  1  0  0  0  0  0  0  0  0  0
    8.6081  -14.9266   22.3606 C   0  0  0  0  0  0  0  0  0  0  0  0
    8.3625  -14.2843   21.0641 C   0  0  0  0  0  0  0  0  0  0  0  0
    9.1767  -14.4840   19.9651 C   0  0  0  0  0  0  0  0  0  0  0  0
    8.6623  -13.7543   18.9714 N   0  0  0  0  0  0  0  0  0  0  0  0
    7.5664  -13.1165   19.4188 C   0  0  0  0  0  0  0  0  0  0  0  0
    7.3879  -13.4471   20.7067 N   0  0  0  0  0  0  0  0  0  0  0  0
   10.2340  -16.1623   23.6545 C   0  0  0  0  0  0  0  0  0  0  0  0
   10.0878  -17.3685   24.2746 O   0  0  0  0  0  0  0  0  0  0  0  0
   10.7894  -15.2338   24.3300 O   0  0  0  0  0  0  0  0  0  0  0  0
  2  1  1  6
  2  3  1  0
  3  4  1  0
  4  8  1  0
  5  4  2  0
  6 11  1  0
  6  2  1  0
  7  6  2  0
 10  9  1  1
 10 12  1  0
 10 11  1  0
 12 14  1  0
 13 12  2  0
 14 15  1  0
 15 22  1  0
 15 16  1  1
 17 16  1  0
 17 18  2  0
 19 18  1  0
 20 19  1  0
 21 20  2  0
 21 17  1  0
 22 23  1  0
 24 22  2  0
M  END
$$$$
