DAH.pdb
     RDKit          3D

 24 24  0  0  1  0  0  0  0  0999 V2000
    8.8909  -18.1661   19.5078 N   0  0  0  0  0  0  0  0  0  0  0  0
   10.0316  -17.4790   20.0705 C   0  0  1  0  0  0  0  0  0  0  0  0
   10.9141  -17.0507   18.9293 C   0  0  0  0  0  0  0  0  0  0  0  0
   11.3449  -18.2500   18.1872 C   0  0  0  0  0  0  0  0  0  0  0  0
   11.4326  -19.3423   18.7873 O   0  0  0  0  0  0  0  0  0  0  0  0
    9.5948  -16.3446   20.9083 C   0  0  0  0  0  0  0  0  0  0  0  0
   10.4587  -15.6478   21.5001 O   0  0  0  0  0  0  0  0  0  0  0  0
   11.6593  -18.2155   16.8394 O   0  0  0  0  0  0  0  0  0  0  0  0
    6.3035  -14.5608   21.4692 C   0  0  0  0  0  0  0  0  0  0  0  0
    7.7375  -14.9161   21.8353 C   0  0  2  0  0  0  0  0  0  0  0  0
    8.2367  -16.0135   21.0688 N   0  0  0  0  0  0  0  0  0  0  0  0
    7.7207  -15.3095   23.2689 C   0  0  0  0  0  0  0  0  0  0  0  0
    7.1062  -14.6175   24.1243 O   0  0  0  0  0  0  0  0  0  0  0  0
    8.3828  -16.4647   23.7482 N   0  0  0  0  0  0  0  0  0  0  0  0
    8.3096  -16.9061   25.1451 C   0  0  1  0  0  0  0  0  0  0  0  0
    7.3369  -18.0650   25.1362 C   0  0  0  0  0  0  0  0  0  0  0  0
    7.2589  -18.6887   26.4623 C   0  0  0  0  0  0  0  0  0  0  0  0
    7.9166  -18.1808   27.5668 C   0  0  0  0  0  0  0  0  0  0  0  0
    7.6258  -18.9896   28.5895 N   0  0  0  0  0  0  0  0  0  0  0  0
    6.8168  -19.9715   28.1545 C   0  0  0  0  0  0  0  0  0  0  0  0
    6.5952  -19.7803   26.8452 N   0  0  0  0  0  0  0  0  0  0  0  0
    9.6072  -17.3947   25.6272 C   0  0  0  0  0  0  0  0  0  0  0  0
    9.9366  -17.6330   26.9294 O   0  0  0  0  0  0  0  0  0  0  0  0
   10.5122  -17.6180   24.7566 O   0  0  0  0  0  0  0  0  0  0  0  0
  2  1  1  6
  2  3  1  0
  3  4  1  0
  4  8  1  0
  5  4  2  0
  6 11  1  0
  6  2  1  0
  7  6  2  0
 10  9  1  6
 10 12  1  0
 10 11  1  0
 12 14  1  0
 13 12  2  0
 14 15  1  0
 15 22  1  0
 15 16  1  6
 17 16  1  0
 17 18  2  0
 19 18  1  0
 20 19  1  0
 21 20  2  0
 21 17  1  0
 22 23  1  0
 24 22  2  0
M  END
$$$$
