DAH.pdb
     RDKit          3D

 24 24  0  0  1  0  0  0  0  0999 V2000
    7.8194  -19.4475   18.4941 N   0  0  0  0  0  0  0  0  0  0  0  0
    8.8562  -18.8098   19.2739 C   0  0  1  0  0  0  0  0  0  0  0  0
    9.1654  -17.4872   18.6259 C   0  0  0  0  0  0  0  0  0  0  0  0
    9.7304  -17.7362   17.2867 C   0  0  0  0  0  0  0  0  0  0  0  0
   10.2900  -18.8282   17.0518 O   0  0  0  0  0  0  0  0  0  0  0  0
    8.4359  -18.6685   20.6821 C   0  0  0  0  0  0  0  0  0  0  0  0
    7.7261  -17.6856   21.0171 O   0  0  0  0  0  0  0  0  0  0  0  0
    9.6657  -16.8004   16.2685 O   0  0  0  0  0  0  0  0  0  0  0  0
    8.5442  -20.8984   23.7326 C   0  0  0  0  0  0  0  0  0  0  0  0
    8.4190  -19.5469   23.0438 C   0  0  2  0  0  0  0  0  0  0  0  0
    8.8041  -19.6013   21.6691 N   0  0  0  0  0  0  0  0  0  0  0  0
    9.3412  -18.6240   23.7569 C   0  0  0  0  0  0  0  0  0  0  0  0
   10.5472  -18.5147   23.4080 O   0  0  0  0  0  0  0  0  0  0  0  0
    8.9250  -17.8282   24.8504 N   0  0  0  0  0  0  0  0  0  0  0  0
    9.8353  -16.9469   25.5895 C   0  0  1  0  0  0  0  0  0  0  0  0
    9.0133  -15.7169   25.9068 C   0  0  0  0  0  0  0  0  0  0  0  0
    8.6083  -15.0300   24.6747 C   0  0  0  0  0  0  0  0  0  0  0  0
    9.2040  -15.2757   23.4519 C   0  0  0  0  0  0  0  0  0  0  0  0
    8.5939  -14.4851   22.5646 N   0  0  0  0  0  0  0  0  0  0  0  0
    7.6493  -13.7661   23.1958 C   0  0  0  0  0  0  0  0  0  0  0  0
    7.6636  -14.1063   24.4934 N   0  0  0  0  0  0  0  0  0  0  0  0
   10.2677  -17.5535   26.8545 C   0  0  0  0  0  0  0  0  0  0  0  0
   11.2258  -17.0590   27.6903 O   0  0  0  0  0  0  0  0  0  0  0  0
    9.7018  -18.6399   27.2099 O   0  0  0  0  0  0  0  0  0  0  0  0
  2  1  1  6
  2  3  1  0
  3  4  1  0
  4  8  1  0
  5  4  2  0
  6 11  1  0
  6  2  1  0
  7  6  2  0
 10  9  1  1
 10 12  1  0
 10 11  1  0
 12 14  1  0
 13 12  2  0
 14 15  1  0
 15 22  1  0
 15 16  1  1
 17 16  1  0
 17 18  2  0
 19 18  1  0
 20 19  1  0
 21 20  2  0
 21 17  1  0
 22 23  1  0
 24 22  2  0
M  END
$$$$
