DAH.pdb
     RDKit          3D

 24 24  0  0  1  0  0  0  0  0999 V2000
    9.4081  -16.8645   19.3402 N   0  0  0  0  0  0  0  0  0  0  0  0
   10.6471  -17.1844   20.0128 C   0  0  1  0  0  0  0  0  0  0  0  0
   11.7742  -16.6560   19.1673 C   0  0  0  0  0  0  0  0  0  0  0  0
   11.6549  -17.2220   17.8108 C   0  0  0  0  0  0  0  0  0  0  0  0
   11.1482  -18.3543   17.6625 O   0  0  0  0  0  0  0  0  0  0  0  0
   10.6546  -16.6302   21.3812 C   0  0  0  0  0  0  0  0  0  0  0  0
   11.7432  -16.5474   22.0058 O   0  0  0  0  0  0  0  0  0  0  0  0
   12.0854  -16.5438   16.6833 O   0  0  0  0  0  0  0  0  0  0  0  0
    8.0438  -15.0304   23.6300 C   0  0  0  0  0  0  0  0  0  0  0  0
    9.4033  -15.6482   23.3355 C   0  0  2  0  0  0  0  0  0  0  0  0
    9.4787  -16.1885   22.0151 N   0  0  0  0  0  0  0  0  0  0  0  0
    9.5822  -16.7563   24.3106 C   0  0  0  0  0  0  0  0  0  0  0  0
    8.8355  -17.7711   24.2833 O   0  0  0  0  0  0  0  0  0  0  0  0
   10.5846  -16.7359   25.3092 N   0  0  0  0  0  0  0  0  0  0  0  0
   10.6999  -17.7662   26.3469 C   0  0  1  0  0  0  0  0  0  0  0  0
   12.1589  -18.1666   26.3368 C   0  0  0  0  0  0  0  0  0  0  0  0
   12.4972  -18.8676   25.0926 C   0  0  0  0  0  0  0  0  0  0  0  0
   11.6841  -19.8372   24.5363 C   0  0  0  0  0  0  0  0  0  0  0  0
   12.2944  -20.2546   23.4237 N   0  0  0  0  0  0  0  0  0  0  0  0
   13.4478  -19.5793   23.2775 C   0  0  0  0  0  0  0  0  0  0  0  0
   13.5662  -18.7278   24.3075 N   0  0  0  0  0  0  0  0  0  0  0  0
   10.3751  -17.2345   27.6761 C   0  0  0  0  0  0  0  0  0  0  0  0
   10.3079  -17.9581   28.8305 O   0  0  0  0  0  0  0  0  0  0  0  0
   10.1327  -15.9856   27.7671 O   0  0  0  0  0  0  0  0  0  0  0  0
  2  1  1  6
  2  3  1  0
  3  4  1  0
  4  8  1  0
  5  4  2  0
  6 11  1  0
  6  2  1  0
  7  6  2  0
 10  9  1  1
 10 12  1  0
 10 11  1  0
 12 14  1  0
 13 12  2  0
 14 15  1  0
 15 22  1  0
 15 16  1  1
 17 16  1  0
 17 18  2  0
 19 18  1  0
 20 19  1  0
 21 20  2  0
 21 17  1  0
 22 23  1  0
 24 22  2  0
M  END
$$$$
