DAH.pdb
     RDKit          3D

 24 24  0  0  1  0  0  0  0  0999 V2000
   10.5536  -18.8605   14.7130 N   0  0  0  0  0  0  0  0  0  0  0  0
   11.0863  -17.9583   15.7090 C   0  0  1  0  0  0  0  0  0  0  0  0
   11.1333  -16.5832   15.0996 C   0  0  0  0  0  0  0  0  0  0  0  0
   12.1670  -16.5659   14.0480 C   0  0  0  0  0  0  0  0  0  0  0  0
   13.0779  -17.4206   14.0711 O   0  0  0  0  0  0  0  0  0  0  0  0
   10.2754  -18.0065   16.9418 C   0  0  0  0  0  0  0  0  0  0  0  0
    9.0343  -17.8148   16.8702 O   0  0  0  0  0  0  0  0  0  0  0  0
   12.1700  -15.6322   13.0258 O   0  0  0  0  0  0  0  0  0  0  0  0
   10.6338  -19.4381   20.3418 C   0  0  0  0  0  0  0  0  0  0  0  0
   10.1311  -18.3217   19.4376 C   0  0  2  0  0  0  0  0  0  0  0  0
   10.8463  -18.2610   18.2024 N   0  0  0  0  0  0  0  0  0  0  0  0
   10.3532  -17.0502   20.1755 C   0  0  0  0  0  0  0  0  0  0  0  0
   11.4470  -16.4308   20.0856 O   0  0  0  0  0  0  0  0  0  0  0  0
    9.3658  -16.4715   21.0076 N   0  0  0  0  0  0  0  0  0  0  0  0
    9.5581  -15.1976   21.7088 C   0  0  1  0  0  0  0  0  0  0  0  0
    8.2772  -14.4273   21.4740 C   0  0  0  0  0  0  0  0  0  0  0  0
    8.1064  -14.1243   20.0483 C   0  0  0  0  0  0  0  0  0  0  0  0
    8.5806  -12.9621   19.4693 C   0  0  0  0  0  0  0  0  0  0  0  0
    8.2522  -13.0188   18.1757 N   0  0  0  0  0  0  0  0  0  0  0  0
    7.5964  -14.1687   17.9405 C   0  0  0  0  0  0  0  0  0  0  0  0
    7.5103  -14.8438   19.0967 N   0  0  0  0  0  0  0  0  0  0  0  0
    9.7213  -15.3946   23.1544 C   0  0  0  0  0  0  0  0  0  0  0  0
   10.1224  -14.4459   24.0489 O   0  0  0  0  0  0  0  0  0  0  0  0
    9.4676  -16.5535   23.6226 O   0  0  0  0  0  0  0  0  0  0  0  0
  2  1  1  6
  2  3  1  0
  3  4  1  0
  4  8  1  0
  5  4  2  0
  6 11  1  0
  6  2  1  0
  7  6  2  0
 10  9  1  1
 10 12  1  0
 10 11  1  0
 12 14  1  0
 13 12  2  0
 14 15  1  0
 15 22  1  0
 15 16  1  1
 17 16  1  0
 17 18  2  0
 19 18  1  0
 20 19  1  0
 21 20  2  0
 21 17  1  0
 22 23  1  0
 24 22  2  0
M  END
$$$$
