DAH.pdb
     RDKit          3D

 24 24  0  0  1  0  0  0  0  0999 V2000
    7.0228  -17.6099   18.7010 N   0  0  0  0  0  0  0  0  0  0  0  0
    8.4645  -17.5633   18.6063 C   0  0  1  0  0  0  0  0  0  0  0  0
    8.8398  -17.9124   17.1914 C   0  0  0  0  0  0  0  0  0  0  0  0
    8.1804  -19.1795   16.8251 C   0  0  0  0  0  0  0  0  0  0  0  0
    7.2447  -19.1656   15.9973 O   0  0  0  0  0  0  0  0  0  0  0  0
    8.9708  -16.2391   19.0186 C   0  0  0  0  0  0  0  0  0  0  0  0
   10.2074  -16.0127   18.9776 O   0  0  0  0  0  0  0  0  0  0  0  0
    8.5591  -20.3964   17.3660 O   0  0  0  0  0  0  0  0  0  0  0  0
    7.3726  -12.9209   19.9048 C   0  0  0  0  0  0  0  0  0  0  0  0
    8.5253  -13.9147   19.8835 C   0  0  2  0  0  0  0  0  0  0  0  0
    8.1124  -15.2147   19.4587 N   0  0  0  0  0  0  0  0  0  0  0  0
    9.0245  -14.0102   21.2807 C   0  0  0  0  0  0  0  0  0  0  0  0
    9.5834  -13.0280   21.8383 O   0  0  0  0  0  0  0  0  0  0  0  0
    8.9030  -15.1900   22.0525 N   0  0  0  0  0  0  0  0  0  0  0  0
    9.3951  -15.2980   23.4301 C   0  0  1  0  0  0  0  0  0  0  0  0
    8.1822  -15.6864   24.2470 C   0  0  0  0  0  0  0  0  0  0  0  0
    7.4988  -14.4943   24.7623 C   0  0  0  0  0  0  0  0  0  0  0  0
    7.9583  -13.2112   24.5317 C   0  0  0  0  0  0  0  0  0  0  0  0
    7.1030  -12.3845   25.1397 N   0  0  0  0  0  0  0  0  0  0  0  0
    6.1392  -13.1106   25.7327 C   0  0  0  0  0  0  0  0  0  0  0  0
    6.3889  -14.4074   25.4966 N   0  0  0  0  0  0  0  0  0  0  0  0
   10.4019  -16.3580   23.5637 C   0  0  0  0  0  0  0  0  0  0  0  0
   11.1134  -16.6453   24.6916 O   0  0  0  0  0  0  0  0  0  0  0  0
   10.6376  -17.0783   22.5378 O   0  0  0  0  0  0  0  0  0  0  0  0
  2  1  1  6
  2  3  1  0
  3  4  1  0
  4  8  1  0
  5  4  2  0
  6 11  1  0
  6  2  1  0
  7  6  2  0
 10  9  1  1
 10 12  1  0
 10 11  1  0
 12 14  1  0
 13 12  2  0
 14 15  1  0
 15 22  1  0
 15 16  1  1
 17 16  1  0
 17 18  2  0
 19 18  1  0
 20 19  1  0
 21 20  2  0
 21 17  1  0
 22 23  1  0
 24 22  2  0
M  END
$$$$
