DAH.pdb
     RDKit          3D

 24 24  0  0  1  0  0  0  0  0999 V2000
    8.1169  -14.5396   14.1142 N   0  0  0  0  0  0  0  0  0  0  0  0
    8.0753  -15.3334   15.3217 C   0  0  1  0  0  0  0  0  0  0  0  0
    8.6938  -16.6694   15.0102 C   0  0  0  0  0  0  0  0  0  0  0  0
    7.8243  -17.3835   14.0569 C   0  0  0  0  0  0  0  0  0  0  0  0
    8.0993  -17.3558   12.8385 O   0  0  0  0  0  0  0  0  0  0  0  0
    8.7589  -14.6344   16.4280 C   0  0  0  0  0  0  0  0  0  0  0  0
    9.9777  -14.3452   16.3137 O   0  0  0  0  0  0  0  0  0  0  0  0
    6.7046  -18.0907   14.4602 O   0  0  0  0  0  0  0  0  0  0  0  0
    7.6780  -13.2912   19.8190 C   0  0  0  0  0  0  0  0  0  0  0  0
    8.6990  -13.6815   18.7598 C   0  0  2  0  0  0  0  0  0  0  0  0
    8.0901  -14.2782   17.6135 N   0  0  0  0  0  0  0  0  0  0  0  0
    9.5993  -14.6820   19.3916 C   0  0  0  0  0  0  0  0  0  0  0  0
    9.3145  -15.9096   19.3794 O   0  0  0  0  0  0  0  0  0  0  0  0
   10.8078  -14.3199   20.0325 N   0  0  0  0  0  0  0  0  0  0  0  0
   11.6661  -15.2871   20.7248 C   0  0  1  0  0  0  0  0  0  0  0  0
   13.0180  -14.6134   20.8136 C   0  0  0  0  0  0  0  0  0  0  0  0
   13.7321  -14.7097   19.5352 C   0  0  0  0  0  0  0  0  0  0  0  0
   13.3335  -15.5573   18.5186 C   0  0  0  0  0  0  0  0  0  0  0  0
   14.2013  -15.3867   17.5173 N   0  0  0  0  0  0  0  0  0  0  0  0
   15.1142  -14.4690   17.8809 C   0  0  0  0  0  0  0  0  0  0  0  0
   14.8196  -14.0569   19.1232 N   0  0  0  0  0  0  0  0  0  0  0  0
   11.1913  -15.5535   22.0881 C   0  0  0  0  0  0  0  0  0  0  0  0
   11.6702  -16.5178   22.9258 O   0  0  0  0  0  0  0  0  0  0  0  0
   10.2469  -14.8224   22.5356 O   0  0  0  0  0  0  0  0  0  0  0  0
  2  1  1  6
  2  3  1  0
  3  4  1  0
  4  8  1  0
  5  4  2  0
  6 11  1  0
  6  2  1  0
  7  6  2  0
 10  9  1  1
 10 12  1  0
 10 11  1  0
 12 14  1  0
 13 12  2  0
 14 15  1  0
 15 22  1  0
 15 16  1  1
 17 16  1  0
 17 18  2  0
 19 18  1  0
 20 19  1  0
 21 20  2  0
 21 17  1  0
 22 23  1  0
 24 22  2  0
M  END
$$$$
