DAH.pdb
     RDKit          3D

 24 24  0  0  1  0  0  0  0  0999 V2000
    9.4509  -14.8390   14.6510 N   0  0  0  0  0  0  0  0  0  0  0  0
    8.7759  -15.7332   15.5646 C   0  0  1  0  0  0  0  0  0  0  0  0
    9.2332  -17.1327   15.2537 C   0  0  0  0  0  0  0  0  0  0  0  0
    8.7932  -17.4833   13.8905 C   0  0  0  0  0  0  0  0  0  0  0  0
    9.4934  -17.1404   12.9143 O   0  0  0  0  0  0  0  0  0  0  0  0
    9.0421  -15.3458   16.9641 C   0  0  0  0  0  0  0  0  0  0  0  0
    9.9640  -15.9212   17.5975 O   0  0  0  0  0  0  0  0  0  0  0  0
    7.6245  -18.1837   13.6452 O   0  0  0  0  0  0  0  0  0  0  0  0
    7.5388  -12.7984   19.3598 C   0  0  0  0  0  0  0  0  0  0  0  0
    8.5133  -13.8955   18.9558 C   0  0  2  0  0  0  0  0  0  0  0  0
    8.2956  -14.3486   17.6185 N   0  0  0  0  0  0  0  0  0  0  0  0
    8.2761  -15.0321   19.8845 C   0  0  0  0  0  0  0  0  0  0  0  0
    7.8059  -16.1240   19.4665 O   0  0  0  0  0  0  0  0  0  0  0  0
    8.5598  -14.9549   21.2687 N   0  0  0  0  0  0  0  0  0  0  0  0
    9.3393  -15.9718   21.9826 C   0  0  1  0  0  0  0  0  0  0  0  0
   10.7061  -15.9399   21.3344 C   0  0  0  0  0  0  0  0  0  0  0  0
   11.5626  -17.0024   21.8742 C   0  0  0  0  0  0  0  0  0  0  0  0
   11.1014  -17.9542   22.7642 C   0  0  0  0  0  0  0  0  0  0  0  0
   12.1367  -18.7521   23.0399 N   0  0  0  0  0  0  0  0  0  0  0  0
   13.2121  -18.3265   22.3543 C   0  0  0  0  0  0  0  0  0  0  0  0
   12.8518  -17.2499   21.6394 N   0  0  0  0  0  0  0  0  0  0  0  0
    9.4932  -15.6370   23.4037 C   0  0  0  0  0  0  0  0  0  0  0  0
    9.0418  -14.5011   24.0094 O   0  0  0  0  0  0  0  0  0  0  0  0
   10.1024  -16.4784   24.1438 O   0  0  0  0  0  0  0  0  0  0  0  0
  2  1  1  6
  2  3  1  0
  3  4  1  0
  4  8  1  0
  5  4  2  0
  6 11  1  0
  6  2  1  0
  7  6  2  0
 10  9  1  1
 10 12  1  0
 10 11  1  0
 12 14  1  0
 13 12  2  0
 14 15  1  0
 15 22  1  0
 15 16  1  6
 17 16  1  0
 17 18  2  0
 19 18  1  0
 20 19  1  0
 21 20  2  0
 21 17  1  0
 22 23  1  0
 24 22  2  0
M  END
$$$$
