GYF.pdb
     RDKit          3D

 28 29  0  0  1  0  0  0  0  0999 V2000
   25.6117  -25.1688  -15.3354 N   0  0  0  0  0  0  0  0  0  0  0  0
   25.2555  -23.8479  -15.7844 C   0  0  0  0  0  0  0  0  0  0  0  0
   24.2865  -23.2760  -14.8130 C   0  0  0  0  0  0  0  0  0  0  0  0
   23.8449  -23.9553  -13.8310 O   0  0  0  0  0  0  0  0  0  0  0  0
   26.9397  -21.0248   -9.0134 O   0  0  0  0  0  0  0  0  0  0  0  0
   26.0452  -20.8081  -10.0671 C   0  0  0  0  0  0  0  0  0  0  0  0
   26.4940  -20.7436  -11.3682 C   0  0  0  0  0  0  0  0  0  0  0  0
   25.6055  -20.5274  -12.4248 C   0  0  0  0  0  0  0  0  0  0  0  0
   24.2556  -20.3708  -12.2139 C   0  0  0  0  0  0  0  0  0  0  0  0
   23.3323  -20.1478  -13.3201 C   0  0  0  0  0  0  0  0  0  0  0  0
   22.8082  -21.3737  -14.0005 C   0  0  2  0  0  0  0  0  0  0  0  0
   23.7940  -21.9467  -14.9152 N   0  0  0  0  0  0  0  0  0  0  0  0
   21.5256  -21.2147  -14.6978 C   0  0  0  0  0  0  0  0  0  0  0  0
   21.4936  -20.6107  -15.8266 O   0  0  0  0  0  0  0  0  0  0  0  0
   23.8203  -20.4383  -10.8982 C   0  0  0  0  0  0  0  0  0  0  0  0
   24.6933  -20.6516   -9.8516 C   0  0  0  0  0  0  0  0  0  0  0  0
   20.2659  -21.6781  -14.2405 N   0  0  0  0  0  0  0  0  0  0  0  0
   19.0383  -21.5505  -15.0198 C   0  0  1  0  0  0  0  0  0  0  0  0
   18.1758  -22.7629  -14.8929 C   0  0  0  0  0  0  0  0  0  0  0  0
   17.7795  -23.0013  -13.4957 C   0  0  0  0  0  0  0  0  0  0  0  0
   16.5360  -22.5451  -13.0960 C   0  0  0  0  0  0  0  0  0  0  0  0
   16.0460  -22.7247  -11.8296 C   0  0  0  0  0  0  0  0  0  0  0  0
   16.8056  -23.3875  -10.8885 C   0  0  0  0  0  0  0  0  0  0  0  0
   18.0548  -23.8589  -11.2500 C   0  0  0  0  0  0  0  0  0  0  0  0
   18.5272  -23.6605  -12.5489 C   0  0  0  0  0  0  0  0  0  0  0  0
   18.2875  -20.3439  -14.6910 C   0  0  0  0  0  0  0  0  0  0  0  0
   17.2395  -19.8060  -15.4104 O   0  0  0  0  0  0  0  0  0  0  0  0
   18.6025  -19.6936  -13.6446 O   0  0  0  0  0  0  0  0  0  0  0  0
  2  1  1  0
  3  2  1  0
  4  3  2  0
  6  5  1  0
  6 16  2  0
  7  6  1  0
  8  7  2  0
  8  9  1  0
  9 15  2  0
 11 10  1  6
 10  9  1  0
 11 12  1  0
 12  3  1  0
 13 17  1  0
 13 11  1  0
 14 13  2  0
 15 16  1  0
 18 17  1  0
 18 19  1  1
 20 21  2  0
 20 19  1  0
 22 21  1  0
 23 22  2  0
 24 25  2  0
 24 23  1  0
 25 20  1  0
 26 18  1  0
 27 26  1  0
 28 26  2  0
M  END
$$$$
