GYF.pdb
     RDKit          3D

 28 29  0  0  1  0  0  0  0  0999 V2000
   28.0914  -22.1405  -16.5345 N   0  0  0  0  0  0  0  0  0  0  0  0
   27.1196  -22.7394  -15.6568 C   0  0  0  0  0  0  0  0  0  0  0  0
   26.8689  -21.7973  -14.5346 C   0  0  0  0  0  0  0  0  0  0  0  0
   27.7227  -20.9143  -14.1999 O   0  0  0  0  0  0  0  0  0  0  0  0
   23.3402  -17.7196  -18.0805 O   0  0  0  0  0  0  0  0  0  0  0  0
   23.5064  -18.3204  -16.8280 C   0  0  0  0  0  0  0  0  0  0  0  0
   23.2638  -19.6659  -16.6560 C   0  0  0  0  0  0  0  0  0  0  0  0
   23.4280  -20.2715  -15.4075 C   0  0  0  0  0  0  0  0  0  0  0  0
   23.8355  -19.5573  -14.3053 C   0  0  0  0  0  0  0  0  0  0  0  0
   24.0077  -20.1946  -13.0052 C   0  0  0  0  0  0  0  0  0  0  0  0
   25.3410  -20.8252  -12.7500 C   0  0  2  0  0  0  0  0  0  0  0  0
   25.6717  -21.8199  -13.7690 N   0  0  0  0  0  0  0  0  0  0  0  0
   25.5225  -21.4105  -11.4155 C   0  0  0  0  0  0  0  0  0  0  0  0
   25.2097  -22.6366  -11.2181 O   0  0  0  0  0  0  0  0  0  0  0  0
   24.0754  -18.2041  -14.4956 C   0  0  0  0  0  0  0  0  0  0  0  0
   23.9148  -17.6013  -15.7260 C   0  0  0  0  0  0  0  0  0  0  0  0
   26.0298  -20.7397  -10.2738 N   0  0  0  0  0  0  0  0  0  0  0  0
   26.0296  -21.3275   -8.9377 C   0  0  1  0  0  0  0  0  0  0  0  0
   27.4072  -21.3977   -8.3657 C   0  0  0  0  0  0  0  0  0  0  0  0
   27.6587  -20.2953   -7.4236 C   0  0  0  0  0  0  0  0  0  0  0  0
   28.7559  -19.4868   -7.6620 C   0  0  0  0  0  0  0  0  0  0  0  0
   29.0823  -18.4178   -6.8704 C   0  0  0  0  0  0  0  0  0  0  0  0
   28.2988  -18.1095   -5.7782 C   0  0  0  0  0  0  0  0  0  0  0  0
   27.1927  -18.8945   -5.5066 C   0  0  0  0  0  0  0  0  0  0  0  0
   26.8855  -19.9779   -6.3321 C   0  0  0  0  0  0  0  0  0  0  0  0
   25.1231  -20.6423   -8.0230 C   0  0  0  0  0  0  0  0  0  0  0  0
   24.6443  -21.1277   -6.8229 O   0  0  0  0  0  0  0  0  0  0  0  0
   24.7088  -19.4797   -8.3292 O   0  0  0  0  0  0  0  0  0  0  0  0
  2  1  1  0
  3  2  1  0
  4  3  2  0
  6  5  1  0
  6 16  2  0
  7  6  1  0
  8  7  2  0
  8  9  1  0
  9 15  2  0
 11 10  1  6
 10  9  1  0
 11 12  1  0
 12  3  1  0
 13 17  1  0
 13 11  1  0
 14 13  2  0
 15 16  1  0
 18 17  1  0
 18 19  1  1
 20 21  2  0
 20 19  1  0
 22 21  1  0
 23 22  2  0
 24 25  2  0
 24 23  1  0
 25 20  1  0
 26 18  1  0
 27 26  1  0
 28 26  2  0
M  END
$$$$
