GYF.pdb
     RDKit          3D

 28 29  0  0  1  0  0  0  0  0999 V2000
   27.5835  -21.6087  -16.1002 N   0  0  0  0  0  0  0  0  0  0  0  0
   27.2102  -22.3820  -14.9444 C   0  0  0  0  0  0  0  0  0  0  0  0
   26.6802  -21.4484  -13.9160 C   0  0  0  0  0  0  0  0  0  0  0  0
   26.8744  -20.1925  -13.9902 O   0  0  0  0  0  0  0  0  0  0  0  0
   21.0993  -19.2191  -16.3694 O   0  0  0  0  0  0  0  0  0  0  0  0
   21.7780  -19.6729  -15.2333 C   0  0  0  0  0  0  0  0  0  0  0  0
   21.9624  -21.0210  -15.0163 C   0  0  0  0  0  0  0  0  0  0  0  0
   22.6394  -21.4803  -13.8834 C   0  0  0  0  0  0  0  0  0  0  0  0
   23.1469  -20.6141  -12.9436 C   0  0  0  0  0  0  0  0  0  0  0  0
   23.8547  -21.0983  -11.7644 C   0  0  0  0  0  0  0  0  0  0  0  0
   25.3473  -20.9918  -11.7997 C   0  0  2  0  0  0  0  0  0  0  0  0
   25.9294  -21.8919  -12.7937 N   0  0  0  0  0  0  0  0  0  0  0  0
   26.0285  -21.1761  -10.5119 C   0  0  0  0  0  0  0  0  0  0  0  0
   26.2024  -22.3600  -10.0557 O   0  0  0  0  0  0  0  0  0  0  0  0
   22.9525  -19.2603  -13.1772 C   0  0  0  0  0  0  0  0  0  0  0  0
   22.2849  -18.8018  -14.2938 C   0  0  0  0  0  0  0  0  0  0  0  0
   26.5386  -20.1439   -9.6842 N   0  0  0  0  0  0  0  0  0  0  0  0
   27.0655  -20.3830   -8.3442 C   0  0  1  0  0  0  0  0  0  0  0  0
   27.8859  -19.2328   -7.8606 C   0  0  0  0  0  0  0  0  0  0  0  0
   28.3850  -19.4605   -6.4949 C   0  0  0  0  0  0  0  0  0  0  0  0
   27.8552  -18.6819   -5.4814 C   0  0  0  0  0  0  0  0  0  0  0  0
   28.2226  -18.8135   -4.1684 C   0  0  0  0  0  0  0  0  0  0  0  0
   29.1620  -19.7578   -3.8111 C   0  0  0  0  0  0  0  0  0  0  0  0
   29.7150  -20.5559   -4.7963 C   0  0  0  0  0  0  0  0  0  0  0  0
   29.3203  -20.3982   -6.1262 C   0  0  0  0  0  0  0  0  0  0  0  0
   26.0213  -20.7157   -7.3814 C   0  0  0  0  0  0  0  0  0  0  0  0
   26.1211  -21.6133   -6.3376 O   0  0  0  0  0  0  0  0  0  0  0  0
   24.8906  -20.1428   -7.4832 O   0  0  0  0  0  0  0  0  0  0  0  0
  2  1  1  0
  3  2  1  0
  4  3  2  0
  6  5  1  0
  6 16  2  0
  7  6  1  0
  8  7  2  0
  8  9  1  0
  9 15  2  0
 11 10  1  1
 10  9  1  0
 11 12  1  0
 12  3  1  0
 13 17  1  0
 13 11  1  0
 14 13  2  0
 15 16  1  0
 18 17  1  0
 18 19  1  1
 20 21  2  0
 20 19  1  0
 22 21  1  0
 23 22  2  0
 24 25  2  0
 24 23  1  0
 25 20  1  0
 26 18  1  0
 27 26  1  0
 28 26  2  0
M  END
$$$$
