GYF.pdb
     RDKit          3D

 28 29  0  0  1  0  0  0  0  0999 V2000
   15.7442  -10.5184  -16.7694 N   0  0  0  0  0  0  0  0  0  0  0  0
   15.3410   -9.3167  -16.0863 C   0  0  0  0  0  0  0  0  0  0  0  0
   16.4100   -8.3003  -16.2709 C   0  0  0  0  0  0  0  0  0  0  0  0
   16.8021   -7.9456  -17.4290 O   0  0  0  0  0  0  0  0  0  0  0  0
   13.1861   -2.7419  -17.3290 O   0  0  0  0  0  0  0  0  0  0  0  0
   14.2597   -3.3685  -16.6871 C   0  0  0  0  0  0  0  0  0  0  0  0
   14.0406   -4.2692  -15.6676 C   0  0  0  0  0  0  0  0  0  0  0  0
   15.1089   -4.8981  -15.0228 C   0  0  0  0  0  0  0  0  0  0  0  0
   16.4145   -4.6478  -15.3746 C   0  0  0  0  0  0  0  0  0  0  0  0
   17.5256   -5.3086  -14.7003 C   0  0  0  0  0  0  0  0  0  0  0  0
   18.0209   -6.5740  -15.3279 C   0  0  2  0  0  0  0  0  0  0  0  0
   17.0583   -7.6639  -15.1779 N   0  0  0  0  0  0  0  0  0  0  0  0
   19.3467   -7.0259  -14.8870 C   0  0  0  0  0  0  0  0  0  0  0  0
   19.4658   -7.6218  -13.7597 O   0  0  0  0  0  0  0  0  0  0  0  0
   16.6176   -3.7386  -16.4028 C   0  0  0  0  0  0  0  0  0  0  0  0
   15.5665   -3.1149  -17.0426 C   0  0  0  0  0  0  0  0  0  0  0  0
   20.5605   -6.8704  -15.6035 N   0  0  0  0  0  0  0  0  0  0  0  0
   21.8277   -7.4431  -15.1596 C   0  0  1  0  0  0  0  0  0  0  0  0
   22.4050   -8.3648  -16.1829 C   0  0  0  0  0  0  0  0  0  0  0  0
   23.6731   -8.9552  -15.7252 C   0  0  0  0  0  0  0  0  0  0  0  0
   24.8402   -8.5010  -16.3133 C   0  0  0  0  0  0  0  0  0  0  0  0
   26.0820   -8.9569  -15.9586 C   0  0  0  0  0  0  0  0  0  0  0  0
   26.2051   -9.9130  -14.9724 C   0  0  0  0  0  0  0  0  0  0  0  0
   25.0609  -10.3923  -14.3603 C   0  0  0  0  0  0  0  0  0  0  0  0
   23.8086   -9.9081  -14.7435 C   0  0  0  0  0  0  0  0  0  0  0  0
   22.7985   -6.4257  -14.7721 C   0  0  0  0  0  0  0  0  0  0  0  0
   23.6692   -6.4850  -13.7027 O   0  0  0  0  0  0  0  0  0  0  0  0
   22.8785   -5.3618  -15.4639 O   0  0  0  0  0  0  0  0  0  0  0  0
  2  1  1  0
  3  2  1  0
  4  3  2  0
  6  5  1  0
  6 16  2  0
  7  6  1  0
  8  7  2  0
  8  9  1  0
  9 15  2  0
 11 10  1  1
 10  9  1  0
 11 12  1  0
 12  3  1  0
 13 17  1  0
 13 11  1  0
 14 13  2  0
 15 16  1  0
 18 17  1  0
 18 19  1  6
 20 21  2  0
 20 19  1  0
 22 21  1  0
 23 22  2  0
 24 25  2  0
 24 23  1  0
 25 20  1  0
 26 18  1  0
 27 26  1  0
 28 26  2  0
M  END
$$$$
