GYF.pdb
     RDKit          3D

 28 29  0  0  1  0  0  0  0  0999 V2000
   23.3364  -25.7866  -19.0692 N   0  0  0  0  0  0  0  0  0  0  0  0
   24.5772  -26.4813  -19.2953 C   0  0  0  0  0  0  0  0  0  0  0  0
   24.7366  -27.5012  -18.2257 C   0  0  0  0  0  0  0  0  0  0  0  0
   24.5597  -27.2152  -16.9979 O   0  0  0  0  0  0  0  0  0  0  0  0
   18.8577  -29.0941  -16.3423 O   0  0  0  0  0  0  0  0  0  0  0  0
   20.1460  -29.5369  -16.6607 C   0  0  0  0  0  0  0  0  0  0  0  0
   21.0547  -29.8290  -15.6669 C   0  0  0  0  0  0  0  0  0  0  0  0
   22.3429  -30.2717  -15.9788 C   0  0  0  0  0  0  0  0  0  0  0  0
   22.7565  -30.4338  -17.2802 C   0  0  0  0  0  0  0  0  0  0  0  0
   24.1010  -30.8984  -17.6003 C   0  0  0  0  0  0  0  0  0  0  0  0
   25.1968  -29.8865  -17.4753 C   0  0  2  0  0  0  0  0  0  0  0  0
   25.0934  -28.8493  -18.5003 N   0  0  0  0  0  0  0  0  0  0  0  0
   26.5622  -30.4266  -17.4594 C   0  0  0  0  0  0  0  0  0  0  0  0
   27.2568  -30.4137  -18.5353 O   0  0  0  0  0  0  0  0  0  0  0  0
   21.8295  -30.1354  -18.2686 C   0  0  0  0  0  0  0  0  0  0  0  0
   20.5567  -29.6981  -17.9661 C   0  0  0  0  0  0  0  0  0  0  0  0
   27.2251  -30.9822  -16.3358 N   0  0  0  0  0  0  0  0  0  0  0  0
   28.6048  -31.4571  -16.3779 C   0  0  1  0  0  0  0  0  0  0  0  0
   29.1162  -31.7880  -15.0145 C   0  0  0  0  0  0  0  0  0  0  0  0
   28.4623  -32.9880  -14.4679 C   0  0  0  0  0  0  0  0  0  0  0  0
   27.3021  -32.8079  -13.7360 C   0  0  0  0  0  0  0  0  0  0  0  0
   26.5916  -33.8463  -13.1947 C   0  0  0  0  0  0  0  0  0  0  0  0
   27.0294  -35.1420  -13.3715 C   0  0  0  0  0  0  0  0  0  0  0  0
   28.1858  -35.3630  -14.0978 C   0  0  0  0  0  0  0  0  0  0  0  0
   28.8886  -34.2840  -14.6374 C   0  0  0  0  0  0  0  0  0  0  0  0
   28.7829  -32.5847  -17.2860 C   0  0  0  0  0  0  0  0  0  0  0  0
   29.9606  -32.9751  -17.8909 O   0  0  0  0  0  0  0  0  0  0  0  0
   27.7738  -33.3025  -17.5749 O   0  0  0  0  0  0  0  0  0  0  0  0
  2  1  1  0
  3  2  1  0
  4  3  2  0
  6  5  1  0
  6 16  2  0
  7  6  1  0
  8  7  2  0
  8  9  1  0
  9 15  2  0
 11 10  1  6
 10  9  1  0
 11 12  1  0
 12  3  1  0
 13 17  1  0
 13 11  1  0
 14 13  2  0
 15 16  1  0
 18 17  1  0
 18 19  1  1
 20 21  2  0
 20 19  1  0
 22 21  1  0
 23 22  2  0
 24 25  2  0
 24 23  1  0
 25 20  1  0
 26 18  1  0
 27 26  1  0
 28 26  2  0
M  END
$$$$
