GYF.pdb
     RDKit          3D

 28 29  0  0  1  0  0  0  0  0999 V2000
   25.3833  -19.2705  -17.1828 N   0  0  0  0  0  0  0  0  0  0  0  0
   24.3043  -18.7999  -16.3535 C   0  0  0  0  0  0  0  0  0  0  0  0
   23.5191  -19.9797  -15.9046 C   0  0  0  0  0  0  0  0  0  0  0  0
   23.8057  -21.1589  -16.2894 O   0  0  0  0  0  0  0  0  0  0  0  0
   27.3123  -22.2033  -11.4155 O   0  0  0  0  0  0  0  0  0  0  0  0
   25.9945  -21.9345  -11.8008 C   0  0  0  0  0  0  0  0  0  0  0  0
   25.1782  -22.9430  -12.2646 C   0  0  0  0  0  0  0  0  0  0  0  0
   23.8611  -22.6807  -12.6508 C   0  0  0  0  0  0  0  0  0  0  0  0
   23.3266  -21.4154  -12.5853 C   0  0  0  0  0  0  0  0  0  0  0  0
   21.9509  -21.1474  -12.9872 C   0  0  0  0  0  0  0  0  0  0  0  0
   21.7053  -21.0199  -14.4582 C   0  0  2  0  0  0  0  0  0  0  0  0
   22.4079  -19.8702  -15.0252 N   0  0  0  0  0  0  0  0  0  0  0  0
   20.2952  -20.9838  -14.8665 C   0  0  0  0  0  0  0  0  0  0  0  0
   19.6247  -19.9026  -14.7189 O   0  0  0  0  0  0  0  0  0  0  0  0
   24.1618  -20.4116  -12.1162 C   0  0  0  0  0  0  0  0  0  0  0  0
   25.4627  -20.6652  -11.7337 C   0  0  0  0  0  0  0  0  0  0  0  0
   19.5641  -22.0589  -15.4325 N   0  0  0  0  0  0  0  0  0  0  0  0
   18.1336  -21.9897  -15.7146 C   0  0  1  0  0  0  0  0  0  0  0  0
   17.7486  -22.8945  -16.8385 C   0  0  0  0  0  0  0  0  0  0  0  0
   16.3163  -22.7817  -17.1575 C   0  0  0  0  0  0  0  0  0  0  0  0
   15.9425  -21.8412  -18.1009 C   0  0  0  0  0  0  0  0  0  0  0  0
   14.6446  -21.6560  -18.4977 C   0  0  0  0  0  0  0  0  0  0  0  0
   13.6432  -22.4287  -17.9482 C   0  0  0  0  0  0  0  0  0  0  0  0
   13.9772  -23.3803  -17.0014 C   0  0  0  0  0  0  0  0  0  0  0  0
   15.3093  -23.5458  -16.6172 C   0  0  0  0  0  0  0  0  0  0  0  0
   17.3155  -22.2510  -14.5355 C   0  0  0  0  0  0  0  0  0  0  0  0
   17.5349  -23.2245  -13.5819 O   0  0  0  0  0  0  0  0  0  0  0  0
   16.2869  -21.5313  -14.3331 O   0  0  0  0  0  0  0  0  0  0  0  0
  2  1  1  0
  3  2  1  0
  4  3  2  0
  6  5  1  0
  6 16  2  0
  7  6  1  0
  8  7  2  0
  8  9  1  0
  9 15  2  0
 11 10  1  1
 10  9  1  0
 11 12  1  0
 12  3  1  0
 13 17  1  0
 13 11  1  0
 14 13  2  0
 15 16  1  0
 18 17  1  0
 18 19  1  6
 20 21  2  0
 20 19  1  0
 22 21  1  0
 23 22  2  0
 24 25  2  0
 24 23  1  0
 25 20  1  0
 26 18  1  0
 27 26  1  0
 28 26  2  0
M  END
$$$$
