GYF.pdb
     RDKit          3D

 28 29  0  0  1  0  0  0  0  0999 V2000
   28.7643  -26.4014  -16.5751 N   0  0  0  0  0  0  0  0  0  0  0  0
   27.3631  -26.1732  -16.8161 C   0  0  0  0  0  0  0  0  0  0  0  0
   27.1001  -24.7178  -16.6657 C   0  0  0  0  0  0  0  0  0  0  0  0
   27.9983  -23.9156  -16.2531 O   0  0  0  0  0  0  0  0  0  0  0  0
   22.9990  -16.7744  -17.3192 O   0  0  0  0  0  0  0  0  0  0  0  0
   23.4309  -18.0971  -17.4651 C   0  0  0  0  0  0  0  0  0  0  0  0
   24.6941  -18.3758  -17.9397 C   0  0  0  0  0  0  0  0  0  0  0  0
   25.1312  -19.6948  -18.0875 C   0  0  0  0  0  0  0  0  0  0  0  0
   24.3264  -20.7633  -17.7685 C   0  0  0  0  0  0  0  0  0  0  0  0
   24.7881  -22.1378  -17.9222 C   0  0  0  0  0  0  0  0  0  0  0  0
   25.5324  -22.7185  -16.7607 C   0  0  2  0  0  0  0  0  0  0  0  0
   25.8414  -24.1319  -16.9696 N   0  0  0  0  0  0  0  0  0  0  0  0
   24.8986  -22.5433  -15.4477 C   0  0  0  0  0  0  0  0  0  0  0  0
   24.0096  -23.3803  -15.0613 O   0  0  0  0  0  0  0  0  0  0  0  0
   23.0578  -20.4653  -17.2921 C   0  0  0  0  0  0  0  0  0  0  0  0
   22.6215  -19.1650  -17.1443 C   0  0  0  0  0  0  0  0  0  0  0  0
   25.1761  -21.5070  -14.5204 N   0  0  0  0  0  0  0  0  0  0  0  0
   24.4650  -21.3579  -13.2545 C   0  0  1  0  0  0  0  0  0  0  0  0
   25.1681  -20.4149  -12.3345 C   0  0  0  0  0  0  0  0  0  0  0  0
   24.4717  -20.2987  -11.0431 C   0  0  0  0  0  0  0  0  0  0  0  0
   25.0348  -20.9368   -9.9522 C   0  0  0  0  0  0  0  0  0  0  0  0
   24.4934  -20.8852   -8.6952 C   0  0  0  0  0  0  0  0  0  0  0  0
   23.3337  -20.1714   -8.4773 C   0  0  0  0  0  0  0  0  0  0  0  0
   22.7405  -19.5193   -9.5433 C   0  0  0  0  0  0  0  0  0  0  0  0
   23.3161  -19.5903  -10.8134 C   0  0  0  0  0  0  0  0  0  0  0  0
   23.0724  -20.9632  -13.4358 C   0  0  0  0  0  0  0  0  0  0  0  0
   21.9712  -21.5303  -12.8268 O   0  0  0  0  0  0  0  0  0  0  0  0
   22.8065  -20.0054  -14.2289 O   0  0  0  0  0  0  0  0  0  0  0  0
  2  1  1  0
  3  2  1  0
  4  3  2  0
  6  5  1  0
  6 16  2  0
  7  6  1  0
  8  7  2  0
  8  9  1  0
  9 15  2  0
 11 10  1  6
 10  9  1  0
 11 12  1  0
 12  3  1  0
 13 17  1  0
 13 11  1  0
 14 13  2  0
 15 16  1  0
 18 17  1  0
 18 19  1  1
 20 21  2  0
 20 19  1  0
 22 21  1  0
 23 22  2  0
 24 25  2  0
 24 23  1  0
 25 20  1  0
 26 18  1  0
 27 26  1  0
 28 26  2  0
M  END
$$$$
