GYF.pdb
     RDKit          3D

 28 29  0  0  1  0  0  0  0  0999 V2000
   23.3467  -18.3884  -14.3534 N   0  0  0  0  0  0  0  0  0  0  0  0
   24.2817  -18.0722  -13.3051 C   0  0  0  0  0  0  0  0  0  0  0  0
   24.9778  -19.3262  -12.9140 C   0  0  0  0  0  0  0  0  0  0  0  0
   24.5088  -20.4716  -13.2118 O   0  0  0  0  0  0  0  0  0  0  0  0
   28.3358  -19.8844  -18.0073 O   0  0  0  0  0  0  0  0  0  0  0  0
   28.2999  -20.1026  -16.6259 C   0  0  0  0  0  0  0  0  0  0  0  0
   28.5209  -19.0667  -15.7446 C   0  0  0  0  0  0  0  0  0  0  0  0
   28.4863  -19.2786  -14.3638 C   0  0  0  0  0  0  0  0  0  0  0  0
   28.2323  -20.5196  -13.8287 C   0  0  0  0  0  0  0  0  0  0  0  0
   28.1949  -20.7349  -12.3871 C   0  0  0  0  0  0  0  0  0  0  0  0
   26.8659  -20.5450  -11.7251 C   0  0  2  0  0  0  0  0  0  0  0  0
   26.2004  -19.3291  -12.1892 N   0  0  0  0  0  0  0  0  0  0  0  0
   26.8780  -20.5683  -10.2569 C   0  0  0  0  0  0  0  0  0  0  0  0
   27.7528  -19.8799   -9.6236 O   0  0  0  0  0  0  0  0  0  0  0  0
   28.0122  -21.5515  -14.7297 C   0  0  0  0  0  0  0  0  0  0  0  0
   28.0452  -21.3478  -16.0937 C   0  0  0  0  0  0  0  0  0  0  0  0
   25.9883  -21.2980   -9.4281 N   0  0  0  0  0  0  0  0  0  0  0  0
   25.8973  -21.0981   -7.9851 C   0  0  1  0  0  0  0  0  0  0  0  0
   26.2165  -19.6905   -7.6020 C   0  0  0  0  0  0  0  0  0  0  0  0
   27.1177  -19.6372   -6.4396 C   0  0  0  0  0  0  0  0  0  0  0  0
   26.6247  -20.0824   -5.2260 C   0  0  0  0  0  0  0  0  0  0  0  0
   27.3719  -20.1026   -4.0782 C   0  0  0  0  0  0  0  0  0  0  0  0
   28.6793  -19.6647   -4.1039 C   0  0  0  0  0  0  0  0  0  0  0  0
   29.2087  -19.2119   -5.2990 C   0  0  0  0  0  0  0  0  0  0  0  0
   28.4222  -19.2034   -6.4526 C   0  0  0  0  0  0  0  0  0  0  0  0
   24.6050  -21.5025   -7.4426 C   0  0  0  0  0  0  0  0  0  0  0  0
   24.3876  -22.2128   -6.2793 O   0  0  0  0  0  0  0  0  0  0  0  0
   23.5496  -21.1889   -8.0788 O   0  0  0  0  0  0  0  0  0  0  0  0
  2  1  1  0
  3  2  1  0
  4  3  2  0
  6  5  1  0
  6 16  2  0
  7  6  1  0
  8  7  2  0
  8  9  1  0
  9 15  2  0
 11 10  1  1
 10  9  1  0
 11 12  1  0
 12  3  1  0
 13 17  1  0
 13 11  1  0
 14 13  2  0
 15 16  1  0
 18 17  1  0
 18 19  1  6
 20 21  2  0
 20 19  1  0
 22 21  1  0
 23 22  2  0
 24 25  2  0
 24 23  1  0
 25 20  1  0
 26 18  1  0
 27 26  1  0
 28 26  2  0
M  END
$$$$
