GYF.pdb
     RDKit          3D

 28 29  0  0  1  0  0  0  0  0999 V2000
   27.9652  -19.9771  -15.8403 N   0  0  0  0  0  0  0  0  0  0  0  0
   28.0881  -20.9009  -14.7426 C   0  0  0  0  0  0  0  0  0  0  0  0
   27.2592  -20.3936  -13.6177 C   0  0  0  0  0  0  0  0  0  0  0  0
   27.2034  -19.1537  -13.3349 O   0  0  0  0  0  0  0  0  0  0  0  0
   21.4673  -18.7306  -16.0477 O   0  0  0  0  0  0  0  0  0  0  0  0
   22.1614  -19.3268  -14.9895 C   0  0  0  0  0  0  0  0  0  0  0  0
   22.3761  -18.6403  -13.8142 C   0  0  0  0  0  0  0  0  0  0  0  0
   23.0688  -19.2305  -12.7538 C   0  0  0  0  0  0  0  0  0  0  0  0
   23.5621  -20.5115  -12.8360 C   0  0  0  0  0  0  0  0  0  0  0  0
   24.2820  -21.1237  -11.7257 C   0  0  0  0  0  0  0  0  0  0  0  0
   25.7381  -20.7930  -11.6200 C   0  0  2  0  0  0  0  0  0  0  0  0
   26.4821  -21.2508  -12.7921 N   0  0  0  0  0  0  0  0  0  0  0  0
   26.4089  -21.2593  -10.3998 C   0  0  0  0  0  0  0  0  0  0  0  0
   26.7552  -22.4885  -10.3024 O   0  0  0  0  0  0  0  0  0  0  0  0
   23.3374  -21.1886  -14.0260 C   0  0  0  0  0  0  0  0  0  0  0  0
   22.6543  -20.6105  -15.0759 C   0  0  0  0  0  0  0  0  0  0  0  0
   26.7313  -20.4642   -9.2708 N   0  0  0  0  0  0  0  0  0  0  0  0
   27.2306  -21.0229   -8.0181 C   0  0  1  0  0  0  0  0  0  0  0  0
   28.5876  -20.4980   -7.6821 C   0  0  0  0  0  0  0  0  0  0  0  0
   28.6742  -20.0850   -6.2721 C   0  0  0  0  0  0  0  0  0  0  0  0
   28.1743  -18.8389   -5.9380 C   0  0  0  0  0  0  0  0  0  0  0  0
   28.1781  -18.3511   -4.6581 C   0  0  0  0  0  0  0  0  0  0  0  0
   28.6980  -19.1157   -3.6349 C   0  0  0  0  0  0  0  0  0  0  0  0
   29.2074  -20.3677   -3.9291 C   0  0  0  0  0  0  0  0  0  0  0  0
   29.1896  -20.8378   -5.2437 C   0  0  0  0  0  0  0  0  0  0  0  0
   26.3076  -20.8223   -6.9065 C   0  0  0  0  0  0  0  0  0  0  0  0
   25.2839  -19.8984   -6.8443 O   0  0  0  0  0  0  0  0  0  0  0  0
   26.4284  -21.5518   -5.8720 O   0  0  0  0  0  0  0  0  0  0  0  0
  2  1  1  0
  3  2  1  0
  4  3  2  0
  6  5  1  0
  6 16  2  0
  7  6  1  0
  8  7  2  0
  8  9  1  0
  9 15  2  0
 11 10  1  6
 10  9  1  0
 11 12  1  0
 12  3  1  0
 13 17  1  0
 13 11  1  0
 14 13  2  0
 15 16  1  0
 18 17  1  0
 18 19  1  1
 20 21  2  0
 20 19  1  0
 22 21  1  0
 23 22  2  0
 24 25  2  0
 24 23  1  0
 25 20  1  0
 26 18  1  0
 27 26  1  0
 28 26  2  0
M  END
$$$$
