DGL.pdb
     RDKit          3D

 21 20  0  0  1  0  0  0  0  0999 V2000
   10.2995  -19.3277   20.7396 N   0  0  0  0  0  0  0  0  0  0  0  0
    9.9899  -18.1581   19.9483 C   0  0  1  0  0  0  0  0  0  0  0  0
    9.4925  -18.5483   18.5665 C   0  0  0  0  0  0  0  0  0  0  0  0
   10.6199  -18.9790   17.7205 C   0  0  0  0  0  0  0  0  0  0  0  0
   10.6975  -20.1689   17.3544 O   0  0  0  0  0  0  0  0  0  0  0  0
    8.9328  -17.3843   20.6797 C   0  0  0  0  0  0  0  0  0  0  0  0
    8.5589  -16.2518   20.2817 O   0  0  0  0  0  0  0  0  0  0  0  0
   11.5803  -18.0655   17.3393 O   0  0  0  0  0  0  0  0  0  0  0  0
    8.3135  -17.9044   21.8524 N   0  0  0  0  0  0  0  0  0  0  0  0
    7.3539  -17.1962   22.6312 C   0  0  0  0  0  0  0  0  0  0  0  0
    7.8851  -16.2005   23.5666 C   0  0  0  0  0  0  0  0  0  0  0  0
    9.1205  -15.8599   23.5016 O   0  0  0  0  0  0  0  0  0  0  0  0
    5.7665  -11.8457   27.5050 C   0  0  0  0  0  0  0  0  0  0  0  0
    6.9452  -12.4751   26.8151 C   0  0  2  0  0  0  0  0  0  0  0  0
    7.8263  -11.4169   26.2335 C   0  0  0  0  0  0  0  0  0  0  0  0
    6.6575  -13.6220   25.9494 C   0  0  0  0  0  0  0  0  0  0  0  0
    7.7410  -14.4478   25.3876 C   0  0  2  0  0  0  0  0  0  0  0  0
    7.1332  -15.5488   24.5767 N   0  0  0  0  0  0  0  0  0  0  0  0
    8.6503  -15.1126   26.3259 C   0  0  0  0  0  0  0  0  0  0  0  0
    9.7811  -14.5885   26.6523 O   0  0  0  0  0  0  0  0  0  0  0  0
    8.4220  -16.3317   26.9604 O   0  0  0  0  0  0  0  0  0  0  0  0
  2  1  1  1
  2  3  1  0
  3  4  1  0
  4  5  2  0
  4  8  1  0
  6  7  2  0
  6  2  1  0
  9  6  1  0
 10  9  1  0
 11 10  1  0
 11 18  1  0
 12 11  2  0
 14 13  1  6
 14 15  1  0
 16 14  1  0
 17 18  1  0
 17 16  1  1
 19 21  1  0
 19 17  1  0
 20 19  2  0
M  END
$$$$
