DGL.pdb
     RDKit          3D

 21 20  0  0  1  0  0  0  0  0999 V2000
    9.4020  -17.5035   19.7544 N   0  0  0  0  0  0  0  0  0  0  0  0
    9.5738  -18.6169   20.6605 C   0  0  1  0  0  0  0  0  0  0  0  0
   11.0429  -18.8452   20.9743 C   0  0  0  0  0  0  0  0  0  0  0  0
   11.7979  -19.0942   19.7332 C   0  0  0  0  0  0  0  0  0  0  0  0
   11.3085  -19.8257   18.8493 O   0  0  0  0  0  0  0  0  0  0  0  0
    8.8194  -18.2974   21.9174 C   0  0  0  0  0  0  0  0  0  0  0  0
    8.8360  -19.0752   22.9051 O   0  0  0  0  0  0  0  0  0  0  0  0
   13.0385  -18.5178   19.5570 O   0  0  0  0  0  0  0  0  0  0  0  0
    8.0561  -17.1007   22.0381 N   0  0  0  0  0  0  0  0  0  0  0  0
    7.3873  -16.6954   23.2287 C   0  0  0  0  0  0  0  0  0  0  0  0
    8.1737  -15.8991   24.1753 C   0  0  0  0  0  0  0  0  0  0  0  0
    9.3988  -15.6229   23.9125 O   0  0  0  0  0  0  0  0  0  0  0  0
    7.4021  -11.7876   25.0022 C   0  0  0  0  0  0  0  0  0  0  0  0
    6.7531  -12.5983   26.0899 C   0  0  2  0  0  0  0  0  0  0  0  0
    5.8089  -11.7449   26.8737 C   0  0  0  0  0  0  0  0  0  0  0  0
    7.6377  -13.4667   26.8714 C   0  0  0  0  0  0  0  0  0  0  0  0
    8.5257  -14.4433   26.2163 C   0  0  2  0  0  0  0  0  0  0  0  0
    7.6897  -15.3811   25.4032 N   0  0  0  0  0  0  0  0  0  0  0  0
    9.3493  -15.3009   27.0739 C   0  0  0  0  0  0  0  0  0  0  0  0
    9.0351  -16.5304   27.2959 O   0  0  0  0  0  0  0  0  0  0  0  0
   10.5222  -14.9222   27.7233 O   0  0  0  0  0  0  0  0  0  0  0  0
  2  1  1  6
  2  3  1  0
  3  4  1  0
  4  5  2  0
  4  8  1  0
  6  7  2  0
  6  2  1  0
  9  6  1  0
 10  9  1  0
 11 10  1  0
 11 18  1  0
 12 11  2  0
 14 13  1  1
 14 15  1  0
 16 14  1  0
 17 18  1  0
 17 16  1  1
 19 21  1  0
 19 17  1  0
 20 19  2  0
M  END
$$$$
