DGL.pdb
     RDKit          3D

 21 20  0  0  1  0  0  0  0  0999 V2000
    9.9127  -16.8908   19.3858 N   0  0  0  0  0  0  0  0  0  0  0  0
    8.5655  -17.2026   18.9641 C   0  0  1  0  0  0  0  0  0  0  0  0
    8.4823  -18.6086   18.3938 C   0  0  0  0  0  0  0  0  0  0  0  0
    9.3195  -18.7205   17.1859 C   0  0  0  0  0  0  0  0  0  0  0  0
   10.3199  -17.9864   17.0582 O   0  0  0  0  0  0  0  0  0  0  0  0
    7.6755  -17.0777   20.1655 C   0  0  0  0  0  0  0  0  0  0  0  0
    6.4649  -17.4144   20.1199 O   0  0  0  0  0  0  0  0  0  0  0  0
    8.9923  -19.6343   16.2061 O   0  0  0  0  0  0  0  0  0  0  0  0
    8.1693  -16.5728   21.4026 N   0  0  0  0  0  0  0  0  0  0  0  0
    7.4062  -16.5137   22.6039 C   0  0  0  0  0  0  0  0  0  0  0  0
    8.0389  -15.8402   23.7418 C   0  0  0  0  0  0  0  0  0  0  0  0
    9.2794  -16.0472   23.9960 O   0  0  0  0  0  0  0  0  0  0  0  0
    7.3177  -11.4873   24.7837 C   0  0  0  0  0  0  0  0  0  0  0  0
    6.5008  -12.3489   25.7066 C   0  0  2  0  0  0  0  0  0  0  0  0
    5.5587  -11.5028   26.5010 C   0  0  0  0  0  0  0  0  0  0  0  0
    7.2299  -13.3774   26.4537 C   0  0  0  0  0  0  0  0  0  0  0  0
    8.1241  -14.3295   25.7715 C   0  0  2  0  0  0  0  0  0  0  0  0
    7.3852  -14.9428   24.6237 N   0  0  0  0  0  0  0  0  0  0  0  0
    8.6407  -15.4596   26.5495 C   0  0  0  0  0  0  0  0  0  0  0  0
    9.5687  -15.3022   27.4292 O   0  0  0  0  0  0  0  0  0  0  0  0
    8.2153  -16.7825   26.4506 O   0  0  0  0  0  0  0  0  0  0  0  0
  2  1  1  1
  2  3  1  0
  3  4  1  0
  4  5  2  0
  4  8  1  0
  6  7  2  0
  6  2  1  0
  9  6  1  0
 10  9  1  0
 11 10  1  0
 11 18  1  0
 12 11  2  0
 14 13  1  1
 14 15  1  0
 16 14  1  0
 17 18  1  0
 17 16  1  1
 19 21  1  0
 19 17  1  0
 20 19  2  0
M  END
$$$$
