DGL.pdb
     RDKit          3D

 21 20  0  0  1  0  0  0  0  0999 V2000
    8.1355  -17.8204   19.2464 N   0  0  0  0  0  0  0  0  0  0  0  0
    9.0280  -17.7068   20.3781 C   0  0  1  0  0  0  0  0  0  0  0  0
   10.2509  -16.8751   20.0291 C   0  0  0  0  0  0  0  0  0  0  0  0
   11.0823  -17.5801   19.0372 C   0  0  0  0  0  0  0  0  0  0  0  0
   11.4294  -16.9922   17.9931 O   0  0  0  0  0  0  0  0  0  0  0  0
    8.2626  -17.0591   21.4941 C   0  0  0  0  0  0  0  0  0  0  0  0
    7.7172  -15.9358   21.3468 O   0  0  0  0  0  0  0  0  0  0  0  0
   11.4707  -18.8831   19.2688 O   0  0  0  0  0  0  0  0  0  0  0  0
    8.1254  -17.6930   22.7624 N   0  0  0  0  0  0  0  0  0  0  0  0
    7.4134  -17.1349   23.8626 C   0  0  0  0  0  0  0  0  0  0  0  0
    8.1033  -16.0833   24.6154 C   0  0  0  0  0  0  0  0  0  0  0  0
    9.3617  -15.8987   24.4459 O   0  0  0  0  0  0  0  0  0  0  0  0
    7.3733  -11.6477   24.7668 C   0  0  0  0  0  0  0  0  0  0  0  0
    6.6293  -12.3922   25.8408 C   0  0  2  0  0  0  0  0  0  0  0  0
    5.5661  -11.5212   26.4284 C   0  0  0  0  0  0  0  0  0  0  0  0
    7.4455  -13.1465   26.7958 C   0  0  0  0  0  0  0  0  0  0  0  0
    8.3095  -14.2561   26.3555 C   0  0  2  0  0  0  0  0  0  0  0  0
    7.4876  -15.2128   25.5501 N   0  0  0  0  0  0  0  0  0  0  0  0
    8.9543  -15.0719   27.3889 C   0  0  0  0  0  0  0  0  0  0  0  0
    9.9013  -14.6005   28.1243 O   0  0  0  0  0  0  0  0  0  0  0  0
    8.6411  -16.3931   27.7007 O   0  0  0  0  0  0  0  0  0  0  0  0
  2  1  1  6
  2  3  1  0
  3  4  1  0
  4  5  2  0
  4  8  1  0
  6  7  2  0
  6  2  1  0
  9  6  1  0
 10  9  1  0
 11 10  1  0
 11 18  1  0
 12 11  2  0
 14 13  1  1
 14 15  1  0
 16 14  1  0
 17 18  1  0
 17 16  1  1
 19 21  1  0
 19 17  1  0
 20 19  2  0
M  END
$$$$
