DGL.pdb
     RDKit          3D

 21 20  0  0  1  0  0  0  0  0999 V2000
    6.1899  -19.0830   22.0153 N   0  0  0  0  0  0  0  0  0  0  0  0
    5.6037  -18.0072   21.2478 C   0  0  1  0  0  0  0  0  0  0  0  0
    4.2398  -17.6234   21.7968 C   0  0  0  0  0  0  0  0  0  0  0  0
    3.2638  -18.6968   21.5371 C   0  0  0  0  0  0  0  0  0  0  0  0
    3.0841  -19.5876   22.3916 O   0  0  0  0  0  0  0  0  0  0  0  0
    6.5397  -16.8369   21.3217 C   0  0  0  0  0  0  0  0  0  0  0  0
    6.1919  -15.6958   20.9247 O   0  0  0  0  0  0  0  0  0  0  0  0
    2.5565  -18.7097   20.3531 O   0  0  0  0  0  0  0  0  0  0  0  0
    7.8575  -16.9756   21.8447 N   0  0  0  0  0  0  0  0  0  0  0  0
    8.7916  -15.9058   21.9528 C   0  0  0  0  0  0  0  0  0  0  0  0
    9.0110  -15.3696   23.2992 C   0  0  0  0  0  0  0  0  0  0  0  0
   10.0263  -14.6196   23.5293 O   0  0  0  0  0  0  0  0  0  0  0  0
    8.2272  -11.9715   26.1102 C   0  0  0  0  0  0  0  0  0  0  0  0
    7.1487  -12.9976   25.8971 C   0  0  2  0  0  0  0  0  0  0  0  0
    5.8226  -12.4428   26.3069 C   0  0  0  0  0  0  0  0  0  0  0  0
    7.4458  -14.3591   26.3502 C   0  0  0  0  0  0  0  0  0  0  0  0
    8.5657  -15.1284   25.7797 C   0  0  2  0  0  0  0  0  0  0  0  0
    8.1729  -15.6082   24.4177 N   0  0  0  0  0  0  0  0  0  0  0  0
    9.0100  -16.3253   26.5003 C   0  0  0  0  0  0  0  0  0  0  0  0
    9.4526  -16.2575   27.7084 O   0  0  0  0  0  0  0  0  0  0  0  0
    9.0072  -17.6267   26.0031 O   0  0  0  0  0  0  0  0  0  0  0  0
  2  1  1  1
  2  3  1  0
  3  4  1  0
  4  5  2  0
  4  8  1  0
  6  7  2  0
  6  2  1  0
  9  6  1  0
 10  9  1  0
 11 10  1  0
 11 18  1  0
 12 11  2  0
 14 13  1  1
 14 15  1  0
 16 14  1  0
 17 18  1  0
 17 16  1  1
 19 21  1  0
 19 17  1  0
 20 19  2  0
M  END
$$$$
