AVF.pdb
     RDKit          3D

 24 24  0  0  1  0  0  0  0  0999 V2000
    8.3717  -12.1158   20.0402 C   0  0  0  0  0  0  0  0  0  0  0  0
    8.3430  -13.4660   19.3856 C   0  0  2  0  0  0  0  0  0  0  0  0
    7.6550  -13.4466   18.1255 N   0  0  0  0  0  0  0  0  0  0  0  0
    7.8201  -14.5203   20.2967 C   0  0  0  0  0  0  0  0  0  0  0  0
    6.6056  -14.7844   20.3313 O   0  0  0  0  0  0  0  0  0  0  0  0
   10.2469  -17.7090   21.2060 C   0  0  0  0  0  0  0  0  0  0  0  0
    8.7729  -17.5707   21.3937 C   0  0  2  0  0  0  0  0  0  0  0  0
    8.0256  -17.7498   20.0690 C   0  0  0  0  0  0  0  0  0  0  0  0
    8.3014  -16.3054   22.0231 C   0  0  2  0  0  0  0  0  0  0  0  0
    8.7196  -15.2202   21.1242 N   0  0  0  0  0  0  0  0  0  0  0  0
    8.8095  -16.0585   23.3916 C   0  0  0  0  0  0  0  0  0  0  0  0
    9.9693  -15.5227   23.5189 O   0  0  0  0  0  0  0  0  0  0  0  0
    8.1041  -16.3700   24.5736 N   0  0  0  0  0  0  0  0  0  0  0  0
    8.6444  -16.0933   25.9029 C   0  0  1  0  0  0  0  0  0  0  0  0
    7.5016  -15.5655   26.7136 C   0  0  0  0  0  0  0  0  0  0  0  0
    7.1958  -14.1368   26.5066 C   0  0  0  0  0  0  0  0  0  0  0  0
    8.1294  -13.1449   26.7119 C   0  0  0  0  0  0  0  0  0  0  0  0
    7.8258  -11.7949   26.5035 C   0  0  0  0  0  0  0  0  0  0  0  0
    6.5718  -11.4070   26.0825 C   0  0  0  0  0  0  0  0  0  0  0  0
    5.6383  -12.4012   25.8777 C   0  0  0  0  0  0  0  0  0  0  0  0
    5.9354  -13.7323   26.0823 C   0  0  0  0  0  0  0  0  0  0  0  0
    9.1160  -17.3627   26.4804 C   0  0  0  0  0  0  0  0  0  0  0  0
    9.9309  -17.3659   27.5952 O   0  0  0  0  0  0  0  0  0  0  0  0
    8.7878  -18.4564   25.9729 O   0  0  0  0  0  0  0  0  0  0  0  0
  2  1  1  1
  2  4  1  0
  3  2  1  0
  4 10  1  0
  4  5  2  0
  7  6  1  6
  7  8  1  0
  9 11  1  0
  9  7  1  0
  9 10  1  6
 11 12  2  0
 13 14  1  0
 13 11  1  0
 14 15  1  1
 15 16  1  0
 16 21  2  0
 17 18  2  0
 17 16  1  0
 18 19  1  0
 19 20  2  0
 21 20  1  0
 22 14  1  0
 23 22  1  0
 24 22  2  0
M  END
$$$$
