AVF.pdb
     RDKit          3D

 24 24  0  0  1  0  0  0  0  0999 V2000
    8.3682  -19.2723   20.6945 C   0  0  0  0  0  0  0  0  0  0  0  0
    8.3742  -18.0885   19.7722 C   0  0  2  0  0  0  0  0  0  0  0  0
    8.9788  -18.3878   18.5046 N   0  0  0  0  0  0  0  0  0  0  0  0
    8.9706  -16.8832   20.4100 C   0  0  0  0  0  0  0  0  0  0  0  0
   10.2034  -16.7235   20.4375 O   0  0  0  0  0  0  0  0  0  0  0  0
    6.2157  -13.8296   21.8183 C   0  0  0  0  0  0  0  0  0  0  0  0
    7.5323  -13.6326   21.1440 C   0  0  2  0  0  0  0  0  0  0  0  0
    7.3755  -13.5937   19.6211 C   0  0  0  0  0  0  0  0  0  0  0  0
    8.5992  -14.6185   21.4739 C   0  0  2  0  0  0  0  0  0  0  0  0
    8.1199  -15.9195   20.9856 N   0  0  0  0  0  0  0  0  0  0  0  0
    8.9467  -14.7094   22.9102 C   0  0  0  0  0  0  0  0  0  0  0  0
    9.5074  -13.6950   23.4625 O   0  0  0  0  0  0  0  0  0  0  0  0
    8.7018  -15.8382   23.7212 N   0  0  0  0  0  0  0  0  0  0  0  0
    9.0350  -15.8665   25.1437 C   0  0  1  0  0  0  0  0  0  0  0  0
    7.7654  -15.5548   25.8736 C   0  0  0  0  0  0  0  0  0  0  0  0
    7.5989  -14.1410   26.2623 C   0  0  0  0  0  0  0  0  0  0  0  0
    8.6538  -13.3629   26.6859 C   0  0  0  0  0  0  0  0  0  0  0  0
    8.4806  -12.0212   27.0437 C   0  0  0  0  0  0  0  0  0  0  0  0
    7.2385  -11.4264   26.9847 C   0  0  0  0  0  0  0  0  0  0  0  0
    6.1835  -12.2068   26.5608 C   0  0  0  0  0  0  0  0  0  0  0  0
    6.3519  -13.5292   26.2075 C   0  0  0  0  0  0  0  0  0  0  0  0
    9.4800  -17.2278   25.4843 C   0  0  0  0  0  0  0  0  0  0  0  0
   10.0017  -17.5032   26.7329 O   0  0  0  0  0  0  0  0  0  0  0  0
    9.3936  -18.1553   24.6514 O   0  0  0  0  0  0  0  0  0  0  0  0
  2  1  1  1
  2  4  1  0
  3  2  1  0
  4 10  1  0
  4  5  2  0
  7  6  1  1
  7  8  1  0
  9 11  1  0
  9  7  1  0
  9 10  1  1
 11 12  2  0
 13 14  1  0
 13 11  1  0
 14 15  1  1
 15 16  1  0
 16 21  2  0
 17 18  2  0
 17 16  1  0
 18 19  1  0
 19 20  2  0
 21 20  1  0
 22 14  1  0
 23 22  1  0
 24 22  2  0
M  END
$$$$
