AVF.pdb
     RDKit          3D

 24 24  0  0  1  0  0  0  0  0999 V2000
    7.4414  -19.8048   20.3866 C   0  0  0  0  0  0  0  0  0  0  0  0
    7.5263  -18.5798   19.5238 C   0  0  2  0  0  0  0  0  0  0  0  0
    8.0146  -18.8738   18.2058 N   0  0  0  0  0  0  0  0  0  0  0  0
    8.2938  -17.4850   20.1775 C   0  0  0  0  0  0  0  0  0  0  0  0
    9.5348  -17.5289   20.2398 O   0  0  0  0  0  0  0  0  0  0  0  0
    8.0984  -12.7126   21.3016 C   0  0  0  0  0  0  0  0  0  0  0  0
    7.5619  -14.0288   20.8467 C   0  0  2  0  0  0  0  0  0  0  0  0
    6.0769  -14.1721   21.1922 C   0  0  0  0  0  0  0  0  0  0  0  0
    8.2713  -15.2406   21.3441 C   0  0  2  0  0  0  0  0  0  0  0  0
    7.5966  -16.3921   20.7280 N   0  0  0  0  0  0  0  0  0  0  0  0
    8.2967  -15.3923   22.8167 C   0  0  0  0  0  0  0  0  0  0  0  0
    7.2635  -15.8931   23.3913 O   0  0  0  0  0  0  0  0  0  0  0  0
    9.3836  -15.0253   23.6387 N   0  0  0  0  0  0  0  0  0  0  0  0
    9.3566  -15.1892   25.0905 C   0  0  1  0  0  0  0  0  0  0  0  0
    7.9147  -15.1254   25.4886 C   0  0  0  0  0  0  0  0  0  0  0  0
    7.4462  -13.7972   25.9291 C   0  0  0  0  0  0  0  0  0  0  0  0
    8.3088  -12.8225   26.3799 C   0  0  0  0  0  0  0  0  0  0  0  0
    7.8493  -11.5650   26.7870 C   0  0  0  0  0  0  0  0  0  0  0  0
    6.5066  -11.2551   26.7512 C   0  0  0  0  0  0  0  0  0  0  0  0
    5.6443  -12.2322   26.2999 C   0  0  0  0  0  0  0  0  0  0  0  0
    6.0951  -13.4721   25.8981 C   0  0  0  0  0  0  0  0  0  0  0  0
    9.9005  -16.5187   25.4129 C   0  0  0  0  0  0  0  0  0  0  0  0
   10.0938  -17.4572   24.4185 O   0  0  0  0  0  0  0  0  0  0  0  0
   10.1956  -16.8201   26.5891 O   0  0  0  0  0  0  0  0  0  0  0  0
  2  1  1  1
  2  4  1  0
  3  2  1  0
  4 10  1  0
  4  5  2  0
  7  6  1  1
  7  8  1  0
  9 11  1  0
  9  7  1  0
  9 10  1  6
 11 12  2  0
 13 14  1  0
 13 11  1  0
 14 15  1  6
 15 16  1  0
 16 21  2  0
 17 18  2  0
 17 16  1  0
 18 19  1  0
 19 20  2  0
 21 20  1  0
 22 14  1  0
 23 22  1  0
 24 22  2  0
M  END
$$$$
