AVF.pdb
     RDKit          3D

 24 24  0  0  1  0  0  0  0  0999 V2000
    8.5756  -18.7812   18.7409 C   0  0  0  0  0  0  0  0  0  0  0  0
    9.3431  -17.4960   18.6340 C   0  0  2  0  0  0  0  0  0  0  0  0
   10.6301  -17.6785   18.0240 N   0  0  0  0  0  0  0  0  0  0  0  0
    9.4339  -16.7864   19.9391 C   0  0  0  0  0  0  0  0  0  0  0  0
   10.3478  -17.0466   20.7412 O   0  0  0  0  0  0  0  0  0  0  0  0
    8.1966  -12.8743   20.2320 C   0  0  0  0  0  0  0  0  0  0  0  0
    7.6779  -13.8201   21.2632 C   0  0  2  0  0  0  0  0  0  0  0  0
    7.4601  -13.1139   22.6044 C   0  0  0  0  0  0  0  0  0  0  0  0
    8.4934  -15.0419   21.5110 C   0  0  2  0  0  0  0  0  0  0  0  0
    8.4691  -15.8115   20.2589 N   0  0  0  0  0  0  0  0  0  0  0  0
    8.0331  -15.8855   22.6372 C   0  0  0  0  0  0  0  0  0  0  0  0
    7.0145  -16.6439   22.4482 O   0  0  0  0  0  0  0  0  0  0  0  0
    8.6394  -15.9171   23.9112 N   0  0  0  0  0  0  0  0  0  0  0  0
    8.2547  -16.8841   24.9369 C   0  0  1  0  0  0  0  0  0  0  0  0
    9.2939  -16.7862   26.0102 C   0  0  0  0  0  0  0  0  0  0  0  0
    9.3531  -15.4863   26.7061 C   0  0  0  0  0  0  0  0  0  0  0  0
    8.3230  -15.0240   27.4953 C   0  0  0  0  0  0  0  0  0  0  0  0
    8.3979  -13.7922   28.1549 C   0  0  0  0  0  0  0  0  0  0  0  0
    9.5138  -12.9915   28.0371 C   0  0  0  0  0  0  0  0  0  0  0  0
   10.5440  -13.4557   27.2464 C   0  0  0  0  0  0  0  0  0  0  0  0
   10.4724  -14.6694   26.5956 C   0  0  0  0  0  0  0  0  0  0  0  0
    6.9454  -16.4835   25.4779 C   0  0  0  0  0  0  0  0  0  0  0  0
    6.3727  -15.2819   25.1103 O   0  0  0  0  0  0  0  0  0  0  0  0
    6.3315  -17.2221   26.2773 O   0  0  0  0  0  0  0  0  0  0  0  0
  2  1  1  1
  2  4  1  0
  3  2  1  0
  4 10  1  0
  4  5  2  0
  7  6  1  6
  7  8  1  0
  9 11  1  0
  9  7  1  0
  9 10  1  6
 11 12  2  0
 13 14  1  0
 13 11  1  0
 14 15  1  1
 15 16  1  0
 16 21  2  0
 17 18  2  0
 17 16  1  0
 18 19  1  0
 19 20  2  0
 21 20  1  0
 22 14  1  0
 23 22  1  0
 24 22  2  0
M  END
$$$$
