AVF.pdb
     RDKit          3D

 24 24  0  0  1  0  0  0  0  0999 V2000
    9.3019  -19.7971   20.3979 C   0  0  0  0  0  0  0  0  0  0  0  0
    8.4003  -18.6019   20.2946 C   0  0  2  0  0  0  0  0  0  0  0  0
    7.7782  -18.4979   19.0047 N   0  0  0  0  0  0  0  0  0  0  0  0
    9.0892  -17.3434   20.6906 C   0  0  0  0  0  0  0  0  0  0  0  0
   10.3231  -17.3152   20.8412 O   0  0  0  0  0  0  0  0  0  0  0  0
    8.4271  -12.4247   21.0401 C   0  0  0  0  0  0  0  0  0  0  0  0
    8.0045  -13.8351   20.7970 C   0  0  2  0  0  0  0  0  0  0  0  0
    6.6039  -14.0991   21.3574 C   0  0  0  0  0  0  0  0  0  0  0  0
    8.9152  -14.8969   21.3095 C   0  0  2  0  0  0  0  0  0  0  0  0
    8.3254  -16.1778   20.8944 N   0  0  0  0  0  0  0  0  0  0  0  0
    9.1303  -14.8854   22.7743 C   0  0  0  0  0  0  0  0  0  0  0  0
    9.7108  -13.8642   23.2925 O   0  0  0  0  0  0  0  0  0  0  0  0
    8.7380  -15.9226   23.6472 N   0  0  0  0  0  0  0  0  0  0  0  0
    8.7636  -15.7733   25.1006 C   0  0  1  0  0  0  0  0  0  0  0  0
    7.3376  -15.6088   25.5260 C   0  0  0  0  0  0  0  0  0  0  0  0
    6.9512  -14.2343   25.8988 C   0  0  0  0  0  0  0  0  0  0  0  0
    7.8450  -13.3381   26.4423 C   0  0  0  0  0  0  0  0  0  0  0  0
    7.4646  -12.0353   26.7833 C   0  0  0  0  0  0  0  0  0  0  0  0
    6.1717  -11.5997   26.5862 C   0  0  0  0  0  0  0  0  0  0  0  0
    5.2781  -12.4983   26.0423 C   0  0  0  0  0  0  0  0  0  0  0  0
    5.6509  -13.7825   25.7053 C   0  0  0  0  0  0  0  0  0  0  0  0
    9.3131  -17.0102   25.6798 C   0  0  0  0  0  0  0  0  0  0  0  0
    9.6348  -18.0813   24.8696 O   0  0  0  0  0  0  0  0  0  0  0  0
    9.4973  -17.1119   26.9115 O   0  0  0  0  0  0  0  0  0  0  0  0
  2  1  1  6
  2  4  1  0
  3  2  1  0
  4 10  1  0
  4  5  2  0
  7  6  1  1
  7  8  1  0
  9 11  1  0
  9  7  1  0
  9 10  1  1
 11 12  2  0
 13 14  1  0
 13 11  1  0
 14 15  1  1
 15 16  1  0
 16 21  2  0
 17 18  2  0
 17 16  1  0
 18 19  1  0
 19 20  2  0
 21 20  1  0
 22 14  1  0
 23 22  1  0
 24 22  2  0
M  END
$$$$
