AVF.pdb
     RDKit          3D

 24 24  0  0  1  0  0  0  0  0999 V2000
    6.0245  -14.7625   21.2302 C   0  0  0  0  0  0  0  0  0  0  0  0
    7.1626  -15.4354   20.5202 C   0  0  2  0  0  0  0  0  0  0  0  0
    6.7451  -16.0749   19.3043 N   0  0  0  0  0  0  0  0  0  0  0  0
    7.9136  -16.3592   21.4134 C   0  0  0  0  0  0  0  0  0  0  0  0
    7.5487  -17.5390   21.5580 O   0  0  0  0  0  0  0  0  0  0  0  0
   11.9745  -15.6225   22.1391 C   0  0  0  0  0  0  0  0  0  0  0  0
   11.1840  -16.8733   22.3329 C   0  0  2  0  0  0  0  0  0  0  0  0
   10.9748  -17.6087   21.0060 C   0  0  0  0  0  0  0  0  0  0  0  0
    9.8565  -16.7221   22.9920 C   0  0  2  0  0  0  0  0  0  0  0  0
    9.0483  -15.8814   22.0972 N   0  0  0  0  0  0  0  0  0  0  0  0
    9.8939  -16.1329   24.3497 C   0  0  0  0  0  0  0  0  0  0  0  0
   10.3740  -14.9496   24.4828 O   0  0  0  0  0  0  0  0  0  0  0  0
    9.4344  -16.7827   25.5151 N   0  0  0  0  0  0  0  0  0  0  0  0
    9.5622  -16.1886   26.8441 C   0  0  1  0  0  0  0  0  0  0  0  0
    8.1721  -15.8423   27.2792 C   0  0  0  0  0  0  0  0  0  0  0  0
    7.7007  -14.5078   26.8615 C   0  0  0  0  0  0  0  0  0  0  0  0
    8.3928  -13.3543   27.1582 C   0  0  0  0  0  0  0  0  0  0  0  0
    7.9362  -12.0967   26.7480 C   0  0  0  0  0  0  0  0  0  0  0  0
    6.7684  -11.9669   26.0273 C   0  0  0  0  0  0  0  0  0  0  0  0
    6.0766  -13.1226   25.7314 C   0  0  0  0  0  0  0  0  0  0  0  0
    6.5248  -14.3630   26.1345 C   0  0  0  0  0  0  0  0  0  0  0  0
   10.1254  -17.2040   27.7490 C   0  0  0  0  0  0  0  0  0  0  0  0
   10.5810  -16.8498   29.0036 O   0  0  0  0  0  0  0  0  0  0  0  0
   10.2007  -18.4010   27.3983 O   0  0  0  0  0  0  0  0  0  0  0  0
  2  1  1  1
  2  4  1  0
  3  2  1  0
  4 10  1  0
  4  5  2  0
  7  6  1  6
  7  8  1  0
  9 11  1  0
  9  7  1  0
  9 10  1  6
 11 12  2  0
 13 14  1  0
 13 11  1  0
 14 15  1  1
 15 16  1  0
 16 21  2  0
 17 18  2  0
 17 16  1  0
 18 19  1  0
 19 20  2  0
 21 20  1  0
 22 14  1  0
 23 22  1  0
 24 22  2  0
M  END
$$$$
