AVF.pdb
     RDKit          3D

 24 24  0  0  1  0  0  0  0  0999 V2000
    8.6143  -18.9939   20.8337 C   0  0  0  0  0  0  0  0  0  0  0  0
    8.7150  -17.9380   19.7721 C   0  0  2  0  0  0  0  0  0  0  0  0
    9.4453  -18.3898   18.6212 N   0  0  0  0  0  0  0  0  0  0  0  0
    9.2441  -16.6536   20.3063 C   0  0  0  0  0  0  0  0  0  0  0  0
   10.4654  -16.4202   20.3048 O   0  0  0  0  0  0  0  0  0  0  0  0
    6.3490  -13.6942   21.5698 C   0  0  0  0  0  0  0  0  0  0  0  0
    7.7063  -13.4282   21.0092 C   0  0  2  0  0  0  0  0  0  0  0  0
    7.6625  -13.3075   19.4832 C   0  0  0  0  0  0  0  0  0  0  0  0
    8.7729  -14.4053   21.3653 C   0  0  2  0  0  0  0  0  0  0  0  0
    8.3427  -15.6993   20.8167 N   0  0  0  0  0  0  0  0  0  0  0  0
    9.0488  -14.5321   22.8144 C   0  0  0  0  0  0  0  0  0  0  0  0
    9.2192  -13.4563   23.4943 O   0  0  0  0  0  0  0  0  0  0  0  0
    9.1361  -15.7590   23.5064 N   0  0  0  0  0  0  0  0  0  0  0  0
    8.9099  -15.8627   24.9463 C   0  0  1  0  0  0  0  0  0  0  0  0
    7.4665  -15.5301   25.1646 C   0  0  0  0  0  0  0  0  0  0  0  0
    7.2181  -14.2588   25.8716 C   0  0  0  0  0  0  0  0  0  0  0  0
    8.2069  -13.5926   26.5614 C   0  0  0  0  0  0  0  0  0  0  0  0
    7.9569  -12.3836   27.2204 C   0  0  0  0  0  0  0  0  0  0  0  0
    6.7024  -11.8126   27.2024 C   0  0  0  0  0  0  0  0  0  0  0  0
    5.7136  -12.4811   26.5116 C   0  0  0  0  0  0  0  0  0  0  0  0
    5.9578  -13.6725   25.8614 C   0  0  0  0  0  0  0  0  0  0  0  0
    9.1635  -17.2550   25.3520 C   0  0  0  0  0  0  0  0  0  0  0  0
   10.3742  -17.6127   25.9119 O   0  0  0  0  0  0  0  0  0  0  0  0
    8.2898  -18.1348   25.1971 O   0  0  0  0  0  0  0  0  0  0  0  0
  2  1  1  1
  2  4  1  0
  3  2  1  0
  4 10  1  0
  4  5  2  0
  7  6  1  6
  7  8  1  0
  9 11  1  0
  9  7  1  0
  9 10  1  1
 11 12  2  0
 13 14  1  0
 13 11  1  0
 14 15  1  6
 15 16  1  0
 16 21  2  0
 17 18  2  0
 17 16  1  0
 18 19  1  0
 19 20  2  0
 21 20  1  0
 22 14  1  0
 23 22  1  0
 24 22  2  0
M  END
$$$$
