KDW.pdb
     RDKit          3D

 32 33  0  0  1  0  0  0  0  0999 V2000
   27.6572  -20.1599  -15.5838 N   0  0  0  0  0  0  0  0  0  0  0  0
   27.8028  -18.9935  -14.7158 C   0  0  1  0  0  0  0  0  0  0  0  0
   27.6352  -17.7601  -15.4979 C   0  0  0  0  0  0  0  0  0  0  0  0
   28.5614  -17.5870  -16.6264 C   0  0  0  0  0  0  0  0  0  0  0  0
   29.0712  -18.6835  -17.4379 C   0  0  0  0  0  0  0  0  0  0  0  0
   30.0101  -18.4703  -18.5579 C   0  0  0  0  0  0  0  0  0  0  0  0
   30.3431  -19.7979  -19.1849 N   0  0  0  0  0  0  0  0  0  0  0  0
   26.7671  -19.0856  -13.6090 C   0  0  0  0  0  0  0  0  0  0  0  0
   26.5615  -18.1276  -12.8280 O   0  0  0  0  0  0  0  0  0  0  0  0
   26.0034  -20.2558  -13.4247 N   0  0  0  0  0  0  0  0  0  0  0  0
   24.9247  -20.3692  -12.4117 C   0  0  1  0  0  0  0  0  0  0  0  0
   23.7500  -21.0549  -13.0134 C   0  0  0  0  0  0  0  0  0  0  0  0
   23.1535  -20.2748  -14.1035 C   0  0  0  0  0  0  0  0  0  0  0  0
   22.8867  -19.0465  -14.0224 O   0  0  0  0  0  0  0  0  0  0  0  0
   25.4438  -21.0805  -11.2331 C   0  0  0  0  0  0  0  0  0  0  0  0
   26.5544  -21.7027  -11.3439 O   0  0  0  0  0  0  0  0  0  0  0  0
   22.8745  -20.9703  -15.2977 O   0  0  0  0  0  0  0  0  0  0  0  0
   24.8036  -21.1231   -9.9718 N   0  0  0  0  0  0  0  0  0  0  0  0
   25.5629  -21.0593   -8.7296 C   0  0  1  0  0  0  0  0  0  0  0  0
   26.6250  -19.9577   -8.8195 C   0  0  0  0  0  0  0  0  0  0  0  0
   27.8427  -20.3752   -8.0943 C   0  0  0  0  0  0  0  0  0  0  0  0
   28.8808  -21.1902   -8.4806 C   0  0  0  0  0  0  0  0  0  0  0  0
   29.7856  -21.2908   -7.4910 N   0  0  0  0  0  0  0  0  0  0  0  0
   29.3678  -20.5439   -6.4248 C   0  0  0  0  0  0  0  0  0  0  0  0
   29.9105  -20.3029   -5.1780 C   0  0  0  0  0  0  0  0  0  0  0  0
   29.2718  -19.4908   -4.2669 C   0  0  0  0  0  0  0  0  0  0  0  0
   28.0679  -18.9150   -4.6213 C   0  0  0  0  0  0  0  0  0  0  0  0
   27.5409  -19.1667   -5.8698 C   0  0  0  0  0  0  0  0  0  0  0  0
   28.1687  -19.9788   -6.7964 C   0  0  0  0  0  0  0  0  0  0  0  0
   24.7478  -20.9357   -7.5248 C   0  0  0  0  0  0  0  0  0  0  0  0
   23.6988  -20.2624   -7.4700 O   0  0  0  0  0  0  0  0  0  0  0  0
   25.0973  -21.5809   -6.3218 O   0  0  0  0  0  0  0  0  0  0  0  0
  2  3  1  0
  2  1  1  6
  3  4  1  0
  5  4  1  0
  6  5  1  0
  7  6  1  0
  8  2  1  0
  8  9  2  0
 10  8  1  0
 11 10  1  0
 12 13  1  0
 11 12  1  6
 13 14  2  0
 15 18  1  0
 15 11  1  0
 16 15  2  0
 17 13  1  0
 19 18  1  0
 19 30  1  0
 19 20  1  6
 21 20  1  0
 21 29  1  0
 22 23  1  0
 22 21  2  0
 23 24  1  0
 24 25  1  0
 24 29  2  0
 25 26  2  0
 26 27  1  0
 28 27  2  0
 29 28  1  0
 30 31  2  0
 30 32  1  0
M  END
$$$$
