KDW.pdb
     RDKit          3D

 32 33  0  0  1  0  0  0  0  0999 V2000
   23.5987  -36.5630   -5.6504 N   0  0  0  0  0  0  0  0  0  0  0  0
   24.7473  -35.8268   -5.1269 C   0  0  1  0  0  0  0  0  0  0  0  0
   24.6980  -34.4291   -5.5796 C   0  0  0  0  0  0  0  0  0  0  0  0
   25.0716  -34.1972   -6.9824 C   0  0  0  0  0  0  0  0  0  0  0  0
   25.1241  -32.8819   -7.6051 C   0  0  0  0  0  0  0  0  0  0  0  0
   25.6131  -32.6767   -8.9835 C   0  0  0  0  0  0  0  0  0  0  0  0
   25.5433  -31.2112   -9.3211 N   0  0  0  0  0  0  0  0  0  0  0  0
   24.7231  -35.9131   -3.6109 C   0  0  0  0  0  0  0  0  0  0  0  0
   23.6434  -35.9061   -2.9753 O   0  0  0  0  0  0  0  0  0  0  0  0
   25.9185  -36.0026   -2.8695 N   0  0  0  0  0  0  0  0  0  0  0  0
   25.9503  -36.0749   -1.3875 C   0  0  1  0  0  0  0  0  0  0  0  0
   27.1825  -36.7850   -0.9523 C   0  0  0  0  0  0  0  0  0  0  0  0
   27.1469  -37.1307    0.4731 C   0  0  0  0  0  0  0  0  0  0  0  0
   26.9330  -38.2935    0.9075 O   0  0  0  0  0  0  0  0  0  0  0  0
   25.8661  -34.7131   -0.8372 C   0  0  0  0  0  0  0  0  0  0  0  0
   26.4697  -33.7728   -1.4570 O   0  0  0  0  0  0  0  0  0  0  0  0
   27.3684  -36.0773    1.3835 O   0  0  0  0  0  0  0  0  0  0  0  0
   25.1550  -34.3607    0.3346 N   0  0  0  0  0  0  0  0  0  0  0  0
   24.9745  -32.9688    0.7265 C   0  0  1  0  0  0  0  0  0  0  0  0
   24.3273  -32.1808   -0.4180 C   0  0  0  0  0  0  0  0  0  0  0  0
   23.8358  -30.8809    0.0836 C   0  0  0  0  0  0  0  0  0  0  0  0
   24.3082  -30.0723    1.0907 C   0  0  0  0  0  0  0  0  0  0  0  0
   23.5436  -28.9715    1.1999 N   0  0  0  0  0  0  0  0  0  0  0  0
   22.5458  -29.0251    0.2668 C   0  0  0  0  0  0  0  0  0  0  0  0
   21.5081  -28.1697   -0.0473 C   0  0  0  0  0  0  0  0  0  0  0  0
   20.6205  -28.4661   -1.0581 C   0  0  0  0  0  0  0  0  0  0  0  0
   20.7841  -29.6435   -1.7605 C   0  0  0  0  0  0  0  0  0  0  0  0
   21.8254  -30.4855   -1.4334 C   0  0  0  0  0  0  0  0  0  0  0  0
   22.7255  -30.2033   -0.4223 C   0  0  0  0  0  0  0  0  0  0  0  0
   24.2665  -32.7799    1.9891 C   0  0  0  0  0  0  0  0  0  0  0  0
   23.3487  -33.5283    2.3818 O   0  0  0  0  0  0  0  0  0  0  0  0
   24.5785  -31.7209    2.8647 O   0  0  0  0  0  0  0  0  0  0  0  0
  2  3  1  0
  2  1  1  6
  3  4  1  0
  5  4  1  0
  6  5  1  0
  7  6  1  0
  8  2  1  0
  8  9  2  0
 10  8  1  0
 11 10  1  0
 12 13  1  0
 11 12  1  6
 13 14  2  0
 15 18  1  0
 15 11  1  0
 16 15  2  0
 17 13  1  0
 19 18  1  0
 19 30  1  0
 19 20  1  6
 21 20  1  0
 21 29  1  0
 22 23  1  0
 22 21  2  0
 23 24  1  0
 24 25  1  0
 24 29  2  0
 25 26  2  0
 26 27  1  0
 28 27  2  0
 29 28  1  0
 30 31  2  0
 30 32  1  0
M  END
$$$$
