KDW.pdb
     RDKit          3D

 32 33  0  0  1  0  0  0  0  0999 V2000
   28.4960  -20.4537  -15.4988 N   0  0  0  0  0  0  0  0  0  0  0  0
   28.2256  -19.2217  -14.7610 C   0  0  1  0  0  0  0  0  0  0  0  0
   27.9228  -18.1302  -15.6979 C   0  0  0  0  0  0  0  0  0  0  0  0
   28.5994  -18.1992  -17.0012 C   0  0  0  0  0  0  0  0  0  0  0  0
   28.6579  -19.3974  -17.8267 C   0  0  0  0  0  0  0  0  0  0  0  0
   29.3059  -19.4145  -19.1538 C   0  0  0  0  0  0  0  0  0  0  0  0
   29.3041  -20.8220  -19.6881 N   0  0  0  0  0  0  0  0  0  0  0  0
   27.0628  -19.4721  -13.8169 C   0  0  0  0  0  0  0  0  0  0  0  0
   26.5829  -18.5510  -13.1160 O   0  0  0  0  0  0  0  0  0  0  0  0
   26.4863  -20.7528  -13.6986 N   0  0  0  0  0  0  0  0  0  0  0  0
   25.3359  -21.0453  -12.8076 C   0  0  1  0  0  0  0  0  0  0  0  0
   24.2569  -21.7037  -13.5915 C   0  0  0  0  0  0  0  0  0  0  0  0
   24.7913  -22.6082  -14.6158 C   0  0  0  0  0  0  0  0  0  0  0  0
   24.0827  -23.4043  -15.2869 O   0  0  0  0  0  0  0  0  0  0  0  0
   25.7963  -21.8754  -11.6837 C   0  0  0  0  0  0  0  0  0  0  0  0
   25.1522  -22.9473  -11.4209 O   0  0  0  0  0  0  0  0  0  0  0  0
   26.1828  -22.5589  -14.8370 O   0  0  0  0  0  0  0  0  0  0  0  0
   26.9132  -21.5774  -10.8672 N   0  0  0  0  0  0  0  0  0  0  0  0
   26.7521  -21.1322   -9.4890 C   0  0  1  0  0  0  0  0  0  0  0  0
   27.8151  -20.0814   -9.1491 C   0  0  0  0  0  0  0  0  0  0  0  0
   27.6608  -19.6483   -7.7449 C   0  0  0  0  0  0  0  0  0  0  0  0
   26.7137  -18.8456   -7.1535 C   0  0  0  0  0  0  0  0  0  0  0  0
   26.9650  -18.7219   -5.8384 N   0  0  0  0  0  0  0  0  0  0  0  0
   28.0857  -19.4407   -5.5273 C   0  0  0  0  0  0  0  0  0  0  0  0
   28.7668  -19.6514   -4.3446 C   0  0  0  0  0  0  0  0  0  0  0  0
   29.8962  -20.4387   -4.3024 C   0  0  0  0  0  0  0  0  0  0  0  0
   30.3432  -21.0207   -5.4720 C   0  0  0  0  0  0  0  0  0  0  0  0
   29.6510  -20.7995   -6.6434 C   0  0  0  0  0  0  0  0  0  0  0  0
   28.5156  -20.0125   -6.7035 C   0  0  0  0  0  0  0  0  0  0  0  0
   25.4066  -20.6782   -9.1504 C   0  0  0  0  0  0  0  0  0  0  0  0
   24.7184  -21.1841   -8.2409 O   0  0  0  0  0  0  0  0  0  0  0  0
   24.7843  -19.6188   -9.8403 O   0  0  0  0  0  0  0  0  0  0  0  0
  2  3  1  0
  2  1  1  6
  3  4  1  0
  5  4  1  0
  6  5  1  0
  7  6  1  0
  8  2  1  0
  8  9  2  0
 10  8  1  0
 11 10  1  0
 12 13  1  0
 11 12  1  6
 13 14  2  0
 15 18  1  0
 15 11  1  0
 16 15  2  0
 17 13  1  0
 19 18  1  0
 19 30  1  0
 19 20  1  6
 21 20  1  0
 21 29  1  0
 22 23  1  0
 22 21  2  0
 23 24  1  0
 24 25  1  0
 24 29  2  0
 25 26  2  0
 26 27  1  0
 28 27  2  0
 29 28  1  0
 30 31  2  0
 30 32  1  0
M  END
$$$$
