KDW.pdb
     RDKit          3D

 32 33  0  0  1  0  0  0  0  0999 V2000
   17.4608  -11.1480  -17.5678 N   0  0  0  0  0  0  0  0  0  0  0  0
   18.5164  -10.3171  -18.1427 C   0  0  1  0  0  0  0  0  0  0  0  0
   18.5312  -10.4629  -19.6054 C   0  0  0  0  0  0  0  0  0  0  0  0
   18.1720  -11.7924  -20.1197 C   0  0  0  0  0  0  0  0  0  0  0  0
   17.6983  -12.8882  -19.2858 C   0  0  0  0  0  0  0  0  0  0  0  0
   17.2997  -14.1953  -19.8461 C   0  0  0  0  0  0  0  0  0  0  0  0
   18.5078  -15.0904  -19.9238 N   0  0  0  0  0  0  0  0  0  0  0  0
   18.2668   -8.8747  -17.7382 C   0  0  0  0  0  0  0  0  0  0  0  0
   19.0140   -7.9492  -18.1318 O   0  0  0  0  0  0  0  0  0  0  0  0
   17.1840   -8.5316  -16.9037 N   0  0  0  0  0  0  0  0  0  0  0  0
   16.9379   -7.1498  -16.4212 C   0  0  1  0  0  0  0  0  0  0  0  0
   17.2306   -7.0740  -14.9649 C   0  0  0  0  0  0  0  0  0  0  0  0
   16.2359   -7.7954  -14.1631 C   0  0  0  0  0  0  0  0  0  0  0  0
   15.0304   -7.4455  -14.0606 O   0  0  0  0  0  0  0  0  0  0  0  0
   17.7572   -6.2129  -17.2056 C   0  0  0  0  0  0  0  0  0  0  0  0
   19.0193   -6.4070  -17.2519 O   0  0  0  0  0  0  0  0  0  0  0  0
   16.6883   -8.9426  -13.4798 O   0  0  0  0  0  0  0  0  0  0  0  0
   17.2480   -5.1057  -17.9250 N   0  0  0  0  0  0  0  0  0  0  0  0
   18.1326   -4.1526  -18.5829 C   0  0  1  0  0  0  0  0  0  0  0  0
   17.5256   -3.7084  -19.9185 C   0  0  0  0  0  0  0  0  0  0  0  0
   17.6481   -4.7959  -20.9111 C   0  0  0  0  0  0  0  0  0  0  0  0
   17.2910   -6.1218  -20.8365 C   0  0  0  0  0  0  0  0  0  0  0  0
   17.5872   -6.7484  -21.9888 N   0  0  0  0  0  0  0  0  0  0  0  0
   18.1480   -5.8513  -22.8548 C   0  0  0  0  0  0  0  0  0  0  0  0
   18.6243   -5.9657  -24.1459 C   0  0  0  0  0  0  0  0  0  0  0  0
   19.1519   -4.8805  -24.8104 C   0  0  0  0  0  0  0  0  0  0  0  0
   19.1988   -3.6633  -24.1603 C   0  0  0  0  0  0  0  0  0  0  0  0
   18.7191   -3.5674  -22.8716 C   0  0  0  0  0  0  0  0  0  0  0  0
   18.1860   -4.6462  -22.1902 C   0  0  0  0  0  0  0  0  0  0  0  0
   18.5242   -3.0156  -17.7552 C   0  0  0  0  0  0  0  0  0  0  0  0
   19.2075   -2.0607  -18.1770 O   0  0  0  0  0  0  0  0  0  0  0  0
   18.1494   -2.9188  -16.4003 O   0  0  0  0  0  0  0  0  0  0  0  0
  2  3  1  0
  2  1  1  1
  3  4  1  0
  5  4  1  0
  6  5  1  0
  7  6  1  0
  8  2  1  0
  8  9  2  0
 10  8  1  0
 11 10  1  0
 12 13  1  0
 11 12  1  1
 13 14  2  0
 15 18  1  0
 15 11  1  0
 16 15  2  0
 17 13  1  0
 19 18  1  0
 19 30  1  0
 19 20  1  6
 21 20  1  0
 21 29  1  0
 22 23  1  0
 22 21  2  0
 23 24  1  0
 24 25  1  0
 24 29  2  0
 25 26  2  0
 26 27  1  0
 28 27  2  0
 29 28  1  0
 30 31  2  0
 30 32  1  0
M  END
$$$$
