IIP.pdb
     RDKit          3D

 24 24  0  0  1  0  0  0  0  0999 V2000
   21.9738  -22.0199  -16.7186 C   0  0  0  0  0  0  0  0  0  0  0  0
   21.9359  -21.1687  -15.5001 C   0  0  0  0  0  0  0  0  0  0  0  0
   21.5708  -21.9256  -14.2278 C   0  0  2  0  0  0  0  0  0  0  0  0
   20.1696  -22.4747  -14.3984 C   0  0  0  0  0  0  0  0  0  0  0  0
   21.5610  -20.9558  -13.0554 C   0  0  2  0  0  0  0  0  0  0  0  0
   20.6652  -19.8211  -13.4437 N   0  0  0  0  0  0  0  0  0  0  0  0
   22.8701  -20.3252  -12.8497 C   0  0  0  0  0  0  0  0  0  0  0  0
   23.1664  -19.2998  -13.5253 O   0  0  0  0  0  0  0  0  0  0  0  0
   26.1368  -20.8953   -8.3944 C   0  0  0  0  0  0  0  0  0  0  0  0
   25.3715  -20.2664   -9.5830 C   0  0  0  0  0  0  0  0  0  0  0  0
   25.9730  -20.8758  -10.8024 C   0  0  2  0  0  0  0  0  0  0  0  0
   27.4403  -20.4630  -10.8694 C   0  0  0  0  0  0  0  0  0  0  0  0
   25.2591  -20.5029  -12.1109 C   0  0  2  0  0  0  0  0  0  0  0  0
   23.8575  -20.7827  -11.9187 N   0  0  0  0  0  0  0  0  0  0  0  0
   25.9374  -20.9818  -13.2802 C   0  0  0  0  0  0  0  0  0  0  0  0
   25.6986  -22.2372  -13.6051 O   0  0  0  0  0  0  0  0  0  0  0  0
   26.8328  -20.3702  -14.1848 N   0  0  0  0  0  0  0  0  0  0  0  0
   27.5982  -19.1267  -13.8759 C   0  0  0  0  0  0  0  0  0  0  0  0
   27.2248  -18.3044  -15.1012 C   0  0  0  0  0  0  0  0  0  0  0  0
   27.4002  -19.3024  -16.1942 C   0  0  0  0  0  0  0  0  0  0  0  0
   27.2720  -20.6809  -15.5203 C   0  0  1  0  0  0  0  0  0  0  0  0
   28.6093  -21.3393  -15.4858 C   0  0  0  0  0  0  0  0  0  0  0  0
   29.1516  -22.0330  -16.5532 O   0  0  0  0  0  0  0  0  0  0  0  0
   29.2837  -21.2629  -14.4332 O   0  0  0  0  0  0  0  0  0  0  0  0
  2  3  1  0
  2  1  1  0
  3  4  1  6
  5  6  1  6
  5  3  1  0
  7  5  1  0
  8  7  2  0
  9 10  1  0
 11 13  1  0
 11 12  1  6
 11 10  1  0
 13 14  1  1
 14  7  1  0
 15 13  1  0
 15 16  2  0
 17 15  1  0
 18 17  1  0
 19 18  1  0
 20 19  1  0
 20 21  1  0
 21 17  1  0
 21 22  1  1
 22 23  1  0
 24 22  2  0
M  END
$$$$
