IIP.pdb
     RDKit          3D

 24 24  0  0  1  0  0  0  0  0999 V2000
   23.0051  -15.7819  -18.0370 C   0  0  0  0  0  0  0  0  0  0  0  0
   23.7885  -15.8608  -16.7757 C   0  0  0  0  0  0  0  0  0  0  0  0
   24.2896  -17.2625  -16.4453 C   0  0  2  0  0  0  0  0  0  0  0  0
   23.0818  -18.1595  -16.2700 C   0  0  0  0  0  0  0  0  0  0  0  0
   25.0474  -17.2237  -15.1265 C   0  0  2  0  0  0  0  0  0  0  0  0
   26.3104  -16.4608  -15.3789 N   0  0  0  0  0  0  0  0  0  0  0  0
   25.5085  -18.5550  -14.7155 C   0  0  0  0  0  0  0  0  0  0  0  0
   26.3554  -19.1563  -15.4342 O   0  0  0  0  0  0  0  0  0  0  0  0
   25.7077  -20.2965   -9.5397 C   0  0  0  0  0  0  0  0  0  0  0  0
   26.0905  -19.9885  -11.0068 C   0  0  0  0  0  0  0  0  0  0  0  0
   25.2578  -20.9096  -11.8303 C   0  0  2  0  0  0  0  0  0  0  0  0
   25.6866  -22.3421  -11.5271 C   0  0  0  0  0  0  0  0  0  0  0  0
   25.3323  -20.6448  -13.3420 C   0  0  2  0  0  0  0  0  0  0  0  0
   25.0732  -19.2393  -13.5350 N   0  0  0  0  0  0  0  0  0  0  0  0
   24.6299  -21.6224  -14.1215 C   0  0  0  0  0  0  0  0  0  0  0  0
   23.3257  -21.4508  -14.2123 O   0  0  0  0  0  0  0  0  0  0  0  0
   25.0569  -22.7632  -14.8357 N   0  0  0  0  0  0  0  0  0  0  0  0
   26.4579  -23.2773  -14.8102 C   0  0  0  0  0  0  0  0  0  0  0  0
   26.7088  -23.3645  -16.3090 C   0  0  0  0  0  0  0  0  0  0  0  0
   25.4508  -24.0067  -16.7847 C   0  0  0  0  0  0  0  0  0  0  0  0
   24.3972  -23.7040  -15.7035 C   0  0  1  0  0  0  0  0  0  0  0  0
   24.0777  -24.9572  -14.9615 C   0  0  0  0  0  0  0  0  0  0  0  0
   23.1224  -25.8702  -15.3718 O   0  0  0  0  0  0  0  0  0  0  0  0
   24.7071  -25.2015  -13.9066 O   0  0  0  0  0  0  0  0  0  0  0  0
  2  3  1  0
  2  1  1  0
  3  4  1  1
  5  6  1  6
  5  3  1  0
  7  5  1  0
  8  7  2  0
  9 10  1  0
 11 13  1  0
 11 12  1  6
 11 10  1  0
 13 14  1  1
 14  7  1  0
 15 13  1  0
 15 16  2  0
 17 15  1  0
 18 17  1  0
 19 18  1  0
 20 19  1  0
 20 21  1  0
 21 17  1  0
 21 22  1  1
 22 23  1  0
 24 22  2  0
M  END
$$$$
