IIP.pdb
     RDKit          3D

 24 24  0  0  1  0  0  0  0  0999 V2000
   26.1581  -14.5672  -16.2730 C   0  0  0  0  0  0  0  0  0  0  0  0
   24.7335  -14.4361  -15.8680 C   0  0  0  0  0  0  0  0  0  0  0  0
   24.1404  -13.0559  -16.1292 C   0  0  2  0  0  0  0  0  0  0  0  0
   24.9056  -12.0538  -15.2899 C   0  0  0  0  0  0  0  0  0  0  0  0
   22.6877  -13.0429  -15.6769 C   0  0  2  0  0  0  0  0  0  0  0  0
   21.9497  -13.9867  -16.5744 N   0  0  0  0  0  0  0  0  0  0  0  0
   22.0466  -11.7448  -15.9163 C   0  0  0  0  0  0  0  0  0  0  0  0
   22.0516  -11.2681  -17.0861 O   0  0  0  0  0  0  0  0  0  0  0  0
   17.1810  -10.6220  -15.5628 C   0  0  0  0  0  0  0  0  0  0  0  0
   18.6687  -10.6251  -15.9879 C   0  0  0  0  0  0  0  0  0  0  0  0
   19.3526   -9.7155  -15.0262 C   0  0  2  0  0  0  0  0  0  0  0  0
   18.7442   -8.3236  -15.1690 C   0  0  0  0  0  0  0  0  0  0  0  0
   20.8776   -9.6458  -15.2005 C   0  0  2  0  0  0  0  0  0  0  0  0
   21.3936  -10.9609  -14.9111 N   0  0  0  0  0  0  0  0  0  0  0  0
   21.4634   -8.4891  -14.5875 C   0  0  0  0  0  0  0  0  0  0  0  0
   21.7521   -8.6062  -13.3063 O   0  0  0  0  0  0  0  0  0  0  0  0
   21.8082   -7.2135  -15.0854 N   0  0  0  0  0  0  0  0  0  0  0  0
   21.4224   -6.7242  -16.4417 C   0  0  0  0  0  0  0  0  0  0  0  0
   22.7935   -6.2875  -16.9382 C   0  0  0  0  0  0  0  0  0  0  0  0
   23.3167   -5.5474  -15.7550 C   0  0  0  0  0  0  0  0  0  0  0  0
   22.5340   -6.0928  -14.5464 C   0  0  1  0  0  0  0  0  0  0  0  0
   21.5878   -5.0486  -14.0595 C   0  0  0  0  0  0  0  0  0  0  0  0
   21.9324   -4.0636  -13.1508 O   0  0  0  0  0  0  0  0  0  0  0  0
   20.4135   -5.0595  -14.4948 O   0  0  0  0  0  0  0  0  0  0  0  0
  2  3  1  0
  2  1  1  0
  3  4  1  1
  5  6  1  6
  5  3  1  0
  7  5  1  0
  8  7  2  0
  9 10  1  0
 11 13  1  0
 11 12  1  6
 11 10  1  0
 13 14  1  1
 14  7  1  0
 15 13  1  0
 15 16  2  0
 17 15  1  0
 18 17  1  0
 19 18  1  0
 20 19  1  0
 20 21  1  0
 21 17  1  0
 21 22  1  6
 22 23  1  0
 24 22  2  0
M  END
$$$$
