IIP.pdb
     RDKit          3D

 24 24  0  0  1  0  0  0  0  0999 V2000
   18.2987  -20.4093  -15.7940 C   0  0  0  0  0  0  0  0  0  0  0  0
   19.1988  -20.8912  -14.7132 C   0  0  0  0  0  0  0  0  0  0  0  0
   20.5128  -20.1239  -14.6143 C   0  0  2  0  0  0  0  0  0  0  0  0
   21.2014  -20.2040  -15.9610 C   0  0  0  0  0  0  0  0  0  0  0  0
   21.4071  -20.7963  -13.5832 C   0  0  2  0  0  0  0  0  0  0  0  0
   20.7677  -20.5722  -12.2483 N   0  0  0  0  0  0  0  0  0  0  0  0
   22.7130  -20.1363  -13.4709 C   0  0  0  0  0  0  0  0  0  0  0  0
   22.7525  -18.9052  -13.1906 O   0  0  0  0  0  0  0  0  0  0  0  0
   26.9909  -21.6476  -10.7786 C   0  0  0  0  0  0  0  0  0  0  0  0
   25.8452  -20.8572  -11.4541 C   0  0  0  0  0  0  0  0  0  0  0  0
   26.2427  -20.7375  -12.8851 C   0  0  2  0  0  0  0  0  0  0  0  0
   27.5714  -19.9906  -12.9515 C   0  0  0  0  0  0  0  0  0  0  0  0
   25.1999  -20.0404  -13.7725 C   0  0  2  0  0  0  0  0  0  0  0  0
   23.9745  -20.7906  -13.6486 N   0  0  0  0  0  0  0  0  0  0  0  0
   25.7048  -19.6910  -15.0685 C   0  0  0  0  0  0  0  0  0  0  0  0
   25.5730  -20.6141  -16.0008 O   0  0  0  0  0  0  0  0  0  0  0  0
   26.3303  -18.5287  -15.5702 N   0  0  0  0  0  0  0  0  0  0  0  0
   26.9050  -17.4595  -14.7017 C   0  0  0  0  0  0  0  0  0  0  0  0
   26.2105  -16.2523  -15.3160 C   0  0  0  0  0  0  0  0  0  0  0  0
   26.3880  -16.5157  -16.7722 C   0  0  0  0  0  0  0  0  0  0  0  0
   26.6073  -18.0349  -16.8941 C   0  0  1  0  0  0  0  0  0  0  0  0
   28.0283  -18.3004  -17.2593 C   0  0  0  0  0  0  0  0  0  0  0  0
   28.5417  -18.1159  -18.5309 O   0  0  0  0  0  0  0  0  0  0  0  0
   28.8048  -18.7139  -16.3680 O   0  0  0  0  0  0  0  0  0  0  0  0
  2  3  1  0
  2  1  1  0
  3  4  1  6
  5  6  1  1
  5  3  1  0
  7  5  1  0
  8  7  2  0
  9 10  1  0
 11 13  1  0
 11 12  1  1
 11 10  1  0
 13 14  1  6
 14  7  1  0
 15 13  1  0
 15 16  2  0
 17 15  1  0
 18 17  1  0
 19 18  1  0
 20 19  1  0
 20 21  1  0
 21 17  1  0
 21 22  1  1
 22 23  1  0
 24 22  2  0
M  END
$$$$
