IIP.pdb
     RDKit          3D

 24 24  0  0  1  0  0  0  0  0999 V2000
   27.6760  -18.9777   -5.7063 C   0  0  0  0  0  0  0  0  0  0  0  0
   26.3548  -19.4291   -6.2173 C   0  0  0  0  0  0  0  0  0  0  0  0
   26.3929  -19.9620   -7.6454 C   0  0  2  0  0  0  0  0  0  0  0  0
   26.9659  -18.8762   -8.5325 C   0  0  0  0  0  0  0  0  0  0  0  0
   24.9728  -20.2526   -8.1080 C   0  0  2  0  0  0  0  0  0  0  0  0
   24.4861  -21.4136   -7.2979 N   0  0  0  0  0  0  0  0  0  0  0  0
   24.9316  -20.7385   -9.4921 C   0  0  0  0  0  0  0  0  0  0  0  0
   25.4968  -21.8331   -9.7717 O   0  0  0  0  0  0  0  0  0  0  0  0
   20.7801  -21.4306  -12.4611 C   0  0  0  0  0  0  0  0  0  0  0  0
   22.1510  -21.5166  -11.7489 C   0  0  0  0  0  0  0  0  0  0  0  0
   23.0626  -20.6508  -12.5485 C   0  0  2  0  0  0  0  0  0  0  0  0
   23.1669  -21.2355  -13.9539 C   0  0  0  0  0  0  0  0  0  0  0  0
   24.4640  -20.4814  -11.9416 C   0  0  2  0  0  0  0  0  0  0  0  0
   24.2811  -20.0621  -10.5740 N   0  0  0  0  0  0  0  0  0  0  0  0
   25.3687  -19.7727  -12.7995 C   0  0  0  0  0  0  0  0  0  0  0  0
   25.2812  -18.4576  -12.7600 O   0  0  0  0  0  0  0  0  0  0  0  0
   26.3653  -20.2022  -13.7029 N   0  0  0  0  0  0  0  0  0  0  0  0
   26.5857  -21.6317  -14.0712 C   0  0  0  0  0  0  0  0  0  0  0  0
   28.0795  -21.7235  -13.7932 C   0  0  0  0  0  0  0  0  0  0  0  0
   28.5784  -20.4720  -14.4304 C   0  0  0  0  0  0  0  0  0  0  0  0
   27.3669  -19.5231  -14.4831 C   0  0  1  0  0  0  0  0  0  0  0  0
   26.9137  -19.3797  -15.8962 C   0  0  0  0  0  0  0  0  0  0  0  0
   27.5361  -18.5623  -16.8231 O   0  0  0  0  0  0  0  0  0  0  0  0
   25.9136  -20.0342  -16.2701 O   0  0  0  0  0  0  0  0  0  0  0  0
  2  3  1  0
  2  1  1  0
  3  4  1  6
  5  6  1  1
  5  3  1  0
  7  5  1  0
  8  7  2  0
  9 10  1  0
 11 13  1  0
 11 12  1  6
 11 10  1  0
 13 14  1  1
 14  7  1  0
 15 13  1  0
 15 16  2  0
 17 15  1  0
 18 17  1  0
 19 18  1  0
 20 19  1  0
 20 21  1  0
 21 17  1  0
 21 22  1  6
 22 23  1  0
 24 22  2  0
M  END
$$$$
