IIP.pdb
     RDKit          3D

 24 24  0  0  1  0  0  0  0  0999 V2000
   19.4359  -22.2285  -16.8271 C   0  0  0  0  0  0  0  0  0  0  0  0
   19.7568  -21.9315  -15.4060 C   0  0  0  0  0  0  0  0  0  0  0  0
   21.1327  -21.3077  -15.1998 C   0  0  2  0  0  0  0  0  0  0  0  0
   22.1692  -22.2865  -15.7111 C   0  0  0  0  0  0  0  0  0  0  0  0
   21.3689  -21.1007  -13.7110 C   0  0  2  0  0  0  0  0  0  0  0  0
   20.3853  -20.0666  -13.2594 N   0  0  0  0  0  0  0  0  0  0  0  0
   22.6773  -20.4945  -13.4387 C   0  0  0  0  0  0  0  0  0  0  0  0
   22.9219  -19.3412  -13.8924 O   0  0  0  0  0  0  0  0  0  0  0  0
   25.8900  -20.9602   -9.0566 C   0  0  0  0  0  0  0  0  0  0  0  0
   25.1409  -20.3828  -10.2811 C   0  0  0  0  0  0  0  0  0  0  0  0
   25.7831  -21.0158  -11.4671 C   0  0  2  0  0  0  0  0  0  0  0  0
   27.2434  -20.5760  -11.5121 C   0  0  0  0  0  0  0  0  0  0  0  0
   25.0939  -20.6960  -12.8026 C   0  0  2  0  0  0  0  0  0  0  0  0
   23.7195  -21.1140  -12.6762 N   0  0  0  0  0  0  0  0  0  0  0  0
   25.8663  -21.0897  -13.9450 C   0  0  0  0  0  0  0  0  0  0  0  0
   25.7706  -22.3589  -14.2892 O   0  0  0  0  0  0  0  0  0  0  0  0
   26.7321  -20.3798  -14.8054 N   0  0  0  0  0  0  0  0  0  0  0  0
   27.4376  -19.1238  -14.4149 C   0  0  0  0  0  0  0  0  0  0  0  0
   27.0263  -18.2433  -15.5865 C   0  0  0  0  0  0  0  0  0  0  0  0
   27.2493  -19.1599  -16.7404 C   0  0  0  0  0  0  0  0  0  0  0  0
   27.1863  -20.5832  -16.1565 C   0  0  1  0  0  0  0  0  0  0  0  0
   28.5533  -21.1785  -16.1594 C   0  0  0  0  0  0  0  0  0  0  0  0
   29.1356  -21.7593  -17.2722 O   0  0  0  0  0  0  0  0  0  0  0  0
   29.2158  -21.1539  -15.0969 O   0  0  0  0  0  0  0  0  0  0  0  0
  2  3  1  0
  2  1  1  0
  3  4  1  1
  5  6  1  6
  5  3  1  0
  7  5  1  0
  8  7  2  0
  9 10  1  0
 11 13  1  0
 11 12  1  6
 11 10  1  0
 13 14  1  1
 14  7  1  0
 15 13  1  0
 15 16  2  0
 17 15  1  0
 18 17  1  0
 19 18  1  0
 20 19  1  0
 20 21  1  0
 21 17  1  0
 21 22  1  1
 22 23  1  0
 24 22  2  0
M  END
$$$$
