IIP.pdb
     RDKit          3D

 24 24  0  0  1  0  0  0  0  0999 V2000
   18.6544  -20.6948  -16.1639 C   0  0  0  0  0  0  0  0  0  0  0  0
   19.2227  -20.8019  -14.7942 C   0  0  0  0  0  0  0  0  0  0  0  0
   20.6572  -20.2981  -14.6784 C   0  0  2  0  0  0  0  0  0  0  0  0
   21.5004  -21.0592  -15.6802 C   0  0  0  0  0  0  0  0  0  0  0  0
   21.1833  -20.6057  -13.2842 C   0  0  2  0  0  0  0  0  0  0  0  0
   20.4161  -19.7394  -12.3346 N   0  0  0  0  0  0  0  0  0  0  0  0
   22.5769  -20.1787  -13.1135 C   0  0  0  0  0  0  0  0  0  0  0  0
   22.8664  -18.9603  -13.2783 O   0  0  0  0  0  0  0  0  0  0  0  0
   25.6967  -20.9295   -9.0628 C   0  0  0  0  0  0  0  0  0  0  0  0
   25.0063  -20.3167  -10.3044 C   0  0  0  0  0  0  0  0  0  0  0  0
   25.6765  -20.9474  -11.4762 C   0  0  2  0  0  0  0  0  0  0  0  0
   27.1419  -20.5225  -11.4750 C   0  0  0  0  0  0  0  0  0  0  0  0
   25.0299  -20.6103  -12.8287 C   0  0  2  0  0  0  0  0  0  0  0  0
   23.6579  -21.0487  -12.7588 N   0  0  0  0  0  0  0  0  0  0  0  0
   25.8472  -20.9712  -13.9505 C   0  0  0  0  0  0  0  0  0  0  0  0
   25.7010  -22.2058  -14.3900 O   0  0  0  0  0  0  0  0  0  0  0  0
   26.8028  -20.2581  -14.7070 N   0  0  0  0  0  0  0  0  0  0  0  0
   27.6241  -19.1397  -14.1572 C   0  0  0  0  0  0  0  0  0  0  0  0
   27.3350  -18.0861  -15.2171 C   0  0  0  0  0  0  0  0  0  0  0  0
   27.4910  -18.8753  -16.4718 C   0  0  0  0  0  0  0  0  0  0  0  0
   27.2670  -20.3440  -16.0673 C   0  0  1  0  0  0  0  0  0  0  0  0
   28.5650  -21.0754  -16.1264 C   0  0  0  0  0  0  0  0  0  0  0  0
   29.1743  -21.4642  -17.3063 O   0  0  0  0  0  0  0  0  0  0  0  0
   29.1400  -21.3558  -15.0498 O   0  0  0  0  0  0  0  0  0  0  0  0
  2  3  1  0
  2  1  1  0
  3  4  1  6
  5  6  1  1
  5  3  1  0
  7  5  1  0
  8  7  2  0
  9 10  1  0
 11 13  1  0
 11 12  1  6
 11 10  1  0
 13 14  1  6
 14  7  1  0
 15 13  1  0
 15 16  2  0
 17 15  1  0
 18 17  1  0
 19 18  1  0
 20 19  1  0
 20 21  1  0
 21 17  1  0
 21 22  1  1
 22 23  1  0
 24 22  2  0
M  END
$$$$
