IIP.pdb
     RDKit          3D

 24 24  0  0  1  0  0  0  0  0999 V2000
   28.5184  -20.3974  -14.8992 C   0  0  0  0  0  0  0  0  0  0  0  0
   27.3634  -20.8870  -14.1011 C   0  0  0  0  0  0  0  0  0  0  0  0
   27.3163  -20.3375  -12.6796 C   0  0  2  0  0  0  0  0  0  0  0  0
   28.6100  -20.7181  -11.9901 C   0  0  0  0  0  0  0  0  0  0  0  0
   26.1672  -20.9938  -11.9285 C   0  0  2  0  0  0  0  0  0  0  0  0
   24.9053  -20.5486  -12.5995 N   0  0  0  0  0  0  0  0  0  0  0  0
   26.0428  -20.4863  -10.5572 C   0  0  0  0  0  0  0  0  0  0  0  0
   25.8680  -19.2482  -10.3782 O   0  0  0  0  0  0  0  0  0  0  0  0
   22.4529  -21.4755   -7.1461 C   0  0  0  0  0  0  0  0  0  0  0  0
   23.5722  -20.9142   -8.0550 C   0  0  0  0  0  0  0  0  0  0  0  0
   24.8445  -21.2153   -7.3406 C   0  0  2  0  0  0  0  0  0  0  0  0
   24.7635  -20.6085   -5.9430 C   0  0  0  0  0  0  0  0  0  0  0  0
   26.1057  -20.7147   -8.0615 C   0  0  2  0  0  0  0  0  0  0  0  0
   26.0958  -21.2997   -9.3796 N   0  0  0  0  0  0  0  0  0  0  0  0
   27.2855  -20.7848   -7.2491 C   0  0  0  0  0  0  0  0  0  0  0  0
   27.9973  -21.8881   -7.3698 O   0  0  0  0  0  0  0  0  0  0  0  0
   27.8625  -19.8907   -6.3209 N   0  0  0  0  0  0  0  0  0  0  0  0
   27.2514  -18.5819   -5.9449 C   0  0  0  0  0  0  0  0  0  0  0  0
   28.4523  -17.6782   -6.1861 C   0  0  0  0  0  0  0  0  0  0  0  0
   29.5458  -18.4572   -5.5390 C   0  0  0  0  0  0  0  0  0  0  0  0
   29.0572  -19.9172   -5.5175 C   0  0  1  0  0  0  0  0  0  0  0  0
   28.7306  -20.3075   -4.1161 C   0  0  0  0  0  0  0  0  0  0  0  0
   29.6852  -20.5575   -3.1463 O   0  0  0  0  0  0  0  0  0  0  0  0
   27.5253  -20.4165   -3.7939 O   0  0  0  0  0  0  0  0  0  0  0  0
  2  3  1  0
  2  1  1  0
  3  4  1  1
  5  6  1  6
  5  3  1  0
  7  5  1  0
  8  7  2  0
  9 10  1  0
 11 13  1  0
 11 12  1  1
 11 10  1  0
 13 14  1  6
 14  7  1  0
 15 13  1  0
 15 16  2  0
 17 15  1  0
 18 17  1  0
 19 18  1  0
 20 19  1  0
 20 21  1  0
 21 17  1  0
 21 22  1  1
 22 23  1  0
 24 22  2  0
M  END
$$$$
