IIP.pdb
     RDKit          3D

 24 24  0  0  1  0  0  0  0  0999 V2000
   27.5017  -16.1724  -17.5160 C   0  0  0  0  0  0  0  0  0  0  0  0
   28.1349  -16.9008  -16.3850 C   0  0  0  0  0  0  0  0  0  0  0  0
   27.2775  -18.0261  -15.8163 C   0  0  2  0  0  0  0  0  0  0  0  0
   25.9497  -17.4321  -15.3944 C   0  0  0  0  0  0  0  0  0  0  0  0
   27.9571  -18.5954  -14.5797 C   0  0  2  0  0  0  0  0  0  0  0  0
   29.2052  -19.2752  -15.0498 N   0  0  0  0  0  0  0  0  0  0  0  0
   27.1721  -19.6720  -13.9647 C   0  0  0  0  0  0  0  0  0  0  0  0
   26.9676  -20.7307  -14.6227 O   0  0  0  0  0  0  0  0  0  0  0  0
   26.5359  -20.1816   -8.5341 C   0  0  0  0  0  0  0  0  0  0  0  0
   26.7960  -20.6370   -9.9897 C   0  0  0  0  0  0  0  0  0  0  0  0
   25.4980  -20.4488  -10.6967 C   0  0  2  0  0  0  0  0  0  0  0  0
   24.5086  -21.4804  -10.1629 C   0  0  0  0  0  0  0  0  0  0  0  0
   25.5934  -20.5510  -12.2269 C   0  0  2  0  0  0  0  0  0  0  0  0
   26.6138  -19.6224  -12.6467 N   0  0  0  0  0  0  0  0  0  0  0  0
   24.3131  -20.5577  -12.8729 C   0  0  0  0  0  0  0  0  0  0  0  0
   23.7826  -19.3724  -13.1018 O   0  0  0  0  0  0  0  0  0  0  0  0
   23.4780  -21.6001  -13.3311 N   0  0  0  0  0  0  0  0  0  0  0  0
   23.6902  -23.0381  -12.9922 C   0  0  0  0  0  0  0  0  0  0  0  0
   23.6616  -23.6226  -14.3974 C   0  0  0  0  0  0  0  0  0  0  0  0
   22.4787  -22.9308  -14.9836 C   0  0  0  0  0  0  0  0  0  0  0  0
   22.2972  -21.6465  -14.1539 C   0  0  1  0  0  0  0  0  0  0  0  0
   21.0787  -21.7761  -13.3045 C   0  0  0  0  0  0  0  0  0  0  0  0
   19.7970  -21.5143  -13.7552 O   0  0  0  0  0  0  0  0  0  0  0  0
   21.2183  -22.1424  -12.1150 O   0  0  0  0  0  0  0  0  0  0  0  0
  2  3  1  0
  2  1  1  0
  3  4  1  1
  5  6  1  6
  5  3  1  0
  7  5  1  0
  8  7  2  0
  9 10  1  0
 11 13  1  0
 11 12  1  1
 11 10  1  0
 13 14  1  6
 14  7  1  0
 15 13  1  0
 15 16  2  0
 17 15  1  0
 18 17  1  0
 19 18  1  0
 20 19  1  0
 20 21  1  0
 21 17  1  0
 21 22  1  1
 22 23  1  0
 24 22  2  0
M  END
$$$$
