IIP.pdb
     RDKit          3D

 24 24  0  0  1  0  0  0  0  0999 V2000
   11.9986  -16.4560    6.4448 C   0  0  0  0  0  0  0  0  0  0  0  0
   12.5596  -17.2273    5.3042 C   0  0  0  0  0  0  0  0  0  0  0  0
   13.1309  -16.3570    4.1902 C   0  0  2  0  0  0  0  0  0  0  0  0
   12.0170  -15.4698    3.6745 C   0  0  0  0  0  0  0  0  0  0  0  0
   13.5947  -17.2489    3.0480 C   0  0  2  0  0  0  0  0  0  0  0  0
   12.4885  -18.2230    2.7870 N   0  0  0  0  0  0  0  0  0  0  0  0
   14.7322  -18.0924    3.4332 C   0  0  0  0  0  0  0  0  0  0  0  0
   14.5130  -19.2787    3.8077 O   0  0  0  0  0  0  0  0  0  0  0  0
   19.3975  -18.4048    0.8709 C   0  0  0  0  0  0  0  0  0  0  0  0
   18.0937  -18.7366    1.6350 C   0  0  0  0  0  0  0  0  0  0  0  0
   18.3651  -18.3654    3.0522 C   0  0  2  0  0  0  0  0  0  0  0  0
   19.5054  -19.2394    3.5657 C   0  0  0  0  0  0  0  0  0  0  0  0
   17.1465  -18.4879    3.9801 C   0  0  2  0  0  0  0  0  0  0  0  0
   16.1016  -17.6736    3.4102 N   0  0  0  0  0  0  0  0  0  0  0  0
   17.4806  -18.3660    5.3694 C   0  0  0  0  0  0  0  0  0  0  0  0
   17.6667  -17.1358    5.8063 O   0  0  0  0  0  0  0  0  0  0  0  0
   17.6547  -19.3169    6.3987 N   0  0  0  0  0  0  0  0  0  0  0  0
   17.5216  -20.7893    6.1941 C   0  0  0  0  0  0  0  0  0  0  0  0
   16.5389  -21.0995    7.3144 C   0  0  0  0  0  0  0  0  0  0  0  0
   17.1260  -20.3289    8.4471 C   0  0  0  0  0  0  0  0  0  0  0  0
   17.9828  -19.2267    7.7978 C   0  0  1  0  0  0  0  0  0  0  0  0
   19.4261  -19.5333    8.0121 C   0  0  0  0  0  0  0  0  0  0  0  0
   20.1246  -19.1816    9.1536 O   0  0  0  0  0  0  0  0  0  0  0  0
   20.0454  -20.1437    7.1108 O   0  0  0  0  0  0  0  0  0  0  0  0
  2  3  1  0
  2  1  1  0
  3  4  1  6
  5  6  1  1
  5  3  1  0
  7  5  1  0
  8  7  2  0
  9 10  1  0
 11 13  1  0
 11 12  1  1
 11 10  1  0
 13 14  1  6
 14  7  1  0
 15 13  1  0
 15 16  2  0
 17 15  1  0
 18 17  1  0
 19 18  1  0
 20 19  1  0
 20 21  1  0
 21 17  1  0
 21 22  1  6
 22 23  1  0
 24 22  2  0
M  END
$$$$
