IIP.pdb
     RDKit          3D

 24 24  0  0  1  0  0  0  0  0999 V2000
   23.5769  -20.3768  -14.5140 C   0  0  0  0  0  0  0  0  0  0  0  0
   24.8399  -20.3350  -13.7306 C   0  0  0  0  0  0  0  0  0  0  0  0
   24.6707  -20.7140  -12.2634 C   0  0  2  0  0  0  0  0  0  0  0  0
   23.6456  -19.7789  -11.6561 C   0  0  0  0  0  0  0  0  0  0  0  0
   25.9920  -20.5053  -11.5383 C   0  0  2  0  0  0  0  0  0  0  0  0
   26.9770  -21.4449  -12.1610 N   0  0  0  0  0  0  0  0  0  0  0  0
   25.9256  -20.9327  -10.1359 C   0  0  0  0  0  0  0  0  0  0  0  0
   25.5998  -22.1251   -9.8762 O   0  0  0  0  0  0  0  0  0  0  0  0
   28.8915  -18.6963   -6.0857 C   0  0  0  0  0  0  0  0  0  0  0  0
   28.2305  -19.7294   -7.0290 C   0  0  0  0  0  0  0  0  0  0  0  0
   26.7733  -19.6601   -6.7260 C   0  0  2  0  0  0  0  0  0  0  0  0
   26.5637  -20.1021   -5.2808 C   0  0  0  0  0  0  0  0  0  0  0  0
   25.8935  -20.4972   -7.6673 C   0  0  2  0  0  0  0  0  0  0  0  0
   26.2149  -20.0916   -9.0134 N   0  0  0  0  0  0  0  0  0  0  0  0
   24.5257  -20.5728   -7.2429 C   0  0  0  0  0  0  0  0  0  0  0  0
   23.7532  -19.5749   -7.6249 O   0  0  0  0  0  0  0  0  0  0  0  0
   23.8116  -21.5229   -6.4805 N   0  0  0  0  0  0  0  0  0  0  0  0
   24.4429  -22.7199   -5.8509 C   0  0  0  0  0  0  0  0  0  0  0  0
   23.5095  -23.7948   -6.3897 C   0  0  0  0  0  0  0  0  0  0  0  0
   22.1749  -23.1719   -6.1614 C   0  0  0  0  0  0  0  0  0  0  0  0
   22.4332  -21.6559   -6.0860 C   0  0  1  0  0  0  0  0  0  0  0  0
   22.2497  -21.1935   -4.6805 C   0  0  0  0  0  0  0  0  0  0  0  0
   21.0177  -20.8995   -4.1235 O   0  0  0  0  0  0  0  0  0  0  0  0
   23.2653  -21.0623   -3.9594 O   0  0  0  0  0  0  0  0  0  0  0  0
  2  3  1  0
  2  1  1  0
  3  4  1  1
  5  6  1  6
  5  3  1  0
  7  5  1  0
  8  7  2  0
  9 10  1  0
 11 13  1  0
 11 12  1  1
 11 10  1  0
 13 14  1  6
 14  7  1  0
 15 13  1  0
 15 16  2  0
 17 15  1  0
 18 17  1  0
 19 18  1  0
 20 19  1  0
 20 21  1  0
 21 17  1  0
 21 22  1  1
 22 23  1  0
 24 22  2  0
M  END
$$$$
