IIP.pdb
     RDKit          3D

 24 24  0  0  1  0  0  0  0  0999 V2000
   15.3243  -11.6484  -19.7192 C   0  0  0  0  0  0  0  0  0  0  0  0
   16.6265  -11.9240  -19.0567 C   0  0  0  0  0  0  0  0  0  0  0  0
   17.0546  -10.8500  -18.0628 C   0  0  2  0  0  0  0  0  0  0  0  0
   17.3015   -9.5714  -18.8363 C   0  0  0  0  0  0  0  0  0  0  0  0
   18.3626  -11.2687  -17.4079 C   0  0  2  0  0  0  0  0  0  0  0  0
   18.0561  -12.4654  -16.5624 N   0  0  0  0  0  0  0  0  0  0  0  0
   18.8459  -10.2671  -16.4502 C   0  0  0  0  0  0  0  0  0  0  0  0
   18.1304   -9.9861  -15.4479 O   0  0  0  0  0  0  0  0  0  0  0  0
   23.1454  -10.6289  -13.8214 C   0  0  0  0  0  0  0  0  0  0  0  0
   21.7107  -10.3449  -14.3260 C   0  0  0  0  0  0  0  0  0  0  0  0
   21.7769   -8.9961  -14.9556 C   0  0  2  0  0  0  0  0  0  0  0  0
   22.1993   -7.9904  -13.8888 C   0  0  0  0  0  0  0  0  0  0  0  0
   20.4658   -8.5446  -15.6175 C   0  0  2  0  0  0  0  0  0  0  0  0
   20.0942   -9.5734  -16.5574 N   0  0  0  0  0  0  0  0  0  0  0  0
   20.4823   -7.1688  -16.0219 C   0  0  0  0  0  0  0  0  0  0  0  0
   21.2069   -6.8958  -17.0892 O   0  0  0  0  0  0  0  0  0  0  0  0
   19.8639   -6.0110  -15.5013 N   0  0  0  0  0  0  0  0  0  0  0  0
   19.0009   -6.0121  -14.2835 C   0  0  0  0  0  0  0  0  0  0  0  0
   17.7798   -5.3047  -14.8542 C   0  0  0  0  0  0  0  0  0  0  0  0
   18.4092   -4.1738  -15.5933 C   0  0  0  0  0  0  0  0  0  0  0  0
   19.8516   -4.6243  -15.8887 C   0  0  1  0  0  0  0  0  0  0  0  0
   20.7962   -3.8413  -15.0416 C   0  0  0  0  0  0  0  0  0  0  0  0
   21.2637   -2.5824  -15.3749 O   0  0  0  0  0  0  0  0  0  0  0  0
   21.1916   -4.3476  -13.9666 O   0  0  0  0  0  0  0  0  0  0  0  0
  2  3  1  0
  2  1  1  0
  3  4  1  6
  5  6  1  1
  5  3  1  0
  7  5  1  0
  8  7  2  0
  9 10  1  0
 11 13  1  0
 11 12  1  1
 11 10  1  0
 13 14  1  6
 14  7  1  0
 15 13  1  0
 15 16  2  0
 17 15  1  0
 18 17  1  0
 19 18  1  0
 20 19  1  0
 20 21  1  0
 21 17  1  0
 21 22  1  1
 22 23  1  0
 24 22  2  0
M  END
$$$$
