IIP.pdb
     RDKit          3D

 24 24  0  0  1  0  0  0  0  0999 V2000
   21.6834  -20.9375  -16.9805 C   0  0  0  0  0  0  0  0  0  0  0  0
   20.8614  -20.6889  -15.7668 C   0  0  0  0  0  0  0  0  0  0  0  0
   21.1191  -21.6745  -14.6323 C   0  0  2  0  0  0  0  0  0  0  0  0
   19.9267  -22.6040  -14.5430 C   0  0  0  0  0  0  0  0  0  0  0  0
   21.2243  -20.9100  -13.3210 C   0  0  2  0  0  0  0  0  0  0  0  0
   20.3590  -19.6964  -13.4605 N   0  0  0  0  0  0  0  0  0  0  0  0
   22.5706  -20.3677  -13.1046 C   0  0  0  0  0  0  0  0  0  0  0  0
   22.8153  -19.1810  -13.4617 O   0  0  0  0  0  0  0  0  0  0  0  0
   25.8244  -20.9031   -8.8728 C   0  0  0  0  0  0  0  0  0  0  0  0
   25.0637  -20.3318  -10.0930 C   0  0  0  0  0  0  0  0  0  0  0  0
   25.7083  -20.9551  -11.2830 C   0  0  2  0  0  0  0  0  0  0  0  0
   27.1657  -20.5059  -11.3278 C   0  0  0  0  0  0  0  0  0  0  0  0
   25.0151  -20.6331  -12.6160 C   0  0  2  0  0  0  0  0  0  0  0  0
   23.6514  -21.0875  -12.5003 N   0  0  0  0  0  0  0  0  0  0  0  0
   25.8008  -20.9903  -13.7613 C   0  0  0  0  0  0  0  0  0  0  0  0
   25.6250  -22.2159  -14.2148 O   0  0  0  0  0  0  0  0  0  0  0  0
   26.7500  -20.2811  -14.5295 N   0  0  0  0  0  0  0  0  0  0  0  0
   27.5342  -19.1227  -14.0093 C   0  0  0  0  0  0  0  0  0  0  0  0
   27.2357  -18.1164  -15.1118 C   0  0  0  0  0  0  0  0  0  0  0  0
   27.4312  -18.9469  -16.3338 C   0  0  0  0  0  0  0  0  0  0  0  0
   27.2377  -20.4050  -15.8786 C   0  0  1  0  0  0  0  0  0  0  0  0
   28.5543  -21.1046  -15.8912 C   0  0  0  0  0  0  0  0  0  0  0  0
   29.1084  -21.6780  -17.0220 O   0  0  0  0  0  0  0  0  0  0  0  0
   29.1989  -21.1800  -14.8201 O   0  0  0  0  0  0  0  0  0  0  0  0
  2  3  1  0
  2  1  1  0
  3  4  1  1
  5  6  1  6
  5  3  1  0
  7  5  1  0
  8  7  2  0
  9 10  1  0
 11 13  1  0
 11 12  1  6
 11 10  1  0
 13 14  1  6
 14  7  1  0
 15 13  1  0
 15 16  2  0
 17 15  1  0
 18 17  1  0
 19 18  1  0
 20 19  1  0
 20 21  1  0
 21 17  1  0
 21 22  1  1
 22 23  1  0
 24 22  2  0
M  END
$$$$
