KQI.pdb
     RDKit          3D

 27 26  0  0  1  0  0  0  0  0999 V2000
    9.9515  -14.4263   18.9235 N   0  0  0  0  0  0  0  0  0  0  0  0
    8.9438  -13.7463   19.7021 C   0  0  1  0  0  0  0  0  0  0  0  0
    7.6383  -13.6326   18.9885 C   0  0  0  0  0  0  0  0  0  0  0  0
    7.6356  -13.2027   17.5768 C   0  0  0  0  0  0  0  0  0  0  0  0
    7.4847  -14.1487   16.4708 C   0  0  0  0  0  0  0  0  0  0  0  0
    7.4180  -13.6833   15.0735 C   0  0  0  0  0  0  0  0  0  0  0  0
    7.2559  -14.7480   14.1069 N   0  0  0  0  0  0  0  0  0  0  0  0
    8.7090  -14.4694   21.0037 C   0  0  0  0  0  0  0  0  0  0  0  0
    7.7200  -14.0816   21.6646 O   0  0  0  0  0  0  0  0  0  0  0  0
   10.9443  -20.2638   22.8204 N   0  0  0  0  0  0  0  0  0  0  0  0
   10.2428  -19.7699   21.6888 C   0  0  0  0  0  0  0  0  0  0  0  0
   10.0924  -20.5460   20.6992 O   0  0  0  0  0  0  0  0  0  0  0  0
    9.6855  -18.4195   21.6156 C   0  0  0  0  0  0  0  0  0  0  0  0
    9.8211  -17.5811   22.8294 C   0  0  0  0  0  0  0  0  0  0  0  0
    9.1863  -16.2341   22.6880 C   0  0  2  0  0  0  0  0  0  0  0  0
    9.5057  -15.5091   21.4926 N   0  0  0  0  0  0  0  0  0  0  0  0
    9.4237  -15.4412   23.9078 C   0  0  0  0  0  0  0  0  0  0  0  0
   10.5133  -14.8476   24.1412 O   0  0  0  0  0  0  0  0  0  0  0  0
    5.6470  -12.3176   25.3525 C   0  0  0  0  0  0  0  0  0  0  0  0
    6.9864  -12.9897   25.1925 C   0  0  0  0  0  0  0  0  0  0  0  0
    7.3380  -13.8424   26.4021 C   0  0  2  0  0  0  0  0  0  0  0  0
    7.3885  -12.9594   27.6191 C   0  0  0  0  0  0  0  0  0  0  0  0
    8.6323  -14.5279   26.1044 C   0  0  2  0  0  0  0  0  0  0  0  0
    8.4225  -15.3108   24.8810 N   0  0  0  0  0  0  0  0  0  0  0  0
    9.1358  -15.3726   27.2010 C   0  0  0  0  0  0  0  0  0  0  0  0
    9.0440  -16.7440   27.2515 O   0  0  0  0  0  0  0  0  0  0  0  0
    9.6938  -14.7933   28.1678 O   0  0  0  0  0  0  0  0  0  0  0  0
  2  1  1  6
  3  2  1  0
  4  3  1  0
  5  4  1  0
  6  5  1  0
  7  6  1  0
  8  9  2  0
  8  2  1  0
 10 11  1  0
 11 12  2  0
 11 13  1  0
 13 14  1  0
 15 14  1  1
 15 16  1  0
 16  8  1  0
 17 15  1  0
 18 17  2  0
 19 20  1  0
 20 21  1  0
 21 23  1  0
 21 22  1  1
 23 25  1  0
 23 24  1  6
 24 17  1  0
 25 26  1  0
 27 25  2  0
M  END
$$$$
