KQI.pdb
     RDKit          3D

 27 26  0  0  1  0  0  0  0  0999 V2000
    9.0460  -18.4440   19.2953 N   0  0  0  0  0  0  0  0  0  0  0  0
    8.2220  -17.2676   19.4404 C   0  0  1  0  0  0  0  0  0  0  0  0
    7.0444  -17.2677   18.5243 C   0  0  0  0  0  0  0  0  0  0  0  0
    7.1974  -17.8355   17.1708 C   0  0  0  0  0  0  0  0  0  0  0  0
    7.7386  -17.0608   16.0536 C   0  0  0  0  0  0  0  0  0  0  0  0
    7.7429  -17.6020   14.6822 C   0  0  0  0  0  0  0  0  0  0  0  0
    8.2104  -16.6655   13.6828 N   0  0  0  0  0  0  0  0  0  0  0  0
    7.7187  -17.1500   20.8564 C   0  0  0  0  0  0  0  0  0  0  0  0
    6.9333  -16.2003   21.0719 O   0  0  0  0  0  0  0  0  0  0  0  0
    7.6799  -21.1456   26.1165 N   0  0  0  0  0  0  0  0  0  0  0  0
    7.2393  -19.8413   26.4644 C   0  0  0  0  0  0  0  0  0  0  0  0
    6.8053  -19.6559   27.6398 O   0  0  0  0  0  0  0  0  0  0  0  0
    7.2682  -18.7099   25.5379 C   0  0  0  0  0  0  0  0  0  0  0  0
    7.6887  -19.0033   24.1481 C   0  0  0  0  0  0  0  0  0  0  0  0
    7.6365  -17.8065   23.2525 C   0  0  2  0  0  0  0  0  0  0  0  0
    8.0687  -18.0114   21.9005 N   0  0  0  0  0  0  0  0  0  0  0  0
    8.3224  -16.6720   23.8970 C   0  0  0  0  0  0  0  0  0  0  0  0
    9.5750  -16.5162   23.8632 O   0  0  0  0  0  0  0  0  0  0  0  0
    7.0085  -11.0285   25.8954 C   0  0  0  0  0  0  0  0  0  0  0  0
    7.9539  -12.1942   25.7592 C   0  0  0  0  0  0  0  0  0  0  0  0
    7.2453  -13.4384   25.2459 C   0  0  2  0  0  0  0  0  0  0  0  0
    6.0565  -13.7163   26.1249 C   0  0  0  0  0  0  0  0  0  0  0  0
    8.2477  -14.5468   25.2248 C   0  0  2  0  0  0  0  0  0  0  0  0
    7.5919  -15.6957   24.5895 N   0  0  0  0  0  0  0  0  0  0  0  0
    8.7848  -14.9019   26.5496 C   0  0  0  0  0  0  0  0  0  0  0  0
    9.8762  -14.3145   27.1460 O   0  0  0  0  0  0  0  0  0  0  0  0
    8.1986  -15.8149   27.1856 O   0  0  0  0  0  0  0  0  0  0  0  0
  2  1  1  1
  3  2  1  0
  4  3  1  0
  5  4  1  0
  6  5  1  0
  7  6  1  0
  8  9  2  0
  8  2  1  0
 10 11  1  0
 11 12  2  0
 11 13  1  0
 13 14  1  0
 15 14  1  1
 15 16  1  0
 16  8  1  0
 17 15  1  0
 18 17  2  0
 19 20  1  0
 20 21  1  0
 21 23  1  0
 21 22  1  1
 23 25  1  0
 23 24  1  1
 24 17  1  0
 25 26  1  0
 27 25  2  0
M  END
$$$$
