KQI.pdb
     RDKit          3D

 27 26  0  0  1  0  0  0  0  0999 V2000
    4.9107  -18.8999   22.5968 N   0  0  0  0  0  0  0  0  0  0  0  0
    6.0853  -18.9599   23.4339 C   0  0  1  0  0  0  0  0  0  0  0  0
    6.6835  -20.3253   23.4967 C   0  0  0  0  0  0  0  0  0  0  0  0
    5.7927  -21.4818   23.7129 C   0  0  0  0  0  0  0  0  0  0  0  0
    6.2993  -22.8501   23.8238 C   0  0  0  0  0  0  0  0  0  0  0  0
    5.3800  -24.0018   23.8699 C   0  0  0  0  0  0  0  0  0  0  0  0
    4.2389  -23.8780   22.9884 N   0  0  0  0  0  0  0  0  0  0  0  0
    7.1382  -18.0058   22.9309 C   0  0  0  0  0  0  0  0  0  0  0  0
    8.3186  -18.3073   23.2154 O   0  0  0  0  0  0  0  0  0  0  0  0
    7.1825  -13.0678   18.5358 N   0  0  0  0  0  0  0  0  0  0  0  0
    8.3643  -13.0517   19.3229 C   0  0  0  0  0  0  0  0  0  0  0  0
    9.2197  -12.1472   19.0897 O   0  0  0  0  0  0  0  0  0  0  0  0
    8.6350  -14.0197   20.3855 C   0  0  0  0  0  0  0  0  0  0  0  0
    7.5563  -14.9889   20.6882 C   0  0  0  0  0  0  0  0  0  0  0  0
    7.9072  -15.9336   21.7934 C   0  0  2  0  0  0  0  0  0  0  0  0
    6.8768  -16.8477   22.1925 N   0  0  0  0  0  0  0  0  0  0  0  0
    8.4654  -15.1824   22.9323 C   0  0  0  0  0  0  0  0  0  0  0  0
    9.5500  -14.5393   22.8668 O   0  0  0  0  0  0  0  0  0  0  0  0
    6.6008  -11.5960   27.2854 C   0  0  0  0  0  0  0  0  0  0  0  0
    7.6651  -12.5502   26.8079 C   0  0  0  0  0  0  0  0  0  0  0  0
    7.1440  -13.4793   25.7220 C   0  0  2  0  0  0  0  0  0  0  0  0
    5.9745  -14.2531   26.2668 C   0  0  0  0  0  0  0  0  0  0  0  0
    8.2841  -14.3424   25.2875 C   0  0  2  0  0  0  0  0  0  0  0  0
    7.7960  -15.1507   24.1641 N   0  0  0  0  0  0  0  0  0  0  0  0
    8.8420  -15.1904   26.3549 C   0  0  0  0  0  0  0  0  0  0  0  0
    9.7707  -14.7855   27.2851 O   0  0  0  0  0  0  0  0  0  0  0  0
    8.4366  -16.3791   26.4204 O   0  0  0  0  0  0  0  0  0  0  0  0
  2  1  1  6
  3  2  1  0
  4  3  1  0
  5  4  1  0
  6  5  1  0
  7  6  1  0
  8  9  2  0
  8  2  1  0
 10 11  1  0
 11 12  2  0
 11 13  1  0
 13 14  1  0
 15 14  1  6
 15 16  1  0
 16  8  1  0
 17 15  1  0
 18 17  2  0
 19 20  1  0
 20 21  1  0
 21 23  1  0
 21 22  1  1
 23 25  1  0
 23 24  1  6
 24 17  1  0
 25 26  1  0
 27 25  2  0
M  END
$$$$
