KQI.pdb
     RDKit          3D

 27 26  0  0  1  0  0  0  0  0999 V2000
    7.4815  -16.6977   19.8682 N   0  0  0  0  0  0  0  0  0  0  0  0
    6.6698  -16.8170   21.0561 C   0  0  1  0  0  0  0  0  0  0  0  0
    5.7016  -17.9501   20.9855 C   0  0  0  0  0  0  0  0  0  0  0  0
    5.2293  -18.3994   19.6616 C   0  0  0  0  0  0  0  0  0  0  0  0
    4.2605  -19.4846   19.5031 C   0  0  0  0  0  0  0  0  0  0  0  0
    3.7551  -19.8666   18.1718 C   0  0  0  0  0  0  0  0  0  0  0  0
    2.8332  -20.9819   18.1914 N   0  0  0  0  0  0  0  0  0  0  0  0
    7.5410  -17.0153   22.2700 C   0  0  0  0  0  0  0  0  0  0  0  0
    6.9781  -17.5380   23.2576 O   0  0  0  0  0  0  0  0  0  0  0  0
    9.6868  -20.8891   23.1004 N   0  0  0  0  0  0  0  0  0  0  0  0
   10.7235  -19.9635   23.3919 C   0  0  0  0  0  0  0  0  0  0  0  0
   11.4453  -20.1827   24.4094 O   0  0  0  0  0  0  0  0  0  0  0  0
   10.9981  -18.7814   22.5754 C   0  0  0  0  0  0  0  0  0  0  0  0
   11.0419  -17.4822   23.2857 C   0  0  0  0  0  0  0  0  0  0  0  0
    9.6870  -16.8929   23.5185 C   0  0  2  0  0  0  0  0  0  0  0  0
    8.8911  -16.6605   22.3485 N   0  0  0  0  0  0  0  0  0  0  0  0
    9.8049  -15.6930   24.3667 C   0  0  0  0  0  0  0  0  0  0  0  0
   10.5423  -14.7116   24.0714 O   0  0  0  0  0  0  0  0  0  0  0  0
    6.4788  -12.3672   25.5286 C   0  0  0  0  0  0  0  0  0  0  0  0
    7.7336  -13.1959   25.4278 C   0  0  0  0  0  0  0  0  0  0  0  0
    8.1338  -13.7799   26.7741 C   0  0  2  0  0  0  0  0  0  0  0  0
    8.2798  -12.6573   27.7650 C   0  0  0  0  0  0  0  0  0  0  0  0
    9.3895  -14.5631   26.5658 C   0  0  2  0  0  0  0  0  0  0  0  0
    9.0832  -15.5915   25.5647 N   0  0  0  0  0  0  0  0  0  0  0  0
    9.9415  -15.1593   27.7945 C   0  0  0  0  0  0  0  0  0  0  0  0
   10.8290  -14.5427   28.6453 O   0  0  0  0  0  0  0  0  0  0  0  0
    9.5715  -16.3248   28.0884 O   0  0  0  0  0  0  0  0  0  0  0  0
  2  1  1  6
  3  2  1  0
  4  3  1  0
  5  4  1  0
  6  5  1  0
  7  6  1  0
  8  9  2  0
  8  2  1  0
 10 11  1  0
 11 12  2  0
 11 13  1  0
 13 14  1  0
 15 14  1  6
 15 16  1  0
 16  8  1  0
 17 15  1  0
 18 17  2  0
 19 20  1  0
 20 21  1  0
 21 23  1  0
 21 22  1  1
 23 25  1  0
 23 24  1  6
 24 17  1  0
 25 26  1  0
 27 25  2  0
M  END
$$$$
