KQI.pdb
     RDKit          3D

 27 26  0  0  1  0  0  0  0  0999 V2000
    6.0069  -20.3377   21.6030 N   0  0  0  0  0  0  0  0  0  0  0  0
    5.8222  -18.9096   21.7041 C   0  0  1  0  0  0  0  0  0  0  0  0
    4.5865  -18.5362   22.4524 C   0  0  0  0  0  0  0  0  0  0  0  0
    3.3234  -19.2265   22.1274 C   0  0  0  0  0  0  0  0  0  0  0  0
    2.0389  -18.8173   22.6965 C   0  0  0  0  0  0  0  0  0  0  0  0
    0.7819  -19.4712   22.2891 C   0  0  0  0  0  0  0  0  0  0  0  0
   -0.4012  -18.8981   22.8941 N   0  0  0  0  0  0  0  0  0  0  0  0
    7.0022  -18.2747   22.3944 C   0  0  0  0  0  0  0  0  0  0  0  0
    7.3740  -18.8342   23.4498 O   0  0  0  0  0  0  0  0  0  0  0  0
   12.2312  -17.8649   22.1905 N   0  0  0  0  0  0  0  0  0  0  0  0
   12.2152  -16.5599   22.7502 C   0  0  0  0  0  0  0  0  0  0  0  0
   13.2332  -16.1818   23.4021 O   0  0  0  0  0  0  0  0  0  0  0  0
   11.0893  -15.6375   22.6053 C   0  0  0  0  0  0  0  0  0  0  0  0
    9.9394  -16.1176   21.8043 C   0  0  0  0  0  0  0  0  0  0  0  0
    8.7806  -16.5557   22.6423 C   0  0  2  0  0  0  0  0  0  0  0  0
    7.6769  -17.1390   21.9365 N   0  0  0  0  0  0  0  0  0  0  0  0
    8.3631  -15.4548   23.5293 C   0  0  0  0  0  0  0  0  0  0  0  0
    8.2010  -14.2696   23.1252 O   0  0  0  0  0  0  0  0  0  0  0  0
    5.5767  -12.5870   25.7416 C   0  0  0  0  0  0  0  0  0  0  0  0
    6.8077  -13.3402   25.3073 C   0  0  0  0  0  0  0  0  0  0  0  0
    7.4853  -14.0366   26.4776 C   0  0  2  0  0  0  0  0  0  0  0  0
    7.8658  -13.0028   27.5022 C   0  0  0  0  0  0  0  0  0  0  0  0
    8.6505  -14.7967   25.9313 C   0  0  2  0  0  0  0  0  0  0  0  0
    8.1222  -15.6869   24.8911 N   0  0  0  0  0  0  0  0  0  0  0  0
    9.4108  -15.5487   26.9442 C   0  0  0  0  0  0  0  0  0  0  0  0
   10.4626  -15.0506   27.6773 O   0  0  0  0  0  0  0  0  0  0  0  0
    9.0710  -16.7410   27.1552 O   0  0  0  0  0  0  0  0  0  0  0  0
  2  1  1  1
  3  2  1  0
  4  3  1  0
  5  4  1  0
  6  5  1  0
  7  6  1  0
  8  9  2  0
  8  2  1  0
 10 11  1  0
 11 12  2  0
 11 13  1  0
 13 14  1  0
 15 14  1  6
 15 16  1  0
 16  8  1  0
 17 15  1  0
 18 17  2  0
 19 20  1  0
 20 21  1  0
 21 23  1  0
 21 22  1  1
 23 25  1  0
 23 24  1  6
 24 17  1  0
 25 26  1  0
 27 25  2  0
M  END
$$$$
