KQI.pdb
     RDKit          3D

 27 26  0  0  1  0  0  0  0  0999 V2000
    6.4195  -17.1626   19.2131 N   0  0  0  0  0  0  0  0  0  0  0  0
    7.0934  -16.0813   19.8917 C   0  0  1  0  0  0  0  0  0  0  0  0
    6.6672  -14.7365   19.4058 C   0  0  0  0  0  0  0  0  0  0  0  0
    7.6756  -13.6632   19.3105 C   0  0  0  0  0  0  0  0  0  0  0  0
    9.0777  -13.9327   18.9901 C   0  0  0  0  0  0  0  0  0  0  0  0
   10.0648  -12.8405   18.9105 C   0  0  0  0  0  0  0  0  0  0  0  0
   11.4257  -13.2920   18.7142 N   0  0  0  0  0  0  0  0  0  0  0  0
    6.8362  -16.1507   21.3753 C   0  0  0  0  0  0  0  0  0  0  0  0
    5.9513  -15.3778   21.8054 O   0  0  0  0  0  0  0  0  0  0  0  0
    7.6104  -21.0447   25.4177 N   0  0  0  0  0  0  0  0  0  0  0  0
    6.6094  -20.7169   24.4654 C   0  0  0  0  0  0  0  0  0  0  0  0
    5.8058  -21.6298   24.1117 O   0  0  0  0  0  0  0  0  0  0  0  0
    6.4606  -19.3834   23.8830 C   0  0  0  0  0  0  0  0  0  0  0  0
    7.4138  -18.3487   24.3470 C   0  0  0  0  0  0  0  0  0  0  0  0
    7.2267  -17.0293   23.6676 C   0  0  2  0  0  0  0  0  0  0  0  0
    7.5070  -16.9989   22.2615 N   0  0  0  0  0  0  0  0  0  0  0  0
    7.9502  -15.9805   24.4088 C   0  0  0  0  0  0  0  0  0  0  0  0
    9.1097  -15.5917   24.0948 O   0  0  0  0  0  0  0  0  0  0  0  0
    6.7817  -10.8959   27.4157 C   0  0  0  0  0  0  0  0  0  0  0  0
    7.7220  -12.0455   27.1598 C   0  0  0  0  0  0  0  0  0  0  0  0
    7.0409  -13.1729   26.3990 C   0  0  2  0  0  0  0  0  0  0  0  0
    5.8021  -13.5833   27.1475 C   0  0  0  0  0  0  0  0  0  0  0  0
    8.0397  -14.2738   26.2430 C   0  0  2  0  0  0  0  0  0  0  0  0
    7.3634  -15.3565   25.5191 N   0  0  0  0  0  0  0  0  0  0  0  0
    8.6132  -14.7545   27.5118 C   0  0  0  0  0  0  0  0  0  0  0  0
    9.6992  -14.2025   28.1503 O   0  0  0  0  0  0  0  0  0  0  0  0
    8.0660  -15.7487   28.0539 O   0  0  0  0  0  0  0  0  0  0  0  0
  2  1  1  6
  3  2  1  0
  4  3  1  0
  5  4  1  0
  6  5  1  0
  7  6  1  0
  8  9  2  0
  8  2  1  0
 10 11  1  0
 11 12  2  0
 11 13  1  0
 13 14  1  0
 15 14  1  1
 15 16  1  0
 16  8  1  0
 17 15  1  0
 18 17  2  0
 19 20  1  0
 20 21  1  0
 21 23  1  0
 21 22  1  1
 23 25  1  0
 23 24  1  1
 24 17  1  0
 25 26  1  0
 27 25  2  0
M  END
$$$$
