HNC.pdb
     RDKit          3D

 25 25  0  0  1  0  0  0  0  0999 V2000
   27.3361  -15.0064  -15.6032 N   0  0  0  0  0  0  0  0  0  0  0  0
   26.7397  -13.9826  -16.4180 C   0  0  1  0  0  0  0  0  0  0  0  0
   25.2472  -13.9471  -16.0647 C   0  0  0  0  0  0  0  0  0  0  0  0
   24.6481  -15.1681  -16.6767 C   0  0  0  0  0  0  0  0  0  0  0  0
   24.0680  -16.2551  -16.0147 C   0  0  0  0  0  0  0  0  0  0  0  0
   23.6481  -17.1469  -16.9197 N   0  0  0  0  0  0  0  0  0  0  0  0
   23.9362  -16.6746  -18.1358 C   0  0  0  0  0  0  0  0  0  0  0  0
   24.5407  -15.4781  -17.9871 N   0  0  0  0  0  0  0  0  0  0  0  0
   27.3321  -12.6517  -16.1984 C   0  0  0  0  0  0  0  0  0  0  0  0
   27.6535  -12.3434  -15.0224 O   0  0  0  0  0  0  0  0  0  0  0  0
   30.2915   -7.9722  -18.6265 N   0  0  0  0  0  0  0  0  0  0  0  0
   30.0010   -8.8665  -17.5779 C   0  0  0  0  0  0  0  0  0  0  0  0
   30.3584   -8.5583  -16.4134 O   0  0  0  0  0  0  0  0  0  0  0  0
   29.2939  -10.1200  -17.8863 C   0  0  0  0  0  0  0  0  0  0  0  0
   28.1312  -10.3982  -16.9731 C   0  0  2  0  0  0  0  0  0  0  0  0
   27.5588  -11.7018  -17.2399 N   0  0  0  0  0  0  0  0  0  0  0  0
   27.0812   -9.3385  -17.0992 C   0  0  0  0  0  0  0  0  0  0  0  0
   27.3706   -8.1166  -17.0441 O   0  0  0  0  0  0  0  0  0  0  0  0
   25.7191   -9.6803  -17.2860 N   0  0  0  0  0  0  0  0  0  0  0  0
   24.6717   -8.6582  -17.4158 C   0  0  1  0  0  0  0  0  0  0  0  0
   23.4268   -9.2424  -18.0388 C   0  0  0  0  0  0  0  0  0  0  0  0
   23.9079   -9.9548  -19.6365 S   0  0  0  0  0  0  0  0  0  0  0  0
   24.3339   -8.1819  -16.0521 C   0  0  0  0  0  0  0  0  0  0  0  0
   24.8308   -8.6956  -15.0070 O   0  0  0  0  0  0  0  0  0  0  0  0
   23.4446   -7.1360  -15.8586 O   0  0  0  0  0  0  0  0  0  0  0  0
  2  1  1  1
  3  2  1  0
  4  3  1  0
  4  8  1  0
  5  4  2  0
  6  5  1  0
  6  7  1  0
  7  8  2  0
  9  2  1  0
 10  9  2  0
 11 12  1  0
 12 14  1  0
 12 13  2  0
 15 14  1  6
 15 16  1  0
 15 17  1  0
 16  9  1  0
 17 18  2  0
 17 19  1  0
 19 20  1  0
 20 21  1  1
 20 23  1  0
 22 21  1  0
 23 25  1  0
 24 23  2  0
M  END
$$$$
