HNC.pdb
     RDKit          3D

 25 25  0  0  1  0  0  0  0  0999 V2000
   25.0342  -12.7562  -14.8084 N   0  0  0  0  0  0  0  0  0  0  0  0
   24.2821  -12.1013  -15.8444 C   0  0  1  0  0  0  0  0  0  0  0  0
   22.8170  -12.5174  -15.6600 C   0  0  0  0  0  0  0  0  0  0  0  0
   22.7345  -13.9431  -16.0901 C   0  0  0  0  0  0  0  0  0  0  0  0
   22.8179  -15.0820  -15.2826 C   0  0  0  0  0  0  0  0  0  0  0  0
   22.6981  -16.1727  -16.0484 N   0  0  0  0  0  0  0  0  0  0  0  0
   22.5412  -15.7780  -17.3151 C   0  0  0  0  0  0  0  0  0  0  0  0
   22.5635  -14.4297  -17.3386 N   0  0  0  0  0  0  0  0  0  0  0  0
   24.3895  -10.6329  -15.7958 C   0  0  0  0  0  0  0  0  0  0  0  0
   24.0692  -10.0601  -14.7231 O   0  0  0  0  0  0  0  0  0  0  0  0
   27.3520   -9.3978  -15.8722 N   0  0  0  0  0  0  0  0  0  0  0  0
   27.4358   -8.4538  -16.9141 C   0  0  0  0  0  0  0  0  0  0  0  0
   28.5743   -8.1214  -17.3290 O   0  0  0  0  0  0  0  0  0  0  0  0
   26.1930   -7.8971  -17.4724 C   0  0  0  0  0  0  0  0  0  0  0  0
   24.9482   -8.3922  -16.7878 C   0  0  2  0  0  0  0  0  0  0  0  0
   24.8338   -9.8325  -16.8913 N   0  0  0  0  0  0  0  0  0  0  0  0
   23.7260   -7.7361  -17.3511 C   0  0  0  0  0  0  0  0  0  0  0  0
   23.2724   -8.0509  -18.4802 O   0  0  0  0  0  0  0  0  0  0  0  0
   23.0370   -6.7332  -16.6255 N   0  0  0  0  0  0  0  0  0  0  0  0
   21.7585   -6.1775  -17.0898 C   0  0  1  0  0  0  0  0  0  0  0  0
   20.8892   -5.7830  -15.9202 C   0  0  0  0  0  0  0  0  0  0  0  0
   20.4741   -7.3031  -15.0211 S   0  0  0  0  0  0  0  0  0  0  0  0
   22.0568   -4.9603  -17.8836 C   0  0  0  0  0  0  0  0  0  0  0  0
   23.1299   -4.3024  -17.7473 O   0  0  0  0  0  0  0  0  0  0  0  0
   21.1588   -4.4815  -18.8252 O   0  0  0  0  0  0  0  0  0  0  0  0
  2  1  1  1
  3  2  1  0
  4  3  1  0
  4  8  1  0
  5  4  2  0
  6  5  1  0
  6  7  1  0
  7  8  2  0
  9  2  1  0
 10  9  2  0
 11 12  1  0
 12 14  1  0
 12 13  2  0
 15 14  1  6
 15 16  1  0
 15 17  1  0
 16  9  1  0
 17 18  2  0
 17 19  1  0
 19 20  1  0
 20 21  1  1
 20 23  1  0
 22 21  1  0
 23 25  1  0
 24 23  2  0
M  END
$$$$
