HNC.pdb
     RDKit          3D

 25 25  0  0  1  0  0  0  0  0999 V2000
   22.0577  -18.5053  -16.2028 N   0  0  0  0  0  0  0  0  0  0  0  0
   23.3550  -18.2985  -15.6178 C   0  0  1  0  0  0  0  0  0  0  0  0
   23.4543  -16.8066  -15.2742 C   0  0  0  0  0  0  0  0  0  0  0  0
   24.0371  -16.1432  -16.4761 C   0  0  0  0  0  0  0  0  0  0  0  0
   23.4643  -15.1289  -17.2502 C   0  0  0  0  0  0  0  0  0  0  0  0
   24.3043  -14.8051  -18.2403 N   0  0  0  0  0  0  0  0  0  0  0  0
   25.3930  -15.5717  -18.1314 C   0  0  0  0  0  0  0  0  0  0  0  0
   25.2299  -16.3802  -17.0643 N   0  0  0  0  0  0  0  0  0  0  0  0
   23.5754  -19.1020  -14.4029 C   0  0  0  0  0  0  0  0  0  0  0  0
   22.6881  -19.0678  -13.5123 O   0  0  0  0  0  0  0  0  0  0  0  0
   24.9875  -22.6181  -10.9712 N   0  0  0  0  0  0  0  0  0  0  0  0
   25.3093  -23.0877  -12.2596 C   0  0  0  0  0  0  0  0  0  0  0  0
   25.7123  -24.2716  -12.3805 O   0  0  0  0  0  0  0  0  0  0  0  0
   25.1613  -22.1777  -13.4068 C   0  0  0  0  0  0  0  0  0  0  0  0
   24.8625  -20.7561  -13.0157 C   0  0  2  0  0  0  0  0  0  0  0  0
   24.7318  -19.9102  -14.1843 N   0  0  0  0  0  0  0  0  0  0  0  0
   25.9186  -20.2149  -12.1030 C   0  0  0  0  0  0  0  0  0  0  0  0
   27.1028  -20.0523  -12.4916 O   0  0  0  0  0  0  0  0  0  0  0  0
   25.6159  -19.8662  -10.7636 N   0  0  0  0  0  0  0  0  0  0  0  0
   26.6526  -19.7982   -9.7247 C   0  0  1  0  0  0  0  0  0  0  0  0
   26.0313  -19.6579   -8.3559 C   0  0  0  0  0  0  0  0  0  0  0  0
   27.3841  -19.4026   -7.1743 S   0  0  0  0  0  0  0  0  0  0  0  0
   27.4161  -21.0695   -9.7645 C   0  0  0  0  0  0  0  0  0  0  0  0
   28.6815  -21.1056   -9.7821 O   0  0  0  0  0  0  0  0  0  0  0  0
   26.7670  -22.2944   -9.7846 O   0  0  0  0  0  0  0  0  0  0  0  0
  2  1  1  1
  3  2  1  0
  4  3  1  0
  4  8  1  0
  5  4  2  0
  6  5  1  0
  6  7  1  0
  7  8  2  0
  9  2  1  0
 10  9  2  0
 11 12  1  0
 12 14  1  0
 12 13  2  0
 15 14  1  6
 15 16  1  0
 15 17  1  0
 16  9  1  0
 17 18  2  0
 17 19  1  0
 19 20  1  0
 20 21  1  1
 20 23  1  0
 22 21  1  0
 23 25  1  0
 24 23  2  0
M  END
$$$$
