HNC.pdb
     RDKit          3D

 25 25  0  0  1  0  0  0  0  0999 V2000
   18.6466  -11.7179  -14.5901 N   0  0  0  0  0  0  0  0  0  0  0  0
   18.2244  -10.6156  -15.4115 C   0  0  1  0  0  0  0  0  0  0  0  0
   16.8153  -10.9525  -15.9164 C   0  0  0  0  0  0  0  0  0  0  0  0
   16.9448  -12.2225  -16.6876 C   0  0  0  0  0  0  0  0  0  0  0  0
   17.4202  -12.3807  -17.9934 C   0  0  0  0  0  0  0  0  0  0  0  0
   17.3782  -13.6772  -18.3216 N   0  0  0  0  0  0  0  0  0  0  0  0
   16.8947  -14.3565  -17.2777 C   0  0  0  0  0  0  0  0  0  0  0  0
   16.6332  -13.4755  -16.2906 N   0  0  0  0  0  0  0  0  0  0  0  0
   18.1972   -9.3330  -14.6873 C   0  0  0  0  0  0  0  0  0  0  0  0
   17.8363   -8.3110  -15.3249 O   0  0  0  0  0  0  0  0  0  0  0  0
   15.8771   -8.1296  -12.1391 N   0  0  0  0  0  0  0  0  0  0  0  0
   16.7259   -8.1543  -11.0154 C   0  0  0  0  0  0  0  0  0  0  0  0
   16.2090   -8.2986   -9.8793 O   0  0  0  0  0  0  0  0  0  0  0  0
   18.1769   -8.0108  -11.2156 C   0  0  0  0  0  0  0  0  0  0  0  0
   18.5789   -7.8962  -12.6608 C   0  0  2  0  0  0  0  0  0  0  0  0
   18.5555   -9.1895  -13.3128 N   0  0  0  0  0  0  0  0  0  0  0  0
   19.9346   -7.2754  -12.7955 C   0  0  0  0  0  0  0  0  0  0  0  0
   20.8870   -7.6075  -12.0455 O   0  0  0  0  0  0  0  0  0  0  0  0
   20.1897   -6.2876  -13.7784 N   0  0  0  0  0  0  0  0  0  0  0  0
   21.5346   -5.7380  -13.9976 C   0  0  1  0  0  0  0  0  0  0  0  0
   21.9894   -5.9834  -15.4161 C   0  0  0  0  0  0  0  0  0  0  0  0
   22.0775   -7.7804  -15.6498 S   0  0  0  0  0  0  0  0  0  0  0  0
   21.4656   -4.2730  -13.7745 C   0  0  0  0  0  0  0  0  0  0  0  0
   20.3696   -3.6414  -13.7211 O   0  0  0  0  0  0  0  0  0  0  0  0
   22.6172   -3.5183  -13.6119 O   0  0  0  0  0  0  0  0  0  0  0  0
  2  1  1  1
  3  2  1  0
  4  3  1  0
  4  8  1  0
  5  4  2  0
  6  5  1  0
  6  7  1  0
  7  8  2  0
  9  2  1  0
 10  9  2  0
 11 12  1  0
 12 14  1  0
 12 13  2  0
 15 14  1  1
 15 16  1  0
 15 17  1  0
 16  9  1  0
 17 18  2  0
 17 19  1  0
 19 20  1  0
 20 21  1  6
 20 23  1  0
 22 21  1  0
 23 25  1  0
 24 23  2  0
M  END
$$$$
