HNC.pdb
     RDKit          3D

 25 25  0  0  1  0  0  0  0  0999 V2000
   20.2044  -14.7067  -17.1959 N   0  0  0  0  0  0  0  0  0  0  0  0
   19.1661  -13.8538  -16.6837 C   0  0  1  0  0  0  0  0  0  0  0  0
   18.3687  -14.6847  -15.6701 C   0  0  0  0  0  0  0  0  0  0  0  0
   17.6735  -15.7429  -16.4583 C   0  0  0  0  0  0  0  0  0  0  0  0
   17.5965  -15.8551  -17.8503 C   0  0  0  0  0  0  0  0  0  0  0  0
   16.8831  -16.9428  -18.1641 N   0  0  0  0  0  0  0  0  0  0  0  0
   16.4997  -17.5324  -17.0282 C   0  0  0  0  0  0  0  0  0  0  0  0
   16.9784  -16.8056  -15.9978 N   0  0  0  0  0  0  0  0  0  0  0  0
   19.6858  -12.6404  -16.0294 C   0  0  0  0  0  0  0  0  0  0  0  0
   20.7896  -12.7268  -15.4331 O   0  0  0  0  0  0  0  0  0  0  0  0
   22.4070   -7.9581  -15.9188 N   0  0  0  0  0  0  0  0  0  0  0  0
   21.6701   -8.8805  -15.1507 C   0  0  0  0  0  0  0  0  0  0  0  0
   21.6072   -8.7076  -13.9078 O   0  0  0  0  0  0  0  0  0  0  0  0
   21.0065  -10.0043  -15.8310 C   0  0  0  0  0  0  0  0  0  0  0  0
   19.5771  -10.2075  -15.4082 C   0  0  2  0  0  0  0  0  0  0  0  0
   19.0096  -11.3831  -16.0360 N   0  0  0  0  0  0  0  0  0  0  0  0
   18.7456   -9.0029  -15.7228 C   0  0  0  0  0  0  0  0  0  0  0  0
   18.6154   -8.5834  -16.9004 O   0  0  0  0  0  0  0  0  0  0  0  0
   18.0744   -8.2923  -14.6972 N   0  0  0  0  0  0  0  0  0  0  0  0
   17.1439   -7.1944  -14.9929 C   0  0  1  0  0  0  0  0  0  0  0  0
   16.0545   -7.1195  -13.9504 C   0  0  0  0  0  0  0  0  0  0  0  0
   15.1479   -8.6900  -14.0056 S   0  0  0  0  0  0  0  0  0  0  0  0
   17.9146   -5.9273  -14.9572 C   0  0  0  0  0  0  0  0  0  0  0  0
   19.1493   -5.8868  -14.6802 O   0  0  0  0  0  0  0  0  0  0  0  0
   17.3067   -4.7115  -15.2300 O   0  0  0  0  0  0  0  0  0  0  0  0
  2  1  1  1
  3  2  1  0
  4  3  1  0
  4  8  1  0
  5  4  2  0
  6  5  1  0
  6  7  1  0
  7  8  2  0
  9  2  1  0
 10  9  2  0
 11 12  1  0
 12 14  1  0
 12 13  2  0
 15 14  1  6
 15 16  1  0
 15 17  1  0
 16  9  1  0
 17 18  2  0
 17 19  1  0
 19 20  1  0
 20 21  1  1
 20 23  1  0
 22 21  1  0
 23 25  1  0
 24 23  2  0
M  END
$$$$
