HNC.pdb
     RDKit          3D

 25 25  0  0  1  0  0  0  0  0999 V2000
   20.0886  -19.7008  -15.4749 N   0  0  0  0  0  0  0  0  0  0  0  0
   21.3415  -19.1594  -15.0221 C   0  0  1  0  0  0  0  0  0  0  0  0
   21.0898  -17.6856  -14.6780 C   0  0  0  0  0  0  0  0  0  0  0  0
   21.1102  -16.9488  -15.9745 C   0  0  0  0  0  0  0  0  0  0  0  0
   22.1537  -16.8901  -16.9039 C   0  0  0  0  0  0  0  0  0  0  0  0
   21.7795  -16.1253  -17.9362 N   0  0  0  0  0  0  0  0  0  0  0  0
   20.5372  -15.6914  -17.7054 C   0  0  0  0  0  0  0  0  0  0  0  0
   20.1340  -16.1902  -16.5189 N   0  0  0  0  0  0  0  0  0  0  0  0
   21.8799  -19.8582  -13.8422 C   0  0  0  0  0  0  0  0  0  0  0  0
   21.1534  -19.9167  -12.8173 O   0  0  0  0  0  0  0  0  0  0  0  0
   25.4420  -24.0261  -14.0021 N   0  0  0  0  0  0  0  0  0  0  0  0
   24.4399  -23.0423  -14.1101 C   0  0  0  0  0  0  0  0  0  0  0  0
   24.2444  -22.5091  -15.2309 O   0  0  0  0  0  0  0  0  0  0  0  0
   23.6657  -22.6799  -12.9121 C   0  0  0  0  0  0  0  0  0  0  0  0
   23.6314  -21.2008  -12.6394 C   0  0  2  0  0  0  0  0  0  0  0  0
   23.1705  -20.4671  -13.8002 N   0  0  0  0  0  0  0  0  0  0  0  0
   24.9764  -20.6999  -12.2135 C   0  0  0  0  0  0  0  0  0  0  0  0
   25.7784  -20.1898  -13.0360 O   0  0  0  0  0  0  0  0  0  0  0  0
   25.3915  -20.7850  -10.8617 N   0  0  0  0  0  0  0  0  0  0  0  0
   26.7573  -20.4394  -10.4446 C   0  0  1  0  0  0  0  0  0  0  0  0
   26.9143  -20.5846   -8.9501 C   0  0  0  0  0  0  0  0  0  0  0  0
   25.7976  -19.3848   -8.1724 S   0  0  0  0  0  0  0  0  0  0  0  0
   27.6857  -21.3876  -11.1076 C   0  0  0  0  0  0  0  0  0  0  0  0
   27.3111  -22.5135  -11.5494 O   0  0  0  0  0  0  0  0  0  0  0  0
   29.0265  -21.0777  -11.2756 O   0  0  0  0  0  0  0  0  0  0  0  0
  2  1  1  1
  3  2  1  0
  4  3  1  0
  4  8  1  0
  5  4  2  0
  6  5  1  0
  6  7  1  0
  7  8  2  0
  9  2  1  0
 10  9  2  0
 11 12  1  0
 12 14  1  0
 12 13  2  0
 15 14  1  6
 15 16  1  0
 15 17  1  0
 16  9  1  0
 17 18  2  0
 17 19  1  0
 19 20  1  0
 20 21  1  1
 20 23  1  0
 22 21  1  0
 23 25  1  0
 24 23  2  0
M  END
$$$$
