HNC.pdb
     RDKit          3D

 25 25  0  0  1  0  0  0  0  0999 V2000
   33.6815  -11.6911  -19.5453 N   0  0  0  0  0  0  0  0  0  0  0  0
   33.1009  -11.1563  -18.3433 C   0  0  1  0  0  0  0  0  0  0  0  0
   33.8254   -9.8363  -18.0494 C   0  0  0  0  0  0  0  0  0  0  0  0
   35.2402  -10.1992  -17.7475 C   0  0  0  0  0  0  0  0  0  0  0  0
   36.3986   -9.6293  -18.2857 C   0  0  0  0  0  0  0  0  0  0  0  0
   37.4702  -10.2331  -17.7589 N   0  0  0  0  0  0  0  0  0  0  0  0
   37.0446  -11.1678  -16.9043 C   0  0  0  0  0  0  0  0  0  0  0  0
   35.6961  -11.1459  -16.8986 N   0  0  0  0  0  0  0  0  0  0  0  0
   31.6531  -10.9108  -18.4610 C   0  0  0  0  0  0  0  0  0  0  0  0
   31.2286  -10.4355  -19.5451 O   0  0  0  0  0  0  0  0  0  0  0  0
   26.5566  -10.6592  -17.7536 N   0  0  0  0  0  0  0  0  0  0  0  0
   27.0347  -11.4845  -16.7172 C   0  0  0  0  0  0  0  0  0  0  0  0
   26.1982  -12.0444  -15.9652 O   0  0  0  0  0  0  0  0  0  0  0  0
   28.4875  -11.6573  -16.5571 C   0  0  0  0  0  0  0  0  0  0  0  0
   29.3011  -10.9055  -17.5750 C   0  0  2  0  0  0  0  0  0  0  0  0
   30.7146  -11.1811  -17.4196 N   0  0  0  0  0  0  0  0  0  0  0  0
   29.0501   -9.4323  -17.4842 C   0  0  0  0  0  0  0  0  0  0  0  0
   29.4893   -8.7487  -16.5253 O   0  0  0  0  0  0  0  0  0  0  0  0
   28.3049   -8.7569  -18.4819 N   0  0  0  0  0  0  0  0  0  0  0  0
   28.1062   -7.3014  -18.4521 C   0  0  1  0  0  0  0  0  0  0  0  0
   29.3122   -6.5842  -19.0095 C   0  0  0  0  0  0  0  0  0  0  0  0
   29.0520   -4.8083  -18.7454 S   0  0  0  0  0  0  0  0  0  0  0  0
   26.9368   -6.9875  -19.3093 C   0  0  0  0  0  0  0  0  0  0  0  0
   26.5097   -7.7810  -20.1987 O   0  0  0  0  0  0  0  0  0  0  0  0
   26.2486   -5.7918  -19.1721 O   0  0  0  0  0  0  0  0  0  0  0  0
  2  1  1  6
  3  2  1  0
  4  3  1  0
  4  8  1  0
  5  4  2  0
  6  5  1  0
  6  7  1  0
  7  8  2  0
  9  2  1  0
 10  9  2  0
 11 12  1  0
 12 14  1  0
 12 13  2  0
 15 14  1  1
 15 16  1  0
 15 17  1  0
 16  9  1  0
 17 18  2  0
 17 19  1  0
 19 20  1  0
 20 21  1  6
 20 23  1  0
 22 21  1  0
 23 25  1  0
 24 23  2  0
M  END
$$$$
