GYR.pdb
     RDKit          3D

 28 28  0  0  1  0  0  0  0  0999 V2000
    4.5363  -16.4916   20.7647 N   0  0  0  0  0  0  0  0  0  0  0  0
    4.7485  -16.8581   22.1190 C   0  0  0  0  0  0  0  0  0  0  0  0
    5.9078  -16.1713   22.7492 C   0  0  0  0  0  0  0  0  0  0  0  0
    6.7203  -15.5442   22.0245 O   0  0  0  0  0  0  0  0  0  0  0  0
   11.8867  -13.8865   29.0648 O   0  0  0  0  0  0  0  0  0  0  0  0
   10.7264  -14.2147   28.3518 C   0  0  0  0  0  0  0  0  0  0  0  0
   10.2529  -15.5059   28.3407 C   0  0  0  0  0  0  0  0  0  0  0  0
    9.1110  -15.8354   27.6412 C   0  0  0  0  0  0  0  0  0  0  0  0
    8.3872  -14.9005   26.9216 C   0  0  0  0  0  0  0  0  0  0  0  0
    7.1594  -15.2774   26.1858 C   0  0  0  0  0  0  0  0  0  0  0  0
    7.3527  -15.5982   24.7461 C   0  0  2  0  0  0  0  0  0  0  0  0
    6.1552  -16.1819   24.1403 N   0  0  0  0  0  0  0  0  0  0  0  0
    8.5367  -16.4269   24.4320 C   0  0  0  0  0  0  0  0  0  0  0  0
    8.5332  -17.6917   24.6381 O   0  0  0  0  0  0  0  0  0  0  0  0
    8.8707  -13.6131   26.9402 C   0  0  0  0  0  0  0  0  0  0  0  0
   10.0211  -13.2672   27.6416 C   0  0  0  0  0  0  0  0  0  0  0  0
    7.7288  -13.4792   19.5487 N   0  0  0  0  0  0  0  0  0  0  0  0
    9.1102  -13.1660   19.5112 C   0  0  0  0  0  0  0  0  0  0  0  0
    9.4565  -11.9244   19.6548 N   0  0  0  0  0  0  0  0  0  0  0  0
   10.0637  -14.2012   19.3209 N   0  0  0  0  0  0  0  0  0  0  0  0
   10.9496  -14.5546   20.4091 C   0  0  0  0  0  0  0  0  0  0  0  0
   10.4677  -15.8241   21.1170 C   0  0  0  0  0  0  0  0  0  0  0  0
   11.4153  -16.1478   22.2144 C   0  0  0  0  0  0  0  0  0  0  0  0
   10.7951  -16.8307   23.4151 C   0  0  2  0  0  0  0  0  0  0  0  0
    9.7421  -15.9041   23.8866 N   0  0  0  0  0  0  0  0  0  0  0  0
   11.8419  -16.9780   24.4514 C   0  0  0  0  0  0  0  0  0  0  0  0
   12.9114  -17.8354   24.1771 O   0  0  0  0  0  0  0  0  0  0  0  0
   11.8366  -16.3906   25.5542 O   0  0  0  0  0  0  0  0  0  0  0  0
  2  1  1  0
  3  2  1  0
  4  3  2  0
  6 16  2  0
  6  5  1  0
  7  6  1  0
  8  9  1  0
  8  7  2  0
  9 15  2  0
 10  9  1  0
 11 10  1  1
 11 12  1  0
 12  3  1  0
 13 25  1  0
 13 11  1  0
 14 13  2  0
 15 16  1  0
 18 19  2  0
 18 17  1  0
 20 18  1  0
 21 20  1  0
 22 21  1  0
 23 22  1  0
 24 23  1  6
 24 25  1  0
 26 27  1  0
 26 24  1  0
 28 26  2  0
M  END
$$$$
