GYR.pdb
     RDKit          3D

 28 28  0  0  1  0  0  0  0  0999 V2000
    7.8663  -12.5667   18.8658 N   0  0  0  0  0  0  0  0  0  0  0  0
    7.4243  -13.5777   19.7581 C   0  0  0  0  0  0  0  0  0  0  0  0
    8.1265  -13.5658   21.0694 C   0  0  0  0  0  0  0  0  0  0  0  0
    9.3407  -13.2463   21.1148 O   0  0  0  0  0  0  0  0  0  0  0  0
    9.8411  -14.8363   29.7776 O   0  0  0  0  0  0  0  0  0  0  0  0
    9.2300  -14.5941   28.5406 C   0  0  0  0  0  0  0  0  0  0  0  0
    9.2305  -13.3319   27.9943 C   0  0  0  0  0  0  0  0  0  0  0  0
    8.6310  -13.0870   26.7767 C   0  0  0  0  0  0  0  0  0  0  0  0
    8.0044  -14.0816   26.0460 C   0  0  0  0  0  0  0  0  0  0  0  0
    7.3756  -13.7952   24.7370 C   0  0  0  0  0  0  0  0  0  0  0  0
    8.2278  -14.0659   23.5481 C   0  0  2  0  0  0  0  0  0  0  0  0
    7.4981  -13.8984   22.2906 N   0  0  0  0  0  0  0  0  0  0  0  0
    8.9368  -15.3638   23.5554 C   0  0  0  0  0  0  0  0  0  0  0  0
    8.3055  -16.4643   23.3747 O   0  0  0  0  0  0  0  0  0  0  0  0
    8.0104  -15.3392   26.6027 C   0  0  0  0  0  0  0  0  0  0  0  0
    8.6113  -15.5999   27.8298 C   0  0  0  0  0  0  0  0  0  0  0  0
   13.7854  -14.9388   17.1469 N   0  0  0  0  0  0  0  0  0  0  0  0
   13.7440  -14.7645   18.5524 C   0  0  0  0  0  0  0  0  0  0  0  0
   14.6123  -13.9666   19.0924 N   0  0  0  0  0  0  0  0  0  0  0  0
   12.7698  -15.4556   19.3209 N   0  0  0  0  0  0  0  0  0  0  0  0
   13.0436  -15.7472   20.7116 C   0  0  0  0  0  0  0  0  0  0  0  0
   11.8466  -16.4372   21.3720 C   0  0  0  0  0  0  0  0  0  0  0  0
   12.1662  -16.6827   22.8019 C   0  0  0  0  0  0  0  0  0  0  0  0
   10.9640  -16.8350   23.7096 C   0  0  2  0  0  0  0  0  0  0  0  0
   10.3395  -15.4942   23.7537 N   0  0  0  0  0  0  0  0  0  0  0  0
   11.4498  -17.2124   25.0561 C   0  0  0  0  0  0  0  0  0  0  0  0
   11.6436  -18.5716   25.3193 O   0  0  0  0  0  0  0  0  0  0  0  0
   11.6981  -16.4020   25.9740 O   0  0  0  0  0  0  0  0  0  0  0  0
  2  1  1  0
  3  2  1  0
  4  3  2  0
  6 16  2  0
  6  5  1  0
  7  6  1  0
  8  9  1  0
  8  7  2  0
  9 15  2  0
 10  9  1  0
 11 10  1  1
 11 12  1  0
 12  3  1  0
 13 25  1  0
 13 11  1  0
 14 13  2  0
 15 16  1  0
 18 19  2  0
 18 17  1  0
 20 18  1  0
 21 20  1  0
 22 21  1  0
 23 22  1  0
 24 23  1  6
 24 25  1  0
 26 27  1  0
 26 24  1  0
 28 26  2  0
M  END
$$$$
