GYR.pdb
     RDKit          3D

 28 28  0  0  1  0  0  0  0  0999 V2000
    4.9709  -21.1423   23.1944 N   0  0  0  0  0  0  0  0  0  0  0  0
    5.7921  -20.6615   24.2471 C   0  0  0  0  0  0  0  0  0  0  0  0
    6.0251  -19.1930   24.1998 C   0  0  0  0  0  0  0  0  0  0  0  0
    5.6583  -18.5436   23.1888 O   0  0  0  0  0  0  0  0  0  0  0  0
    7.3788  -10.7076   26.5590 O   0  0  0  0  0  0  0  0  0  0  0  0
    7.2353  -12.1011   26.5482 C   0  0  0  0  0  0  0  0  0  0  0  0
    8.3407  -12.9187   26.5170 C   0  0  0  0  0  0  0  0  0  0  0  0
    8.2062  -14.2913   26.5067 C   0  0  0  0  0  0  0  0  0  0  0  0
    6.9706  -14.9148   26.5269 C   0  0  0  0  0  0  0  0  0  0  0  0
    6.8526  -16.3902   26.5241 C   0  0  0  0  0  0  0  0  0  0  0  0
    6.8980  -17.0304   25.1820 C   0  0  2  0  0  0  0  0  0  0  0  0
    6.6459  -18.4706   25.2435 N   0  0  0  0  0  0  0  0  0  0  0  0
    8.1172  -16.7612   24.3894 C   0  0  0  0  0  0  0  0  0  0  0  0
    9.1673  -17.4834   24.5238 O   0  0  0  0  0  0  0  0  0  0  0  0
    5.8731  -14.0865   26.5579 C   0  0  0  0  0  0  0  0  0  0  0  0
    5.9946  -12.7009   26.5687 C   0  0  0  0  0  0  0  0  0  0  0  0
    8.2282  -12.4601   17.0998 N   0  0  0  0  0  0  0  0  0  0  0  0
    8.2368  -13.8567   17.3391 C   0  0  0  0  0  0  0  0  0  0  0  0
    7.7378  -14.6331   16.4279 N   0  0  0  0  0  0  0  0  0  0  0  0
    8.7822  -14.3621   18.5492 N   0  0  0  0  0  0  0  0  0  0  0  0
    9.5752  -13.4879   19.3863 C   0  0  0  0  0  0  0  0  0  0  0  0
   10.1640  -14.2537   20.5745 C   0  0  0  0  0  0  0  0  0  0  0  0
    9.0678  -14.5803   21.5225 C   0  0  0  0  0  0  0  0  0  0  0  0
    9.4057  -15.6379   22.5520 C   0  0  2  0  0  0  0  0  0  0  0  0
    8.2212  -15.7105   23.4359 N   0  0  0  0  0  0  0  0  0  0  0  0
   10.5830  -15.1727   23.3193 C   0  0  0  0  0  0  0  0  0  0  0  0
   11.8231  -15.1795   22.6740 O   0  0  0  0  0  0  0  0  0  0  0  0
   10.5467  -14.7751   24.5033 O   0  0  0  0  0  0  0  0  0  0  0  0
  2  1  1  0
  3  2  1  0
  4  3  2  0
  6 16  2  0
  6  5  1  0
  7  6  1  0
  8  9  1  0
  8  7  2  0
  9 15  2  0
 10  9  1  0
 11 10  1  1
 11 12  1  0
 12  3  1  0
 13 25  1  0
 13 11  1  0
 14 13  2  0
 15 16  1  0
 18 19  2  0
 18 17  1  0
 20 18  1  0
 21 20  1  0
 22 21  1  0
 23 22  1  0
 24 23  1  6
 24 25  1  0
 26 27  1  0
 26 24  1  0
 28 26  2  0
M  END
$$$$
