GYR.pdb
     RDKit          3D

 28 28  0  0  1  0  0  0  0  0999 V2000
    6.0077  -14.4997   20.6186 N   0  0  0  0  0  0  0  0  0  0  0  0
    6.1234  -15.5347   21.5824 C   0  0  0  0  0  0  0  0  0  0  0  0
    7.2463  -15.3381   22.5381 C   0  0  0  0  0  0  0  0  0  0  0  0
    8.2772  -14.7277   22.1598 O   0  0  0  0  0  0  0  0  0  0  0  0
    5.5560  -10.0208   26.6646 O   0  0  0  0  0  0  0  0  0  0  0  0
    6.1011  -11.3058   26.5451 C   0  0  0  0  0  0  0  0  0  0  0  0
    7.4336  -11.4766   26.2505 C   0  0  0  0  0  0  0  0  0  0  0  0
    7.9764  -12.7389   26.1320 C   0  0  0  0  0  0  0  0  0  0  0  0
    7.2234  -13.8880   26.3000 C   0  0  0  0  0  0  0  0  0  0  0  0
    7.8312  -15.2319   26.1762 C   0  0  0  0  0  0  0  0  0  0  0  0
    8.3188  -15.5877   24.8165 C   0  0  2  0  0  0  0  0  0  0  0  0
    7.2229  -15.8053   23.8714 N   0  0  0  0  0  0  0  0  0  0  0  0
    9.2726  -16.7165   24.7576 C   0  0  0  0  0  0  0  0  0  0  0  0
    8.9153  -17.9030   25.0846 O   0  0  0  0  0  0  0  0  0  0  0  0
    5.8925  -13.7041   26.5940 C   0  0  0  0  0  0  0  0  0  0  0  0
    5.3323  -12.4367   26.7165 C   0  0  0  0  0  0  0  0  0  0  0  0
   15.5193  -15.3281   19.6319 N   0  0  0  0  0  0  0  0  0  0  0  0
   14.1881  -14.8963   19.4102 C   0  0  0  0  0  0  0  0  0  0  0  0
   13.9674  -14.0899   18.4186 N   0  0  0  0  0  0  0  0  0  0  0  0
   13.1476  -15.3495   20.2640 N   0  0  0  0  0  0  0  0  0  0  0  0
   13.4860  -16.1056   21.4505 C   0  0  0  0  0  0  0  0  0  0  0  0
   12.2241  -16.6060   22.1590 C   0  0  0  0  0  0  0  0  0  0  0  0
   12.6272  -17.3997   23.3483 C   0  0  0  0  0  0  0  0  0  0  0  0
   11.4944  -17.7802   24.2781 C   0  0  2  0  0  0  0  0  0  0  0  0
   10.6262  -16.5835   24.3407 N   0  0  0  0  0  0  0  0  0  0  0  0
   12.0698  -18.0593   25.6132 C   0  0  0  0  0  0  0  0  0  0  0  0
   12.8382  -19.2178   25.7600 O   0  0  0  0  0  0  0  0  0  0  0  0
   11.9165  -17.3329   26.6181 O   0  0  0  0  0  0  0  0  0  0  0  0
  2  1  1  0
  3  2  1  0
  4  3  2  0
  6 16  2  0
  6  5  1  0
  7  6  1  0
  8  9  1  0
  8  7  2  0
  9 15  2  0
 10  9  1  0
 11 10  1  1
 11 12  1  0
 12  3  1  0
 13 25  1  0
 13 11  1  0
 14 13  2  0
 15 16  1  0
 18 19  2  0
 18 17  1  0
 20 18  1  0
 21 20  1  0
 22 21  1  0
 23 22  1  0
 24 23  1  6
 24 25  1  0
 26 27  1  0
 26 24  1  0
 28 26  2  0
M  END
$$$$
