GYR.pdb
     RDKit          3D

 28 28  0  0  1  0  0  0  0  0999 V2000
    4.5139  -19.5976   20.9175 N   0  0  0  0  0  0  0  0  0  0  0  0
    4.8693  -19.5126   22.2887 C   0  0  0  0  0  0  0  0  0  0  0  0
    5.6126  -18.2721   22.6373 C   0  0  0  0  0  0  0  0  0  0  0  0
    5.8345  -17.4160   21.7450 O   0  0  0  0  0  0  0  0  0  0  0  0
    8.5056  -11.1878   27.1522 O   0  0  0  0  0  0  0  0  0  0  0  0
    7.9884  -12.4376   26.7875 C   0  0  0  0  0  0  0  0  0  0  0  0
    6.6925  -12.5565   26.3425 C   0  0  0  0  0  0  0  0  0  0  0  0
    6.1776  -13.7838   25.9815 C   0  0  0  0  0  0  0  0  0  0  0  0
    6.9235  -14.9480   26.0451 C   0  0  0  0  0  0  0  0  0  0  0  0
    6.3507  -16.2524   25.6436 C   0  0  0  0  0  0  0  0  0  0  0  0
    6.7513  -16.7361   24.2951 C   0  0  2  0  0  0  0  0  0  0  0  0
    6.0932  -17.9931   23.9364 N   0  0  0  0  0  0  0  0  0  0  0  0
    8.2082  -16.8410   24.0633 C   0  0  0  0  0  0  0  0  0  0  0  0
    8.8720  -17.8585   24.4710 O   0  0  0  0  0  0  0  0  0  0  0  0
    8.2176  -14.8162   26.4917 C   0  0  0  0  0  0  0  0  0  0  0  0
    8.7494  -13.5844   26.8589 C   0  0  0  0  0  0  0  0  0  0  0  0
    7.6878  -13.1890   19.8312 N   0  0  0  0  0  0  0  0  0  0  0  0
    8.3864  -13.4797   18.6333 C   0  0  0  0  0  0  0  0  0  0  0  0
    7.7131  -13.4951   17.5248 N   0  0  0  0  0  0  0  0  0  0  0  0
    9.7816  -13.7419   18.6757 N   0  0  0  0  0  0  0  0  0  0  0  0
   10.4538  -13.7853   19.9564 C   0  0  0  0  0  0  0  0  0  0  0  0
    9.9943  -14.9951   20.7750 C   0  0  0  0  0  0  0  0  0  0  0  0
   10.7585  -15.0281   22.0485 C   0  0  0  0  0  0  0  0  0  0  0  0
   10.3704  -16.1406   22.9994 C   0  0  2  0  0  0  0  0  0  0  0  0
    8.9712  -15.8509   23.3841 N   0  0  0  0  0  0  0  0  0  0  0  0
   11.2502  -16.0577   24.1870 C   0  0  0  0  0  0  0  0  0  0  0  0
   12.5892  -16.4277   24.0306 O   0  0  0  0  0  0  0  0  0  0  0  0
   10.8803  -15.6811   25.3195 O   0  0  0  0  0  0  0  0  0  0  0  0
  2  1  1  0
  3  2  1  0
  4  3  2  0
  6 16  2  0
  6  5  1  0
  7  6  1  0
  8  9  1  0
  8  7  2  0
  9 15  2  0
 10  9  1  0
 11 10  1  1
 11 12  1  0
 12  3  1  0
 13 25  1  0
 13 11  1  0
 14 13  2  0
 15 16  1  0
 18 19  2  0
 18 17  1  0
 20 18  1  0
 21 20  1  0
 22 21  1  0
 23 22  1  0
 24 23  1  6
 24 25  1  0
 26 27  1  0
 26 24  1  0
 28 26  2  0
M  END
$$$$
