GYR.pdb
     RDKit          3D

 28 28  0  0  1  0  0  0  0  0999 V2000
    5.8061  -21.6764   24.5892 N   0  0  0  0  0  0  0  0  0  0  0  0
    6.7264  -20.9211   25.3612 C   0  0  0  0  0  0  0  0  0  0  0  0
    6.6570  -19.4567   25.1092 C   0  0  0  0  0  0  0  0  0  0  0  0
    6.0183  -19.0328   24.1137 O   0  0  0  0  0  0  0  0  0  0  0  0
    6.7616  -10.6098   26.1938 O   0  0  0  0  0  0  0  0  0  0  0  0
    6.9026  -11.9930   26.3644 C   0  0  0  0  0  0  0  0  0  0  0  0
    8.1368  -12.5899   26.2553 C   0  0  0  0  0  0  0  0  0  0  0  0
    8.2824  -13.9511   26.4226 C   0  0  0  0  0  0  0  0  0  0  0  0
    7.2118  -14.7815   26.7055 C   0  0  0  0  0  0  0  0  0  0  0  0
    7.3952  -16.2387   26.8894 C   0  0  0  0  0  0  0  0  0  0  0  0
    7.2537  -17.0591   25.6565 C   0  0  2  0  0  0  0  0  0  0  0  0
    7.2778  -18.4951   25.9377 N   0  0  0  0  0  0  0  0  0  0  0  0
    8.2005  -16.7386   24.5665 C   0  0  0  0  0  0  0  0  0  0  0  0
    9.4027  -17.1823   24.5819 O   0  0  0  0  0  0  0  0  0  0  0  0
    5.9831  -14.1729   26.8120 C   0  0  0  0  0  0  0  0  0  0  0  0
    5.8223  -12.8013   26.6456 C   0  0  0  0  0  0  0  0  0  0  0  0
    8.1108  -12.2955   16.0386 N   0  0  0  0  0  0  0  0  0  0  0  0
    7.9242  -13.6054   16.5454 C   0  0  0  0  0  0  0  0  0  0  0  0
    7.0895  -14.3832   15.9285 N   0  0  0  0  0  0  0  0  0  0  0  0
    8.6432  -14.0263   17.6956 N   0  0  0  0  0  0  0  0  0  0  0  0
    7.9216  -14.2954   18.9207 C   0  0  0  0  0  0  0  0  0  0  0  0
    8.8795  -14.7153   20.0392 C   0  0  0  0  0  0  0  0  0  0  0  0
    8.0865  -15.0191   21.2581 C   0  0  0  0  0  0  0  0  0  0  0  0
    8.8230  -15.8061   22.3214 C   0  0  2  0  0  0  0  0  0  0  0  0
    7.8636  -15.9374   23.4403 N   0  0  0  0  0  0  0  0  0  0  0  0
    9.9966  -15.0123   22.7503 C   0  0  0  0  0  0  0  0  0  0  0  0
   11.1727  -15.1371   22.0051 O   0  0  0  0  0  0  0  0  0  0  0  0
   10.0102  -14.2392   23.7318 O   0  0  0  0  0  0  0  0  0  0  0  0
  2  1  1  0
  3  2  1  0
  4  3  2  0
  6 16  2  0
  6  5  1  0
  7  6  1  0
  8  9  1  0
  8  7  2  0
  9 15  2  0
 10  9  1  0
 11 10  1  1
 11 12  1  0
 12  3  1  0
 13 25  1  0
 13 11  1  0
 14 13  2  0
 15 16  1  0
 18 19  2  0
 18 17  1  0
 20 18  1  0
 21 20  1  0
 22 21  1  0
 23 22  1  0
 24 23  1  6
 24 25  1  0
 26 27  1  0
 26 24  1  0
 28 26  2  0
M  END
$$$$
