GYR.pdb
     RDKit          3D

 28 28  0  0  1  0  0  0  0  0999 V2000
    5.1762  -21.7686   24.1469 N   0  0  0  0  0  0  0  0  0  0  0  0
    6.2659  -21.2283   24.8778 C   0  0  0  0  0  0  0  0  0  0  0  0
    6.4859  -19.7770   24.6367 C   0  0  0  0  0  0  0  0  0  0  0  0
    6.4976  -19.3435   23.4575 O   0  0  0  0  0  0  0  0  0  0  0  0
    7.4371  -10.9782   25.6234 O   0  0  0  0  0  0  0  0  0  0  0  0
    7.2810  -12.3496   25.8627 C   0  0  0  0  0  0  0  0  0  0  0  0
    6.0331  -12.9273   25.8373 C   0  0  0  0  0  0  0  0  0  0  0  0
    5.8727  -14.2769   26.0716 C   0  0  0  0  0  0  0  0  0  0  0  0
    6.9414  -15.1142   26.3414 C   0  0  0  0  0  0  0  0  0  0  0  0
    6.7442  -16.5615   26.5810 C   0  0  0  0  0  0  0  0  0  0  0  0
    7.0742  -17.4480   25.4328 C   0  0  2  0  0  0  0  0  0  0  0  0
    6.6864  -18.8384   25.6737 N   0  0  0  0  0  0  0  0  0  0  0  0
    8.4748  -17.3852   24.9622 C   0  0  0  0  0  0  0  0  0  0  0  0
    9.3808  -18.1305   25.4780 O   0  0  0  0  0  0  0  0  0  0  0  0
    8.1837  -14.5247   26.3643 C   0  0  0  0  0  0  0  0  0  0  0  0
    8.3596  -13.1650   26.1297 C   0  0  0  0  0  0  0  0  0  0  0  0
    7.5658  -14.0766   18.0803 N   0  0  0  0  0  0  0  0  0  0  0  0
    8.2786  -13.0583   18.7603 C   0  0  0  0  0  0  0  0  0  0  0  0
    7.9884  -11.8246   18.4846 N   0  0  0  0  0  0  0  0  0  0  0  0
    9.2751  -13.4079   19.7100 N   0  0  0  0  0  0  0  0  0  0  0  0
    9.4938  -14.8036   20.0234 C   0  0  0  0  0  0  0  0  0  0  0  0
    9.7251  -14.9976   21.5247 C   0  0  0  0  0  0  0  0  0  0  0  0
    9.9625  -16.4402   21.7887 C   0  0  0  0  0  0  0  0  0  0  0  0
   10.2029  -16.7941   23.2410 C   0  0  2  0  0  0  0  0  0  0  0  0
    8.9193  -16.5198   23.9242 N   0  0  0  0  0  0  0  0  0  0  0  0
   11.2575  -15.8966   23.7642 C   0  0  0  0  0  0  0  0  0  0  0  0
   10.8938  -14.9699   24.7455 O   0  0  0  0  0  0  0  0  0  0  0  0
   12.4495  -15.9085   23.3900 O   0  0  0  0  0  0  0  0  0  0  0  0
  2  1  1  0
  3  2  1  0
  4  3  2  0
  6 16  2  0
  6  5  1  0
  7  6  1  0
  8  9  1  0
  8  7  2  0
  9 15  2  0
 10  9  1  0
 11 10  1  1
 11 12  1  0
 12  3  1  0
 13 25  1  0
 13 11  1  0
 14 13  2  0
 15 16  1  0
 18 19  2  0
 18 17  1  0
 20 18  1  0
 21 20  1  0
 22 21  1  0
 23 22  1  0
 24 23  1  6
 24 25  1  0
 26 27  1  0
 26 24  1  0
 28 26  2  0
M  END
$$$$
