GYR.pdb
     RDKit          3D

 28 28  0  0  1  0  0  0  0  0999 V2000
    8.6547  -16.7158   17.7436 N   0  0  0  0  0  0  0  0  0  0  0  0
    7.6082  -16.5244   18.6826 C   0  0  0  0  0  0  0  0  0  0  0  0
    8.0754  -16.0273   20.0046 C   0  0  0  0  0  0  0  0  0  0  0  0
    9.2319  -16.3198   20.3987 O   0  0  0  0  0  0  0  0  0  0  0  0
    7.8960  -12.3220   28.1866 O   0  0  0  0  0  0  0  0  0  0  0  0
    7.6472  -12.6662   26.8517 C   0  0  0  0  0  0  0  0  0  0  0  0
    6.6764  -13.5876   26.5352 C   0  0  0  0  0  0  0  0  0  0  0  0
    6.4264  -13.9304   25.2230 C   0  0  0  0  0  0  0  0  0  0  0  0
    7.1269  -13.3758   24.1659 C   0  0  0  0  0  0  0  0  0  0  0  0
    6.8338  -13.7538   22.7652 C   0  0  0  0  0  0  0  0  0  0  0  0
    7.7166  -14.8046   22.1909 C   0  0  2  0  0  0  0  0  0  0  0  0
    7.2817  -15.2306   20.8601 N   0  0  0  0  0  0  0  0  0  0  0  0
    7.9454  -15.9845   23.0528 C   0  0  0  0  0  0  0  0  0  0  0  0
    7.0337  -16.8696   23.2194 O   0  0  0  0  0  0  0  0  0  0  0  0
    8.0950  -12.4561   24.4952 C   0  0  0  0  0  0  0  0  0  0  0  0
    8.3573  -12.1013   25.8143 C   0  0  0  0  0  0  0  0  0  0  0  0
   13.9197  -22.0858   24.3529 N   0  0  0  0  0  0  0  0  0  0  0  0
   14.2376  -20.7117   24.4890 C   0  0  0  0  0  0  0  0  0  0  0  0
   15.4247  -20.4006   24.9088 N   0  0  0  0  0  0  0  0  0  0  0  0
   13.2657  -19.7272   24.1678 N   0  0  0  0  0  0  0  0  0  0  0  0
   11.9690  -20.1466   23.6813 C   0  0  0  0  0  0  0  0  0  0  0  0
   10.8440  -19.5019   24.4959 C   0  0  0  0  0  0  0  0  0  0  0  0
   10.4566  -18.2232   23.8463 C   0  0  0  0  0  0  0  0  0  0  0  0
    9.3253  -17.4785   24.5231 C   0  0  2  0  0  0  0  0  0  0  0  0
    9.1635  -16.2300   23.7454 N   0  0  0  0  0  0  0  0  0  0  0  0
    9.7459  -17.1628   25.9068 C   0  0  0  0  0  0  0  0  0  0  0  0
    9.6553  -18.1802   26.8613 O   0  0  0  0  0  0  0  0  0  0  0  0
   10.1755  -16.0512   26.2820 O   0  0  0  0  0  0  0  0  0  0  0  0
  2  1  1  0
  3  2  1  0
  4  3  2  0
  6 16  2  0
  6  5  1  0
  7  6  1  0
  8  9  1  0
  8  7  2  0
  9 15  2  0
 10  9  1  0
 11 10  1  1
 11 12  1  0
 12  3  1  0
 13 25  1  0
 13 11  1  0
 14 13  2  0
 15 16  1  0
 18 19  2  0
 18 17  1  0
 20 18  1  0
 21 20  1  0
 22 21  1  0
 23 22  1  0
 24 23  1  6
 24 25  1  0
 26 27  1  0
 26 24  1  0
 28 26  2  0
M  END
$$$$
