GYR.pdb
     RDKit          3D

 28 28  0  0  1  0  0  0  0  0999 V2000
    8.8083  -17.4597   18.8549 N   0  0  0  0  0  0  0  0  0  0  0  0
    7.7315  -16.9707   19.6391 C   0  0  0  0  0  0  0  0  0  0  0  0
    8.1653  -16.2462   20.8638 C   0  0  0  0  0  0  0  0  0  0  0  0
    9.2801  -16.5160   21.3764 O   0  0  0  0  0  0  0  0  0  0  0  0
    7.3852  -11.4541   28.4276 O   0  0  0  0  0  0  0  0  0  0  0  0
    7.3060  -11.9340   27.1139 C   0  0  0  0  0  0  0  0  0  0  0  0
    6.2116  -12.6547   26.6964 C   0  0  0  0  0  0  0  0  0  0  0  0
    6.1273  -13.1295   25.4043 C   0  0  0  0  0  0  0  0  0  0  0  0
    7.1234  -12.9115   24.4684 C   0  0  0  0  0  0  0  0  0  0  0  0
    7.0056  -13.4242   23.0849 C   0  0  0  0  0  0  0  0  0  0  0  0
    7.6897  -14.7194   22.8250 C   0  0  2  0  0  0  0  0  0  0  0  0
    7.3841  -15.2538   21.4974 N   0  0  0  0  0  0  0  0  0  0  0  0
    7.4868  -15.7637   23.8524 C   0  0  0  0  0  0  0  0  0  0  0  0
    6.3657  -16.3746   23.9632 O   0  0  0  0  0  0  0  0  0  0  0  0
    8.2126  -12.1899   24.8980 C   0  0  0  0  0  0  0  0  0  0  0  0
    8.3103  -11.7052   26.1981 C   0  0  0  0  0  0  0  0  0  0  0  0
    4.4018  -22.9046   24.4573 N   0  0  0  0  0  0  0  0  0  0  0  0
    5.7808  -22.5804   24.4884 C   0  0  0  0  0  0  0  0  0  0  0  0
    6.6341  -23.5560   24.5357 N   0  0  0  0  0  0  0  0  0  0  0  0
    6.1866  -21.2196   24.4672 N   0  0  0  0  0  0  0  0  0  0  0  0
    7.5898  -20.8983   24.6147 C   0  0  0  0  0  0  0  0  0  0  0  0
    7.7877  -19.7577   25.6171 C   0  0  0  0  0  0  0  0  0  0  0  0
    8.0142  -18.4960   24.8662 C   0  0  0  0  0  0  0  0  0  0  0  0
    8.2139  -17.2661   25.7265 C   0  0  2  0  0  0  0  0  0  0  0  0
    8.4922  -16.1683   24.7741 N   0  0  0  0  0  0  0  0  0  0  0  0
    9.3923  -17.4972   26.5920 C   0  0  0  0  0  0  0  0  0  0  0  0
   10.5805  -16.8392   26.2609 O   0  0  0  0  0  0  0  0  0  0  0  0
    9.4002  -18.2393   27.5972 O   0  0  0  0  0  0  0  0  0  0  0  0
  2  1  1  0
  3  2  1  0
  4  3  2  0
  6 16  2  0
  6  5  1  0
  7  6  1  0
  8  9  1  0
  8  7  2  0
  9 15  2  0
 10  9  1  0
 11 10  1  1
 11 12  1  0
 12  3  1  0
 13 25  1  0
 13 11  1  0
 14 13  2  0
 15 16  1  0
 18 19  2  0
 18 17  1  0
 20 18  1  0
 21 20  1  0
 22 21  1  0
 23 22  1  0
 24 23  1  6
 24 25  1  0
 26 27  1  0
 26 24  1  0
 28 26  2  0
M  END
$$$$
