GYR.pdb
     RDKit          3D

 28 28  0  0  1  0  0  0  0  0999 V2000
    4.7662  -16.9106   20.6948 N   0  0  0  0  0  0  0  0  0  0  0  0
    4.8719  -17.2766   22.0618 C   0  0  0  0  0  0  0  0  0  0  0  0
    5.9054  -16.5092   22.8074 C   0  0  0  0  0  0  0  0  0  0  0  0
    6.6473  -15.7094   22.1843 O   0  0  0  0  0  0  0  0  0  0  0  0
   11.1992  -13.9813   29.6095 O   0  0  0  0  0  0  0  0  0  0  0  0
   10.1330  -14.4216   28.8146 C   0  0  0  0  0  0  0  0  0  0  0  0
    9.2618  -13.5198   28.2495 C   0  0  0  0  0  0  0  0  0  0  0  0
    8.2105  -13.9468   27.4657 C   0  0  0  0  0  0  0  0  0  0  0  0
    7.9755  -15.2860   27.2067 C   0  0  0  0  0  0  0  0  0  0  0  0
    6.8450  -15.7187   26.3548 C   0  0  0  0  0  0  0  0  0  0  0  0
    7.1733  -15.9291   24.9192 C   0  0  2  0  0  0  0  0  0  0  0  0
    6.1068  -16.6278   24.2009 N   0  0  0  0  0  0  0  0  0  0  0  0
    8.4754  -16.5777   24.6524 C   0  0  0  0  0  0  0  0  0  0  0  0
    8.6527  -17.8260   24.8819 O   0  0  0  0  0  0  0  0  0  0  0  0
    8.8532  -16.1778   27.7775 C   0  0  0  0  0  0  0  0  0  0  0  0
    9.9176  -15.7607   28.5700 C   0  0  0  0  0  0  0  0  0  0  0  0
   10.2967  -12.8291   19.1980 N   0  0  0  0  0  0  0  0  0  0  0  0
    9.3102  -13.8129   18.9401 C   0  0  0  0  0  0  0  0  0  0  0  0
    8.1238  -13.4112   18.6037 N   0  0  0  0  0  0  0  0  0  0  0  0
    9.6396  -15.1897   19.0544 N   0  0  0  0  0  0  0  0  0  0  0  0
   10.6484  -15.5981   20.0081 C   0  0  0  0  0  0  0  0  0  0  0  0
   10.1456  -15.4258   21.4442 C   0  0  0  0  0  0  0  0  0  0  0  0
   11.2157  -15.8578   22.3798 C   0  0  0  0  0  0  0  0  0  0  0  0
   10.7385  -16.6612   23.5712 C   0  0  2  0  0  0  0  0  0  0  0  0
    9.6058  -15.8901   24.1298 N   0  0  0  0  0  0  0  0  0  0  0  0
   11.8429  -16.7243   24.5549 C   0  0  0  0  0  0  0  0  0  0  0  0
   11.7262  -15.9502   25.7131 O   0  0  0  0  0  0  0  0  0  0  0  0
   12.8723  -17.4201   24.4228 O   0  0  0  0  0  0  0  0  0  0  0  0
  2  1  1  0
  3  2  1  0
  4  3  2  0
  6 16  2  0
  6  5  1  0
  7  6  1  0
  8  9  1  0
  8  7  2  0
  9 15  2  0
 10  9  1  0
 11 10  1  1
 11 12  1  0
 12  3  1  0
 13 25  1  0
 13 11  1  0
 14 13  2  0
 15 16  1  0
 18 19  2  0
 18 17  1  0
 20 18  1  0
 21 20  1  0
 22 21  1  0
 23 22  1  0
 24 23  1  6
 24 25  1  0
 26 27  1  0
 26 24  1  0
 28 26  2  0
M  END
$$$$
