GYR.pdb
     RDKit          3D

 28 28  0  0  1  0  0  0  0  0999 V2000
    8.5270  -18.7276   18.8156 N   0  0  0  0  0  0  0  0  0  0  0  0
    7.7934  -18.4276   19.9926 C   0  0  0  0  0  0  0  0  0  0  0  0
    8.4632  -17.4372   20.8777 C   0  0  0  0  0  0  0  0  0  0  0  0
    9.6826  -17.1860   20.7088 O   0  0  0  0  0  0  0  0  0  0  0  0
    7.2696  -11.8936   17.7652 O   0  0  0  0  0  0  0  0  0  0  0  0
    7.4044  -12.5176   19.0121 C   0  0  0  0  0  0  0  0  0  0  0  0
    6.4853  -13.4509   19.4312 C   0  0  0  0  0  0  0  0  0  0  0  0
    6.6126  -14.0691   20.6575 C   0  0  0  0  0  0  0  0  0  0  0  0
    7.6560  -13.7901   21.5230 C   0  0  0  0  0  0  0  0  0  0  0  0
    7.7754  -14.4736   22.8305 C   0  0  0  0  0  0  0  0  0  0  0  0
    8.4654  -15.7912   22.7999 C   0  0  2  0  0  0  0  0  0  0  0  0
    7.7980  -16.7486   21.9169 N   0  0  0  0  0  0  0  0  0  0  0  0
    8.7182  -16.4081   24.1201 C   0  0  0  0  0  0  0  0  0  0  0  0
    7.7816  -16.9986   24.7653 O   0  0  0  0  0  0  0  0  0  0  0  0
    8.5682  -12.8552   21.0928 C   0  0  0  0  0  0  0  0  0  0  0  0
    8.4518  -12.2243   19.8586 C   0  0  0  0  0  0  0  0  0  0  0  0
   16.0912  -21.1138   26.5186 N   0  0  0  0  0  0  0  0  0  0  0  0
   15.6348  -20.7419   25.2297 C   0  0  0  0  0  0  0  0  0  0  0  0
   16.5187  -20.3790   24.3527 N   0  0  0  0  0  0  0  0  0  0  0  0
   14.2457  -20.7755   24.9359 N   0  0  0  0  0  0  0  0  0  0  0  0
   13.5939  -19.5728   24.4641 C   0  0  0  0  0  0  0  0  0  0  0  0
   12.3861  -19.2255   25.3391 C   0  0  0  0  0  0  0  0  0  0  0  0
   11.6404  -18.1095   24.7025 C   0  0  0  0  0  0  0  0  0  0  0  0
   10.4478  -17.6062   25.4879 C   0  0  2  0  0  0  0  0  0  0  0  0
    9.9872  -16.4011   24.7630 N   0  0  0  0  0  0  0  0  0  0  0  0
   10.9136  -17.2353   26.8432 C   0  0  0  0  0  0  0  0  0  0  0  0
   10.9781  -18.2458   27.8070 O   0  0  0  0  0  0  0  0  0  0  0  0
   11.2525  -16.0828   27.1867 O   0  0  0  0  0  0  0  0  0  0  0  0
  2  1  1  0
  3  2  1  0
  4  3  2  0
  6 16  2  0
  6  5  1  0
  7  6  1  0
  8  9  1  0
  8  7  2  0
  9 15  2  0
 10  9  1  0
 11 10  1  1
 11 12  1  0
 12  3  1  0
 13 25  1  0
 13 11  1  0
 14 13  2  0
 15 16  1  0
 18 19  2  0
 18 17  1  0
 20 18  1  0
 21 20  1  0
 22 21  1  0
 23 22  1  0
 24 23  1  6
 24 25  1  0
 26 27  1  0
 26 24  1  0
 28 26  2  0
M  END
$$$$
