GYR.pdb
     RDKit          3D

 28 28  0  0  1  0  0  0  0  0999 V2000
    8.5164  -15.9537   19.0957 N   0  0  0  0  0  0  0  0  0  0  0  0
    7.5493  -15.5651   20.0587 C   0  0  0  0  0  0  0  0  0  0  0  0
    8.0792  -15.5066   21.4474 C   0  0  0  0  0  0  0  0  0  0  0  0
    9.0996  -16.1761   21.7458 O   0  0  0  0  0  0  0  0  0  0  0  0
    8.7872  -13.5154   30.1848 O   0  0  0  0  0  0  0  0  0  0  0  0
    8.4723  -13.5358   28.8199 C   0  0  0  0  0  0  0  0  0  0  0  0
    7.1684  -13.4125   28.4001 C   0  0  0  0  0  0  0  0  0  0  0  0
    6.8518  -13.4314   27.0579 C   0  0  0  0  0  0  0  0  0  0  0  0
    7.8128  -13.5731   26.0720 C   0  0  0  0  0  0  0  0  0  0  0  0
    7.4487  -13.5817   24.6373 C   0  0  0  0  0  0  0  0  0  0  0  0
    7.9678  -14.7357   23.8552 C   0  0  2  0  0  0  0  0  0  0  0  0
    7.4930  -14.7286   22.4709 N   0  0  0  0  0  0  0  0  0  0  0  0
    7.7470  -16.0664   24.4615 C   0  0  0  0  0  0  0  0  0  0  0  0
    6.5876  -16.6127   24.4556 O   0  0  0  0  0  0  0  0  0  0  0  0
    9.1127  -13.6957   26.5043 C   0  0  0  0  0  0  0  0  0  0  0  0
    9.4457  -13.6782   27.8547 C   0  0  0  0  0  0  0  0  0  0  0  0
    5.3521  -21.4120   21.4227 N   0  0  0  0  0  0  0  0  0  0  0  0
    4.7613  -21.2268   22.6972 C   0  0  0  0  0  0  0  0  0  0  0  0
    3.4668  -21.2467   22.7763 N   0  0  0  0  0  0  0  0  0  0  0  0
    5.5867  -21.0278   23.8356 N   0  0  0  0  0  0  0  0  0  0  0  0
    7.0049  -20.8081   23.6505 C   0  0  0  0  0  0  0  0  0  0  0  0
    7.3381  -19.3142   23.6981 C   0  0  0  0  0  0  0  0  0  0  0  0
    8.5791  -19.1269   24.4929 C   0  0  0  0  0  0  0  0  0  0  0  0
    8.4577  -18.1588   25.6508 C   0  0  2  0  0  0  0  0  0  0  0  0
    8.7749  -16.8308   25.0802 N   0  0  0  0  0  0  0  0  0  0  0  0
    9.4688  -18.5286   26.6668 C   0  0  0  0  0  0  0  0  0  0  0  0
    9.1337  -19.5307   27.5821 O   0  0  0  0  0  0  0  0  0  0  0  0
   10.6003  -18.0078   26.7645 O   0  0  0  0  0  0  0  0  0  0  0  0
  2  1  1  0
  3  2  1  0
  4  3  2  0
  6 16  2  0
  6  5  1  0
  7  6  1  0
  8  9  1  0
  8  7  2  0
  9 15  2  0
 10  9  1  0
 11 10  1  1
 11 12  1  0
 12  3  1  0
 13 25  1  0
 13 11  1  0
 14 13  2  0
 15 16  1  0
 18 19  2  0
 18 17  1  0
 20 18  1  0
 21 20  1  0
 22 21  1  0
 23 22  1  0
 24 23  1  6
 24 25  1  0
 26 27  1  0
 26 24  1  0
 28 26  2  0
M  END
$$$$
