GYR.pdb
     RDKit          3D

 28 28  0  0  1  0  0  0  0  0999 V2000
    6.6246  -11.9912   20.5881 N   0  0  0  0  0  0  0  0  0  0  0  0
    8.0382  -11.9191   20.4873 C   0  0  0  0  0  0  0  0  0  0  0  0
    8.7032  -13.2493   20.4521 C   0  0  0  0  0  0  0  0  0  0  0  0
    8.0667  -14.2660   20.8258 O   0  0  0  0  0  0  0  0  0  0  0  0
    8.3630  -15.4588   13.9279 O   0  0  0  0  0  0  0  0  0  0  0  0
    9.1232  -15.3453   15.0991 C   0  0  0  0  0  0  0  0  0  0  0  0
    9.6418  -14.1305   15.4824 C   0  0  0  0  0  0  0  0  0  0  0  0
   10.3906  -14.0120   16.6344 C   0  0  0  0  0  0  0  0  0  0  0  0
   10.6589  -15.0915   17.4580 C   0  0  0  0  0  0  0  0  0  0  0  0
   11.4581  -14.9370   18.6943 C   0  0  0  0  0  0  0  0  0  0  0  0
   10.6707  -14.7574   19.9436 C   0  0  2  0  0  0  0  0  0  0  0  0
   10.0331  -13.4421   20.0154 N   0  0  0  0  0  0  0  0  0  0  0  0
   11.3978  -15.0391   21.2003 C   0  0  0  0  0  0  0  0  0  0  0  0
   12.4116  -14.3376   21.5503 O   0  0  0  0  0  0  0  0  0  0  0  0
   10.1352  -16.3006   17.0640 C   0  0  0  0  0  0  0  0  0  0  0  0
    9.3783  -16.4341   15.9046 C   0  0  0  0  0  0  0  0  0  0  0  0
   10.9606  -15.7020   29.2104 N   0  0  0  0  0  0  0  0  0  0  0  0
   10.0140  -14.9581   28.4632 C   0  0  0  0  0  0  0  0  0  0  0  0
    9.6097  -13.8257   28.9493 N   0  0  0  0  0  0  0  0  0  0  0  0
    9.5405  -15.4622   27.2228 N   0  0  0  0  0  0  0  0  0  0  0  0
   10.0088  -16.7502   26.7583 C   0  0  0  0  0  0  0  0  0  0  0  0
   11.2057  -16.5903   25.8166 C   0  0  0  0  0  0  0  0  0  0  0  0
   10.7014  -16.3545   24.4392 C   0  0  0  0  0  0  0  0  0  0  0  0
   11.7737  -16.2288   23.3777 C   0  0  2  0  0  0  0  0  0  0  0  0
   11.0397  -16.0800   22.1014 N   0  0  0  0  0  0  0  0  0  0  0  0
   12.5593  -17.4834   23.3673 C   0  0  0  0  0  0  0  0  0  0  0  0
   13.6238  -17.5907   24.2670 O   0  0  0  0  0  0  0  0  0  0  0  0
   12.3385  -18.4529   22.6106 O   0  0  0  0  0  0  0  0  0  0  0  0
  2  1  1  0
  3  2  1  0
  4  3  2  0
  6 16  2  0
  6  5  1  0
  7  6  1  0
  8  9  1  0
  8  7  2  0
  9 15  2  0
 10  9  1  0
 11 10  1  6
 11 12  1  0
 12  3  1  0
 13 25  1  0
 13 11  1  0
 14 13  2  0
 15 16  1  0
 18 19  2  0
 18 17  1  0
 20 18  1  0
 21 20  1  0
 22 21  1  0
 23 22  1  0
 24 23  1  1
 24 25  1  0
 26 27  1  0
 26 24  1  0
 28 26  2  0
M  END
$$$$
