VIT.pdb
     RDKit          3D

 23 22  0  0  1  0  0  0  0  0999 V2000
   28.6830  -19.5326  -14.8697 C   0  0  0  0  0  0  0  0  0  0  0  0
   27.9726  -19.4415  -16.1719 C   0  0  2  0  0  0  0  0  0  0  0  0
   28.6276  -18.3617  -17.0051 C   0  0  0  0  0  0  0  0  0  0  0  0
   26.4792  -19.2398  -16.0772 C   0  0  2  0  0  0  0  0  0  0  0  0
   26.3030  -17.8815  -15.5381 N   0  0  0  0  0  0  0  0  0  0  0  0
   25.8088  -20.1630  -15.1373 C   0  0  0  0  0  0  0  0  0  0  0  0
   25.7560  -21.3824  -15.3634 O   0  0  0  0  0  0  0  0  0  0  0  0
   26.6319  -20.8393   -9.9978 C   0  0  0  0  0  0  0  0  0  0  0  0
   26.2976  -21.0428  -11.4811 C   0  0  0  0  0  0  0  0  0  0  0  0
   24.9080  -20.5536  -11.6794 C   0  0  2  0  0  0  0  0  0  0  0  0
   23.9481  -21.2644  -10.7614 C   0  0  0  0  0  0  0  0  0  0  0  0
   24.4375  -20.5673  -13.1065 C   0  0  2  0  0  0  0  0  0  0  0  0
   25.2119  -19.6764  -13.9549 N   0  0  0  0  0  0  0  0  0  0  0  0
   22.9790  -20.2680  -13.2105 C   0  0  0  0  0  0  0  0  0  0  0  0
   22.5032  -19.1704  -12.7699 O   0  0  0  0  0  0  0  0  0  0  0  0
   20.7508  -22.1329  -16.1812 C   0  0  0  0  0  0  0  0  0  0  0  0
   20.5010  -20.7397  -15.6411 C   0  0  1  0  0  0  0  0  0  0  0  0
   19.2240  -20.3145  -16.0051 O   0  0  0  0  0  0  0  0  0  0  0  0
   20.6807  -20.7485  -14.1421 C   0  0  2  0  0  0  0  0  0  0  0  0
   22.0506  -21.1572  -13.7890 N   0  0  0  0  0  0  0  0  0  0  0  0
   19.6881  -21.6067  -13.4895 C   0  0  0  0  0  0  0  0  0  0  0  0
   20.0144  -22.7758  -12.7957 O   0  0  0  0  0  0  0  0  0  0  0  0
   18.4736  -21.2985  -13.5411 O   0  0  0  0  0  0  0  0  0  0  0  0
  2  1  1  1
  2  3  1  0
  4  2  1  0
  4  5  1  1
  6  4  1  0
  6 13  1  0
  7  6  2  0
  9 10  1  0
  9  8  1  0
 10 12  1  0
 10 11  1  1
 12 13  1  6
 14 12  1  0
 15 14  2  0
 17 16  1  1
 17 18  1  0
 17 19  1  0
 19 21  1  0
 19 20  1  6
 20 14  1  0
 21 22  1  0
 23 21  2  0
M  END
$$$$
