VIT.pdb
     RDKit          3D

 23 22  0  0  1  0  0  0  0  0999 V2000
   21.8700  -14.7821  -18.2359 C   0  0  0  0  0  0  0  0  0  0  0  0
   20.7463  -14.2543  -19.0529 C   0  0  2  0  0  0  0  0  0  0  0  0
   20.8002  -14.8974  -20.4213 C   0  0  0  0  0  0  0  0  0  0  0  0
   20.6730  -12.7492  -19.1499 C   0  0  2  0  0  0  0  0  0  0  0  0
   21.8223  -12.3560  -19.9813 N   0  0  0  0  0  0  0  0  0  0  0  0
   20.8274  -12.0575  -17.8527 C   0  0  0  0  0  0  0  0  0  0  0  0
   20.0188  -12.2388  -16.9284 O   0  0  0  0  0  0  0  0  0  0  0  0
   25.2769  -12.0778  -15.1215 C   0  0  0  0  0  0  0  0  0  0  0  0
   23.8229  -12.0950  -15.6104 C   0  0  0  0  0  0  0  0  0  0  0  0
   23.3990  -10.6768  -15.7475 C   0  0  2  0  0  0  0  0  0  0  0  0
   23.5377   -9.9418  -14.4399 C   0  0  0  0  0  0  0  0  0  0  0  0
   22.0398  -10.4863  -16.3595 C   0  0  2  0  0  0  0  0  0  0  0  0
   21.9040  -11.1718  -17.6341 N   0  0  0  0  0  0  0  0  0  0  0  0
   21.6908   -9.0413  -16.4917 C   0  0  0  0  0  0  0  0  0  0  0  0
   22.4382   -8.2451  -17.1494 O   0  0  0  0  0  0  0  0  0  0  0  0
   18.4907   -7.4585  -17.7914 C   0  0  0  0  0  0  0  0  0  0  0  0
   18.7411   -6.8833  -16.4125 C   0  0  1  0  0  0  0  0  0  0  0  0
   17.9147   -7.5119  -15.4818 O   0  0  0  0  0  0  0  0  0  0  0  0
   20.2009   -7.0469  -16.0636 C   0  0  2  0  0  0  0  0  0  0  0  0
   20.5387   -8.4721  -15.9121 N   0  0  0  0  0  0  0  0  0  0  0  0
   20.5508   -6.2896  -14.8587 C   0  0  0  0  0  0  0  0  0  0  0  0
   20.5964   -4.8932  -14.8099 O   0  0  0  0  0  0  0  0  0  0  0  0
   20.8286   -6.9031  -13.8007 O   0  0  0  0  0  0  0  0  0  0  0  0
  2  1  1  1
  2  3  1  0
  4  2  1  0
  4  5  1  6
  6  4  1  0
  6 13  1  0
  7  6  2  0
  9 10  1  0
  9  8  1  0
 10 12  1  0
 10 11  1  1
 12 13  1  6
 14 12  1  0
 15 14  2  0
 17 16  1  6
 17 18  1  0
 17 19  1  0
 19 21  1  0
 19 20  1  1
 20 14  1  0
 21 22  1  0
 23 21  2  0
M  END
$$$$
