VIT.pdb
     RDKit          3D

 23 22  0  0  1  0  0  0  0  0999 V2000
   17.0815  -13.9937  -19.4782 C   0  0  0  0  0  0  0  0  0  0  0  0
   18.1914  -14.6485  -18.7378 C   0  0  2  0  0  0  0  0  0  0  0  0
   17.7446  -16.0332  -18.3229 C   0  0  0  0  0  0  0  0  0  0  0  0
   18.7325  -13.8657  -17.5654 C   0  0  2  0  0  0  0  0  0  0  0  0
   17.6807  -13.9267  -16.5375 N   0  0  0  0  0  0  0  0  0  0  0  0
   18.9633  -12.4349  -17.8563 C   0  0  0  0  0  0  0  0  0  0  0  0
   19.8365  -12.0766  -18.6626 O   0  0  0  0  0  0  0  0  0  0  0  0
   15.6729   -9.0003  -19.9003 C   0  0  0  0  0  0  0  0  0  0  0  0
   16.9706   -9.7164  -19.5049 C   0  0  0  0  0  0  0  0  0  0  0  0
   17.2563   -9.3407  -18.0953 C   0  0  2  0  0  0  0  0  0  0  0  0
   17.3350   -7.8445  -17.9395 C   0  0  0  0  0  0  0  0  0  0  0  0
   18.4456  -10.0334  -17.4919 C   0  0  2  0  0  0  0  0  0  0  0  0
   18.1913  -11.4388  -17.2215 N   0  0  0  0  0  0  0  0  0  0  0  0
   18.9290   -9.3337  -16.2653 C   0  0  0  0  0  0  0  0  0  0  0  0
   18.2114   -9.2872  -15.2127 O   0  0  0  0  0  0  0  0  0  0  0  0
   21.8972  -10.1193  -14.2322 C   0  0  0  0  0  0  0  0  0  0  0  0
   22.0437   -8.6560  -14.5959 C   0  0  1  0  0  0  0  0  0  0  0  0
   22.9443   -8.5201  -15.6517 O   0  0  0  0  0  0  0  0  0  0  0  0
   20.6870   -8.0920  -14.9429 C   0  0  2  0  0  0  0  0  0  0  0  0
   20.1820   -8.6922  -16.1892 N   0  0  0  0  0  0  0  0  0  0  0  0
   20.7238   -6.6300  -15.0373 C   0  0  0  0  0  0  0  0  0  0  0  0
   20.5057   -5.9268  -16.2257 O   0  0  0  0  0  0  0  0  0  0  0  0
   20.9615   -5.9491  -14.0113 O   0  0  0  0  0  0  0  0  0  0  0  0
  2  1  1  1
  2  3  1  0
  4  2  1  0
  4  5  1  1
  6  4  1  0
  6 13  1  0
  7  6  2  0
  9 10  1  0
  9  8  1  0
 10 12  1  0
 10 11  1  6
 12 13  1  1
 14 12  1  0
 15 14  2  0
 17 16  1  6
 17 18  1  0
 17 19  1  0
 19 21  1  0
 19 20  1  6
 20 14  1  0
 21 22  1  0
 23 21  2  0
M  END
$$$$
