VIT.pdb
     RDKit          3D

 23 22  0  0  1  0  0  0  0  0999 V2000
   25.0642  -12.6703  -16.1566 C   0  0  0  0  0  0  0  0  0  0  0  0
   24.5925  -13.5054  -17.2919 C   0  0  2  0  0  0  0  0  0  0  0  0
   24.7637  -12.7196  -18.5734 C   0  0  0  0  0  0  0  0  0  0  0  0
   23.1883  -14.0436  -17.1546 C   0  0  2  0  0  0  0  0  0  0  0  0
   23.0100  -14.9613  -18.2915 N   0  0  0  0  0  0  0  0  0  0  0  0
   22.1373  -13.0106  -17.2701 C   0  0  0  0  0  0  0  0  0  0  0  0
   21.7528  -12.6076  -18.3795 O   0  0  0  0  0  0  0  0  0  0  0  0
   17.8279  -13.7618  -15.2851 C   0  0  0  0  0  0  0  0  0  0  0  0
   18.5299  -12.9167  -16.3557 C   0  0  0  0  0  0  0  0  0  0  0  0
   19.2203  -11.8090  -15.6442 C   0  0  2  0  0  0  0  0  0  0  0  0
   18.3035  -10.6275  -15.4635 C   0  0  0  0  0  0  0  0  0  0  0  0
   20.5418  -11.4110  -16.2388 C   0  0  2  0  0  0  0  0  0  0  0  0
   21.5435  -12.4573  -16.1159 N   0  0  0  0  0  0  0  0  0  0  0  0
   21.0406  -10.1259  -15.6667 C   0  0  0  0  0  0  0  0  0  0  0  0
   21.4633  -10.0647  -14.4656 O   0  0  0  0  0  0  0  0  0  0  0  0
   23.3311   -7.3982  -17.5399 C   0  0  0  0  0  0  0  0  0  0  0  0
   22.1111   -6.7590  -16.9091 C   0  0  1  0  0  0  0  0  0  0  0  0
   21.1492   -6.5111  -17.8877 O   0  0  0  0  0  0  0  0  0  0  0  0
   21.5821   -7.6635  -15.8223 C   0  0  2  0  0  0  0  0  0  0  0  0
   21.0774   -8.9214  -16.3981 N   0  0  0  0  0  0  0  0  0  0  0  0
   20.5495   -6.9950  -15.0257 C   0  0  0  0  0  0  0  0  0  0  0  0
   20.8277   -6.0254  -14.0577 O   0  0  0  0  0  0  0  0  0  0  0  0
   19.3435   -7.2902  -15.2020 O   0  0  0  0  0  0  0  0  0  0  0  0
  2  1  1  1
  2  3  1  0
  4  2  1  0
  4  5  1  6
  6  4  1  0
  6 13  1  0
  7  6  2  0
  9 10  1  0
  9  8  1  0
 10 12  1  0
 10 11  1  6
 12 13  1  1
 14 12  1  0
 15 14  2  0
 17 16  1  6
 17 18  1  0
 17 19  1  0
 19 21  1  0
 19 20  1  6
 20 14  1  0
 21 22  1  0
 23 21  2  0
M  END
$$$$
