VIT.pdb
     RDKit          3D

 23 22  0  0  1  0  0  0  0  0999 V2000
   23.4467  -20.6769  -14.4943 C   0  0  0  0  0  0  0  0  0  0  0  0
   24.5687  -19.7611  -14.1609 C   0  0  2  0  0  0  0  0  0  0  0  0
   25.1430  -19.2121  -15.4485 C   0  0  0  0  0  0  0  0  0  0  0  0
   25.6440  -20.3545  -13.2825 C   0  0  2  0  0  0  0  0  0  0  0  0
   26.2420  -21.4392  -14.0777 N   0  0  0  0  0  0  0  0  0  0  0  0
   25.1305  -20.9687  -12.0398 C   0  0  0  0  0  0  0  0  0  0  0  0
   24.7919  -22.1625  -12.0063 O   0  0  0  0  0  0  0  0  0  0  0  0
   27.0813  -19.4849   -7.2239 C   0  0  0  0  0  0  0  0  0  0  0  0
   26.6038  -20.3327   -8.4098 C   0  0  0  0  0  0  0  0  0  0  0  0
   25.1180  -20.2831   -8.4027 C   0  0  2  0  0  0  0  0  0  0  0  0
   24.5611  -20.9289   -7.1610 C   0  0  0  0  0  0  0  0  0  0  0  0
   24.4685  -20.8095   -9.6514 C   0  0  2  0  0  0  0  0  0  0  0  0
   25.0144  -20.2081  -10.8570 N   0  0  0  0  0  0  0  0  0  0  0  0
   22.9841  -20.6609   -9.6069 C   0  0  0  0  0  0  0  0  0  0  0  0
   22.4401  -19.5089   -9.6520 O   0  0  0  0  0  0  0  0  0  0  0  0
   20.5787  -20.9762  -11.8675 C   0  0  0  0  0  0  0  0  0  0  0  0
   20.0405  -21.9343  -10.8249 C   0  0  1  0  0  0  0  0  0  0  0  0
   20.3234  -23.2472  -11.1997 O   0  0  0  0  0  0  0  0  0  0  0  0
   20.6405  -21.5953   -9.4817 C   0  0  2  0  0  0  0  0  0  0  0  0
   22.1037  -21.7580   -9.5142 N   0  0  0  0  0  0  0  0  0  0  0  0
   20.0430  -22.3981   -8.4110 C   0  0  0  0  0  0  0  0  0  0  0  0
   20.7686  -23.2943   -7.6206 O   0  0  0  0  0  0  0  0  0  0  0  0
   18.8166  -22.2945   -8.1702 O   0  0  0  0  0  0  0  0  0  0  0  0
  2  1  1  6
  2  3  1  0
  4  2  1  0
  4  5  1  6
  6  4  1  0
  6 13  1  0
  7  6  2  0
  9 10  1  0
  9  8  1  0
 10 12  1  0
 10 11  1  1
 12 13  1  6
 14 12  1  0
 15 14  2  0
 17 16  1  6
 17 18  1  0
 17 19  1  0
 19 21  1  0
 19 20  1  6
 20 14  1  0
 21 22  1  0
 23 21  2  0
M  END
$$$$
