VIT.pdb
     RDKit          3D

 23 22  0  0  1  0  0  0  0  0999 V2000
   27.3121  -17.7534  -14.8323 C   0  0  0  0  0  0  0  0  0  0  0  0
   27.9315  -18.9440  -15.4707 C   0  0  2  0  0  0  0  0  0  0  0  0
   27.0349  -19.4094  -16.5972 C   0  0  0  0  0  0  0  0  0  0  0  0
   28.2719  -20.0746  -14.5294 C   0  0  2  0  0  0  0  0  0  0  0  0
   28.8855  -21.1128  -15.3734 N   0  0  0  0  0  0  0  0  0  0  0  0
   27.0939  -20.6905  -13.8829 C   0  0  0  0  0  0  0  0  0  0  0  0
   26.5631  -21.7093  -14.3532 O   0  0  0  0  0  0  0  0  0  0  0  0
   26.4166  -20.3195   -8.4332 C   0  0  0  0  0  0  0  0  0  0  0  0
   26.4669  -21.0035   -9.8053 C   0  0  0  0  0  0  0  0  0  0  0  0
   25.3316  -20.4617  -10.5974 C   0  0  2  0  0  0  0  0  0  0  0  0
   24.0109  -20.8697   -9.9988 C   0  0  0  0  0  0  0  0  0  0  0  0
   25.3984  -20.7570  -12.0693 C   0  0  2  0  0  0  0  0  0  0  0  0
   26.5440  -20.1318  -12.7095 N   0  0  0  0  0  0  0  0  0  0  0  0
   24.1311  -20.3865  -12.7653 C   0  0  0  0  0  0  0  0  0  0  0  0
   23.7860  -19.1656  -12.8904 O   0  0  0  0  0  0  0  0  0  0  0  0
   20.3232  -21.5985  -15.6898 C   0  0  0  0  0  0  0  0  0  0  0  0
   21.6424  -21.9824  -15.0518 C   0  0  1  0  0  0  0  0  0  0  0  0
   22.6275  -22.0898  -16.0328 O   0  0  0  0  0  0  0  0  0  0  0  0
   22.0056  -20.9564  -14.0056 C   0  0  2  0  0  0  0  0  0  0  0  0
   23.2507  -21.3384  -13.3184 N   0  0  0  0  0  0  0  0  0  0  0  0
   20.9131  -20.7582  -13.0490 C   0  0  0  0  0  0  0  0  0  0  0  0
   19.9243  -19.7812  -13.1971 O   0  0  0  0  0  0  0  0  0  0  0  0
   20.8381  -21.4913  -12.0342 O   0  0  0  0  0  0  0  0  0  0  0  0
  2  1  1  1
  2  3  1  0
  4  2  1  0
  4  5  1  6
  6  4  1  0
  6 13  1  0
  7  6  2  0
  9 10  1  0
  9  8  1  0
 10 12  1  0
 10 11  1  1
 12 13  1  6
 14 12  1  0
 15 14  2  0
 17 16  1  6
 17 18  1  0
 17 19  1  0
 19 21  1  0
 19 20  1  1
 20 14  1  0
 21 22  1  0
 23 21  2  0
M  END
$$$$
