VIT.pdb
     RDKit          3D

 23 22  0  0  1  0  0  0  0  0999 V2000
   17.7779  -10.5832  -19.3696 C   0  0  0  0  0  0  0  0  0  0  0  0
   18.8138  -11.5720  -19.7672 C   0  0  2  0  0  0  0  0  0  0  0  0
   18.3127  -12.3388  -20.9715 C   0  0  0  0  0  0  0  0  0  0  0  0
   19.2711  -12.5016  -18.6687 C   0  0  2  0  0  0  0  0  0  0  0  0
   18.1003  -13.3352  -18.3513 N   0  0  0  0  0  0  0  0  0  0  0  0
   19.6543  -11.8097  -17.4199 C   0  0  0  0  0  0  0  0  0  0  0  0
   18.8359  -11.6429  -16.5015 O   0  0  0  0  0  0  0  0  0  0  0  0
   23.9967  -12.8882  -14.5763 C   0  0  0  0  0  0  0  0  0  0  0  0
   22.5894  -12.5465  -15.0823 C   0  0  0  0  0  0  0  0  0  0  0  0
   22.5917  -11.0971  -15.4126 C   0  0  2  0  0  0  0  0  0  0  0  0
   23.0032  -10.2716  -14.2216 C   0  0  0  0  0  0  0  0  0  0  0  0
   21.3188  -10.5948  -16.0336 C   0  0  2  0  0  0  0  0  0  0  0  0
   20.9663  -11.3216  -17.2422 N   0  0  0  0  0  0  0  0  0  0  0  0
   21.3719   -9.1258  -16.2915 C   0  0  0  0  0  0  0  0  0  0  0  0
   22.2855   -8.6227  -17.0245 O   0  0  0  0  0  0  0  0  0  0  0  0
   18.8829   -7.0181  -17.9541 C   0  0  0  0  0  0  0  0  0  0  0  0
   19.1263   -6.3369  -16.6231 C   0  0  1  0  0  0  0  0  0  0  0  0
   18.0848   -6.6325  -15.7443 O   0  0  0  0  0  0  0  0  0  0  0  0
   20.4618   -6.7793  -16.0754 C   0  0  2  0  0  0  0  0  0  0  0  0
   20.4378   -8.2164  -15.7551 N   0  0  0  0  0  0  0  0  0  0  0  0
   20.8509   -5.9838  -14.9077 C   0  0  0  0  0  0  0  0  0  0  0  0
   21.2718   -4.6529  -14.9850 O   0  0  0  0  0  0  0  0  0  0  0  0
   20.8135   -6.5010  -13.7658 O   0  0  0  0  0  0  0  0  0  0  0  0
  2  1  1  1
  2  3  1  0
  4  2  1  0
  4  5  1  1
  6  4  1  0
  6 13  1  0
  7  6  2  0
  9 10  1  0
  9  8  1  0
 10 12  1  0
 10 11  1  1
 12 13  1  6
 14 12  1  0
 15 14  2  0
 17 16  1  6
 17 18  1  0
 17 19  1  0
 19 21  1  0
 19 20  1  1
 20 14  1  0
 21 22  1  0
 23 21  2  0
M  END
$$$$
