VIT.pdb
     RDKit          3D

 23 22  0  0  1  0  0  0  0  0999 V2000
   25.9694  -19.6939  -16.8475 C   0  0  0  0  0  0  0  0  0  0  0  0
   26.9737  -19.1502  -15.8964 C   0  0  2  0  0  0  0  0  0  0  0  0
   28.0724  -18.4751  -16.6877 C   0  0  0  0  0  0  0  0  0  0  0  0
   27.5328  -20.1485  -14.9111 C   0  0  2  0  0  0  0  0  0  0  0  0
   28.1955  -21.1757  -15.7309 N   0  0  0  0  0  0  0  0  0  0  0  0
   26.5014  -20.8409  -14.1099 C   0  0  0  0  0  0  0  0  0  0  0  0
   26.1359  -21.9931  -14.3922 O   0  0  0  0  0  0  0  0  0  0  0  0
   26.2676  -20.5027   -8.7185 C   0  0  0  0  0  0  0  0  0  0  0  0
   26.2395  -21.0757  -10.1412 C   0  0  0  0  0  0  0  0  0  0  0  0
   24.9708  -20.6155  -10.7646 C   0  0  2  0  0  0  0  0  0  0  0  0
   23.7764  -21.1403  -10.0115 C   0  0  0  0  0  0  0  0  0  0  0  0
   24.8670  -20.8796  -12.2403 C   0  0  2  0  0  0  0  0  0  0  0  0
   25.9068  -20.2047  -12.9995 N   0  0  0  0  0  0  0  0  0  0  0  0
   23.5139  -20.5375  -12.7691 C   0  0  0  0  0  0  0  0  0  0  0  0
   23.0861  -19.3369  -12.7447 O   0  0  0  0  0  0  0  0  0  0  0  0
   19.6605  -21.7026  -15.6329 C   0  0  0  0  0  0  0  0  0  0  0  0
   21.0063  -22.0825  -15.0502 C   0  0  1  0  0  0  0  0  0  0  0  0
   21.9746  -22.0726  -16.0535 O   0  0  0  0  0  0  0  0  0  0  0  0
   21.3508  -21.1284  -13.9321 C   0  0  2  0  0  0  0  0  0  0  0  0
   22.6379  -21.4957  -13.3183 N   0  0  0  0  0  0  0  0  0  0  0  0
   20.2837  -21.0724  -12.9291 C   0  0  0  0  0  0  0  0  0  0  0  0
   19.3099  -20.0700  -12.8922 O   0  0  0  0  0  0  0  0  0  0  0  0
   20.2178  -21.9594  -12.0449 O   0  0  0  0  0  0  0  0  0  0  0  0
  2  1  1  6
  2  3  1  0
  4  2  1  0
  4  5  1  6
  6  4  1  0
  6 13  1  0
  7  6  2  0
  9 10  1  0
  9  8  1  0
 10 12  1  0
 10 11  1  1
 12 13  1  6
 14 12  1  0
 15 14  2  0
 17 16  1  6
 17 18  1  0
 17 19  1  0
 19 21  1  0
 19 20  1  1
 20 14  1  0
 21 22  1  0
 23 21  2  0
M  END
$$$$
