VIT.pdb
     RDKit          3D

 23 22  0  0  1  0  0  0  0  0999 V2000
   25.3202  -13.5730  -16.5104 C   0  0  0  0  0  0  0  0  0  0  0  0
   24.4663  -12.3660  -16.6618 C   0  0  2  0  0  0  0  0  0  0  0  0
   25.0533  -11.2509  -15.8245 C   0  0  0  0  0  0  0  0  0  0  0  0
   23.0010  -12.5730  -16.3612 C   0  0  2  0  0  0  0  0  0  0  0  0
   22.5410  -13.5747  -17.3367 N   0  0  0  0  0  0  0  0  0  0  0  0
   22.1720  -11.3662  -16.5645 C   0  0  0  0  0  0  0  0  0  0  0  0
   21.9759  -10.9062  -17.7007 O   0  0  0  0  0  0  0  0  0  0  0  0
   17.3382  -10.9919  -15.3746 C   0  0  0  0  0  0  0  0  0  0  0  0
   18.6060  -10.6105  -16.1494 C   0  0  0  0  0  0  0  0  0  0  0  0
   19.3636   -9.6608  -15.2927 C   0  0  2  0  0  0  0  0  0  0  0  0
   18.6496   -8.3385  -15.1883 C   0  0  0  0  0  0  0  0  0  0  0  0
   20.8083   -9.4927  -15.6708 C   0  0  2  0  0  0  0  0  0  0  0  0
   21.5806  -10.7071  -15.4659 N   0  0  0  0  0  0  0  0  0  0  0  0
   21.4340   -8.3373  -14.9630 C   0  0  0  0  0  0  0  0  0  0  0  0
   21.6893   -8.3947  -13.7154 O   0  0  0  0  0  0  0  0  0  0  0  0
   24.3312   -6.0170  -16.4940 C   0  0  0  0  0  0  0  0  0  0  0  0
   23.2284   -5.1772  -15.8828 C   0  0  1  0  0  0  0  0  0  0  0  0
   22.4155   -4.6600  -16.8908 O   0  0  0  0  0  0  0  0  0  0  0  0
   22.4421   -6.0218  -14.9094 C   0  0  2  0  0  0  0  0  0  0  0  0
   21.7770   -7.1330  -15.6103 N   0  0  0  0  0  0  0  0  0  0  0  0
   21.4749   -5.2145  -14.1608 C   0  0  0  0  0  0  0  0  0  0  0  0
   21.8318   -4.3407  -13.1295 O   0  0  0  0  0  0  0  0  0  0  0  0
   20.2549   -5.2929  -14.4404 O   0  0  0  0  0  0  0  0  0  0  0  0
  2  1  1  1
  2  3  1  0
  4  2  1  0
  4  5  1  6
  6  4  1  0
  6 13  1  0
  7  6  2  0
  9 10  1  0
  9  8  1  0
 10 12  1  0
 10 11  1  6
 12 13  1  1
 14 12  1  0
 15 14  2  0
 17 16  1  6
 17 18  1  0
 17 19  1  0
 19 21  1  0
 19 20  1  6
 20 14  1  0
 21 22  1  0
 23 21  2  0
M  END
$$$$
