VIT.pdb
     RDKit          3D

 23 22  0  0  1  0  0  0  0  0999 V2000
   18.2561  -12.7082  -15.8912 C   0  0  0  0  0  0  0  0  0  0  0  0
   17.1897  -11.6812  -16.0211 C   0  0  2  0  0  0  0  0  0  0  0  0
   16.1931  -12.1483  -17.0593 C   0  0  0  0  0  0  0  0  0  0  0  0
   17.6765  -10.2813  -16.3098 C   0  0  2  0  0  0  0  0  0  0  0  0
   18.2122  -10.3300  -17.6800 N   0  0  0  0  0  0  0  0  0  0  0  0
   18.7824   -9.8396  -15.4341 C   0  0  0  0  0  0  0  0  0  0  0  0
   18.6391   -9.7742  -14.2028 O   0  0  0  0  0  0  0  0  0  0  0  0
   23.6772  -11.6741  -14.9179 C   0  0  0  0  0  0  0  0  0  0  0  0
   22.2808  -11.0664  -14.7334 C   0  0  0  0  0  0  0  0  0  0  0  0
   22.3587   -9.6593  -15.2064 C   0  0  2  0  0  0  0  0  0  0  0  0
   23.4825   -8.9215  -14.5269 C   0  0  0  0  0  0  0  0  0  0  0  0
   21.0626   -8.9022  -15.1339 C   0  0  2  0  0  0  0  0  0  0  0  0
   20.0330   -9.4817  -15.9809 N   0  0  0  0  0  0  0  0  0  0  0  0
   21.2510   -7.4535  -15.4395 C   0  0  0  0  0  0  0  0  0  0  0  0
   21.5864   -7.0694  -16.6079 O   0  0  0  0  0  0  0  0  0  0  0  0
   19.3285   -4.5567  -13.2942 C   0  0  0  0  0  0  0  0  0  0  0  0
   19.8973   -4.2955  -14.6738 C   0  0  1  0  0  0  0  0  0  0  0  0
   20.0270   -2.9224  -14.8785 O   0  0  0  0  0  0  0  0  0  0  0  0
   21.2216   -5.0078  -14.8083 C   0  0  2  0  0  0  0  0  0  0  0  0
   21.0752   -6.4358  -14.4800 N   0  0  0  0  0  0  0  0  0  0  0  0
   22.2540   -4.3782  -13.9802 C   0  0  0  0  0  0  0  0  0  0  0  0
   22.8485   -3.1508  -14.2874 O   0  0  0  0  0  0  0  0  0  0  0  0
   22.6430   -4.9505  -12.9343 O   0  0  0  0  0  0  0  0  0  0  0  0
  2  1  1  6
  2  3  1  0
  4  2  1  0
  4  5  1  6
  6  4  1  0
  6 13  1  0
  7  6  2  0
  9 10  1  0
  9  8  1  0
 10 12  1  0
 10 11  1  1
 12 13  1  6
 14 12  1  0
 15 14  2  0
 17 16  1  1
 17 18  1  0
 17 19  1  0
 19 21  1  0
 19 20  1  1
 20 14  1  0
 21 22  1  0
 23 21  2  0
M  END
$$$$
