HGY.pdb
     RDKit          3D

 27 28  0  0  1  0  0  0  0  0999 V2000
    9.5512  -15.4752   19.8778 N   0  0  0  0  0  0  0  0  0  0  0  0
    8.5287  -14.9144   20.7018 C   0  0  1  0  0  0  0  0  0  0  0  0
    7.2192  -14.9422   19.9122 C   0  0  0  0  0  0  0  0  0  0  0  0
    7.4285  -14.3146   18.5814 C   0  0  0  0  0  0  0  0  0  0  0  0
    8.0154  -13.1089   18.2594 C   0  0  0  0  0  0  0  0  0  0  0  0
    7.9954  -12.9293   16.9120 N   0  0  0  0  0  0  0  0  0  0  0  0
    7.3946  -14.0260   16.3926 C   0  0  0  0  0  0  0  0  0  0  0  0
    7.0552  -14.8560   17.3972 N   0  0  0  0  0  0  0  0  0  0  0  0
    8.3825  -15.5994   22.0028 C   0  0  0  0  0  0  0  0  0  0  0  0
    7.5251  -15.2495   22.8501 O   0  0  0  0  0  0  0  0  0  0  0  0
    9.2366  -16.6978   22.3236 N   0  0  0  0  0  0  0  0  0  0  0  0
    9.0306  -17.3795   23.5646 C   0  0  0  0  0  0  0  0  0  0  0  0
    9.6511  -16.7406   24.7428 C   0  0  0  0  0  0  0  0  0  0  0  0
   10.7505  -16.1057   24.6074 O   0  0  0  0  0  0  0  0  0  0  0  0
    6.2613  -11.1562   25.4493 O   0  0  0  0  0  0  0  0  0  0  0  0
    6.8662  -12.2249   26.0897 C   0  0  0  0  0  0  0  0  0  0  0  0
    6.1738  -13.3830   26.3321 C   0  0  0  0  0  0  0  0  0  0  0  0
    6.8021  -14.4182   26.9667 C   0  0  0  0  0  0  0  0  0  0  0  0
    8.1251  -14.3527   27.3836 C   0  0  0  0  0  0  0  0  0  0  0  0
    8.8297  -15.4436   28.0764 C   0  0  0  0  0  0  0  0  0  0  0  0
    9.8235  -16.1118   27.1822 C   0  0  2  0  0  0  0  0  0  0  0  0
    9.1332  -16.7596   26.0586 N   0  0  0  0  0  0  0  0  0  0  0  0
   10.6745  -17.0873   27.8938 C   0  0  0  0  0  0  0  0  0  0  0  0
   10.6644  -18.4038   27.5059 O   0  0  0  0  0  0  0  0  0  0  0  0
    8.8195  -13.1655   27.1298 C   0  0  0  0  0  0  0  0  0  0  0  0
    8.1773  -12.1379   26.4934 C   0  0  0  0  0  0  0  0  0  0  0  0
   11.4123  -16.7366   28.8566 O   0  0  0  0  0  0  0  0  0  0  0  0
  2  1  1  6
  2  3  1  0
  4  3  1  0
  4  8  1  0
  5  4  2  0
  6  5  1  0
  6  7  1  0
  7  8  2  0
  9  2  1  0
 10  9  2  0
 11  9  1  0
 12 11  1  0
 13 22  1  0
 13 12  1  0
 14 13  2  0
 16 15  1  0
 17 16  2  0
 18 17  1  0
 19 25  1  0
 19 18  2  0
 21 20  1  1
 20 19  1  0
 21 23  1  0
 21 22  1  0
 23 24  1  0
 25 26  2  0
 26 16  1  0
 27 23  2  0
M  END
$$$$
