HGY.pdb
     RDKit          3D

 27 28  0  0  1  0  0  0  0  0999 V2000
    9.2257  -16.0169   19.5775 N   0  0  0  0  0  0  0  0  0  0  0  0
    8.4205  -15.1185   20.3413 C   0  0  1  0  0  0  0  0  0  0  0  0
    7.2035  -14.7411   19.4954 C   0  0  0  0  0  0  0  0  0  0  0  0
    7.6524  -14.2991   18.1493 C   0  0  0  0  0  0  0  0  0  0  0  0
    8.2882  -13.1351   17.7718 C   0  0  0  0  0  0  0  0  0  0  0  0
    8.5147  -13.1449   16.4313 N   0  0  0  0  0  0  0  0  0  0  0  0
    8.0188  -14.3181   15.9720 C   0  0  0  0  0  0  0  0  0  0  0  0
    7.5017  -15.0091   17.0057 N   0  0  0  0  0  0  0  0  0  0  0  0
    8.0113  -15.6668   21.6509 C   0  0  0  0  0  0  0  0  0  0  0  0
    7.3023  -15.0156   22.4565 O   0  0  0  0  0  0  0  0  0  0  0  0
    8.4270  -16.9794   22.0291 N   0  0  0  0  0  0  0  0  0  0  0  0
    7.9964  -17.4911   23.2941 C   0  0  0  0  0  0  0  0  0  0  0  0
    8.7274  -16.9669   24.4655 C   0  0  0  0  0  0  0  0  0  0  0  0
    9.9539  -16.6336   24.3435 O   0  0  0  0  0  0  0  0  0  0  0  0
    6.1166  -10.8126   25.6969 O   0  0  0  0  0  0  0  0  0  0  0  0
    6.5908  -12.0021   26.2245 C   0  0  0  0  0  0  0  0  0  0  0  0
    5.8000  -13.1214   26.2580 C   0  0  0  0  0  0  0  0  0  0  0  0
    6.3004  -14.2790   26.7859 C   0  0  0  0  0  0  0  0  0  0  0  0
    7.5879  -14.3775   27.2970 C   0  0  0  0  0  0  0  0  0  0  0  0
    8.1556  -15.6039   27.8800 C   0  0  0  0  0  0  0  0  0  0  0  0
    9.0066  -16.3384   26.8951 C   0  0  2  0  0  0  0  0  0  0  0  0
    8.1884  -16.7884   25.7607 N   0  0  0  0  0  0  0  0  0  0  0  0
    9.7267  -17.4804   27.4945 C   0  0  0  0  0  0  0  0  0  0  0  0
   10.7096  -17.2483   28.4239 O   0  0  0  0  0  0  0  0  0  0  0  0
    8.3836  -13.2281   27.2563 C   0  0  0  0  0  0  0  0  0  0  0  0
    7.8690  -12.0765   26.7247 C   0  0  0  0  0  0  0  0  0  0  0  0
    9.4590  -18.6705   27.1682 O   0  0  0  0  0  0  0  0  0  0  0  0
  2  1  1  6
  2  3  1  0
  4  3  1  0
  4  8  1  0
  5  4  2  0
  6  5  1  0
  6  7  1  0
  7  8  2  0
  9  2  1  0
 10  9  2  0
 11  9  1  0
 12 11  1  0
 13 22  1  0
 13 12  1  0
 14 13  2  0
 16 15  1  0
 17 16  2  0
 18 17  1  0
 19 25  1  0
 19 18  2  0
 21 20  1  1
 20 19  1  0
 21 23  1  0
 21 22  1  0
 23 24  1  0
 25 26  2  0
 26 16  1  0
 27 23  2  0
M  END
$$$$
