HGY.pdb
     RDKit          3D

 27 28  0  0  1  0  0  0  0  0999 V2000
    8.9245  -15.7734   18.9172 N   0  0  0  0  0  0  0  0  0  0  0  0
    8.4798  -14.7575   19.8167 C   0  0  1  0  0  0  0  0  0  0  0  0
    7.3646  -13.9714   19.1256 C   0  0  0  0  0  0  0  0  0  0  0  0
    7.6939  -13.8042   17.6860 C   0  0  0  0  0  0  0  0  0  0  0  0
    6.8846  -13.4229   16.6365 C   0  0  0  0  0  0  0  0  0  0  0  0
    7.6025  -13.4011   15.4823 N   0  0  0  0  0  0  0  0  0  0  0  0
    8.8627  -13.7699   15.8130 C   0  0  0  0  0  0  0  0  0  0  0  0
    8.9147  -14.0113   17.1368 N   0  0  0  0  0  0  0  0  0  0  0  0
    8.0312  -15.2853   21.1219 C   0  0  0  0  0  0  0  0  0  0  0  0
    7.4940  -14.5547   21.9898 O   0  0  0  0  0  0  0  0  0  0  0  0
    8.2067  -16.6700   21.4228 N   0  0  0  0  0  0  0  0  0  0  0  0
    7.7856  -17.1460   22.7047 C   0  0  0  0  0  0  0  0  0  0  0  0
    8.6487  -16.7507   23.8362 C   0  0  0  0  0  0  0  0  0  0  0  0
    9.8996  -16.5825   23.6437 O   0  0  0  0  0  0  0  0  0  0  0  0
    5.9846  -10.6839   25.8153 O   0  0  0  0  0  0  0  0  0  0  0  0
    6.5501  -11.8898   26.1949 C   0  0  0  0  0  0  0  0  0  0  0  0
    5.7769  -13.0112   26.3502 C   0  0  0  0  0  0  0  0  0  0  0  0
    6.3682  -14.1852   26.7260 C   0  0  0  0  0  0  0  0  0  0  0  0
    7.7320  -14.2986   26.9615 C   0  0  0  0  0  0  0  0  0  0  0  0
    8.4001  -15.5431   27.3752 C   0  0  0  0  0  0  0  0  0  0  0  0
    9.1472  -16.1693   26.2423 C   0  0  2  0  0  0  0  0  0  0  0  0
    8.2162  -16.5301   25.1645 N   0  0  0  0  0  0  0  0  0  0  0  0
    9.9376  -17.3472   26.6544 C   0  0  0  0  0  0  0  0  0  0  0  0
   11.0174  -17.1807   27.4850 O   0  0  0  0  0  0  0  0  0  0  0  0
    8.5088  -13.1469   26.7992 C   0  0  0  0  0  0  0  0  0  0  0  0
    7.9028  -11.9788   26.4225 C   0  0  0  0  0  0  0  0  0  0  0  0
    9.6426  -18.5086   26.2562 O   0  0  0  0  0  0  0  0  0  0  0  0
  2  1  1  6
  2  3  1  0
  4  3  1  0
  4  8  1  0
  5  4  2  0
  6  5  1  0
  6  7  1  0
  7  8  2  0
  9  2  1  0
 10  9  2  0
 11  9  1  0
 12 11  1  0
 13 22  1  0
 13 12  1  0
 14 13  2  0
 16 15  1  0
 17 16  2  0
 18 17  1  0
 19 25  1  0
 19 18  2  0
 21 20  1  1
 20 19  1  0
 21 23  1  0
 21 22  1  0
 23 24  1  0
 25 26  2  0
 26 16  1  0
 27 23  2  0
M  END
$$$$
