HGY.pdb
     RDKit          3D

 27 28  0  0  1  0  0  0  0  0999 V2000
    8.4764  -17.5102   17.3242 N   0  0  0  0  0  0  0  0  0  0  0  0
    8.1649  -16.3902   18.1532 C   0  0  1  0  0  0  0  0  0  0  0  0
    7.1078  -15.5510   17.4339 C   0  0  0  0  0  0  0  0  0  0  0  0
    7.7385  -14.8210   16.3034 C   0  0  0  0  0  0  0  0  0  0  0  0
    9.0381  -14.8632   15.8440 C   0  0  0  0  0  0  0  0  0  0  0  0
    9.1805  -14.0294   14.7798 N   0  0  0  0  0  0  0  0  0  0  0  0
    7.9665  -13.4657   14.5751 C   0  0  0  0  0  0  0  0  0  0  0  0
    7.1026  -13.9428   15.4914 N   0  0  0  0  0  0  0  0  0  0  0  0
    7.7137  -16.7707   19.5078 C   0  0  0  0  0  0  0  0  0  0  0  0
    6.6362  -17.3832   19.7063 O   0  0  0  0  0  0  0  0  0  0  0  0
    8.5175  -16.4385   20.6402 N   0  0  0  0  0  0  0  0  0  0  0  0
    8.0317  -16.7790   21.9423 C   0  0  0  0  0  0  0  0  0  0  0  0
    8.8609  -16.3007   23.0670 C   0  0  0  0  0  0  0  0  0  0  0  0
   10.0193  -15.8175   22.8329 O   0  0  0  0  0  0  0  0  0  0  0  0
    5.4871  -10.8946   25.7718 O   0  0  0  0  0  0  0  0  0  0  0  0
    6.2351  -12.0398   25.9888 C   0  0  0  0  0  0  0  0  0  0  0  0
    5.7367  -13.2764   25.6694 C   0  0  0  0  0  0  0  0  0  0  0  0
    6.5024  -14.3859   25.8969 C   0  0  0  0  0  0  0  0  0  0  0  0
    7.7774  -14.3205   26.4434 C   0  0  0  0  0  0  0  0  0  0  0  0
    8.6251  -15.4939   26.7097 C   0  0  0  0  0  0  0  0  0  0  0  0
    9.4045  -15.8954   25.4993 C   0  0  2  0  0  0  0  0  0  0  0  0
    8.4903  -16.3231   24.4316 N   0  0  0  0  0  0  0  0  0  0  0  0
   10.3987  -16.9517   25.7784 C   0  0  0  0  0  0  0  0  0  0  0  0
   10.2343  -18.1983   25.2280 O   0  0  0  0  0  0  0  0  0  0  0  0
    8.2733  -13.0528   26.7644 C   0  0  0  0  0  0  0  0  0  0  0  0
    7.4952  -11.9512   26.5307 C   0  0  0  0  0  0  0  0  0  0  0  0
   11.3995  -16.7339   26.5169 O   0  0  0  0  0  0  0  0  0  0  0  0
  2  1  1  6
  2  3  1  0
  4  3  1  0
  4  8  1  0
  5  4  2  0
  6  5  1  0
  6  7  1  0
  7  8  2  0
  9  2  1  0
 10  9  2  0
 11  9  1  0
 12 11  1  0
 13 22  1  0
 13 12  1  0
 14 13  2  0
 16 15  1  0
 17 16  2  0
 18 17  1  0
 19 25  1  0
 19 18  2  0
 21 20  1  1
 20 19  1  0
 21 23  1  0
 21 22  1  0
 23 24  1  0
 25 26  2  0
 26 16  1  0
 27 23  2  0
M  END
$$$$
