HGY.pdb
     RDKit          3D

 27 28  0  0  1  0  0  0  0  0999 V2000
    8.9028  -15.6981   21.0455 N   0  0  0  0  0  0  0  0  0  0  0  0
    7.9324  -14.9233   21.7504 C   0  0  1  0  0  0  0  0  0  0  0  0
    6.8104  -14.5707   20.7727 C   0  0  0  0  0  0  0  0  0  0  0  0
    7.3881  -13.9199   19.5680 C   0  0  0  0  0  0  0  0  0  0  0  0
    7.9831  -12.6828   19.4357 C   0  0  0  0  0  0  0  0  0  0  0  0
    8.3712  -12.4909   18.1471 N   0  0  0  0  0  0  0  0  0  0  0  0
    8.0172  -13.6113   17.4741 C   0  0  0  0  0  0  0  0  0  0  0  0
    7.4272  -14.4675   18.3297 N   0  0  0  0  0  0  0  0  0  0  0  0
    7.4010  -15.6007   22.9512 C   0  0  0  0  0  0  0  0  0  0  0  0
    6.5506  -15.0625   23.7014 O   0  0  0  0  0  0  0  0  0  0  0  0
    7.8590  -16.9114   23.2847 N   0  0  0  0  0  0  0  0  0  0  0  0
    7.3587  -17.5236   24.4772 C   0  0  0  0  0  0  0  0  0  0  0  0
    8.0850  -17.1746   25.7149 C   0  0  0  0  0  0  0  0  0  0  0  0
    7.7494  -17.7248   26.8171 O   0  0  0  0  0  0  0  0  0  0  0  0
    6.0564  -10.9811   25.7376 O   0  0  0  0  0  0  0  0  0  0  0  0
    6.6954  -12.0728   26.3014 C   0  0  0  0  0  0  0  0  0  0  0  0
    5.9896  -13.1907   26.6643 C   0  0  0  0  0  0  0  0  0  0  0  0
    6.6524  -14.2503   27.2183 C   0  0  0  0  0  0  0  0  0  0  0  0
    8.0242  -14.2494   27.4345 C   0  0  0  0  0  0  0  0  0  0  0  0
    8.7683  -15.3679   28.0358 C   0  0  0  0  0  0  0  0  0  0  0  0
    9.7884  -15.9198   27.0932 C   0  0  2  0  0  0  0  0  0  0  0  0
    9.1571  -16.2572   25.8102 N   0  0  0  0  0  0  0  0  0  0  0  0
   10.5023  -17.0924   27.6387 C   0  0  0  0  0  0  0  0  0  0  0  0
   11.1519  -16.9891   28.8434 O   0  0  0  0  0  0  0  0  0  0  0  0
    8.7317  -13.1027   27.0595 C   0  0  0  0  0  0  0  0  0  0  0  0
    8.0544  -12.0499   26.5060 C   0  0  0  0  0  0  0  0  0  0  0  0
   10.5307  -18.1917   27.0183 O   0  0  0  0  0  0  0  0  0  0  0  0
  2  1  1  6
  2  3  1  0
  4  3  1  0
  4  8  1  0
  5  4  2  0
  6  5  1  0
  6  7  1  0
  7  8  2  0
  9  2  1  0
 10  9  2  0
 11  9  1  0
 12 11  1  0
 13 22  1  0
 13 12  1  0
 14 13  2  0
 16 15  1  0
 17 16  2  0
 18 17  1  0
 19 25  1  0
 19 18  2  0
 21 20  1  1
 20 19  1  0
 21 23  1  0
 21 22  1  0
 23 24  1  0
 25 26  2  0
 26 16  1  0
 27 23  2  0
M  END
$$$$
