HGY.pdb
     RDKit          3D

 27 28  0  0  1  0  0  0  0  0999 V2000
    8.8573  -16.2492   18.0118 N   0  0  0  0  0  0  0  0  0  0  0  0
    8.3870  -15.0260   18.5788 C   0  0  1  0  0  0  0  0  0  0  0  0
    7.1191  -14.6155   17.8286 C   0  0  0  0  0  0  0  0  0  0  0  0
    7.4538  -14.3253   16.4099 C   0  0  0  0  0  0  0  0  0  0  0  0
    8.4276  -13.5013   15.8862 C   0  0  0  0  0  0  0  0  0  0  0  0
    8.3803  -13.5335   14.5279 N   0  0  0  0  0  0  0  0  0  0  0  0
    7.3743  -14.3799   14.2040 C   0  0  0  0  0  0  0  0  0  0  0  0
    6.8197  -14.8538   15.3359 N   0  0  0  0  0  0  0  0  0  0  0  0
    8.1431  -15.1097   20.0337 C   0  0  0  0  0  0  0  0  0  0  0  0
    7.8757  -14.0976   20.7263 O   0  0  0  0  0  0  0  0  0  0  0  0
    8.2098  -16.3760   20.6902 N   0  0  0  0  0  0  0  0  0  0  0  0
    7.8124  -16.4522   22.0626 C   0  0  0  0  0  0  0  0  0  0  0  0
    8.8904  -16.2111   23.0431 C   0  0  0  0  0  0  0  0  0  0  0  0
   10.1089  -16.3038   22.6731 O   0  0  0  0  0  0  0  0  0  0  0  0
    4.9151  -11.8831   26.6760 O   0  0  0  0  0  0  0  0  0  0  0  0
    6.1333  -12.4986   26.4411 C   0  0  0  0  0  0  0  0  0  0  0  0
    6.2074  -13.6556   25.7094 C   0  0  0  0  0  0  0  0  0  0  0  0
    7.4266  -14.2364   25.4969 C   0  0  0  0  0  0  0  0  0  0  0  0
    8.6096  -13.7046   25.9931 C   0  0  0  0  0  0  0  0  0  0  0  0
    9.9371  -14.3074   25.7911 C   0  0  0  0  0  0  0  0  0  0  0  0
    9.8331  -15.7268   25.3349 C   0  0  2  0  0  0  0  0  0  0  0  0
    8.7059  -15.8745   24.4042 N   0  0  0  0  0  0  0  0  0  0  0  0
    9.7052  -16.6835   26.4531 C   0  0  0  0  0  0  0  0  0  0  0  0
   10.7524  -16.8502   27.3244 O   0  0  0  0  0  0  0  0  0  0  0  0
    8.5194  -12.5241   26.7376 C   0  0  0  0  0  0  0  0  0  0  0  0
    7.2919  -11.9541   26.9419 C   0  0  0  0  0  0  0  0  0  0  0  0
    8.6505  -17.3563   26.6250 O   0  0  0  0  0  0  0  0  0  0  0  0
  2  1  1  6
  2  3  1  0
  4  3  1  0
  4  8  1  0
  5  4  2  0
  6  5  1  0
  6  7  1  0
  7  8  2  0
  9  2  1  0
 10  9  2  0
 11  9  1  0
 12 11  1  0
 13 22  1  0
 13 12  1  0
 14 13  2  0
 16 15  1  0
 17 16  2  0
 18 17  1  0
 19 25  1  0
 19 18  2  0
 21 20  1  1
 20 19  1  0
 21 23  1  0
 21 22  1  0
 23 24  1  0
 25 26  2  0
 26 16  1  0
 27 23  2  0
M  END
$$$$
