HGY.pdb
     RDKit          3D

 27 28  0  0  1  0  0  0  0  0999 V2000
    9.4849  -16.2269   17.4287 N   0  0  0  0  0  0  0  0  0  0  0  0
    8.5514  -15.4300   18.1582 C   0  0  1  0  0  0  0  0  0  0  0  0
    7.3449  -15.1716   17.2545 C   0  0  0  0  0  0  0  0  0  0  0  0
    7.8022  -14.5635   15.9778 C   0  0  0  0  0  0  0  0  0  0  0  0
    8.3339  -13.3136   15.7390 C   0  0  0  0  0  0  0  0  0  0  0  0
    8.6148  -13.1748   14.4162 N   0  0  0  0  0  0  0  0  0  0  0  0
    8.2573  -14.3412   13.8287 C   0  0  0  0  0  0  0  0  0  0  0  0
    7.7697  -15.1731   14.7687 N   0  0  0  0  0  0  0  0  0  0  0  0
    8.1380  -16.0371   19.4402 C   0  0  0  0  0  0  0  0  0  0  0  0
    7.9248  -17.2684   19.5591 O   0  0  0  0  0  0  0  0  0  0  0  0
    7.9705  -15.2108   20.5926 N   0  0  0  0  0  0  0  0  0  0  0  0
    7.5345  -15.8224   21.8104 C   0  0  0  0  0  0  0  0  0  0  0  0
    8.4911  -15.7394   22.9327 C   0  0  0  0  0  0  0  0  0  0  0  0
    9.6629  -15.2759   22.7268 O   0  0  0  0  0  0  0  0  0  0  0  0
    5.6450  -10.7059   26.2158 O   0  0  0  0  0  0  0  0  0  0  0  0
    6.3070  -11.9181   26.3173 C   0  0  0  0  0  0  0  0  0  0  0  0
    5.6153  -13.0808   26.5392 C   0  0  0  0  0  0  0  0  0  0  0  0
    6.3008  -14.2598   26.6341 C   0  0  0  0  0  0  0  0  0  0  0  0
    7.6822  -14.3381   26.5154 C   0  0  0  0  0  0  0  0  0  0  0  0
    8.4527  -15.5878   26.6207 C   0  0  0  0  0  0  0  0  0  0  0  0
    9.1882  -15.8888   25.3550 C   0  0  2  0  0  0  0  0  0  0  0  0
    8.2339  -16.1361   24.2655 N   0  0  0  0  0  0  0  0  0  0  0  0
   10.1223  -17.0255   25.4878 C   0  0  0  0  0  0  0  0  0  0  0  0
   11.2234  -16.9054   26.2982 O   0  0  0  0  0  0  0  0  0  0  0  0
    8.3751  -13.1445   26.2891 C   0  0  0  0  0  0  0  0  0  0  0  0
    7.6752  -11.9719   26.1963 C   0  0  0  0  0  0  0  0  0  0  0  0
    9.9314  -18.1089   24.8681 O   0  0  0  0  0  0  0  0  0  0  0  0
  2  1  1  6
  2  3  1  0
  4  3  1  0
  4  8  1  0
  5  4  2  0
  6  5  1  0
  6  7  1  0
  7  8  2  0
  9  2  1  0
 10  9  2  0
 11  9  1  0
 12 11  1  0
 13 22  1  0
 13 12  1  0
 14 13  2  0
 16 15  1  0
 17 16  2  0
 18 17  1  0
 19 25  1  0
 19 18  2  0
 21 20  1  1
 20 19  1  0
 21 23  1  0
 21 22  1  0
 23 24  1  0
 25 26  2  0
 26 16  1  0
 27 23  2  0
M  END
$$$$
