HGY.pdb
     RDKit          3D

 27 28  0  0  1  0  0  0  0  0999 V2000
    7.5500  -17.4815   20.2548 N   0  0  0  0  0  0  0  0  0  0  0  0
    8.7585  -17.1198   19.5858 C   0  0  1  0  0  0  0  0  0  0  0  0
    8.4172  -16.0614   18.5359 C   0  0  0  0  0  0  0  0  0  0  0  0
    8.0441  -14.7923   19.2134 C   0  0  0  0  0  0  0  0  0  0  0  0
    7.0470  -14.5461   20.1338 C   0  0  0  0  0  0  0  0  0  0  0  0
    7.0614  -13.2349   20.4926 N   0  0  0  0  0  0  0  0  0  0  0  0
    8.0701  -12.6622   19.7941 C   0  0  0  0  0  0  0  0  0  0  0  0
    8.6584  -13.5996   19.0269 N   0  0  0  0  0  0  0  0  0  0  0  0
    9.8153  -16.6423   20.5015 C   0  0  0  0  0  0  0  0  0  0  0  0
   10.9469  -16.2879   20.0898 O   0  0  0  0  0  0  0  0  0  0  0  0
    9.5582  -16.5753   21.9044 N   0  0  0  0  0  0  0  0  0  0  0  0
   10.6018  -16.1099   22.7656 C   0  0  0  0  0  0  0  0  0  0  0  0
   10.2892  -16.1476   24.2086 C   0  0  0  0  0  0  0  0  0  0  0  0
   11.1428  -15.7046   25.0484 O   0  0  0  0  0  0  0  0  0  0  0  0
    6.4643  -10.8628   25.6130 O   0  0  0  0  0  0  0  0  0  0  0  0
    6.7241  -12.1980   25.8734 C   0  0  0  0  0  0  0  0  0  0  0  0
    7.3833  -12.5768   27.0142 C   0  0  0  0  0  0  0  0  0  0  0  0
    7.6231  -13.9038   27.2394 C   0  0  0  0  0  0  0  0  0  0  0  0
    7.2265  -14.9000   26.3569 C   0  0  0  0  0  0  0  0  0  0  0  0
    7.4754  -16.3359   26.5632 C   0  0  0  0  0  0  0  0  0  0  0  0
    8.8862  -16.7027   26.2332 C   0  0  2  0  0  0  0  0  0  0  0  0
    9.0943  -16.6433   24.7800 N   0  0  0  0  0  0  0  0  0  0  0  0
    9.2735  -18.0296   26.7541 C   0  0  0  0  0  0  0  0  0  0  0  0
    9.5024  -18.1886   28.0980 O   0  0  0  0  0  0  0  0  0  0  0  0
    6.5550  -14.4994   25.1973 C   0  0  0  0  0  0  0  0  0  0  0  0
    6.3219  -13.1673   24.9856 C   0  0  0  0  0  0  0  0  0  0  0  0
    9.4017  -19.0247   25.9875 O   0  0  0  0  0  0  0  0  0  0  0  0
  2  1  1  1
  2  3  1  0
  4  3  1  0
  4  8  1  0
  5  4  2  0
  6  5  1  0
  6  7  1  0
  7  8  2  0
  9  2  1  0
 10  9  2  0
 11  9  1  0
 12 11  1  0
 13 22  1  0
 13 12  1  0
 14 13  2  0
 16 15  1  0
 17 16  2  0
 18 17  1  0
 19 25  1  0
 19 18  2  0
 21 20  1  6
 20 19  1  0
 21 23  1  0
 21 22  1  0
 23 24  1  0
 25 26  2  0
 26 16  1  0
 27 23  2  0
M  END
$$$$
