HGY.pdb
     RDKit          3D

 27 28  0  0  1  0  0  0  0  0999 V2000
    8.0439  -16.2991   18.7217 N   0  0  0  0  0  0  0  0  0  0  0  0
    8.1421  -15.1574   19.5736 C   0  0  1  0  0  0  0  0  0  0  0  0
    7.3471  -14.0200   18.9307 C   0  0  0  0  0  0  0  0  0  0  0  0
    7.7623  -13.8641   17.5122 C   0  0  0  0  0  0  0  0  0  0  0  0
    7.0319  -13.4373   16.4231 C   0  0  0  0  0  0  0  0  0  0  0  0
    7.8118  -13.4477   15.3096 N   0  0  0  0  0  0  0  0  0  0  0  0
    9.0316  -13.8821   15.7055 C   0  0  0  0  0  0  0  0  0  0  0  0
    8.9990  -14.1313   17.0285 N   0  0  0  0  0  0  0  0  0  0  0  0
    7.6841  -15.4150   20.9545 C   0  0  0  0  0  0  0  0  0  0  0  0
    7.5878  -14.5003   21.8088 O   0  0  0  0  0  0  0  0  0  0  0  0
    7.3353  -16.7426   21.3478 N   0  0  0  0  0  0  0  0  0  0  0  0
    6.8085  -16.9461   22.6625 C   0  0  0  0  0  0  0  0  0  0  0  0
    7.7526  -16.6776   23.7661 C   0  0  0  0  0  0  0  0  0  0  0  0
    9.0079  -16.6753   23.5329 O   0  0  0  0  0  0  0  0  0  0  0  0
    6.0430  -10.3170   25.4853 O   0  0  0  0  0  0  0  0  0  0  0  0
    6.4449  -11.5684   25.9217 C   0  0  0  0  0  0  0  0  0  0  0  0
    5.5253  -12.5510   26.1832 C   0  0  0  0  0  0  0  0  0  0  0  0
    5.9572  -13.7749   26.6126 C   0  0  0  0  0  0  0  0  0  0  0  0
    7.3000  -14.0754   26.7996 C   0  0  0  0  0  0  0  0  0  0  0  0
    7.7994  -15.3782   27.2684 C   0  0  0  0  0  0  0  0  0  0  0  0
    8.4012  -16.1704   26.1531 C   0  0  2  0  0  0  0  0  0  0  0  0
    7.3965  -16.4120   25.1087 N   0  0  0  0  0  0  0  0  0  0  0  0
    8.9895  -17.4476   26.6056 C   0  0  0  0  0  0  0  0  0  0  0  0
   10.1251  -17.4343   27.3763 O   0  0  0  0  0  0  0  0  0  0  0  0
    8.2272  -13.0640   26.5289 C   0  0  0  0  0  0  0  0  0  0  0  0
    7.7799  -11.8437   26.0996 C   0  0  0  0  0  0  0  0  0  0  0  0
    8.4705  -18.5564   26.2962 O   0  0  0  0  0  0  0  0  0  0  0  0
  2  1  1  6
  2  3  1  0
  4  3  1  0
  4  8  1  0
  5  4  2  0
  6  5  1  0
  6  7  1  0
  7  8  2  0
  9  2  1  0
 10  9  2  0
 11  9  1  0
 12 11  1  0
 13 22  1  0
 13 12  1  0
 14 13  2  0
 16 15  1  0
 17 16  2  0
 18 17  1  0
 19 25  1  0
 19 18  2  0
 21 20  1  1
 20 19  1  0
 21 23  1  0
 21 22  1  0
 23 24  1  0
 25 26  2  0
 26 16  1  0
 27 23  2  0
M  END
$$$$
