HGY.pdb
     RDKit          3D

 27 28  0  0  1  0  0  0  0  0999 V2000
    8.7130  -16.4608   19.9625 N   0  0  0  0  0  0  0  0  0  0  0  0
    9.6400  -15.3854   20.1144 C   0  0  1  0  0  0  0  0  0  0  0  0
    8.8627  -14.0733   19.9991 C   0  0  0  0  0  0  0  0  0  0  0  0
    8.3428  -13.9244   18.6148 C   0  0  0  0  0  0  0  0  0  0  0  0
    7.1264  -13.4430   18.1785 C   0  0  0  0  0  0  0  0  0  0  0  0
    7.0717  -13.4849   16.8208 N   0  0  0  0  0  0  0  0  0  0  0  0
    8.2571  -13.9938   16.4095 C   0  0  0  0  0  0  0  0  0  0  0  0
    9.0184  -14.2568   17.4888 N   0  0  0  0  0  0  0  0  0  0  0  0
   10.4043  -15.4441   21.3776 C   0  0  0  0  0  0  0  0  0  0  0  0
   11.1779  -14.5224   21.7347 O   0  0  0  0  0  0  0  0  0  0  0  0
   10.2705  -16.5796   22.2329 N   0  0  0  0  0  0  0  0  0  0  0  0
   11.1800  -16.7163   23.3290 C   0  0  0  0  0  0  0  0  0  0  0  0
   10.5743  -16.5780   24.6690 C   0  0  0  0  0  0  0  0  0  0  0  0
   11.3254  -16.5785   25.7014 O   0  0  0  0  0  0  0  0  0  0  0  0
    6.5963  -10.4783   25.6793 O   0  0  0  0  0  0  0  0  0  0  0  0
    6.7450  -11.8500   25.7996 C   0  0  0  0  0  0  0  0  0  0  0  0
    6.6243  -12.6690   24.7068 C   0  0  0  0  0  0  0  0  0  0  0  0
    6.7772  -14.0187   24.8617 C   0  0  0  0  0  0  0  0  0  0  0  0
    7.0523  -14.6084   26.0885 C   0  0  0  0  0  0  0  0  0  0  0  0
    7.2145  -16.0570   26.2930 C   0  0  0  0  0  0  0  0  0  0  0  0
    8.6557  -16.4528   26.3057 C   0  0  2  0  0  0  0  0  0  0  0  0
    9.1928  -16.4396   24.9383 N   0  0  0  0  0  0  0  0  0  0  0  0
    8.8862  -17.7688   26.9358 C   0  0  0  0  0  0  0  0  0  0  0  0
    8.9807  -18.8889   26.1483 O   0  0  0  0  0  0  0  0  0  0  0  0
    7.1730  -13.7611   27.1947 C   0  0  0  0  0  0  0  0  0  0  0  0
    7.0174  -12.4120   27.0241 C   0  0  0  0  0  0  0  0  0  0  0  0
    8.9965  -17.8877   28.1880 O   0  0  0  0  0  0  0  0  0  0  0  0
  2  1  1  1
  2  3  1  0
  4  3  1  0
  4  8  1  0
  5  4  2  0
  6  5  1  0
  6  7  1  0
  7  8  2  0
  9  2  1  0
 10  9  2  0
 11  9  1  0
 12 11  1  0
 13 22  1  0
 13 12  1  0
 14 13  2  0
 16 15  1  0
 17 16  2  0
 18 17  1  0
 19 25  1  0
 19 18  2  0
 21 20  1  6
 20 19  1  0
 21 23  1  0
 21 22  1  0
 23 24  1  0
 25 26  2  0
 26 16  1  0
 27 23  2  0
M  END
$$$$
