ETL.pdb
     RDKit          3D

 25 24  0  0  1  0  0  0  0  0999 V2000
   11.6540  -16.3238   17.8407 N   0  0  0  0  0  0  0  0  0  0  0  0
   11.8976  -15.8127   19.1429 C   0  0  1  0  0  0  0  0  0  0  0  0
   13.0213  -14.8117   19.2524 C   0  0  0  0  0  0  0  0  0  0  0  0
   14.3671  -15.3671   18.9966 C   0  0  0  0  0  0  0  0  0  0  0  0
   15.4489  -14.4259   19.2954 C   0  0  0  0  0  0  0  0  0  0  0  0
   16.2269  -14.5045   20.2754 O   0  0  0  0  0  0  0  0  0  0  0  0
   10.6664  -15.2262   19.7834 C   0  0  0  0  0  0  0  0  0  0  0  0
   10.2346  -14.0908   19.4248 O   0  0  0  0  0  0  0  0  0  0  0  0
   15.6625  -13.3373   18.4288 O   0  0  0  0  0  0  0  0  0  0  0  0
    7.3311  -16.9132   19.7028 C   0  0  0  0  0  0  0  0  0  0  0  0
    7.6075  -16.5084   21.1300 C   0  0  1  0  0  0  0  0  0  0  0  0
    8.1309  -17.6771   21.7313 O   0  0  0  0  0  0  0  0  0  0  0  0
    8.6292  -15.3762   21.2386 C   0  0  2  0  0  0  0  0  0  0  0  0
    9.9339  -15.8835   20.7937 N   0  0  0  0  0  0  0  0  0  0  0  0
    8.6871  -14.9517   22.6407 C   0  0  0  0  0  0  0  0  0  0  0  0
    9.7576  -15.2764   23.2812 O   0  0  0  0  0  0  0  0  0  0  0  0
    5.5158  -12.1170   27.2036 C   0  0  0  0  0  0  0  0  0  0  0  0
    6.7608  -12.9431   26.8430 C   0  0  2  0  0  0  0  0  0  0  0  0
    7.9253  -12.1994   27.4259 C   0  0  0  0  0  0  0  0  0  0  0  0
    6.8202  -13.0846   25.3729 C   0  0  0  0  0  0  0  0  0  0  0  0
    7.8980  -13.9827   24.8303 C   0  0  2  0  0  0  0  0  0  0  0  0
    7.7543  -14.2426   23.3946 N   0  0  0  0  0  0  0  0  0  0  0  0
    7.7333  -15.3089   25.4787 C   0  0  0  0  0  0  0  0  0  0  0  0
    6.8306  -16.2614   24.9484 O   0  0  0  0  0  0  0  0  0  0  0  0
    8.3490  -15.6901   26.4998 O   0  0  0  0  0  0  0  0  0  0  0  0
  2  1  1  6
  3  2  1  0
  4  3  1  0
  5  4  1  0
  6  5  2  0
  7 14  1  0
  7  2  1  0
  8  7  2  0
  9  5  1  0
 11 10  1  6
 11 13  1  0
 12 11  1  0
 13 15  1  0
 13 14  1  1
 15 22  1  0
 16 15  2  0
 18 20  1  0
 18 17  1  6
 19 18  1  0
 21 23  1  0
 21 20  1  1
 22 21  1  0
 23 24  1  0
 25 23  2  0
M  END
$$$$
