ETL.pdb
     RDKit          3D

 25 24  0  0  1  0  0  0  0  0999 V2000
   11.7496  -17.3817   19.6491 N   0  0  0  0  0  0  0  0  0  0  0  0
   10.4475  -17.0540   19.1873 C   0  0  1  0  0  0  0  0  0  0  0  0
    9.9117  -17.9200   18.0738 C   0  0  0  0  0  0  0  0  0  0  0  0
   10.7448  -17.9374   16.8529 C   0  0  0  0  0  0  0  0  0  0  0  0
   10.2390  -18.8433   15.8189 C   0  0  0  0  0  0  0  0  0  0  0  0
   10.3298  -20.0934   15.8441 O   0  0  0  0  0  0  0  0  0  0  0  0
    9.4263  -17.0069   20.2941 C   0  0  0  0  0  0  0  0  0  0  0  0
    8.2123  -16.7521   20.0377 O   0  0  0  0  0  0  0  0  0  0  0  0
    9.5881  -18.2984   14.6960 O   0  0  0  0  0  0  0  0  0  0  0  0
    8.6209  -19.8190   22.6752 C   0  0  0  0  0  0  0  0  0  0  0  0
    8.8771  -18.5731   23.4873 C   0  0  1  0  0  0  0  0  0  0  0  0
   10.2271  -18.6905   23.8937 O   0  0  0  0  0  0  0  0  0  0  0  0
    8.6969  -17.2892   22.6771 C   0  0  2  0  0  0  0  0  0  0  0  0
    9.7444  -17.2379   21.6486 N   0  0  0  0  0  0  0  0  0  0  0  0
    8.8153  -16.1534   23.5966 C   0  0  0  0  0  0  0  0  0  0  0  0
    9.9274  -15.5036   23.5451 O   0  0  0  0  0  0  0  0  0  0  0  0
    5.6311  -12.1532   27.0840 C   0  0  0  0  0  0  0  0  0  0  0  0
    7.0321  -12.5916   26.6285 C   0  0  2  0  0  0  0  0  0  0  0  0
    7.6543  -11.3791   26.0025 C   0  0  0  0  0  0  0  0  0  0  0  0
    6.8879  -13.7331   25.7007 C   0  0  0  0  0  0  0  0  0  0  0  0
    8.1465  -14.4854   25.3648 C   0  0  2  0  0  0  0  0  0  0  0  0
    7.9006  -15.6623   24.5259 N   0  0  0  0  0  0  0  0  0  0  0  0
    8.6876  -15.0277   26.6375 C   0  0  0  0  0  0  0  0  0  0  0  0
    8.6184  -16.4137   26.9156 O   0  0  0  0  0  0  0  0  0  0  0  0
    9.2315  -14.3451   27.5349 O   0  0  0  0  0  0  0  0  0  0  0  0
  2  1  1  1
  3  2  1  0
  4  3  1  0
  5  4  1  0
  6  5  2  0
  7 14  1  0
  7  2  1  0
  8  7  2  0
  9  5  1  0
 11 10  1  6
 11 13  1  0
 12 11  1  0
 13 15  1  0
 13 14  1  6
 15 22  1  0
 16 15  2  0
 18 20  1  0
 18 17  1  6
 19 18  1  0
 21 23  1  0
 21 20  1  1
 22 21  1  0
 23 24  1  0
 25 23  2  0
M  END
$$$$
