ETL.pdb
     RDKit          3D

 25 24  0  0  1  0  0  0  0  0999 V2000
   13.0622  -17.9737   19.6054 N   0  0  0  0  0  0  0  0  0  0  0  0
   12.7816  -17.7550   20.9801 C   0  0  1  0  0  0  0  0  0  0  0  0
   13.8768  -17.0838   21.7719 C   0  0  0  0  0  0  0  0  0  0  0  0
   15.2465  -17.4951   21.3982 C   0  0  0  0  0  0  0  0  0  0  0  0
   16.2889  -16.6986   22.0499 C   0  0  0  0  0  0  0  0  0  0  0  0
   16.8428  -15.6881   21.5563 O   0  0  0  0  0  0  0  0  0  0  0  0
   11.4954  -17.0030   21.2046 C   0  0  0  0  0  0  0  0  0  0  0  0
   11.2474  -15.9455   20.5530 O   0  0  0  0  0  0  0  0  0  0  0  0
   16.7221  -17.0679   23.3374 O   0  0  0  0  0  0  0  0  0  0  0  0
    8.0260  -18.5088   20.8036 C   0  0  0  0  0  0  0  0  0  0  0  0
    8.1125  -17.8192   22.1431 C   0  0  1  0  0  0  0  0  0  0  0  0
    8.4277  -18.8563   23.0521 O   0  0  0  0  0  0  0  0  0  0  0  0
    9.2032  -16.7490   22.1903 C   0  0  2  0  0  0  0  0  0  0  0  0
   10.5108  -17.4151   22.1265 N   0  0  0  0  0  0  0  0  0  0  0  0
    9.0574  -16.0093   23.4477 C   0  0  0  0  0  0  0  0  0  0  0  0
    9.9650  -16.2293   24.3362 O   0  0  0  0  0  0  0  0  0  0  0  0
    5.3273  -12.2214   26.6790 C   0  0  0  0  0  0  0  0  0  0  0  0
    6.7120  -12.8870   26.6338 C   0  0  2  0  0  0  0  0  0  0  0  0
    7.6948  -11.8045   26.9675 C   0  0  0  0  0  0  0  0  0  0  0  0
    6.9064  -13.4746   25.2916 C   0  0  0  0  0  0  0  0  0  0  0  0
    8.0582  -14.4302   25.1400 C   0  0  2  0  0  0  0  0  0  0  0  0
    8.0798  -15.0945   23.8332 N   0  0  0  0  0  0  0  0  0  0  0  0
    7.8540  -15.5247   26.1234 C   0  0  0  0  0  0  0  0  0  0  0  0
    7.0462  -16.6408   25.7997 O   0  0  0  0  0  0  0  0  0  0  0  0
    8.3551  -15.5622   27.2700 O   0  0  0  0  0  0  0  0  0  0  0  0
  2  1  1  6
  3  2  1  0
  4  3  1  0
  5  4  1  0
  6  5  2  0
  7 14  1  0
  7  2  1  0
  8  7  2  0
  9  5  1  0
 11 10  1  6
 11 13  1  0
 12 11  1  0
 13 15  1  0
 13 14  1  1
 15 22  1  0
 16 15  2  0
 18 20  1  0
 18 17  1  6
 19 18  1  0
 21 23  1  0
 21 20  1  6
 22 21  1  0
 23 24  1  0
 25 23  2  0
M  END
$$$$
