ETL.pdb
     RDKit          3D

 25 24  0  0  1  0  0  0  0  0999 V2000
   11.6587  -19.2559   20.5895 N   0  0  0  0  0  0  0  0  0  0  0  0
   11.8408  -17.8883   20.2534 C   0  0  1  0  0  0  0  0  0  0  0  0
   12.2719  -17.6161   18.8332 C   0  0  0  0  0  0  0  0  0  0  0  0
   11.8083  -18.6152   17.8474 C   0  0  0  0  0  0  0  0  0  0  0  0
   12.3205  -18.3769   16.4959 C   0  0  0  0  0  0  0  0  0  0  0  0
   11.6591  -17.8972   15.5451 O   0  0  0  0  0  0  0  0  0  0  0  0
   10.6325  -17.0422   20.5602 C   0  0  0  0  0  0  0  0  0  0  0  0
   10.3948  -15.9945   19.8892 O   0  0  0  0  0  0  0  0  0  0  0  0
   13.6615  -18.6962   16.2105 O   0  0  0  0  0  0  0  0  0  0  0  0
    6.9766  -18.0320   20.4406 C   0  0  0  0  0  0  0  0  0  0  0  0
    7.2930  -17.4667   21.8036 C   0  0  1  0  0  0  0  0  0  0  0  0
    7.5725  -18.6030   22.5986 O   0  0  0  0  0  0  0  0  0  0  0  0
    8.5077  -16.5384   21.7937 C   0  0  2  0  0  0  0  0  0  0  0  0
    9.7125  -17.3519   21.5833 N   0  0  0  0  0  0  0  0  0  0  0  0
    8.5634  -15.8521   23.0880 C   0  0  0  0  0  0  0  0  0  0  0  0
    9.5778  -16.1370   23.8307 O   0  0  0  0  0  0  0  0  0  0  0  0
    5.5186  -11.9858   26.9269 C   0  0  0  0  0  0  0  0  0  0  0  0
    6.7975  -12.8075   26.6994 C   0  0  2  0  0  0  0  0  0  0  0  0
    7.9362  -11.8547   26.9104 C   0  0  0  0  0  0  0  0  0  0  0  0
    6.7484  -13.3848   25.3396 C   0  0  0  0  0  0  0  0  0  0  0  0
    7.8186  -14.3855   24.9986 C   0  0  2  0  0  0  0  0  0  0  0  0
    7.6804  -14.9287   23.6439 N   0  0  0  0  0  0  0  0  0  0  0  0
    7.6338  -15.5515   25.9001 C   0  0  0  0  0  0  0  0  0  0  0  0
    6.6132  -16.4995   25.6497 O   0  0  0  0  0  0  0  0  0  0  0  0
    8.3305  -15.7944   26.9115 O   0  0  0  0  0  0  0  0  0  0  0  0
  2  1  1  6
  3  2  1  0
  4  3  1  0
  5  4  1  0
  6  5  2  0
  7 14  1  0
  7  2  1  0
  8  7  2  0
  9  5  1  0
 11 10  1  6
 11 13  1  0
 12 11  1  0
 13 15  1  0
 13 14  1  1
 15 22  1  0
 16 15  2  0
 18 20  1  0
 18 17  1  6
 19 18  1  0
 21 23  1  0
 21 20  1  1
 22 21  1  0
 23 24  1  0
 25 23  2  0
M  END
$$$$
