RPH.pdb
     RDKit          3D

 29 30  0  0  1  0  0  0  0  0999 V2000
   10.2837  -18.9736   19.9772 N   0  0  0  0  0  0  0  0  0  0  0  0
    9.2263  -19.6118   20.7121 C   0  0  0  0  0  0  0  0  0  0  0  0
    9.5019  -20.6862   21.3337 N   0  0  0  0  0  0  0  0  0  0  0  0
    7.9165  -19.0677   20.7478 N   0  0  0  0  0  0  0  0  0  0  0  0
    7.6635  -17.8181   20.0715 C   0  0  0  0  0  0  0  0  0  0  0  0
    7.7679  -16.6379   21.0223 C   0  0  0  0  0  0  0  0  0  0  0  0
    7.4234  -15.3579   20.3177 C   0  0  0  0  0  0  0  0  0  0  0  0
    7.4300  -14.1421   21.2590 C   0  0  2  0  0  0  0  0  0  0  0  0
    8.1019  -13.0381   20.5434 N   0  0  0  0  0  0  0  0  0  0  0  0
    8.2745  -14.4266   22.4665 C   0  0  0  0  0  0  0  0  0  0  0  0
    9.2970  -15.1300   22.1853 O   0  0  0  0  0  0  0  0  0  0  0  0
    8.8098  -21.2154   21.8748 N   0  0  0  0  0  0  0  0  0  0  0  0
    7.9540  -13.9588   23.7462 C   0  0  0  0  0  0  0  0  0  0  0  0
    7.4291  -12.6089   24.0013 C   0  0  0  0  0  0  0  0  0  0  0  0
    6.3151  -12.9108   24.9707 C   0  0  0  0  0  0  0  0  0  0  0  0
    6.6210  -14.2725   25.5546 C   0  0  2  0  0  0  0  0  0  0  0  0
    8.0630  -14.5060   25.0383 C   0  0  0  0  0  0  0  0  0  0  0  0
    8.4573  -15.8871   25.2337 O   0  0  0  0  0  0  0  0  0  0  0  0
    7.8506  -16.9116   24.9288 N   0  0  0  0  0  0  0  0  0  0  0  0
    9.7333  -16.0979   25.8719 C   0  0  1  0  0  0  0  0  0  0  0  0
   10.2150  -17.4351   26.1957 C   0  0  0  0  0  0  0  0  0  0  0  0
   11.6294  -17.6183   25.7578 C   0  0  0  0  0  0  0  0  0  0  0  0
   11.8388  -17.4721   24.3039 C   0  0  0  0  0  0  0  0  0  0  0  0
   12.0612  -18.5185   23.3897 N   0  0  0  0  0  0  0  0  0  0  0  0
   12.2100  -18.0514   22.1648 C   0  0  0  0  0  0  0  0  0  0  0  0
   12.0870  -16.7004   22.2648 N   0  0  0  0  0  0  0  0  0  0  0  0
   11.8668  -16.3658   23.5380 C   0  0  0  0  0  0  0  0  0  0  0  0
   10.1524  -17.5197   27.6686 O   0  0  0  0  0  0  0  0  0  0  0  0
    9.7419  -16.4315   28.4099 O   0  0  0  0  0  0  0  0  0  0  0  0
  1  2  1  0
  2  3  2  0
  4  5  1  0
  4  2  1  0
  6  5  1  0
  7  6  1  0
  8  7  1  0
  8  9  1  6
 10 12  1  0
 10  8  1  0
 11 10  2  0
 12 16  1  0
 13 14  1  0
 13 12  1  0
 14 15  1  0
 15 16  1  0
 16 17  1  6
 17 18  2  0
 19 20  1  0
 19 17  1  0
 20 27  1  0
 20 21  1  1
 22 21  1  0
 23 22  2  0
 24 25  1  0
 24 23  1  0
 25 26  2  0
 26 22  1  0
 27 29  2  0
 27 28  1  0
M  END
$$$$
