RPH.pdb
     RDKit          3D

 29 30  0  0  1  0  0  0  0  0999 V2000
    7.9715  -20.0669   16.2112 N   0  0  0  0  0  0  0  0  0  0  0  0
    9.2623  -19.7829   16.7757 C   0  0  0  0  0  0  0  0  0  0  0  0
    9.9365  -20.7592   17.2330 N   0  0  0  0  0  0  0  0  0  0  0  0
    9.7742  -18.4606   16.8248 N   0  0  0  0  0  0  0  0  0  0  0  0
    8.9598  -17.3803   16.3226 C   0  0  0  0  0  0  0  0  0  0  0  0
    9.2712  -16.0717   17.0287 C   0  0  0  0  0  0  0  0  0  0  0  0
    8.0397  -15.5172   17.6841 C   0  0  0  0  0  0  0  0  0  0  0  0
    8.3000  -14.1839   18.4043 C   0  0  2  0  0  0  0  0  0  0  0  0
    9.2624  -13.4227   17.5818 N   0  0  0  0  0  0  0  0  0  0  0  0
    8.9825  -14.4297   19.7180 C   0  0  0  0  0  0  0  0  0  0  0  0
    9.9933  -15.1938   19.6012 O   0  0  0  0  0  0  0  0  0  0  0  0
   10.8529  -20.6485   17.6798 N   0  0  0  0  0  0  0  0  0  0  0  0
    8.5396  -13.8693   20.9218 C   0  0  0  0  0  0  0  0  0  0  0  0
    7.9850  -12.5108   21.0209 C   0  0  0  0  0  0  0  0  0  0  0  0
    6.7861  -12.7520   21.9020 C   0  0  0  0  0  0  0  0  0  0  0  0
    7.0435  -14.0607   22.6160 C   0  0  2  0  0  0  0  0  0  0  0  0
    8.5292  -14.3141   22.2570 C   0  0  0  0  0  0  0  0  0  0  0  0
    8.9112  -15.6708   22.5953 O   0  0  0  0  0  0  0  0  0  0  0  0
    8.4310  -16.7288   22.1944 N   0  0  0  0  0  0  0  0  0  0  0  0
   10.0023  -15.8082   23.5283 C   0  0  1  0  0  0  0  0  0  0  0  0
   10.3734  -17.1029   24.0861 C   0  0  0  0  0  0  0  0  0  0  0  0
   11.8560  -17.2625   24.1358 C   0  0  0  0  0  0  0  0  0  0  0  0
   12.4965  -17.4011   22.8131 C   0  0  0  0  0  0  0  0  0  0  0  0
   11.8391  -17.6721   21.5987 N   0  0  0  0  0  0  0  0  0  0  0  0
   12.6991  -17.7333   20.6000 C   0  0  0  0  0  0  0  0  0  0  0  0
   13.9225  -17.5039   21.1485 N   0  0  0  0  0  0  0  0  0  0  0  0
   13.7924  -17.3079   22.4622 C   0  0  0  0  0  0  0  0  0  0  0  0
    9.8440  -17.0932   25.4645 O   0  0  0  0  0  0  0  0  0  0  0  0
    9.9422  -18.2197   26.2541 O   0  0  0  0  0  0  0  0  0  0  0  0
  1  2  1  0
  2  3  2  0
  4  5  1  0
  4  2  1  0
  6  5  1  0
  7  6  1  0
  8  7  1  0
  8  9  1  6
 10 12  1  0
 10  8  1  0
 11 10  2  0
 12 16  1  0
 13 14  1  0
 13 12  1  0
 14 15  1  0
 15 16  1  0
 16 17  1  6
 17 18  2  0
 19 20  1  0
 19 17  1  0
 20 27  1  0
 20 21  1  1
 22 21  1  0
 23 22  2  0
 24 25  1  0
 24 23  1  0
 25 26  2  0
 26 22  1  0
 27 29  2  0
 27 28  1  0
M  END
$$$$
