RPH.pdb
     RDKit          3D

 29 30  0  0  1  0  0  0  0  0999 V2000
    8.2762  -16.1149   11.9477 N   0  0  0  0  0  0  0  0  0  0  0  0
    8.1921  -14.7216   12.2897 C   0  0  0  0  0  0  0  0  0  0  0  0
    8.0069  -13.8902   11.3456 N   0  0  0  0  0  0  0  0  0  0  0  0
    8.3106  -14.2805   13.6330 N   0  0  0  0  0  0  0  0  0  0  0  0
    7.6919  -15.0598   14.6783 C   0  0  0  0  0  0  0  0  0  0  0  0
    8.4123  -16.3804   14.8905 C   0  0  0  0  0  0  0  0  0  0  0  0
    8.8845  -16.5042   16.3100 C   0  0  0  0  0  0  0  0  0  0  0  0
    9.8151  -15.3538   16.7282 C   0  0  2  0  0  0  0  0  0  0  0  0
   11.1553  -15.6554   16.1847 N   0  0  0  0  0  0  0  0  0  0  0  0
    9.9701  -15.3296   18.2206 C   0  0  0  0  0  0  0  0  0  0  0  0
   10.6437  -16.3193   18.6520 O   0  0  0  0  0  0  0  0  0  0  0  0
    7.9610  -12.8761   11.4913 N   0  0  0  0  0  0  0  0  0  0  0  0
    9.4275  -14.3209   19.0253 C   0  0  0  0  0  0  0  0  0  0  0  0
    9.2098  -12.9451   18.5536 C   0  0  0  0  0  0  0  0  0  0  0  0
    7.8275  -12.6718   19.0888 C   0  0  0  0  0  0  0  0  0  0  0  0
    7.6011  -13.6702   20.2027 C   0  0  2  0  0  0  0  0  0  0  0  0
    9.0229  -14.2621   20.3720 C   0  0  0  0  0  0  0  0  0  0  0  0
    8.9837  -15.4560   21.1930 O   0  0  0  0  0  0  0  0  0  0  0  0
    8.1063  -16.3138   21.2633 N   0  0  0  0  0  0  0  0  0  0  0  0
   10.1250  -15.6759   22.0468 C   0  0  1  0  0  0  0  0  0  0  0  0
   10.2299  -16.8571   22.8946 C   0  0  0  0  0  0  0  0  0  0  0  0
   11.1930  -17.8442   22.3256 C   0  0  0  0  0  0  0  0  0  0  0  0
   10.6576  -18.6361   21.2007 C   0  0  0  0  0  0  0  0  0  0  0  0
    9.3691  -18.5219   20.6466 N   0  0  0  0  0  0  0  0  0  0  0  0
    9.2057  -19.3740   19.6526 C   0  0  0  0  0  0  0  0  0  0  0  0
   10.3805  -20.0513   19.5469 N   0  0  0  0  0  0  0  0  0  0  0  0
   11.2361  -19.6067   20.4696 C   0  0  0  0  0  0  0  0  0  0  0  0
   10.7543  -16.3603   24.1824 O   0  0  0  0  0  0  0  0  0  0  0  0
   11.1186  -15.0373   24.3199 O   0  0  0  0  0  0  0  0  0  0  0  0
  1  2  1  0
  2  3  2  0
  4  5  1  0
  4  2  1  0
  6  5  1  0
  7  6  1  0
  8  7  1  0
  8  9  1  6
 10 12  1  0
 10  8  1  0
 11 10  2  0
 12 16  1  0
 13 14  1  0
 13 12  1  0
 14 15  1  0
 15 16  1  0
 16 17  1  6
 17 18  2  0
 19 20  1  0
 19 17  1  0
 20 27  1  0
 20 21  1  1
 22 21  1  0
 23 22  2  0
 24 25  1  0
 24 23  1  0
 25 26  2  0
 26 22  1  0
 27 29  2  0
 27 28  1  0
M  END
$$$$
