RPH.pdb
     RDKit          3D

 29 30  0  0  1  0  0  0  0  0999 V2000
    5.9924  -20.7401   18.8318 N   0  0  0  0  0  0  0  0  0  0  0  0
    5.4358  -20.1572   17.6418 C   0  0  0  0  0  0  0  0  0  0  0  0
    4.9959  -20.9453   16.7462 N   0  0  0  0  0  0  0  0  0  0  0  0
    5.3755  -18.7507   17.4648 N   0  0  0  0  0  0  0  0  0  0  0  0
    6.0767  -17.9015   18.3974 C   0  0  0  0  0  0  0  0  0  0  0  0
    7.4433  -18.4655   18.7472 C   0  0  0  0  0  0  0  0  0  0  0  0
    8.4609  -18.0645   17.7190 C   0  0  0  0  0  0  0  0  0  0  0  0
    8.8849  -16.5921   17.8467 C   0  0  2  0  0  0  0  0  0  0  0  0
   10.1542  -16.4364   17.1070 N   0  0  0  0  0  0  0  0  0  0  0  0
    9.1975  -16.2654   19.2776 C   0  0  0  0  0  0  0  0  0  0  0  0
    9.7155  -17.2500   19.8953 O   0  0  0  0  0  0  0  0  0  0  0  0
    4.6256  -20.6220   15.8462 N   0  0  0  0  0  0  0  0  0  0  0  0
    8.9406  -15.0120   19.8452 C   0  0  0  0  0  0  0  0  0  0  0  0
    8.8445  -13.7754   19.0550 C   0  0  0  0  0  0  0  0  0  0  0  0
    7.6203  -13.1393   19.6623 C   0  0  0  0  0  0  0  0  0  0  0  0
    7.4406  -13.7814   21.0203 C   0  0  2  0  0  0  0  0  0  0  0  0
    8.7734  -14.5576   21.1667 C   0  0  0  0  0  0  0  0  0  0  0  0
    8.7013  -15.4904   22.2738 O   0  0  0  0  0  0  0  0  0  0  0  0
    7.7933  -16.2634   22.5716 N   0  0  0  0  0  0  0  0  0  0  0  0
    9.8459  -15.5233   23.1507 C   0  0  1  0  0  0  0  0  0  0  0  0
    9.8864  -16.3879   24.3236 C   0  0  0  0  0  0  0  0  0  0  0  0
   11.2836  -16.8094   24.6335 C   0  0  0  0  0  0  0  0  0  0  0  0
   11.8944  -17.6843   23.6135 C   0  0  0  0  0  0  0  0  0  0  0  0
   11.2635  -18.1692   22.4528 N   0  0  0  0  0  0  0  0  0  0  0  0
   12.0848  -18.9259   21.7503 C   0  0  0  0  0  0  0  0  0  0  0  0
   13.2563  -18.9438   22.4413 N   0  0  0  0  0  0  0  0  0  0  0  0
   13.1339  -18.2043   23.5456 C   0  0  0  0  0  0  0  0  0  0  0  0
    9.3777  -15.5556   25.4321 O   0  0  0  0  0  0  0  0  0  0  0  0
    9.1403  -16.1166   26.6694 O   0  0  0  0  0  0  0  0  0  0  0  0
  1  2  1  0
  2  3  2  0
  4  5  1  0
  4  2  1  0
  6  5  1  0
  7  6  1  0
  8  7  1  0
  8  9  1  6
 10 12  1  0
 10  8  1  0
 11 10  2  0
 12 16  1  0
 13 14  1  0
 13 12  1  0
 14 15  1  0
 15 16  1  0
 16 17  1  1
 17 18  2  0
 19 20  1  0
 19 17  1  0
 20 27  1  0
 20 21  1  1
 22 21  1  0
 23 22  2  0
 24 25  1  0
 24 23  1  0
 25 26  2  0
 26 22  1  0
 27 29  2  0
 27 28  1  0
M  END
$$$$
