RPH.pdb
     RDKit          3D

 29 30  0  0  1  0  0  0  0  0999 V2000
    9.1185  -22.5001   20.0994 N   0  0  0  0  0  0  0  0  0  0  0  0
    9.6534  -21.9325   21.3065 C   0  0  0  0  0  0  0  0  0  0  0  0
   10.3970  -22.6692   22.0285 N   0  0  0  0  0  0  0  0  0  0  0  0
    9.3664  -20.5961   21.6868 N   0  0  0  0  0  0  0  0  0  0  0  0
    8.5741  -19.7761   20.8022 C   0  0  0  0  0  0  0  0  0  0  0  0
    9.4475  -18.9786   19.8488 C   0  0  0  0  0  0  0  0  0  0  0  0
    8.6184  -18.0127   19.0531 C   0  0  0  0  0  0  0  0  0  0  0  0
    9.3769  -16.7189   18.7139 C   0  0  2  0  0  0  0  0  0  0  0  0
   10.7273  -17.1094   18.2599 N   0  0  0  0  0  0  0  0  0  0  0  0
    9.5789  -15.8970   19.9532 C   0  0  0  0  0  0  0  0  0  0  0  0
   10.5159  -16.3502   20.6853 O   0  0  0  0  0  0  0  0  0  0  0  0
   10.9138  -22.3194   22.8423 N   0  0  0  0  0  0  0  0  0  0  0  0
    8.8120  -14.7637   20.2476 C   0  0  0  0  0  0  0  0  0  0  0  0
    8.4043  -13.7819   19.2313 C   0  0  0  0  0  0  0  0  0  0  0  0
    6.9576  -13.5710   19.5979 C   0  0  0  0  0  0  0  0  0  0  0  0
    6.8143  -14.0298   21.0323 C   0  0  2  0  0  0  0  0  0  0  0  0
    8.2972  -14.2192   21.4389 C   0  0  0  0  0  0  0  0  0  0  0  0
    8.3941  -14.9402   22.6927 O   0  0  0  0  0  0  0  0  0  0  0  0
    7.9837  -16.0656   22.9675 N   0  0  0  0  0  0  0  0  0  0  0  0
    9.0612  -14.2515   23.7700 C   0  0  2  0  0  0  0  0  0  0  0  0
    9.1963  -14.8494   25.0926 C   0  0  0  0  0  0  0  0  0  0  0  0
    9.9420  -13.9471   26.0176 C   0  0  0  0  0  0  0  0  0  0  0  0
   10.0675  -14.4599   27.3961 C   0  0  0  0  0  0  0  0  0  0  0  0
   10.0178  -15.8115   27.7850 N   0  0  0  0  0  0  0  0  0  0  0  0
   10.1625  -15.9325   29.0908 C   0  0  0  0  0  0  0  0  0  0  0  0
   10.3077  -14.6668   29.5674 N   0  0  0  0  0  0  0  0  0  0  0  0
   10.2500  -13.7996   28.5545 C   0  0  0  0  0  0  0  0  0  0  0  0
    7.8134  -15.0077   25.5856 O   0  0  0  0  0  0  0  0  0  0  0  0
    7.5142  -15.9837   26.5130 O   0  0  0  0  0  0  0  0  0  0  0  0
  1  2  1  0
  2  3  2  0
  4  5  1  0
  4  2  1  0
  6  5  1  0
  7  6  1  0
  8  7  1  0
  8  9  1  1
 10 12  1  0
 10  8  1  0
 11 10  2  0
 12 16  1  0
 13 14  1  0
 13 12  1  0
 14 15  1  0
 15 16  1  0
 16 17  1  6
 17 18  2  0
 19 20  1  0
 19 17  1  0
 20 27  1  0
 20 21  1  1
 22 21  1  0
 23 22  2  0
 24 25  1  0
 24 23  1  0
 25 26  2  0
 26 22  1  0
 27 29  2  0
 27 28  1  0
M  END
$$$$
