WIQ.pdb
     RDKit          3D

 32 33  0  0  1  0  0  0  0  0999 V2000
    6.1896  -16.9942   25.1279 N   0  0  0  0  0  0  0  0  0  0  0  0
    7.0477  -15.9642   24.6018 C   0  0  1  0  0  0  0  0  0  0  0  0
    8.1997  -15.7638   25.5509 C   0  0  0  0  0  0  0  0  0  0  0  0
    7.8218  -14.8383   26.6209 C   0  0  0  0  0  0  0  0  0  0  0  0
    7.8510  -15.1719   27.9793 C   0  0  0  0  0  0  0  0  0  0  0  0
    7.4796  -14.0983   28.6978 N   0  0  0  0  0  0  0  0  0  0  0  0
    7.2029  -13.0648   27.9006 C   0  0  0  0  0  0  0  0  0  0  0  0
    6.7830  -11.7848   28.1807 C   0  0  0  0  0  0  0  0  0  0  0  0
    6.5555  -10.9010   27.1340 C   0  0  0  0  0  0  0  0  0  0  0  0
    6.7649  -11.3604   25.8605 C   0  0  0  0  0  0  0  0  0  0  0  0
    7.1909  -12.6583   25.5760 C   0  0  0  0  0  0  0  0  0  0  0  0
    7.4156  -13.5273   26.6092 C   0  0  0  0  0  0  0  0  0  0  0  0
    7.5165  -16.2888   23.2267 C   0  0  0  0  0  0  0  0  0  0  0  0
    7.6450  -17.4840   22.8781 O   0  0  0  0  0  0  0  0  0  0  0  0
    7.4084  -12.1774   19.9869 C   0  0  0  0  0  0  0  0  0  0  0  0
    7.1939  -13.6526   20.0656 C   0  0  0  0  0  0  0  0  0  0  0  0
    8.5111  -14.3754   20.1015 C   0  0  2  0  0  0  0  0  0  0  0  0
    8.9934  -14.7249   18.7318 C   0  0  0  0  0  0  0  0  0  0  0  0
    8.4389  -15.6063   21.0070 C   0  0  2  0  0  0  0  0  0  0  0  0
    7.8316  -15.2841   22.2727 N   0  0  0  0  0  0  0  0  0  0  0  0
    9.7857  -16.2128   21.1703 C   0  0  0  0  0  0  0  0  0  0  0  0
   10.5873  -15.7126   22.0016 O   0  0  0  0  0  0  0  0  0  0  0  0
   12.1000  -20.3587   23.5837 N   0  0  0  0  0  0  0  0  0  0  0  0
   12.8920  -20.6877   22.4628 C   0  0  0  0  0  0  0  0  0  0  0  0
   13.9050  -21.4459   22.6693 O   0  0  0  0  0  0  0  0  0  0  0  0
   12.5869  -20.2058   21.1210 C   0  0  0  0  0  0  0  0  0  0  0  0
   11.3458  -19.4071   20.9465 C   0  0  0  0  0  0  0  0  0  0  0  0
   11.5567  -17.9702   20.6637 C   0  0  2  0  0  0  0  0  0  0  0  0
   10.2216  -17.3376   20.4325 N   0  0  0  0  0  0  0  0  0  0  0  0
   12.4656  -17.5690   19.5974 C   0  0  0  0  0  0  0  0  0  0  0  0
   11.9459  -17.4320   18.2973 O   0  0  0  0  0  0  0  0  0  0  0  0
   13.6825  -17.3283   19.7134 O   0  0  0  0  0  0  0  0  0  0  0  0
  2 13  1  0
  2  1  1  1
  3  2  1  0
  4  5  2  0
  4  3  1  0
  6  5  1  0
  7 12  2  0
  7  6  1  0
  8  7  1  0
  9 10  1  0
  9  8  2  0
 10 11  2  0
 11 12  1  0
 12  4  1  0
 13 14  2  0
 15 16  1  0
 17 19  1  0
 17 16  1  0
 17 18  1  6
 19 20  1  1
 20 13  1  0
 21 22  2  0
 21 19  1  0
 23 24  1  0
 24 25  2  0
 24 26  1  0
 26 27  1  0
 28 27  1  6
 28 30  1  0
 28 29  1  0
 29 21  1  0
 30 31  1  0
 32 30  2  0
M  END
$$$$
