WIQ.pdb
     RDKit          3D

 32 33  0  0  1  0  0  0  0  0999 V2000
    7.4066  -14.2546   20.9417 N   0  0  0  0  0  0  0  0  0  0  0  0
    7.8255  -15.3615   21.7622 C   0  0  1  0  0  0  0  0  0  0  0  0
    8.6901  -16.2760   20.9350 C   0  0  0  0  0  0  0  0  0  0  0  0
    7.8945  -16.9158   19.8854 C   0  0  0  0  0  0  0  0  0  0  0  0
    7.8318  -16.4487   18.5681 C   0  0  0  0  0  0  0  0  0  0  0  0
    7.0465  -17.2722   17.8526 N   0  0  0  0  0  0  0  0  0  0  0  0
    6.5788  -18.2636   18.6132 C   0  0  0  0  0  0  0  0  0  0  0  0
    5.7462  -19.3200   18.3229 C   0  0  0  0  0  0  0  0  0  0  0  0
    5.4070  -20.2134   19.3304 C   0  0  0  0  0  0  0  0  0  0  0  0
    5.9283  -19.9894   20.5773 C   0  0  0  0  0  0  0  0  0  0  0  0
    6.7728  -18.9185   20.8721 C   0  0  0  0  0  0  0  0  0  0  0  0
    7.1068  -18.0398   19.8773 C   0  0  0  0  0  0  0  0  0  0  0  0
    8.5287  -14.8999   22.9904 C   0  0  0  0  0  0  0  0  0  0  0  0
    9.7515  -14.6363   22.9464 O   0  0  0  0  0  0  0  0  0  0  0  0
    6.0151  -11.7099   26.0425 C   0  0  0  0  0  0  0  0  0  0  0  0
    7.3067  -12.2356   25.5097 C   0  0  0  0  0  0  0  0  0  0  0  0
    7.7560  -13.4310   26.3021 C   0  0  2  0  0  0  0  0  0  0  0  0
    8.4944  -13.0353   27.5387 C   0  0  0  0  0  0  0  0  0  0  0  0
    8.5759  -14.3889   25.4359 C   0  0  2  0  0  0  0  0  0  0  0  0
    7.8625  -14.7420   24.2354 N   0  0  0  0  0  0  0  0  0  0  0  0
    8.9790  -15.5851   26.2201 C   0  0  0  0  0  0  0  0  0  0  0  0
    8.0927  -16.3843   26.6195 O   0  0  0  0  0  0  0  0  0  0  0  0
   14.3941  -18.5933   25.3497 N   0  0  0  0  0  0  0  0  0  0  0  0
   13.3178  -18.0998   24.5818 C   0  0  0  0  0  0  0  0  0  0  0  0
   13.4653  -18.0974   23.3083 O   0  0  0  0  0  0  0  0  0  0  0  0
   12.0820  -17.6172   25.1866 C   0  0  0  0  0  0  0  0  0  0  0  0
   12.0087  -17.5976   26.6709 C   0  0  0  0  0  0  0  0  0  0  0  0
   10.7149  -17.1489   27.2312 C   0  0  2  0  0  0  0  0  0  0  0  0
   10.3233  -15.8788   26.5461 N   0  0  0  0  0  0  0  0  0  0  0  0
   10.5713  -16.9778   28.6714 C   0  0  0  0  0  0  0  0  0  0  0  0
   10.6628  -18.1190   29.4889 O   0  0  0  0  0  0  0  0  0  0  0  0
   10.3710  -15.9053   29.2732 O   0  0  0  0  0  0  0  0  0  0  0  0
  2 13  1  0
  2  1  1  6
  3  2  1  0
  4  5  2  0
  4  3  1  0
  6  5  1  0
  7 12  2  0
  7  6  1  0
  8  7  1  0
  9 10  1  0
  9  8  2  0
 10 11  2  0
 11 12  1  0
 12  4  1  0
 13 14  2  0
 15 16  1  0
 17 19  1  0
 17 16  1  0
 17 18  1  1
 19 20  1  6
 20 13  1  0
 21 22  2  0
 21 19  1  0
 23 24  1  0
 24 25  2  0
 24 26  1  0
 26 27  1  0
 28 27  1  1
 28 30  1  0
 28 29  1  0
 29 21  1  0
 30 31  1  0
 32 30  2  0
M  END
$$$$
