WIQ.pdb
     RDKit          3D

 32 33  0  0  1  0  0  0  0  0999 V2000
    6.7238  -16.9260   24.6446 N   0  0  0  0  0  0  0  0  0  0  0  0
    7.4367  -15.9737   23.8328 C   0  0  1  0  0  0  0  0  0  0  0  0
    8.6281  -15.4750   24.6073 C   0  0  0  0  0  0  0  0  0  0  0  0
    8.1905  -14.7443   25.7984 C   0  0  0  0  0  0  0  0  0  0  0  0
    8.2142  -15.2832   27.0893 C   0  0  0  0  0  0  0  0  0  0  0  0
    7.7817  -14.3515   27.9564 N   0  0  0  0  0  0  0  0  0  0  0  0
    7.4691  -13.2200   27.3223 C   0  0  0  0  0  0  0  0  0  0  0  0
    6.9853  -12.0187   27.7869 C   0  0  0  0  0  0  0  0  0  0  0  0
    6.7328  -10.9940   26.8843 C   0  0  0  0  0  0  0  0  0  0  0  0
    6.9834  -11.2404   25.5603 C   0  0  0  0  0  0  0  0  0  0  0  0
    7.4743  -12.4584   25.0886 C   0  0  0  0  0  0  0  0  0  0  0  0
    7.7235  -13.4665   25.9801 C   0  0  0  0  0  0  0  0  0  0  0  0
    7.8359  -16.5580   22.5231 C   0  0  0  0  0  0  0  0  0  0  0  0
    8.5828  -17.5618   22.4904 O   0  0  0  0  0  0  0  0  0  0  0  0
    7.3084  -11.9184   20.3684 C   0  0  0  0  0  0  0  0  0  0  0  0
    7.1486  -13.4023   20.3934 C   0  0  0  0  0  0  0  0  0  0  0  0
    8.4833  -14.0784   20.2503 C   0  0  2  0  0  0  0  0  0  0  0  0
    9.2184  -13.6108   19.0371 C   0  0  0  0  0  0  0  0  0  0  0  0
    8.3338  -15.6008   20.2694 C   0  0  2  0  0  0  0  0  0  0  0  0
    7.3998  -16.0174   21.2836 N   0  0  0  0  0  0  0  0  0  0  0  0
    9.6600  -16.2525   20.4276 C   0  0  0  0  0  0  0  0  0  0  0  0
    9.9724  -17.2016   19.6624 O   0  0  0  0  0  0  0  0  0  0  0  0
   13.3712  -15.2537   17.8097 N   0  0  0  0  0  0  0  0  0  0  0  0
   13.7378  -14.6213   19.0169 C   0  0  0  0  0  0  0  0  0  0  0  0
   14.9587  -14.2463   19.1292 O   0  0  0  0  0  0  0  0  0  0  0  0
   12.7871  -14.3870   20.0972 C   0  0  0  0  0  0  0  0  0  0  0  0
   12.9255  -15.2168   21.3224 C   0  0  0  0  0  0  0  0  0  0  0  0
   12.0071  -16.3738   21.4060 C   0  0  2  0  0  0  0  0  0  0  0  0
   10.6035  -15.8585   21.4044 N   0  0  0  0  0  0  0  0  0  0  0  0
   12.1589  -17.3408   22.4858 C   0  0  0  0  0  0  0  0  0  0  0  0
   13.3765  -18.0382   22.5873 O   0  0  0  0  0  0  0  0  0  0  0  0
   11.3077  -17.6251   23.3500 O   0  0  0  0  0  0  0  0  0  0  0  0
  2 13  1  0
  2  1  1  1
  3  2  1  0
  4  5  2  0
  4  3  1  0
  6  5  1  0
  7 12  2  0
  7  6  1  0
  8  7  1  0
  9 10  1  0
  9  8  2  0
 10 11  2  0
 11 12  1  0
 12  4  1  0
 13 14  2  0
 15 16  1  0
 17 19  1  0
 17 16  1  0
 17 18  1  6
 19 20  1  1
 20 13  1  0
 21 22  2  0
 21 19  1  0
 23 24  1  0
 24 25  2  0
 24 26  1  0
 26 27  1  0
 28 27  1  1
 28 30  1  0
 28 29  1  0
 29 21  1  0
 30 31  1  0
 32 30  2  0
M  END
$$$$
