WIQ.pdb
     RDKit          3D

 32 33  0  0  1  0  0  0  0  0999 V2000
    6.6469  -18.4031   24.6809 N   0  0  0  0  0  0  0  0  0  0  0  0
    6.8983  -17.0044   24.4473 C   0  0  1  0  0  0  0  0  0  0  0  0
    7.5737  -16.4255   25.6625 C   0  0  0  0  0  0  0  0  0  0  0  0
    6.8276  -15.2657   26.1546 C   0  0  0  0  0  0  0  0  0  0  0  0
    5.4886  -15.3202   26.5566 C   0  0  0  0  0  0  0  0  0  0  0  0
    5.1135  -14.1018   26.9826 N   0  0  0  0  0  0  0  0  0  0  0  0
    6.1223  -13.2336   26.8893 C   0  0  0  0  0  0  0  0  0  0  0  0
    6.2036  -11.8946   27.1953 C   0  0  0  0  0  0  0  0  0  0  0  0
    7.3996  -11.2215   26.9834 C   0  0  0  0  0  0  0  0  0  0  0  0
    8.4485  -11.9396   26.4730 C   0  0  0  0  0  0  0  0  0  0  0  0
    8.3667  -13.2976   26.1627 C   0  0  0  0  0  0  0  0  0  0  0  0
    7.1873  -13.9593   26.3734 C   0  0  0  0  0  0  0  0  0  0  0  0
    7.7038  -16.7894   23.2140 C   0  0  0  0  0  0  0  0  0  0  0  0
    8.2432  -17.7646   22.6442 O   0  0  0  0  0  0  0  0  0  0  0  0
    7.8737  -12.5815   18.6951 C   0  0  0  0  0  0  0  0  0  0  0  0
    8.3705  -13.8633   19.2769 C   0  0  0  0  0  0  0  0  0  0  0  0
    7.8393  -14.0502   20.6704 C   0  0  2  0  0  0  0  0  0  0  0  0
    8.1041  -12.8599   21.5328 C   0  0  0  0  0  0  0  0  0  0  0  0
    8.3817  -15.3355   21.2982 C   0  0  2  0  0  0  0  0  0  0  0  0
    7.8928  -15.5022   22.6428 N   0  0  0  0  0  0  0  0  0  0  0  0
    9.8662  -15.3601   21.2351 C   0  0  0  0  0  0  0  0  0  0  0  0
   10.4345  -15.2630   20.1164 O   0  0  0  0  0  0  0  0  0  0  0  0
   10.6811  -20.6009   22.5766 N   0  0  0  0  0  0  0  0  0  0  0  0
   12.0356  -20.2230   22.4572 C   0  0  0  0  0  0  0  0  0  0  0  0
   12.8990  -21.1684   22.3906 O   0  0  0  0  0  0  0  0  0  0  0  0
   12.4565  -18.8282   22.4020 C   0  0  0  0  0  0  0  0  0  0  0  0
   11.3955  -17.7899   22.4728 C   0  0  0  0  0  0  0  0  0  0  0  0
   11.8770  -16.3924   22.4064 C   0  0  2  0  0  0  0  0  0  0  0  0
   10.6867  -15.4878   22.3796 N   0  0  0  0  0  0  0  0  0  0  0  0
   12.8014  -15.9956   21.3519 C   0  0  0  0  0  0  0  0  0  0  0  0
   12.3201  -15.9429   20.0310 O   0  0  0  0  0  0  0  0  0  0  0  0
   14.0010  -15.6907   21.4950 O   0  0  0  0  0  0  0  0  0  0  0  0
  2 13  1  0
  2  1  1  1
  3  2  1  0
  4  5  2  0
  4  3  1  0
  6  5  1  0
  7 12  2  0
  7  6  1  0
  8  7  1  0
  9 10  1  0
  9  8  2  0
 10 11  2  0
 11 12  1  0
 12  4  1  0
 13 14  2  0
 15 16  1  0
 17 19  1  0
 17 16  1  0
 17 18  1  1
 19 20  1  1
 20 13  1  0
 21 22  2  0
 21 19  1  0
 23 24  1  0
 24 25  2  0
 24 26  1  0
 26 27  1  0
 28 27  1  6
 28 30  1  0
 28 29  1  0
 29 21  1  0
 30 31  1  0
 32 30  2  0
M  END
$$$$
