WIQ.pdb
     RDKit          3D

 32 33  0  0  1  0  0  0  0  0999 V2000
    8.8436  -16.6888   25.0899 N   0  0  0  0  0  0  0  0  0  0  0  0
    7.4898  -16.8971   24.6451 C   0  0  1  0  0  0  0  0  0  0  0  0
    6.5559  -16.1929   25.5939 C   0  0  0  0  0  0  0  0  0  0  0  0
    7.2691  -15.1424   26.3232 C   0  0  0  0  0  0  0  0  0  0  0  0
    8.3914  -15.3810   27.1238 C   0  0  0  0  0  0  0  0  0  0  0  0
    8.8251  -14.2107   27.6229 N   0  0  0  0  0  0  0  0  0  0  0  0
    8.0590  -13.2017   27.2041 C   0  0  0  0  0  0  0  0  0  0  0  0
    8.1130  -11.8504   27.4577 C   0  0  0  0  0  0  0  0  0  0  0  0
    7.1618  -11.0146   26.8877 C   0  0  0  0  0  0  0  0  0  0  0  0
    6.2073  -11.5913   26.0922 C   0  0  0  0  0  0  0  0  0  0  0  0
    6.1522  -12.9615   25.8346 C   0  0  0  0  0  0  0  0  0  0  0  0
    7.0914  -13.7834   26.3964 C   0  0  0  0  0  0  0  0  0  0  0  0
    7.2963  -16.4410   23.2413 C   0  0  0  0  0  0  0  0  0  0  0  0
    6.1828  -16.5835   22.6878 O   0  0  0  0  0  0  0  0  0  0  0  0
    8.0928  -12.1077   19.3181 C   0  0  0  0  0  0  0  0  0  0  0  0
    8.0156  -13.5898   19.4779 C   0  0  0  0  0  0  0  0  0  0  0  0
    8.3734  -13.9878   20.8823 C   0  0  2  0  0  0  0  0  0  0  0  0
    9.7597  -13.5670   21.2455 C   0  0  0  0  0  0  0  0  0  0  0  0
    8.1620  -15.4872   21.1003 C   0  0  2  0  0  0  0  0  0  0  0  0
    8.3385  -15.8397   22.4856 N   0  0  0  0  0  0  0  0  0  0  0  0
    9.0492  -16.2740   20.2047 C   0  0  0  0  0  0  0  0  0  0  0  0
    9.1019  -15.9816   18.9817 O   0  0  0  0  0  0  0  0  0  0  0  0
   12.8638  -13.6940   18.5988 N   0  0  0  0  0  0  0  0  0  0  0  0
   13.5900  -14.9040   18.5866 C   0  0  0  0  0  0  0  0  0  0  0  0
   14.6720  -14.9256   17.8993 O   0  0  0  0  0  0  0  0  0  0  0  0
   13.1535  -16.0856   19.3209 C   0  0  0  0  0  0  0  0  0  0  0  0
   11.7060  -16.1977   19.6387 C   0  0  0  0  0  0  0  0  0  0  0  0
   11.3191  -17.4115   20.3912 C   0  0  2  0  0  0  0  0  0  0  0  0
    9.8493  -17.3482   20.6582 N   0  0  0  0  0  0  0  0  0  0  0  0
   12.0142  -17.7482   21.6271 C   0  0  0  0  0  0  0  0  0  0  0  0
   13.2764  -17.1715   21.8583 O   0  0  0  0  0  0  0  0  0  0  0  0
   11.6036  -18.5098   22.5236 O   0  0  0  0  0  0  0  0  0  0  0  0
  2 13  1  0
  2  1  1  1
  3  2  1  0
  4  5  2  0
  4  3  1  0
  6  5  1  0
  7 12  2  0
  7  6  1  0
  8  7  1  0
  9 10  1  0
  9  8  2  0
 10 11  2  0
 11 12  1  0
 12  4  1  0
 13 14  2  0
 15 16  1  0
 17 19  1  0
 17 16  1  0
 17 18  1  6
 19 20  1  1
 20 13  1  0
 21 22  2  0
 21 19  1  0
 23 24  1  0
 24 25  2  0
 24 26  1  0
 26 27  1  0
 28 27  1  1
 28 30  1  0
 28 29  1  0
 29 21  1  0
 30 31  1  0
 32 30  2  0
M  END
$$$$
