WIQ.pdb
     RDKit          3D

 32 33  0  0  1  0  0  0  0  0999 V2000
    6.4215  -17.4965   25.4903 N   0  0  0  0  0  0  0  0  0  0  0  0
    7.1777  -16.3931   24.9566 C   0  0  1  0  0  0  0  0  0  0  0  0
    8.4763  -16.2874   25.7119 C   0  0  0  0  0  0  0  0  0  0  0  0
    8.4519  -15.1272   26.6050 C   0  0  0  0  0  0  0  0  0  0  0  0
    9.0455  -15.1128   27.8718 C   0  0  0  0  0  0  0  0  0  0  0  0
    8.8739  -13.8964   28.4176 N   0  0  0  0  0  0  0  0  0  0  0  0
    8.1996  -13.0949   27.5910 C   0  0  0  0  0  0  0  0  0  0  0  0
    7.7901  -11.7878   27.7215 C   0  0  0  0  0  0  0  0  0  0  0  0
    7.0791  -11.1930   26.6876 C   0  0  0  0  0  0  0  0  0  0  0  0
    6.8206  -11.9532   25.5777 C   0  0  0  0  0  0  0  0  0  0  0  0
    7.2357  -13.2786   25.4447 C   0  0  0  0  0  0  0  0  0  0  0  0
    7.9375  -13.8625   26.4645 C   0  0  0  0  0  0  0  0  0  0  0  0
    7.4021  -16.5380   23.4921 C   0  0  0  0  0  0  0  0  0  0  0  0
    7.2161  -17.6457   22.9398 O   0  0  0  0  0  0  0  0  0  0  0  0
    6.8499  -12.2212   20.2083 C   0  0  0  0  0  0  0  0  0  0  0  0
    6.7955  -13.6148   20.7406 C   0  0  0  0  0  0  0  0  0  0  0  0
    8.1101  -14.3116   20.5282 C   0  0  2  0  0  0  0  0  0  0  0  0
    8.4178  -14.4925   19.0779 C   0  0  0  0  0  0  0  0  0  0  0  0
    8.1580  -15.6394   21.2865 C   0  0  2  0  0  0  0  0  0  0  0  0
    7.8267  -15.4551   22.6761 N   0  0  0  0  0  0  0  0  0  0  0  0
    9.4801  -16.2940   21.1080 C   0  0  0  0  0  0  0  0  0  0  0  0
    9.7751  -16.7856   19.9877 O   0  0  0  0  0  0  0  0  0  0  0  0
   15.7306  -14.3456   21.5095 N   0  0  0  0  0  0  0  0  0  0  0  0
   15.2017  -15.2139   22.4884 C   0  0  0  0  0  0  0  0  0  0  0  0
   15.6257  -15.0634   23.6889 O   0  0  0  0  0  0  0  0  0  0  0  0
   14.2119  -16.2371   22.1737 C   0  0  0  0  0  0  0  0  0  0  0  0
   12.7820  -15.8321   22.1842 C   0  0  0  0  0  0  0  0  0  0  0  0
   11.8182  -16.9178   21.8988 C   0  0  2  0  0  0  0  0  0  0  0  0
   10.4386  -16.3954   22.1427 N   0  0  0  0  0  0  0  0  0  0  0  0
   11.9643  -18.2071   22.5624 C   0  0  0  0  0  0  0  0  0  0  0  0
   11.3475  -18.3841   23.8144 O   0  0  0  0  0  0  0  0  0  0  0  0
   12.5912  -19.1943   22.1325 O   0  0  0  0  0  0  0  0  0  0  0  0
  2 13  1  0
  2  1  1  1
  3  2  1  0
  4  5  2  0
  4  3  1  0
  6  5  1  0
  7 12  2  0
  7  6  1  0
  8  7  1  0
  9 10  1  0
  9  8  2  0
 10 11  2  0
 11 12  1  0
 12  4  1  0
 13 14  2  0
 15 16  1  0
 17 19  1  0
 17 16  1  0
 17 18  1  6
 19 20  1  1
 20 13  1  0
 21 22  2  0
 21 19  1  0
 23 24  1  0
 24 25  2  0
 24 26  1  0
 26 27  1  0
 28 27  1  1
 28 30  1  0
 28 29  1  0
 29 21  1  0
 30 31  1  0
 32 30  2  0
M  END
$$$$
