RSG.pdb
     RDKit          3D

 22 21  0  0  1  0  0  0  0  0999 V2000
    6.7756  -12.8562   16.8891 N   0  0  0  0  0  0  0  0  0  0  0  0
    7.7974  -13.7022   16.3377 C   0  0  0  0  0  0  0  0  0  0  0  0
    7.8254  -13.8877   15.0701 N   0  0  0  0  0  0  0  0  0  0  0  0
    8.7678  -14.3338   17.1402 N   0  0  0  0  0  0  0  0  0  0  0  0
    8.7429  -14.2605   18.5835 C   0  0  0  0  0  0  0  0  0  0  0  0
    7.3552  -14.4912   19.0654 C   0  0  0  0  0  0  0  0  0  0  0  0
    7.1987  -14.3426   20.5555 C   0  0  0  0  0  0  0  0  0  0  0  0
    8.3558  -14.9562   21.3157 C   0  0  2  0  0  0  0  0  0  0  0  0
    8.3376  -16.3665   21.0590 N   0  0  0  0  0  0  0  0  0  0  0  0
    8.0833  -14.7395   22.7517 C   0  0  0  0  0  0  0  0  0  0  0  0
    7.8899  -13.6046   23.2572 O   0  0  0  0  0  0  0  0  0  0  0  0
    8.5247  -14.5074   14.6150 O   0  0  0  0  0  0  0  0  0  0  0  0
    7.3157  -18.0425   24.9488 C   0  0  0  0  0  0  0  0  0  0  0  0
    6.8904  -16.8120   25.4688 C   0  0  1  0  0  0  0  0  0  0  0  0
    7.9354  -15.7696   25.0456 N   0  0  0  0  0  0  0  0  0  0  0  0
    8.0343  -15.8546   23.6137 C   0  0  0  0  0  0  0  0  0  0  0  0
    9.2165  -16.2042   25.6327 O   0  0  0  0  0  0  0  0  0  0  0  0
    9.3065  -16.3714   26.8736 N   0  0  0  0  0  0  0  0  0  0  0  0
   10.3827  -16.4503   24.8553 C   0  0  0  0  0  0  0  0  0  0  0  0
   11.5915  -16.8512   25.5244 C   0  0  0  0  0  0  0  0  0  0  0  0
   12.7006  -17.0304   24.5508 O   0  0  0  0  0  0  0  0  0  0  0  0
   13.0020  -16.0782   23.7935 O   0  0  0  0  0  0  0  0  0  0  0  0
  1  2  1  0
  2  3  2  0
  4  5  1  0
  4  2  1  0
  5  6  1  0
  6  7  1  0
  7  8  1  0
  8  9  1  1
  8 10  1  0
 10 15  1  0
 10 11  2  0
 12 13  1  0
 14 13  1  6
 14 16  1  0
 15 14  1  0
 16 18  1  0
 17 16  2  0
 18 19  1  0
 20 22  1  0
 20 19  1  0
 21 20  2  0
M  END
$$$$
