RSG.pdb
     RDKit          3D

 22 21  0  0  1  0  0  0  0  0999 V2000
    7.7027  -12.5819   19.3911 N   0  0  0  0  0  0  0  0  0  0  0  0
    7.9023  -13.5262   18.3270 C   0  0  0  0  0  0  0  0  0  0  0  0
    7.6263  -13.1697   17.1275 N   0  0  0  0  0  0  0  0  0  0  0  0
    8.3899  -14.8280   18.5556 N   0  0  0  0  0  0  0  0  0  0  0  0
    9.5489  -15.0847   19.3803 C   0  0  0  0  0  0  0  0  0  0  0  0
   10.5308  -13.9813   19.2086 C   0  0  0  0  0  0  0  0  0  0  0  0
   11.7575  -14.1225   20.0701 C   0  0  0  0  0  0  0  0  0  0  0  0
   12.9634  -14.5801   19.2767 C   0  0  2  0  0  0  0  0  0  0  0  0
   12.4913  -15.0284   17.9994 N   0  0  0  0  0  0  0  0  0  0  0  0
   13.5313  -15.7383   19.9973 C   0  0  0  0  0  0  0  0  0  0  0  0
   13.1445  -16.9218   19.8218 O   0  0  0  0  0  0  0  0  0  0  0  0
    7.7761  -13.7979   16.3132 O   0  0  0  0  0  0  0  0  0  0  0  0
   16.8514  -14.9099   21.8497 C   0  0  0  0  0  0  0  0  0  0  0  0
   16.6797  -16.2934   21.7013 C   0  0  1  0  0  0  0  0  0  0  0  0
   15.1670  -16.5553   21.7300 N   0  0  0  0  0  0  0  0  0  0  0  0
   14.5625  -15.5213   20.9346 C   0  0  0  0  0  0  0  0  0  0  0  0
   14.7420  -16.3807   23.1313 O   0  0  0  0  0  0  0  0  0  0  0  0
   14.6270  -15.2244   23.6064 N   0  0  0  0  0  0  0  0  0  0  0  0
   14.4482  -17.4728   23.9951 C   0  0  0  0  0  0  0  0  0  0  0  0
   14.0397  -17.1985   25.3469 C   0  0  0  0  0  0  0  0  0  0  0  0
   13.7674  -18.4608   26.0836 O   0  0  0  0  0  0  0  0  0  0  0  0
   13.8558  -19.5510   25.4714 O   0  0  0  0  0  0  0  0  0  0  0  0
  1  2  1  0
  2  3  2  0
  4  5  1  0
  4  2  1  0
  5  6  1  0
  6  7  1  0
  7  8  1  0
  8  9  1  6
  8 10  1  0
 10 15  1  0
 10 11  2  0
 12 13  1  0
 14 13  1  6
 14 16  1  0
 15 14  1  0
 16 18  1  0
 17 16  2  0
 18 19  1  0
 20 22  1  0
 20 19  1  0
 21 20  2  0
M  END
$$$$
