RSG.pdb
     RDKit          3D

 22 21  0  0  1  0  0  0  0  0999 V2000
    8.1816  -11.4782   20.2349 N   0  0  0  0  0  0  0  0  0  0  0  0
    8.7173  -12.5307   19.4168 C   0  0  0  0  0  0  0  0  0  0  0  0
    9.6365  -12.2457   18.5708 N   0  0  0  0  0  0  0  0  0  0  0  0
    8.2681  -13.8626   19.5120 N   0  0  0  0  0  0  0  0  0  0  0  0
    7.1545  -14.2439   20.3509 C   0  0  0  0  0  0  0  0  0  0  0  0
    7.3503  -15.6389   20.8269 C   0  0  0  0  0  0  0  0  0  0  0  0
    8.7290  -15.9061   21.3696 C   0  0  0  0  0  0  0  0  0  0  0  0
    8.8915  -17.3370   21.8378 C   0  0  2  0  0  0  0  0  0  0  0  0
    8.0004  -18.1466   21.0595 N   0  0  0  0  0  0  0  0  0  0  0  0
    8.4475  -17.3760   23.2466 C   0  0  0  0  0  0  0  0  0  0  0  0
    7.2634  -17.6175   23.5940 O   0  0  0  0  0  0  0  0  0  0  0  0
    9.9778  -12.9325   17.8694 O   0  0  0  0  0  0  0  0  0  0  0  0
   11.3468  -17.9404   25.8505 C   0  0  0  0  0  0  0  0  0  0  0  0
   10.0476  -18.3051   26.2307 C   0  0  1  0  0  0  0  0  0  0  0  0
    9.1063  -17.2276   25.6733 N   0  0  0  0  0  0  0  0  0  0  0  0
    9.3897  -17.1315   24.2670 C   0  0  0  0  0  0  0  0  0  0  0  0
    9.4962  -15.9609   26.3199 O   0  0  0  0  0  0  0  0  0  0  0  0
   10.4631  -15.3024   25.8644 N   0  0  0  0  0  0  0  0  0  0  0  0
    8.8239  -15.4305   27.4565 C   0  0  0  0  0  0  0  0  0  0  0  0
    9.3075  -14.2087   28.0419 C   0  0  0  0  0  0  0  0  0  0  0  0
   10.4763  -14.4706   28.9226 O   0  0  0  0  0  0  0  0  0  0  0  0
   10.9232  -13.5373   29.6300 O   0  0  0  0  0  0  0  0  0  0  0  0
  1  2  1  0
  2  3  2  0
  4  5  1  0
  4  2  1  0
  5  6  1  0
  6  7  1  0
  7  8  1  0
  8  9  1  6
  8 10  1  0
 10 15  1  0
 10 11  2  0
 12 13  1  0
 14 13  1  6
 14 16  1  0
 15 14  1  0
 16 18  1  0
 17 16  2  0
 18 19  1  0
 20 22  1  0
 20 19  1  0
 21 20  2  0
M  END
$$$$
