RSG.pdb
     RDKit          3D

 22 21  0  0  1  0  0  0  0  0999 V2000
    6.7524  -13.5242   18.8183 N   0  0  0  0  0  0  0  0  0  0  0  0
    7.9312  -13.4612   17.9996 C   0  0  0  0  0  0  0  0  0  0  0  0
    8.3588  -12.3135   17.6231 N   0  0  0  0  0  0  0  0  0  0  0  0
    8.6323  -14.6150   17.5970 N   0  0  0  0  0  0  0  0  0  0  0  0
    8.1440  -15.9485   17.8664 C   0  0  0  0  0  0  0  0  0  0  0  0
    7.8293  -16.0757   19.3141 C   0  0  0  0  0  0  0  0  0  0  0  0
    9.0137  -15.8437   20.2142 C   0  0  0  0  0  0  0  0  0  0  0  0
    9.1933  -16.9599   21.2216 C   0  0  2  0  0  0  0  0  0  0  0  0
    7.8878  -17.4462   21.5601 N   0  0  0  0  0  0  0  0  0  0  0  0
    9.7920  -16.3515   22.4277 C   0  0  0  0  0  0  0  0  0  0  0  0
   10.9295  -15.8157   22.4423 O   0  0  0  0  0  0  0  0  0  0  0  0
    9.1874  -12.2050   17.0052 O   0  0  0  0  0  0  0  0  0  0  0  0
    7.3190  -15.5576   25.3631 C   0  0  0  0  0  0  0  0  0  0  0  0
    8.5887  -14.9826   25.5137 C   0  0  1  0  0  0  0  0  0  0  0  0
    9.5953  -15.9727   24.9102 N   0  0  0  0  0  0  0  0  0  0  0  0
    9.0615  -16.3645   23.6339 C   0  0  0  0  0  0  0  0  0  0  0  0
    9.6035  -17.1497   25.7986 O   0  0  0  0  0  0  0  0  0  0  0  0
    8.5881  -17.8848   25.8657 N   0  0  0  0  0  0  0  0  0  0  0  0
   10.7220  -17.5077   26.6023 C   0  0  0  0  0  0  0  0  0  0  0  0
   10.6433  -18.6933   27.4133 C   0  0  0  0  0  0  0  0  0  0  0  0
   11.9424  -18.9625   28.0841 O   0  0  0  0  0  0  0  0  0  0  0  0
   12.9225  -18.2252   27.8251 O   0  0  0  0  0  0  0  0  0  0  0  0
  1  2  1  0
  2  3  2  0
  4  5  1  0
  4  2  1  0
  5  6  1  0
  6  7  1  0
  7  8  1  0
  8  9  1  1
  8 10  1  0
 10 15  1  0
 10 11  2  0
 12 13  1  0
 14 13  1  6
 14 16  1  0
 15 14  1  0
 16 18  1  0
 17 16  2  0
 18 19  1  0
 20 22  1  0
 20 19  1  0
 21 20  2  0
M  END
$$$$
