RSG.pdb
     RDKit          3D

 22 21  0  0  1  0  0  0  0  0999 V2000
    9.5337  -14.5478   17.3633 N   0  0  0  0  0  0  0  0  0  0  0  0
   10.0185  -13.5418   18.2671 C   0  0  0  0  0  0  0  0  0  0  0  0
   11.2443  -13.5861   18.6376 N   0  0  0  0  0  0  0  0  0  0  0  0
    9.1948  -12.5102   18.7593 N   0  0  0  0  0  0  0  0  0  0  0  0
    8.1071  -12.7621   19.6772 C   0  0  0  0  0  0  0  0  0  0  0  0
    8.3087  -14.0824   20.3309 C   0  0  0  0  0  0  0  0  0  0  0  0
    7.2296  -14.4411   21.3175 C   0  0  0  0  0  0  0  0  0  0  0  0
    7.4315  -15.8203   21.9091 C   0  0  2  0  0  0  0  0  0  0  0  0
    6.6014  -16.7283   21.1731 N   0  0  0  0  0  0  0  0  0  0  0  0
    6.9394  -15.7617   23.3011 C   0  0  0  0  0  0  0  0  0  0  0  0
    5.7605  -15.4493   23.6073 O   0  0  0  0  0  0  0  0  0  0  0  0
   11.6601  -12.8717   19.2677 O   0  0  0  0  0  0  0  0  0  0  0  0
    8.6019  -18.0540   26.0369 C   0  0  0  0  0  0  0  0  0  0  0  0
    7.3548  -17.4456   26.2374 C   0  0  1  0  0  0  0  0  0  0  0  0
    7.4878  -15.9962   25.7484 N   0  0  0  0  0  0  0  0  0  0  0  0
    7.8268  -16.0697   24.3531 C   0  0  0  0  0  0  0  0  0  0  0  0
    8.6283  -15.4143   26.4801 O   0  0  0  0  0  0  0  0  0  0  0  0
    9.7950  -15.5834   26.0486 N   0  0  0  0  0  0  0  0  0  0  0  0
    8.4785  -14.6549   27.6742 C   0  0  0  0  0  0  0  0  0  0  0  0
    9.6522  -14.1101   28.3026 C   0  0  0  0  0  0  0  0  0  0  0  0
   10.3608  -15.1513   29.0926 O   0  0  0  0  0  0  0  0  0  0  0  0
    9.9824  -16.3428   29.0021 O   0  0  0  0  0  0  0  0  0  0  0  0
  1  2  1  0
  2  3  2  0
  4  5  1  0
  4  2  1  0
  5  6  1  0
  6  7  1  0
  7  8  1  0
  8  9  1  6
  8 10  1  0
 10 15  1  0
 10 11  2  0
 12 13  1  0
 14 13  1  6
 14 16  1  0
 15 14  1  0
 16 18  1  0
 17 16  2  0
 18 19  1  0
 20 22  1  0
 20 19  1  0
 21 20  2  0
M  END
$$$$
