RSG.pdb
     RDKit          3D

 22 21  0  0  1  0  0  0  0  0999 V2000
    7.5191  -13.4537   19.6720 N   0  0  0  0  0  0  0  0  0  0  0  0
    7.8942  -13.6046   18.2934 C   0  0  0  0  0  0  0  0  0  0  0  0
    7.6250  -12.6564   17.4747 N   0  0  0  0  0  0  0  0  0  0  0  0
    8.5464  -14.7565   17.8111 N   0  0  0  0  0  0  0  0  0  0  0  0
    8.8385  -15.8904   18.6586 C   0  0  0  0  0  0  0  0  0  0  0  0
    9.6281  -15.4373   19.8342 C   0  0  0  0  0  0  0  0  0  0  0  0
   10.8708  -16.2512   20.0796 C   0  0  0  0  0  0  0  0  0  0  0  0
   10.6237  -17.3965   21.0389 C   0  0  2  0  0  0  0  0  0  0  0  0
    9.2090  -17.6256   21.0777 N   0  0  0  0  0  0  0  0  0  0  0  0
   11.0585  -16.9342   22.3733 C   0  0  0  0  0  0  0  0  0  0  0  0
   12.2223  -16.5279   22.6213 O   0  0  0  0  0  0  0  0  0  0  0  0
    7.8877  -12.6989   16.4700 O   0  0  0  0  0  0  0  0  0  0  0  0
    8.1600  -16.9241   25.2320 C   0  0  0  0  0  0  0  0  0  0  0  0
    9.2280  -16.0412   25.4449 C   0  0  1  0  0  0  0  0  0  0  0  0
   10.4675  -16.6874   24.8095 N   0  0  0  0  0  0  0  0  0  0  0  0
   10.1306  -16.9432   23.4354 C   0  0  0  0  0  0  0  0  0  0  0  0
   10.6601  -17.9786   25.4954 O   0  0  0  0  0  0  0  0  0  0  0  0
   10.6918  -19.0397   24.8252 N   0  0  0  0  0  0  0  0  0  0  0  0
   10.8157  -18.0930   26.9053 C   0  0  0  0  0  0  0  0  0  0  0  0
   11.8274  -18.9750   27.4230 C   0  0  0  0  0  0  0  0  0  0  0  0
   11.8731  -18.9138   28.9077 O   0  0  0  0  0  0  0  0  0  0  0  0
   11.0916  -18.1381   29.5067 O   0  0  0  0  0  0  0  0  0  0  0  0
  1  2  1  0
  2  3  2  0
  4  5  1  0
  4  2  1  0
  5  6  1  0
  6  7  1  0
  7  8  1  0
  8  9  1  1
  8 10  1  0
 10 15  1  0
 10 11  2  0
 12 13  1  0
 14 13  1  6
 14 16  1  0
 15 14  1  0
 16 18  1  0
 17 16  2  0
 18 19  1  0
 20 22  1  0
 20 19  1  0
 21 20  2  0
M  END
$$$$
