RSG.pdb
     RDKit          3D

 22 21  0  0  1  0  0  0  0  0999 V2000
    7.1216  -12.7727   16.4301 N   0  0  0  0  0  0  0  0  0  0  0  0
    7.7319  -14.0716   16.3639 C   0  0  0  0  0  0  0  0  0  0  0  0
    7.4395  -14.8399   15.3809 N   0  0  0  0  0  0  0  0  0  0  0  0
    8.6387  -14.5294   17.3401 N   0  0  0  0  0  0  0  0  0  0  0  0
    8.4869  -14.2153   18.7428 C   0  0  0  0  0  0  0  0  0  0  0  0
    7.6531  -15.2596   19.3949 C   0  0  0  0  0  0  0  0  0  0  0  0
    7.4742  -15.0548   20.8757 C   0  0  0  0  0  0  0  0  0  0  0  0
    8.5833  -14.2156   21.4747 C   0  0  2  0  0  0  0  0  0  0  0  0
    9.7899  -14.5326   20.7685 N   0  0  0  0  0  0  0  0  0  0  0  0
    8.7355  -14.6519   22.8782 C   0  0  0  0  0  0  0  0  0  0  0  0
    9.5803  -15.5051   23.2514 O   0  0  0  0  0  0  0  0  0  0  0  0
    7.7843  -15.8184   15.3194 O   0  0  0  0  0  0  0  0  0  0  0  0
    5.8232  -13.8461   25.6039 C   0  0  0  0  0  0  0  0  0  0  0  0
    7.0679  -13.3022   25.9506 C   0  0  1  0  0  0  0  0  0  0  0  0
    8.1345  -14.1784   25.2781 N   0  0  0  0  0  0  0  0  0  0  0  0
    7.8961  -14.0910   23.8629 C   0  0  0  0  0  0  0  0  0  0  0  0
    7.8713  -15.5619   25.7155 O   0  0  0  0  0  0  0  0  0  0  0  0
    6.9685  -16.2299   25.1545 N   0  0  0  0  0  0  0  0  0  0  0  0
    8.5986  -16.1973   26.7607 C   0  0  0  0  0  0  0  0  0  0  0  0
    8.3131  -17.5732   27.0685 C   0  0  0  0  0  0  0  0  0  0  0  0
    9.1778  -18.0578   28.1764 O   0  0  0  0  0  0  0  0  0  0  0  0
   10.0545  -17.2916   28.6406 O   0  0  0  0  0  0  0  0  0  0  0  0
  1  2  1  0
  2  3  2  0
  4  5  1  0
  4  2  1  0
  5  6  1  0
  6  7  1  0
  7  8  1  0
  8  9  1  6
  8 10  1  0
 10 15  1  0
 10 11  2  0
 12 13  1  0
 14 13  1  6
 14 16  1  0
 15 14  1  0
 16 18  1  0
 17 16  2  0
 18 19  1  0
 20 22  1  0
 20 19  1  0
 21 20  2  0
M  END
$$$$
