RSG.pdb
     RDKit          3D

 22 21  0  0  1  0  0  0  0  0999 V2000
    8.1234  -12.6291   17.7570 N   0  0  0  0  0  0  0  0  0  0  0  0
    7.6770  -13.8562   17.1579 C   0  0  0  0  0  0  0  0  0  0  0  0
    7.7648  -13.9882   15.8864 N   0  0  0  0  0  0  0  0  0  0  0  0
    7.1471  -14.9174   17.9181 N   0  0  0  0  0  0  0  0  0  0  0  0
    7.3207  -15.0031   19.3504 C   0  0  0  0  0  0  0  0  0  0  0  0
    8.1975  -16.1600   19.6729 C   0  0  0  0  0  0  0  0  0  0  0  0
    8.5250  -16.2823   21.1373 C   0  0  0  0  0  0  0  0  0  0  0  0
    9.6305  -15.3362   21.5566 C   0  0  2  0  0  0  0  0  0  0  0  0
   10.8326  -15.7653   20.9038 N   0  0  0  0  0  0  0  0  0  0  0  0
    9.8048  -15.5058   23.0141 C   0  0  0  0  0  0  0  0  0  0  0  0
   10.6728  -16.2581   23.5258 O   0  0  0  0  0  0  0  0  0  0  0  0
    7.4687  -14.8557   15.3965 O   0  0  0  0  0  0  0  0  0  0  0  0
    6.7801  -14.4946   25.7097 C   0  0  0  0  0  0  0  0  0  0  0  0
    8.0119  -13.8413   25.8555 C   0  0  1  0  0  0  0  0  0  0  0  0
    9.0856  -14.8012   25.3230 N   0  0  0  0  0  0  0  0  0  0  0  0
    8.9607  -14.7931   23.8907 C   0  0  0  0  0  0  0  0  0  0  0  0
    8.7264  -16.1425   25.8195 O   0  0  0  0  0  0  0  0  0  0  0  0
    7.8314  -16.8019   25.2364 N   0  0  0  0  0  0  0  0  0  0  0  0
    9.3504  -16.7455   26.9474 C   0  0  0  0  0  0  0  0  0  0  0  0
    9.0674  -18.1247   27.2427 C   0  0  0  0  0  0  0  0  0  0  0  0
    9.8141  -18.5715   28.4482 O   0  0  0  0  0  0  0  0  0  0  0  0
   10.6042  -17.7718   29.0027 O   0  0  0  0  0  0  0  0  0  0  0  0
  1  2  1  0
  2  3  2  0
  4  5  1  0
  4  2  1  0
  5  6  1  0
  6  7  1  0
  7  8  1  0
  8  9  1  6
  8 10  1  0
 10 15  1  0
 10 11  2  0
 12 13  1  0
 14 13  1  6
 14 16  1  0
 15 14  1  0
 16 18  1  0
 17 16  2  0
 18 19  1  0
 20 22  1  0
 20 19  1  0
 21 20  2  0
M  END
$$$$
