RSG.pdb
     RDKit          3D

 22 21  0  0  1  0  0  0  0  0999 V2000
    9.8933  -13.2947   20.3038 N   0  0  0  0  0  0  0  0  0  0  0  0
    8.9736  -12.6750   19.3906 C   0  0  0  0  0  0  0  0  0  0  0  0
    8.9664  -11.3971   19.2964 N   0  0  0  0  0  0  0  0  0  0  0  0
    8.0810  -13.4217   18.5964 N   0  0  0  0  0  0  0  0  0  0  0  0
    7.9742  -14.8595   18.6986 C   0  0  0  0  0  0  0  0  0  0  0  0
    7.4263  -15.2201   20.0330 C   0  0  0  0  0  0  0  0  0  0  0  0
    8.4298  -15.8777   20.9425 C   0  0  0  0  0  0  0  0  0  0  0  0
    7.8186  -17.0049   21.7481 C   0  0  2  0  0  0  0  0  0  0  0  0
    6.4199  -17.0453   21.4360 N   0  0  0  0  0  0  0  0  0  0  0  0
    7.9688  -16.6395   23.1719 C   0  0  0  0  0  0  0  0  0  0  0  0
    7.8922  -15.4585   23.5965 O   0  0  0  0  0  0  0  0  0  0  0  0
    8.3036  -10.8897   18.6771 O   0  0  0  0  0  0  0  0  0  0  0  0
    6.4004  -18.5612   25.8504 C   0  0  0  0  0  0  0  0  0  0  0  0
    7.0558  -17.3658   26.1773 C   0  0  1  0  0  0  0  0  0  0  0  0
    8.4408  -17.4278   25.5173 N   0  0  0  0  0  0  0  0  0  0  0  0
    8.2113  -17.6580   24.1167 C   0  0  0  0  0  0  0  0  0  0  0  0
    9.1182  -18.6088   26.0839 O   0  0  0  0  0  0  0  0  0  0  0  0
    9.2322  -19.6508   25.3932 N   0  0  0  0  0  0  0  0  0  0  0  0
    9.6622  -18.6352   27.3987 C   0  0  0  0  0  0  0  0  0  0  0  0
   10.9103  -19.3153   27.6202 C   0  0  0  0  0  0  0  0  0  0  0  0
   11.3177  -19.2217   29.0469 O   0  0  0  0  0  0  0  0  0  0  0  0
   10.5899  -18.5850   29.8445 O   0  0  0  0  0  0  0  0  0  0  0  0
  1  2  1  0
  2  3  2  0
  4  5  1  0
  4  2  1  0
  5  6  1  0
  6  7  1  0
  7  8  1  0
  8  9  1  6
  8 10  1  0
 10 15  1  0
 10 11  2  0
 12 13  1  0
 14 13  1  6
 14 16  1  0
 15 14  1  0
 16 18  1  0
 17 16  2  0
 18 19  1  0
 20 22  1  0
 20 19  1  0
 21 20  2  0
M  END
$$$$
