FPE.pdb
     RDKit          3D

 28 29  0  0  1  0  0  0  0  0999 V2000
    6.9907  -17.4137   26.8899 N   0  0  0  0  0  0  0  0  0  0  0  0
    6.6749  -16.5922   25.7864 C   0  0  1  0  0  0  0  0  0  0  0  0
    6.7309  -15.1378   26.2278 C   0  0  0  0  0  0  0  0  0  0  0  0
    7.9409  -14.8620   27.0063 C   0  0  0  0  0  0  0  0  0  0  0  0
    8.3535  -13.5310   27.1102 C   0  0  0  0  0  0  0  0  0  0  0  0
    9.4812  -13.2138   27.8300 C   0  0  0  0  0  0  0  0  0  0  0  0
   10.2255  -14.1868   28.4584 C   0  0  0  0  0  0  0  0  0  0  0  0
    9.8069  -15.5175   28.3482 C   0  0  0  0  0  0  0  0  0  0  0  0
    8.6839  -15.8332   27.6330 C   0  0  0  0  0  0  0  0  0  0  0  0
    7.4828  -16.7582   24.5728 C   0  0  0  0  0  0  0  0  0  0  0  0
    7.9698  -17.9261   24.3850 O   0  0  0  0  0  0  0  0  0  0  0  0
    7.7752  -15.7869   23.6072 N   0  0  0  0  0  0  0  0  0  0  0  0
    7.3907  -14.3953   23.6653 C   0  0  0  0  0  0  0  0  0  0  0  0
    7.9704  -13.7659   22.3816 C   0  0  0  0  0  0  0  0  0  0  0  0
    7.8714  -14.9643   21.4500 C   0  0  0  0  0  0  0  0  0  0  0  0
    8.5229  -16.0253   22.3745 C   0  0  1  0  0  0  0  0  0  0  0  0
    9.9498  -15.6885   22.5066 C   0  0  0  0  0  0  0  0  0  0  0  0
   10.3914  -14.7728   23.2348 O   0  0  0  0  0  0  0  0  0  0  0  0
   10.9110  -16.4462   21.7610 N   0  0  0  0  0  0  0  0  0  0  0  0
   12.3454  -16.2801   22.0240 C   0  0  1  0  0  0  0  0  0  0  0  0
   12.6030  -16.7451   23.4428 C   0  0  0  0  0  0  0  0  0  0  0  0
   11.9818  -18.1127   23.6035 C   0  0  0  0  0  0  0  0  0  0  0  0
   12.6920  -18.8021   24.7200 C   0  0  0  0  0  0  0  0  0  0  0  0
   12.7789  -18.1478   25.8104 O   0  0  0  0  0  0  0  0  0  0  0  0
   13.1067  -17.0564   21.0299 C   0  0  0  0  0  0  0  0  0  0  0  0
   13.6179  -16.4598   20.0462 O   0  0  0  0  0  0  0  0  0  0  0  0
   13.2288  -20.0582   24.6217 O   0  0  0  0  0  0  0  0  0  0  0  0
   13.3013  -18.4406   21.1020 O   0  0  0  0  0  0  0  0  0  0  0  0
  2 10  1  0
  2  1  1  1
  3  2  1  0
  4  3  1  0
  4  5  2  0
  6  5  1  0
  7  6  2  0
  8  9  2  0
  8  7  1  0
  9  4  1  0
 10 12  1  0
 11 10  2  0
 12 13  1  0
 12 16  1  0
 13 14  1  0
 14 15  1  0
 16 15  1  0
 17 19  1  0
 16 17  1  1
 18 17  2  0
 20 21  1  1
 20 25  1  0
 20 19  1  0
 21 22  1  0
 22 23  1  0
 23 24  2  0
 25 28  1  0
 26 25  2  0
 27 23  1  0
M  END
$$$$
