FPE.pdb
     RDKit          3D

 28 29  0  0  1  0  0  0  0  0999 V2000
    6.0133  -17.5888   25.7532 N   0  0  0  0  0  0  0  0  0  0  0  0
    6.6348  -16.4430   25.2119 C   0  0  1  0  0  0  0  0  0  0  0  0
    7.5891  -15.8689   26.2478 C   0  0  0  0  0  0  0  0  0  0  0  0
    7.3014  -14.4575   26.5152 C   0  0  0  0  0  0  0  0  0  0  0  0
    8.3677  -13.5568   26.4508 C   0  0  0  0  0  0  0  0  0  0  0  0
    8.1552  -12.2198   26.6910 C   0  0  0  0  0  0  0  0  0  0  0  0
    6.9024  -11.7390   26.9990 C   0  0  0  0  0  0  0  0  0  0  0  0
    5.8400  -12.6475   27.0633 C   0  0  0  0  0  0  0  0  0  0  0  0
    6.0511  -13.9779   26.8230 C   0  0  0  0  0  0  0  0  0  0  0  0
    7.3466  -16.6034   23.9387 C   0  0  0  0  0  0  0  0  0  0  0  0
    7.8162  -17.7708   23.7081 O   0  0  0  0  0  0  0  0  0  0  0  0
    7.5649  -15.6274   22.9584 N   0  0  0  0  0  0  0  0  0  0  0  0
    7.0390  -14.2817   22.9741 C   0  0  0  0  0  0  0  0  0  0  0  0
    7.5867  -13.6228   21.6912 C   0  0  0  0  0  0  0  0  0  0  0  0
    7.6361  -14.8441   20.7857 C   0  0  0  0  0  0  0  0  0  0  0  0
    8.3667  -15.8133   21.7509 C   0  0  1  0  0  0  0  0  0  0  0  0
    9.7476  -15.3293   21.9112 C   0  0  0  0  0  0  0  0  0  0  0  0
   10.0497  -14.2028   22.3625 O   0  0  0  0  0  0  0  0  0  0  0  0
   10.8300  -16.1884   21.5310 N   0  0  0  0  0  0  0  0  0  0  0  0
   11.8921  -16.5061   22.4929 C   0  0  1  0  0  0  0  0  0  0  0  0
   11.2352  -17.1472   23.6983 C   0  0  0  0  0  0  0  0  0  0  0  0
   12.3291  -17.6429   24.6147 C   0  0  0  0  0  0  0  0  0  0  0  0
   11.6750  -18.3148   25.7752 C   0  0  0  0  0  0  0  0  0  0  0  0
   10.4102  -18.1783   25.8549 O   0  0  0  0  0  0  0  0  0  0  0  0
   12.8724  -17.3954   21.8461 C   0  0  0  0  0  0  0  0  0  0  0  0
   12.4688  -18.2584   21.0231 O   0  0  0  0  0  0  0  0  0  0  0  0
   12.3533  -19.0431   26.7160 O   0  0  0  0  0  0  0  0  0  0  0  0
   14.2497  -17.3498   22.0916 O   0  0  0  0  0  0  0  0  0  0  0  0
  2 10  1  0
  2  1  1  1
  3  2  1  0
  4  3  1  0
  4  5  2  0
  6  5  1  0
  7  6  2  0
  8  9  2  0
  8  7  1  0
  9  4  1  0
 10 12  1  0
 11 10  2  0
 12 13  1  0
 12 16  1  0
 13 14  1  0
 14 15  1  0
 16 15  1  0
 17 19  1  0
 16 17  1  1
 18 17  2  0
 20 21  1  1
 20 25  1  0
 20 19  1  0
 21 22  1  0
 22 23  1  0
 23 24  2  0
 25 28  1  0
 26 25  2  0
 27 23  1  0
M  END
$$$$
