FPE.pdb
     RDKit          3D

 28 29  0  0  1  0  0  0  0  0999 V2000
    9.5083  -14.5925   22.0654 N   0  0  0  0  0  0  0  0  0  0  0  0
    9.0966  -14.3686   23.3969 C   0  0  1  0  0  0  0  0  0  0  0  0
    7.5839  -14.5092   23.4711 C   0  0  0  0  0  0  0  0  0  0  0  0
    7.0225  -13.6830   24.5428 C   0  0  0  0  0  0  0  0  0  0  0  0
    6.3494  -14.3369   25.5781 C   0  0  0  0  0  0  0  0  0  0  0  0
    5.8039  -13.6115   26.6110 C   0  0  0  0  0  0  0  0  0  0  0  0
    5.9037  -12.2389   26.6515 C   0  0  0  0  0  0  0  0  0  0  0  0
    6.5778  -11.5913   25.6102 C   0  0  0  0  0  0  0  0  0  0  0  0
    7.1218  -12.3131   24.5829 C   0  0  0  0  0  0  0  0  0  0  0  0
    9.7089  -15.2017   24.4382 C   0  0  0  0  0  0  0  0  0  0  0  0
   10.2177  -16.3054   24.0388 O   0  0  0  0  0  0  0  0  0  0  0  0
    9.7962  -14.9224   25.8077 N   0  0  0  0  0  0  0  0  0  0  0  0
    8.9596  -13.9966   26.5362 C   0  0  0  0  0  0  0  0  0  0  0  0
    9.4511  -14.0766   27.9963 C   0  0  0  0  0  0  0  0  0  0  0  0
   10.9228  -14.3697   27.7479 C   0  0  0  0  0  0  0  0  0  0  0  0
   10.7554  -15.5272   26.7295 C   0  0  1  0  0  0  0  0  0  0  0  0
   10.1935  -16.6807   27.4509 C   0  0  0  0  0  0  0  0  0  0  0  0
    9.0050  -16.7605   27.8319 O   0  0  0  0  0  0  0  0  0  0  0  0
   11.0465  -17.7940   27.7461 N   0  0  0  0  0  0  0  0  0  0  0  0
   10.4859  -19.0174   28.3320 C   0  0  1  0  0  0  0  0  0  0  0  0
   11.2457  -20.1900   27.7463 C   0  0  0  0  0  0  0  0  0  0  0  0
   11.1902  -20.0745   26.2411 C   0  0  0  0  0  0  0  0  0  0  0  0
   11.8620  -21.2787   25.6714 C   0  0  0  0  0  0  0  0  0  0  0  0
   11.9232  -21.3305   24.3994 O   0  0  0  0  0  0  0  0  0  0  0  0
   10.6067  -18.9438   29.7985 C   0  0  0  0  0  0  0  0  0  0  0  0
   11.3255  -18.0462   30.3107 O   0  0  0  0  0  0  0  0  0  0  0  0
   12.3944  -22.2859   26.4316 O   0  0  0  0  0  0  0  0  0  0  0  0
    9.9682  -19.8238   30.6800 O   0  0  0  0  0  0  0  0  0  0  0  0
  2 10  1  0
  2  1  1  6
  3  2  1  0
  4  3  1  0
  4  5  2  0
  6  5  1  0
  7  6  2  0
  8  9  2  0
  8  7  1  0
  9  4  1  0
 10 12  1  0
 11 10  2  0
 12 13  1  0
 12 16  1  0
 13 14  1  0
 14 15  1  0
 16 15  1  0
 17 19  1  0
 16 17  1  1
 18 17  2  0
 20 21  1  6
 20 25  1  0
 20 19  1  0
 21 22  1  0
 22 23  1  0
 23 24  2  0
 25 28  1  0
 26 25  2  0
 27 23  1  0
M  END
$$$$
