FPE.pdb
     RDKit          3D

 28 29  0  0  1  0  0  0  0  0999 V2000
    9.1760  -14.6337   22.1223 N   0  0  0  0  0  0  0  0  0  0  0  0
    8.8769  -14.3652   23.4754 C   0  0  1  0  0  0  0  0  0  0  0  0
    7.3885  -14.5834   23.6996 C   0  0  0  0  0  0  0  0  0  0  0  0
    6.8802  -13.7321   24.7782 C   0  0  0  0  0  0  0  0  0  0  0  0
    6.1172  -14.3415   25.7777 C   0  0  0  0  0  0  0  0  0  0  0  0
    5.6161  -13.5911   26.8153 C   0  0  0  0  0  0  0  0  0  0  0  0
    5.8484  -12.2364   26.8953 C   0  0  0  0  0  0  0  0  0  0  0  0
    6.6119  -11.6333   25.8896 C   0  0  0  0  0  0  0  0  0  0  0  0
    7.1117  -12.3801   24.8577 C   0  0  0  0  0  0  0  0  0  0  0  0
    9.6306  -15.1102   24.4903 C   0  0  0  0  0  0  0  0  0  0  0  0
   10.2050  -16.1782   24.0830 O   0  0  0  0  0  0  0  0  0  0  0  0
    9.7883  -14.7821   25.8426 N   0  0  0  0  0  0  0  0  0  0  0  0
    8.9575  -13.8684   26.5927 C   0  0  0  0  0  0  0  0  0  0  0  0
    9.5395  -13.8790   28.0214 C   0  0  0  0  0  0  0  0  0  0  0  0
   11.0050  -14.1184   27.6915 C   0  0  0  0  0  0  0  0  0  0  0  0
   10.8271  -15.3151   26.7214 C   0  0  1  0  0  0  0  0  0  0  0  0
   10.3610  -16.4665   27.5113 C   0  0  0  0  0  0  0  0  0  0  0  0
    9.2229  -16.5540   28.0221 O   0  0  0  0  0  0  0  0  0  0  0  0
   11.2535  -17.5681   27.7206 N   0  0  0  0  0  0  0  0  0  0  0  0
   10.7654  -18.8045   28.3430 C   0  0  1  0  0  0  0  0  0  0  0  0
   11.1971  -19.9576   27.4601 C   0  0  0  0  0  0  0  0  0  0  0  0
   11.5788  -19.3930   26.1119 C   0  0  0  0  0  0  0  0  0  0  0  0
   12.0827  -20.5219   25.2766 C   0  0  0  0  0  0  0  0  0  0  0  0
   13.1144  -21.1239   25.7213 O   0  0  0  0  0  0  0  0  0  0  0  0
   11.3148  -18.9026   29.7064 C   0  0  0  0  0  0  0  0  0  0  0  0
   11.0195  -19.8990   30.4168 O   0  0  0  0  0  0  0  0  0  0  0  0
   11.5016  -20.9196   24.1020 O   0  0  0  0  0  0  0  0  0  0  0  0
   12.1563  -17.9426   30.2805 O   0  0  0  0  0  0  0  0  0  0  0  0
  2 10  1  0
  2  1  1  6
  3  2  1  0
  4  3  1  0
  4  5  2  0
  6  5  1  0
  7  6  2  0
  8  9  2  0
  8  7  1  0
  9  4  1  0
 10 12  1  0
 11 10  2  0
 12 13  1  0
 12 16  1  0
 13 14  1  0
 14 15  1  0
 16 15  1  0
 17 19  1  0
 16 17  1  1
 18 17  2  0
 20 21  1  6
 20 25  1  0
 20 19  1  0
 21 22  1  0
 22 23  1  0
 23 24  2  0
 25 28  1  0
 26 25  2  0
 27 23  1  0
M  END
$$$$
