FPE.pdb
     RDKit          3D

 28 29  0  0  1  0  0  0  0  0999 V2000
    9.5384  -14.7220   22.0167 N   0  0  0  0  0  0  0  0  0  0  0  0
    9.1047  -14.4094   23.3230 C   0  0  1  0  0  0  0  0  0  0  0  0
    7.5849  -14.4574   23.3581 C   0  0  0  0  0  0  0  0  0  0  0  0
    7.0526  -13.6994   24.4932 C   0  0  0  0  0  0  0  0  0  0  0  0
    7.1905  -12.3092   24.4641 C   0  0  0  0  0  0  0  0  0  0  0  0
    6.7078  -11.5474   25.5020 C   0  0  0  0  0  0  0  0  0  0  0  0
    6.0850  -12.1267   26.5847 C   0  0  0  0  0  0  0  0  0  0  0  0
    5.9523  -13.5195   26.6073 C   0  0  0  0  0  0  0  0  0  0  0  0
    6.4315  -14.2777   25.5739 C   0  0  0  0  0  0  0  0  0  0  0  0
    9.6373  -15.2250   24.4205 C   0  0  0  0  0  0  0  0  0  0  0  0
   10.0322  -16.3986   24.0995 O   0  0  0  0  0  0  0  0  0  0  0  0
    9.7594  -14.8615   25.7674 N   0  0  0  0  0  0  0  0  0  0  0  0
    8.9490  -13.8827   26.4552 C   0  0  0  0  0  0  0  0  0  0  0  0
    9.4738  -13.8766   27.9059 C   0  0  0  0  0  0  0  0  0  0  0  0
   10.9364  -14.2011   27.6430 C   0  0  0  0  0  0  0  0  0  0  0  0
   10.7339  -15.4180   26.7033 C   0  0  1  0  0  0  0  0  0  0  0  0
   10.1780  -16.5178   27.5084 C   0  0  0  0  0  0  0  0  0  0  0  0
    9.0189  -16.5291   27.9779 O   0  0  0  0  0  0  0  0  0  0  0  0
   11.0015  -17.6580   27.7839 N   0  0  0  0  0  0  0  0  0  0  0  0
   10.3884  -18.9347   28.1690 C   0  0  1  0  0  0  0  0  0  0  0  0
   10.6775  -19.9286   27.0627 C   0  0  0  0  0  0  0  0  0  0  0  0
   11.8142  -20.8133   27.5183 C   0  0  0  0  0  0  0  0  0  0  0  0
   11.9766  -21.8962   26.5050 C   0  0  0  0  0  0  0  0  0  0  0  0
   11.1891  -21.8426   25.5042 O   0  0  0  0  0  0  0  0  0  0  0  0
   10.9425  -19.3589   29.4664 C   0  0  0  0  0  0  0  0  0  0  0  0
   10.4022  -20.3154   30.0812 O   0  0  0  0  0  0  0  0  0  0  0  0
   12.9019  -22.9010   26.6047 O   0  0  0  0  0  0  0  0  0  0  0  0
   12.0483  -18.7570   30.0781 O   0  0  0  0  0  0  0  0  0  0  0  0
  2 10  1  0
  2  1  1  6
  3  2  1  0
  4  3  1  0
  4  5  2  0
  6  5  1  0
  7  6  2  0
  8  9  2  0
  8  7  1  0
  9  4  1  0
 10 12  1  0
 11 10  2  0
 12 13  1  0
 12 16  1  0
 13 14  1  0
 14 15  1  0
 16 15  1  0
 17 19  1  0
 16 17  1  1
 18 17  2  0
 20 21  1  6
 20 25  1  0
 20 19  1  0
 21 22  1  0
 22 23  1  0
 23 24  2  0
 25 28  1  0
 26 25  2  0
 27 23  1  0
M  END
$$$$
