FPE.pdb
     RDKit          3D

 28 29  0  0  1  0  0  0  0  0999 V2000
    5.3382  -17.6470   25.3071 N   0  0  0  0  0  0  0  0  0  0  0  0
    6.1359  -16.5032   25.0889 C   0  0  1  0  0  0  0  0  0  0  0  0
    6.6473  -16.0007   26.4302 C   0  0  0  0  0  0  0  0  0  0  0  0
    6.6837  -14.5367   26.4737 C   0  0  0  0  0  0  0  0  0  0  0  0
    7.9380  -13.9211   26.4832 C   0  0  0  0  0  0  0  0  0  0  0  0
    8.0318  -12.5498   26.5218 C   0  0  0  0  0  0  0  0  0  0  0  0
    6.9068  -11.7569   26.5533 C   0  0  0  0  0  0  0  0  0  0  0  0
    5.6544  -12.3809   26.5454 C   0  0  0  0  0  0  0  0  0  0  0  0
    5.5608  -13.7454   26.5057 C   0  0  0  0  0  0  0  0  0  0  0  0
    7.2665  -16.6396   24.1634 C   0  0  0  0  0  0  0  0  0  0  0  0
    7.8209  -17.7920   24.1297 O   0  0  0  0  0  0  0  0  0  0  0  0
    7.7988  -15.6553   23.3213 N   0  0  0  0  0  0  0  0  0  0  0  0
    7.3954  -14.2685   23.2823 C   0  0  0  0  0  0  0  0  0  0  0  0
    8.2951  -13.6198   22.2100 C   0  0  0  0  0  0  0  0  0  0  0  0
    8.4690  -14.8094   21.2781 C   0  0  0  0  0  0  0  0  0  0  0  0
    8.8572  -15.8733   22.3376 C   0  0  1  0  0  0  0  0  0  0  0  0
   10.1896  -15.5233   22.8563 C   0  0  0  0  0  0  0  0  0  0  0  0
   10.4473  -14.4692   23.4779 O   0  0  0  0  0  0  0  0  0  0  0  0
   11.2750  -16.4352   22.6458 N   0  0  0  0  0  0  0  0  0  0  0  0
   12.5356  -16.2626   23.3775 C   0  0  1  0  0  0  0  0  0  0  0  0
   12.7669  -17.5231   24.1857 C   0  0  0  0  0  0  0  0  0  0  0  0
   12.2053  -17.2973   25.5697 C   0  0  0  0  0  0  0  0  0  0  0  0
   11.8240  -18.6288   26.1243 C   0  0  0  0  0  0  0  0  0  0  0  0
   11.9290  -19.6145   25.3231 O   0  0  0  0  0  0  0  0  0  0  0  0
   13.6179  -16.0063   22.4114 C   0  0  0  0  0  0  0  0  0  0  0  0
   14.7726  -15.7442   22.8389 O   0  0  0  0  0  0  0  0  0  0  0  0
   11.3867  -18.8234   27.4075 O   0  0  0  0  0  0  0  0  0  0  0  0
   13.4469  -16.0298   21.0224 O   0  0  0  0  0  0  0  0  0  0  0  0
  2 10  1  0
  2  1  1  1
  3  2  1  0
  4  3  1  0
  4  5  2  0
  6  5  1  0
  7  6  2  0
  8  9  2  0
  8  7  1  0
  9  4  1  0
 10 12  1  0
 11 10  2  0
 12 13  1  0
 12 16  1  0
 13 14  1  0
 14 15  1  0
 16 15  1  0
 17 19  1  0
 16 17  1  1
 18 17  2  0
 20 21  1  6
 20 25  1  0
 20 19  1  0
 21 22  1  0
 22 23  1  0
 23 24  2  0
 25 28  1  0
 26 25  2  0
 27 23  1  0
M  END
$$$$
