FPE.pdb
     RDKit          3D

 28 29  0  0  1  0  0  0  0  0999 V2000
    5.5727  -17.6292   25.7212 N   0  0  0  0  0  0  0  0  0  0  0  0
    6.3486  -16.5153   25.3347 C   0  0  1  0  0  0  0  0  0  0  0  0
    7.1818  -16.0636   26.5243 C   0  0  0  0  0  0  0  0  0  0  0  0
    7.1635  -14.6056   26.6665 C   0  0  0  0  0  0  0  0  0  0  0  0
    5.9238  -13.9902   26.8588 C   0  0  0  0  0  0  0  0  0  0  0  0
    5.8474  -12.6246   27.0001 C   0  0  0  0  0  0  0  0  0  0  0  0
    6.9757  -11.8369   26.9549 C   0  0  0  0  0  0  0  0  0  0  0  0
    8.2132  -12.4604   26.7603 C   0  0  0  0  0  0  0  0  0  0  0  0
    8.2896  -13.8195   26.6209 C   0  0  0  0  0  0  0  0  0  0  0  0
    7.2241  -16.6790   24.1685 C   0  0  0  0  0  0  0  0  0  0  0  0
    7.6837  -17.8578   23.9799 O   0  0  0  0  0  0  0  0  0  0  0  0
    7.6069  -15.6949   23.2486 N   0  0  0  0  0  0  0  0  0  0  0  0
    7.2161  -14.3044   23.2873 C   0  0  0  0  0  0  0  0  0  0  0  0
    7.9162  -13.6578   22.0742 C   0  0  0  0  0  0  0  0  0  0  0  0
    7.9101  -14.8439   21.1219 C   0  0  0  0  0  0  0  0  0  0  0  0
    8.4710  -15.9166   22.0912 C   0  0  1  0  0  0  0  0  0  0  0  0
    9.8777  -15.5808   22.3652 C   0  0  0  0  0  0  0  0  0  0  0  0
   10.2717  -14.4537   22.7373 O   0  0  0  0  0  0  0  0  0  0  0  0
   10.8757  -16.5962   22.2007 N   0  0  0  0  0  0  0  0  0  0  0  0
   12.2704  -16.3259   22.5696 C   0  0  1  0  0  0  0  0  0  0  0  0
   12.5709  -17.1235   23.8221 C   0  0  0  0  0  0  0  0  0  0  0  0
   11.5558  -18.2382   23.9179 C   0  0  0  0  0  0  0  0  0  0  0  0
   11.9540  -19.1138   25.0583 C   0  0  0  0  0  0  0  0  0  0  0  0
   13.0929  -18.8684   25.5753 O   0  0  0  0  0  0  0  0  0  0  0  0
   13.1434  -16.6971   21.4424 C   0  0  0  0  0  0  0  0  0  0  0  0
   12.6360  -17.2396   20.4260 O   0  0  0  0  0  0  0  0  0  0  0  0
   11.1740  -20.1262   25.5507 O   0  0  0  0  0  0  0  0  0  0  0  0
   14.5274  -16.4884   21.4246 O   0  0  0  0  0  0  0  0  0  0  0  0
  2 10  1  0
  2  1  1  1
  3  2  1  0
  4  3  1  0
  4  5  2  0
  6  5  1  0
  7  6  2  0
  8  9  2  0
  8  7  1  0
  9  4  1  0
 10 12  1  0
 11 10  2  0
 12 13  1  0
 12 16  1  0
 13 14  1  0
 14 15  1  0
 16 15  1  0
 17 19  1  0
 16 17  1  1
 18 17  2  0
 20 21  1  1
 20 25  1  0
 20 19  1  0
 21 22  1  0
 22 23  1  0
 23 24  2  0
 25 28  1  0
 26 25  2  0
 27 23  1  0
M  END
$$$$
