FPE.pdb
     RDKit          3D

 28 29  0  0  1  0  0  0  0  0999 V2000
    5.7061  -17.6572   25.7216 N   0  0  0  0  0  0  0  0  0  0  0  0
    6.4411  -16.5140   25.3406 C   0  0  1  0  0  0  0  0  0  0  0  0
    7.1846  -15.9832   26.5566 C   0  0  0  0  0  0  0  0  0  0  0  0
    7.1350  -14.5202   26.6165 C   0  0  0  0  0  0  0  0  0  0  0  0
    8.3475  -13.8290   26.5497 C   0  0  0  0  0  0  0  0  0  0  0  0
    8.3605  -12.4549   26.5996 C   0  0  0  0  0  0  0  0  0  0  0  0
    7.1942  -11.7327   26.7169 C   0  0  0  0  0  0  0  0  0  0  0  0
    5.9842  -12.4323   26.7850 C   0  0  0  0  0  0  0  0  0  0  0  0
    5.9710  -13.7995   26.7340 C   0  0  0  0  0  0  0  0  0  0  0  0
    7.3848  -16.6629   24.2268 C   0  0  0  0  0  0  0  0  0  0  0  0
    7.8470  -17.8417   24.0441 O   0  0  0  0  0  0  0  0  0  0  0  0
    7.8296  -15.6650   23.3507 N   0  0  0  0  0  0  0  0  0  0  0  0
    7.4053  -14.2838   23.3582 C   0  0  0  0  0  0  0  0  0  0  0  0
    8.2010  -13.6144   22.2186 C   0  0  0  0  0  0  0  0  0  0  0  0
    8.3109  -14.7945   21.2651 C   0  0  0  0  0  0  0  0  0  0  0  0
    8.8028  -15.8604   22.2784 C   0  0  1  0  0  0  0  0  0  0  0  0
   10.1698  -15.4952   22.6844 C   0  0  0  0  0  0  0  0  0  0  0  0
   10.5171  -14.3439   23.0279 O   0  0  0  0  0  0  0  0  0  0  0  0
   11.1828  -16.5089   22.6930 N   0  0  0  0  0  0  0  0  0  0  0  0
   12.4551  -16.2741   23.3859 C   0  0  1  0  0  0  0  0  0  0  0  0
   12.7890  -17.5331   24.1599 C   0  0  0  0  0  0  0  0  0  0  0  0
   11.7168  -17.7342   25.2049 C   0  0  0  0  0  0  0  0  0  0  0  0
   11.9796  -19.0412   25.8747 C   0  0  0  0  0  0  0  0  0  0  0  0
   12.8884  -19.7625   25.3470 O   0  0  0  0  0  0  0  0  0  0  0  0
   13.4864  -15.9350   22.3900 C   0  0  0  0  0  0  0  0  0  0  0  0
   14.6271  -15.5780   22.7850 O   0  0  0  0  0  0  0  0  0  0  0  0
   11.3112  -19.4750   26.9886 O   0  0  0  0  0  0  0  0  0  0  0  0
   13.2803  -15.9787   21.0062 O   0  0  0  0  0  0  0  0  0  0  0  0
  2 10  1  0
  2  1  1  1
  3  2  1  0
  4  3  1  0
  4  5  2  0
  6  5  1  0
  7  6  2  0
  8  9  2  0
  8  7  1  0
  9  4  1  0
 10 12  1  0
 11 10  2  0
 12 13  1  0
 12 16  1  0
 13 14  1  0
 14 15  1  0
 16 15  1  0
 17 19  1  0
 16 17  1  1
 18 17  2  0
 20 21  1  6
 20 25  1  0
 20 19  1  0
 21 22  1  0
 22 23  1  0
 23 24  2  0
 25 28  1  0
 26 25  2  0
 27 23  1  0
M  END
$$$$
