FPE.pdb
     RDKit          3D

 28 29  0  0  1  0  0  0  0  0999 V2000
    5.6707  -17.4843   25.9851 N   0  0  0  0  0  0  0  0  0  0  0  0
    6.3963  -16.4012   25.4442 C   0  0  1  0  0  0  0  0  0  0  0  0
    7.2112  -15.7556   26.5543 C   0  0  0  0  0  0  0  0  0  0  0  0
    7.0081  -14.3052   26.5919 C   0  0  0  0  0  0  0  0  0  0  0  0
    8.1352  -13.4908   26.4543 C   0  0  0  0  0  0  0  0  0  0  0  0
    8.0032  -12.1224   26.4804 C   0  0  0  0  0  0  0  0  0  0  0  0
    6.7731  -11.5257   26.6423 C   0  0  0  0  0  0  0  0  0  0  0  0
    5.6495  -12.3481   26.7812 C   0  0  0  0  0  0  0  0  0  0  0  0
    5.7804  -13.7098   26.7540 C   0  0  0  0  0  0  0  0  0  0  0  0
    7.2758  -16.6847   24.3043 C   0  0  0  0  0  0  0  0  0  0  0  0
    7.6774  -17.8948   24.1999 O   0  0  0  0  0  0  0  0  0  0  0  0
    7.7184  -15.7836   23.3278 N   0  0  0  0  0  0  0  0  0  0  0  0
    7.4444  -14.3652   23.3008 C   0  0  0  0  0  0  0  0  0  0  0  0
    8.1690  -13.8413   22.0436 C   0  0  0  0  0  0  0  0  0  0  0  0
    8.0445  -15.0693   21.1547 C   0  0  0  0  0  0  0  0  0  0  0  0
    8.5360  -16.1348   22.1686 C   0  0  1  0  0  0  0  0  0  0  0  0
    9.9712  -15.9041   22.4004 C   0  0  0  0  0  0  0  0  0  0  0  0
   10.4556  -14.8161   22.7819 O   0  0  0  0  0  0  0  0  0  0  0  0
   10.8893  -16.9823   22.1799 N   0  0  0  0  0  0  0  0  0  0  0  0
   12.3088  -16.8227   22.5173 C   0  0  1  0  0  0  0  0  0  0  0  0
   12.7146  -18.0218   23.3497 C   0  0  0  0  0  0  0  0  0  0  0  0
   11.7655  -18.1169   24.5212 C   0  0  0  0  0  0  0  0  0  0  0  0
   12.0927  -19.3674   25.2661 C   0  0  0  0  0  0  0  0  0  0  0  0
   12.9657  -20.1229   24.7261 O   0  0  0  0  0  0  0  0  0  0  0  0
   13.0868  -16.7127   21.2711 C   0  0  0  0  0  0  0  0  0  0  0  0
   12.5218  -16.9514   20.1718 O   0  0  0  0  0  0  0  0  0  0  0  0
   11.5166  -19.7175   26.4583 O   0  0  0  0  0  0  0  0  0  0  0  0
   14.4401  -16.3584   21.2238 O   0  0  0  0  0  0  0  0  0  0  0  0
  2 10  1  0
  2  1  1  1
  3  2  1  0
  4  3  1  0
  4  5  2  0
  6  5  1  0
  7  6  2  0
  8  9  2  0
  8  7  1  0
  9  4  1  0
 10 12  1  0
 11 10  2  0
 12 13  1  0
 12 16  1  0
 13 14  1  0
 14 15  1  0
 16 15  1  0
 17 19  1  0
 16 17  1  1
 18 17  2  0
 20 21  1  6
 20 25  1  0
 20 19  1  0
 21 22  1  0
 22 23  1  0
 23 24  2  0
 25 28  1  0
 26 25  2  0
 27 23  1  0
M  END
$$$$
