FPE.pdb
     RDKit          3D

 28 29  0  0  1  0  0  0  0  0999 V2000
    5.5561  -17.4500   25.6599 N   0  0  0  0  0  0  0  0  0  0  0  0
    6.3639  -16.3718   25.2388 C   0  0  1  0  0  0  0  0  0  0  0  0
    7.1530  -15.8567   26.4327 C   0  0  0  0  0  0  0  0  0  0  0  0
    7.0394  -14.4017   26.5606 C   0  0  0  0  0  0  0  0  0  0  0  0
    8.2173  -13.6529   26.4942 C   0  0  0  0  0  0  0  0  0  0  0  0
    8.1699  -12.2833   26.6065 C   0  0  0  0  0  0  0  0  0  0  0  0
    6.9760  -11.6217   26.7867 C   0  0  0  0  0  0  0  0  0  0  0  0
    5.8011  -12.3787   26.8540 C   0  0  0  0  0  0  0  0  0  0  0  0
    5.8479  -13.7415   26.7410 C   0  0  0  0  0  0  0  0  0  0  0  0
    7.2851  -16.6186   24.1236 C   0  0  0  0  0  0  0  0  0  0  0  0
    7.6887  -17.8255   23.9930 O   0  0  0  0  0  0  0  0  0  0  0  0
    7.7652  -15.6859   23.1957 N   0  0  0  0  0  0  0  0  0  0  0  0
    7.4414  -14.2780   23.1682 C   0  0  0  0  0  0  0  0  0  0  0  0
    8.2374  -13.7074   21.9762 C   0  0  0  0  0  0  0  0  0  0  0  0
    8.2249  -14.9240   21.0632 C   0  0  0  0  0  0  0  0  0  0  0  0
    8.6789  -15.9879   22.0961 C   0  0  1  0  0  0  0  0  0  0  0  0
   10.0835  -15.7097   22.4376 C   0  0  0  0  0  0  0  0  0  0  0  0
   10.4635  -14.7153   23.0939 O   0  0  0  0  0  0  0  0  0  0  0  0
   11.0960  -16.6242   21.9991 N   0  0  0  0  0  0  0  0  0  0  0  0
   12.2928  -16.8477   22.8188 C   0  0  1  0  0  0  0  0  0  0  0  0
   12.5499  -18.3406   22.8484 C   0  0  0  0  0  0  0  0  0  0  0  0
   13.7711  -18.5849   23.7034 C   0  0  0  0  0  0  0  0  0  0  0  0
   13.3052  -18.7963   25.1049 C   0  0  0  0  0  0  0  0  0  0  0  0
   13.8818  -18.0883   25.9942 O   0  0  0  0  0  0  0  0  0  0  0  0
   13.4176  -16.0939   22.2381 C   0  0  0  0  0  0  0  0  0  0  0  0
   13.4005  -15.8147   21.0107 O   0  0  0  0  0  0  0  0  0  0  0  0
   12.3220  -19.6827   25.4559 O   0  0  0  0  0  0  0  0  0  0  0  0
   14.5292  -15.6616   22.9706 O   0  0  0  0  0  0  0  0  0  0  0  0
  2 10  1  0
  2  1  1  1
  3  2  1  0
  4  3  1  0
  4  5  2  0
  6  5  1  0
  7  6  2  0
  8  9  2  0
  8  7  1  0
  9  4  1  0
 10 12  1  0
 11 10  2  0
 12 13  1  0
 12 16  1  0
 13 14  1  0
 14 15  1  0
 16 15  1  0
 17 19  1  0
 16 17  1  1
 18 17  2  0
 20 21  1  6
 20 25  1  0
 20 19  1  0
 21 22  1  0
 22 23  1  0
 23 24  2  0
 25 28  1  0
 26 25  2  0
 27 23  1  0
M  END
$$$$
