CVP.pdb
     RDKit          3D

 21 21  0  0  1  0  0  0  0  0999 V2000
   20.2310  -20.4480  -12.3239 N   0  0  0  0  0  0  0  0  0  0  0  0
   21.2088  -21.1514  -13.1326 C   0  0  1  0  0  0  0  0  0  0  0  0
   20.6773  -21.3080  -14.5162 C   0  0  0  0  0  0  0  0  0  0  0  0
   21.7654  -22.4133  -15.4728 S   0  0  0  0  0  0  0  0  0  0  0  0
   22.5286  -20.4963  -13.0354 C   0  0  0  0  0  0  0  0  0  0  0  0
   22.5829  -19.2472  -13.1585 O   0  0  0  0  0  0  0  0  0  0  0  0
   25.3406  -20.5897  -10.4169 C   0  0  0  0  0  0  0  0  0  0  0  0
   25.9371  -20.7808  -11.7660 C   0  0  1  0  0  0  0  0  0  0  0  0
   26.4182  -22.2069  -11.8856 C   0  0  0  0  0  0  0  0  0  0  0  0
   24.9952  -20.5071  -12.9227 C   0  0  2  0  0  0  0  0  0  0  0  0
   23.7504  -21.1633  -12.8112 N   0  0  0  0  0  0  0  0  0  0  0  0
   25.6881  -20.5636  -14.2195 C   0  0  0  0  0  0  0  0  0  0  0  0
   25.2287  -21.4252  -15.0424 O   0  0  0  0  0  0  0  0  0  0  0  0
   26.7833  -19.8016  -14.6739 N   0  0  0  0  0  0  0  0  0  0  0  0
   27.6913  -18.9043  -14.0310 C   0  0  0  0  0  0  0  0  0  0  0  0
   27.6051  -17.7056  -14.9615 C   0  0  0  0  0  0  0  0  0  0  0  0
   27.4758  -18.3419  -16.3293 C   0  0  0  0  0  0  0  0  0  0  0  0
   27.2261  -19.8028  -16.0660 C   0  0  1  0  0  0  0  0  0  0  0  0
   28.4872  -20.5590  -16.2630 C   0  0  0  0  0  0  0  0  0  0  0  0
   29.1158  -21.2114  -15.1999 O   0  0  0  0  0  0  0  0  0  0  0  0
   29.0725  -20.6694  -17.3687 O   0  0  0  0  0  0  0  0  0  0  0  0
  2  1  1  1
  3  2  1  0
  4  3  1  0
  5 11  1  0
  5  2  1  0
  6  5  2  0
  8  7  1  1
  8 10  1  0
  9  8  1  0
 10 12  1  0
 10 11  1  6
 12 14  1  0
 13 12  2  0
 14 15  1  0
 14 18  1  0
 15 16  1  0
 16 17  1  0
 18 19  1  1
 18 17  1  0
 19 20  1  0
 21 19  2  0
M  END
$$$$
