CVP.pdb
     RDKit          3D

 21 21  0  0  1  0  0  0  0  0999 V2000
   19.7097  -12.8868  -18.8664 N   0  0  0  0  0  0  0  0  0  0  0  0
   20.1709  -11.5184  -19.0053 C   0  0  1  0  0  0  0  0  0  0  0  0
   19.2137  -10.7646  -19.8637 C   0  0  0  0  0  0  0  0  0  0  0  0
   19.7102   -9.0133  -19.9494 S   0  0  0  0  0  0  0  0  0  0  0  0
   20.4313  -10.9227  -17.6794 C   0  0  0  0  0  0  0  0  0  0  0  0
   19.5174  -10.9652  -16.8185 O   0  0  0  0  0  0  0  0  0  0  0  0
   23.1401   -9.9112  -13.8406 C   0  0  0  0  0  0  0  0  0  0  0  0
   22.8953  -10.4808  -15.1927 C   0  0  1  0  0  0  0  0  0  0  0  0
   22.4820  -11.9252  -15.0426 C   0  0  0  0  0  0  0  0  0  0  0  0
   21.8247   -9.7700  -15.9981 C   0  0  2  0  0  0  0  0  0  0  0  0
   21.6370  -10.3029  -17.2916 N   0  0  0  0  0  0  0  0  0  0  0  0
   21.9179   -8.3076  -15.8643 C   0  0  0  0  0  0  0  0  0  0  0  0
   22.8334   -7.7566  -16.5633 O   0  0  0  0  0  0  0  0  0  0  0  0
   21.1396   -7.4379  -15.0741 N   0  0  0  0  0  0  0  0  0  0  0  0
   20.0406   -7.6378  -14.1823 C   0  0  0  0  0  0  0  0  0  0  0  0
   19.0589   -6.6061  -14.7132 C   0  0  0  0  0  0  0  0  0  0  0  0
   19.9551   -5.4513  -15.1079 C   0  0  0  0  0  0  0  0  0  0  0  0
   21.3574   -5.9938  -15.0359 C   0  0  1  0  0  0  0  0  0  0  0  0
   21.9921   -5.5457  -13.7721 C   0  0  0  0  0  0  0  0  0  0  0  0
   22.2774   -6.4471  -12.7439 O   0  0  0  0  0  0  0  0  0  0  0  0
   22.3138   -4.3555  -13.5333 O   0  0  0  0  0  0  0  0  0  0  0  0
  2  1  1  1
  3  2  1  0
  4  3  1  0
  5 11  1  0
  5  2  1  0
  6  5  2  0
  8  7  1  1
  8 10  1  0
  9  8  1  0
 10 12  1  0
 10 11  1  6
 12 14  1  0
 13 12  2  0
 14 15  1  0
 14 18  1  0
 15 16  1  0
 16 17  1  0
 18 19  1  1
 18 17  1  0
 19 20  1  0
 21 19  2  0
M  END
$$$$
