CVP.pdb
     RDKit          3D

 21 21  0  0  1  0  0  0  0  0999 V2000
   18.0612  -11.4789    5.8122 N   0  0  0  0  0  0  0  0  0  0  0  0
   19.2469  -12.3089    5.9112 C   0  0  1  0  0  0  0  0  0  0  0  0
   20.3951  -11.4700    6.3577 C   0  0  0  0  0  0  0  0  0  0  0  0
   21.8748  -12.5126    6.5683 S   0  0  0  0  0  0  0  0  0  0  0  0
   18.9773  -13.5002    6.7410 C   0  0  0  0  0  0  0  0  0  0  0  0
   18.3608  -13.3431    7.8244 O   0  0  0  0  0  0  0  0  0  0  0  0
   18.2141  -18.2084    7.6424 C   0  0  0  0  0  0  0  0  0  0  0  0
   18.2994  -17.0030    6.7751 C   0  0  1  0  0  0  0  0  0  0  0  0
   16.9104  -16.4419    6.5871 C   0  0  0  0  0  0  0  0  0  0  0  0
   19.1825  -15.8935    7.3129 C   0  0  2  0  0  0  0  0  0  0  0  0
   19.3569  -14.8184    6.4150 N   0  0  0  0  0  0  0  0  0  0  0  0
   20.3762  -16.4226    7.9914 C   0  0  0  0  0  0  0  0  0  0  0  0
   21.3785  -16.6430    7.2316 O   0  0  0  0  0  0  0  0  0  0  0  0
   20.5623  -16.7180    9.3568 N   0  0  0  0  0  0  0  0  0  0  0  0
   19.7201  -16.6217   10.5077 C   0  0  0  0  0  0  0  0  0  0  0  0
   20.6307  -15.8610   11.4574 C   0  0  0  0  0  0  0  0  0  0  0  0
   22.0005  -16.4256   11.1449 C   0  0  0  0  0  0  0  0  0  0  0  0
   21.8188  -17.2380    9.8908 C   0  0  1  0  0  0  0  0  0  0  0  0
   21.7361  -18.6760   10.2459 C   0  0  0  0  0  0  0  0  0  0  0  0
   22.8729  -19.3989   10.6149 O   0  0  0  0  0  0  0  0  0  0  0  0
   20.6689  -19.3381   10.2432 O   0  0  0  0  0  0  0  0  0  0  0  0
  2  1  1  1
  3  2  1  0
  4  3  1  0
  5 11  1  0
  5  2  1  0
  6  5  2  0
  8  7  1  1
  8 10  1  0
  9  8  1  0
 10 12  1  0
 10 11  1  6
 12 14  1  0
 13 12  2  0
 14 15  1  0
 14 18  1  0
 15 16  1  0
 16 17  1  0
 18 19  1  1
 18 17  1  0
 19 20  1  0
 21 19  2  0
M  END
$$$$
