CVP.pdb
     RDKit          3D

 21 21  0  0  1  0  0  0  0  0999 V2000
   15.6278  -13.6529  -16.3284 N   0  0  0  0  0  0  0  0  0  0  0  0
   15.6557  -12.3387  -15.7145 C   0  0  1  0  0  0  0  0  0  0  0  0
   15.2821  -12.4626  -14.2770 C   0  0  0  0  0  0  0  0  0  0  0  0
   13.4792  -12.6805  -14.1255 S   0  0  0  0  0  0  0  0  0  0  0  0
   16.9481  -11.6733  -15.9741 C   0  0  0  0  0  0  0  0  0  0  0  0
   17.9907  -12.3742  -15.9628 O   0  0  0  0  0  0  0  0  0  0  0  0
   18.2616  -10.2744  -19.0494 C   0  0  0  0  0  0  0  0  0  0  0  0
   18.4466   -9.2339  -18.0028 C   0  0  1  0  0  0  0  0  0  0  0  0
   17.3837   -8.1761  -18.1777 C   0  0  0  0  0  0  0  0  0  0  0  0
   18.3671   -9.7446  -16.5769 C   0  0  2  0  0  0  0  0  0  0  0  0
   17.1135  -10.2984  -16.2392 N   0  0  0  0  0  0  0  0  0  0  0  0
   18.9840   -8.8085  -15.6238 C   0  0  0  0  0  0  0  0  0  0  0  0
   18.1619   -8.1031  -14.9478 O   0  0  0  0  0  0  0  0  0  0  0  0
   20.3500   -8.5855  -15.3577 N   0  0  0  0  0  0  0  0  0  0  0  0
   21.5586   -9.0943  -15.9265 C   0  0  0  0  0  0  0  0  0  0  0  0
   22.2948   -9.5331  -14.6714 C   0  0  0  0  0  0  0  0  0  0  0  0
   21.9208   -8.4666  -13.6638 C   0  0  0  0  0  0  0  0  0  0  0  0
   20.8155   -7.6770  -14.3127 C   0  0  1  0  0  0  0  0  0  0  0  0
   21.3708   -6.4147  -14.8597 C   0  0  0  0  0  0  0  0  0  0  0  0
   21.4452   -6.1912  -16.2365 O   0  0  0  0  0  0  0  0  0  0  0  0
   21.8051   -5.4745  -14.1492 O   0  0  0  0  0  0  0  0  0  0  0  0
  2  1  1  1
  3  2  1  0
  4  3  1  0
  5 11  1  0
  5  2  1  0
  6  5  2  0
  8  7  1  6
  8 10  1  0
  9  8  1  0
 10 12  1  0
 10 11  1  1
 12 14  1  0
 13 12  2  0
 14 15  1  0
 14 18  1  0
 15 16  1  0
 16 17  1  0
 18 19  1  6
 18 17  1  0
 19 20  1  0
 21 19  2  0
M  END
$$$$
