CVP.pdb
     RDKit          3D

 21 21  0  0  1  0  0  0  0  0999 V2000
   22.3578  -21.1956  -14.1985 N   0  0  0  0  0  0  0  0  0  0  0  0
   22.5738  -20.2529  -13.1171 C   0  0  1  0  0  0  0  0  0  0  0  0
   21.2671  -19.9416  -12.4714 C   0  0  0  0  0  0  0  0  0  0  0  0
   20.3833  -18.6805  -13.4457 S   0  0  0  0  0  0  0  0  0  0  0  0
   23.6260  -20.7438  -12.2047 C   0  0  0  0  0  0  0  0  0  0  0  0
   23.3733  -21.7458  -11.4902 O   0  0  0  0  0  0  0  0  0  0  0  0
   28.2384  -21.4579  -10.8029 C   0  0  0  0  0  0  0  0  0  0  0  0
   27.2163  -20.9527  -11.7581 C   0  0  1  0  0  0  0  0  0  0  0  0
   27.0337  -21.9722  -12.8567 C   0  0  0  0  0  0  0  0  0  0  0  0
   25.8561  -20.6760  -11.1469 C   0  0  2  0  0  0  0  0  0  0  0  0
   24.9093  -20.1762  -12.0668 N   0  0  0  0  0  0  0  0  0  0  0  0
   25.9672  -20.0049   -9.8421 C   0  0  0  0  0  0  0  0  0  0  0  0
   25.8329  -18.7355   -9.8724 O   0  0  0  0  0  0  0  0  0  0  0  0
   26.2009  -20.5689   -8.5718 N   0  0  0  0  0  0  0  0  0  0  0  0
   26.3863  -21.9087   -8.1095 C   0  0  0  0  0  0  0  0  0  0  0  0
   25.3853  -21.9508   -6.9667 C   0  0  0  0  0  0  0  0  0  0  0  0
   25.4847  -20.5618   -6.3723 C   0  0  0  0  0  0  0  0  0  0  0  0
   26.3016  -19.7665   -7.3552 C   0  0  1  0  0  0  0  0  0  0  0  0
   27.6951  -19.6559   -6.8583 C   0  0  0  0  0  0  0  0  0  0  0  0
   28.0217  -18.8106   -5.7954 O   0  0  0  0  0  0  0  0  0  0  0  0
   28.6633  -20.2948   -7.3398 O   0  0  0  0  0  0  0  0  0  0  0  0
  2  1  1  6
  3  2  1  0
  4  3  1  0
  5 11  1  0
  5  2  1  0
  6  5  2  0
  8  7  1  1
  8 10  1  0
  9  8  1  0
 10 12  1  0
 10 11  1  6
 12 14  1  0
 13 12  2  0
 14 15  1  0
 14 18  1  0
 15 16  1  0
 16 17  1  0
 18 19  1  1
 18 17  1  0
 19 20  1  0
 21 19  2  0
M  END
$$$$
