CVP.pdb
     RDKit          3D

 21 21  0  0  1  0  0  0  0  0999 V2000
   29.3826  -20.3257  -15.7071 N   0  0  0  0  0  0  0  0  0  0  0  0
   28.3889  -19.5378  -15.0026 C   0  0  1  0  0  0  0  0  0  0  0  0
   27.7790  -18.5608  -15.9487 C   0  0  0  0  0  0  0  0  0  0  0  0
   28.1442  -16.8618  -15.4003 S   0  0  0  0  0  0  0  0  0  0  0  0
   27.4318  -20.4176  -14.3023 C   0  0  0  0  0  0  0  0  0  0  0  0
   26.9286  -21.3759  -14.9400 O   0  0  0  0  0  0  0  0  0  0  0  0
   25.9074  -19.7311  -10.2232 C   0  0  0  0  0  0  0  0  0  0  0  0
   25.9406  -21.0534  -10.9035 C   0  0  1  0  0  0  0  0  0  0  0  0
   24.7334  -21.8509  -10.4722 C   0  0  0  0  0  0  0  0  0  0  0  0
   25.9411  -20.9895  -12.4188 C   0  0  2  0  0  0  0  0  0  0  0  0
   27.0306  -20.2724  -12.9584 N   0  0  0  0  0  0  0  0  0  0  0  0
   24.6003  -20.7095  -12.9564 C   0  0  0  0  0  0  0  0  0  0  0  0
   24.3756  -19.4854  -13.2419 O   0  0  0  0  0  0  0  0  0  0  0  0
   23.5369  -21.6027  -13.1968 N   0  0  0  0  0  0  0  0  0  0  0  0
   23.3376  -22.9912  -12.9226 C   0  0  0  0  0  0  0  0  0  0  0  0
   22.8939  -23.4851  -14.2897 C   0  0  0  0  0  0  0  0  0  0  0  0
   22.0540  -22.3388  -14.8124 C   0  0  0  0  0  0  0  0  0  0  0  0
   22.2984  -21.2000  -13.8588 C   0  0  1  0  0  0  0  0  0  0  0  0
   21.1564  -21.0951  -12.9177 C   0  0  0  0  0  0  0  0  0  0  0  0
   19.9274  -20.5697  -13.3235 O   0  0  0  0  0  0  0  0  0  0  0  0
   21.2025  -21.4596  -11.7167 O   0  0  0  0  0  0  0  0  0  0  0  0
  2  1  1  6
  3  2  1  0
  4  3  1  0
  5 11  1  0
  5  2  1  0
  6  5  2  0
  8  7  1  1
  8 10  1  0
  9  8  1  0
 10 12  1  0
 10 11  1  1
 12 14  1  0
 13 12  2  0
 14 15  1  0
 14 18  1  0
 15 16  1  0
 16 17  1  0
 18 19  1  1
 18 17  1  0
 19 20  1  0
 21 19  2  0
M  END
$$$$
