MKI.pdb
     RDKit          3D

 26 25  0  0  1  0  0  0  0  0999 V2000
   30.5953  -17.9334  -15.6305 C   0  0  0  0  0  0  0  0  0  0  0  0
   29.7423  -16.7254  -16.6823 S   0  0  0  0  0  0  0  0  0  0  0  0
   28.0331  -17.2410  -16.8852 C   0  0  0  0  0  0  0  0  0  0  0  0
   27.6148  -18.0916  -15.7065 C   0  0  0  0  0  0  0  0  0  0  0  0
   26.2314  -18.6002  -15.9511 C   0  0  2  0  0  0  0  0  0  0  0  0
   25.3550  -17.5118  -16.2459 N   0  0  0  0  0  0  0  0  0  0  0  0
   25.6940  -19.3661  -14.7752 C   0  0  0  0  0  0  0  0  0  0  0  0
   25.1392  -18.7337  -13.8282 O   0  0  0  0  0  0  0  0  0  0  0  0
   25.8034  -20.7538  -14.7233 N   0  0  0  0  0  0  0  0  0  0  0  0
   25.4026  -21.6653  -13.6768 C   0  0  1  0  0  0  0  0  0  0  0  0
   25.3043  -23.1143  -14.1170 C   0  0  0  0  0  0  0  0  0  0  0  0
   23.8946  -23.3977  -14.5261 C   0  0  0  0  0  0  0  0  0  0  0  0
   23.3525  -22.4215  -15.5480 C   0  0  0  0  0  0  0  0  0  0  0  0
   21.9262  -22.8358  -15.8491 C   0  0  0  0  0  0  0  0  0  0  0  0
   21.3429  -21.8475  -16.7511 N   0  0  0  0  0  0  0  0  0  0  0  0
   26.0529  -21.4485  -12.3911 C   0  0  0  0  0  0  0  0  0  0  0  0
   27.3336  -21.4337  -12.2727 O   0  0  0  0  0  0  0  0  0  0  0  0
   28.6339  -19.3709   -8.0144 C   0  0  0  0  0  0  0  0  0  0  0  0
   27.6340  -20.4384   -8.3495 C   0  0  0  0  0  0  0  0  0  0  0  0
   27.0395  -20.2491   -9.7342 C   0  0  2  0  0  0  0  0  0  0  0  0
   26.4927  -18.8307   -9.8552 C   0  0  0  0  0  0  0  0  0  0  0  0
   25.9046  -21.2199   -9.8842 C   0  0  2  0  0  0  0  0  0  0  0  0
   25.3242  -21.2394  -11.1904 N   0  0  0  0  0  0  0  0  0  0  0  0
   24.8721  -21.0844   -8.7948 C   0  0  0  0  0  0  0  0  0  0  0  0
   23.5554  -20.7721   -9.0649 O   0  0  0  0  0  0  0  0  0  0  0  0
   25.1646  -21.2526   -7.5842 O   0  0  0  0  0  0  0  0  0  0  0  0
  2  1  1  0
  3  4  1  0
  3  2  1  0
  4  5  1  0
  5  6  1  1
  7  5  1  0
  7  9  1  0
  8  7  2  0
 10  9  1  0
 10 11  1  6
 11 12  1  0
 13 12  1  0
 14 13  1  0
 15 14  1  0
 16 10  1  0
 17 16  2  0
 19 18  1  0
 19 20  1  0
 20 22  1  0
 20 21  1  1
 22 23  1  6
 22 24  1  0
 23 16  1  0
 24 25  1  0
 26 24  2  0
M  END
$$$$
