MKI.pdb
     RDKit          3D

 26 25  0  0  1  0  0  0  0  0999 V2000
   16.8667  -12.9568  -15.6533 C   0  0  0  0  0  0  0  0  0  0  0  0
   16.7117  -11.1679  -15.3911 S   0  0  0  0  0  0  0  0  0  0  0  0
   17.3869  -10.7600  -13.7767 C   0  0  0  0  0  0  0  0  0  0  0  0
   17.1526   -9.2949  -13.4825 C   0  0  0  0  0  0  0  0  0  0  0  0
   17.7426   -8.9751  -12.1477 C   0  0  2  0  0  0  0  0  0  0  0  0
   17.7780  -10.1487  -11.3345 N   0  0  0  0  0  0  0  0  0  0  0  0
   16.9751   -7.8988  -11.4330 C   0  0  0  0  0  0  0  0  0  0  0  0
   16.8273   -6.7716  -11.9916 O   0  0  0  0  0  0  0  0  0  0  0  0
   16.4322   -8.1338  -10.1719 N   0  0  0  0  0  0  0  0  0  0  0  0
   15.5828   -7.2857   -9.3682 C   0  0  1  0  0  0  0  0  0  0  0  0
   14.7634   -8.0295   -8.3298 C   0  0  0  0  0  0  0  0  0  0  0  0
   13.4368   -8.3783   -8.9241 C   0  0  0  0  0  0  0  0  0  0  0  0
   12.5824   -9.2501   -8.0290 C   0  0  0  0  0  0  0  0  0  0  0  0
   11.2111   -9.3384   -8.6683 C   0  0  0  0  0  0  0  0  0  0  0  0
   10.3934  -10.2500   -7.8739 N   0  0  0  0  0  0  0  0  0  0  0  0
   16.2082   -6.0549   -8.9021 C   0  0  0  0  0  0  0  0  0  0  0  0
   17.3122   -6.0629   -8.2422 O   0  0  0  0  0  0  0  0  0  0  0  0
   18.5193   -1.0504  -10.6997 C   0  0  0  0  0  0  0  0  0  0  0  0
   17.7145   -1.6781   -9.5998 C   0  0  0  0  0  0  0  0  0  0  0  0
   17.1532   -3.0303  -10.0038 C   0  0  2  0  0  0  0  0  0  0  0  0
   16.2704   -2.8589  -11.2353 C   0  0  0  0  0  0  0  0  0  0  0  0
   16.3095   -3.5356   -8.8698 C   0  0  2  0  0  0  0  0  0  0  0  0
   15.6476   -4.7727   -9.1430 N   0  0  0  0  0  0  0  0  0  0  0  0
   15.3736   -2.4870   -8.3258 C   0  0  0  0  0  0  0  0  0  0  0  0
   15.8108   -1.4642   -7.5091 O   0  0  0  0  0  0  0  0  0  0  0  0
   14.1459   -2.4953   -8.5945 O   0  0  0  0  0  0  0  0  0  0  0  0
  2  1  1  0
  3  4  1  0
  3  2  1  0
  4  5  1  0
  5  6  1  1
  7  5  1  0
  7  9  1  0
  8  7  2  0
 10  9  1  0
 10 11  1  1
 11 12  1  0
 13 12  1  0
 14 13  1  0
 15 14  1  0
 16 10  1  0
 17 16  2  0
 19 18  1  0
 19 20  1  0
 20 22  1  0
 20 21  1  6
 22 23  1  6
 22 24  1  0
 23 16  1  0
 24 25  1  0
 26 24  2  0
M  END
$$$$
