MKI.pdb
     RDKit          3D

 26 25  0  0  1  0  0  0  0  0999 V2000
   32.4604  -21.0545   -9.1305 C   0  0  0  0  0  0  0  0  0  0  0  0
   32.9101  -22.5214  -10.0995 S   0  0  0  0  0  0  0  0  0  0  0  0
   32.7034  -22.1468  -11.8447 C   0  0  0  0  0  0  0  0  0  0  0  0
   31.6036  -21.1230  -12.0186 C   0  0  0  0  0  0  0  0  0  0  0  0
   30.3430  -21.8340  -12.3895 C   0  0  2  0  0  0  0  0  0  0  0  0
   30.4805  -22.4335  -13.6785 N   0  0  0  0  0  0  0  0  0  0  0  0
   29.1548  -20.9139  -12.3940 C   0  0  0  0  0  0  0  0  0  0  0  0
   28.8915  -20.2410  -11.3536 O   0  0  0  0  0  0  0  0  0  0  0  0
   28.3505  -20.8005  -13.5256 N   0  0  0  0  0  0  0  0  0  0  0  0
   27.0436  -20.2008  -13.6637 C   0  0  1  0  0  0  0  0  0  0  0  0
   26.6153  -19.9649  -15.1003 C   0  0  0  0  0  0  0  0  0  0  0  0
   25.2906  -19.2721  -15.0992 C   0  0  0  0  0  0  0  0  0  0  0  0
   24.7556  -18.9858  -16.4860 C   0  0  0  0  0  0  0  0  0  0  0  0
   23.4770  -18.1901  -16.3162 C   0  0  0  0  0  0  0  0  0  0  0  0
   22.9544  -17.8748  -17.6421 N   0  0  0  0  0  0  0  0  0  0  0  0
   26.0173  -20.7573  -12.7919 C   0  0  0  0  0  0  0  0  0  0  0  0
   25.5135  -21.9231  -12.9956 O   0  0  0  0  0  0  0  0  0  0  0  0
   26.4408  -19.9337   -7.5890 C   0  0  0  0  0  0  0  0  0  0  0  0
   26.0755  -20.5345   -8.9145 C   0  0  0  0  0  0  0  0  0  0  0  0
   24.6765  -20.1395   -9.3540 C   0  0  2  0  0  0  0  0  0  0  0  0
   23.6544  -20.8762   -8.4949 C   0  0  0  0  0  0  0  0  0  0  0  0
   24.5054  -20.5664  -10.7828 C   0  0  2  0  0  0  0  0  0  0  0  0
   25.5074  -20.0577  -11.6663 N   0  0  0  0  0  0  0  0  0  0  0  0
   23.1084  -20.3344  -11.2985 C   0  0  0  0  0  0  0  0  0  0  0  0
   22.0798  -21.2227  -11.0595 O   0  0  0  0  0  0  0  0  0  0  0  0
   22.8146  -19.3145  -11.9716 O   0  0  0  0  0  0  0  0  0  0  0  0
  2  1  1  0
  3  4  1  0
  3  2  1  0
  4  5  1  0
  5  6  1  6
  7  5  1  0
  7  9  1  0
  8  7  2  0
 10  9  1  0
 10 11  1  6
 11 12  1  0
 13 12  1  0
 14 13  1  0
 15 14  1  0
 16 10  1  0
 17 16  2  0
 19 18  1  0
 19 20  1  0
 20 22  1  0
 20 21  1  1
 22 23  1  6
 22 24  1  0
 23 16  1  0
 24 25  1  0
 26 24  2  0
M  END
$$$$
