MKI.pdb
     RDKit          3D

 26 25  0  0  1  0  0  0  0  0999 V2000
   17.2515  -31.0215   -6.2510 C   0  0  0  0  0  0  0  0  0  0  0  0
   17.8940  -30.2164   -4.7570 S   0  0  0  0  0  0  0  0  0  0  0  0
   17.2186  -28.5542   -4.6604 C   0  0  0  0  0  0  0  0  0  0  0  0
   17.5596  -27.9434   -3.3193 C   0  0  0  0  0  0  0  0  0  0  0  0
   17.0071  -26.5561   -3.2715 C   0  0  2  0  0  0  0  0  0  0  0  0
   17.7777  -25.6934   -4.1090 N   0  0  0  0  0  0  0  0  0  0  0  0
   16.9862  -26.0032   -1.8743 C   0  0  0  0  0  0  0  0  0  0  0  0
   17.8992  -25.2027   -1.5137 O   0  0  0  0  0  0  0  0  0  0  0  0
   15.9778  -26.3648   -0.9840 N   0  0  0  0  0  0  0  0  0  0  0  0
   15.7554  -25.9271    0.3745 C   0  0  1  0  0  0  0  0  0  0  0  0
   14.3331  -26.1215    0.8665 C   0  0  0  0  0  0  0  0  0  0  0  0
   14.1613  -25.3717    2.1484 C   0  0  0  0  0  0  0  0  0  0  0  0
   12.7607  -25.4560    2.7164 C   0  0  0  0  0  0  0  0  0  0  0  0
   12.7469  -24.6406    3.9938 C   0  0  0  0  0  0  0  0  0  0  0  0
   11.3753  -24.5916    4.4909 N   0  0  0  0  0  0  0  0  0  0  0  0
   16.7978  -26.3049    1.3199 C   0  0  0  0  0  0  0  0  0  0  0  0
   17.2475  -27.5079    1.3887 O   0  0  0  0  0  0  0  0  0  0  0  0
   21.3597  -24.1001    1.3182 C   0  0  0  0  0  0  0  0  0  0  0  0
   20.2113  -25.0233    1.6022 C   0  0  0  0  0  0  0  0  0  0  0  0
   19.6502  -24.8231    2.9992 C   0  0  2  0  0  0  0  0  0  0  0  0
   20.6902  -25.2616    4.0247 C   0  0  0  0  0  0  0  0  0  0  0  0
   18.4367  -25.6957    3.1369 C   0  0  2  0  0  0  0  0  0  0  0  0
   17.3850  -25.3788    2.2222 N   0  0  0  0  0  0  0  0  0  0  0  0
   17.9523  -25.8023    4.5601 C   0  0  0  0  0  0  0  0  0  0  0  0
   18.4170  -26.7731    5.4238 O   0  0  0  0  0  0  0  0  0  0  0  0
   17.1000  -25.0062    5.0282 O   0  0  0  0  0  0  0  0  0  0  0  0
  2  1  1  0
  3  4  1  0
  3  2  1  0
  4  5  1  0
  5  6  1  6
  7  5  1  0
  7  9  1  0
  8  7  2  0
 10  9  1  0
 10 11  1  1
 11 12  1  0
 13 12  1  0
 14 13  1  0
 15 14  1  0
 16 10  1  0
 17 16  2  0
 19 18  1  0
 19 20  1  0
 20 22  1  0
 20 21  1  1
 22 23  1  6
 22 24  1  0
 23 16  1  0
 24 25  1  0
 26 24  2  0
M  END
$$$$
