MKI.pdb
     RDKit          3D

 26 25  0  0  1  0  0  0  0  0999 V2000
   29.3052  -21.1684   -9.0928 C   0  0  0  0  0  0  0  0  0  0  0  0
   30.6337  -21.1302  -10.3284 S   0  0  0  0  0  0  0  0  0  0  0  0
   29.9538  -20.5592  -11.8905 C   0  0  0  0  0  0  0  0  0  0  0  0
   28.6492  -21.2724  -12.1686 C   0  0  0  0  0  0  0  0  0  0  0  0
   28.0144  -20.6553  -13.3722 C   0  0  2  0  0  0  0  0  0  0  0  0
   28.1350  -19.2335  -13.3142 N   0  0  0  0  0  0  0  0  0  0  0  0
   26.5636  -21.0259  -13.4992 C   0  0  0  0  0  0  0  0  0  0  0  0
   26.2426  -22.0324  -14.1981 O   0  0  0  0  0  0  0  0  0  0  0  0
   25.5813  -20.2741  -12.8587 N   0  0  0  0  0  0  0  0  0  0  0  0
   24.1480  -20.4534  -12.8550 C   0  0  1  0  0  0  0  0  0  0  0  0
   23.4883  -20.1699  -11.5181 C   0  0  0  0  0  0  0  0  0  0  0  0
   22.0873  -20.6903  -11.5535 C   0  0  0  0  0  0  0  0  0  0  0  0
   21.3297  -20.4788  -10.2602 C   0  0  0  0  0  0  0  0  0  0  0  0
   19.9714  -21.1301  -10.4265 C   0  0  0  0  0  0  0  0  0  0  0  0
   19.0441  -20.1291  -10.9450 N   0  0  0  0  0  0  0  0  0  0  0  0
   23.4580  -19.9089  -14.0171 C   0  0  0  0  0  0  0  0  0  0  0  0
   23.5058  -18.6572  -14.3094 O   0  0  0  0  0  0  0  0  0  0  0  0
   24.3443  -20.5906  -18.8199 C   0  0  0  0  0  0  0  0  0  0  0  0
   23.7706  -20.1641  -17.5007 C   0  0  0  0  0  0  0  0  0  0  0  0
   22.3318  -20.6196  -17.3301 C   0  0  2  0  0  0  0  0  0  0  0  0
   21.4587  -19.9218  -18.3675 C   0  0  0  0  0  0  0  0  0  0  0  0
   21.8783  -20.2077  -15.9597 C   0  0  2  0  0  0  0  0  0  0  0  0
   22.6924  -20.7155  -14.9001 N   0  0  0  0  0  0  0  0  0  0  0  0
   20.4098  -20.4574  -15.7309 C   0  0  0  0  0  0  0  0  0  0  0  0
   19.4766  -19.4416  -15.7712 O   0  0  0  0  0  0  0  0  0  0  0  0
   19.9656  -21.6089  -15.4937 O   0  0  0  0  0  0  0  0  0  0  0  0
  2  1  1  0
  3  4  1  0
  3  2  1  0
  4  5  1  0
  5  6  1  1
  7  5  1  0
  7  9  1  0
  8  7  2  0
 10  9  1  0
 10 11  1  1
 11 12  1  0
 13 12  1  0
 14 13  1  0
 15 14  1  0
 16 10  1  0
 17 16  2  0
 19 18  1  0
 19 20  1  0
 20 22  1  0
 20 21  1  6
 22 23  1  1
 22 24  1  0
 23 16  1  0
 24 25  1  0
 26 24  2  0
M  END
$$$$
