MKI.pdb
     RDKit          3D

 26 25  0  0  1  0  0  0  0  0999 V2000
   24.7599  -13.5130  -14.4670 C   0  0  0  0  0  0  0  0  0  0  0  0
   26.3537  -13.0153  -15.1778 S   0  0  0  0  0  0  0  0  0  0  0  0
   27.2217  -14.4860  -15.7365 C   0  0  0  0  0  0  0  0  0  0  0  0
   26.2990  -15.6820  -15.6584 C   0  0  0  0  0  0  0  0  0  0  0  0
   27.0980  -16.9192  -15.9096 C   0  0  2  0  0  0  0  0  0  0  0  0
   27.6009  -16.9139  -17.2463 N   0  0  0  0  0  0  0  0  0  0  0  0
   26.2921  -18.1680  -15.6872 C   0  0  0  0  0  0  0  0  0  0  0  0
   25.4786  -18.5451  -16.5819 O   0  0  0  0  0  0  0  0  0  0  0  0
   26.4346  -18.9037  -14.5130 N   0  0  0  0  0  0  0  0  0  0  0  0
   25.5805  -19.9335  -13.9683 C   0  0  1  0  0  0  0  0  0  0  0  0
   26.1589  -20.6484  -12.7612 C   0  0  0  0  0  0  0  0  0  0  0  0
   25.3382  -21.8671  -12.4854 C   0  0  0  0  0  0  0  0  0  0  0  0
   25.4377  -22.9218  -13.5667 C   0  0  0  0  0  0  0  0  0  0  0  0
   24.5157  -24.0572  -13.1695 C   0  0  0  0  0  0  0  0  0  0  0  0
   24.5860  -25.0866  -14.2020 N   0  0  0  0  0  0  0  0  0  0  0  0
   24.1732  -19.5713  -13.8615 C   0  0  0  0  0  0  0  0  0  0  0  0
   23.7564  -18.7181  -12.9940 O   0  0  0  0  0  0  0  0  0  0  0  0
   21.4156  -17.6723  -17.6318 C   0  0  0  0  0  0  0  0  0  0  0  0
   21.8465  -18.1253  -16.2677 C   0  0  0  0  0  0  0  0  0  0  0  0
   21.1197  -19.3844  -15.8285 C   0  0  2  0  0  0  0  0  0  0  0  0
   19.6643  -19.0437  -15.5268 C   0  0  0  0  0  0  0  0  0  0  0  0
   21.7725  -19.8771  -14.5698 C   0  0  2  0  0  0  0  0  0  0  0  0
   23.1733  -20.1297  -14.7011 N   0  0  0  0  0  0  0  0  0  0  0  0
   21.0335  -21.0305  -13.9414 C   0  0  0  0  0  0  0  0  0  0  0  0
   20.1470  -20.8546  -12.8985 O   0  0  0  0  0  0  0  0  0  0  0  0
   21.1903  -22.2112  -14.3422 O   0  0  0  0  0  0  0  0  0  0  0  0
  2  1  1  0
  3  4  1  0
  3  2  1  0
  4  5  1  0
  5  6  1  6
  7  5  1  0
  7  9  1  0
  8  7  2  0
 10  9  1  0
 10 11  1  1
 11 12  1  0
 13 12  1  0
 14 13  1  0
 15 14  1  0
 16 10  1  0
 17 16  2  0
 19 18  1  0
 19 20  1  0
 20 22  1  0
 20 21  1  1
 22 23  1  6
 22 24  1  0
 23 16  1  0
 24 25  1  0
 26 24  2  0
M  END
$$$$
