MKI.pdb
     RDKit          3D

 26 25  0  0  1  0  0  0  0  0999 V2000
   32.0408  -21.8107   -7.7300 C   0  0  0  0  0  0  0  0  0  0  0  0
   33.1660  -21.9045   -9.1507 S   0  0  0  0  0  0  0  0  0  0  0  0
   32.2065  -22.2743  -10.6242 C   0  0  0  0  0  0  0  0  0  0  0  0
   30.8167  -21.6936  -10.4856 C   0  0  0  0  0  0  0  0  0  0  0  0
   30.0160  -22.0782  -11.6869 C   0  0  2  0  0  0  0  0  0  0  0  0
   30.8659  -22.1763  -12.8305 N   0  0  0  0  0  0  0  0  0  0  0  0
   28.9138  -21.0968  -11.9700 C   0  0  0  0  0  0  0  0  0  0  0  0
   28.0719  -20.8350  -11.0606 O   0  0  0  0  0  0  0  0  0  0  0  0
   28.8155  -20.4815  -13.2158 N   0  0  0  0  0  0  0  0  0  0  0  0
   27.7343  -19.6983  -13.7675 C   0  0  1  0  0  0  0  0  0  0  0  0
   28.0508  -19.0545  -15.1047 C   0  0  0  0  0  0  0  0  0  0  0  0
   26.9195  -18.1541  -15.4844 C   0  0  0  0  0  0  0  0  0  0  0  0
   27.1356  -17.4299  -16.7960 C   0  0  0  0  0  0  0  0  0  0  0  0
   26.0184  -16.4153  -16.9355 C   0  0  0  0  0  0  0  0  0  0  0  0
   26.1052  -15.8187  -18.2649 N   0  0  0  0  0  0  0  0  0  0  0  0
   26.4175  -20.3146  -13.6699 C   0  0  0  0  0  0  0  0  0  0  0  0
   26.1693  -21.4687  -14.1805 O   0  0  0  0  0  0  0  0  0  0  0  0
   25.2086  -20.9050   -9.1428 C   0  0  0  0  0  0  0  0  0  0  0  0
   24.8557  -21.3203  -10.5409 C   0  0  0  0  0  0  0  0  0  0  0  0
   23.8431  -20.3834  -11.1761 C   0  0  2  0  0  0  0  0  0  0  0  0
   22.4389  -20.9302  -10.9427 C   0  0  0  0  0  0  0  0  0  0  0  0
   24.1104  -20.3499  -12.6527 C   0  0  2  0  0  0  0  0  0  0  0  0
   25.3270  -19.6895  -13.0093 N   0  0  0  0  0  0  0  0  0  0  0  0
   22.9299  -19.8563  -13.4490 C   0  0  0  0  0  0  0  0  0  0  0  0
   21.8557  -20.6683  -13.7509 O   0  0  0  0  0  0  0  0  0  0  0  0
   22.8688  -18.6754  -13.8748 O   0  0  0  0  0  0  0  0  0  0  0  0
  2  1  1  0
  3  4  1  0
  3  2  1  0
  4  5  1  0
  5  6  1  6
  7  5  1  0
  7  9  1  0
  8  7  2  0
 10  9  1  0
 10 11  1  6
 11 12  1  0
 13 12  1  0
 14 13  1  0
 15 14  1  0
 16 10  1  0
 17 16  2  0
 19 18  1  0
 19 20  1  0
 20 22  1  0
 20 21  1  6
 22 23  1  1
 22 24  1  0
 23 16  1  0
 24 25  1  0
 26 24  2  0
M  END
$$$$
