MKI.pdb
     RDKit          3D

 26 25  0  0  1  0  0  0  0  0999 V2000
   30.6375  -16.4389  -15.9077 C   0  0  0  0  0  0  0  0  0  0  0  0
   30.0267  -17.9905  -16.6236 S   0  0  0  0  0  0  0  0  0  0  0  0
   28.2301  -17.9658  -16.6087 C   0  0  0  0  0  0  0  0  0  0  0  0
   27.7347  -17.8390  -15.1852 C   0  0  0  0  0  0  0  0  0  0  0  0
   27.9013  -19.1572  -14.5020 C   0  0  2  0  0  0  0  0  0  0  0  0
   27.4110  -20.2067  -15.3373 N   0  0  0  0  0  0  0  0  0  0  0  0
   27.1903  -19.2025  -13.1788 C   0  0  0  0  0  0  0  0  0  0  0  0
   27.4164  -18.2943  -12.3253 O   0  0  0  0  0  0  0  0  0  0  0  0
   26.2938  -20.2291  -12.8907 N   0  0  0  0  0  0  0  0  0  0  0  0
   25.3496  -20.3419  -11.8034 C   0  0  1  0  0  0  0  0  0  0  0  0
   23.9934  -20.8877  -12.2103 C   0  0  0  0  0  0  0  0  0  0  0  0
   23.0671  -20.7944  -11.0407 C   0  0  0  0  0  0  0  0  0  0  0  0
   21.6753  -21.3162  -11.3270 C   0  0  0  0  0  0  0  0  0  0  0  0
   20.8414  -21.0691  -10.0859 C   0  0  0  0  0  0  0  0  0  0  0  0
   19.4914  -21.5654  -10.3351 N   0  0  0  0  0  0  0  0  0  0  0  0
   25.8965  -20.8911  -10.5695 C   0  0  0  0  0  0  0  0  0  0  0  0
   26.4245  -22.0630  -10.5242 O   0  0  0  0  0  0  0  0  0  0  0  0
   29.1470  -19.7746   -5.6392 C   0  0  0  0  0  0  0  0  0  0  0  0
   28.0619  -20.5578   -6.3180 C   0  0  0  0  0  0  0  0  0  0  0  0
   27.4753  -19.8111   -7.5034 C   0  0  2  0  0  0  0  0  0  0  0  0
   26.8380  -18.5151   -7.0138 C   0  0  0  0  0  0  0  0  0  0  0  0
   26.4090  -20.6760   -8.1099 C   0  0  2  0  0  0  0  0  0  0  0  0
   25.8854  -20.1762   -9.3426 N   0  0  0  0  0  0  0  0  0  0  0  0
   25.3258  -21.0427   -7.1282 C   0  0  0  0  0  0  0  0  0  0  0  0
   25.5727  -21.8289   -6.0213 O   0  0  0  0  0  0  0  0  0  0  0  0
   24.1424  -20.6452   -7.2728 O   0  0  0  0  0  0  0  0  0  0  0  0
  2  1  1  0
  3  4  1  0
  3  2  1  0
  4  5  1  0
  5  6  1  6
  7  5  1  0
  7  9  1  0
  8  7  2  0
 10  9  1  0
 10 11  1  6
 11 12  1  0
 13 12  1  0
 14 13  1  0
 15 14  1  0
 16 10  1  0
 17 16  2  0
 19 18  1  0
 19 20  1  0
 20 22  1  0
 20 21  1  1
 22 23  1  6
 22 24  1  0
 23 16  1  0
 24 25  1  0
 26 24  2  0
M  END
$$$$
