MKI.pdb
     RDKit          3D

 26 25  0  0  1  0  0  0  0  0999 V2000
   30.0079  -14.4494  -18.7054 C   0  0  0  0  0  0  0  0  0  0  0  0
   31.2984  -15.6384  -18.2428 S   0  0  0  0  0  0  0  0  0  0  0  0
   30.5640  -17.2746  -18.1330 C   0  0  0  0  0  0  0  0  0  0  0  0
   29.2550  -17.1953  -17.3792 C   0  0  0  0  0  0  0  0  0  0  0  0
   28.8041  -18.5829  -17.0572 C   0  0  2  0  0  0  0  0  0  0  0  0
   28.6649  -19.3432  -18.2582 N   0  0  0  0  0  0  0  0  0  0  0  0
   27.5015  -18.5949  -16.3080 C   0  0  0  0  0  0  0  0  0  0  0  0
   27.4075  -17.9478  -15.2232 O   0  0  0  0  0  0  0  0  0  0  0  0
   26.4094  -19.3081  -16.7968 N   0  0  0  0  0  0  0  0  0  0  0  0
   25.1216  -19.5430  -16.1860 C   0  0  1  0  0  0  0  0  0  0  0  0
   24.0093  -19.8435  -17.1737 C   0  0  0  0  0  0  0  0  0  0  0  0
   23.1728  -18.6163  -17.3434 C   0  0  0  0  0  0  0  0  0  0  0  0
   23.7815  -17.5927  -18.2779 C   0  0  0  0  0  0  0  0  0  0  0  0
   22.8108  -16.4319  -18.3625 C   0  0  0  0  0  0  0  0  0  0  0  0
   23.4452  -15.3590  -19.1222 N   0  0  0  0  0  0  0  0  0  0  0  0
   25.1490  -20.3925  -15.0025 C   0  0  0  0  0  0  0  0  0  0  0  0
   26.1122  -21.2154  -14.7805 O   0  0  0  0  0  0  0  0  0  0  0  0
   26.3596  -21.0590   -9.6572 C   0  0  0  0  0  0  0  0  0  0  0  0
   25.3558  -21.5221  -10.6719 C   0  0  0  0  0  0  0  0  0  0  0  0
   25.3795  -20.6694  -11.9284 C   0  0  2  0  0  0  0  0  0  0  0  0
   25.2589  -19.1999  -11.5394 C   0  0  0  0  0  0  0  0  0  0  0  0
   24.1914  -21.0481  -12.7639 C   0  0  2  0  0  0  0  0  0  0  0  0
   24.1235  -20.3703  -14.0205 N   0  0  0  0  0  0  0  0  0  0  0  0
   22.8943  -20.9799  -11.9995 C   0  0  0  0  0  0  0  0  0  0  0  0
   22.4688  -22.0062  -11.1809 O   0  0  0  0  0  0  0  0  0  0  0  0
   22.1380  -19.9788  -12.0716 O   0  0  0  0  0  0  0  0  0  0  0  0
  2  1  1  0
  3  4  1  0
  3  2  1  0
  4  5  1  0
  5  6  1  6
  7  5  1  0
  7  9  1  0
  8  7  2  0
 10  9  1  0
 10 11  1  6
 11 12  1  0
 13 12  1  0
 14 13  1  0
 15 14  1  0
 16 10  1  0
 17 16  2  0
 19 18  1  0
 19 20  1  0
 20 22  1  0
 20 21  1  1
 22 23  1  6
 22 24  1  0
 23 16  1  0
 24 25  1  0
 26 24  2  0
M  END
$$$$
