YQM.pdb
     RDKit          3D

 30 30  0  0  1  0  0  0  0  0999 V2000
   25.5366  -17.6048  -25.1237 O   0  0  0  0  0  0  0  0  0  0  0  0
   25.0606  -18.1474  -23.9162 C   0  0  0  0  0  0  0  0  0  0  0  0
   23.7667  -17.9118  -23.5145 C   0  0  0  0  0  0  0  0  0  0  0  0
   23.3141  -18.4616  -22.3095 C   0  0  0  0  0  0  0  0  0  0  0  0
   24.1461  -19.2323  -21.5248 C   0  0  0  0  0  0  0  0  0  0  0  0
   23.6496  -19.8023  -20.2551 C   0  0  0  0  0  0  0  0  0  0  0  0
   23.8409  -18.8469  -19.0929 C   0  0  2  0  0  0  0  0  0  0  0  0
   25.2856  -18.6667  -18.8391 N   0  0  0  0  0  0  0  0  0  0  0  0
   23.1490  -19.3153  -17.8952 C   0  0  0  0  0  0  0  0  0  0  0  0
   23.6521  -20.0772  -17.0149 O   0  0  0  0  0  0  0  0  0  0  0  0
   25.4319  -19.4497  -21.9525 C   0  0  0  0  0  0  0  0  0  0  0  0
   25.9089  -18.9116  -23.1527 C   0  0  0  0  0  0  0  0  0  0  0  0
   20.3027  -16.1552  -13.6854 N   0  0  0  0  0  0  0  0  0  0  0  0
   19.8390  -17.4549  -13.3232 C   0  0  0  0  0  0  0  0  0  0  0  0
   19.2632  -17.5906  -12.2358 O   0  0  0  0  0  0  0  0  0  0  0  0
   20.0705  -18.5491  -14.2452 C   0  0  0  0  0  0  0  0  0  0  0  0
   20.8692  -18.1647  -15.4504 C   0  0  0  0  0  0  0  0  0  0  0  0
   21.0871  -19.2565  -16.4643 C   0  0  2  0  0  0  0  0  0  0  0  0
   21.8010  -18.9227  -17.6294 N   0  0  0  0  0  0  0  0  0  0  0  0
   19.7366  -19.8391  -16.7274 C   0  0  0  0  0  0  0  0  0  0  0  0
   18.9932  -19.2136  -17.5185 O   0  0  0  0  0  0  0  0  0  0  0  0
   15.2014  -26.2695  -17.3787 C   0  0  0  0  0  0  0  0  0  0  0  0
   16.7877  -25.5563  -16.8076 S   0  0  0  0  0  0  0  0  0  0  0  0
   16.7417  -23.7768  -16.8072 C   0  0  0  0  0  0  0  0  0  0  0  0
   18.0026  -23.0553  -16.5497 C   0  0  0  0  0  0  0  0  0  0  0  0
   17.9158  -21.5948  -16.3946 C   0  0  2  0  0  0  0  0  0  0  0  0
   19.2556  -21.0221  -16.1550 N   0  0  0  0  0  0  0  0  0  0  0  0
   16.9748  -21.0013  -15.4699 C   0  0  0  0  0  0  0  0  0  0  0  0
   15.6109  -20.8670  -15.6175 O   0  0  0  0  0  0  0  0  0  0  0  0
   17.4284  -20.5240  -14.3651 O   0  0  0  0  0  0  0  0  0  0  0  0
  2  1  1  0
  3  2  2  0
  4  3  1  0
  5  4  2  0
  5 11  1  0
  6  5  1  0
  7  6  1  0
  7  9  1  0
  7  8  1  1
  9 10  2  0
 11 12  2  0
 12  2  1  0
 13 14  1  0
 14 15  2  0
 16 17  1  0
 16 14  1  0
 18 17  1  1
 19 18  1  0
 19  9  1  0
 20 18  1  0
 20 21  2  0
 23 22  1  0
 23 24  1  0
 24 25  1  0
 26 25  1  1
 26 27  1  0
 26 28  1  0
 27 20  1  0
 28 30  2  0
 28 29  1  0
M  END
$$$$
