YQM.pdb
     RDKit          3D

 30 30  0  0  1  0  0  0  0  0999 V2000
   27.8624  -19.6346   -4.1650 O   0  0  0  0  0  0  0  0  0  0  0  0
   27.5483  -19.6301   -5.5362 C   0  0  0  0  0  0  0  0  0  0  0  0
   28.3319  -18.9299   -6.4231 C   0  0  0  0  0  0  0  0  0  0  0  0
   28.0008  -18.9393   -7.7830 C   0  0  0  0  0  0  0  0  0  0  0  0
   26.9040  -19.6387   -8.2412 C   0  0  0  0  0  0  0  0  0  0  0  0
   26.5704  -19.6347   -9.6807 C   0  0  0  0  0  0  0  0  0  0  0  0
   26.8231  -20.9848  -10.3239 C   0  0  2  0  0  0  0  0  0  0  0  0
   28.2170  -21.3996  -10.0616 N   0  0  0  0  0  0  0  0  0  0  0  0
   26.5414  -20.9565  -11.7565 C   0  0  0  0  0  0  0  0  0  0  0  0
   27.3674  -20.6095  -12.6541 O   0  0  0  0  0  0  0  0  0  0  0  0
   26.1415  -20.3279   -7.3318 C   0  0  0  0  0  0  0  0  0  0  0  0
   26.4508  -20.3346   -5.9674 C   0  0  0  0  0  0  0  0  0  0  0  0
   27.3374  -24.8004  -15.1798 N   0  0  0  0  0  0  0  0  0  0  0  0
   27.7031  -23.4815  -15.5824 C   0  0  0  0  0  0  0  0  0  0  0  0
   28.6926  -23.3443  -16.3135 O   0  0  0  0  0  0  0  0  0  0  0  0
   26.8998  -22.3710  -15.1106 C   0  0  0  0  0  0  0  0  0  0  0  0
   25.7688  -22.7791  -14.2204 C   0  0  0  0  0  0  0  0  0  0  0  0
   24.9864  -21.6514  -13.6009 C   0  0  2  0  0  0  0  0  0  0  0  0
   25.2586  -21.3388  -12.2567 N   0  0  0  0  0  0  0  0  0  0  0  0
   23.5498  -21.9595  -13.8723 C   0  0  0  0  0  0  0  0  0  0  0  0
   23.1176  -23.0601  -13.4584 O   0  0  0  0  0  0  0  0  0  0  0  0
   19.1664  -18.3629   -9.4805 C   0  0  0  0  0  0  0  0  0  0  0  0
   20.7296  -18.9581  -10.2242 S   0  0  0  0  0  0  0  0  0  0  0  0
   20.4860  -19.5188  -11.8961 C   0  0  0  0  0  0  0  0  0  0  0  0
   21.6506  -20.0714  -12.6138 C   0  0  0  0  0  0  0  0  0  0  0  0
   21.4210  -20.5579  -13.9832 C   0  0  2  0  0  0  0  0  0  0  0  0
   22.6683  -21.1091  -14.5495 N   0  0  0  0  0  0  0  0  0  0  0  0
   20.7830  -19.7168  -14.9722 C   0  0  0  0  0  0  0  0  0  0  0  0
   21.3794  -18.8309  -15.8437 O   0  0  0  0  0  0  0  0  0  0  0  0
   19.5024  -19.7694  -15.0787 O   0  0  0  0  0  0  0  0  0  0  0  0
  2  1  1  0
  3  2  2  0
  4  3  1  0
  5  4  2  0
  5 11  1  0
  6  5  1  0
  7  6  1  0
  7  9  1  0
  7  8  1  6
  9 10  2  0
 11 12  2  0
 12  2  1  0
 13 14  1  0
 14 15  2  0
 16 17  1  0
 16 14  1  0
 18 17  1  1
 19 18  1  0
 19  9  1  0
 20 18  1  0
 20 21  2  0
 23 22  1  0
 23 24  1  0
 24 25  1  0
 26 25  1  1
 26 27  1  0
 26 28  1  0
 27 20  1  0
 28 30  2  0
 28 29  1  0
M  END
$$$$
