YQM.pdb
     RDKit          3D

 30 30  0  0  1  0  0  0  0  0999 V2000
   33.0042  -21.9991  -11.2164 O   0  0  0  0  0  0  0  0  0  0  0  0
   31.6534  -21.6669  -11.4262 C   0  0  0  0  0  0  0  0  0  0  0  0
   31.2782  -20.9763  -12.5545 C   0  0  0  0  0  0  0  0  0  0  0  0
   29.9286  -20.6563  -12.7430 C   0  0  0  0  0  0  0  0  0  0  0  0
   28.9764  -21.0235  -11.8155 C   0  0  0  0  0  0  0  0  0  0  0  0
   27.5569  -20.6747  -12.0323 C   0  0  0  0  0  0  0  0  0  0  0  0
   26.6790  -21.9079  -12.1252 C   0  0  2  0  0  0  0  0  0  0  0  0
   27.1306  -22.7472  -13.2546 N   0  0  0  0  0  0  0  0  0  0  0  0
   25.2692  -21.5525  -12.2623 C   0  0  0  0  0  0  0  0  0  0  0  0
   24.5368  -21.8492  -13.2543 O   0  0  0  0  0  0  0  0  0  0  0  0
   29.3818  -21.7121  -10.6998 C   0  0  0  0  0  0  0  0  0  0  0  0
   30.7242  -22.0441  -10.4876 C   0  0  0  0  0  0  0  0  0  0  0  0
   20.1818  -21.0592   -9.3781 N   0  0  0  0  0  0  0  0  0  0  0  0
   21.2638  -21.4918   -8.5550 C   0  0  0  0  0  0  0  0  0  0  0  0
   21.0244  -22.2988   -7.6474 O   0  0  0  0  0  0  0  0  0  0  0  0
   22.5857  -20.9603   -8.8217 C   0  0  0  0  0  0  0  0  0  0  0  0
   22.6285  -19.9913   -9.9607 C   0  0  0  0  0  0  0  0  0  0  0  0
   23.2242  -20.5148  -11.2408 C   0  0  2  0  0  0  0  0  0  0  0  0
   24.5981  -20.8167  -11.2376 N   0  0  0  0  0  0  0  0  0  0  0  0
   22.8199  -19.5434  -12.3016 C   0  0  0  0  0  0  0  0  0  0  0  0
   23.4658  -18.4718  -12.3655 O   0  0  0  0  0  0  0  0  0  0  0  0
   26.0919  -18.7270  -16.2336 C   0  0  0  0  0  0  0  0  0  0  0  0
   24.7260  -18.9516  -17.4315 S   0  0  0  0  0  0  0  0  0  0  0  0
   23.1366  -18.8570  -16.6356 C   0  0  0  0  0  0  0  0  0  0  0  0
   23.0256  -19.3682  -15.2561 C   0  0  0  0  0  0  0  0  0  0  0  0
   21.7302  -19.1917  -14.5813 C   0  0  2  0  0  0  0  0  0  0  0  0
   21.7807  -19.7510  -13.2157 N   0  0  0  0  0  0  0  0  0  0  0  0
   20.4993  -19.6069  -15.2179 C   0  0  0  0  0  0  0  0  0  0  0  0
   19.8365  -18.9967  -16.2612 O   0  0  0  0  0  0  0  0  0  0  0  0
   19.9183  -20.6682  -14.7817 O   0  0  0  0  0  0  0  0  0  0  0  0
  2  1  1  0
  3  2  2  0
  4  3  1  0
  5  4  2  0
  5 11  1  0
  6  5  1  0
  7  6  1  0
  7  9  1  0
  7  8  1  6
  9 10  2  0
 11 12  2  0
 12  2  1  0
 13 14  1  0
 14 15  2  0
 16 17  1  0
 16 14  1  0
 18 17  1  1
 19 18  1  0
 19  9  1  0
 20 18  1  0
 20 21  2  0
 23 22  1  0
 23 24  1  0
 24 25  1  0
 26 25  1  6
 26 27  1  0
 26 28  1  0
 27 20  1  0
 28 30  2  0
 28 29  1  0
M  END
$$$$
