YQM.pdb
     RDKit          3D

 30 30  0  0  1  0  0  0  0  0999 V2000
   29.8413  -15.3591  -18.8793 O   0  0  0  0  0  0  0  0  0  0  0  0
   29.0350  -16.3134  -18.2328 C   0  0  0  0  0  0  0  0  0  0  0  0
   28.3998  -17.2907  -18.9624 C   0  0  0  0  0  0  0  0  0  0  0  0
   27.6024  -18.2301  -18.2985 C   0  0  0  0  0  0  0  0  0  0  0  0
   27.4473  -18.1872  -16.9287 C   0  0  0  0  0  0  0  0  0  0  0  0
   26.5998  -19.1872  -16.2468 C   0  0  0  0  0  0  0  0  0  0  0  0
   27.4279  -20.2293  -15.5198 C   0  0  2  0  0  0  0  0  0  0  0  0
   28.1977  -21.0179  -16.5044 N   0  0  0  0  0  0  0  0  0  0  0  0
   26.5928  -21.0926  -14.6890 C   0  0  0  0  0  0  0  0  0  0  0  0
   26.0070  -22.1435  -15.0902 O   0  0  0  0  0  0  0  0  0  0  0  0
   28.0940  -17.2001  -16.2281 C   0  0  0  0  0  0  0  0  0  0  0  0
   28.8966  -16.2492  -16.8677 C   0  0  0  0  0  0  0  0  0  0  0  0
   24.6615  -21.2944   -8.6337 N   0  0  0  0  0  0  0  0  0  0  0  0
   25.6641  -20.3585   -9.0264 C   0  0  0  0  0  0  0  0  0  0  0  0
   25.9013  -19.4032   -8.2757 O   0  0  0  0  0  0  0  0  0  0  0  0
   26.3489  -20.5725  -10.2858 C   0  0  0  0  0  0  0  0  0  0  0  0
   25.8190  -21.7295  -11.0725 C   0  0  0  0  0  0  0  0  0  0  0  0
   25.4226  -21.4257  -12.4931 C   0  0  2  0  0  0  0  0  0  0  0  0
   26.3778  -20.7923  -13.3086 N   0  0  0  0  0  0  0  0  0  0  0  0
   24.1229  -20.6943  -12.4024 C   0  0  0  0  0  0  0  0  0  0  0  0
   24.1651  -19.4469  -12.5116 O   0  0  0  0  0  0  0  0  0  0  0  0
   19.6307  -19.2825  -17.7094 C   0  0  0  0  0  0  0  0  0  0  0  0
   20.7461  -20.4788  -16.8874 S   0  0  0  0  0  0  0  0  0  0  0  0
   21.0972  -19.9986  -15.2096 C   0  0  0  0  0  0  0  0  0  0  0  0
   21.9645  -20.8823  -14.4074 C   0  0  0  0  0  0  0  0  0  0  0  0
   21.6552  -20.9982  -12.9737 C   0  0  2  0  0  0  0  0  0  0  0  0
   22.8789  -21.3047  -12.2063 N   0  0  0  0  0  0  0  0  0  0  0  0
   20.5812  -21.8507  -12.5128 C   0  0  0  0  0  0  0  0  0  0  0  0
   19.2893  -21.4901  -12.1950 O   0  0  0  0  0  0  0  0  0  0  0  0
   20.8233  -23.1049  -12.3632 O   0  0  0  0  0  0  0  0  0  0  0  0
  2  1  1  0
  3  2  2  0
  4  3  1  0
  5  4  2  0
  5 11  1  0
  6  5  1  0
  7  6  1  0
  7  9  1  0
  7  8  1  6
  9 10  2  0
 11 12  2  0
 12  2  1  0
 13 14  1  0
 14 15  2  0
 16 17  1  0
 16 14  1  0
 18 17  1  1
 19 18  1  0
 19  9  1  0
 20 18  1  0
 20 21  2  0
 23 22  1  0
 23 24  1  0
 24 25  1  0
 26 25  1  6
 26 27  1  0
 26 28  1  0
 27 20  1  0
 28 30  2  0
 28 29  1  0
M  END
$$$$
