YQM.pdb
     RDKit          3D

 30 30  0  0  1  0  0  0  0  0999 V2000
   17.0856  -16.0619  -20.6770 O   0  0  0  0  0  0  0  0  0  0  0  0
   17.7371  -15.0529  -19.9446 C   0  0  0  0  0  0  0  0  0  0  0  0
   18.5831  -15.3840  -18.9124 C   0  0  0  0  0  0  0  0  0  0  0  0
   19.2209  -14.3638  -18.1971 C   0  0  0  0  0  0  0  0  0  0  0  0
   19.0119  -13.0379  -18.5138 C   0  0  0  0  0  0  0  0  0  0  0  0
   19.6935  -11.9757  -17.7454 C   0  0  0  0  0  0  0  0  0  0  0  0
   21.1067  -11.7366  -18.2415 C   0  0  2  0  0  0  0  0  0  0  0  0
   21.9166  -12.9526  -18.0191 N   0  0  0  0  0  0  0  0  0  0  0  0
   21.7113  -10.5744  -17.5961 C   0  0  0  0  0  0  0  0  0  0  0  0
   22.7637  -10.5999  -16.8889 O   0  0  0  0  0  0  0  0  0  0  0  0
   18.1621  -12.7392  -19.5492 C   0  0  0  0  0  0  0  0  0  0  0  0
   17.5122  -13.7399  -20.2797 C   0  0  0  0  0  0  0  0  0  0  0  0
   25.4367   -6.8653  -18.7869 N   0  0  0  0  0  0  0  0  0  0  0  0
   24.9459   -6.1198  -17.6739 C   0  0  0  0  0  0  0  0  0  0  0  0
   25.6352   -5.1863  -17.2430 O   0  0  0  0  0  0  0  0  0  0  0  0
   23.6682   -6.4975  -17.1030 C   0  0  0  0  0  0  0  0  0  0  0  0
   23.0584   -7.7084  -17.7355 C   0  0  0  0  0  0  0  0  0  0  0  0
   21.6925   -8.0908  -17.2299 C   0  0  2  0  0  0  0  0  0  0  0  0
   21.1272   -9.2773  -17.7314 N   0  0  0  0  0  0  0  0  0  0  0  0
   20.8363   -6.8821  -17.4253 C   0  0  0  0  0  0  0  0  0  0  0  0
   20.6633   -6.4938  -18.6038 O   0  0  0  0  0  0  0  0  0  0  0  0
   13.8919   -3.8421  -16.4698 C   0  0  0  0  0  0  0  0  0  0  0  0
   15.1195   -5.1698  -16.1843 S   0  0  0  0  0  0  0  0  0  0  0  0
   16.7814   -4.5928  -16.4564 C   0  0  0  0  0  0  0  0  0  0  0  0
   17.8747   -5.5803  -16.3778 C   0  0  0  0  0  0  0  0  0  0  0  0
   19.2429   -5.0782  -16.5793 C   0  0  2  0  0  0  0  0  0  0  0  0
   20.2234   -6.1660  -16.3907 N   0  0  0  0  0  0  0  0  0  0  0  0
   19.7087   -3.8957  -15.8883 C   0  0  0  0  0  0  0  0  0  0  0  0
   19.3173   -2.5889  -16.0856 O   0  0  0  0  0  0  0  0  0  0  0  0
   20.6019   -4.0393  -14.9741 O   0  0  0  0  0  0  0  0  0  0  0  0
  2  1  1  0
  3  2  2  0
  4  3  1  0
  5  4  2  0
  5 11  1  0
  6  5  1  0
  7  6  1  0
  7  9  1  0
  7  8  1  1
  9 10  2  0
 11 12  2  0
 12  2  1  0
 13 14  1  0
 14 15  2  0
 16 17  1  0
 16 14  1  0
 18 17  1  6
 19 18  1  0
 19  9  1  0
 20 18  1  0
 20 21  2  0
 23 22  1  0
 23 24  1  0
 24 25  1  0
 26 25  1  1
 26 27  1  0
 26 28  1  0
 27 20  1  0
 28 30  2  0
 28 29  1  0
M  END
$$$$
