YQM.pdb
     RDKit          3D

 30 30  0  0  1  0  0  0  0  0999 V2000
   33.7044  -23.1239  -22.6142 O   0  0  0  0  0  0  0  0  0  0  0  0
   32.9456  -23.5681  -21.5161 C   0  0  0  0  0  0  0  0  0  0  0  0
   33.5553  -23.8141  -20.3083 C   0  0  0  0  0  0  0  0  0  0  0  0
   32.7809  -24.2555  -19.2290 C   0  0  0  0  0  0  0  0  0  0  0  0
   31.4215  -24.4454  -19.3621 C   0  0  0  0  0  0  0  0  0  0  0  0
   30.6219  -24.9134  -18.2110 C   0  0  0  0  0  0  0  0  0  0  0  0
   29.6550  -23.8511  -17.7244 C   0  0  2  0  0  0  0  0  0  0  0  0
   30.4163  -22.6882  -17.2224 N   0  0  0  0  0  0  0  0  0  0  0  0
   28.7551  -24.3748  -16.7004 C   0  0  0  0  0  0  0  0  0  0  0  0
   28.6971  -23.9626  -15.5024 O   0  0  0  0  0  0  0  0  0  0  0  0
   30.8420  -24.1913  -20.5799 C   0  0  0  0  0  0  0  0  0  0  0  0
   31.5933  -23.7495  -21.6744 C   0  0  0  0  0  0  0  0  0  0  0  0
   24.9292  -22.2318  -14.9231 N   0  0  0  0  0  0  0  0  0  0  0  0
   24.1407  -23.4031  -14.7188 C   0  0  0  0  0  0  0  0  0  0  0  0
   23.2431  -23.3650  -13.8672 O   0  0  0  0  0  0  0  0  0  0  0  0
   24.4350  -24.5776  -15.5156 C   0  0  0  0  0  0  0  0  0  0  0  0
   25.6484  -24.4334  -16.3787 C   0  0  0  0  0  0  0  0  0  0  0  0
   26.5915  -25.6073  -16.3800 C   0  0  2  0  0  0  0  0  0  0  0  0
   27.8410  -25.4310  -17.0017 N   0  0  0  0  0  0  0  0  0  0  0  0
   25.8042  -26.7576  -16.9179 C   0  0  0  0  0  0  0  0  0  0  0  0
   25.3633  -26.6468  -18.0854 O   0  0  0  0  0  0  0  0  0  0  0  0
   29.2903  -32.3834  -16.9584 C   0  0  0  0  0  0  0  0  0  0  0  0
   27.7059  -32.0765  -16.0943 S   0  0  0  0  0  0  0  0  0  0  0  0
   26.9044  -30.6075  -16.7013 C   0  0  0  0  0  0  0  0  0  0  0  0
   25.5152  -30.3542  -16.2737 C   0  0  0  0  0  0  0  0  0  0  0  0
   24.8748  -29.1293  -16.7778 C   0  0  2  0  0  0  0  0  0  0  0  0
   25.5318  -27.9344  -16.2112 N   0  0  0  0  0  0  0  0  0  0  0  0
   23.4400  -28.9591  -16.7074 C   0  0  0  0  0  0  0  0  0  0  0  0
   22.7361  -27.9285  -16.1223 O   0  0  0  0  0  0  0  0  0  0  0  0
   22.6948  -29.8620  -17.2400 O   0  0  0  0  0  0  0  0  0  0  0  0
  2  1  1  0
  3  2  2  0
  4  3  1  0
  5  4  2  0
  5 11  1  0
  6  5  1  0
  7  6  1  0
  7  9  1  0
  7  8  1  1
  9 10  2  0
 11 12  2  0
 12  2  1  0
 13 14  1  0
 14 15  2  0
 16 17  1  0
 16 14  1  0
 18 17  1  6
 19 18  1  0
 19  9  1  0
 20 18  1  0
 20 21  2  0
 23 22  1  0
 23 24  1  0
 24 25  1  0
 26 25  1  1
 26 27  1  0
 26 28  1  0
 27 20  1  0
 28 30  2  0
 28 29  1  0
M  END
$$$$
