YQM.pdb
     RDKit          3D

 30 30  0  0  1  0  0  0  0  0999 V2000
   27.3494  -27.7688  -17.2165 O   0  0  0  0  0  0  0  0  0  0  0  0
   26.6056  -26.6104  -16.9269 C   0  0  0  0  0  0  0  0  0  0  0  0
   26.7121  -25.5008  -17.7321 C   0  0  0  0  0  0  0  0  0  0  0  0
   25.9627  -24.3591  -17.4253 C   0  0  0  0  0  0  0  0  0  0  0  0
   25.1236  -24.3343  -16.3311 C   0  0  0  0  0  0  0  0  0  0  0  0
   24.3422  -23.1185  -16.0233 C   0  0  0  0  0  0  0  0  0  0  0  0
   25.2257  -21.9863  -15.5356 C   0  0  2  0  0  0  0  0  0  0  0  0
   25.9527  -22.4190  -14.3238 N   0  0  0  0  0  0  0  0  0  0  0  0
   24.4518  -20.7741  -15.2822 C   0  0  0  0  0  0  0  0  0  0  0  0
   24.0965  -20.3635  -14.1360 O   0  0  0  0  0  0  0  0  0  0  0  0
   25.0387  -25.4572  -15.5467 C   0  0  0  0  0  0  0  0  0  0  0  0
   25.7769  -26.6110  -15.8314 C   0  0  0  0  0  0  0  0  0  0  0  0
   23.7825  -15.8410  -19.3003 N   0  0  0  0  0  0  0  0  0  0  0  0
   22.8919  -15.4960  -18.2405 C   0  0  0  0  0  0  0  0  0  0  0  0
   22.3425  -14.3873  -18.2732 O   0  0  0  0  0  0  0  0  0  0  0  0
   22.6810  -16.4598  -17.1786 C   0  0  0  0  0  0  0  0  0  0  0  0
   23.4586  -17.7264  -17.3492 C   0  0  0  0  0  0  0  0  0  0  0  0
   23.3764  -18.7018  -16.2049 C   0  0  2  0  0  0  0  0  0  0  0  0
   24.0308  -19.9371  -16.3611 N   0  0  0  0  0  0  0  0  0  0  0  0
   21.9229  -18.8229  -15.8808 C   0  0  0  0  0  0  0  0  0  0  0  0
   21.2992  -19.7684  -16.4161 O   0  0  0  0  0  0  0  0  0  0  0  0
   16.7639  -20.0966  -10.4406 C   0  0  0  0  0  0  0  0  0  0  0  0
   18.4724  -19.9429  -11.0798 S   0  0  0  0  0  0  0  0  0  0  0  0
   18.5108  -19.0961  -12.6451 C   0  0  0  0  0  0  0  0  0  0  0  0
   19.8287  -18.8365  -13.2555 C   0  0  0  0  0  0  0  0  0  0  0  0
   19.8368  -18.1681  -14.5662 C   0  0  2  0  0  0  0  0  0  0  0  0
   21.2234  -17.9601  -15.0293 N   0  0  0  0  0  0  0  0  0  0  0  0
   19.0773  -16.9568  -14.7863 C   0  0  0  0  0  0  0  0  0  0  0  0
   17.7083  -16.8171  -14.8668 O   0  0  0  0  0  0  0  0  0  0  0  0
   19.7226  -15.8543  -14.9353 O   0  0  0  0  0  0  0  0  0  0  0  0
  2  1  1  0
  3  2  2  0
  4  3  1  0
  5  4  2  0
  5 11  1  0
  6  5  1  0
  7  6  1  0
  7  9  1  0
  7  8  1  1
  9 10  2  0
 11 12  2  0
 12  2  1  0
 13 14  1  0
 14 15  2  0
 16 17  1  0
 16 14  1  0
 18 17  1  6
 19 18  1  0
 19  9  1  0
 20 18  1  0
 20 21  2  0
 23 22  1  0
 23 24  1  0
 24 25  1  0
 26 25  1  1
 26 27  1  0
 26 28  1  0
 27 20  1  0
 28 30  2  0
 28 29  1  0
M  END
$$$$
