AIN.pdb
     RDKit          3D

 22 21  0  0  1  0  0  0  0  0999 V2000
    8.7096  -19.2530   17.7366 C   0  0  0  0  0  0  0  0  0  0  0  0
    8.8789  -17.8269   17.2311 C   0  0  2  0  0  0  0  0  0  0  0  0
    9.7822  -17.8019   16.1220 N   0  0  0  0  0  0  0  0  0  0  0  0
    9.4033  -17.0007   18.3689 C   0  0  0  0  0  0  0  0  0  0  0  0
   10.6512  -16.9465   18.5558 O   0  0  0  0  0  0  0  0  0  0  0  0
    6.4885  -12.6990   19.8651 C   0  0  0  0  0  0  0  0  0  0  0  0
    7.6766  -13.5803   19.5230 C   0  0  0  0  0  0  0  0  0  0  0  0
    8.0829  -14.4578   20.6379 C   0  0  2  0  0  0  0  0  0  0  0  0
    8.5517  -13.7023   21.8629 C   0  0  0  0  0  0  0  0  0  0  0  0
    9.1999  -15.3963   20.2562 C   0  0  2  0  0  0  0  0  0  0  0  0
    8.5585  -16.2795   19.2418 N   0  0  0  0  0  0  0  0  0  0  0  0
    9.7438  -16.2079   21.3379 C   0  0  0  0  0  0  0  0  0  0  0  0
    9.0352  -17.1054   21.8855 O   0  0  0  0  0  0  0  0  0  0  0  0
   13.2772  -19.1661   23.1262 N   0  0  0  0  0  0  0  0  0  0  0  0
   13.9016  -17.9034   22.9425 C   0  0  0  0  0  0  0  0  0  0  0  0
   15.1389  -17.8659   22.8467 O   0  0  0  0  0  0  0  0  0  0  0  0
   13.0762  -16.7179   22.8750 C   0  0  0  0  0  0  0  0  0  0  0  0
   11.5835  -16.9564   22.8751 C   0  0  2  0  0  0  0  0  0  0  0  0
   11.0605  -16.0649   21.8368 N   0  0  0  0  0  0  0  0  0  0  0  0
   10.9922  -16.6365   24.1699 C   0  0  0  0  0  0  0  0  0  0  0  0
   11.0186  -17.6230   25.1733 O   0  0  0  0  0  0  0  0  0  0  0  0
   10.4491  -15.5645   24.5085 O   0  0  0  0  0  0  0  0  0  0  0  0
  2  1  1  1
  2  3  1  0
  2  4  1  0
  4  5  2  0
  6  7  1  0
  7  8  1  0
  8 10  1  0
  8  9  1  1
 10 12  1  0
 11  4  1  0
 10 11  1  6
 12 19  1  0
 12 13  2  0
 14 15  1  0
 15 17  1  0
 16 15  2  0
 18 17  1  1
 18 20  1  0
 19 18  1  0
 20 22  2  0
 20 21  1  0
M  END
$$$$
