AIN.pdb
     RDKit          3D

 22 21  0  0  1  0  0  0  0  0999 V2000
    7.2088  -16.8682   21.0578 C   0  0  0  0  0  0  0  0  0  0  0  0
    7.3856  -15.3568   21.1059 C   0  0  2  0  0  0  0  0  0  0  0  0
    8.1196  -14.9107   19.9618 N   0  0  0  0  0  0  0  0  0  0  0  0
    8.1152  -15.0247   22.3745 C   0  0  0  0  0  0  0  0  0  0  0  0
    9.3779  -15.0534   22.3745 O   0  0  0  0  0  0  0  0  0  0  0  0
    7.2904  -11.8361   27.4780 C   0  0  0  0  0  0  0  0  0  0  0  0
    8.1122  -12.8733   26.7337 C   0  0  0  0  0  0  0  0  0  0  0  0
    7.4442  -13.3716   25.5156 C   0  0  2  0  0  0  0  0  0  0  0  0
    6.1098  -14.0335   25.7848 C   0  0  0  0  0  0  0  0  0  0  0  0
    8.2823  -14.3786   24.7687 C   0  0  2  0  0  0  0  0  0  0  0  0
    7.4482  -14.6808   23.5714 N   0  0  0  0  0  0  0  0  0  0  0  0
    8.5773  -15.6136   25.4842 C   0  0  0  0  0  0  0  0  0  0  0  0
    7.6367  -16.3326   25.9381 O   0  0  0  0  0  0  0  0  0  0  0  0
   10.7078  -18.7891   23.6847 N   0  0  0  0  0  0  0  0  0  0  0  0
   11.4711  -17.8645   24.4466 C   0  0  0  0  0  0  0  0  0  0  0  0
   12.1868  -17.0505   23.8412 O   0  0  0  0  0  0  0  0  0  0  0  0
   11.3849  -17.9076   25.8895 C   0  0  0  0  0  0  0  0  0  0  0  0
   10.1346  -17.3075   26.4908 C   0  0  2  0  0  0  0  0  0  0  0  0
    9.8900  -16.0906   25.7125 N   0  0  0  0  0  0  0  0  0  0  0  0
   10.3229  -16.9841   27.9010 C   0  0  0  0  0  0  0  0  0  0  0  0
   10.3738  -18.0453   28.8241 O   0  0  0  0  0  0  0  0  0  0  0  0
   10.4479  -15.8490   28.4057 O   0  0  0  0  0  0  0  0  0  0  0  0
  2  1  1  6
  2  3  1  0
  2  4  1  0
  4  5  2  0
  6  7  1  0
  7  8  1  0
  8 10  1  0
  8  9  1  1
 10 12  1  0
 11  4  1  0
 10 11  1  6
 12 19  1  0
 12 13  2  0
 14 15  1  0
 15 17  1  0
 16 15  2  0
 18 17  1  6
 18 20  1  0
 19 18  1  0
 20 22  2  0
 20 21  1  0
M  END
$$$$
