AIN.pdb
     RDKit          3D

 22 21  0  0  1  0  0  0  0  0999 V2000
    7.1583  -17.4177   22.2935 C   0  0  0  0  0  0  0  0  0  0  0  0
    7.2190  -15.9088   22.0997 C   0  0  2  0  0  0  0  0  0  0  0  0
    7.8122  -15.5985   20.8354 N   0  0  0  0  0  0  0  0  0  0  0  0
    8.0286  -15.3380   23.2270 C   0  0  0  0  0  0  0  0  0  0  0  0
    9.2839  -15.2748   23.1021 O   0  0  0  0  0  0  0  0  0  0  0  0
    6.0188  -11.4068   26.1336 C   0  0  0  0  0  0  0  0  0  0  0  0
    6.9852  -12.3258   25.4077 C   0  0  0  0  0  0  0  0  0  0  0  0
    7.4975  -13.4142   26.2626 C   0  0  2  0  0  0  0  0  0  0  0  0
    8.3263  -12.9265   27.4316 C   0  0  0  0  0  0  0  0  0  0  0  0
    8.3585  -14.3900   25.5007 C   0  0  2  0  0  0  0  0  0  0  0  0
    7.4452  -14.8676   24.4245 N   0  0  0  0  0  0  0  0  0  0  0  0
    8.8536  -15.5290   26.2637 C   0  0  0  0  0  0  0  0  0  0  0  0
    8.0432  -16.3318   26.8170 O   0  0  0  0  0  0  0  0  0  0  0  0
   13.0872  -17.1200   24.3967 N   0  0  0  0  0  0  0  0  0  0  0  0
   12.1022  -17.7008   25.2396 C   0  0  0  0  0  0  0  0  0  0  0  0
   11.3198  -18.5298   24.7478 O   0  0  0  0  0  0  0  0  0  0  0  0
   12.0499  -17.3056   26.6297 C   0  0  0  0  0  0  0  0  0  0  0  0
   10.6730  -17.0014   27.1744 C   0  0  2  0  0  0  0  0  0  0  0  0
   10.2285  -15.8185   26.4331 N   0  0  0  0  0  0  0  0  0  0  0  0
   10.7152  -16.7226   28.6059 C   0  0  0  0  0  0  0  0  0  0  0  0
   10.6364  -15.3808   29.0231 O   0  0  0  0  0  0  0  0  0  0  0  0
   10.8160  -17.5511   29.5344 O   0  0  0  0  0  0  0  0  0  0  0  0
  2  1  1  1
  2  3  1  0
  2  4  1  0
  4  5  2  0
  6  7  1  0
  7  8  1  0
  8 10  1  0
  8  9  1  1
 10 12  1  0
 11  4  1  0
 10 11  1  6
 12 19  1  0
 12 13  2  0
 14 15  1  0
 15 17  1  0
 16 15  2  0
 18 17  1  6
 18 20  1  0
 19 18  1  0
 20 22  2  0
 20 21  1  0
M  END
$$$$
