AIN.pdb
     RDKit          3D

 22 21  0  0  1  0  0  0  0  0999 V2000
    6.5166  -16.0182   20.9039 C   0  0  0  0  0  0  0  0  0  0  0  0
    6.8941  -14.5622   21.1397 C   0  0  2  0  0  0  0  0  0  0  0  0
    7.6516  -14.0648   20.0328 N   0  0  0  0  0  0  0  0  0  0  0  0
    7.6933  -14.4997   22.4083 C   0  0  0  0  0  0  0  0  0  0  0  0
    8.9500  -14.6067   22.3405 O   0  0  0  0  0  0  0  0  0  0  0  0
    5.8660  -11.3365   26.2958 C   0  0  0  0  0  0  0  0  0  0  0  0
    6.7736  -12.0904   25.3402 C   0  0  0  0  0  0  0  0  0  0  0  0
    7.1559  -13.4250   25.8409 C   0  0  2  0  0  0  0  0  0  0  0  0
    7.9334  -13.3845   27.1390 C   0  0  0  0  0  0  0  0  0  0  0  0
    8.0020  -14.1908   24.8551 C   0  0  2  0  0  0  0  0  0  0  0  0
    7.0985  -14.3261   23.6779 N   0  0  0  0  0  0  0  0  0  0  0  0
    8.4424  -15.5109   25.2884 C   0  0  0  0  0  0  0  0  0  0  0  0
    7.5964  -16.3816   25.6543 O   0  0  0  0  0  0  0  0  0  0  0  0
   10.7708  -18.4984   23.0588 N   0  0  0  0  0  0  0  0  0  0  0  0
   11.5000  -17.4998   23.7581 C   0  0  0  0  0  0  0  0  0  0  0  0
   12.1013  -16.6376   23.0975 O   0  0  0  0  0  0  0  0  0  0  0  0
   11.5134  -17.5268   25.2039 C   0  0  0  0  0  0  0  0  0  0  0  0
   10.1994  -17.2058   25.8787 C   0  0  2  0  0  0  0  0  0  0  0  0
    9.8000  -15.9091   25.3258 N   0  0  0  0  0  0  0  0  0  0  0  0
   10.3506  -17.1199   27.3272 C   0  0  0  0  0  0  0  0  0  0  0  0
   10.4759  -18.3190   28.0535 O   0  0  0  0  0  0  0  0  0  0  0  0
   10.3830  -16.0841   28.0235 O   0  0  0  0  0  0  0  0  0  0  0  0
  2  1  1  6
  2  3  1  0
  2  4  1  0
  4  5  2  0
  6  7  1  0
  7  8  1  0
  8 10  1  0
  8  9  1  1
 10 12  1  0
 11  4  1  0
 10 11  1  6
 12 19  1  0
 12 13  2  0
 14 15  1  0
 15 17  1  0
 16 15  2  0
 18 17  1  6
 18 20  1  0
 19 18  1  0
 20 22  2  0
 20 21  1  0
M  END
$$$$
