AIN.pdb
     RDKit          3D

 22 21  0  0  1  0  0  0  0  0999 V2000
    6.4865  -16.1323   21.0922 C   0  0  0  0  0  0  0  0  0  0  0  0
    6.7314  -14.6364   21.2342 C   0  0  2  0  0  0  0  0  0  0  0  0
    7.3502  -14.1245   20.0503 N   0  0  0  0  0  0  0  0  0  0  0  0
    7.6125  -14.4319   22.4317 C   0  0  0  0  0  0  0  0  0  0  0  0
    8.8654  -14.4445   22.2733 O   0  0  0  0  0  0  0  0  0  0  0  0
    6.1140  -11.2145   26.4198 C   0  0  0  0  0  0  0  0  0  0  0  0
    6.9570  -11.9868   25.4208 C   0  0  0  0  0  0  0  0  0  0  0  0
    7.3123  -13.3398   25.8910 C   0  0  2  0  0  0  0  0  0  0  0  0
    8.1601  -13.3415   27.1450 C   0  0  0  0  0  0  0  0  0  0  0  0
    8.0724  -14.1297   24.8555 C   0  0  2  0  0  0  0  0  0  0  0  0
    7.0988  -14.2254   23.7314 N   0  0  0  0  0  0  0  0  0  0  0  0
    8.4887  -15.4674   25.2578 C   0  0  0  0  0  0  0  0  0  0  0  0
    7.6268  -16.3314   25.6016 O   0  0  0  0  0  0  0  0  0  0  0  0
   11.0297  -18.1696   22.8478 N   0  0  0  0  0  0  0  0  0  0  0  0
   11.7459  -17.2985   23.7117 C   0  0  0  0  0  0  0  0  0  0  0  0
   12.4745  -16.4315   23.2030 O   0  0  0  0  0  0  0  0  0  0  0  0
   11.5989  -17.4551   25.1418 C   0  0  0  0  0  0  0  0  0  0  0  0
   10.2027  -17.2529   25.6844 C   0  0  2  0  0  0  0  0  0  0  0  0
    9.8389  -15.8903   25.2875 N   0  0  0  0  0  0  0  0  0  0  0  0
   10.1697  -17.3892   27.1366 C   0  0  0  0  0  0  0  0  0  0  0  0
   10.2918  -18.6796   27.6849 O   0  0  0  0  0  0  0  0  0  0  0  0
   10.0423  -16.4761   27.9785 O   0  0  0  0  0  0  0  0  0  0  0  0
  2  1  1  6
  2  3  1  0
  2  4  1  0
  4  5  2  0
  6  7  1  0
  7  8  1  0
  8 10  1  0
  8  9  1  1
 10 12  1  0
 11  4  1  0
 10 11  1  6
 12 19  1  0
 12 13  2  0
 14 15  1  0
 15 17  1  0
 16 15  2  0
 18 17  1  1
 18 20  1  0
 19 18  1  0
 20 22  2  0
 20 21  1  0
M  END
$$$$
