CKP.pdb
     RDKit          3D

 23 23  0  0  1  0  0  0  0  0999 V2000
   27.3757  -20.4633  -13.9747 N   0  0  0  0  0  0  0  0  0  0  0  0
   27.9952  -20.9669  -12.7741 C   0  0  1  0  0  0  0  0  0  0  0  0
   29.4950  -20.7756  -12.7745 C   0  0  0  0  0  0  0  0  0  0  0  0
   30.2208  -22.0979  -13.7665 S   0  0  0  0  0  0  0  0  0  0  0  0
   27.3756  -20.2709  -11.6032 C   0  0  0  0  0  0  0  0  0  0  0  0
   27.2792  -18.9998  -11.5674 O   0  0  0  0  0  0  0  0  0  0  0  0
   26.8700  -20.9700  -10.4880 N   0  0  0  0  0  0  0  0  0  0  0  0
   26.3465  -20.2509   -9.2823 C   0  0  1  0  0  0  0  0  0  0  0  0
   24.8767  -20.5503   -9.3449 C   0  0  0  0  0  0  0  0  0  0  0  0
   24.0867  -20.0652  -10.4689 C   0  0  0  0  0  0  0  0  0  0  0  0
   22.6160  -20.3656  -10.2447 C   0  0  0  0  0  0  0  0  0  0  0  0
   21.7505  -19.9695  -11.4195 C   0  0  0  0  0  0  0  0  0  0  0  0
   20.3694  -20.3924  -11.1291 N   0  0  0  0  0  0  0  0  0  0  0  0
   27.0732  -20.8137   -8.1553 C   0  0  0  0  0  0  0  0  0  0  0  0
   27.3906  -22.0459   -8.0791 O   0  0  0  0  0  0  0  0  0  0  0  0
   27.4805  -20.0224   -7.0674 N   0  0  0  0  0  0  0  0  0  0  0  0
   27.2471  -18.5786   -6.8791 C   0  0  0  0  0  0  0  0  0  0  0  0
   28.5365  -18.1266   -6.2835 C   0  0  0  0  0  0  0  0  0  0  0  0
   29.1614  -19.3293   -5.6439 C   0  0  0  0  0  0  0  0  0  0  0  0
   28.1527  -20.4406   -5.8695 C   0  0  1  0  0  0  0  0  0  0  0  0
   27.2033  -20.4149   -4.7017 C   0  0  0  0  0  0  0  0  0  0  0  0
   25.8854  -20.0857   -4.9062 O   0  0  0  0  0  0  0  0  0  0  0  0
   27.6060  -20.6896   -3.5562 O   0  0  0  0  0  0  0  0  0  0  0  0
  2  5  1  0
  2  1  1  6
  3  2  1  0
  4  3  1  0
  5  6  2  0
  7  8  1  0
  7  5  1  0
  9 10  1  0
  8  9  1  1
 10 11  1  0
 11 12  1  0
 13 12  1  0
 14 15  2  0
 14  8  1  0
 16 14  1  0
 17 16  1  0
 18 17  1  0
 18 19  1  0
 20 19  1  0
 20 16  1  0
 20 21  1  1
 21 22  1  0
 23 21  2  0
M  END
$$$$
