CKP.pdb
     RDKit          3D

 23 23  0  0  1  0  0  0  0  0999 V2000
   25.0257  -28.9941  -18.0140 N   0  0  0  0  0  0  0  0  0  0  0  0
   24.9614  -29.7118  -16.7652 C   0  0  1  0  0  0  0  0  0  0  0  0
   26.3101  -30.2415  -16.3337 C   0  0  0  0  0  0  0  0  0  0  0  0
   26.8095  -31.5112  -17.5161 S   0  0  0  0  0  0  0  0  0  0  0  0
   24.4004  -28.7911  -15.7273 C   0  0  0  0  0  0  0  0  0  0  0  0
   24.2293  -29.1797  -14.5248 O   0  0  0  0  0  0  0  0  0  0  0  0
   24.0339  -27.4603  -16.0147 N   0  0  0  0  0  0  0  0  0  0  0  0
   23.3817  -26.5865  -14.9871 C   0  0  1  0  0  0  0  0  0  0  0  0
   23.6281  -25.2106  -15.5348 C   0  0  0  0  0  0  0  0  0  0  0  0
   24.9935  -24.7236  -15.6803 C   0  0  0  0  0  0  0  0  0  0  0  0
   24.9980  -23.3753  -16.3771 C   0  0  0  0  0  0  0  0  0  0  0  0
   26.3918  -22.8865  -16.7005 C   0  0  0  0  0  0  0  0  0  0  0  0
   26.9963  -22.3815  -15.4554 N   0  0  0  0  0  0  0  0  0  0  0  0
   21.9955  -27.0235  -14.9372 C   0  0  0  0  0  0  0  0  0  0  0  0
   21.3944  -27.5422  -15.9344 O   0  0  0  0  0  0  0  0  0  0  0  0
   21.2232  -26.9037  -13.7689 N   0  0  0  0  0  0  0  0  0  0  0  0
   21.6402  -26.3185  -12.4812 C   0  0  0  0  0  0  0  0  0  0  0  0
   21.0046  -27.2395  -11.4966 C   0  0  0  0  0  0  0  0  0  0  0  0
   19.8482  -27.8874  -12.1960 C   0  0  0  0  0  0  0  0  0  0  0  0
   19.8450  -27.2581  -13.5771 C   0  0  1  0  0  0  0  0  0  0  0  0
   18.9940  -26.0194  -13.4928 C   0  0  0  0  0  0  0  0  0  0  0  0
   19.5928  -24.7832  -13.5035 O   0  0  0  0  0  0  0  0  0  0  0  0
   17.7549  -26.1104  -13.4137 O   0  0  0  0  0  0  0  0  0  0  0  0
  2  5  1  0
  2  1  1  6
  3  2  1  0
  4  3  1  0
  5  6  2  0
  7  8  1  0
  7  5  1  0
  9 10  1  0
  8  9  1  6
 10 11  1  0
 11 12  1  0
 13 12  1  0
 14 15  2  0
 14  8  1  0
 16 14  1  0
 17 16  1  0
 18 17  1  0
 18 19  1  0
 20 19  1  0
 20 16  1  0
 20 21  1  1
 21 22  1  0
 23 21  2  0
M  END
$$$$
