CKP.pdb
     RDKit          3D

 23 23  0  0  1  0  0  0  0  0999 V2000
   28.8656  -18.4568  -15.5568 N   0  0  0  0  0  0  0  0  0  0  0  0
   28.1677  -19.3867  -14.7041 C   0  0  1  0  0  0  0  0  0  0  0  0
   28.0061  -18.8670  -13.2936 C   0  0  0  0  0  0  0  0  0  0  0  0
   29.6466  -18.7814  -12.5445 S   0  0  0  0  0  0  0  0  0  0  0  0
   26.8324  -19.6693  -15.3177 C   0  0  0  0  0  0  0  0  0  0  0  0
   26.1594  -18.7467  -15.8853 O   0  0  0  0  0  0  0  0  0  0  0  0
   26.2495  -20.9530  -15.3038 N   0  0  0  0  0  0  0  0  0  0  0  0
   24.9028  -21.2101  -15.9079 C   0  0  1  0  0  0  0  0  0  0  0  0
   25.0161  -22.6422  -16.3437 C   0  0  0  0  0  0  0  0  0  0  0  0
   23.9146  -23.5631  -16.0962 C   0  0  0  0  0  0  0  0  0  0  0  0
   24.2286  -24.9265  -16.6844 C   0  0  0  0  0  0  0  0  0  0  0  0
   23.0904  -25.9095  -16.5274 C   0  0  0  0  0  0  0  0  0  0  0  0
   23.4952  -27.1777  -17.1588 N   0  0  0  0  0  0  0  0  0  0  0  0
   23.9479  -20.9310  -14.8472 C   0  0  0  0  0  0  0  0  0  0  0  0
   24.2189  -21.0827  -13.6110 O   0  0  0  0  0  0  0  0  0  0  0  0
   22.6504  -20.4657  -15.1227 N   0  0  0  0  0  0  0  0  0  0  0  0
   22.0494  -20.2356  -16.4495 C   0  0  0  0  0  0  0  0  0  0  0  0
   21.2720  -18.9830  -16.2296 C   0  0  0  0  0  0  0  0  0  0  0  0
   20.9899  -18.9027  -14.7599 C   0  0  0  0  0  0  0  0  0  0  0  0
   21.5976  -20.1719  -14.1915 C   0  0  1  0  0  0  0  0  0  0  0  0
   20.5332  -21.2343  -14.2544 C   0  0  0  0  0  0  0  0  0  0  0  0
   19.5536  -21.2708  -13.2922 O   0  0  0  0  0  0  0  0  0  0  0  0
   20.5371  -22.0765  -15.1712 O   0  0  0  0  0  0  0  0  0  0  0  0
  2  5  1  0
  2  1  1  6
  3  2  1  0
  4  3  1  0
  5  6  2  0
  7  8  1  0
  7  5  1  0
  9 10  1  0
  8  9  1  1
 10 11  1  0
 11 12  1  0
 13 12  1  0
 14 15  2  0
 14  8  1  0
 16 14  1  0
 17 16  1  0
 18 17  1  0
 18 19  1  0
 20 19  1  0
 20 16  1  0
 20 21  1  6
 21 22  1  0
 23 21  2  0
M  END
$$$$
