CKP.pdb
     RDKit          3D

 23 23  0  0  1  0  0  0  0  0999 V2000
   24.0418  -12.5152  -17.8144 N   0  0  0  0  0  0  0  0  0  0  0  0
   24.0994  -11.7818  -16.5745 C   0  0  1  0  0  0  0  0  0  0  0  0
   25.5057  -11.3527  -16.2223 C   0  0  0  0  0  0  0  0  0  0  0  0
   26.4365  -12.8306  -15.7649 S   0  0  0  0  0  0  0  0  0  0  0  0
   23.2002  -10.5917  -16.6951 C   0  0  0  0  0  0  0  0  0  0  0  0
   23.2524   -9.8268  -17.7142 O   0  0  0  0  0  0  0  0  0  0  0  0
   22.2569  -10.2522  -15.7036 N   0  0  0  0  0  0  0  0  0  0  0  0
   21.3918   -9.0353  -15.8273 C   0  0  1  0  0  0  0  0  0  0  0  0
   20.0647   -9.5352  -15.3348 C   0  0  0  0  0  0  0  0  0  0  0  0
   19.2848  -10.4495  -16.1587 C   0  0  0  0  0  0  0  0  0  0  0  0
   18.0057  -10.8405  -15.4415 C   0  0  0  0  0  0  0  0  0  0  0  0
   17.1672  -11.8211  -16.2300 C   0  0  0  0  0  0  0  0  0  0  0  0
   16.0637  -12.2734  -15.3649 N   0  0  0  0  0  0  0  0  0  0  0  0
   22.0417   -8.0193  -15.0146 C   0  0  0  0  0  0  0  0  0  0  0  0
   22.7907   -8.2985  -14.0217 O   0  0  0  0  0  0  0  0  0  0  0  0
   21.8860   -6.6478  -15.2798 N   0  0  0  0  0  0  0  0  0  0  0  0
   21.0668   -6.0328  -16.3406 C   0  0  0  0  0  0  0  0  0  0  0  0
   21.9314   -4.9058  -16.7922 C   0  0  0  0  0  0  0  0  0  0  0  0
   22.8489   -4.5823  -15.6521 C   0  0  0  0  0  0  0  0  0  0  0  0
   22.4279   -5.5366  -14.5496 C   0  0  1  0  0  0  0  0  0  0  0  0
   21.3434   -4.8487  -13.7645 C   0  0  0  0  0  0  0  0  0  0  0  0
   21.6771   -3.8684  -12.8620 O   0  0  0  0  0  0  0  0  0  0  0  0
   20.1502   -5.1633  -13.9293 O   0  0  0  0  0  0  0  0  0  0  0  0
  2  5  1  0
  2  1  1  6
  3  2  1  0
  4  3  1  0
  5  6  2  0
  7  8  1  0
  7  5  1  0
  9 10  1  0
  8  9  1  1
 10 11  1  0
 11 12  1  0
 13 12  1  0
 14 15  2  0
 14  8  1  0
 16 14  1  0
 17 16  1  0
 18 17  1  0
 18 19  1  0
 20 19  1  0
 20 16  1  0
 20 21  1  1
 21 22  1  0
 23 21  2  0
M  END
$$$$
