CKP.pdb
     RDKit          3D

 23 23  0  0  1  0  0  0  0  0999 V2000
   26.7592  -20.1420  -18.3354 N   0  0  0  0  0  0  0  0  0  0  0  0
   26.6818  -21.0856  -17.2481 C   0  0  1  0  0  0  0  0  0  0  0  0
   28.0462  -21.5191  -16.7618 C   0  0  0  0  0  0  0  0  0  0  0  0
   27.8046  -22.7082  -15.4249 S   0  0  0  0  0  0  0  0  0  0  0  0
   25.9030  -20.4536  -16.1375 C   0  0  0  0  0  0  0  0  0  0  0  0
   26.2484  -19.3279  -15.6478 O   0  0  0  0  0  0  0  0  0  0  0  0
   24.7590  -21.0573  -15.5764 N   0  0  0  0  0  0  0  0  0  0  0  0
   24.0117  -20.4218  -14.4440 C   0  0  1  0  0  0  0  0  0  0  0  0
   22.6240  -20.3021  -15.0042 C   0  0  0  0  0  0  0  0  0  0  0  0
   22.1541  -19.0169  -15.5046 C   0  0  0  0  0  0  0  0  0  0  0  0
   21.8254  -19.1181  -16.9828 C   0  0  0  0  0  0  0  0  0  0  0  0
   21.5068  -17.7778  -17.6061 C   0  0  0  0  0  0  0  0  0  0  0  0
   21.3828  -17.9717  -19.0613 N   0  0  0  0  0  0  0  0  0  0  0  0
   24.1784  -21.3279  -13.3188 C   0  0  0  0  0  0  0  0  0  0  0  0
   24.4013  -22.5751  -13.4586 O   0  0  0  0  0  0  0  0  0  0  0  0
   24.1079  -20.8779  -11.9890 N   0  0  0  0  0  0  0  0  0  0  0  0
   23.8190  -19.5079  -11.5262 C   0  0  0  0  0  0  0  0  0  0  0  0
   24.7544  -19.3610  -10.3751 C   0  0  0  0  0  0  0  0  0  0  0  0
   25.0639  -20.7453   -9.8913 C   0  0  0  0  0  0  0  0  0  0  0  0
   24.2338  -21.6490  -10.7844 C   0  0  1  0  0  0  0  0  0  0  0  0
   22.8911  -21.8064  -10.1223 C   0  0  0  0  0  0  0  0  0  0  0  0
   21.7864  -21.2088  -10.6785 O   0  0  0  0  0  0  0  0  0  0  0  0
   22.7783  -22.4733   -9.0771 O   0  0  0  0  0  0  0  0  0  0  0  0
  2  5  1  0
  2  1  1  6
  3  2  1  0
  4  3  1  0
  5  6  2  0
  7  8  1  0
  7  5  1  0
  9 10  1  0
  8  9  1  6
 10 11  1  0
 11 12  1  0
 13 12  1  0
 14 15  2  0
 14  8  1  0
 16 14  1  0
 17 16  1  0
 18 17  1  0
 18 19  1  0
 20 19  1  0
 20 16  1  0
 20 21  1  1
 21 22  1  0
 23 21  2  0
M  END
$$$$
