CKP.pdb
     RDKit          3D

 23 23  0  0  1  0  0  0  0  0999 V2000
   33.9746  -29.5850  -18.4796 N   0  0  0  0  0  0  0  0  0  0  0  0
   33.1842  -30.4410  -19.3289 C   0  0  1  0  0  0  0  0  0  0  0  0
   33.8856  -31.7409  -19.6517 C   0  0  0  0  0  0  0  0  0  0  0  0
   34.5775  -32.3919  -18.1164 S   0  0  0  0  0  0  0  0  0  0  0  0
   31.8803  -30.7023  -18.6425 C   0  0  0  0  0  0  0  0  0  0  0  0
   31.8038  -30.7541  -17.3706 O   0  0  0  0  0  0  0  0  0  0  0  0
   30.6785  -30.9035  -19.3519 N   0  0  0  0  0  0  0  0  0  0  0  0
   29.3731  -31.1019  -18.6440 C   0  0  1  0  0  0  0  0  0  0  0  0
   28.3803  -30.9743  -19.7628 C   0  0  0  0  0  0  0  0  0  0  0  0
   26.9607  -31.1651  -19.4958 C   0  0  0  0  0  0  0  0  0  0  0  0
   26.2784  -29.8233  -19.3027 C   0  0  0  0  0  0  0  0  0  0  0  0
   24.8038  -29.9539  -18.9944 C   0  0  0  0  0  0  0  0  0  0  0  0
   24.2355  -28.5972  -18.9107 N   0  0  0  0  0  0  0  0  0  0  0  0
   29.4735  -32.4094  -18.0152 C   0  0  0  0  0  0  0  0  0  0  0  0
   30.2663  -33.3188  -18.4264 O   0  0  0  0  0  0  0  0  0  0  0  0
   28.6953  -32.7547  -16.8967 N   0  0  0  0  0  0  0  0  0  0  0  0
   27.6186  -31.9578  -16.2801 C   0  0  0  0  0  0  0  0  0  0  0  0
   27.8459  -32.1938  -14.8260 C   0  0  0  0  0  0  0  0  0  0  0  0
   28.5892  -33.4901  -14.7104 C   0  0  0  0  0  0  0  0  0  0  0  0
   28.7204  -33.9761  -16.1422 C   0  0  1  0  0  0  0  0  0  0  0  0
   27.4959  -34.7993  -16.4400 C   0  0  0  0  0  0  0  0  0  0  0  0
   26.5255  -34.2952  -17.2712 O   0  0  0  0  0  0  0  0  0  0  0  0
   27.3598  -35.9304  -15.9380 O   0  0  0  0  0  0  0  0  0  0  0  0
  2  5  1  0
  2  1  1  1
  3  2  1  0
  4  3  1  0
  5  6  2  0
  7  8  1  0
  7  5  1  0
  9 10  1  0
  8  9  1  6
 10 11  1  0
 11 12  1  0
 13 12  1  0
 14 15  2  0
 14  8  1  0
 16 14  1  0
 17 16  1  0
 18 17  1  0
 18 19  1  0
 20 19  1  0
 20 16  1  0
 20 21  1  6
 21 22  1  0
 23 21  2  0
M  END
$$$$
