CKP.pdb
     RDKit          3D

 23 23  0  0  1  0  0  0  0  0999 V2000
   23.1046  -14.7265  -17.4523 N   0  0  0  0  0  0  0  0  0  0  0  0
   23.0074  -14.0368  -18.7147 C   0  0  1  0  0  0  0  0  0  0  0  0
   22.4803  -14.9252  -19.8187 C   0  0  0  0  0  0  0  0  0  0  0  0
   20.8973  -15.6023  -19.2753 S   0  0  0  0  0  0  0  0  0  0  0  0
   22.1204  -12.8462  -18.5278 C   0  0  0  0  0  0  0  0  0  0  0  0
   22.0310  -11.9437  -19.4245 O   0  0  0  0  0  0  0  0  0  0  0  0
   21.3435  -12.6558  -17.3667 N   0  0  0  0  0  0  0  0  0  0  0  0
   20.5171  -11.4220  -17.1689 C   0  0  1  0  0  0  0  0  0  0  0  0
   19.2114  -11.9856  -16.6881 C   0  0  0  0  0  0  0  0  0  0  0  0
   18.2613  -11.1232  -15.9979 C   0  0  0  0  0  0  0  0  0  0  0  0
   17.0482  -11.9236  -15.5605 C   0  0  0  0  0  0  0  0  0  0  0  0
   16.0730  -11.1098  -14.7401 C   0  0  0  0  0  0  0  0  0  0  0  0
   15.0164  -12.0170  -14.2591 N   0  0  0  0  0  0  0  0  0  0  0  0
   21.2606  -10.6116  -16.2173 C   0  0  0  0  0  0  0  0  0  0  0  0
   22.0377  -11.1102  -15.3385 O   0  0  0  0  0  0  0  0  0  0  0  0
   21.1711   -9.2088  -16.2105 N   0  0  0  0  0  0  0  0  0  0  0  0
   20.3100   -8.3668  -17.0614 C   0  0  0  0  0  0  0  0  0  0  0  0
   21.2051   -7.2169  -17.3744 C   0  0  0  0  0  0  0  0  0  0  0  0
   22.2296   -7.1579  -16.2821 C   0  0  0  0  0  0  0  0  0  0  0  0
   21.8390   -8.2822  -15.3404 C   0  0  1  0  0  0  0  0  0  0  0  0
   20.8665   -7.7045  -14.3473 C   0  0  0  0  0  0  0  0  0  0  0  0
   19.5317   -8.0131  -14.4469 O   0  0  0  0  0  0  0  0  0  0  0  0
   21.2655   -6.9514  -13.4398 O   0  0  0  0  0  0  0  0  0  0  0  0
  2  5  1  0
  2  1  1  1
  3  2  1  0
  4  3  1  0
  5  6  2  0
  7  8  1  0
  7  5  1  0
  9 10  1  0
  8  9  1  1
 10 11  1  0
 11 12  1  0
 13 12  1  0
 14 15  2  0
 14  8  1  0
 16 14  1  0
 17 16  1  0
 18 17  1  0
 18 19  1  0
 20 19  1  0
 20 16  1  0
 20 21  1  1
 21 22  1  0
 23 21  2  0
M  END
$$$$
