CKP.pdb
     RDKit          3D

 23 23  0  0  1  0  0  0  0  0999 V2000
   13.8042   -9.3513  -14.1674 N   0  0  0  0  0  0  0  0  0  0  0  0
   14.6103   -8.3407  -14.8057 C   0  0  1  0  0  0  0  0  0  0  0  0
   14.1555   -6.9395  -14.4656 C   0  0  0  0  0  0  0  0  0  0  0  0
   12.7113   -6.5649  -15.4822 S   0  0  0  0  0  0  0  0  0  0  0  0
   16.0328   -8.5483  -14.3899 C   0  0  0  0  0  0  0  0  0  0  0  0
   16.3452   -8.7008  -13.1629 O   0  0  0  0  0  0  0  0  0  0  0  0
   17.0944   -8.5868  -15.3170 N   0  0  0  0  0  0  0  0  0  0  0  0
   18.5170   -8.7456  -14.8749 C   0  0  1  0  0  0  0  0  0  0  0  0
   19.0945   -9.6075  -15.9600 C   0  0  0  0  0  0  0  0  0  0  0  0
   18.7030  -11.0076  -16.0574 C   0  0  0  0  0  0  0  0  0  0  0  0
   19.4501  -11.6833  -17.1926 C   0  0  0  0  0  0  0  0  0  0  0  0
   19.0210  -13.1174  -17.4058 C   0  0  0  0  0  0  0  0  0  0  0  0
   19.8754  -13.6956  -18.4576 N   0  0  0  0  0  0  0  0  0  0  0  0
   19.0409   -7.3925  -14.7769 C   0  0  0  0  0  0  0  0  0  0  0  0
   18.5200   -6.4004  -15.3845 O   0  0  0  0  0  0  0  0  0  0  0  0
   20.1665   -7.0895  -13.9915 N   0  0  0  0  0  0  0  0  0  0  0  0
   21.0296   -8.0406  -13.2670 C   0  0  0  0  0  0  0  0  0  0  0  0
   21.3075   -7.3095  -11.9982 C   0  0  0  0  0  0  0  0  0  0  0  0
   21.1172   -5.8518  -12.2897 C   0  0  0  0  0  0  0  0  0  0  0  0
   20.7713   -5.8067  -13.7668 C   0  0  1  0  0  0  0  0  0  0  0  0
   22.0712   -5.7033  -14.5187 C   0  0  0  0  0  0  0  0  0  0  0  0
   22.7236   -4.4961  -14.5824 O   0  0  0  0  0  0  0  0  0  0  0  0
   22.5553   -6.7032  -15.0805 O   0  0  0  0  0  0  0  0  0  0  0  0
  2  5  1  0
  2  1  1  1
  3  2  1  0
  4  3  1  0
  5  6  2  0
  7  8  1  0
  7  5  1  0
  9 10  1  0
  8  9  1  6
 10 11  1  0
 11 12  1  0
 13 12  1  0
 14 15  2  0
 14  8  1  0
 16 14  1  0
 17 16  1  0
 18 17  1  0
 18 19  1  0
 20 19  1  0
 20 16  1  0
 20 21  1  6
 21 22  1  0
 23 21  2  0
M  END
$$$$
