LEH.pdb
     RDKit          3D

 28 28  0  0  1  0  0  0  0  0999 V2000
    8.9043  -13.5723   18.7975 C   0  0  0  0  0  0  0  0  0  0  0  0
    7.5669  -13.3740   19.4370 C   0  0  2  0  0  0  0  0  0  0  0  0
    7.4705  -11.9560   19.9547 C   0  0  0  0  0  0  0  0  0  0  0  0
    7.3057  -14.3263   20.5837 C   0  0  0  0  0  0  0  0  0  0  0  0
    7.5463  -15.7616   20.1903 C   0  0  2  0  0  0  0  0  0  0  0  0
    6.2547  -16.4041   20.0851 N   0  0  0  0  0  0  0  0  0  0  0  0
    8.3564  -16.3710   21.3027 C   0  0  0  0  0  0  0  0  0  0  0  0
    7.8544  -16.5425   22.4430 O   0  0  0  0  0  0  0  0  0  0  0  0
    9.6853  -16.7531   21.0694 N   0  0  0  0  0  0  0  0  0  0  0  0
   10.4770  -17.3954   22.0885 C   0  0  1  0  0  0  0  0  0  0  0  0
   11.6849  -18.0766   21.5431 C   0  0  0  0  0  0  0  0  0  0  0  0
   12.5862  -18.7765   22.4601 C   0  0  0  0  0  0  0  0  0  0  0  0
   13.7599  -19.4630   21.9806 C   0  0  0  0  0  0  0  0  0  0  0  0
   14.5127  -20.2664   22.5354 O   0  0  0  0  0  0  0  0  0  0  0  0
   10.6817  -16.5821   23.3053 C   0  0  0  0  0  0  0  0  0  0  0  0
   11.1712  -15.4284   23.1517 O   0  0  0  0  0  0  0  0  0  0  0  0
   14.1302  -19.1782   20.6389 O   0  0  0  0  0  0  0  0  0  0  0  0
   10.3654  -17.0092   24.5960 N   0  0  0  0  0  0  0  0  0  0  0  0
   10.6069  -16.2293   25.8132 C   0  0  1  0  0  0  0  0  0  0  0  0
    9.4104  -16.2207   26.7010 C   0  0  0  0  0  0  0  0  0  0  0  0
    9.7018  -15.4559   27.9361 C   0  0  0  0  0  0  0  0  0  0  0  0
    9.7587  -14.1013   28.1726 C   0  0  0  0  0  0  0  0  0  0  0  0
    9.9775  -13.8613   29.4749 N   0  0  0  0  0  0  0  0  0  0  0  0
   10.0611  -15.0340   30.0823 C   0  0  0  0  0  0  0  0  0  0  0  0
    9.8985  -16.0089   29.1805 N   0  0  0  0  0  0  0  0  0  0  0  0
   11.6474  -17.0332   26.5267 C   0  0  0  0  0  0  0  0  0  0  0  0
   11.6498  -18.2763   26.4016 O   0  0  0  0  0  0  0  0  0  0  0  0
   12.5958  -16.4665   27.3137 O   0  0  0  0  0  0  0  0  0  0  0  0
  2  1  1  1
  2  3  1  0
  4  2  1  0
  5  4  1  0
  5  6  1  1
  7  8  2  0
  7  5  1  0
  9  7  1  0
 10  9  1  0
 10 11  1  6
 11 12  1  0
 12 13  1  0
 13 14  2  0
 13 17  1  0
 15 16  2  0
 15 10  1  0
 18 15  1  0
 19 20  1  1
 19 18  1  0
 20 21  1  0
 21 25  1  0
 21 22  2  0
 22 23  1  0
 24 23  1  0
 25 24  2  0
 26 19  1  0
 27 26  2  0
 28 26  1  0
M  END
$$$$
