LEH.pdb
     RDKit          3D

 28 28  0  0  1  0  0  0  0  0999 V2000
    6.1862  -11.9865   24.5026 C   0  0  0  0  0  0  0  0  0  0  0  0
    6.0445  -12.7523   25.7795 C   0  0  2  0  0  0  0  0  0  0  0  0
    6.3009  -11.8234   26.9454 C   0  0  0  0  0  0  0  0  0  0  0  0
    6.9924  -13.9277   25.8799 C   0  0  0  0  0  0  0  0  0  0  0  0
    6.6706  -14.9990   24.8693 C   0  0  2  0  0  0  0  0  0  0  0  0
    5.5254  -15.7312   25.3640 N   0  0  0  0  0  0  0  0  0  0  0  0
    7.8831  -15.8880   24.8003 C   0  0  0  0  0  0  0  0  0  0  0  0
    8.0872  -16.7648   25.6785 O   0  0  0  0  0  0  0  0  0  0  0  0
    8.7974  -15.7403   23.7473 N   0  0  0  0  0  0  0  0  0  0  0  0
    9.9175  -16.6336   23.5881 C   0  0  1  0  0  0  0  0  0  0  0  0
   10.5154  -16.5788   22.2243 C   0  0  0  0  0  0  0  0  0  0  0  0
   11.6218  -17.4782   21.8921 C   0  0  0  0  0  0  0  0  0  0  0  0
   12.1610  -17.5431   20.5566 C   0  0  0  0  0  0  0  0  0  0  0  0
   12.6675  -16.6742   19.8436 O   0  0  0  0  0  0  0  0  0  0  0  0
   10.8702  -16.6251   24.7177 C   0  0  0  0  0  0  0  0  0  0  0  0
   11.6028  -15.6048   24.8461 O   0  0  0  0  0  0  0  0  0  0  0  0
   12.1092  -18.8206   19.9369 O   0  0  0  0  0  0  0  0  0  0  0  0
   11.0015  -17.6644   25.6403 N   0  0  0  0  0  0  0  0  0  0  0  0
   12.1206  -17.8106   26.5754 C   0  0  1  0  0  0  0  0  0  0  0  0
   11.6680  -17.6891   27.9897 C   0  0  0  0  0  0  0  0  0  0  0  0
   11.5625  -16.2601   28.3666 C   0  0  0  0  0  0  0  0  0  0  0  0
   11.7324  -15.1116   27.6276 C   0  0  0  0  0  0  0  0  0  0  0  0
   11.4525  -14.0297   28.3711 N   0  0  0  0  0  0  0  0  0  0  0  0
   11.1042  -14.4583   29.5737 C   0  0  0  0  0  0  0  0  0  0  0  0
   11.1616  -15.7948   29.5978 N   0  0  0  0  0  0  0  0  0  0  0  0
   12.5282  -19.2381   26.3913 C   0  0  0  0  0  0  0  0  0  0  0  0
   11.8570  -19.9715   25.6346 O   0  0  0  0  0  0  0  0  0  0  0  0
   13.6035  -19.7774   27.0182 O   0  0  0  0  0  0  0  0  0  0  0  0
  2  1  1  6
  2  3  1  0
  4  2  1  0
  5  4  1  0
  5  6  1  1
  7  8  2  0
  7  5  1  0
  9  7  1  0
 10  9  1  0
 10 11  1  6
 11 12  1  0
 12 13  1  0
 13 14  2  0
 13 17  1  0
 15 16  2  0
 15 10  1  0
 18 15  1  0
 19 20  1  1
 19 18  1  0
 20 21  1  0
 21 25  1  0
 21 22  2  0
 22 23  1  0
 24 23  1  0
 25 24  2  0
 26 19  1  0
 27 26  2  0
 28 26  1  0
M  END
$$$$
