LEH.pdb
     RDKit          3D

 28 28  0  0  1  0  0  0  0  0999 V2000
    7.5258  -11.6909   24.3897 C   0  0  0  0  0  0  0  0  0  0  0  0
    6.7222  -12.6883   25.1621 C   0  0  2  0  0  0  0  0  0  0  0  0
    6.3708  -12.1029   26.5118 C   0  0  0  0  0  0  0  0  0  0  0  0
    7.4449  -14.0003   25.3772 C   0  0  0  0  0  0  0  0  0  0  0  0
    8.1558  -14.4630   24.1309 C   0  0  2  0  0  0  0  0  0  0  0  0
    7.1465  -14.7216   23.1274 N   0  0  0  0  0  0  0  0  0  0  0  0
    8.8740  -15.7317   24.5045 C   0  0  0  0  0  0  0  0  0  0  0  0
    8.4880  -16.4246   25.4806 O   0  0  0  0  0  0  0  0  0  0  0  0
    9.9859  -16.1494   23.7589 N   0  0  0  0  0  0  0  0  0  0  0  0
   10.6089  -17.4297   23.9837 C   0  0  1  0  0  0  0  0  0  0  0  0
   10.3983  -18.3841   22.8589 C   0  0  0  0  0  0  0  0  0  0  0  0
   10.7218  -17.9636   21.4944 C   0  0  0  0  0  0  0  0  0  0  0  0
   10.5233  -18.8447   20.3706 C   0  0  0  0  0  0  0  0  0  0  0  0
    9.5057  -19.1358   19.7383 O   0  0  0  0  0  0  0  0  0  0  0  0
   11.9818  -17.3538   24.5249 C   0  0  0  0  0  0  0  0  0  0  0  0
   12.8649  -18.0549   23.9567 O   0  0  0  0  0  0  0  0  0  0  0  0
   11.6897  -19.5011   19.8939 O   0  0  0  0  0  0  0  0  0  0  0  0
   12.3537  -16.5591   25.6106 N   0  0  0  0  0  0  0  0  0  0  0  0
   12.3019  -16.9869   27.0115 C   0  0  1  0  0  0  0  0  0  0  0  0
   10.8969  -17.1216   27.4884 C   0  0  0  0  0  0  0  0  0  0  0  0
   10.4270  -15.8334   28.0498 C   0  0  0  0  0  0  0  0  0  0  0  0
   10.9690  -14.5694   27.9985 C   0  0  0  0  0  0  0  0  0  0  0  0
   10.1477  -13.6828   28.5824 N   0  0  0  0  0  0  0  0  0  0  0  0
    9.0869  -14.3499   29.0074 C   0  0  0  0  0  0  0  0  0  0  0  0
    9.2291  -15.6442   28.6997 N   0  0  0  0  0  0  0  0  0  0  0  0
   12.8575  -18.3750   26.9599 C   0  0  0  0  0  0  0  0  0  0  0  0
   13.0898  -18.8982   25.8493 O   0  0  0  0  0  0  0  0  0  0  0  0
   13.1198  -19.0988   28.0767 O   0  0  0  0  0  0  0  0  0  0  0  0
  2  1  1  1
  2  3  1  0
  4  2  1  0
  5  4  1  0
  5  6  1  6
  7  8  2  0
  7  5  1  0
  9  7  1  0
 10  9  1  0
 10 11  1  6
 11 12  1  0
 12 13  1  0
 13 14  2  0
 13 17  1  0
 15 16  2  0
 15 10  1  0
 18 15  1  0
 19 20  1  6
 19 18  1  0
 20 21  1  0
 21 25  1  0
 21 22  2  0
 22 23  1  0
 24 23  1  0
 25 24  2  0
 26 19  1  0
 27 26  2  0
 28 26  1  0
M  END
$$$$
