LEH.pdb
     RDKit          3D

 28 28  0  0  1  0  0  0  0  0999 V2000
    8.3016  -13.5328   18.1234 C   0  0  0  0  0  0  0  0  0  0  0  0
    7.5507  -13.5396   19.4169 C   0  0  2  0  0  0  0  0  0  0  0  0
    7.4376  -12.1217   19.9315 C   0  0  0  0  0  0  0  0  0  0  0  0
    8.2051  -14.3906   20.4834 C   0  0  0  0  0  0  0  0  0  0  0  0
    8.3650  -15.8231   20.0419 C   0  0  2  0  0  0  0  0  0  0  0  0
    7.0395  -16.3895   19.9209 N   0  0  0  0  0  0  0  0  0  0  0  0
    9.1427  -16.5129   21.1302 C   0  0  0  0  0  0  0  0  0  0  0  0
    8.5707  -16.9011   22.1808 O   0  0  0  0  0  0  0  0  0  0  0  0
   10.5199  -16.7269   20.9751 N   0  0  0  0  0  0  0  0  0  0  0  0
   11.3094  -17.3479   22.0091 C   0  0  1  0  0  0  0  0  0  0  0  0
   12.5635  -17.9643   21.4918 C   0  0  0  0  0  0  0  0  0  0  0  0
   13.4673  -18.6379   22.4260 C   0  0  0  0  0  0  0  0  0  0  0  0
   14.7247  -19.1902   21.9874 C   0  0  0  0  0  0  0  0  0  0  0  0
   15.8424  -19.1751   22.5075 O   0  0  0  0  0  0  0  0  0  0  0  0
   11.4391  -16.5451   23.2430 C   0  0  0  0  0  0  0  0  0  0  0  0
   12.0726  -15.4562   23.1580 O   0  0  0  0  0  0  0  0  0  0  0  0
   14.6919  -19.8742   20.7426 O   0  0  0  0  0  0  0  0  0  0  0  0
   10.9053  -16.9148   24.4786 N   0  0  0  0  0  0  0  0  0  0  0  0
   11.0045  -16.1131   25.7015 C   0  0  1  0  0  0  0  0  0  0  0  0
    9.7443  -16.1706   26.4942 C   0  0  0  0  0  0  0  0  0  0  0  0
    9.9054  -15.4123   27.7569 C   0  0  0  0  0  0  0  0  0  0  0  0
    9.9688  -14.0594   28.0014 C   0  0  0  0  0  0  0  0  0  0  0  0
   10.0362  -13.8239   29.3211 N   0  0  0  0  0  0  0  0  0  0  0  0
   10.0158  -14.9977   29.9317 C   0  0  0  0  0  0  0  0  0  0  0  0
    9.9372  -15.9690   29.0148 N   0  0  0  0  0  0  0  0  0  0  0  0
   12.0326  -16.8476   26.5025 C   0  0  0  0  0  0  0  0  0  0  0  0
   12.7126  -16.2215   27.3431 O   0  0  0  0  0  0  0  0  0  0  0  0
   12.2632  -18.1759   26.3528 O   0  0  0  0  0  0  0  0  0  0  0  0
  2  1  1  6
  2  3  1  0
  4  2  1  0
  5  4  1  0
  5  6  1  1
  7  8  2  0
  7  5  1  0
  9  7  1  0
 10  9  1  0
 10 11  1  6
 11 12  1  0
 12 13  1  0
 13 14  2  0
 13 17  1  0
 15 16  2  0
 15 10  1  0
 18 15  1  0
 19 20  1  1
 19 18  1  0
 20 21  1  0
 21 25  1  0
 21 22  2  0
 22 23  1  0
 24 23  1  0
 25 24  2  0
 26 19  1  0
 27 26  2  0
 28 26  1  0
M  END
$$$$
