NAD.pdb
     RDKit          3D

 22 21  0  0  1  0  0  0  0  0999 V2000
    2.0071  -18.4616   20.9189 N   0  0  0  0  0  0  0  0  0  0  0  0
    3.3466  -18.6568   20.6069 C   0  0  0  0  0  0  0  0  0  0  0  0
    3.7463  -19.8434   20.3365 O   0  0  0  0  0  0  0  0  0  0  0  0
    4.3668  -17.6073   20.5570 C   0  0  0  0  0  0  0  0  0  0  0  0
    5.6423  -18.0389   21.2368 C   0  0  2  0  0  0  0  0  0  0  0  0
    5.3952  -18.1545   22.6866 N   0  0  0  0  0  0  0  0  0  0  0  0
    6.6985  -16.9899   21.0380 C   0  0  0  0  0  0  0  0  0  0  0  0
    7.5279  -16.9890   20.1119 O   0  0  0  0  0  0  0  0  0  0  0  0
    7.0415  -13.6451   22.6279 C   0  0  0  0  0  0  0  0  0  0  0  0
    7.6834  -14.8085   21.8590 C   0  0  2  0  0  0  0  0  0  0  0  0
    6.7554  -15.9149   21.9828 N   0  0  0  0  0  0  0  0  0  0  0  0
    8.9417  -15.2558   22.5165 C   0  0  0  0  0  0  0  0  0  0  0  0
    9.9246  -14.4590   22.7172 O   0  0  0  0  0  0  0  0  0  0  0  0
    9.1575  -16.5818   22.9697 N   0  0  0  0  0  0  0  0  0  0  0  0
   10.4245  -16.9636   23.6074 C   0  0  1  0  0  0  0  0  0  0  0  0
   10.2112  -17.5506   24.9606 C   0  0  0  0  0  0  0  0  0  0  0  0
   11.5173  -17.9872   25.5163 C   0  0  0  0  0  0  0  0  0  0  0  0
   12.2788  -18.7990   24.9071 O   0  0  0  0  0  0  0  0  0  0  0  0
   10.9731  -18.0434   22.7191 C   0  0  0  0  0  0  0  0  0  0  0  0
   12.3261  -18.2236   22.4948 O   0  0  0  0  0  0  0  0  0  0  0  0
   12.0081  -17.5450   26.7468 O   0  0  0  0  0  0  0  0  0  0  0  0
   10.2166  -18.8681   22.1110 O   0  0  0  0  0  0  0  0  0  0  0  0
  2  1  1  0
  3  2  2  0
  4  5  1  0
  4  2  1  0
  5  6  1  1
  7 11  1  0
  7  5  1  0
  8  7  2  0
 10 12  1  0
 10  9  1  1
 10 11  1  0
 12 14  1  0
 13 12  2  0
 14 15  1  0
 15 16  1  1
 16 17  1  0
 17 21  1  0
 18 17  2  0
 19 20  1  0
 19 15  1  0
 22 19  2  0
M  END
$$$$
