NAD.pdb
     RDKit          3D

 22 21  0  0  1  0  0  0  0  0999 V2000
    8.1623  -11.6806   19.9023 N   0  0  0  0  0  0  0  0  0  0  0  0
    8.3963  -12.9878   19.4946 C   0  0  0  0  0  0  0  0  0  0  0  0
    9.2891  -13.6708   20.1089 O   0  0  0  0  0  0  0  0  0  0  0  0
    7.7002  -13.6727   18.4032 C   0  0  0  0  0  0  0  0  0  0  0  0
    8.5774  -14.7112   17.7494 C   0  0  2  0  0  0  0  0  0  0  0  0
    7.8443  -15.3124   16.6192 N   0  0  0  0  0  0  0  0  0  0  0  0
    8.8772  -15.8073   18.7313 C   0  0  0  0  0  0  0  0  0  0  0  0
    8.0214  -16.4024   19.4089 O   0  0  0  0  0  0  0  0  0  0  0  0
   11.4142  -18.2631   18.9607 C   0  0  0  0  0  0  0  0  0  0  0  0
   10.6602  -17.2365   19.8178 C   0  0  2  0  0  0  0  0  0  0  0  0
   10.2460  -16.1939   18.9003 N   0  0  0  0  0  0  0  0  0  0  0  0
   11.5721  -16.5815   20.7951 C   0  0  0  0  0  0  0  0  0  0  0  0
   12.0456  -15.4069   20.6018 O   0  0  0  0  0  0  0  0  0  0  0  0
   11.9890  -17.1919   22.0048 N   0  0  0  0  0  0  0  0  0  0  0  0
   12.8098  -16.4569   22.9763 C   0  0  1  0  0  0  0  0  0  0  0  0
   12.8657  -17.1499   24.2945 C   0  0  0  0  0  0  0  0  0  0  0  0
   11.5516  -17.0174   24.9734 C   0  0  0  0  0  0  0  0  0  0  0  0
   10.6283  -16.2696   24.5286 O   0  0  0  0  0  0  0  0  0  0  0  0
   14.1904  -16.4814   22.3851 C   0  0  0  0  0  0  0  0  0  0  0  0
   15.2103  -15.6493   22.8104 O   0  0  0  0  0  0  0  0  0  0  0  0
   11.2295  -17.6981   26.1497 O   0  0  0  0  0  0  0  0  0  0  0  0
   14.5093  -17.2791   21.4447 O   0  0  0  0  0  0  0  0  0  0  0  0
  2  1  1  0
  3  2  2  0
  4  5  1  0
  4  2  1  0
  5  6  1  6
  7 11  1  0
  7  5  1  0
  8  7  2  0
 10 12  1  0
 10  9  1  6
 10 11  1  0
 12 14  1  0
 13 12  2  0
 14 15  1  0
 15 16  1  1
 16 17  1  0
 17 21  1  0
 18 17  2  0
 19 20  1  0
 19 15  1  0
 22 19  2  0
M  END
$$$$
