NAD.pdb
     RDKit          3D

 22 21  0  0  1  0  0  0  0  0999 V2000
    7.6319  -17.8164   17.9118 N   0  0  0  0  0  0  0  0  0  0  0  0
    8.5720  -16.7956   17.8499 C   0  0  0  0  0  0  0  0  0  0  0  0
    9.0589  -16.4792   16.7081 O   0  0  0  0  0  0  0  0  0  0  0  0
    9.0684  -16.0299   18.9954 C   0  0  0  0  0  0  0  0  0  0  0  0
    8.4834  -16.5285   20.2932 C   0  0  2  0  0  0  0  0  0  0  0  0
    7.0317  -16.2661   20.2946 N   0  0  0  0  0  0  0  0  0  0  0  0
    9.0837  -15.7683   21.4409 C   0  0  0  0  0  0  0  0  0  0  0  0
   10.2818  -15.4476   21.5263 O   0  0  0  0  0  0  0  0  0  0  0  0
    7.4604  -14.2425   24.4558 C   0  0  0  0  0  0  0  0  0  0  0  0
    8.7013  -14.8072   23.7501 C   0  0  2  0  0  0  0  0  0  0  0  0
    8.2150  -15.3868   22.5139 N   0  0  0  0  0  0  0  0  0  0  0  0
    9.2919  -15.9332   24.5241 C   0  0  0  0  0  0  0  0  0  0  0  0
    8.7530  -17.0952   24.5527 O   0  0  0  0  0  0  0  0  0  0  0  0
   10.4827  -15.8183   25.2848 N   0  0  0  0  0  0  0  0  0  0  0  0
   11.0212  -16.9699   26.0207 C   0  0  1  0  0  0  0  0  0  0  0  0
   12.5005  -16.8853   26.1806 C   0  0  0  0  0  0  0  0  0  0  0  0
   13.1373  -16.8587   24.8393 C   0  0  0  0  0  0  0  0  0  0  0  0
   12.4697  -16.9752   23.7667 O   0  0  0  0  0  0  0  0  0  0  0  0
   10.4040  -16.8561   27.3853 C   0  0  0  0  0  0  0  0  0  0  0  0
   10.4817  -17.8575   28.3365 O   0  0  0  0  0  0  0  0  0  0  0  0
   14.5130  -16.7072   24.6517 O   0  0  0  0  0  0  0  0  0  0  0  0
    9.7638  -15.8185   27.7536 O   0  0  0  0  0  0  0  0  0  0  0  0
  2  1  1  0
  3  2  2  0
  4  5  1  0
  4  2  1  0
  5  6  1  6
  7 11  1  0
  7  5  1  0
  8  7  2  0
 10 12  1  0
 10  9  1  1
 10 11  1  0
 12 14  1  0
 13 12  2  0
 14 15  1  0
 15 16  1  1
 16 17  1  0
 17 21  1  0
 18 17  2  0
 19 20  1  0
 19 15  1  0
 22 19  2  0
M  END
$$$$
