NAD.pdb
     RDKit          3D

 22 21  0  0  1  0  0  0  0  0999 V2000
   13.8545  -16.2622   13.2580 N   0  0  0  0  0  0  0  0  0  0  0  0
   12.6841  -16.0864   13.9854 C   0  0  0  0  0  0  0  0  0  0  0  0
   11.6681  -16.8111   13.6965 O   0  0  0  0  0  0  0  0  0  0  0  0
   12.5007  -15.1276   15.0772 C   0  0  0  0  0  0  0  0  0  0  0  0
   12.7286  -15.7681   16.4238 C   0  0  2  0  0  0  0  0  0  0  0  0
   11.7148  -16.8196   16.6301 N   0  0  0  0  0  0  0  0  0  0  0  0
   12.5466  -14.7428   17.5060 C   0  0  0  0  0  0  0  0  0  0  0  0
   13.3194  -13.7917   17.7153 O   0  0  0  0  0  0  0  0  0  0  0  0
    9.5481  -14.0093   19.5707 C   0  0  0  0  0  0  0  0  0  0  0  0
   11.0660  -13.8914   19.3729 C   0  0  2  0  0  0  0  0  0  0  0  0
   11.4026  -14.8702   18.3584 N   0  0  0  0  0  0  0  0  0  0  0  0
   11.7999  -14.3060   20.5996 C   0  0  0  0  0  0  0  0  0  0  0  0
   11.6640  -13.6896   21.7145 O   0  0  0  0  0  0  0  0  0  0  0  0
   12.6992  -15.4014   20.6391 N   0  0  0  0  0  0  0  0  0  0  0  0
   13.3853  -15.7689   21.8848 C   0  0  1  0  0  0  0  0  0  0  0  0
   13.2667  -17.2257   22.1761 C   0  0  0  0  0  0  0  0  0  0  0  0
   11.9281  -17.5015   22.7569 C   0  0  0  0  0  0  0  0  0  0  0  0
   11.0105  -18.0859   22.1041 O   0  0  0  0  0  0  0  0  0  0  0  0
   14.8317  -15.4712   21.6101 C   0  0  0  0  0  0  0  0  0  0  0  0
   15.8221  -15.5818   22.5695 O   0  0  0  0  0  0  0  0  0  0  0  0
   11.5728  -17.1399   24.0583 O   0  0  0  0  0  0  0  0  0  0  0  0
   15.2386  -15.0940   20.4637 O   0  0  0  0  0  0  0  0  0  0  0  0
  2  1  1  0
  3  2  2  0
  4  5  1  0
  4  2  1  0
  5  6  1  1
  7 11  1  0
  7  5  1  0
  8  7  2  0
 10 12  1  0
 10  9  1  1
 10 11  1  0
 12 14  1  0
 13 12  2  0
 14 15  1  0
 15 16  1  6
 16 17  1  0
 17 21  1  0
 18 17  2  0
 19 20  1  0
 19 15  1  0
 22 19  2  0
M  END
$$$$
