NAD.pdb
     RDKit          3D

 22 21  0  0  1  0  0  0  0  0999 V2000
    9.1978  -16.4832   14.0658 N   0  0  0  0  0  0  0  0  0  0  0  0
   10.3526  -15.9640   14.6372 C   0  0  0  0  0  0  0  0  0  0  0  0
   11.4326  -15.9681   13.9483 O   0  0  0  0  0  0  0  0  0  0  0  0
   10.4513  -15.3990   15.9847 C   0  0  0  0  0  0  0  0  0  0  0  0
   11.2238  -16.3039   16.9119 C   0  0  2  0  0  0  0  0  0  0  0  0
   10.3318  -17.3816   17.3801 N   0  0  0  0  0  0  0  0  0  0  0  0
   11.6696  -15.5271   18.1174 C   0  0  0  0  0  0  0  0  0  0  0  0
   12.5420  -14.6415   18.1043 O   0  0  0  0  0  0  0  0  0  0  0  0
   10.3199  -15.5783   21.6207 C   0  0  0  0  0  0  0  0  0  0  0  0
   11.3759  -15.1325   20.5994 C   0  0  2  0  0  0  0  0  0  0  0  0
   11.0469  -15.8286   19.3715 N   0  0  0  0  0  0  0  0  0  0  0  0
   12.7316  -15.6088   20.9879 C   0  0  0  0  0  0  0  0  0  0  0  0
   13.1719  -16.7616   20.6435 O   0  0  0  0  0  0  0  0  0  0  0  0
   13.6379  -14.8399   21.7608 N   0  0  0  0  0  0  0  0  0  0  0  0
   14.9787  -15.3492   22.0779 C   0  0  1  0  0  0  0  0  0  0  0  0
   15.9338  -14.2473   22.3854 C   0  0  0  0  0  0  0  0  0  0  0  0
   17.2875  -14.8186   22.6010 C   0  0  0  0  0  0  0  0  0  0  0  0
   17.5734  -16.0199   22.3096 O   0  0  0  0  0  0  0  0  0  0  0  0
   14.7810  -16.1499   23.3333 C   0  0  0  0  0  0  0  0  0  0  0  0
   15.4540  -17.3305   23.5913 O   0  0  0  0  0  0  0  0  0  0  0  0
   18.3469  -14.0856   23.1407 O   0  0  0  0  0  0  0  0  0  0  0  0
   13.9716  -15.7861   24.2470 O   0  0  0  0  0  0  0  0  0  0  0  0
  2  1  1  0
  3  2  2  0
  4  5  1  0
  4  2  1  0
  5  6  1  1
  7 11  1  0
  7  5  1  0
  8  7  2  0
 10 12  1  0
 10  9  1  1
 10 11  1  0
 12 14  1  0
 13 12  2  0
 14 15  1  0
 15 16  1  1
 16 17  1  0
 17 21  1  0
 18 17  2  0
 19 20  1  0
 19 15  1  0
 22 19  2  0
M  END
$$$$
