NAD.pdb
     RDKit          3D

 22 21  0  0  1  0  0  0  0  0999 V2000
    8.0192  -13.7045   12.9012 N   0  0  0  0  0  0  0  0  0  0  0  0
    7.4823  -14.1491   14.1027 C   0  0  0  0  0  0  0  0  0  0  0  0
    6.5631  -15.0408   14.0707 O   0  0  0  0  0  0  0  0  0  0  0  0
    7.8796  -13.6823   15.4328 C   0  0  0  0  0  0  0  0  0  0  0  0
    8.3264  -14.8235   16.3121 C   0  0  2  0  0  0  0  0  0  0  0  0
    7.1368  -15.5588   16.7817 N   0  0  0  0  0  0  0  0  0  0  0  0
    9.0319  -14.2806   17.5217 C   0  0  0  0  0  0  0  0  0  0  0  0
   10.1646  -13.7684   17.5084 O   0  0  0  0  0  0  0  0  0  0  0  0
    7.7644  -13.7803   21.0092 C   0  0  0  0  0  0  0  0  0  0  0  0
    8.9325  -13.8772   20.0177 C   0  0  2  0  0  0  0  0  0  0  0  0
    8.3524  -14.3596   18.7802 N   0  0  0  0  0  0  0  0  0  0  0  0
    9.9106  -14.9158   20.4420 C   0  0  0  0  0  0  0  0  0  0  0  0
    9.6800  -16.1675   20.2955 O   0  0  0  0  0  0  0  0  0  0  0  0
   11.1620  -14.6139   21.0360 N   0  0  0  0  0  0  0  0  0  0  0  0
   12.1011  -15.6832   21.4002 C   0  0  1  0  0  0  0  0  0  0  0  0
   13.5176  -15.2239   21.3392 C   0  0  0  0  0  0  0  0  0  0  0  0
   13.8632  -14.8877   19.9346 C   0  0  0  0  0  0  0  0  0  0  0  0
   13.6450  -15.6837   18.9710 O   0  0  0  0  0  0  0  0  0  0  0  0
   11.7770  -15.9847   22.8355 C   0  0  0  0  0  0  0  0  0  0  0  0
   12.3532  -17.0278   23.5380 O   0  0  0  0  0  0  0  0  0  0  0  0
   14.4549  -13.6780   19.5640 O   0  0  0  0  0  0  0  0  0  0  0  0
   10.9417  -15.2903   23.5005 O   0  0  0  0  0  0  0  0  0  0  0  0
  2  1  1  0
  3  2  2  0
  4  5  1  0
  4  2  1  0
  5  6  1  1
  7 11  1  0
  7  5  1  0
  8  7  2  0
 10 12  1  0
 10  9  1  1
 10 11  1  0
 12 14  1  0
 13 12  2  0
 14 15  1  0
 15 16  1  1
 16 17  1  0
 17 21  1  0
 18 17  2  0
 19 20  1  0
 19 15  1  0
 22 19  2  0
M  END
$$$$
