NAD.pdb
     RDKit          3D

 22 21  0  0  1  0  0  0  0  0999 V2000
    7.7814  -16.1911   14.9620 N   0  0  0  0  0  0  0  0  0  0  0  0
    7.7534  -14.8498   15.3223 C   0  0  0  0  0  0  0  0  0  0  0  0
    7.3860  -13.9880   14.4486 O   0  0  0  0  0  0  0  0  0  0  0  0
    8.1125  -14.3182   16.6388 C   0  0  0  0  0  0  0  0  0  0  0  0
    8.5315  -15.4148   17.5860 C   0  0  2  0  0  0  0  0  0  0  0  0
    7.3491  -16.2280   17.9280 N   0  0  0  0  0  0  0  0  0  0  0  0
    9.0504  -14.8095   18.8588 C   0  0  0  0  0  0  0  0  0  0  0  0
   10.1758  -14.2979   18.9903 O   0  0  0  0  0  0  0  0  0  0  0  0
    7.3316  -14.1873   22.1265 C   0  0  0  0  0  0  0  0  0  0  0  0
    8.6200  -14.3911   21.3168 C   0  0  2  0  0  0  0  0  0  0  0  0
    8.1884  -14.8238   20.0026 N   0  0  0  0  0  0  0  0  0  0  0  0
    9.4289  -15.5114   21.8701 C   0  0  0  0  0  0  0  0  0  0  0  0
    9.2407  -16.7273   21.5129 O   0  0  0  0  0  0  0  0  0  0  0  0
   10.4608  -15.3322   22.8256 N   0  0  0  0  0  0  0  0  0  0  0  0
   11.2096  -16.4815   23.3510 C   0  0  1  0  0  0  0  0  0  0  0  0
   12.5761  -16.0952   23.8035 C   0  0  0  0  0  0  0  0  0  0  0  0
   13.3179  -17.3137   24.2161 C   0  0  0  0  0  0  0  0  0  0  0  0
   13.4200  -17.6700   25.4295 O   0  0  0  0  0  0  0  0  0  0  0  0
   10.4282  -16.9082   24.5607 C   0  0  0  0  0  0  0  0  0  0  0  0
   10.3571  -18.2210   24.9909 O   0  0  0  0  0  0  0  0  0  0  0  0
   13.9610  -18.1583   23.3084 O   0  0  0  0  0  0  0  0  0  0  0  0
    9.7755  -16.0773   25.2719 O   0  0  0  0  0  0  0  0  0  0  0  0
  2  1  1  0
  3  2  2  0
  4  5  1  0
  4  2  1  0
  5  6  1  1
  7 11  1  0
  7  5  1  0
  8  7  2  0
 10 12  1  0
 10  9  1  1
 10 11  1  0
 12 14  1  0
 13 12  2  0
 14 15  1  0
 15 16  1  1
 16 17  1  0
 17 21  1  0
 18 17  2  0
 19 20  1  0
 19 15  1  0
 22 19  2  0
M  END
$$$$
