NAD.pdb
     RDKit          3D

 22 21  0  0  1  0  0  0  0  0999 V2000
   14.7521  -16.4531   16.2242 N   0  0  0  0  0  0  0  0  0  0  0  0
   14.4149  -15.1092   16.3235 C   0  0  0  0  0  0  0  0  0  0  0  0
   14.6831  -14.3356   15.3384 O   0  0  0  0  0  0  0  0  0  0  0  0
   13.7658  -14.4812   17.4764 C   0  0  0  0  0  0  0  0  0  0  0  0
   13.6951  -15.4203   18.6546 C   0  0  2  0  0  0  0  0  0  0  0  0
   13.0043  -16.6559   18.2397 N   0  0  0  0  0  0  0  0  0  0  0  0
   12.8834  -14.7921   19.7510 C   0  0  0  0  0  0  0  0  0  0  0  0
   13.1443  -13.7010   20.2867 O   0  0  0  0  0  0  0  0  0  0  0  0
    9.4921  -15.6266   21.0113 C   0  0  0  0  0  0  0  0  0  0  0  0
   10.8699  -15.0004   21.2691 C   0  0  2  0  0  0  0  0  0  0  0  0
   11.7276  -15.5006   20.2133 N   0  0  0  0  0  0  0  0  0  0  0  0
   11.4560  -15.5008   22.5425 C   0  0  0  0  0  0  0  0  0  0  0  0
   10.8952  -15.2961   23.6761 O   0  0  0  0  0  0  0  0  0  0  0  0
   12.6669  -16.2351   22.6096 N   0  0  0  0  0  0  0  0  0  0  0  0
   13.2476  -16.6146   23.9044 C   0  0  1  0  0  0  0  0  0  0  0  0
   12.9199  -18.0218   24.2699 C   0  0  0  0  0  0  0  0  0  0  0  0
   12.0923  -18.0275   25.5029 C   0  0  0  0  0  0  0  0  0  0  0  0
   11.7966  -16.9641   26.1288 O   0  0  0  0  0  0  0  0  0  0  0  0
   14.7306  -16.5309   23.6815 C   0  0  0  0  0  0  0  0  0  0  0  0
   15.6546  -16.5923   24.7091 O   0  0  0  0  0  0  0  0  0  0  0  0
   11.5789  -19.1956   26.0708 O   0  0  0  0  0  0  0  0  0  0  0  0
   15.2332  -16.3964   22.5189 O   0  0  0  0  0  0  0  0  0  0  0  0
  2  1  1  0
  3  2  2  0
  4  5  1  0
  4  2  1  0
  5  6  1  6
  7 11  1  0
  7  5  1  0
  8  7  2  0
 10 12  1  0
 10  9  1  6
 10 11  1  0
 12 14  1  0
 13 12  2  0
 14 15  1  0
 15 16  1  6
 16 17  1  0
 17 21  1  0
 18 17  2  0
 19 20  1  0
 19 15  1  0
 22 19  2  0
M  END
$$$$
