NAD.pdb
     RDKit          3D

 22 21  0  0  1  0  0  0  0  0999 V2000
    8.4744  -12.3436   18.8799 N   0  0  0  0  0  0  0  0  0  0  0  0
    8.7937  -13.1771   19.9443 C   0  0  0  0  0  0  0  0  0  0  0  0
    9.9611  -13.7033   19.9819 O   0  0  0  0  0  0  0  0  0  0  0  0
    7.8990  -13.5170   21.0528 C   0  0  0  0  0  0  0  0  0  0  0  0
    8.0795  -14.9480   21.4944 C   0  0  2  0  0  0  0  0  0  0  0  0
    7.9491  -15.8304   20.3195 N   0  0  0  0  0  0  0  0  0  0  0  0
    6.9923  -15.3168   22.4627 C   0  0  0  0  0  0  0  0  0  0  0  0
    6.1031  -14.5418   22.8554 O   0  0  0  0  0  0  0  0  0  0  0  0
    5.3787  -18.3806   23.3061 C   0  0  0  0  0  0  0  0  0  0  0  0
    5.9986  -17.1226   23.9305 C   0  0  2  0  0  0  0  0  0  0  0  0
    6.9796  -16.6559   22.9711 N   0  0  0  0  0  0  0  0  0  0  0  0
    6.7613  -17.4569   25.1642 C   0  0  0  0  0  0  0  0  0  0  0  0
    6.1774  -17.7616   26.2631 O   0  0  0  0  0  0  0  0  0  0  0  0
    8.1776  -17.4663   25.2285 N   0  0  0  0  0  0  0  0  0  0  0  0
    8.8738  -17.8769   26.4550 C   0  0  1  0  0  0  0  0  0  0  0  0
    9.6492  -19.1346   26.2599 C   0  0  0  0  0  0  0  0  0  0  0  0
    9.4409  -20.0248   27.4301 C   0  0  0  0  0  0  0  0  0  0  0  0
    8.2958  -20.2224   27.9394 O   0  0  0  0  0  0  0  0  0  0  0  0
    9.8537  -16.7677   26.7111 C   0  0  0  0  0  0  0  0  0  0  0  0
   10.4508  -16.5547   27.9406 O   0  0  0  0  0  0  0  0  0  0  0  0
   10.4817  -20.7092   28.0619 O   0  0  0  0  0  0  0  0  0  0  0  0
   10.1980  -15.9460   25.8009 O   0  0  0  0  0  0  0  0  0  0  0  0
  2  1  1  0
  3  2  2  0
  4  5  1  0
  4  2  1  0
  5  6  1  6
  7 11  1  0
  7  5  1  0
  8  7  2  0
 10 12  1  0
 10  9  1  6
 10 11  1  0
 12 14  1  0
 13 12  2  0
 14 15  1  0
 15 16  1  6
 16 17  1  0
 17 21  1  0
 18 17  2  0
 19 20  1  0
 19 15  1  0
 22 19  2  0
M  END
$$$$
