WES.pdb
     RDKit          3D

 30 31  0  0  1  0  0  0  0  0999 V2000
    6.0954  -17.6486   24.1383 N   0  0  0  0  0  0  0  0  0  0  0  0
    6.8307  -17.1186   23.0041 C   0  0  1  0  0  0  0  0  0  0  0  0
    6.8190  -15.6253   23.0787 C   0  0  0  0  0  0  0  0  0  0  0  0
    6.8662  -15.1227   24.4730 C   0  0  0  0  0  0  0  0  0  0  0  0
    6.7420  -15.8835   25.6161 C   0  0  0  0  0  0  0  0  0  0  0  0
    6.8391  -15.0603   26.6831 N   0  0  0  0  0  0  0  0  0  0  0  0
    7.0206  -13.7977   26.2977 C   0  0  0  0  0  0  0  0  0  0  0  0
    7.1772  -12.5929   26.9491 C   0  0  0  0  0  0  0  0  0  0  0  0
    7.3522  -11.4135   26.2498 C   0  0  0  0  0  0  0  0  0  0  0  0
    7.3709  -11.4398   24.8684 C   0  0  0  0  0  0  0  0  0  0  0  0
    7.2123  -12.6568   24.2307 C   0  0  0  0  0  0  0  0  0  0  0  0
    7.0383  -13.8323   24.9074 C   0  0  0  0  0  0  0  0  0  0  0  0
    8.2720  -17.5517   23.1188 C   0  0  0  0  0  0  0  0  0  0  0  0
    8.7446  -17.8564   24.2361 O   0  0  0  0  0  0  0  0  0  0  0  0
    9.1207  -17.6274   21.9954 N   0  0  0  0  0  0  0  0  0  0  0  0
   10.4804  -17.9633   21.9070 C   0  0  1  0  0  0  0  0  0  0  0  0
   11.1324  -17.9751   20.5512 C   0  0  0  0  0  0  0  0  0  0  0  0
   10.2750  -17.3945   19.4688 C   0  0  0  0  0  0  0  0  0  0  0  0
   10.9928  -17.3903   18.1494 C   0  0  0  0  0  0  0  0  0  0  0  0
   11.0592  -16.3545   17.4630 O   0  0  0  0  0  0  0  0  0  0  0  0
   11.3953  -17.3826   22.8969 C   0  0  0  0  0  0  0  0  0  0  0  0
   11.5614  -16.1355   22.8976 O   0  0  0  0  0  0  0  0  0  0  0  0
   11.5875  -18.5441   17.6868 O   0  0  0  0  0  0  0  0  0  0  0  0
   12.9493  -19.7599   25.7577 O   0  0  0  0  0  0  0  0  0  0  0  0
   13.0843  -18.4116   26.0832 C   0  0  0  0  0  0  0  0  0  0  0  0
   13.0318  -17.6085   24.8046 C   0  0  2  0  0  0  0  0  0  0  0  0
   12.1039  -18.1336   23.8516 N   0  0  0  0  0  0  0  0  0  0  0  0
   14.3942  -17.4818   24.2210 C   0  0  0  0  0  0  0  0  0  0  0  0
   14.5841  -17.9188   23.0599 O   0  0  0  0  0  0  0  0  0  0  0  0
   15.4204  -16.8990   24.9395 O   0  0  0  0  0  0  0  0  0  0  0  0
  2  1  1  1
  2 13  1  0
  3  4  1  0
  3  2  1  0
  4  5  2  0
  5  6  1  0
  7  6  1  0
  8  7  2  0
  9  8  1  0
 10 11  1  0
 10  9  2  0
 11 12  2  0
 12  4  1  0
 12  7  1  0
 13 14  2  0
 13 15  1  0
 15 16  1  0
 16 17  1  6
 16 21  1  0
 18 17  1  0
 19 18  1  0
 20 19  2  0
 21 22  2  0
 23 19  1  0
 26 25  1  1
 25 24  1  0
 26 28  1  0
 27 21  1  0
 27 26  1  0
 28 30  1  0
 29 28  2  0
M  END
$$$$
