WES.pdb
     RDKit          3D

 30 31  0  0  1  0  0  0  0  0999 V2000
    6.7130  -17.7356   24.3277 N   0  0  0  0  0  0  0  0  0  0  0  0
    7.7819  -16.8344   23.9365 C   0  0  1  0  0  0  0  0  0  0  0  0
    8.2168  -16.0548   25.1361 C   0  0  0  0  0  0  0  0  0  0  0  0
    7.2096  -15.0534   25.5624 C   0  0  0  0  0  0  0  0  0  0  0  0
    5.9199  -15.3202   25.9701 C   0  0  0  0  0  0  0  0  0  0  0  0
    5.3227  -14.1472   26.2746 N   0  0  0  0  0  0  0  0  0  0  0  0
    6.1556  -13.1240   26.0873 C   0  0  0  0  0  0  0  0  0  0  0  0
    6.0688  -11.7565   26.2382 C   0  0  0  0  0  0  0  0  0  0  0  0
    7.1403  -10.9310   25.9533 C   0  0  0  0  0  0  0  0  0  0  0  0
    8.3247  -11.4858   25.5075 C   0  0  0  0  0  0  0  0  0  0  0  0
    8.3948  -12.8593   25.3616 C   0  0  0  0  0  0  0  0  0  0  0  0
    7.3445  -13.6899   25.6390 C   0  0  0  0  0  0  0  0  0  0  0  0
    8.9682  -17.6563   23.4945 C   0  0  0  0  0  0  0  0  0  0  0  0
    9.1275  -18.8129   23.9431 O   0  0  0  0  0  0  0  0  0  0  0  0
    9.9200  -17.1617   22.5793 N   0  0  0  0  0  0  0  0  0  0  0  0
   11.2055  -17.6295   22.2663 C   0  0  1  0  0  0  0  0  0  0  0  0
   11.9398  -17.0003   21.1137 C   0  0  0  0  0  0  0  0  0  0  0  0
   13.2520  -17.6557   20.8096 C   0  0  0  0  0  0  0  0  0  0  0  0
   13.9094  -17.0284   19.6136 C   0  0  0  0  0  0  0  0  0  0  0  0
   14.5222  -17.7250   18.7843 O   0  0  0  0  0  0  0  0  0  0  0  0
   12.1339  -17.8760   23.3759 C   0  0  0  0  0  0  0  0  0  0  0  0
   12.6233  -16.8850   23.9768 O   0  0  0  0  0  0  0  0  0  0  0  0
   13.8373  -15.6651   19.4258 O   0  0  0  0  0  0  0  0  0  0  0  0
   14.0574  -21.0672   26.4719 O   0  0  0  0  0  0  0  0  0  0  0  0
   13.5389  -20.9134   25.1875 C   0  0  0  0  0  0  0  0  0  0  0  0
   13.3919  -19.4356   24.9101 C   0  0  2  0  0  0  0  0  0  0  0  0
   12.5157  -19.1562   23.8151 N   0  0  0  0  0  0  0  0  0  0  0  0
   14.7287  -18.8157   24.7059 C   0  0  0  0  0  0  0  0  0  0  0  0
   15.1306  -18.6490   23.5286 O   0  0  0  0  0  0  0  0  0  0  0  0
   15.5042  -18.4349   25.7840 O   0  0  0  0  0  0  0  0  0  0  0  0
  2  1  1  1
  2 13  1  0
  3  4  1  0
  3  2  1  0
  4  5  2  0
  5  6  1  0
  7  6  1  0
  8  7  2  0
  9  8  1  0
 10 11  1  0
 10  9  2  0
 11 12  2  0
 12  4  1  0
 12  7  1  0
 13 14  2  0
 13 15  1  0
 15 16  1  0
 16 17  1  6
 16 21  1  0
 18 17  1  0
 19 18  1  0
 20 19  2  0
 21 22  2  0
 23 19  1  0
 26 25  1  6
 25 24  1  0
 26 28  1  0
 27 21  1  0
 27 26  1  0
 28 30  1  0
 29 28  2  0
M  END
$$$$
