WES.pdb
     RDKit          3D

 30 31  0  0  1  0  0  0  0  0999 V2000
    6.6070  -17.5975   24.5795 N   0  0  0  0  0  0  0  0  0  0  0  0
    7.6039  -16.6812   24.0555 C   0  0  1  0  0  0  0  0  0  0  0  0
    8.1316  -15.8498   25.1807 C   0  0  0  0  0  0  0  0  0  0  0  0
    7.1719  -14.8081   25.6198 C   0  0  0  0  0  0  0  0  0  0  0  0
    6.0008  -15.0226   26.3151 C   0  0  0  0  0  0  0  0  0  0  0  0
    5.4103  -13.8259   26.5259 N   0  0  0  0  0  0  0  0  0  0  0  0
    6.1348  -12.8368   26.0039 C   0  0  0  0  0  0  0  0  0  0  0  0
    6.0043  -11.4663   25.9317 C   0  0  0  0  0  0  0  0  0  0  0  0
    6.9546  -10.6845   25.3023 C   0  0  0  0  0  0  0  0  0  0  0  0
    8.0599  -11.2869   24.7323 C   0  0  0  0  0  0  0  0  0  0  0  0
    8.1754  -12.6627   24.8137 C   0  0  0  0  0  0  0  0  0  0  0  0
    7.2446  -13.4505   25.4326 C   0  0  0  0  0  0  0  0  0  0  0  0
    8.7651  -17.4851   23.5228 C   0  0  0  0  0  0  0  0  0  0  0  0
    9.1206  -18.5311   24.1092 O   0  0  0  0  0  0  0  0  0  0  0  0
    9.4766  -17.0952   22.3696 N   0  0  0  0  0  0  0  0  0  0  0  0
   10.8276  -17.2732   22.0342 C   0  0  1  0  0  0  0  0  0  0  0  0
   11.3092  -16.7768   20.6981 C   0  0  0  0  0  0  0  0  0  0  0  0
   12.7322  -17.1388   20.4017 C   0  0  0  0  0  0  0  0  0  0  0  0
   13.1628  -16.6042   19.0657 C   0  0  0  0  0  0  0  0  0  0  0  0
   13.8139  -15.5470   18.9818 O   0  0  0  0  0  0  0  0  0  0  0  0
   11.8327  -16.9886   23.0652 C   0  0  0  0  0  0  0  0  0  0  0  0
   11.9943  -15.7951   23.4287 O   0  0  0  0  0  0  0  0  0  0  0  0
   12.8365  -17.2874   17.9143 O   0  0  0  0  0  0  0  0  0  0  0  0
   12.5215  -19.1277   26.1997 O   0  0  0  0  0  0  0  0  0  0  0  0
   13.7769  -18.8631   25.6556 C   0  0  0  0  0  0  0  0  0  0  0  0
   13.6355  -17.7278   24.6689 C   0  0  2  0  0  0  0  0  0  0  0  0
   12.6330  -17.9691   23.6781 N   0  0  0  0  0  0  0  0  0  0  0  0
   14.9510  -17.4223   24.0451 C   0  0  0  0  0  0  0  0  0  0  0  0
   15.0407  -17.4782   22.7945 O   0  0  0  0  0  0  0  0  0  0  0  0
   16.0422  -17.0866   24.8233 O   0  0  0  0  0  0  0  0  0  0  0  0
  2  1  1  1
  2 13  1  0
  3  4  1  0
  3  2  1  0
  4  5  2  0
  5  6  1  0
  7  6  1  0
  8  7  2  0
  9  8  1  0
 10 11  1  0
 10  9  2  0
 11 12  2  0
 12  4  1  0
 12  7  1  0
 13 14  2  0
 13 15  1  0
 15 16  1  0
 16 17  1  6
 16 21  1  0
 18 17  1  0
 19 18  1  0
 20 19  2  0
 21 22  2  0
 23 19  1  0
 26 25  1  1
 25 24  1  0
 26 28  1  0
 27 21  1  0
 27 26  1  0
 28 30  1  0
 29 28  2  0
M  END
$$$$
