WES.pdb
     RDKit          3D

 30 31  0  0  1  0  0  0  0  0999 V2000
    6.2564  -18.0648   23.6256 N   0  0  0  0  0  0  0  0  0  0  0  0
    7.1953  -17.2907   22.8336 C   0  0  1  0  0  0  0  0  0  0  0  0
    6.8100  -15.8477   22.9056 C   0  0  0  0  0  0  0  0  0  0  0  0
    6.7201  -15.3495   24.2994 C   0  0  0  0  0  0  0  0  0  0  0  0
    6.2939  -16.0705   25.3946 C   0  0  0  0  0  0  0  0  0  0  0  0
    6.3569  -15.2670   26.4789 N   0  0  0  0  0  0  0  0  0  0  0  0
    6.8029  -14.0550   26.1504 C   0  0  0  0  0  0  0  0  0  0  0  0
    7.0523  -12.8881   26.8409 C   0  0  0  0  0  0  0  0  0  0  0  0
    7.5274  -11.7595   26.1997 C   0  0  0  0  0  0  0  0  0  0  0  0
    7.7582  -11.7989   24.8379 C   0  0  0  0  0  0  0  0  0  0  0  0
    7.5028  -12.9773   24.1605 C   0  0  0  0  0  0  0  0  0  0  0  0
    7.0328  -14.1025   24.7795 C   0  0  0  0  0  0  0  0  0  0  0  0
    8.5650  -17.4101   23.4564 C   0  0  0  0  0  0  0  0  0  0  0  0
    8.7020  -17.9926   24.5548 O   0  0  0  0  0  0  0  0  0  0  0  0
    9.7157  -16.8810   22.8368 N   0  0  0  0  0  0  0  0  0  0  0  0
   11.0684  -16.9870   23.1950 C   0  0  1  0  0  0  0  0  0  0  0  0
   12.1067  -16.4297   22.2597 C   0  0  0  0  0  0  0  0  0  0  0  0
   11.5268  -15.7319   21.0677 C   0  0  0  0  0  0  0  0  0  0  0  0
   11.7545  -16.5218   19.8106 C   0  0  0  0  0  0  0  0  0  0  0  0
   11.0035  -16.3864   18.8277 O   0  0  0  0  0  0  0  0  0  0  0  0
   11.4347  -16.6873   24.5843 C   0  0  0  0  0  0  0  0  0  0  0  0
   12.2615  -15.7636   24.7984 O   0  0  0  0  0  0  0  0  0  0  0  0
   12.8062  -17.4092   19.7375 O   0  0  0  0  0  0  0  0  0  0  0  0
    9.1857  -17.6411   27.8149 O   0  0  0  0  0  0  0  0  0  0  0  0
   10.2800  -16.7981   27.9991 C   0  0  0  0  0  0  0  0  0  0  0  0
   11.3733  -17.2272   27.0488 C   0  0  2  0  0  0  0  0  0  0  0  0
   10.9187  -17.3697   25.7005 N   0  0  0  0  0  0  0  0  0  0  0  0
   12.0185  -18.4752   27.5377 C   0  0  0  0  0  0  0  0  0  0  0  0
   12.0220  -19.4760   26.7803 O   0  0  0  0  0  0  0  0  0  0  0  0
   12.5970  -18.5285   28.7913 O   0  0  0  0  0  0  0  0  0  0  0  0
  2  1  1  1
  2 13  1  0
  3  4  1  0
  3  2  1  0
  4  5  2  0
  5  6  1  0
  7  6  1  0
  8  7  2  0
  9  8  1  0
 10 11  1  0
 10  9  2  0
 11 12  2  0
 12  4  1  0
 12  7  1  0
 13 14  2  0
 13 15  1  0
 15 16  1  0
 16 17  1  6
 16 21  1  0
 18 17  1  0
 19 18  1  0
 20 19  2  0
 21 22  2  0
 23 19  1  0
 26 25  1  1
 25 24  1  0
 26 28  1  0
 27 21  1  0
 27 26  1  0
 28 30  1  0
 29 28  2  0
M  END
$$$$
