WES.pdb
     RDKit          3D

 30 31  0  0  1  0  0  0  0  0999 V2000
    6.5909  -17.5920   24.4341 N   0  0  0  0  0  0  0  0  0  0  0  0
    7.5456  -16.6867   23.8203 C   0  0  1  0  0  0  0  0  0  0  0  0
    8.1697  -15.8484   24.8896 C   0  0  0  0  0  0  0  0  0  0  0  0
    7.2274  -14.8552   25.4596 C   0  0  0  0  0  0  0  0  0  0  0  0
    6.0371  -15.1359   26.0961 C   0  0  0  0  0  0  0  0  0  0  0  0
    5.4724  -13.9665   26.4690 N   0  0  0  0  0  0  0  0  0  0  0  0
    6.2322  -12.9326   26.1091 C   0  0  0  0  0  0  0  0  0  0  0  0
    6.1375  -11.5631   26.2352 C   0  0  0  0  0  0  0  0  0  0  0  0
    7.1199  -10.7249   25.7425 C   0  0  0  0  0  0  0  0  0  0  0  0
    8.2214  -11.2686   25.1097 C   0  0  0  0  0  0  0  0  0  0  0  0
    8.3008  -12.6442   24.9917 C   0  0  0  0  0  0  0  0  0  0  0  0
    7.3379  -13.4874   25.4734 C   0  0  0  0  0  0  0  0  0  0  0  0
    8.6540  -17.5024   23.2003 C   0  0  0  0  0  0  0  0  0  0  0  0
    9.0024  -18.5825   23.7262 O   0  0  0  0  0  0  0  0  0  0  0  0
    9.3231  -17.0864   22.0311 N   0  0  0  0  0  0  0  0  0  0  0  0
   10.6400  -17.3222   21.6072 C   0  0  1  0  0  0  0  0  0  0  0  0
   11.0143  -16.9734   20.1924 C   0  0  0  0  0  0  0  0  0  0  0  0
   10.0957  -17.5632   19.1666 C   0  0  0  0  0  0  0  0  0  0  0  0
   10.5001  -17.1596   17.7776 C   0  0  0  0  0  0  0  0  0  0  0  0
   11.5272  -16.4843   17.5835 O   0  0  0  0  0  0  0  0  0  0  0  0
   11.7295  -16.9523   22.5184 C   0  0  0  0  0  0  0  0  0  0  0  0
   11.9832  -15.7310   22.6817 O   0  0  0  0  0  0  0  0  0  0  0  0
    9.7292  -17.5380   16.6999 O   0  0  0  0  0  0  0  0  0  0  0  0
   13.6777  -19.8743   24.5116 O   0  0  0  0  0  0  0  0  0  0  0  0
   13.9008  -18.6332   25.1048 C   0  0  0  0  0  0  0  0  0  0  0  0
   13.6167  -17.5605   24.0796 C   0  0  2  0  0  0  0  0  0  0  0  0
   12.5146  -17.8799   23.2262 N   0  0  0  0  0  0  0  0  0  0  0  0
   14.8435  -17.2646   23.2921 C   0  0  0  0  0  0  0  0  0  0  0  0
   14.7974  -17.4116   22.0465 O   0  0  0  0  0  0  0  0  0  0  0  0
   16.0003  -16.8399   23.9170 O   0  0  0  0  0  0  0  0  0  0  0  0
  2  1  1  1
  2 13  1  0
  3  4  1  0
  3  2  1  0
  4  5  2  0
  5  6  1  0
  7  6  1  0
  8  7  2  0
  9  8  1  0
 10 11  1  0
 10  9  2  0
 11 12  2  0
 12  4  1  0
 12  7  1  0
 13 14  2  0
 13 15  1  0
 15 16  1  0
 16 17  1  6
 16 21  1  0
 18 17  1  0
 19 18  1  0
 20 19  2  0
 21 22  2  0
 23 19  1  0
 26 25  1  1
 25 24  1  0
 26 28  1  0
 27 21  1  0
 27 26  1  0
 28 30  1  0
 29 28  2  0
M  END
$$$$
