WES.pdb
     RDKit          3D

 30 31  0  0  1  0  0  0  0  0999 V2000
    6.8497  -17.7658   25.5250 N   0  0  0  0  0  0  0  0  0  0  0  0
    7.2701  -16.7473   24.5797 C   0  0  1  0  0  0  0  0  0  0  0  0
    8.3175  -15.8963   25.2236 C   0  0  0  0  0  0  0  0  0  0  0  0
    7.7483  -14.9149   26.1785 C   0  0  0  0  0  0  0  0  0  0  0  0
    7.4335  -15.1541   27.4993 C   0  0  0  0  0  0  0  0  0  0  0  0
    6.9413  -14.0127   28.0289 N   0  0  0  0  0  0  0  0  0  0  0  0
    6.9172  -13.0366   27.1220 C   0  0  0  0  0  0  0  0  0  0  0  0
    6.5255  -11.7148   27.1232 C   0  0  0  0  0  0  0  0  0  0  0  0
    6.6256  -10.9331   25.9876 C   0  0  0  0  0  0  0  0  0  0  0  0
    7.1283  -11.4858   24.8252 C   0  0  0  0  0  0  0  0  0  0  0  0
    7.5165  -12.8131   24.8413 C   0  0  0  0  0  0  0  0  0  0  0  0
    7.4242  -13.6001   25.9559 C   0  0  0  0  0  0  0  0  0  0  0  0
    7.9214  -17.4248   23.3986 C   0  0  0  0  0  0  0  0  0  0  0  0
    8.5924  -18.4665   23.5692 O   0  0  0  0  0  0  0  0  0  0  0  0
    7.8003  -16.9198   22.0877 N   0  0  0  0  0  0  0  0  0  0  0  0
    8.6401  -17.0765   20.9744 C   0  0  1  0  0  0  0  0  0  0  0  0
    8.2109  -16.4838   19.6598 C   0  0  0  0  0  0  0  0  0  0  0  0
    9.0904  -16.8731   18.5113 C   0  0  0  0  0  0  0  0  0  0  0  0
    8.4937  -16.4474   17.2003 C   0  0  0  0  0  0  0  0  0  0  0  0
    8.8405  -15.3825   16.6578 O   0  0  0  0  0  0  0  0  0  0  0  0
   10.0804  -16.8722   21.1685 C   0  0  0  0  0  0  0  0  0  0  0  0
   10.5225  -15.6944   21.1664 O   0  0  0  0  0  0  0  0  0  0  0  0
    7.5501  -17.2408   16.5847 O   0  0  0  0  0  0  0  0  0  0  0  0
   12.4742  -20.0628   22.0299 O   0  0  0  0  0  0  0  0  0  0  0  0
   13.0004  -18.8409   22.4450 C   0  0  0  0  0  0  0  0  0  0  0  0
   12.4095  -17.7525   21.5797 C   0  0  2  0  0  0  0  0  0  0  0  0
   11.0061  -17.9138   21.3580 N   0  0  0  0  0  0  0  0  0  0  0  0
   13.1533  -17.6570   20.2950 C   0  0  0  0  0  0  0  0  0  0  0  0
   12.5224  -17.8590   19.2290 O   0  0  0  0  0  0  0  0  0  0  0  0
   14.5013  -17.3541   20.2785 O   0  0  0  0  0  0  0  0  0  0  0  0
  2  1  1  1
  2 13  1  0
  3  4  1  0
  3  2  1  0
  4  5  2  0
  5  6  1  0
  7  6  1  0
  8  7  2  0
  9  8  1  0
 10 11  1  0
 10  9  2  0
 11 12  2  0
 12  4  1  0
 12  7  1  0
 13 14  2  0
 13 15  1  0
 15 16  1  0
 16 17  1  6
 16 21  1  0
 18 17  1  0
 19 18  1  0
 20 19  2  0
 21 22  2  0
 23 19  1  0
 26 25  1  6
 25 24  1  0
 26 28  1  0
 27 21  1  0
 27 26  1  0
 28 30  1  0
 29 28  2  0
M  END
$$$$
