WES.pdb
     RDKit          3D

 30 31  0  0  1  0  0  0  0  0999 V2000
    6.5931  -17.6801   24.4055 N   0  0  0  0  0  0  0  0  0  0  0  0
    7.6208  -16.7712   23.9306 C   0  0  1  0  0  0  0  0  0  0  0  0
    8.1648  -16.0090   25.0963 C   0  0  0  0  0  0  0  0  0  0  0  0
    7.2128  -14.9947   25.6099 C   0  0  0  0  0  0  0  0  0  0  0  0
    6.0323  -15.2508   26.2747 C   0  0  0  0  0  0  0  0  0  0  0  0
    5.4534  -14.0680   26.5767 N   0  0  0  0  0  0  0  0  0  0  0  0
    6.1944  -13.0487   26.1435 C   0  0  0  0  0  0  0  0  0  0  0  0
    6.0802  -11.6754   26.1819 C   0  0  0  0  0  0  0  0  0  0  0  0
    7.0457  -10.8567   25.6267 C   0  0  0  0  0  0  0  0  0  0  0  0
    8.1498  -11.4243   25.0198 C   0  0  0  0  0  0  0  0  0  0  0  0
    8.2487  -12.8034   24.9901 C   0  0  0  0  0  0  0  0  0  0  0  0
    7.3028  -13.6274   25.5344 C   0  0  0  0  0  0  0  0  0  0  0  0
    8.7613  -17.5844   23.3682 C   0  0  0  0  0  0  0  0  0  0  0  0
    9.1229  -18.6338   23.9449 O   0  0  0  0  0  0  0  0  0  0  0  0
    9.4466  -17.1998   22.1975 N   0  0  0  0  0  0  0  0  0  0  0  0
   10.7919  -17.3704   21.8367 C   0  0  1  0  0  0  0  0  0  0  0  0
   11.3057  -16.6580   20.6152 C   0  0  0  0  0  0  0  0  0  0  0  0
   12.7265  -16.9933   20.2791 C   0  0  0  0  0  0  0  0  0  0  0  0
   13.1494  -16.3433   18.9929 C   0  0  0  0  0  0  0  0  0  0  0  0
   13.2272  -17.0029   17.9405 O   0  0  0  0  0  0  0  0  0  0  0  0
   11.7986  -17.3230   22.9037 C   0  0  0  0  0  0  0  0  0  0  0  0
   12.2236  -16.1985   23.2747 O   0  0  0  0  0  0  0  0  0  0  0  0
   13.4567  -15.0001   18.9701 O   0  0  0  0  0  0  0  0  0  0  0  0
   12.8163  -20.7484   24.8754 O   0  0  0  0  0  0  0  0  0  0  0  0
   13.0542  -19.5816   25.5994 C   0  0  0  0  0  0  0  0  0  0  0  0
   13.2655  -18.4512   24.6195 C   0  0  2  0  0  0  0  0  0  0  0  0
   12.3237  -18.4599   23.5435 N   0  0  0  0  0  0  0  0  0  0  0  0
   14.6648  -18.4638   24.1146 C   0  0  0  0  0  0  0  0  0  0  0  0
   14.8469  -18.5687   22.8772 O   0  0  0  0  0  0  0  0  0  0  0  0
   15.7323  -18.3626   24.9858 O   0  0  0  0  0  0  0  0  0  0  0  0
  2  1  1  1
  2 13  1  0
  3  4  1  0
  3  2  1  0
  4  5  2  0
  5  6  1  0
  7  6  1  0
  8  7  2  0
  9  8  1  0
 10 11  1  0
 10  9  2  0
 11 12  2  0
 12  4  1  0
 12  7  1  0
 13 14  2  0
 13 15  1  0
 15 16  1  0
 16 17  1  6
 16 21  1  0
 18 17  1  0
 19 18  1  0
 20 19  2  0
 21 22  2  0
 23 19  1  0
 26 25  1  1
 25 24  1  0
 26 28  1  0
 27 21  1  0
 27 26  1  0
 28 30  1  0
 29 28  2  0
M  END
$$$$
