WES.pdb
     RDKit          3D

 30 31  0  0  1  0  0  0  0  0999 V2000
    6.5443  -17.8063   24.3924 N   0  0  0  0  0  0  0  0  0  0  0  0
    7.4880  -16.8508   23.8408 C   0  0  1  0  0  0  0  0  0  0  0  0
    8.1733  -16.1463   24.9676 C   0  0  0  0  0  0  0  0  0  0  0  0
    7.3062  -15.1364   25.6213 C   0  0  0  0  0  0  0  0  0  0  0  0
    6.2246  -15.3981   26.4352 C   0  0  0  0  0  0  0  0  0  0  0  0
    5.6998  -14.2179   26.8315 N   0  0  0  0  0  0  0  0  0  0  0  0
    6.3825  -13.1949   26.3186 C   0  0  0  0  0  0  0  0  0  0  0  0
    6.2839  -11.8219   26.3939 C   0  0  0  0  0  0  0  0  0  0  0  0
    7.1712  -10.9985   25.7266 C   0  0  0  0  0  0  0  0  0  0  0  0
    8.1793  -11.5609   24.9671 C   0  0  0  0  0  0  0  0  0  0  0  0
    8.2639  -12.9398   24.9022 C   0  0  0  0  0  0  0  0  0  0  0  0
    7.3945  -13.7684   25.5561 C   0  0  0  0  0  0  0  0  0  0  0  0
    8.5533  -17.6068   23.0844 C   0  0  0  0  0  0  0  0  0  0  0  0
    9.0493  -18.6446   23.5757 O   0  0  0  0  0  0  0  0  0  0  0  0
    9.0186  -17.1806   21.8235 N   0  0  0  0  0  0  0  0  0  0  0  0
   10.2389  -17.4279   21.1762 C   0  0  1  0  0  0  0  0  0  0  0  0
   10.4449  -16.8748   19.7923 C   0  0  0  0  0  0  0  0  0  0  0  0
   11.7256  -17.3183   19.1542 C   0  0  0  0  0  0  0  0  0  0  0  0
   11.5290  -17.6289   17.6979 C   0  0  0  0  0  0  0  0  0  0  0  0
   10.4363  -17.4146   17.1421 O   0  0  0  0  0  0  0  0  0  0  0  0
   11.4714  -17.2854   21.9602 C   0  0  0  0  0  0  0  0  0  0  0  0
   11.9586  -16.1344   22.1037 O   0  0  0  0  0  0  0  0  0  0  0  0
   12.5668  -18.1578   16.9616 O   0  0  0  0  0  0  0  0  0  0  0  0
   12.7727  -19.7504   25.0331 O   0  0  0  0  0  0  0  0  0  0  0  0
   13.7203  -19.5407   24.0330 C   0  0  0  0  0  0  0  0  0  0  0  0
   13.3681  -18.2631   23.3075 C   0  0  2  0  0  0  0  0  0  0  0  0
   12.1491  -18.3584   22.5661 N   0  0  0  0  0  0  0  0  0  0  0  0
   14.4983  -17.8371   22.4391 C   0  0  0  0  0  0  0  0  0  0  0  0
   14.4197  -18.0698   21.2083 O   0  0  0  0  0  0  0  0  0  0  0  0
   15.6027  -17.2032   22.9752 O   0  0  0  0  0  0  0  0  0  0  0  0
  2  1  1  1
  2 13  1  0
  3  4  1  0
  3  2  1  0
  4  5  2  0
  5  6  1  0
  7  6  1  0
  8  7  2  0
  9  8  1  0
 10 11  1  0
 10  9  2  0
 11 12  2  0
 12  4  1  0
 12  7  1  0
 13 14  2  0
 13 15  1  0
 15 16  1  0
 16 17  1  6
 16 21  1  0
 18 17  1  0
 19 18  1  0
 20 19  2  0
 21 22  2  0
 23 19  1  0
 26 25  1  6
 25 24  1  0
 26 28  1  0
 27 21  1  0
 27 26  1  0
 28 30  1  0
 29 28  2  0
M  END
$$$$
