TTW.pdb
     RDKit          3D

 29 30  0  0  1  0  0  0  0  0999 V2000
   26.7704  -23.4920  -18.5756 C   0  0  0  0  0  0  0  0  0  0  0  0
   27.0974  -23.1310  -17.1649 C   0  0  1  0  0  0  0  0  0  0  0  0
   27.4044  -24.2212  -16.3552 O   0  0  0  0  0  0  0  0  0  0  0  0
   28.1919  -22.0847  -17.1308 C   0  0  2  0  0  0  0  0  0  0  0  0
   29.4403  -22.6205  -17.6367 N   0  0  0  0  0  0  0  0  0  0  0  0
   28.3799  -21.6396  -15.7294 C   0  0  0  0  0  0  0  0  0  0  0  0
   29.4007  -21.9596  -15.0483 O   0  0  0  0  0  0  0  0  0  0  0  0
   28.6278  -18.2155  -14.4939 C   0  0  0  0  0  0  0  0  0  0  0  0
   27.5281  -18.8683  -13.7158 C   0  0  1  0  0  0  0  0  0  0  0  0
   26.3149  -18.3921  -14.1994 O   0  0  0  0  0  0  0  0  0  0  0  0
   27.5856  -20.3804  -13.7343 C   0  0  2  0  0  0  0  0  0  0  0  0
   27.3850  -20.8125  -15.0885 N   0  0  0  0  0  0  0  0  0  0  0  0
   26.5708  -20.9740  -12.8228 C   0  0  0  0  0  0  0  0  0  0  0  0
   25.5869  -21.5149  -13.3801 O   0  0  0  0  0  0  0  0  0  0  0  0
   26.7866  -20.8867  -11.4384 N   0  0  0  0  0  0  0  0  0  0  0  0
   25.7835  -21.4962  -10.5421 C   0  0  1  0  0  0  0  0  0  0  0  0
   26.4823  -21.8064   -9.2714 C   0  0  0  0  0  0  0  0  0  0  0  0
   26.6623  -20.6795   -8.3509 C   0  0  0  0  0  0  0  0  0  0  0  0
   25.9967  -19.4475   -8.4464 C   0  0  0  0  0  0  0  0  0  0  0  0
   26.4231  -18.6559   -7.4723 N   0  0  0  0  0  0  0  0  0  0  0  0
   27.3400  -19.2690   -6.7138 C   0  0  0  0  0  0  0  0  0  0  0  0
   28.0587  -18.8892   -5.5976 C   0  0  0  0  0  0  0  0  0  0  0  0
   28.9370  -19.7833   -5.0201 C   0  0  0  0  0  0  0  0  0  0  0  0
   29.1078  -21.0490   -5.5401 C   0  0  0  0  0  0  0  0  0  0  0  0
   28.3767  -21.3885   -6.6496 C   0  0  0  0  0  0  0  0  0  0  0  0
   27.4898  -20.5213   -7.2548 C   0  0  0  0  0  0  0  0  0  0  0  0
   24.6114  -20.6389  -10.4508 C   0  0  0  0  0  0  0  0  0  0  0  0
   23.4253  -21.0646   -9.8966 O   0  0  0  0  0  0  0  0  0  0  0  0
   24.6433  -19.4634  -10.8882 O   0  0  0  0  0  0  0  0  0  0  0  0
  2  1  1  6
  3  2  1  0
  4  5  1  1
  4  2  1  0
  4  6  1  0
  6  7  2  0
  9 11  1  0
  9  8  1  6
 10  9  1  0
 11 13  1  0
 12  6  1  0
 11 12  1  6
 13 14  2  0
 15 13  1  0
 15 16  1  0
 16 27  1  0
 16 17  1  1
 18 17  1  0
 19 18  2  0
 20 21  1  0
 20 19  1  0
 21 26  2  0
 22 21  1  0
 22 23  2  0
 23 24  1  0
 24 25  2  0
 26 18  1  0
 26 25  1  0
 27 28  1  0
 29 27  2  0
M  END
$$$$
