TTW.pdb
     RDKit          3D

 29 30  0  0  1  0  0  0  0  0999 V2000
   18.4044  -11.5442  -17.8218 C   0  0  0  0  0  0  0  0  0  0  0  0
   18.2674  -11.1289  -16.3949 C   0  0  1  0  0  0  0  0  0  0  0  0
   17.6505  -12.0770  -15.5832 O   0  0  0  0  0  0  0  0  0  0  0  0
   19.6119  -10.7081  -15.8390 C   0  0  2  0  0  0  0  0  0  0  0  0
   20.5390  -11.8225  -15.8196 N   0  0  0  0  0  0  0  0  0  0  0  0
   19.4185  -10.2051  -14.4581 C   0  0  0  0  0  0  0  0  0  0  0  0
   19.5460  -10.9522  -13.4412 O   0  0  0  0  0  0  0  0  0  0  0  0
   21.1988   -7.0827  -13.0774 C   0  0  0  0  0  0  0  0  0  0  0  0
   19.7214   -6.9827  -12.8578 C   0  0  1  0  0  0  0  0  0  0  0  0
   19.2028   -6.1028  -13.8009 O   0  0  0  0  0  0  0  0  0  0  0  0
   19.0112   -8.3187  -12.8858 C   0  0  2  0  0  0  0  0  0  0  0  0
   19.0725   -8.8223  -14.2287 N   0  0  0  0  0  0  0  0  0  0  0  0
   17.6038   -8.1959  -12.4196 C   0  0  0  0  0  0  0  0  0  0  0  0
   16.7318   -8.1648  -13.3193 O   0  0  0  0  0  0  0  0  0  0  0  0
   17.3634   -8.1266  -11.0382 N   0  0  0  0  0  0  0  0  0  0  0  0
   15.9714   -7.9255  -10.5876 C   0  0  1  0  0  0  0  0  0  0  0  0
   15.9157   -8.3646   -9.1722 C   0  0  0  0  0  0  0  0  0  0  0  0
   14.6116   -8.2345   -8.5149 C   0  0  0  0  0  0  0  0  0  0  0  0
   13.5766   -9.1800   -8.5850 C   0  0  0  0  0  0  0  0  0  0  0  0
   12.5361   -8.7244   -7.9016 N   0  0  0  0  0  0  0  0  0  0  0  0
   12.7933   -7.5247   -7.3664 C   0  0  0  0  0  0  0  0  0  0  0  0
   12.0628   -6.6598   -6.5760 C   0  0  0  0  0  0  0  0  0  0  0  0
   12.6341   -5.4742   -6.1606 C   0  0  0  0  0  0  0  0  0  0  0  0
   13.9222   -5.1404   -6.5225 C   0  0  0  0  0  0  0  0  0  0  0  0
   14.6151   -6.0251   -7.3087 C   0  0  0  0  0  0  0  0  0  0  0  0
   14.0769   -7.2192   -7.7439 C   0  0  0  0  0  0  0  0  0  0  0  0
   15.5505   -6.5607  -10.8654 C   0  0  0  0  0  0  0  0  0  0  0  0
   16.4063   -5.4873  -10.7612 O   0  0  0  0  0  0  0  0  0  0  0  0
   14.3698   -6.3132  -11.2098 O   0  0  0  0  0  0  0  0  0  0  0  0
  2  1  1  6
  3  2  1  0
  4  5  1  1
  4  2  1  0
  4  6  1  0
  6  7  2  0
  9 11  1  0
  9  8  1  6
 10  9  1  0
 11 13  1  0
 12  6  1  0
 11 12  1  6
 13 14  2  0
 15 13  1  0
 15 16  1  0
 16 27  1  0
 16 17  1  1
 18 17  1  0
 19 18  2  0
 20 21  1  0
 20 19  1  0
 21 26  2  0
 22 21  1  0
 22 23  2  0
 23 24  1  0
 24 25  2  0
 26 18  1  0
 26 25  1  0
 27 28  1  0
 29 27  2  0
M  END
$$$$
