TTW.pdb
     RDKit          3D

 29 30  0  0  1  0  0  0  0  0999 V2000
   26.2038  -17.2675  -17.0999 C   0  0  0  0  0  0  0  0  0  0  0  0
   25.7435  -17.6003  -15.7199 C   0  0  1  0  0  0  0  0  0  0  0  0
   25.3117  -16.5005  -14.9834 O   0  0  0  0  0  0  0  0  0  0  0  0
   24.6919  -18.6894  -15.7653 C   0  0  2  0  0  0  0  0  0  0  0  0
   23.4825  -18.2185  -16.4114 N   0  0  0  0  0  0  0  0  0  0  0  0
   24.3782  -19.1049  -14.3775 C   0  0  0  0  0  0  0  0  0  0  0  0
   23.5389  -18.4836  -13.6578 O   0  0  0  0  0  0  0  0  0  0  0  0
   23.1918  -22.4797  -13.3386 C   0  0  0  0  0  0  0  0  0  0  0  0
   24.3795  -22.1394  -12.4933 C   0  0  1  0  0  0  0  0  0  0  0  0
   25.4596  -22.8901  -12.9433 O   0  0  0  0  0  0  0  0  0  0  0  0
   24.6981  -20.6604  -12.4605 C   0  0  2  0  0  0  0  0  0  0  0  0
   25.0335  -20.2521  -13.7952 N   0  0  0  0  0  0  0  0  0  0  0  0
   25.8048  -20.3638  -11.5115 C   0  0  0  0  0  0  0  0  0  0  0  0
   26.9169  -20.1119  -12.0319 O   0  0  0  0  0  0  0  0  0  0  0  0
   25.5267  -20.3868  -10.1357 N   0  0  0  0  0  0  0  0  0  0  0  0
   26.6495  -20.1774   -9.1994 C   0  0  1  0  0  0  0  0  0  0  0  0
   26.2342  -19.0957   -8.2738 C   0  0  0  0  0  0  0  0  0  0  0  0
   27.1911  -18.7603   -7.2148 C   0  0  0  0  0  0  0  0  0  0  0  0
   27.9414  -17.5757   -7.1531 C   0  0  0  0  0  0  0  0  0  0  0  0
   28.7228  -17.6211   -6.0832 N   0  0  0  0  0  0  0  0  0  0  0  0
   28.5546  -18.7638   -5.4065 C   0  0  0  0  0  0  0  0  0  0  0  0
   29.1067  -19.2727   -4.2477 C   0  0  0  0  0  0  0  0  0  0  0  0
   28.6974  -20.5075   -3.7869 C   0  0  0  0  0  0  0  0  0  0  0  0
   27.7464  -21.2402   -4.4653 C   0  0  0  0  0  0  0  0  0  0  0  0
   27.2223  -20.7012   -5.6123 C   0  0  0  0  0  0  0  0  0  0  0  0
   27.6072  -19.4705   -6.1041 C   0  0  0  0  0  0  0  0  0  0  0  0
   27.0356  -21.4430   -8.5942 C   0  0  0  0  0  0  0  0  0  0  0  0
   28.3482  -21.7706   -8.3392 O   0  0  0  0  0  0  0  0  0  0  0  0
   26.1680  -22.2949   -8.2849 O   0  0  0  0  0  0  0  0  0  0  0  0
  2  1  1  6
  3  2  1  0
  4  5  1  1
  4  2  1  0
  4  6  1  0
  6  7  2  0
  9 11  1  0
  9  8  1  6
 10  9  1  0
 11 13  1  0
 12  6  1  0
 11 12  1  6
 13 14  2  0
 15 13  1  0
 15 16  1  0
 16 27  1  0
 16 17  1  1
 18 17  1  0
 19 18  2  0
 20 21  1  0
 20 19  1  0
 21 26  2  0
 22 21  1  0
 22 23  2  0
 23 24  1  0
 24 25  2  0
 26 18  1  0
 26 25  1  0
 27 28  1  0
 29 27  2  0
M  END
$$$$
