TTW.pdb
     RDKit          3D

 29 30  0  0  1  0  0  0  0  0999 V2000
   27.2204  -24.1809  -17.0818 C   0  0  0  0  0  0  0  0  0  0  0  0
   28.3326  -23.8650  -18.0254 C   0  0  1  0  0  0  0  0  0  0  0  0
   28.2199  -24.4864  -19.2662 O   0  0  0  0  0  0  0  0  0  0  0  0
   28.4931  -22.3654  -18.1647 C   0  0  2  0  0  0  0  0  0  0  0  0
   29.6755  -22.0380  -18.9370 N   0  0  0  0  0  0  0  0  0  0  0  0
   28.6102  -21.7726  -16.8111 C   0  0  0  0  0  0  0  0  0  0  0  0
   29.6659  -21.8751  -16.1158 O   0  0  0  0  0  0  0  0  0  0  0  0
   28.6271  -18.3147  -15.7491 C   0  0  0  0  0  0  0  0  0  0  0  0
   27.4793  -18.9772  -15.0530 C   0  0  1  0  0  0  0  0  0  0  0  0
   26.3106  -18.6320  -15.7221 O   0  0  0  0  0  0  0  0  0  0  0  0
   27.6307  -20.4773  -14.9244 C   0  0  2  0  0  0  0  0  0  0  0  0
   27.5024  -21.0473  -16.2356 N   0  0  0  0  0  0  0  0  0  0  0  0
   26.6248  -21.0468  -13.9879 C   0  0  0  0  0  0  0  0  0  0  0  0
   25.5952  -21.5258  -14.5185 O   0  0  0  0  0  0  0  0  0  0  0  0
   26.8983  -21.0068  -12.6115 N   0  0  0  0  0  0  0  0  0  0  0  0
   25.9309  -21.6436  -11.6952 C   0  0  1  0  0  0  0  0  0  0  0  0
   26.6769  -21.9830  -10.4592 C   0  0  0  0  0  0  0  0  0  0  0  0
   26.6173  -20.9873   -9.3846 C   0  0  0  0  0  0  0  0  0  0  0  0
   25.5607  -20.0864   -9.1792 C   0  0  0  0  0  0  0  0  0  0  0  0
   25.8537  -19.3152   -8.1417 N   0  0  0  0  0  0  0  0  0  0  0  0
   27.0460  -19.6316   -7.6219 C   0  0  0  0  0  0  0  0  0  0  0  0
   27.7761  -19.1487   -6.5540 C   0  0  0  0  0  0  0  0  0  0  0  0
   28.9979  -19.7168   -6.2556 C   0  0  0  0  0  0  0  0  0  0  0  0
   29.5003  -20.7584   -7.0068 C   0  0  0  0  0  0  0  0  0  0  0  0
   28.7459  -21.2095   -8.0596 C   0  0  0  0  0  0  0  0  0  0  0  0
   27.5207  -20.6661   -8.3887 C   0  0  0  0  0  0  0  0  0  0  0  0
   24.7598  -20.7944  -11.5392 C   0  0  0  0  0  0  0  0  0  0  0  0
   23.5178  -21.2983  -11.2245 O   0  0  0  0  0  0  0  0  0  0  0  0
   24.8451  -19.5526  -11.6954 O   0  0  0  0  0  0  0  0  0  0  0  0
  2  1  1  1
  3  2  1  0
  4  5  1  6
  4  2  1  0
  4  6  1  0
  6  7  2  0
  9 11  1  0
  9  8  1  6
 10  9  1  0
 11 13  1  0
 12  6  1  0
 11 12  1  6
 13 14  2  0
 15 13  1  0
 15 16  1  0
 16 27  1  0
 16 17  1  1
 18 17  1  0
 19 18  2  0
 20 21  1  0
 20 19  1  0
 21 26  2  0
 22 21  1  0
 22 23  2  0
 23 24  1  0
 24 25  2  0
 26 18  1  0
 26 25  1  0
 27 28  1  0
 29 27  2  0
M  END
$$$$
