TTW.pdb
     RDKit          3D

 29 30  0  0  1  0  0  0  0  0999 V2000
   26.3983  -17.6075  -14.8236 C   0  0  0  0  0  0  0  0  0  0  0  0
   27.0017  -18.6087  -15.7513 C   0  0  1  0  0  0  0  0  0  0  0  0
   27.8887  -18.0649  -16.6765 O   0  0  0  0  0  0  0  0  0  0  0  0
   27.6370  -19.7368  -14.9654 C   0  0  2  0  0  0  0  0  0  0  0  0
   28.4477  -20.5774  -15.8243 N   0  0  0  0  0  0  0  0  0  0  0  0
   26.5619  -20.5524  -14.3519 C   0  0  0  0  0  0  0  0  0  0  0  0
   26.1194  -21.6092  -14.8960 O   0  0  0  0  0  0  0  0  0  0  0  0
   26.8771  -21.8949  -11.0518 C   0  0  0  0  0  0  0  0  0  0  0  0
   25.4881  -21.3373  -11.0788 C   0  0  1  0  0  0  0  0  0  0  0  0
   25.4493  -20.2327  -10.2356 O   0  0  0  0  0  0  0  0  0  0  0  0
   24.9958  -20.9999  -12.4694 C   0  0  2  0  0  0  0  0  0  0  0  0
   25.9773  -20.1576  -13.0922 N   0  0  0  0  0  0  0  0  0  0  0  0
   23.6644  -20.3375  -12.4288 C   0  0  0  0  0  0  0  0  0  0  0  0
   23.6299  -19.2157  -11.8708 O   0  0  0  0  0  0  0  0  0  0  0  0
   22.5714  -21.0030  -13.0061 N   0  0  0  0  0  0  0  0  0  0  0  0
   21.2661  -20.3121  -13.0134 C   0  0  1  0  0  0  0  0  0  0  0  0
   21.4405  -19.0837  -13.8258 C   0  0  0  0  0  0  0  0  0  0  0  0
   21.5738  -19.2887  -15.2714 C   0  0  0  0  0  0  0  0  0  0  0  0
   20.7633  -20.1363  -16.0427 C   0  0  0  0  0  0  0  0  0  0  0  0
   21.1843  -20.1015  -17.2991 N   0  0  0  0  0  0  0  0  0  0  0  0
   22.2334  -19.2818  -17.4379 C   0  0  0  0  0  0  0  0  0  0  0  0
   23.0047  -18.8989  -18.5173 C   0  0  0  0  0  0  0  0  0  0  0  0
   24.0315  -17.9959  -18.3309 C   0  0  0  0  0  0  0  0  0  0  0  0
   24.2988  -17.4705  -17.0842 C   0  0  0  0  0  0  0  0  0  0  0  0
   23.5112  -17.8759  -16.0372 C   0  0  0  0  0  0  0  0  0  0  0  0
   22.4765  -18.7772  -16.1850 C   0  0  0  0  0  0  0  0  0  0  0  0
   20.2191  -21.2307  -13.4342 C   0  0  0  0  0  0  0  0  0  0  0  0
   18.8824  -20.9077  -13.3699 O   0  0  0  0  0  0  0  0  0  0  0  0
   20.5066  -22.3707  -13.8721 O   0  0  0  0  0  0  0  0  0  0  0  0
  2  1  1  1
  3  2  1  0
  4  5  1  6
  4  2  1  0
  4  6  1  0
  6  7  2  0
  9 11  1  0
  9  8  1  6
 10  9  1  0
 11 13  1  0
 12  6  1  0
 11 12  1  1
 13 14  2  0
 15 13  1  0
 15 16  1  0
 16 27  1  0
 16 17  1  6
 18 17  1  0
 19 18  2  0
 20 21  1  0
 20 19  1  0
 21 26  2  0
 22 21  1  0
 22 23  2  0
 23 24  1  0
 24 25  2  0
 26 18  1  0
 26 25  1  0
 27 28  1  0
 29 27  2  0
M  END
$$$$
