MVW.pdb
     RDKit          3D

 30 31  0  0  1  0  0  0  0  0999 V2000
   34.0359  -25.4490  -15.4182 C   0  0  0  0  0  0  0  0  0  0  0  0
   33.5977  -26.1368  -17.0485 S   0  0  0  0  0  0  0  0  0  0  0  0
   32.1962  -25.1600  -17.7395 C   0  0  0  0  0  0  0  0  0  0  0  0
   31.5698  -24.3794  -16.6393 C   0  0  0  0  0  0  0  0  0  0  0  0
   30.3518  -23.6482  -17.0704 C   0  0  2  0  0  0  0  0  0  0  0  0
   30.5133  -23.0975  -18.4014 N   0  0  0  0  0  0  0  0  0  0  0  0
   29.9368  -22.5401  -16.1676 C   0  0  0  0  0  0  0  0  0  0  0  0
   30.7772  -21.9340  -15.4395 O   0  0  0  0  0  0  0  0  0  0  0  0
   28.4946  -19.2164  -16.9048 C   0  0  0  0  0  0  0  0  0  0  0  0
   27.4769  -19.9559  -16.0618 C   0  0  2  0  0  0  0  0  0  0  0  0
   26.7774  -18.9744  -15.1441 C   0  0  0  0  0  0  0  0  0  0  0  0
   28.0728  -21.0647  -15.2690 C   0  0  2  0  0  0  0  0  0  0  0  0
   28.6018  -22.1312  -16.0882 N   0  0  0  0  0  0  0  0  0  0  0  0
   27.0484  -21.5684  -14.3088 C   0  0  0  0  0  0  0  0  0  0  0  0
   26.0119  -22.1888  -14.6287 O   0  0  0  0  0  0  0  0  0  0  0  0
   27.3013  -21.3078  -12.9416 N   0  0  0  0  0  0  0  0  0  0  0  0
   26.3675  -21.7624  -11.9050 C   0  0  1  0  0  0  0  0  0  0  0  0
   27.2318  -21.9952  -10.6880 C   0  0  0  0  0  0  0  0  0  0  0  0
   26.9034  -21.0427   -9.6187 C   0  0  0  0  0  0  0  0  0  0  0  0
   25.6509  -20.4220   -9.5337 C   0  0  0  0  0  0  0  0  0  0  0  0
   25.5880  -19.6474   -8.4546 N   0  0  0  0  0  0  0  0  0  0  0  0
   26.7744  -19.7387   -7.8195 C   0  0  0  0  0  0  0  0  0  0  0  0
   27.2375  -19.1332   -6.6659 C   0  0  0  0  0  0  0  0  0  0  0  0
   28.5255  -19.3805   -6.2136 C   0  0  0  0  0  0  0  0  0  0  0  0
   29.3003  -20.2271   -6.9375 C   0  0  0  0  0  0  0  0  0  0  0  0
   28.8754  -20.8552   -8.0990 C   0  0  0  0  0  0  0  0  0  0  0  0
   27.5916  -20.5975   -8.5324 C   0  0  0  0  0  0  0  0  0  0  0  0
   25.3382  -20.7295  -11.7611 C   0  0  0  0  0  0  0  0  0  0  0  0
   24.0621  -21.0255  -11.2428 O   0  0  0  0  0  0  0  0  0  0  0  0
   25.5214  -19.5306  -12.0844 O   0  0  0  0  0  0  0  0  0  0  0  0
  1  2  1  0
  2  3  1  0
  4  3  1  0
  5  6  1  6
  5  4  1  0
  7  5  1  0
  8  7  2  0
 10  9  1  1
 10 12  1  0
 10 11  1  0
 12 13  1  6
 13  7  1  0
 14 15  2  0
 14 12  1  0
 16 14  1  0
 17 16  1  0
 17 18  1  1
 19 18  1  0
 20 19  2  0
 21 22  1  0
 21 20  1  0
 22 27  2  0
 23 22  1  0
 23 24  2  0
 24 25  1  0
 25 26  2  0
 27 19  1  0
 27 26  1  0
 28 29  1  0
 28 17  1  0
 30 28  2  0
M  END
$$$$
