MVW.pdb
     RDKit          3D

 30 31  0  0  1  0  0  0  0  0999 V2000
   32.0135  -24.5084  -17.8245 C   0  0  0  0  0  0  0  0  0  0  0  0
   31.6488  -24.0824  -19.5590 S   0  0  0  0  0  0  0  0  0  0  0  0
   30.2146  -22.9259  -19.5896 C   0  0  0  0  0  0  0  0  0  0  0  0
   30.1786  -22.1755  -18.3060 C   0  0  0  0  0  0  0  0  0  0  0  0
   28.9785  -22.4857  -17.4888 C   0  0  2  0  0  0  0  0  0  0  0  0
   27.7586  -22.2264  -18.2275 N   0  0  0  0  0  0  0  0  0  0  0  0
   28.8940  -21.7478  -16.1990 C   0  0  0  0  0  0  0  0  0  0  0  0
   29.8456  -21.7706  -15.3636 O   0  0  0  0  0  0  0  0  0  0  0  0
   28.3832  -18.0713  -15.7798 C   0  0  0  0  0  0  0  0  0  0  0  0
   27.2740  -18.7599  -15.0124 C   0  0  2  0  0  0  0  0  0  0  0  0
   26.9868  -17.9854  -13.7426 C   0  0  0  0  0  0  0  0  0  0  0  0
   27.5833  -20.1787  -14.6894 C   0  0  2  0  0  0  0  0  0  0  0  0
   27.7578  -21.0055  -15.8617 N   0  0  0  0  0  0  0  0  0  0  0  0
   26.5106  -20.7099  -13.7994 C   0  0  0  0  0  0  0  0  0  0  0  0
   25.3384  -20.9528  -14.1583 O   0  0  0  0  0  0  0  0  0  0  0  0
   26.8826  -20.9460  -12.4552 N   0  0  0  0  0  0  0  0  0  0  0  0
   25.9472  -21.5758  -11.5163 C   0  0  1  0  0  0  0  0  0  0  0  0
   26.8027  -21.9804  -10.3387 C   0  0  0  0  0  0  0  0  0  0  0  0
   26.7779  -20.9504   -9.2912 C   0  0  0  0  0  0  0  0  0  0  0  0
   25.6933  -20.0795   -9.1293 C   0  0  0  0  0  0  0  0  0  0  0  0
   25.8914  -19.2787   -8.0863 N   0  0  0  0  0  0  0  0  0  0  0  0
   27.0875  -19.5980   -7.5508 C   0  0  0  0  0  0  0  0  0  0  0  0
   27.7703  -19.0703   -6.4704 C   0  0  0  0  0  0  0  0  0  0  0  0
   29.0162  -19.5685   -6.1180 C   0  0  0  0  0  0  0  0  0  0  0  0
   29.5297  -20.5784   -6.8646 C   0  0  0  0  0  0  0  0  0  0  0  0
   28.8787  -21.1364   -7.9550 C   0  0  0  0  0  0  0  0  0  0  0  0
   27.6407  -20.6285   -8.2895 C   0  0  0  0  0  0  0  0  0  0  0  0
   24.8947  -20.5984  -11.2269 C   0  0  0  0  0  0  0  0  0  0  0  0
   23.6007  -20.9991  -10.8402 O   0  0  0  0  0  0  0  0  0  0  0  0
   25.0724  -19.3581  -11.3025 O   0  0  0  0  0  0  0  0  0  0  0  0
  1  2  1  0
  2  3  1  0
  4  3  1  0
  5  6  1  6
  5  4  1  0
  7  5  1  0
  8  7  2  0
 10  9  1  1
 10 12  1  0
 10 11  1  0
 12 13  1  6
 13  7  1  0
 14 15  2  0
 14 12  1  0
 16 14  1  0
 17 16  1  0
 17 18  1  1
 19 18  1  0
 20 19  2  0
 21 22  1  0
 21 20  1  0
 22 27  2  0
 23 22  1  0
 23 24  2  0
 24 25  1  0
 25 26  2  0
 27 19  1  0
 27 26  1  0
 28 29  1  0
 28 17  1  0
 30 28  2  0
M  END
$$$$
