MVW.pdb
     RDKit          3D

 30 31  0  0  1  0  0  0  0  0999 V2000
   23.6888  -20.4070   -8.9658 C   0  0  0  0  0  0  0  0  0  0  0  0
   25.3394  -20.9193   -8.3863 S   0  0  0  0  0  0  0  0  0  0  0  0
   26.6074  -20.1822   -9.5019 C   0  0  0  0  0  0  0  0  0  0  0  0
   25.9967  -19.9632  -10.8402 C   0  0  0  0  0  0  0  0  0  0  0  0
   26.0146  -21.1807  -11.6897 C   0  0  2  0  0  0  0  0  0  0  0  0
   27.3707  -21.5678  -12.0244 N   0  0  0  0  0  0  0  0  0  0  0  0
   25.2482  -21.0663  -12.9605 C   0  0  0  0  0  0  0  0  0  0  0  0
   25.6793  -20.3741  -13.9295 O   0  0  0  0  0  0  0  0  0  0  0  0
   24.6492  -24.1552  -14.6437 C   0  0  0  0  0  0  0  0  0  0  0  0
   23.2953  -23.4771  -14.6679 C   0  0  2  0  0  0  0  0  0  0  0  0
   22.6401  -23.7131  -16.0132 C   0  0  0  0  0  0  0  0  0  0  0  0
   23.3690  -22.0192  -14.3816 C   0  0  2  0  0  0  0  0  0  0  0  0
   24.0215  -21.7165  -13.1282 N   0  0  0  0  0  0  0  0  0  0  0  0
   21.9899  -21.4531  -14.4318 C   0  0  0  0  0  0  0  0  0  0  0  0
   21.0968  -21.6689  -13.5847 O   0  0  0  0  0  0  0  0  0  0  0  0
   21.7062  -20.6124  -15.5334 N   0  0  0  0  0  0  0  0  0  0  0  0
   20.3716  -20.0280  -15.7084 C   0  0  1  0  0  0  0  0  0  0  0  0
   20.5500  -18.9843  -16.7859 C   0  0  0  0  0  0  0  0  0  0  0  0
   19.2715  -18.3361  -17.1082 C   0  0  0  0  0  0  0  0  0  0  0  0
   18.7969  -17.2295  -16.3932 C   0  0  0  0  0  0  0  0  0  0  0  0
   17.6490  -16.7998  -16.9090 N   0  0  0  0  0  0  0  0  0  0  0  0
   17.3486  -17.5993  -17.9530 C   0  0  0  0  0  0  0  0  0  0  0  0
   16.2709  -17.5975  -18.8193 C   0  0  0  0  0  0  0  0  0  0  0  0
   16.1785  -18.5494  -19.8243 C   0  0  0  0  0  0  0  0  0  0  0  0
   17.1726  -19.4678  -19.9213 C   0  0  0  0  0  0  0  0  0  0  0  0
   18.2703  -19.5051  -19.0741 C   0  0  0  0  0  0  0  0  0  0  0  0
   18.3450  -18.5501  -18.0817 C   0  0  0  0  0  0  0  0  0  0  0  0
   19.4547  -21.1234  -16.0349 C   0  0  0  0  0  0  0  0  0  0  0  0
   18.1514  -21.1791  -15.5030 O   0  0  0  0  0  0  0  0  0  0  0  0
   19.7637  -22.0704  -16.7986 O   0  0  0  0  0  0  0  0  0  0  0  0
  1  2  1  0
  2  3  1  0
  4  3  1  0
  5  6  1  6
  5  4  1  0
  7  5  1  0
  8  7  2  0
 10  9  1  6
 10 12  1  0
 10 11  1  0
 12 13  1  1
 13  7  1  0
 14 15  2  0
 14 12  1  0
 16 14  1  0
 17 16  1  0
 17 18  1  6
 19 18  1  0
 20 19  2  0
 21 22  1  0
 21 20  1  0
 22 27  2  0
 23 22  1  0
 23 24  2  0
 24 25  1  0
 25 26  2  0
 27 19  1  0
 27 26  1  0
 28 29  1  0
 28 17  1  0
 30 28  2  0
M  END
$$$$
