MVW.pdb
     RDKit          3D

 30 31  0  0  1  0  0  0  0  0999 V2000
   23.9139  -18.6382  -17.9846 C   0  0  0  0  0  0  0  0  0  0  0  0
   25.2431  -18.2919  -19.1831 S   0  0  0  0  0  0  0  0  0  0  0  0
   26.8378  -18.8889  -18.4787 C   0  0  0  0  0  0  0  0  0  0  0  0
   26.5635  -19.5693  -17.1849 C   0  0  0  0  0  0  0  0  0  0  0  0
   27.8009  -19.9287  -16.4474 C   0  0  2  0  0  0  0  0  0  0  0  0
   28.7779  -20.5396  -17.3268 N   0  0  0  0  0  0  0  0  0  0  0  0
   27.5951  -20.8438  -15.2918 C   0  0  0  0  0  0  0  0  0  0  0  0
   27.5691  -22.1009  -15.4436 O   0  0  0  0  0  0  0  0  0  0  0  0
   29.6031  -20.4397  -11.9433 C   0  0  0  0  0  0  0  0  0  0  0  0
   28.1188  -20.5270  -11.6564 C   0  0  2  0  0  0  0  0  0  0  0  0
   27.8991  -21.3260  -10.3882 C   0  0  0  0  0  0  0  0  0  0  0  0
   27.3428  -21.1208  -12.7781 C   0  0  2  0  0  0  0  0  0  0  0  0
   27.4186  -20.3472  -13.9964 N   0  0  0  0  0  0  0  0  0  0  0  0
   25.9307  -21.3073  -12.3349 C   0  0  0  0  0  0  0  0  0  0  0  0
   25.5696  -22.0320  -11.3830 O   0  0  0  0  0  0  0  0  0  0  0  0
   24.9531  -20.5950  -13.0683 N   0  0  0  0  0  0  0  0  0  0  0  0
   23.5393  -20.6418  -12.6781 C   0  0  1  0  0  0  0  0  0  0  0  0
   23.0487  -19.2234  -12.8498 C   0  0  0  0  0  0  0  0  0  0  0  0
   22.2435  -19.0888  -14.0714 C   0  0  0  0  0  0  0  0  0  0  0  0
   20.9057  -19.4988  -14.1299 C   0  0  0  0  0  0  0  0  0  0  0  0
   20.3873  -19.2256  -15.3236 N   0  0  0  0  0  0  0  0  0  0  0  0
   21.3538  -18.6429  -16.0623 C   0  0  0  0  0  0  0  0  0  0  0  0
   21.3475  -18.1778  -17.3644 C   0  0  0  0  0  0  0  0  0  0  0  0
   22.4926  -17.6205  -17.9147 C   0  0  0  0  0  0  0  0  0  0  0  0
   23.6016  -17.5515  -17.1360 C   0  0  0  0  0  0  0  0  0  0  0  0
   23.6509  -18.0056  -15.8262 C   0  0  0  0  0  0  0  0  0  0  0  0
   22.5023  -18.5557  -15.2963 C   0  0  0  0  0  0  0  0  0  0  0  0
   22.8858  -21.6436  -13.5245 C   0  0  0  0  0  0  0  0  0  0  0  0
   21.6067  -22.1484  -13.2180 O   0  0  0  0  0  0  0  0  0  0  0  0
   23.4129  -22.1117  -14.5630 O   0  0  0  0  0  0  0  0  0  0  0  0
  1  2  1  0
  2  3  1  0
  4  3  1  0
  5  6  1  6
  5  4  1  0
  7  5  1  0
  8  7  2  0
 10  9  1  6
 10 12  1  0
 10 11  1  0
 12 13  1  6
 13  7  1  0
 14 15  2  0
 14 12  1  0
 16 14  1  0
 17 16  1  0
 17 18  1  6
 19 18  1  0
 20 19  2  0
 21 22  1  0
 21 20  1  0
 22 27  2  0
 23 22  1  0
 23 24  2  0
 24 25  1  0
 25 26  2  0
 27 19  1  0
 27 26  1  0
 28 29  1  0
 28 17  1  0
 30 28  2  0
M  END
$$$$
