MVW.pdb
     RDKit          3D

 30 31  0  0  1  0  0  0  0  0999 V2000
   29.9145  -17.3235  -17.4894 C   0  0  0  0  0  0  0  0  0  0  0  0
   28.8059  -18.2606  -16.3867 S   0  0  0  0  0  0  0  0  0  0  0  0
   27.4614  -19.0061  -17.4027 C   0  0  0  0  0  0  0  0  0  0  0  0
   26.5062  -19.6985  -16.4970 C   0  0  0  0  0  0  0  0  0  0  0  0
   27.1805  -20.5811  -15.5118 C   0  0  2  0  0  0  0  0  0  0  0  0
   27.8226  -21.7041  -16.1658 N   0  0  0  0  0  0  0  0  0  0  0  0
   26.2915  -21.1227  -14.4480 C   0  0  0  0  0  0  0  0  0  0  0  0
   25.6942  -22.2304  -14.5897 O   0  0  0  0  0  0  0  0  0  0  0  0
   26.9104  -21.1503  -10.4936 C   0  0  0  0  0  0  0  0  0  0  0  0
   25.6248  -20.4331  -10.8485 C   0  0  2  0  0  0  0  0  0  0  0  0
   24.5640  -20.7662   -9.8194 C   0  0  0  0  0  0  0  0  0  0  0  0
   25.1345  -20.7585  -12.2148 C   0  0  2  0  0  0  0  0  0  0  0  0
   26.0808  -20.4246  -13.2547 N   0  0  0  0  0  0  0  0  0  0  0  0
   23.8250  -20.0763  -12.4265 C   0  0  0  0  0  0  0  0  0  0  0  0
   23.6438  -18.8413  -12.3666 O   0  0  0  0  0  0  0  0  0  0  0  0
   22.7275  -20.9205  -12.7160 N   0  0  0  0  0  0  0  0  0  0  0  0
   21.4035  -20.3585  -13.0067 C   0  0  1  0  0  0  0  0  0  0  0  0
   21.5937  -19.5744  -14.2839 C   0  0  0  0  0  0  0  0  0  0  0  0
   21.2693  -20.3948  -15.4588 C   0  0  0  0  0  0  0  0  0  0  0  0
   19.9541  -20.7611  -15.7707 C   0  0  0  0  0  0  0  0  0  0  0  0
   19.9213  -21.4571  -16.9033 N   0  0  0  0  0  0  0  0  0  0  0  0
   21.1890  -21.5630  -17.3517 C   0  0  0  0  0  0  0  0  0  0  0  0
   21.7092  -22.1896  -18.4691 C   0  0  0  0  0  0  0  0  0  0  0  0
   23.0752  -22.1705  -18.7107 C   0  0  0  0  0  0  0  0  0  0  0  0
   23.8677  -21.5224  -17.8202 C   0  0  0  0  0  0  0  0  0  0  0  0
   23.3874  -20.8812  -16.6878 C   0  0  0  0  0  0  0  0  0  0  0  0
   22.0265  -20.9103  -16.4651 C   0  0  0  0  0  0  0  0  0  0  0  0
   20.4618  -21.4783  -13.0865 C   0  0  0  0  0  0  0  0  0  0  0  0
   19.0772  -21.2932  -12.9046 O   0  0  0  0  0  0  0  0  0  0  0  0
   20.8197  -22.6586  -13.3190 O   0  0  0  0  0  0  0  0  0  0  0  0
  1  2  1  0
  2  3  1  0
  4  3  1  0
  5  6  1  6
  5  4  1  0
  7  5  1  0
  8  7  2  0
 10  9  1  1
 10 12  1  0
 10 11  1  0
 12 13  1  6
 13  7  1  0
 14 15  2  0
 14 12  1  0
 16 14  1  0
 17 16  1  0
 17 18  1  6
 19 18  1  0
 20 19  2  0
 21 22  1  0
 21 20  1  0
 22 27  2  0
 23 22  1  0
 23 24  2  0
 24 25  1  0
 25 26  2  0
 27 19  1  0
 27 26  1  0
 28 29  1  0
 28 17  1  0
 30 28  2  0
M  END
$$$$
