MVW.pdb
     RDKit          3D

 30 31  0  0  1  0  0  0  0  0999 V2000
   28.9906  -21.7595  -15.7075 C   0  0  0  0  0  0  0  0  0  0  0  0
   28.4896  -21.3846  -17.4197 S   0  0  0  0  0  0  0  0  0  0  0  0
   26.6745  -21.0676  -17.4434 C   0  0  0  0  0  0  0  0  0  0  0  0
   26.2806  -20.4499  -16.1490 C   0  0  0  0  0  0  0  0  0  0  0  0
   24.8182  -20.2167  -16.0415 C   0  0  2  0  0  0  0  0  0  0  0  0
   24.3575  -19.2930  -17.0591 N   0  0  0  0  0  0  0  0  0  0  0  0
   24.3640  -19.7014  -14.7211 C   0  0  0  0  0  0  0  0  0  0  0  0
   24.0243  -18.4910  -14.5680 O   0  0  0  0  0  0  0  0  0  0  0  0
   22.0021  -21.7910  -12.1037 C   0  0  0  0  0  0  0  0  0  0  0  0
   22.4384  -20.3433  -12.0208 C   0  0  2  0  0  0  0  0  0  0  0  0
   21.6341  -19.5198  -13.0057 C   0  0  0  0  0  0  0  0  0  0  0  0
   23.8941  -20.1588  -12.2657 C   0  0  2  0  0  0  0  0  0  0  0  0
   24.2999  -20.5356  -13.6005 N   0  0  0  0  0  0  0  0  0  0  0  0
   24.6521  -20.9167  -11.2284 C   0  0  0  0  0  0  0  0  0  0  0  0
   24.8714  -22.1466  -11.2588 O   0  0  0  0  0  0  0  0  0  0  0  0
   25.1463  -20.1551  -10.1437 N   0  0  0  0  0  0  0  0  0  0  0  0
   26.0582  -20.7514   -9.1608 C   0  0  1  0  0  0  0  0  0  0  0  0
   27.0352  -19.6483   -8.8280 C   0  0  0  0  0  0  0  0  0  0  0  0
   27.9901  -20.0830   -7.7995 C   0  0  0  0  0  0  0  0  0  0  0  0
   28.8206  -21.1964   -7.9779 C   0  0  0  0  0  0  0  0  0  0  0  0
   29.6239  -21.3503   -6.9294 N   0  0  0  0  0  0  0  0  0  0  0  0
   29.3440  -20.3621   -6.0550 C   0  0  0  0  0  0  0  0  0  0  0  0
   29.8755  -20.0696   -4.8125 C   0  0  0  0  0  0  0  0  0  0  0  0
   29.4025  -18.9865   -4.0857 C   0  0  0  0  0  0  0  0  0  0  0  0
   28.4130  -18.2379   -4.6347 C   0  0  0  0  0  0  0  0  0  0  0  0
   27.8525  -18.4960   -5.8770 C   0  0  0  0  0  0  0  0  0  0  0  0
   28.3363  -19.5764   -6.5849 C   0  0  0  0  0  0  0  0  0  0  0  0
   25.2418  -21.2315   -8.0428 C   0  0  0  0  0  0  0  0  0  0  0  0
   25.6828  -22.2695   -7.1986 O   0  0  0  0  0  0  0  0  0  0  0  0
   24.1130  -20.7575   -7.7662 O   0  0  0  0  0  0  0  0  0  0  0  0
  1  2  1  0
  2  3  1  0
  4  3  1  0
  5  6  1  6
  5  4  1  0
  7  5  1  0
  8  7  2  0
 10  9  1  6
 10 12  1  0
 10 11  1  0
 12 13  1  6
 13  7  1  0
 14 15  2  0
 14 12  1  0
 16 14  1  0
 17 16  1  0
 17 18  1  1
 19 18  1  0
 20 19  2  0
 21 22  1  0
 21 20  1  0
 22 27  2  0
 23 22  1  0
 23 24  2  0
 24 25  1  0
 25 26  2  0
 27 19  1  0
 27 26  1  0
 28 29  1  0
 28 17  1  0
 30 28  2  0
M  END
$$$$
