MVW.pdb
     RDKit          3D

 30 31  0  0  1  0  0  0  0  0999 V2000
   28.4153  -14.3088  -15.2720 C   0  0  0  0  0  0  0  0  0  0  0  0
   28.8293  -15.0422  -16.8887 S   0  0  0  0  0  0  0  0  0  0  0  0
   27.9386  -16.6472  -17.0498 C   0  0  0  0  0  0  0  0  0  0  0  0
   27.0952  -16.8488  -15.8414 C   0  0  0  0  0  0  0  0  0  0  0  0
   26.3411  -18.1274  -15.8698 C   0  0  2  0  0  0  0  0  0  0  0  0
   25.4050  -18.1607  -16.9760 N   0  0  0  0  0  0  0  0  0  0  0  0
   25.5845  -18.4335  -14.6252 C   0  0  0  0  0  0  0  0  0  0  0  0
   24.8985  -17.5465  -14.0366 O   0  0  0  0  0  0  0  0  0  0  0  0
   22.8208  -20.6258  -14.2754 C   0  0  0  0  0  0  0  0  0  0  0  0
   23.7956  -21.1395  -13.2366 C   0  0  2  0  0  0  0  0  0  0  0  0
   23.0358  -21.5301  -11.9855 C   0  0  0  0  0  0  0  0  0  0  0  0
   24.8626  -20.1579  -12.9036 C   0  0  2  0  0  0  0  0  0  0  0  0
   25.6077  -19.7119  -14.0587 N   0  0  0  0  0  0  0  0  0  0  0  0
   25.7581  -20.7584  -11.8728 C   0  0  0  0  0  0  0  0  0  0  0  0
   26.5974  -21.6583  -12.0910 O   0  0  0  0  0  0  0  0  0  0  0  0
   25.6215  -20.2469  -10.5611 N   0  0  0  0  0  0  0  0  0  0  0  0
   26.3740  -20.8308   -9.4448 C   0  0  1  0  0  0  0  0  0  0  0  0
   27.3109  -19.7323   -8.9999 C   0  0  0  0  0  0  0  0  0  0  0  0
   28.1506  -20.1778   -7.8796 C   0  0  0  0  0  0  0  0  0  0  0  0
   29.1120  -21.1856   -8.0250 C   0  0  0  0  0  0  0  0  0  0  0  0
   29.7697  -21.3691   -6.8839 N   0  0  0  0  0  0  0  0  0  0  0  0
   29.2645  -20.5042   -5.9805 C   0  0  0  0  0  0  0  0  0  0  0  0
   29.5795  -20.2902   -4.6513 C   0  0  0  0  0  0  0  0  0  0  0  0
   28.8952  -19.3344   -3.9144 C   0  0  0  0  0  0  0  0  0  0  0  0
   27.9197  -18.6294   -4.5407 C   0  0  0  0  0  0  0  0  0  0  0  0
   27.5724  -18.8120   -5.8712 C   0  0  0  0  0  0  0  0  0  0  0  0
   28.2644  -19.7661   -6.5877 C   0  0  0  0  0  0  0  0  0  0  0  0
   25.3987  -21.2734   -8.4449 C   0  0  0  0  0  0  0  0  0  0  0  0
   24.0460  -20.8853   -8.5103 O   0  0  0  0  0  0  0  0  0  0  0  0
   25.6978  -22.0165   -7.4786 O   0  0  0  0  0  0  0  0  0  0  0  0
  1  2  1  0
  2  3  1  0
  4  3  1  0
  5  6  1  6
  5  4  1  0
  7  5  1  0
  8  7  2  0
 10  9  1  6
 10 12  1  0
 10 11  1  0
 12 13  1  6
 13  7  1  0
 14 15  2  0
 14 12  1  0
 16 14  1  0
 17 16  1  0
 17 18  1  1
 19 18  1  0
 20 19  2  0
 21 22  1  0
 21 20  1  0
 22 27  2  0
 23 22  1  0
 23 24  2  0
 24 25  1  0
 25 26  2  0
 27 19  1  0
 27 26  1  0
 28 29  1  0
 28 17  1  0
 30 28  2  0
M  END
$$$$
