MVW.pdb
     RDKit          3D

 30 31  0  0  1  0  0  0  0  0999 V2000
   32.8119  -23.5645  -14.5850 C   0  0  0  0  0  0  0  0  0  0  0  0
   32.4643  -24.3953  -16.1700 S   0  0  0  0  0  0  0  0  0  0  0  0
   30.6998  -24.1003  -16.6119 C   0  0  0  0  0  0  0  0  0  0  0  0
   30.2265  -22.8826  -15.9010 C   0  0  0  0  0  0  0  0  0  0  0  0
   28.8314  -22.5147  -16.2512 C   0  0  2  0  0  0  0  0  0  0  0  0
   28.7097  -22.1978  -17.6604 N   0  0  0  0  0  0  0  0  0  0  0  0
   28.2751  -21.3706  -15.4787 C   0  0  0  0  0  0  0  0  0  0  0  0
   28.7962  -20.2180  -15.5417 O   0  0  0  0  0  0  0  0  0  0  0  0
   24.2738  -20.8530  -14.4385 C   0  0  0  0  0  0  0  0  0  0  0  0
   25.4077  -19.8905  -14.1538 C   0  0  2  0  0  0  0  0  0  0  0  0
   25.6897  -19.0669  -15.3936 C   0  0  0  0  0  0  0  0  0  0  0  0
   26.6488  -20.5716  -13.6967 C   0  0  2  0  0  0  0  0  0  0  0  0
   27.1586  -21.5289  -14.6517 N   0  0  0  0  0  0  0  0  0  0  0  0
   26.3845  -21.2061  -12.3729 C   0  0  0  0  0  0  0  0  0  0  0  0
   26.0513  -22.3988  -12.2051 O   0  0  0  0  0  0  0  0  0  0  0  0
   26.5327  -20.3667  -11.2441 N   0  0  0  0  0  0  0  0  0  0  0  0
   26.2361  -20.8623   -9.8951 C   0  0  1  0  0  0  0  0  0  0  0  0
   27.4935  -20.5900   -9.1033 C   0  0  0  0  0  0  0  0  0  0  0  0
   27.2313  -20.6566   -7.6592 C   0  0  0  0  0  0  0  0  0  0  0  0
   26.1250  -21.3361   -7.1342 C   0  0  0  0  0  0  0  0  0  0  0  0
   26.1398  -21.2918   -5.8052 N   0  0  0  0  0  0  0  0  0  0  0  0
   27.2335  -20.5950   -5.4343 C   0  0  0  0  0  0  0  0  0  0  0  0
   27.7105  -20.2491   -4.1834 C   0  0  0  0  0  0  0  0  0  0  0  0
   28.8726  -19.5015   -4.0590 C   0  0  0  0  0  0  0  0  0  0  0  0
   29.5119  -19.1293   -5.1964 C   0  0  0  0  0  0  0  0  0  0  0  0
   29.0682  -19.4548   -6.4697 C   0  0  0  0  0  0  0  0  0  0  0  0
   27.9117  -20.1993   -6.5731 C   0  0  0  0  0  0  0  0  0  0  0  0
   25.0329  -20.1677   -9.4295 C   0  0  0  0  0  0  0  0  0  0  0  0
   24.1558  -20.7547   -8.4964 O   0  0  0  0  0  0  0  0  0  0  0  0
   24.7081  -19.0213   -9.8241 O   0  0  0  0  0  0  0  0  0  0  0  0
  1  2  1  0
  2  3  1  0
  4  3  1  0
  5  6  1  6
  5  4  1  0
  7  5  1  0
  8  7  2  0
 10  9  1  6
 10 12  1  0
 10 11  1  0
 12 13  1  6
 13  7  1  0
 14 15  2  0
 14 12  1  0
 16 14  1  0
 17 16  1  0
 17 18  1  1
 19 18  1  0
 20 19  2  0
 21 22  1  0
 21 20  1  0
 22 27  2  0
 23 22  1  0
 23 24  2  0
 24 25  1  0
 25 26  2  0
 27 19  1  0
 27 26  1  0
 28 29  1  0
 28 17  1  0
 30 28  2  0
M  END
$$$$
