MVW.pdb
     RDKit          3D

 30 31  0  0  1  0  0  0  0  0999 V2000
   28.2510  -19.4717   -6.1948 C   0  0  0  0  0  0  0  0  0  0  0  0
   26.4982  -19.6862   -6.6473 S   0  0  0  0  0  0  0  0  0  0  0  0
   26.3636  -21.1054   -7.8150 C   0  0  0  0  0  0  0  0  0  0  0  0
   26.9331  -20.6995   -9.1277 C   0  0  0  0  0  0  0  0  0  0  0  0
   25.9029  -20.5687  -10.1888 C   0  0  2  0  0  0  0  0  0  0  0  0
   25.4855  -21.8675  -10.6786 N   0  0  0  0  0  0  0  0  0  0  0  0
   26.3162  -19.7520  -11.3625 C   0  0  0  0  0  0  0  0  0  0  0  0
   26.5163  -18.5057  -11.2599 O   0  0  0  0  0  0  0  0  0  0  0  0
   29.1368  -20.6073  -13.8846 C   0  0  0  0  0  0  0  0  0  0  0  0
   27.8595  -20.3483  -14.6557 C   0  0  2  0  0  0  0  0  0  0  0  0
   28.1799  -19.5523  -15.9042 C   0  0  0  0  0  0  0  0  0  0  0  0
   26.8253  -19.6451  -13.8501 C   0  0  2  0  0  0  0  0  0  0  0  0
   26.4943  -20.3320  -12.6225 N   0  0  0  0  0  0  0  0  0  0  0  0
   25.6191  -19.4342  -14.7020 C   0  0  0  0  0  0  0  0  0  0  0  0
   25.5106  -18.5547  -15.5830 O   0  0  0  0  0  0  0  0  0  0  0  0
   24.5362  -20.3139  -14.4693 N   0  0  0  0  0  0  0  0  0  0  0  0
   23.2745  -20.1629  -15.2033 C   0  0  1  0  0  0  0  0  0  0  0  0
   23.0885  -21.4809  -15.9180 C   0  0  0  0  0  0  0  0  0  0  0  0
   22.4205  -22.4607  -15.0505 C   0  0  0  0  0  0  0  0  0  0  0  0
   21.0489  -22.3978  -14.7751 C   0  0  0  0  0  0  0  0  0  0  0  0
   20.6808  -23.4212  -14.0099 N   0  0  0  0  0  0  0  0  0  0  0  0
   21.7804  -24.1641  -13.7689 C   0  0  0  0  0  0  0  0  0  0  0  0
   21.9537  -25.3183  -13.0275 C   0  0  0  0  0  0  0  0  0  0  0  0
   23.2095  -25.8975  -12.9164 C   0  0  0  0  0  0  0  0  0  0  0  0
   24.2444  -25.2952  -13.5544 C   0  0  0  0  0  0  0  0  0  0  0  0
   24.1144  -24.1378  -14.3079 C   0  0  0  0  0  0  0  0  0  0  0  0
   22.8581  -23.5772  -14.4074 C   0  0  0  0  0  0  0  0  0  0  0  0
   22.2383  -19.8226  -14.2249 C   0  0  0  0  0  0  0  0  0  0  0  0
   20.9667  -19.3662  -14.6243 O   0  0  0  0  0  0  0  0  0  0  0  0
   22.4108  -19.9136  -12.9850 O   0  0  0  0  0  0  0  0  0  0  0  0
  1  2  1  0
  2  3  1  0
  4  3  1  0
  5  6  1  6
  5  4  1  0
  7  5  1  0
  8  7  2  0
 10  9  1  1
 10 12  1  0
 10 11  1  0
 12 13  1  1
 13  7  1  0
 14 15  2  0
 14 12  1  0
 16 14  1  0
 17 16  1  0
 17 18  1  1
 19 18  1  0
 20 19  2  0
 21 22  1  0
 21 20  1  0
 22 27  2  0
 23 22  1  0
 23 24  2  0
 24 25  1  0
 25 26  2  0
 27 19  1  0
 27 26  1  0
 28 29  1  0
 28 17  1  0
 30 28  2  0
M  END
$$$$
