MAM.pdb
     RDKit          3D

 22 21  0  0  1  0  0  0  0  0999 V2000
    7.5545  -12.2502   26.4862 C   0  0  0  0  0  0  0  0  0  0  0  0
    8.0689  -11.9510   24.7797 S   0  0  0  0  0  0  0  0  0  0  0  0
    7.1780  -13.0253   23.6215 C   0  0  0  0  0  0  0  0  0  0  0  0
    7.3953  -14.4761   23.9805 C   0  0  0  0  0  0  0  0  0  0  0  0
    8.6727  -15.0202   23.3723 C   0  0  2  0  0  0  0  0  0  0  0  0
    8.4234  -15.4734   22.0093 N   0  0  0  0  0  0  0  0  0  0  0  0
    9.0428  -16.2227   24.1714 C   0  0  0  0  0  0  0  0  0  0  0  0
    9.0954  -16.1922   25.4367 O   0  0  0  0  0  0  0  0  0  0  0  0
    9.9715  -19.7918   23.2746 C   0  0  0  0  0  0  0  0  0  0  0  0
    9.7268  -18.6263   24.2187 C   0  0  2  0  0  0  0  0  0  0  0  0
    9.3475  -17.4446   23.5016 N   0  0  0  0  0  0  0  0  0  0  0  0
   10.8923  -18.3410   25.0591 C   0  0  0  0  0  0  0  0  0  0  0  0
   11.7345  -17.4904   24.6959 O   0  0  0  0  0  0  0  0  0  0  0  0
    9.2936  -14.2542   28.1853 C   0  0  0  0  0  0  0  0  0  0  0  0
    9.7500  -15.3019   29.6084 S   0  0  0  0  0  0  0  0  0  0  0  0
   10.9665  -16.4959   29.0166 C   0  0  0  0  0  0  0  0  0  0  0  0
   10.4684  -17.2749   27.8172 C   0  0  0  0  0  0  0  0  0  0  0  0
   11.5918  -18.2617   27.4630 C   0  0  2  0  0  0  0  0  0  0  0  0
   11.1155  -18.9978   26.2917 N   0  0  0  0  0  0  0  0  0  0  0  0
   11.8811  -19.1753   28.5701 C   0  0  0  0  0  0  0  0  0  0  0  0
   12.7319  -18.8341   29.4373 O   0  0  0  0  0  0  0  0  0  0  0  0
   11.2299  -20.3966   28.6630 O   0  0  0  0  0  0  0  0  0  0  0  0
  2  1  1  0
  3  4  1  0
  3  2  1  0
  4  5  1  0
  5  6  1  6
  7 11  1  0
  7  5  1  0
  8  7  2  0
 10  9  1  6
 10 12  1  0
 10 11  1  0
 12 19  1  0
 13 12  2  0
 15 14  1  0
 16 15  1  0
 17 16  1  0
 18 17  1  1
 19 18  1  0
 20 18  1  0
 20 22  1  0
 21 20  2  0
M  END
$$$$
