MAM.pdb
     RDKit          3D

 22 21  0  0  1  0  0  0  0  0999 V2000
    7.7678  -12.0364   27.0460 C   0  0  0  0  0  0  0  0  0  0  0  0
    6.0796  -12.5276   27.4646 S   0  0  0  0  0  0  0  0  0  0  0  0
    5.7207  -14.2127   26.8981 C   0  0  0  0  0  0  0  0  0  0  0  0
    6.7439  -14.6508   25.8773 C   0  0  0  0  0  0  0  0  0  0  0  0
    6.2653  -15.8478   25.0800 C   0  0  2  0  0  0  0  0  0  0  0  0
    6.1511  -17.0132   25.9484 N   0  0  0  0  0  0  0  0  0  0  0  0
    7.3338  -16.1479   24.0851 C   0  0  0  0  0  0  0  0  0  0  0  0
    7.9999  -17.2246   24.1263 O   0  0  0  0  0  0  0  0  0  0  0  0
    8.5430  -14.4001   20.9452 C   0  0  0  0  0  0  0  0  0  0  0  0
    8.5561  -15.4867   22.0076 C   0  0  2  0  0  0  0  0  0  0  0  0
    7.6205  -15.2031   23.0558 N   0  0  0  0  0  0  0  0  0  0  0  0
    9.8906  -15.6868   22.5779 C   0  0  0  0  0  0  0  0  0  0  0  0
   10.8932  -15.7212   21.8308 O   0  0  0  0  0  0  0  0  0  0  0  0
   10.2862  -12.8693   28.5791 C   0  0  0  0  0  0  0  0  0  0  0  0
   10.8380  -14.5756   28.2403 S   0  0  0  0  0  0  0  0  0  0  0  0
   10.9737  -14.7409   26.4486 C   0  0  0  0  0  0  0  0  0  0  0  0
   11.2768  -16.1631   26.0257 C   0  0  0  0  0  0  0  0  0  0  0  0
   11.4393  -16.1201   24.4983 C   0  0  2  0  0  0  0  0  0  0  0  0
   10.1038  -15.8467   23.9670 N   0  0  0  0  0  0  0  0  0  0  0  0
   11.9607  -17.3831   23.9719 C   0  0  0  0  0  0  0  0  0  0  0  0
   11.1723  -18.1695   23.3783 O   0  0  0  0  0  0  0  0  0  0  0  0
   13.3004  -17.7091   24.1242 O   0  0  0  0  0  0  0  0  0  0  0  0
  2  1  1  0
  3  4  1  0
  3  2  1  0
  4  5  1  0
  5  6  1  1
  7 11  1  0
  7  5  1  0
  8  7  2  0
 10  9  1  6
 10 12  1  0
 10 11  1  0
 12 19  1  0
 13 12  2  0
 15 14  1  0
 16 15  1  0
 17 16  1  0
 18 17  1  1
 19 18  1  0
 20 18  1  0
 20 22  1  0
 21 20  2  0
M  END
$$$$
