MAM.pdb
     RDKit          3D

 22 21  0  0  1  0  0  0  0  0999 V2000
    8.1956  -12.0946   18.7675 C   0  0  0  0  0  0  0  0  0  0  0  0
    7.2265  -13.6114   18.9308 S   0  0  0  0  0  0  0  0  0  0  0  0
    6.3486  -13.6686   20.5168 C   0  0  0  0  0  0  0  0  0  0  0  0
    6.9376  -14.7407   21.4027 C   0  0  0  0  0  0  0  0  0  0  0  0
    8.2382  -14.2919   22.0390 C   0  0  2  0  0  0  0  0  0  0  0  0
    9.3286  -14.4022   21.0777 N   0  0  0  0  0  0  0  0  0  0  0  0
    8.5260  -15.2564   23.1382 C   0  0  0  0  0  0  0  0  0  0  0  0
    7.7601  -15.3734   24.1404 O   0  0  0  0  0  0  0  0  0  0  0  0
   10.9669  -18.0970   23.5514 C   0  0  0  0  0  0  0  0  0  0  0  0
    9.9925  -17.0528   24.0709 C   0  0  2  0  0  0  0  0  0  0  0  0
    9.6930  -16.0735   23.0680 N   0  0  0  0  0  0  0  0  0  0  0  0
   10.4869  -16.3873   25.2787 C   0  0  0  0  0  0  0  0  0  0  0  0
   11.4529  -15.5958   25.2080 O   0  0  0  0  0  0  0  0  0  0  0  0
    7.9551  -11.6704   26.1111 C   0  0  0  0  0  0  0  0  0  0  0  0
    8.1078  -12.7571   27.5694 S   0  0  0  0  0  0  0  0  0  0  0  0
    9.3175  -14.0302   27.1552 C   0  0  0  0  0  0  0  0  0  0  0  0
    9.5330  -15.0074   28.2918 C   0  0  0  0  0  0  0  0  0  0  0  0
   10.5240  -16.0550   27.7611 C   0  0  2  0  0  0  0  0  0  0  0  0
    9.9092  -16.6027   26.5518 N   0  0  0  0  0  0  0  0  0  0  0  0
   10.7742  -17.1122   28.7428 C   0  0  0  0  0  0  0  0  0  0  0  0
   11.3621  -16.8189   29.8201 O   0  0  0  0  0  0  0  0  0  0  0  0
   10.3711  -18.4155   28.4914 O   0  0  0  0  0  0  0  0  0  0  0  0
  2  1  1  0
  3  4  1  0
  3  2  1  0
  4  5  1  0
  5  6  1  6
  7 11  1  0
  7  5  1  0
  8  7  2  0
 10  9  1  6
 10 12  1  0
 10 11  1  0
 12 19  1  0
 13 12  2  0
 15 14  1  0
 16 15  1  0
 17 16  1  0
 18 17  1  1
 19 18  1  0
 20 18  1  0
 20 22  1  0
 21 20  2  0
M  END
$$$$
