MAM.pdb
     RDKit          3D

 22 21  0  0  1  0  0  0  0  0999 V2000
    6.0567  -11.8704   25.1191 C   0  0  0  0  0  0  0  0  0  0  0  0
    5.4224  -12.6228   26.6351 S   0  0  0  0  0  0  0  0  0  0  0  0
    5.9580  -14.3485   26.7920 C   0  0  0  0  0  0  0  0  0  0  0  0
    5.7351  -15.0859   25.4930 C   0  0  0  0  0  0  0  0  0  0  0  0
    6.4116  -16.4423   25.4937 C   0  0  2  0  0  0  0  0  0  0  0  0
    7.3130  -16.5503   26.6343 N   0  0  0  0  0  0  0  0  0  0  0  0
    7.2539  -16.4954   24.2652 C   0  0  0  0  0  0  0  0  0  0  0  0
    7.3300  -17.5406   23.5534 O   0  0  0  0  0  0  0  0  0  0  0  0
    8.4610  -13.9034   21.9591 C   0  0  0  0  0  0  0  0  0  0  0  0
    8.6590  -15.2654   22.6038 C   0  0  2  0  0  0  0  0  0  0  0  0
    7.9975  -15.3432   23.8730 N   0  0  0  0  0  0  0  0  0  0  0  0
   10.0759  -15.6008   22.7642 C   0  0  0  0  0  0  0  0  0  0  0  0
   10.9565  -14.8393   22.3066 O   0  0  0  0  0  0  0  0  0  0  0  0
    9.5051  -13.9229   28.2120 C   0  0  0  0  0  0  0  0  0  0  0  0
   11.2251  -14.3428   27.7689 S   0  0  0  0  0  0  0  0  0  0  0  0
   11.1854  -15.9622   26.9739 C   0  0  0  0  0  0  0  0  0  0  0  0
   10.4205  -15.9404   25.6671 C   0  0  0  0  0  0  0  0  0  0  0  0
   11.2963  -16.6976   24.6568 C   0  0  2  0  0  0  0  0  0  0  0  0
   10.5056  -16.7735   23.4282 N   0  0  0  0  0  0  0  0  0  0  0  0
   11.6441  -18.0368   25.1359 C   0  0  0  0  0  0  0  0  0  0  0  0
   12.7029  -18.1904   25.8048 O   0  0  0  0  0  0  0  0  0  0  0  0
   10.8219  -19.1189   24.8580 O   0  0  0  0  0  0  0  0  0  0  0  0
  2  1  1  0
  3  4  1  0
  3  2  1  0
  4  5  1  0
  5  6  1  1
  7 11  1  0
  7  5  1  0
  8  7  2  0
 10  9  1  1
 10 12  1  0
 10 11  1  0
 12 19  1  0
 13 12  2  0
 15 14  1  0
 16 15  1  0
 17 16  1  0
 18 17  1  1
 19 18  1  0
 20 18  1  0
 20 22  1  0
 21 20  2  0
M  END
$$$$
