MAM.pdb
     RDKit          3D

 22 21  0  0  1  0  0  0  0  0999 V2000
    9.4042  -11.7607   20.1077 C   0  0  0  0  0  0  0  0  0  0  0  0
    7.8725  -12.0580   19.1956 S   0  0  0  0  0  0  0  0  0  0  0  0
    7.3982  -13.8077   19.2503 C   0  0  0  0  0  0  0  0  0  0  0  0
    7.7646  -14.4077   20.5870 C   0  0  0  0  0  0  0  0  0  0  0  0
    7.4955  -15.8990   20.6262 C   0  0  2  0  0  0  0  0  0  0  0  0
    6.0673  -16.1528   20.4813 N   0  0  0  0  0  0  0  0  0  0  0  0
    7.8855  -16.3634   21.9876 C   0  0  0  0  0  0  0  0  0  0  0  0
    7.0544  -16.4011   22.9429 O   0  0  0  0  0  0  0  0  0  0  0  0
   10.8331  -18.2556   23.3228 C   0  0  0  0  0  0  0  0  0  0  0  0
    9.6318  -17.3391   23.4862 C   0  0  2  0  0  0  0  0  0  0  0  0
    9.2284  -16.7784   22.2303 N   0  0  0  0  0  0  0  0  0  0  0  0
    9.8832  -16.2639   24.4489 C   0  0  0  0  0  0  0  0  0  0  0  0
   10.7368  -15.3846   24.1985 O   0  0  0  0  0  0  0  0  0  0  0  0
    6.7984  -11.1356   26.6200 C   0  0  0  0  0  0  0  0  0  0  0  0
    6.3221  -12.8096   26.0706 S   0  0  0  0  0  0  0  0  0  0  0  0
    7.8491  -13.7376   25.8197 C   0  0  0  0  0  0  0  0  0  0  0  0
    8.3005  -14.4493   27.0779 C   0  0  0  0  0  0  0  0  0  0  0  0
    9.5865  -15.1988   26.6965 C   0  0  2  0  0  0  0  0  0  0  0  0
    9.1893  -16.1710   25.6780 N   0  0  0  0  0  0  0  0  0  0  0  0
   10.1866  -15.8700   27.8512 C   0  0  0  0  0  0  0  0  0  0  0  0
   10.6236  -15.1698   28.8058 O   0  0  0  0  0  0  0  0  0  0  0  0
   10.2732  -17.2538   27.8941 O   0  0  0  0  0  0  0  0  0  0  0  0
  2  1  1  0
  3  4  1  0
  3  2  1  0
  4  5  1  0
  5  6  1  1
  7 11  1  0
  7  5  1  0
  8  7  2  0
 10  9  1  6
 10 12  1  0
 10 11  1  0
 12 19  1  0
 13 12  2  0
 15 14  1  0
 16 15  1  0
 17 16  1  0
 18 17  1  1
 19 18  1  0
 20 18  1  0
 20 22  1  0
 21 20  2  0
M  END
$$$$
