MAM.pdb
     RDKit          3D

 22 21  0  0  1  0  0  0  0  0999 V2000
    8.5087  -11.6610   20.1562 C   0  0  0  0  0  0  0  0  0  0  0  0
    7.9136  -12.5487   18.6985 S   0  0  0  0  0  0  0  0  0  0  0  0
    8.2950  -14.3189   18.7999 C   0  0  0  0  0  0  0  0  0  0  0  0
    8.2217  -14.7889   20.2333 C   0  0  0  0  0  0  0  0  0  0  0  0
    8.5464  -16.2642   20.3581 C   0  0  2  0  0  0  0  0  0  0  0  0
    7.5327  -17.0583   19.6747 N   0  0  0  0  0  0  0  0  0  0  0  0
    8.4561  -16.5959   21.8084 C   0  0  0  0  0  0  0  0  0  0  0  0
    7.3437  -16.8098   22.3755 O   0  0  0  0  0  0  0  0  0  0  0  0
   10.4568  -18.3865   24.1270 C   0  0  0  0  0  0  0  0  0  0  0  0
    9.6352  -17.1204   23.9489 C   0  0  2  0  0  0  0  0  0  0  0  0
    9.6490  -16.6766   22.5861 N   0  0  0  0  0  0  0  0  0  0  0  0
   10.0898  -16.0381   24.8253 C   0  0  0  0  0  0  0  0  0  0  0  0
   11.1424  -15.4165   24.5601 O   0  0  0  0  0  0  0  0  0  0  0  0
    6.0074  -11.2991   25.8806 C   0  0  0  0  0  0  0  0  0  0  0  0
    6.6412  -12.3499   27.2315 S   0  0  0  0  0  0  0  0  0  0  0  0
    8.1010  -13.2008   26.5984 C   0  0  0  0  0  0  0  0  0  0  0  0
    8.7699  -14.0548   27.6551 C   0  0  0  0  0  0  0  0  0  0  0  0
    9.9612  -14.7285   26.9566 C   0  0  2  0  0  0  0  0  0  0  0  0
    9.3774  -15.6536   25.9851 N   0  0  0  0  0  0  0  0  0  0  0  0
   10.8154  -15.4427   27.9076 C   0  0  0  0  0  0  0  0  0  0  0  0
   11.6860  -14.7955   28.5523 O   0  0  0  0  0  0  0  0  0  0  0  0
   10.6692  -16.8092   28.0960 O   0  0  0  0  0  0  0  0  0  0  0  0
  2  1  1  0
  3  4  1  0
  3  2  1  0
  4  5  1  0
  5  6  1  6
  7 11  1  0
  7  5  1  0
  8  7  2  0
 10  9  1  6
 10 12  1  0
 10 11  1  0
 12 19  1  0
 13 12  2  0
 15 14  1  0
 16 15  1  0
 17 16  1  0
 18 17  1  1
 19 18  1  0
 20 18  1  0
 20 22  1  0
 21 20  2  0
M  END
$$$$
