MAM.pdb
     RDKit          3D

 22 21  0  0  1  0  0  0  0  0999 V2000
    7.9817  -11.7460   21.1264 C   0  0  0  0  0  0  0  0  0  0  0  0
    7.6150  -12.3301   19.4558 S   0  0  0  0  0  0  0  0  0  0  0  0
    7.7746  -14.1327   19.3347 C   0  0  0  0  0  0  0  0  0  0  0  0
    8.1501  -14.7161   20.6762 C   0  0  0  0  0  0  0  0  0  0  0  0
    8.2205  -16.2296   20.6308 C   0  0  2  0  0  0  0  0  0  0  0  0
    6.9018  -16.7827   20.3472 N   0  0  0  0  0  0  0  0  0  0  0  0
    8.5957  -16.6769   22.0022 C   0  0  0  0  0  0  0  0  0  0  0  0
    7.7441  -16.7456   22.9375 O   0  0  0  0  0  0  0  0  0  0  0  0
   11.7727  -18.0022   23.5782 C   0  0  0  0  0  0  0  0  0  0  0  0
   10.3840  -17.3851   23.5983 C   0  0  2  0  0  0  0  0  0  0  0  0
    9.9474  -17.0391   22.2776 N   0  0  0  0  0  0  0  0  0  0  0  0
   10.3149  -16.2065   24.4657 C   0  0  0  0  0  0  0  0  0  0  0  0
   10.4954  -15.0647   23.9881 O   0  0  0  0  0  0  0  0  0  0  0  0
    7.1226  -11.2413   25.6100 C   0  0  0  0  0  0  0  0  0  0  0  0
    6.7765  -12.4682   26.9161 S   0  0  0  0  0  0  0  0  0  0  0  0
    8.3222  -13.3385   27.2463 C   0  0  0  0  0  0  0  0  0  0  0  0
    8.5126  -14.5338   26.3362 C   0  0  0  0  0  0  0  0  0  0  0  0
    9.9000  -15.1010   26.6747 C   0  0  2  0  0  0  0  0  0  0  0  0
   10.0471  -16.3014   25.8513 N   0  0  0  0  0  0  0  0  0  0  0  0
   10.0210  -15.4271   28.0971 C   0  0  0  0  0  0  0  0  0  0  0  0
   10.5509  -14.5856   28.8738 O   0  0  0  0  0  0  0  0  0  0  0  0
    9.5604  -16.6424   28.5820 O   0  0  0  0  0  0  0  0  0  0  0  0
  2  1  1  0
  3  4  1  0
  3  2  1  0
  4  5  1  0
  5  6  1  1
  7 11  1  0
  7  5  1  0
  8  7  2  0
 10  9  1  6
 10 12  1  0
 10 11  1  0
 12 19  1  0
 13 12  2  0
 15 14  1  0
 16 15  1  0
 17 16  1  0
 18 17  1  1
 19 18  1  0
 20 18  1  0
 20 22  1  0
 21 20  2  0
M  END
$$$$
