MAM.pdb
     RDKit          3D

 22 21  0  0  1  0  0  0  0  0999 V2000
    6.9448  -12.0829   27.0717 C   0  0  0  0  0  0  0  0  0  0  0  0
    6.2418  -12.1910   25.4101 S   0  0  0  0  0  0  0  0  0  0  0  0
    5.4472  -13.7972   25.1306 C   0  0  0  0  0  0  0  0  0  0  0  0
    6.2841  -14.6397   24.1976 C   0  0  0  0  0  0  0  0  0  0  0  0
    7.0782  -15.6899   24.9487 C   0  0  2  0  0  0  0  0  0  0  0  0
    7.9000  -15.0569   25.9730 N   0  0  0  0  0  0  0  0  0  0  0  0
    8.0094  -16.3035   23.9598 C   0  0  0  0  0  0  0  0  0  0  0  0
    7.6462  -17.2499   23.2000 O   0  0  0  0  0  0  0  0  0  0  0  0
   11.1776  -15.7145   22.2506 C   0  0  0  0  0  0  0  0  0  0  0  0
   10.3801  -16.5754   23.2163 C   0  0  2  0  0  0  0  0  0  0  0  0
    9.3469  -15.8184   23.8594 N   0  0  0  0  0  0  0  0  0  0  0  0
   11.2318  -17.2067   24.2274 C   0  0  0  0  0  0  0  0  0  0  0  0
   12.2106  -17.9025   23.8773 O   0  0  0  0  0  0  0  0  0  0  0  0
   10.7609  -12.9792   28.6693 C   0  0  0  0  0  0  0  0  0  0  0  0
   11.0694  -14.7027   29.1844 S   0  0  0  0  0  0  0  0  0  0  0  0
   11.4155  -15.6477   27.6867 C   0  0  0  0  0  0  0  0  0  0  0  0
   11.4858  -17.1370   27.9522 C   0  0  0  0  0  0  0  0  0  0  0  0
   11.7981  -17.7896   26.5967 C   0  0  2  0  0  0  0  0  0  0  0  0
   10.9936  -17.0630   25.6142 N   0  0  0  0  0  0  0  0  0  0  0  0
   11.4647  -19.2154   26.5908 C   0  0  0  0  0  0  0  0  0  0  0  0
   10.4729  -19.6081   25.9167 O   0  0  0  0  0  0  0  0  0  0  0  0
   12.2277  -20.1194   27.3154 O   0  0  0  0  0  0  0  0  0  0  0  0
  2  1  1  0
  3  4  1  0
  3  2  1  0
  4  5  1  0
  5  6  1  1
  7 11  1  0
  7  5  1  0
  8  7  2  0
 10  9  1  1
 10 12  1  0
 10 11  1  0
 12 19  1  0
 13 12  2  0
 15 14  1  0
 16 15  1  0
 17 16  1  0
 18 17  1  1
 19 18  1  0
 20 18  1  0
 20 22  1  0
 21 20  2  0
M  END
$$$$
