MAM.pdb
     RDKit          3D

 22 21  0  0  1  0  0  0  0  0999 V2000
    2.8185  -19.6001   19.0684 C   0  0  0  0  0  0  0  0  0  0  0  0
    2.1419  -19.1706   20.6884 S   0  0  0  0  0  0  0  0  0  0  0  0
    3.4199  -18.4896   21.7803 C   0  0  0  0  0  0  0  0  0  0  0  0
    4.4842  -19.5265   22.0507 C   0  0  0  0  0  0  0  0  0  0  0  0
    5.5676  -18.9939   22.9674 C   0  0  2  0  0  0  0  0  0  0  0  0
    4.9672  -18.2851   24.0910 N   0  0  0  0  0  0  0  0  0  0  0  0
    6.3342  -17.9893   22.1770 C   0  0  0  0  0  0  0  0  0  0  0  0
    7.1085  -18.3321   21.2348 O   0  0  0  0  0  0  0  0  0  0  0  0
    6.1449  -14.3165   21.6339 C   0  0  0  0  0  0  0  0  0  0  0  0
    6.9477  -15.5978   21.7880 C   0  0  2  0  0  0  0  0  0  0  0  0
    6.1983  -16.6028   22.4828 N   0  0  0  0  0  0  0  0  0  0  0  0
    8.2235  -15.3723   22.4718 C   0  0  0  0  0  0  0  0  0  0  0  0
    9.0263  -14.5178   22.0361 O   0  0  0  0  0  0  0  0  0  0  0  0
    6.9235  -11.1200   26.4075 C   0  0  0  0  0  0  0  0  0  0  0  0
    6.6154  -12.7992   27.0526 S   0  0  0  0  0  0  0  0  0  0  0  0
    7.9835  -13.8372   26.4987 C   0  0  0  0  0  0  0  0  0  0  0  0
    7.6378  -14.6235   25.2516 C   0  0  0  0  0  0  0  0  0  0  0  0
    8.9103  -15.4008   24.8805 C   0  0  2  0  0  0  0  0  0  0  0  0
    8.5992  -16.0928   23.6296 N   0  0  0  0  0  0  0  0  0  0  0  0
    9.2870  -16.3559   25.9244 C   0  0  0  0  0  0  0  0  0  0  0  0
    8.8341  -17.5324   25.8683 O   0  0  0  0  0  0  0  0  0  0  0  0
   10.1283  -15.9725   26.9586 O   0  0  0  0  0  0  0  0  0  0  0  0
  2  1  1  0
  3  4  1  0
  3  2  1  0
  4  5  1  0
  5  6  1  1
  7 11  1  0
  7  5  1  0
  8  7  2  0
 10  9  1  1
 10 12  1  0
 10 11  1  0
 12 19  1  0
 13 12  2  0
 15 14  1  0
 16 15  1  0
 17 16  1  0
 18 17  1  1
 19 18  1  0
 20 18  1  0
 20 22  1  0
 21 20  2  0
M  END
$$$$
