MAM.pdb
     RDKit          3D

 22 21  0  0  1  0  0  0  0  0999 V2000
    8.3304  -11.9035   19.8125 C   0  0  0  0  0  0  0  0  0  0  0  0
    8.5617  -13.3466   18.7493 S   0  0  0  0  0  0  0  0  0  0  0  0
    7.3116  -14.6187   19.0784 C   0  0  0  0  0  0  0  0  0  0  0  0
    7.4100  -15.0915   20.5093 C   0  0  0  0  0  0  0  0  0  0  0  0
    8.8456  -15.3605   20.9148 C   0  0  2  0  0  0  0  0  0  0  0  0
    9.3902  -16.4584   20.1253 N   0  0  0  0  0  0  0  0  0  0  0  0
    8.8059  -15.8198   22.3321 C   0  0  0  0  0  0  0  0  0  0  0  0
    8.1814  -15.1739   23.2252 O   0  0  0  0  0  0  0  0  0  0  0  0
   10.2326  -18.8149   24.1726 C   0  0  0  0  0  0  0  0  0  0  0  0
    9.5611  -17.4558   24.0643 C   0  0  2  0  0  0  0  0  0  0  0  0
    9.4863  -17.0176   22.7016 N   0  0  0  0  0  0  0  0  0  0  0  0
   10.2371  -16.4387   24.8735 C   0  0  0  0  0  0  0  0  0  0  0  0
   11.0198  -15.6260   24.3337 O   0  0  0  0  0  0  0  0  0  0  0  0
    5.8449  -13.2381   28.0287 C   0  0  0  0  0  0  0  0  0  0  0  0
    7.5748  -12.7759   27.6755 S   0  0  0  0  0  0  0  0  0  0  0  0
    8.3943  -14.2491   27.0320 C   0  0  0  0  0  0  0  0  0  0  0  0
    9.8260  -13.9752   26.6214 C   0  0  0  0  0  0  0  0  0  0  0  0
   10.6245  -15.2231   27.0291 C   0  0  2  0  0  0  0  0  0  0  0  0
   10.0417  -16.3299   26.2701 N   0  0  0  0  0  0  0  0  0  0  0  0
   10.5384  -15.4765   28.4686 C   0  0  0  0  0  0  0  0  0  0  0  0
   11.0090  -14.6216   29.2686 O   0  0  0  0  0  0  0  0  0  0  0  0
    9.9489  -16.6386   28.9445 O   0  0  0  0  0  0  0  0  0  0  0  0
  2  1  1  0
  3  4  1  0
  3  2  1  0
  4  5  1  0
  5  6  1  6
  7 11  1  0
  7  5  1  0
  8  7  2  0
 10  9  1  6
 10 12  1  0
 10 11  1  0
 12 19  1  0
 13 12  2  0
 15 14  1  0
 16 15  1  0
 17 16  1  0
 18 17  1  1
 19 18  1  0
 20 18  1  0
 20 22  1  0
 21 20  2  0
M  END
$$$$
