RHM.pdb
     RDKit          3D

 30 30  0  0  1  0  0  0  0  0999 V2000
   30.1949  -23.4419  -15.4345 N   0  0  0  0  0  0  0  0  0  0  0  0
   29.6329  -23.7713  -16.6991 C   0  0  0  0  0  0  0  0  0  0  0  0
   29.7109  -25.0037  -17.0839 N   0  0  0  0  0  0  0  0  0  0  0  0
   29.0086  -22.7921  -17.5199 N   0  0  0  0  0  0  0  0  0  0  0  0
   28.3926  -21.6502  -16.9364 C   0  0  0  0  0  0  0  0  0  0  0  0
   28.9786  -21.1678  -15.6552 C   0  0  0  0  0  0  0  0  0  0  0  0
   28.3053  -19.9714  -15.0588 C   0  0  0  0  0  0  0  0  0  0  0  0
   26.8016  -20.1098  -15.2596 C   0  0  2  0  0  0  0  0  0  0  0  0
   26.3784  -19.3347  -16.3397 N   0  0  0  0  0  0  0  0  0  0  0  0
   26.0344  -19.7971  -14.0375 C   0  0  0  0  0  0  0  0  0  0  0  0
   25.8138  -18.6142  -13.7081 O   0  0  0  0  0  0  0  0  0  0  0  0
   29.2974  -25.3684  -17.9669 N   0  0  0  0  0  0  0  0  0  0  0  0
   25.5458  -20.8510  -13.2327 C   0  0  2  0  0  0  0  0  0  0  0  0
   24.8333  -20.6577  -11.9851 C   0  0  0  0  0  0  0  0  0  0  0  0
   23.4748  -21.2480  -12.0694 C   0  0  0  0  0  0  0  0  0  0  0  0
   22.5044  -20.4918  -12.8831 C   0  0  0  0  0  0  0  0  0  0  0  0
   22.8314  -19.3334  -13.5403 N   0  0  0  0  0  0  0  0  0  0  0  0
   21.7389  -18.9053  -14.1798 C   0  0  0  0  0  0  0  0  0  0  0  0
   20.7583  -19.7824  -13.9219 N   0  0  0  0  0  0  0  0  0  0  0  0
   21.2218  -20.7547  -13.1290 C   0  0  0  0  0  0  0  0  0  0  0  0
   25.6363  -21.1103  -10.8213 O   0  0  0  0  0  0  0  0  0  0  0  0
   25.8841  -22.3330  -10.6801 C   0  0  0  0  0  0  0  0  0  0  0  0
   29.3641  -19.0763   -4.0069 S   0  0  0  0  0  0  0  0  0  0  0  0
   28.6923  -18.5735   -5.5769 C   0  0  0  0  0  0  0  0  0  0  0  0
   27.7403  -19.8191   -6.4208 C   0  0  0  0  0  0  0  0  0  0  0  0
   27.3674  -19.5375   -7.8263 C   0  0  1  0  0  0  0  0  0  0  0  0
   26.5411  -20.5855   -8.5039 N   0  0  0  0  0  0  0  0  0  0  0  0
   26.1439  -20.2027   -9.8450 C   0  0  0  0  0  0  0  0  0  0  0  0
   25.3105  -20.9685   -7.7764 O   0  0  0  0  0  0  0  0  0  0  0  0
   24.0394  -20.5040   -8.0821 O   0  0  0  0  0  0  0  0  0  0  0  0
  2  4  1  0
  2  1  1  0
  3  2  2  0
  5  4  1  0
  6  5  1  0
  7  6  1  0
  8  7  1  0
  8  9  1  6
 10  8  1  0
 10 11  2  0
 12 10  1  0
 13 12  1  0
 13 14  1  6
 15 16  2  0
 15 14  1  0
 17 16  1  0
 18 19  2  0
 18 17  1  0
 19 15  1  0
 20 13  1  0
 21 20  2  0
 23 22  1  0
 23 24  1  0
 24 25  1  0
 26 25  1  6
 26 27  1  0
 27 20  1  0
 28 26  1  0
 28 29  1  0
 30 28  2  0
M  END
$$$$
