RHM.pdb
     RDKit          3D

 30 30  0  0  1  0  0  0  0  0999 V2000
   26.4486  -26.7950  -15.8552 N   0  0  0  0  0  0  0  0  0  0  0  0
   26.8174  -26.1423  -17.0641 C   0  0  0  0  0  0  0  0  0  0  0  0
   27.0285  -26.8843  -18.1023 N   0  0  0  0  0  0  0  0  0  0  0  0
   26.9545  -24.7289  -17.1412 N   0  0  0  0  0  0  0  0  0  0  0  0
   26.5440  -23.9056  -16.0562 C   0  0  0  0  0  0  0  0  0  0  0  0
   25.1077  -23.9895  -15.6720 C   0  0  0  0  0  0  0  0  0  0  0  0
   24.6842  -23.0504  -14.5860 C   0  0  0  0  0  0  0  0  0  0  0  0
   23.6954  -22.0486  -15.1682 C   0  0  2  0  0  0  0  0  0  0  0  0
   24.3703  -20.9668  -15.7344 N   0  0  0  0  0  0  0  0  0  0  0  0
   22.6920  -21.6022  -14.1814 C   0  0  0  0  0  0  0  0  0  0  0  0
   22.9841  -20.7548  -13.3136 O   0  0  0  0  0  0  0  0  0  0  0  0
   27.3506  -26.5231  -19.0240 N   0  0  0  0  0  0  0  0  0  0  0  0
   21.3867  -22.1423  -14.2216 C   0  0  2  0  0  0  0  0  0  0  0  0
   20.3400  -21.8096  -13.2754 C   0  0  0  0  0  0  0  0  0  0  0  0
   19.2921  -20.9898  -13.9316 C   0  0  0  0  0  0  0  0  0  0  0  0
   19.6349  -19.5701  -14.1384 C   0  0  0  0  0  0  0  0  0  0  0  0
   20.8206  -19.0248  -13.7170 N   0  0  0  0  0  0  0  0  0  0  0  0
   20.8184  -17.7323  -14.0568 C   0  0  0  0  0  0  0  0  0  0  0  0
   19.6546  -17.4862  -14.6752 N   0  0  0  0  0  0  0  0  0  0  0  0
   18.9272  -18.6074  -14.7275 C   0  0  0  0  0  0  0  0  0  0  0  0
   19.8355  -23.0158  -12.5721 O   0  0  0  0  0  0  0  0  0  0  0  0
   19.7992  -24.1144  -13.1789 C   0  0  0  0  0  0  0  0  0  0  0  0
   17.8222  -26.2413   -5.5023 S   0  0  0  0  0  0  0  0  0  0  0  0
   18.3075  -24.8057   -6.4364 C   0  0  0  0  0  0  0  0  0  0  0  0
   18.3262  -25.0292   -8.2027 C   0  0  0  0  0  0  0  0  0  0  0  0
   18.8320  -23.8981   -9.0142 C   0  0  1  0  0  0  0  0  0  0  0  0
   18.8904  -24.1307  -10.4916 N   0  0  0  0  0  0  0  0  0  0  0  0
   19.3845  -22.9779  -11.2194 C   0  0  0  0  0  0  0  0  0  0  0  0
   17.6015  -24.5169  -11.1081 O   0  0  0  0  0  0  0  0  0  0  0  0
   17.2128  -25.8238  -11.3650 O   0  0  0  0  0  0  0  0  0  0  0  0
  2  4  1  0
  2  1  1  0
  3  2  2  0
  5  4  1  0
  6  5  1  0
  7  6  1  0
  8  7  1  0
  8  9  1  1
 10  8  1  0
 10 11  2  0
 12 10  1  0
 13 12  1  0
 13 14  1  1
 15 16  2  0
 15 14  1  0
 17 16  1  0
 18 19  2  0
 18 17  1  0
 19 15  1  0
 20 13  1  0
 21 20  2  0
 23 22  1  0
 23 24  1  0
 24 25  1  0
 26 25  1  1
 26 27  1  0
 27 20  1  0
 28 26  1  0
 28 29  1  0
 30 28  2  0
M  END
$$$$
