RHM.pdb
     RDKit          3D

 30 30  0  0  1  0  0  0  0  0999 V2000
   28.9318  -27.1745  -18.1380 N   0  0  0  0  0  0  0  0  0  0  0  0
   28.2530  -27.3695  -16.9032 C   0  0  0  0  0  0  0  0  0  0  0  0
   28.5901  -28.3963  -16.1926 N   0  0  0  0  0  0  0  0  0  0  0  0
   27.2388  -26.4782  -16.4565 N   0  0  0  0  0  0  0  0  0  0  0  0
   26.6059  -25.5914  -17.3712 C   0  0  0  0  0  0  0  0  0  0  0  0
   26.0329  -26.2094  -18.5989 C   0  0  0  0  0  0  0  0  0  0  0  0
   24.5402  -26.1584  -18.6990 C   0  0  0  0  0  0  0  0  0  0  0  0
   24.1555  -25.0368  -19.6552 C   0  0  2  0  0  0  0  0  0  0  0  0
   25.2554  -24.6457  -20.4192 N   0  0  0  0  0  0  0  0  0  0  0  0
   23.5426  -23.8857  -18.9629 C   0  0  0  0  0  0  0  0  0  0  0  0
   24.1377  -22.7913  -18.8955 O   0  0  0  0  0  0  0  0  0  0  0  0
   28.1432  -28.6547  -15.2887 N   0  0  0  0  0  0  0  0  0  0  0  0
   22.2676  -24.0274  -18.3700 C   0  0  2  0  0  0  0  0  0  0  0  0
   21.5455  -22.9469  -17.7276 C   0  0  0  0  0  0  0  0  0  0  0  0
   20.1953  -23.4019  -17.3146 C   0  0  0  0  0  0  0  0  0  0  0  0
   19.3407  -22.3710  -16.6958 C   0  0  0  0  0  0  0  0  0  0  0  0
   18.8913  -21.2715  -17.3812 N   0  0  0  0  0  0  0  0  0  0  0  0
   18.1477  -20.5441  -16.5421 C   0  0  0  0  0  0  0  0  0  0  0  0
   18.1391  -21.1828  -15.3634 N   0  0  0  0  0  0  0  0  0  0  0  0
   18.8675  -22.3010  -15.4524 C   0  0  0  0  0  0  0  0  0  0  0  0
   22.3476  -22.3203  -16.6468 O   0  0  0  0  0  0  0  0  0  0  0  0
   23.1215  -23.0319  -15.9604 C   0  0  0  0  0  0  0  0  0  0  0  0
   27.9033  -19.4518  -15.7358 S   0  0  0  0  0  0  0  0  0  0  0  0
   26.6544  -18.1980  -15.5425 C   0  0  0  0  0  0  0  0  0  0  0  0
   25.0826  -18.7877  -14.9495 C   0  0  0  0  0  0  0  0  0  0  0  0
   24.2303  -19.5112  -15.9211 C   0  0  1  0  0  0  0  0  0  0  0  0
   23.0742  -20.2637  -15.3402 N   0  0  0  0  0  0  0  0  0  0  0  0
   22.2744  -20.9266  -16.3520 C   0  0  0  0  0  0  0  0  0  0  0  0
   22.1522  -19.4450  -14.5217 O   0  0  0  0  0  0  0  0  0  0  0  0
   22.4935  -18.8395  -13.3209 O   0  0  0  0  0  0  0  0  0  0  0  0
  2  4  1  0
  2  1  1  0
  3  2  2  0
  5  4  1  0
  6  5  1  0
  7  6  1  0
  8  7  1  0
  8  9  1  1
 10  8  1  0
 10 11  2  0
 12 10  1  0
 13 12  1  0
 13 14  1  6
 15 16  2  0
 15 14  1  0
 17 16  1  0
 18 19  2  0
 18 17  1  0
 19 15  1  0
 20 13  1  0
 21 20  2  0
 23 22  1  0
 23 24  1  0
 24 25  1  0
 26 25  1  1
 26 27  1  0
 27 20  1  0
 28 26  1  0
 28 29  1  0
 30 28  2  0
M  END
$$$$
