RHM.pdb
     RDKit          3D

 30 30  0  0  1  0  0  0  0  0999 V2000
   29.0700  -20.4163  -18.8204 N   0  0  0  0  0  0  0  0  0  0  0  0
   28.9771  -19.5303  -19.9295 C   0  0  0  0  0  0  0  0  0  0  0  0
   29.0293  -20.0489  -21.1133 N   0  0  0  0  0  0  0  0  0  0  0  0
   28.8345  -18.1259  -19.7572 N   0  0  0  0  0  0  0  0  0  0  0  0
   28.6524  -17.5748  -18.4584 C   0  0  0  0  0  0  0  0  0  0  0  0
   27.6184  -18.2242  -17.6060 C   0  0  0  0  0  0  0  0  0  0  0  0
   26.2035  -17.8682  -17.9407 C   0  0  0  0  0  0  0  0  0  0  0  0
   25.5081  -17.3951  -16.6706 C   0  0  2  0  0  0  0  0  0  0  0  0
   26.2756  -17.7051  -15.5476 N   0  0  0  0  0  0  0  0  0  0  0  0
   24.1337  -17.9199  -16.5466 C   0  0  0  0  0  0  0  0  0  0  0  0
   23.2451  -17.5773  -17.3525 O   0  0  0  0  0  0  0  0  0  0  0  0
   29.0718  -19.4948  -21.9936 N   0  0  0  0  0  0  0  0  0  0  0  0
   23.8229  -18.8199  -15.5022 C   0  0  1  0  0  0  0  0  0  0  0  0
   22.4961  -19.3477  -15.2522 C   0  0  0  0  0  0  0  0  0  0  0  0
   22.5837  -20.6812  -14.6081 C   0  0  0  0  0  0  0  0  0  0  0  0
   21.2917  -21.3306  -14.3169 C   0  0  0  0  0  0  0  0  0  0  0  0
   20.8203  -22.3990  -15.0359 N   0  0  0  0  0  0  0  0  0  0  0  0
   19.6371  -22.7467  -14.5211 C   0  0  0  0  0  0  0  0  0  0  0  0
   19.3846  -21.9093  -13.5050 N   0  0  0  0  0  0  0  0  0  0  0  0
   20.3939  -21.0412  -13.3762 C   0  0  0  0  0  0  0  0  0  0  0  0
   21.6437  -18.3661  -14.5353 O   0  0  0  0  0  0  0  0  0  0  0  0
   22.1839  -17.4676  -13.8445 C   0  0  0  0  0  0  0  0  0  0  0  0
   17.5973  -12.5992  -14.5984 S   0  0  0  0  0  0  0  0  0  0  0  0
   18.5311  -14.0549  -14.1764 C   0  0  0  0  0  0  0  0  0  0  0  0
   19.3939  -14.8148  -15.5359 C   0  0  0  0  0  0  0  0  0  0  0  0
   20.1796  -16.0330  -15.2318 C   0  0  1  0  0  0  0  0  0  0  0  0
   19.3846  -17.2448  -14.8579 N   0  0  0  0  0  0  0  0  0  0  0  0
   20.2191  -18.4022  -14.5992 C   0  0  0  0  0  0  0  0  0  0  0  0
   18.3710  -17.6516  -15.8566 O   0  0  0  0  0  0  0  0  0  0  0  0
   16.9995  -17.5731  -15.6621 O   0  0  0  0  0  0  0  0  0  0  0  0
  2  4  1  0
  2  1  1  0
  3  2  2  0
  5  4  1  0
  6  5  1  0
  7  6  1  0
  8  7  1  0
  8  9  1  1
 10  8  1  0
 10 11  2  0
 12 10  1  0
 13 12  1  0
 13 14  1  6
 15 16  2  0
 15 14  1  0
 17 16  1  0
 18 19  2  0
 18 17  1  0
 19 15  1  0
 20 13  1  0
 21 20  2  0
 23 22  1  0
 23 24  1  0
 24 25  1  0
 26 25  1  1
 26 27  1  0
 27 20  1  0
 28 26  1  0
 28 29  1  0
 30 28  2  0
M  END
$$$$
