RHM.pdb
     RDKit          3D

 30 30  0  0  1  0  0  0  0  0999 V2000
   31.2375  -20.3961  -19.8197 N   0  0  0  0  0  0  0  0  0  0  0  0
   30.1047  -21.0695  -19.2840 C   0  0  0  0  0  0  0  0  0  0  0  0
   30.1733  -22.3563  -19.1722 N   0  0  0  0  0  0  0  0  0  0  0  0
   28.9345  -20.3669  -18.8849 N   0  0  0  0  0  0  0  0  0  0  0  0
   28.8020  -18.9766  -19.1555 C   0  0  0  0  0  0  0  0  0  0  0  0
   29.1829  -18.0514  -18.0526 C   0  0  0  0  0  0  0  0  0  0  0  0
   28.4315  -18.2449  -16.7725 C   0  0  0  0  0  0  0  0  0  0  0  0
   27.0260  -17.6831  -16.9446 C   0  0  2  0  0  0  0  0  0  0  0  0
   27.0779  -16.3535  -17.3636 N   0  0  0  0  0  0  0  0  0  0  0  0
   26.2014  -17.8342  -15.7292 C   0  0  0  0  0  0  0  0  0  0  0  0
   26.3292  -17.0469  -14.7699 O   0  0  0  0  0  0  0  0  0  0  0  0
   29.3969  -22.9556  -18.8233 N   0  0  0  0  0  0  0  0  0  0  0  0
   25.2577  -18.8834  -15.6533 C   0  0  2  0  0  0  0  0  0  0  0  0
   24.4913  -19.2027  -14.4649 C   0  0  0  0  0  0  0  0  0  0  0  0
   23.1608  -19.7425  -14.8380 C   0  0  0  0  0  0  0  0  0  0  0  0
   22.2839  -20.1040  -13.7084 C   0  0  0  0  0  0  0  0  0  0  0  0
   22.0222  -21.4042  -13.3595 N   0  0  0  0  0  0  0  0  0  0  0  0
   21.2025  -21.3859  -12.3042 C   0  0  0  0  0  0  0  0  0  0  0  0
   20.9641  -20.1002  -12.0085 N   0  0  0  0  0  0  0  0  0  0  0  0
   21.6234  -19.3121  -12.8648 C   0  0  0  0  0  0  0  0  0  0  0  0
   25.2663  -20.0535  -13.5271 O   0  0  0  0  0  0  0  0  0  0  0  0
   25.9885  -20.9744  -13.9819 C   0  0  0  0  0  0  0  0  0  0  0  0
   26.2608  -18.2911   -7.0715 S   0  0  0  0  0  0  0  0  0  0  0  0
   26.9422  -19.9326   -7.1721 C   0  0  0  0  0  0  0  0  0  0  0  0
   26.8574  -20.6841   -8.7840 C   0  0  0  0  0  0  0  0  0  0  0  0
   26.0945  -19.9541   -9.8226 C   0  0  1  0  0  0  0  0  0  0  0  0
   26.0345  -20.6080  -11.1676 N   0  0  0  0  0  0  0  0  0  0  0  0
   25.2238  -19.8660  -12.1137 C   0  0  0  0  0  0  0  0  0  0  0  0
   25.5297  -21.9992  -11.1566 O   0  0  0  0  0  0  0  0  0  0  0  0
   26.3270  -23.1240  -11.0015 O   0  0  0  0  0  0  0  0  0  0  0  0
  2  4  1  0
  2  1  1  0
  3  2  2  0
  5  4  1  0
  6  5  1  0
  7  6  1  0
  8  7  1  0
  8  9  1  1
 10  8  1  0
 10 11  2  0
 12 10  1  0
 13 12  1  0
 13 14  1  6
 15 16  2  0
 15 14  1  0
 17 16  1  0
 18 19  2  0
 18 17  1  0
 19 15  1  0
 20 13  1  0
 21 20  2  0
 23 22  1  0
 23 24  1  0
 24 25  1  0
 26 25  1  6
 26 27  1  0
 27 20  1  0
 28 26  1  0
 28 29  1  0
 30 28  2  0
M  END
$$$$
