RHM.pdb
     RDKit          3D

 30 30  0  0  1  0  0  0  0  0999 V2000
   26.2522  -24.9023  -17.6128 N   0  0  0  0  0  0  0  0  0  0  0  0
   25.6995  -26.0547  -16.9881 C   0  0  0  0  0  0  0  0  0  0  0  0
   26.4586  -27.0963  -16.8795 N   0  0  0  0  0  0  0  0  0  0  0  0
   24.3642  -26.0747  -16.4994 N   0  0  0  0  0  0  0  0  0  0  0  0
   23.8784  -25.0118  -15.6884 C   0  0  0  0  0  0  0  0  0  0  0  0
   24.6582  -24.7146  -14.4551 C   0  0  0  0  0  0  0  0  0  0  0  0
   24.0865  -23.6388  -13.5853 C   0  0  0  0  0  0  0  0  0  0  0  0
   23.0562  -22.8584  -14.3915 C   0  0  2  0  0  0  0  0  0  0  0  0
   23.6340  -21.7193  -14.9526 N   0  0  0  0  0  0  0  0  0  0  0  0
   21.8547  -22.5213  -13.6025 C   0  0  0  0  0  0  0  0  0  0  0  0
   21.8417  -21.5220  -12.8557 O   0  0  0  0  0  0  0  0  0  0  0  0
   26.1471  -28.0092  -16.4880 N   0  0  0  0  0  0  0  0  0  0  0  0
   20.7074  -23.3414  -13.6951 C   0  0  2  0  0  0  0  0  0  0  0  0
   19.4944  -23.1313  -12.9295 C   0  0  0  0  0  0  0  0  0  0  0  0
   18.3682  -22.7852  -13.8309 C   0  0  0  0  0  0  0  0  0  0  0  0
   18.2992  -21.3711  -14.2449 C   0  0  0  0  0  0  0  0  0  0  0  0
   19.1599  -20.4161  -13.7676 N   0  0  0  0  0  0  0  0  0  0  0  0
   18.8329  -19.2519  -14.3364 C   0  0  0  0  0  0  0  0  0  0  0  0
   17.7916  -19.4849  -15.1481 N   0  0  0  0  0  0  0  0  0  0  0  0
   17.4615  -20.7799  -15.0955 C   0  0  0  0  0  0  0  0  0  0  0  0
   19.2270  -24.2640  -12.0078 O   0  0  0  0  0  0  0  0  0  0  0  0
   19.3625  -25.4417  -12.4212 C   0  0  0  0  0  0  0  0  0  0  0  0
   17.5918  -26.4887   -4.4575 S   0  0  0  0  0  0  0  0  0  0  0  0
   17.9778  -25.1925   -5.6150 C   0  0  0  0  0  0  0  0  0  0  0  0
   17.9820  -25.6883   -7.3250 C   0  0  0  0  0  0  0  0  0  0  0  0
   18.3778  -24.6626   -8.3175 C   0  0  1  0  0  0  0  0  0  0  0  0
   18.5238  -25.1424   -9.7277 N   0  0  0  0  0  0  0  0  0  0  0  0
   18.8172  -24.0674  -10.6557 C   0  0  0  0  0  0  0  0  0  0  0  0
   17.3487  -25.8689  -10.2583 O   0  0  0  0  0  0  0  0  0  0  0  0
   17.2060  -27.2489  -10.2465 O   0  0  0  0  0  0  0  0  0  0  0  0
  2  4  1  0
  2  1  1  0
  3  2  2  0
  5  4  1  0
  6  5  1  0
  7  6  1  0
  8  7  1  0
  8  9  1  1
 10  8  1  0
 10 11  2  0
 12 10  1  0
 13 12  1  0
 13 14  1  6
 15 16  2  0
 15 14  1  0
 17 16  1  0
 18 19  2  0
 18 17  1  0
 19 15  1  0
 20 13  1  0
 21 20  2  0
 23 22  1  0
 23 24  1  0
 24 25  1  0
 26 25  1  1
 26 27  1  0
 27 20  1  0
 28 26  1  0
 28 29  1  0
 30 28  2  0
M  END
$$$$
