RHM.pdb
     RDKit          3D

 30 30  0  0  1  0  0  0  0  0999 V2000
   15.1854  -26.5670   -1.9290 N   0  0  0  0  0  0  0  0  0  0  0  0
   14.9581  -25.9097   -3.1700 C   0  0  0  0  0  0  0  0  0  0  0  0
   14.6636  -26.6475   -4.1907 N   0  0  0  0  0  0  0  0  0  0  0  0
   15.0504  -24.4964   -3.2976 N   0  0  0  0  0  0  0  0  0  0  0  0
   15.0952  -23.6705   -2.1401 C   0  0  0  0  0  0  0  0  0  0  0  0
   14.3752  -22.3701   -2.2302 C   0  0  0  0  0  0  0  0  0  0  0  0
   14.5810  -21.4477   -1.0694 C   0  0  0  0  0  0  0  0  0  0  0  0
   13.4118  -21.6102   -0.1066 C   0  0  2  0  0  0  0  0  0  0  0  0
   12.2084  -21.3000   -0.7407 N   0  0  0  0  0  0  0  0  0  0  0  0
   13.5851  -20.8288    1.1341 C   0  0  0  0  0  0  0  0  0  0  0  0
   13.3152  -19.6111    1.1638 O   0  0  0  0  0  0  0  0  0  0  0  0
   14.4612  -26.2765   -5.1421 N   0  0  0  0  0  0  0  0  0  0  0  0
   14.0627  -21.4690    2.2999 C   0  0  2  0  0  0  0  0  0  0  0  0
   14.2831  -20.7955    3.5646 C   0  0  0  0  0  0  0  0  0  0  0  0
   14.1678  -21.7568    4.6886 C   0  0  0  0  0  0  0  0  0  0  0  0
   14.2448  -21.1663    6.0381 C   0  0  0  0  0  0  0  0  0  0  0  0
   14.4833  -19.8328    6.2513 N   0  0  0  0  0  0  0  0  0  0  0  0
   14.4890  -19.6257    7.5715 C   0  0  0  0  0  0  0  0  0  0  0  0
   14.2585  -20.8081    8.1601 N   0  0  0  0  0  0  0  0  0  0  0  0
   14.1085  -21.7536    7.2261 C   0  0  0  0  0  0  0  0  0  0  0  0
   15.5389  -20.0038    3.5504 O   0  0  0  0  0  0  0  0  0  0  0  0
   16.5739  -20.4969    3.0386 C   0  0  0  0  0  0  0  0  0  0  0  0
   19.2759  -13.0569    3.2808 S   0  0  0  0  0  0  0  0  0  0  0  0
   17.7911  -14.0297    3.1474 C   0  0  0  0  0  0  0  0  0  0  0  0
   17.9074  -15.6748    3.8184 C   0  0  0  0  0  0  0  0  0  0  0  0
   16.7392  -16.5628    3.6175 C   0  0  1  0  0  0  0  0  0  0  0  0
   16.8480  -17.9292    4.2188 N   0  0  0  0  0  0  0  0  0  0  0  0
   15.6195  -18.6905    4.1012 C   0  0  0  0  0  0  0  0  0  0  0  0
   17.2381  -17.9471    5.6463 O   0  0  0  0  0  0  0  0  0  0  0  0
   16.3430  -17.9764    6.7059 O   0  0  0  0  0  0  0  0  0  0  0  0
  2  4  1  0
  2  1  1  0
  3  2  2  0
  5  4  1  0
  6  5  1  0
  7  6  1  0
  8  7  1  0
  8  9  1  6
 10  8  1  0
 10 11  2  0
 12 10  1  0
 13 12  1  0
 13 14  1  1
 15 16  2  0
 15 14  1  0
 17 16  1  0
 18 19  2  0
 18 17  1  0
 19 15  1  0
 20 13  1  0
 21 20  2  0
 23 22  1  0
 23 24  1  0
 24 25  1  0
 26 25  1  6
 26 27  1  0
 27 20  1  0
 28 26  1  0
 28 29  1  0
 30 28  2  0
M  END
$$$$
