RHM.pdb
     RDKit          3D

 30 30  0  0  1  0  0  0  0  0999 V2000
   14.4782  -15.7939  -13.6985 N   0  0  0  0  0  0  0  0  0  0  0  0
   14.6323  -16.3681  -14.9909 C   0  0  0  0  0  0  0  0  0  0  0  0
   13.5635  -16.5390  -15.6990 N   0  0  0  0  0  0  0  0  0  0  0  0
   15.9067  -16.7463  -15.4960 N   0  0  0  0  0  0  0  0  0  0  0  0
   17.0120  -15.8559  -15.4007 C   0  0  0  0  0  0  0  0  0  0  0  0
   17.3287  -15.0654  -16.6223 C   0  0  0  0  0  0  0  0  0  0  0  0
   18.5511  -14.2069  -16.5248 C   0  0  0  0  0  0  0  0  0  0  0  0
   18.1144  -12.7553  -16.3740 C   0  0  2  0  0  0  0  0  0  0  0  0
   17.6758  -12.2463  -17.5967 N   0  0  0  0  0  0  0  0  0  0  0  0
   19.1657  -11.9049  -15.7813 C   0  0  0  0  0  0  0  0  0  0  0  0
   19.6642  -12.1864  -14.6728 O   0  0  0  0  0  0  0  0  0  0  0  0
   13.5601  -16.8967  -16.6766 N   0  0  0  0  0  0  0  0  0  0  0  0
   19.6107  -10.7590  -16.4786 C   0  0  1  0  0  0  0  0  0  0  0  0
   20.5858   -9.8199  -15.9602 C   0  0  0  0  0  0  0  0  0  0  0  0
   21.6583   -9.5855  -16.9581 C   0  0  0  0  0  0  0  0  0  0  0  0
   22.6017  -10.7032  -17.1491 C   0  0  0  0  0  0  0  0  0  0  0  0
   23.4302  -11.1525  -16.1528 N   0  0  0  0  0  0  0  0  0  0  0  0
   24.1487  -12.1656  -16.6461 C   0  0  0  0  0  0  0  0  0  0  0  0
   23.7704  -12.3372  -17.9209 N   0  0  0  0  0  0  0  0  0  0  0  0
   22.8243  -11.4449  -18.2332 C   0  0  0  0  0  0  0  0  0  0  0  0
   19.9375   -8.5882  -15.4439 O   0  0  0  0  0  0  0  0  0  0  0  0
   19.0748   -8.0043  -16.1447 C   0  0  0  0  0  0  0  0  0  0  0  0
   17.3644   -4.7126   -9.0305 S   0  0  0  0  0  0  0  0  0  0  0  0
   18.2064   -6.0998   -9.7624 C   0  0  0  0  0  0  0  0  0  0  0  0
   18.6038   -5.9128  -11.4879 C   0  0  0  0  0  0  0  0  0  0  0  0
   19.2411   -7.0707  -12.1563 C   0  0  1  0  0  0  0  0  0  0  0  0
   19.6022   -6.8748  -13.5956 N   0  0  0  0  0  0  0  0  0  0  0  0
   20.2583   -8.0336  -14.1695 C   0  0  0  0  0  0  0  0  0  0  0  0
   20.4696   -5.7054  -13.8616 O   0  0  0  0  0  0  0  0  0  0  0  0
   21.8547   -5.7196  -13.7837 O   0  0  0  0  0  0  0  0  0  0  0  0
  2  4  1  0
  2  1  1  0
  3  2  2  0
  5  4  1  0
  6  5  1  0
  7  6  1  0
  8  7  1  0
  8  9  1  6
 10  8  1  0
 10 11  2  0
 12 10  1  0
 13 12  1  0
 13 14  1  1
 15 16  2  0
 15 14  1  0
 17 16  1  0
 18 19  2  0
 18 17  1  0
 19 15  1  0
 20 13  1  0
 21 20  2  0
 23 22  1  0
 23 24  1  0
 24 25  1  0
 26 25  1  6
 26 27  1  0
 27 20  1  0
 28 26  1  0
 28 29  1  0
 30 28  2  0
M  END
$$$$
