RHM.pdb
     RDKit          3D

 30 30  0  0  1  0  0  0  0  0999 V2000
   19.6932  -26.3389  -13.5336 N   0  0  0  0  0  0  0  0  0  0  0  0
   18.3356  -25.9554  -13.3511 C   0  0  0  0  0  0  0  0  0  0  0  0
   17.5058  -26.8665  -12.9583 N   0  0  0  0  0  0  0  0  0  0  0  0
   17.8939  -24.6249  -13.5901 N   0  0  0  0  0  0  0  0  0  0  0  0
   18.8311  -23.5994  -13.8964 C   0  0  0  0  0  0  0  0  0  0  0  0
   19.3444  -22.8098  -12.7429 C   0  0  0  0  0  0  0  0  0  0  0  0
   20.2881  -21.7039  -13.0992 C   0  0  0  0  0  0  0  0  0  0  0  0
   20.7345  -21.0140  -11.8165 C   0  0  2  0  0  0  0  0  0  0  0  0
   19.7532  -20.1288  -11.3694 N   0  0  0  0  0  0  0  0  0  0  0  0
   22.0423  -20.3435  -11.9579 C   0  0  0  0  0  0  0  0  0  0  0  0
   22.1102  -19.1377  -12.2706 O   0  0  0  0  0  0  0  0  0  0  0  0
   16.4939  -26.6991  -12.7805 N   0  0  0  0  0  0  0  0  0  0  0  0
   23.2294  -21.0778  -11.7368 C   0  0  2  0  0  0  0  0  0  0  0  0
   24.5504  -20.6226  -12.1234 C   0  0  0  0  0  0  0  0  0  0  0  0
   25.5899  -21.3146  -11.3225 C   0  0  0  0  0  0  0  0  0  0  0  0
   26.9838  -20.9677  -11.6579 C   0  0  0  0  0  0  0  0  0  0  0  0
   27.5297  -19.7406  -11.3802 N   0  0  0  0  0  0  0  0  0  0  0  0
   28.7965  -19.7524  -11.8055 C   0  0  0  0  0  0  0  0  0  0  0  0
   29.0267  -20.9626  -12.3345 N   0  0  0  0  0  0  0  0  0  0  0  0
   27.9207  -21.7096  -12.2466 C   0  0  0  0  0  0  0  0  0  0  0  0
   24.7458  -20.6979  -13.5931 O   0  0  0  0  0  0  0  0  0  0  0  0
   23.9520  -21.3790  -14.2875 C   0  0  0  0  0  0  0  0  0  0  0  0
   23.2445  -15.8330  -18.9117 S   0  0  0  0  0  0  0  0  0  0  0  0
   23.5310  -16.3768  -17.2410 C   0  0  0  0  0  0  0  0  0  0  0  0
   24.6018  -17.7906  -17.0838 C   0  0  0  0  0  0  0  0  0  0  0  0
   24.7747  -18.3501  -15.7234 C   0  0  2  0  0  0  0  0  0  0  0  0
   25.7294  -19.4970  -15.6069 N   0  0  0  0  0  0  0  0  0  0  0  0
   25.8113  -20.0205  -14.2571 C   0  0  0  0  0  0  0  0  0  0  0  0
   27.1114  -19.1977  -16.0439 O   0  0  0  0  0  0  0  0  0  0  0  0
   27.5615  -19.2975  -17.3525 O   0  0  0  0  0  0  0  0  0  0  0  0
  2  4  1  0
  2  1  1  0
  3  2  2  0
  5  4  1  0
  6  5  1  0
  7  6  1  0
  8  7  1  0
  8  9  1  6
 10  8  1  0
 10 11  2  0
 12 10  1  0
 13 12  1  0
 13 14  1  1
 15 16  2  0
 15 14  1  0
 17 16  1  0
 18 19  2  0
 18 17  1  0
 19 15  1  0
 20 13  1  0
 21 20  2  0
 23 22  1  0
 23 24  1  0
 24 25  1  0
 26 25  1  6
 26 27  1  0
 27 20  1  0
 28 26  1  0
 28 29  1  0
 30 28  2  0
M  END
$$$$
