RHM.pdb
     RDKit          3D

 30 30  0  0  1  0  0  0  0  0999 V2000
   25.9681  -19.9618  -17.6654 N   0  0  0  0  0  0  0  0  0  0  0  0
   26.5729  -18.9304  -16.8945 C   0  0  0  0  0  0  0  0  0  0  0  0
   26.1759  -17.7175  -17.1048 N   0  0  0  0  0  0  0  0  0  0  0  0
   27.5784  -19.2086  -15.9281 N   0  0  0  0  0  0  0  0  0  0  0  0
   27.9784  -20.5493  -15.6708 C   0  0  0  0  0  0  0  0  0  0  0  0
   27.6029  -21.1053  -14.3413 C   0  0  0  0  0  0  0  0  0  0  0  0
   27.5564  -20.1086  -13.2255 C   0  0  0  0  0  0  0  0  0  0  0  0
   26.3863  -20.4546  -12.3135 C   0  0  2  0  0  0  0  0  0  0  0  0
   26.2715  -21.8373  -12.1675 N   0  0  0  0  0  0  0  0  0  0  0  0
   25.1165  -19.8524  -12.7658 C   0  0  0  0  0  0  0  0  0  0  0  0
   25.0736  -18.6649  -13.1462 O   0  0  0  0  0  0  0  0  0  0  0  0
   26.6294  -16.8742  -16.6963 N   0  0  0  0  0  0  0  0  0  0  0  0
   23.9372  -20.6312  -12.7668 C   0  0  1  0  0  0  0  0  0  0  0  0
   22.6698  -20.1861  -13.3120 C   0  0  0  0  0  0  0  0  0  0  0  0
   22.8564  -19.6542  -14.6843 C   0  0  0  0  0  0  0  0  0  0  0  0
   21.6398  -19.1267  -15.3305 C   0  0  0  0  0  0  0  0  0  0  0  0
   20.4202  -19.0988  -14.7039 N   0  0  0  0  0  0  0  0  0  0  0  0
   19.5377  -18.5645  -15.5534 C   0  0  0  0  0  0  0  0  0  0  0  0
   20.2004  -18.2688  -16.6807 N   0  0  0  0  0  0  0  0  0  0  0  0
   21.4867  -18.6110  -16.5492 C   0  0  0  0  0  0  0  0  0  0  0  0
   21.6239  -21.2324  -13.1880 O   0  0  0  0  0  0  0  0  0  0  0  0
   21.7386  -22.3001  -13.8385 C   0  0  0  0  0  0  0  0  0  0  0  0
   18.6926  -25.4617   -7.7573 S   0  0  0  0  0  0  0  0  0  0  0  0
   18.5621  -23.8111   -8.4110 C   0  0  0  0  0  0  0  0  0  0  0  0
   19.0941  -23.6273  -10.1001 C   0  0  0  0  0  0  0  0  0  0  0  0
   19.1935  -22.2451  -10.6230 C   0  0  2  0  0  0  0  0  0  0  0  0
   19.5153  -22.1208  -12.0795 N   0  0  0  0  0  0  0  0  0  0  0  0
   20.4802  -21.0729  -12.3507 C   0  0  0  0  0  0  0  0  0  0  0  0
   18.3457  -21.8741  -12.9521 O   0  0  0  0  0  0  0  0  0  0  0  0
   17.4840  -22.8604  -13.4100 O   0  0  0  0  0  0  0  0  0  0  0  0
  2  4  1  0
  2  1  1  0
  3  2  2  0
  5  4  1  0
  6  5  1  0
  7  6  1  0
  8  7  1  0
  8  9  1  6
 10  8  1  0
 10 11  2  0
 12 10  1  0
 13 12  1  0
 13 14  1  1
 15 16  2  0
 15 14  1  0
 17 16  1  0
 18 19  2  0
 18 17  1  0
 19 15  1  0
 20 13  1  0
 21 20  2  0
 23 22  1  0
 23 24  1  0
 24 25  1  0
 26 25  1  1
 26 27  1  0
 27 20  1  0
 28 26  1  0
 28 29  1  0
 30 28  2  0
M  END
$$$$
