RHM.pdb
     RDKit          3D

 30 30  0  0  1  0  0  0  0  0999 V2000
   23.5153  -16.7076  -17.0248 N   0  0  0  0  0  0  0  0  0  0  0  0
   23.4808  -17.7935  -17.9432 C   0  0  0  0  0  0  0  0  0  0  0  0
   22.4018  -17.9528  -18.6384 N   0  0  0  0  0  0  0  0  0  0  0  0
   24.5827  -18.6788  -18.0989 N   0  0  0  0  0  0  0  0  0  0  0  0
   25.7230  -18.5642  -17.2561 C   0  0  0  0  0  0  0  0  0  0  0  0
   25.9931  -19.7167  -16.3526 C   0  0  0  0  0  0  0  0  0  0  0  0
   27.2005  -19.5709  -15.4798 C   0  0  0  0  0  0  0  0  0  0  0  0
   27.4354  -20.8880  -14.7516 C   0  0  2  0  0  0  0  0  0  0  0  0
   27.6452  -21.9218  -15.6646 N   0  0  0  0  0  0  0  0  0  0  0  0
   26.3501  -21.2153  -13.8057 C   0  0  0  0  0  0  0  0  0  0  0  0
   25.5473  -22.1384  -14.0507 O   0  0  0  0  0  0  0  0  0  0  0  0
   22.2956  -18.6521  -19.4022 N   0  0  0  0  0  0  0  0  0  0  0  0
   26.2202  -20.4731  -12.6101 C   0  0  2  0  0  0  0  0  0  0  0  0
   25.1494  -20.6586  -11.6506 C   0  0  0  0  0  0  0  0  0  0  0  0
   25.5997  -20.2677  -10.2922 C   0  0  0  0  0  0  0  0  0  0  0  0
   27.0227  -20.5219   -9.9985 C   0  0  0  0  0  0  0  0  0  0  0  0
   27.8832  -21.0675  -10.9164 N   0  0  0  0  0  0  0  0  0  0  0  0
   29.0856  -21.1633  -10.3413 C   0  0  0  0  0  0  0  0  0  0  0  0
   28.9685  -20.6861   -9.0939 N   0  0  0  0  0  0  0  0  0  0  0  0
   27.7083  -20.2925   -8.8795 C   0  0  0  0  0  0  0  0  0  0  0  0
   23.8936  -20.0070  -12.1004 O   0  0  0  0  0  0  0  0  0  0  0  0
   23.9436  -19.1082  -12.9757 C   0  0  0  0  0  0  0  0  0  0  0  0
   18.8459  -22.0747  -16.9188 S   0  0  0  0  0  0  0  0  0  0  0  0
   20.2523  -22.2512  -15.8419 C   0  0  0  0  0  0  0  0  0  0  0  0
   20.2107  -21.2374  -14.3788 C   0  0  0  0  0  0  0  0  0  0  0  0
   21.4411  -21.2018  -13.5550 C   0  0  1  0  0  0  0  0  0  0  0  0
   21.3835  -20.3375  -12.3344 N   0  0  0  0  0  0  0  0  0  0  0  0
   22.6172  -20.3637  -11.5729 C   0  0  0  0  0  0  0  0  0  0  0  0
   20.2849  -20.6631  -11.3977 O   0  0  0  0  0  0  0  0  0  0  0  0
   19.0325  -20.0663  -11.4164 O   0  0  0  0  0  0  0  0  0  0  0  0
  2  4  1  0
  2  1  1  0
  3  2  2  0
  5  4  1  0
  6  5  1  0
  7  6  1  0
  8  7  1  0
  8  9  1  6
 10  8  1  0
 10 11  2  0
 12 10  1  0
 13 12  1  0
 13 14  1  6
 15 16  2  0
 15 14  1  0
 17 16  1  0
 18 19  2  0
 18 17  1  0
 19 15  1  0
 20 13  1  0
 21 20  2  0
 23 22  1  0
 23 24  1  0
 24 25  1  0
 26 25  1  6
 26 27  1  0
 27 20  1  0
 28 26  1  0
 28 29  1  0
 30 28  2  0
M  END
$$$$
