LYF.pdb
     RDKit          3D

 32 33  0  0  1  0  0  0  0  0999 V2000
   29.6881  -18.2795  -16.9405 C   0  0  0  0  0  0  0  0  0  0  0  0
   28.2521  -17.8172  -17.1219 C   0  0  2  0  0  0  0  0  0  0  0  0
   28.1669  -16.5089  -17.8279 C   0  0  0  0  0  0  0  0  0  0  0  0
   27.6138  -17.7456  -15.7750 C   0  0  0  0  0  0  0  0  0  0  0  0
   27.9638  -18.9500  -14.9594 C   0  0  2  0  0  0  0  0  0  0  0  0
   27.9395  -20.1952  -15.6615 N   0  0  0  0  0  0  0  0  0  0  0  0
   27.2720  -19.0041  -13.6657 C   0  0  0  0  0  0  0  0  0  0  0  0
   27.0947  -17.9934  -12.9300 O   0  0  0  0  0  0  0  0  0  0  0  0
   19.6697  -20.7278  -10.2787 O   0  0  0  0  0  0  0  0  0  0  0  0
   20.9568  -20.9212  -10.7915 C   0  0  0  0  0  0  0  0  0  0  0  0
   22.0074  -21.2619   -9.9865 C   0  0  0  0  0  0  0  0  0  0  0  0
   23.2748  -21.4473  -10.5268 C   0  0  0  0  0  0  0  0  0  0  0  0
   23.5477  -21.3054  -11.8695 C   0  0  0  0  0  0  0  0  0  0  0  0
   24.9018  -21.4884  -12.4509 C   0  0  0  0  0  0  0  0  0  0  0  0
   25.7542  -20.2362  -12.1161 C   0  0  2  0  0  0  0  0  0  0  0  0
   26.7625  -20.2408  -13.1811 N   0  0  0  0  0  0  0  0  0  0  0  0
   26.3660  -20.5475  -10.8108 C   0  0  0  0  0  0  0  0  0  0  0  0
   27.1221  -21.5507  -10.7652 O   0  0  0  0  0  0  0  0  0  0  0  0
   22.4595  -20.9569  -12.6850 C   0  0  0  0  0  0  0  0  0  0  0  0
   21.2017  -20.7717  -12.1485 C   0  0  0  0  0  0  0  0  0  0  0  0
   26.1615  -19.7904   -9.6239 N   0  0  0  0  0  0  0  0  0  0  0  0
   26.6632  -20.2205   -8.3312 C   0  0  1  0  0  0  0  0  0  0  0  0
   27.5404  -19.1188   -7.7836 C   0  0  0  0  0  0  0  0  0  0  0  0
   28.0012  -19.5025   -6.4375 C   0  0  0  0  0  0  0  0  0  0  0  0
   29.0353  -20.4123   -6.3291 C   0  0  0  0  0  0  0  0  0  0  0  0
   29.4981  -20.7852   -5.0947 C   0  0  0  0  0  0  0  0  0  0  0  0
   28.8896  -20.2156   -3.9806 C   0  0  0  0  0  0  0  0  0  0  0  0
   27.8685  -19.3177   -4.0761 C   0  0  0  0  0  0  0  0  0  0  0  0
   27.4097  -18.9481   -5.3345 C   0  0  0  0  0  0  0  0  0  0  0  0
   25.6698  -20.7717   -7.4348 C   0  0  0  0  0  0  0  0  0  0  0  0
   24.4910  -20.3549   -7.3279 O   0  0  0  0  0  0  0  0  0  0  0  0
   25.9772  -21.8548   -6.5890 O   0  0  0  0  0  0  0  0  0  0  0  0
  2  1  1  1
  2  3  1  0
  4  2  1  0
  5  4  1  0
  5  6  1  6
  7  8  2  0
  7  5  1  0
  9 10  1  0
 10 20  2  0
 11 12  2  0
 11 10  1  0
 12 13  1  0
 13 19  2  0
 13 14  1  0
 15 14  1  6
 15 16  1  0
 16  7  1  0
 17 15  1  0
 18 17  2  0
 20 19  1  0
 21 17  1  0
 22 21  1  0
 22 23  1  1
 23 24  1  0
 24 29  2  0
 25 26  2  0
 25 24  1  0
 26 27  1  0
 27 28  2  0
 29 28  1  0
 30 32  1  0
 30 22  1  0
 31 30  2  0
M  END
$$$$
