LYF.pdb
     RDKit          3D

 32 33  0  0  1  0  0  0  0  0999 V2000
   27.1648  -23.2246  -19.0187 C   0  0  0  0  0  0  0  0  0  0  0  0
   26.5011  -23.3744  -17.6600 C   0  0  2  0  0  0  0  0  0  0  0  0
   25.7998  -24.6802  -17.5172 C   0  0  0  0  0  0  0  0  0  0  0  0
   25.5581  -22.2328  -17.4756 C   0  0  0  0  0  0  0  0  0  0  0  0
   24.9572  -22.2594  -16.1057 C   0  0  2  0  0  0  0  0  0  0  0  0
   23.5316  -22.3602  -16.0625 N   0  0  0  0  0  0  0  0  0  0  0  0
   25.4892  -21.2242  -15.2111 C   0  0  0  0  0  0  0  0  0  0  0  0
   25.9786  -20.1353  -15.6222 O   0  0  0  0  0  0  0  0  0  0  0  0
   19.9698  -22.0374  -11.1255 O   0  0  0  0  0  0  0  0  0  0  0  0
   21.1216  -21.3793  -11.5694 C   0  0  0  0  0  0  0  0  0  0  0  0
   21.9961  -20.7939  -10.6972 C   0  0  0  0  0  0  0  0  0  0  0  0
   23.1323  -20.1475  -11.1700 C   0  0  0  0  0  0  0  0  0  0  0  0
   23.4440  -20.0576  -12.5087 C   0  0  0  0  0  0  0  0  0  0  0  0
   24.6487  -19.3566  -13.0210 C   0  0  0  0  0  0  0  0  0  0  0  0
   25.8602  -20.3200  -12.9159 C   0  0  2  0  0  0  0  0  0  0  0  0
   25.4713  -21.4218  -13.8024 N   0  0  0  0  0  0  0  0  0  0  0  0
   25.8622  -20.7541  -11.5065 C   0  0  0  0  0  0  0  0  0  0  0  0
   25.3564  -21.8781  -11.2600 O   0  0  0  0  0  0  0  0  0  0  0  0
   22.5384  -20.6644  -13.3932 C   0  0  0  0  0  0  0  0  0  0  0  0
   21.4099  -21.3050  -12.9241 C   0  0  0  0  0  0  0  0  0  0  0  0
   26.3989  -19.9944  -10.4301 N   0  0  0  0  0  0  0  0  0  0  0  0
   26.7758  -20.5978   -9.1645 C   0  0  1  0  0  0  0  0  0  0  0  0
   28.1860  -20.1608   -8.8435 C   0  0  0  0  0  0  0  0  0  0  0  0
   28.3900  -20.2451   -7.3865 C   0  0  0  0  0  0  0  0  0  0  0  0
   27.9428  -19.2034   -6.5967 C   0  0  0  0  0  0  0  0  0  0  0  0
   28.1050  -19.2509   -5.2372 C   0  0  0  0  0  0  0  0  0  0  0  0
   28.7279  -20.3745   -4.7026 C   0  0  0  0  0  0  0  0  0  0  0  0
   29.1732  -21.4074   -5.4724 C   0  0  0  0  0  0  0  0  0  0  0  0
   29.0015  -21.3460   -6.8499 C   0  0  0  0  0  0  0  0  0  0  0  0
   25.7966  -20.4764   -8.1059 C   0  0  0  0  0  0  0  0  0  0  0  0
   25.0321  -19.4941   -7.9460 O   0  0  0  0  0  0  0  0  0  0  0  0
   25.6349  -21.4948   -7.1470 O   0  0  0  0  0  0  0  0  0  0  0  0
  2  1  1  6
  2  3  1  0
  4  2  1  0
  5  4  1  0
  5  6  1  6
  7  8  2  0
  7  5  1  0
  9 10  1  0
 10 20  2  0
 11 12  2  0
 11 10  1  0
 12 13  1  0
 13 19  2  0
 13 14  1  0
 15 14  1  1
 15 16  1  0
 16  7  1  0
 17 15  1  0
 18 17  2  0
 20 19  1  0
 21 17  1  0
 22 21  1  0
 22 23  1  1
 23 24  1  0
 24 29  2  0
 25 26  2  0
 25 24  1  0
 26 27  1  0
 27 28  2  0
 29 28  1  0
 30 32  1  0
 30 22  1  0
 31 30  2  0
M  END
$$$$
