LYF.pdb
     RDKit          3D

 32 33  0  0  1  0  0  0  0  0999 V2000
   30.0258  -18.0234  -17.5404 C   0  0  0  0  0  0  0  0  0  0  0  0
   28.8700  -17.0606  -17.7555 C   0  0  2  0  0  0  0  0  0  0  0  0
   29.3369  -15.6778  -18.0508 C   0  0  0  0  0  0  0  0  0  0  0  0
   28.0083  -17.0903  -16.5377 C   0  0  0  0  0  0  0  0  0  0  0  0
   27.6284  -18.4957  -16.1928 C   0  0  2  0  0  0  0  0  0  0  0  0
   27.1873  -19.2992  -17.2900 N   0  0  0  0  0  0  0  0  0  0  0  0
   26.7551  -18.5960  -15.0171 C   0  0  0  0  0  0  0  0  0  0  0  0
   26.5982  -17.6584  -14.1862 O   0  0  0  0  0  0  0  0  0  0  0  0
   19.9725  -21.4448  -10.1578 O   0  0  0  0  0  0  0  0  0  0  0  0
   20.9474  -21.2639  -11.1445 C   0  0  0  0  0  0  0  0  0  0  0  0
   21.0520  -20.0956  -11.8459 C   0  0  0  0  0  0  0  0  0  0  0  0
   22.0323  -19.9469  -12.8203 C   0  0  0  0  0  0  0  0  0  0  0  0
   22.9372  -20.9370  -13.1336 C   0  0  0  0  0  0  0  0  0  0  0  0
   23.9776  -20.7895  -14.1828 C   0  0  0  0  0  0  0  0  0  0  0  0
   25.0859  -19.8452  -13.6473 C   0  0  2  0  0  0  0  0  0  0  0  0
   26.0329  -19.7957  -14.7661 N   0  0  0  0  0  0  0  0  0  0  0  0
   25.6633  -20.5709  -12.5007 C   0  0  0  0  0  0  0  0  0  0  0  0
   26.2556  -21.6502  -12.7544 O   0  0  0  0  0  0  0  0  0  0  0  0
   22.8196  -22.1309  -12.4047 C   0  0  0  0  0  0  0  0  0  0  0  0
   21.8459  -22.2790  -11.4382 C   0  0  0  0  0  0  0  0  0  0  0  0
   25.5979  -20.1275  -11.1506 N   0  0  0  0  0  0  0  0  0  0  0  0
   26.0565  -20.9437  -10.0409 C   0  0  1  0  0  0  0  0  0  0  0  0
   27.5474  -20.7425   -9.9016 C   0  0  0  0  0  0  0  0  0  0  0  0
   27.8358  -20.2481   -8.5437 C   0  0  0  0  0  0  0  0  0  0  0  0
   27.4119  -18.9787   -8.2004 C   0  0  0  0  0  0  0  0  0  0  0  0
   27.6522  -18.4886   -6.9438 C   0  0  0  0  0  0  0  0  0  0  0  0
   28.3287  -19.3133   -6.0503 C   0  0  0  0  0  0  0  0  0  0  0  0
   28.7517  -20.5668   -6.3786 C   0  0  0  0  0  0  0  0  0  0  0  0
   28.5005  -21.0512   -7.6565 C   0  0  0  0  0  0  0  0  0  0  0  0
   25.2673  -20.8431   -8.8321 C   0  0  0  0  0  0  0  0  0  0  0  0
   25.3796  -21.6006   -7.8379 O   0  0  0  0  0  0  0  0  0  0  0  0
   24.2808  -19.8483   -8.6905 O   0  0  0  0  0  0  0  0  0  0  0  0
  2  1  1  1
  2  3  1  0
  4  2  1  0
  5  4  1  0
  5  6  1  6
  7  8  2  0
  7  5  1  0
  9 10  1  0
 10 20  2  0
 11 12  2  0
 11 10  1  0
 12 13  1  0
 13 19  2  0
 13 14  1  0
 15 14  1  6
 15 16  1  0
 16  7  1  0
 17 15  1  0
 18 17  2  0
 20 19  1  0
 21 17  1  0
 22 21  1  0
 22 23  1  1
 23 24  1  0
 24 29  2  0
 25 26  2  0
 25 24  1  0
 26 27  1  0
 27 28  2  0
 29 28  1  0
 30 32  1  0
 30 22  1  0
 31 30  2  0
M  END
$$$$
