LYF.pdb
     RDKit          3D

 32 33  0  0  1  0  0  0  0  0999 V2000
   29.1805  -19.0703  -16.7605 C   0  0  0  0  0  0  0  0  0  0  0  0
   27.7780  -18.4919  -16.8464 C   0  0  2  0  0  0  0  0  0  0  0  0
   27.7302  -17.2509  -17.6679 C   0  0  0  0  0  0  0  0  0  0  0  0
   27.2946  -18.2382  -15.4577 C   0  0  0  0  0  0  0  0  0  0  0  0
   27.4999  -19.4450  -14.5976 C   0  0  2  0  0  0  0  0  0  0  0  0
   27.3015  -20.7030  -15.2475 N   0  0  0  0  0  0  0  0  0  0  0  0
   26.8302  -19.3577  -13.2941 C   0  0  0  0  0  0  0  0  0  0  0  0
   26.6683  -18.2735  -12.6676 O   0  0  0  0  0  0  0  0  0  0  0  0
   20.2165  -19.9305  -15.0485 O   0  0  0  0  0  0  0  0  0  0  0  0
   21.2527  -20.3310  -14.1983 C   0  0  0  0  0  0  0  0  0  0  0  0
   21.2808  -19.9705  -12.8803 C   0  0  0  0  0  0  0  0  0  0  0  0
   22.3247  -20.3850  -12.0611 C   0  0  0  0  0  0  0  0  0  0  0  0
   23.3682  -21.1644  -12.5094 C   0  0  0  0  0  0  0  0  0  0  0  0
   24.4932  -21.5989  -11.6429 C   0  0  0  0  0  0  0  0  0  0  0  0
   25.4774  -20.4105  -11.4818 C   0  0  2  0  0  0  0  0  0  0  0  0
   26.3257  -20.5333  -12.6719 N   0  0  0  0  0  0  0  0  0  0  0  0
   26.2377  -20.7275  -10.2585 C   0  0  0  0  0  0  0  0  0  0  0  0
   26.9519  -21.7615  -10.2883 O   0  0  0  0  0  0  0  0  0  0  0  0
   23.3260  -21.5287  -13.8644 C   0  0  0  0  0  0  0  0  0  0  0  0
   22.2905  -21.1163  -14.6779 C   0  0  0  0  0  0  0  0  0  0  0  0
   26.2176  -19.9440   -9.0714 N   0  0  0  0  0  0  0  0  0  0  0  0
   26.9576  -20.3185   -7.8798 C   0  0  1  0  0  0  0  0  0  0  0  0
   27.9216  -19.1996   -7.5610 C   0  0  0  0  0  0  0  0  0  0  0  0
   28.4745  -19.4179   -6.2126 C   0  0  0  0  0  0  0  0  0  0  0  0
   29.5324  -20.2945   -6.0677 C   0  0  0  0  0  0  0  0  0  0  0  0
   30.0799  -20.5150   -4.8313 C   0  0  0  0  0  0  0  0  0  0  0  0
   29.5309  -19.8281   -3.7530 C   0  0  0  0  0  0  0  0  0  0  0  0
   28.4870  -18.9616   -3.8845 C   0  0  0  0  0  0  0  0  0  0  0  0
   27.9420  -18.7472   -5.1446 C   0  0  0  0  0  0  0  0  0  0  0  0
   26.1545  -20.8212   -6.7859 C   0  0  0  0  0  0  0  0  0  0  0  0
   26.5931  -21.5071   -5.8310 O   0  0  0  0  0  0  0  0  0  0  0  0
   24.7716  -20.5631   -6.7230 O   0  0  0  0  0  0  0  0  0  0  0  0
  2  1  1  1
  2  3  1  0
  4  2  1  0
  5  4  1  0
  5  6  1  6
  7  8  2  0
  7  5  1  0
  9 10  1  0
 10 20  2  0
 11 12  2  0
 11 10  1  0
 12 13  1  0
 13 19  2  0
 13 14  1  0
 15 14  1  6
 15 16  1  0
 16  7  1  0
 17 15  1  0
 18 17  2  0
 20 19  1  0
 21 17  1  0
 22 21  1  0
 22 23  1  1
 23 24  1  0
 24 29  2  0
 25 26  2  0
 25 24  1  0
 26 27  1  0
 27 28  2  0
 29 28  1  0
 30 32  1  0
 30 22  1  0
 31 30  2  0
M  END
$$$$
