WIT.pdb
     RDKit          3D

 30 31  0  0  1  0  0  0  0  0999 V2000
    6.2069  -18.5623   24.5967 N   0  0  0  0  0  0  0  0  0  0  0  0
    6.4163  -17.1110   24.3610 C   0  0  1  0  0  0  0  0  0  0  0  0
    7.0952  -16.6017   25.5787 C   0  0  0  0  0  0  0  0  0  0  0  0
    6.6807  -15.2975   26.0978 C   0  0  0  0  0  0  0  0  0  0  0  0
    5.3544  -14.9612   26.3730 C   0  0  0  0  0  0  0  0  0  0  0  0
    5.3378  -13.7011   26.7827 N   0  0  0  0  0  0  0  0  0  0  0  0
    6.5666  -13.1749   26.7996 C   0  0  0  0  0  0  0  0  0  0  0  0
    7.0247  -11.9055   27.1699 C   0  0  0  0  0  0  0  0  0  0  0  0
    8.3751  -11.6545   27.1013 C   0  0  0  0  0  0  0  0  0  0  0  0
    9.2339  -12.6422   26.6765 C   0  0  0  0  0  0  0  0  0  0  0  0
    8.7686  -13.8711   26.3198 C   0  0  0  0  0  0  0  0  0  0  0  0
    7.4060  -14.1660   26.3742 C   0  0  0  0  0  0  0  0  0  0  0  0
    7.2045  -16.9241   23.1454 C   0  0  0  0  0  0  0  0  0  0  0  0
    8.0286  -17.7859   22.7629 O   0  0  0  0  0  0  0  0  0  0  0  0
    8.0897  -12.5517   18.8303 C   0  0  0  0  0  0  0  0  0  0  0  0
    8.4413  -13.9546   19.2938 C   0  0  0  0  0  0  0  0  0  0  0  0
    7.6380  -14.2223   20.5508 C   0  0  2  0  0  0  0  0  0  0  0  0
    7.9431  -13.1256   21.5331 C   0  0  0  0  0  0  0  0  0  0  0  0
    7.9008  -15.5817   21.1338 C   0  0  2  0  0  0  0  0  0  0  0  0
    7.1052  -15.7619   22.3069 N   0  0  0  0  0  0  0  0  0  0  0  0
    9.3687  -15.6371   21.4484 C   0  0  0  0  0  0  0  0  0  0  0  0
    9.8793  -14.8119   22.2363 O   0  0  0  0  0  0  0  0  0  0  0  0
   11.5411  -18.4676   22.8857 C   0  0  0  0  0  0  0  0  0  0  0  0
   12.0114  -18.1837   21.4745 C   0  0  1  0  0  0  0  0  0  0  0  0
   11.3623  -19.0920   20.6414 O   0  0  0  0  0  0  0  0  0  0  0  0
   11.6281  -16.7555   21.1594 C   0  0  2  0  0  0  0  0  0  0  0  0
   10.2179  -16.6185   20.8698 N   0  0  0  0  0  0  0  0  0  0  0  0
   12.4059  -16.3435   19.9658 C   0  0  0  0  0  0  0  0  0  0  0  0
   11.7657  -16.1109   18.7308 O   0  0  0  0  0  0  0  0  0  0  0  0
   13.6453  -16.1737   19.9524 O   0  0  0  0  0  0  0  0  0  0  0  0
  2  1  1  1
  2 13  1  0
  3  4  1  0
  3  2  1  0
  4 12  1  0
  5  4  2  0
  5  6  1  0
  6  7  1  0
  7  8  1  0
  8  9  2  0
 10  9  1  0
 11 10  2  0
 12  7  2  0
 12 11  1  0
 13 20  1  0
 13 14  2  0
 16 17  1  0
 16 15  1  0
 17 18  1  1
 19 17  1  0
 19 21  1  0
 19 20  1  1
 21 22  2  0
 24 23  1  1
 24 26  1  0
 25 24  1  0
 26 28  1  0
 26 27  1  6
 27 21  1  0
 28 29  1  0
 30 28  2  0
M  END
$$$$
