WIT.pdb
     RDKit          3D

 30 31  0  0  1  0  0  0  0  0999 V2000
    5.6256  -19.7403   20.3845 N   0  0  0  0  0  0  0  0  0  0  0  0
    5.4348  -18.3657   20.9133 C   0  0  1  0  0  0  0  0  0  0  0  0
    4.7770  -18.5324   22.2333 C   0  0  0  0  0  0  0  0  0  0  0  0
    3.5136  -19.2698   22.2795 C   0  0  0  0  0  0  0  0  0  0  0  0
    3.1919  -20.1901   23.2782 C   0  0  0  0  0  0  0  0  0  0  0  0
    2.0024  -20.6967   22.9875 N   0  0  0  0  0  0  0  0  0  0  0  0
    1.5091  -20.1738   21.8604 C   0  0  0  0  0  0  0  0  0  0  0  0
    0.3006  -20.3934   21.1899 C   0  0  0  0  0  0  0  0  0  0  0  0
    0.0545  -19.6803   20.0399 C   0  0  0  0  0  0  0  0  0  0  0  0
    0.9878  -18.7798   19.5804 C   0  0  0  0  0  0  0  0  0  0  0  0
    2.1584  -18.5805   20.2468 C   0  0  0  0  0  0  0  0  0  0  0  0
    2.4469  -19.2843   21.4165 C   0  0  0  0  0  0  0  0  0  0  0  0
    6.7287  -17.6932   20.9991 C   0  0  0  0  0  0  0  0  0  0  0  0
    7.8003  -18.3405   21.0252 O   0  0  0  0  0  0  0  0  0  0  0  0
    6.9896  -12.2065   19.8891 C   0  0  0  0  0  0  0  0  0  0  0  0
    7.2531  -13.6968   19.7621 C   0  0  0  0  0  0  0  0  0  0  0  0
    7.9660  -14.1320   21.0266 C   0  0  2  0  0  0  0  0  0  0  0  0
    9.2790  -13.4018   21.0882 C   0  0  0  0  0  0  0  0  0  0  0  0
    8.1518  -15.6205   21.1100 C   0  0  2  0  0  0  0  0  0  0  0  0
    6.8778  -16.2658   21.0619 N   0  0  0  0  0  0  0  0  0  0  0  0
    8.8597  -15.8925   22.4067 C   0  0  0  0  0  0  0  0  0  0  0  0
    8.3895  -15.4716   23.4856 O   0  0  0  0  0  0  0  0  0  0  0  0
    9.6276  -18.9852   24.2045 C   0  0  0  0  0  0  0  0  0  0  0  0
   10.9897  -18.4137   23.8705 C   0  0  1  0  0  0  0  0  0  0  0  0
   11.4226  -19.0516   22.7101 O   0  0  0  0  0  0  0  0  0  0  0  0
   10.8069  -16.9273   23.6626 C   0  0  2  0  0  0  0  0  0  0  0  0
   10.0733  -16.6302   22.4521 N   0  0  0  0  0  0  0  0  0  0  0  0
   12.1591  -16.3264   23.5646 C   0  0  0  0  0  0  0  0  0  0  0  0
   12.6238  -15.7866   22.3474 O   0  0  0  0  0  0  0  0  0  0  0  0
   12.9702  -16.2495   24.5141 O   0  0  0  0  0  0  0  0  0  0  0  0
  2  1  1  1
  2 13  1  0
  3  4  1  0
  3  2  1  0
  4 12  1  0
  5  4  2  0
  5  6  1  0
  6  7  1  0
  7  8  1  0
  8  9  2  0
 10  9  1  0
 11 10  2  0
 12  7  2  0
 12 11  1  0
 13 20  1  0
 13 14  2  0
 16 17  1  0
 16 15  1  0
 17 18  1  6
 19 17  1  0
 19 21  1  0
 19 20  1  1
 21 22  2  0
 24 23  1  6
 24 26  1  0
 25 24  1  0
 26 28  1  0
 26 27  1  6
 27 21  1  0
 28 29  1  0
 30 28  2  0
M  END
$$$$
