WIT.pdb
     RDKit          3D

 30 31  0  0  1  0  0  0  0  0999 V2000
    6.2129  -17.7677   25.5734 N   0  0  0  0  0  0  0  0  0  0  0  0
    6.8246  -16.4833   25.1473 C   0  0  1  0  0  0  0  0  0  0  0  0
    8.0049  -16.2909   26.0265 C   0  0  0  0  0  0  0  0  0  0  0  0
    8.0377  -15.0998   26.8763 C   0  0  0  0  0  0  0  0  0  0  0  0
    8.6472  -15.0622   28.1313 C   0  0  0  0  0  0  0  0  0  0  0  0
    8.4511  -13.8525   28.6354 N   0  0  0  0  0  0  0  0  0  0  0  0
    7.7514  -13.0801   27.7982 C   0  0  0  0  0  0  0  0  0  0  0  0
    7.3301  -11.7495   27.9003 C   0  0  0  0  0  0  0  0  0  0  0  0
    6.6292  -11.2056   26.8494 C   0  0  0  0  0  0  0  0  0  0  0  0
    6.3614  -11.9698   25.7370 C   0  0  0  0  0  0  0  0  0  0  0  0
    6.7793  -13.2633   25.6569 C   0  0  0  0  0  0  0  0  0  0  0  0
    7.4922  -13.8529   26.7012 C   0  0  0  0  0  0  0  0  0  0  0  0
    7.1718  -16.5560   23.7303 C   0  0  0  0  0  0  0  0  0  0  0  0
    7.4448  -17.6473   23.1803 O   0  0  0  0  0  0  0  0  0  0  0  0
    7.8075  -12.7239   18.8959 C   0  0  0  0  0  0  0  0  0  0  0  0
    8.1326  -14.0940   19.4647 C   0  0  0  0  0  0  0  0  0  0  0  0
    7.6402  -14.1091   20.8979 C   0  0  2  0  0  0  0  0  0  0  0  0
    8.3945  -13.0505   21.6538 C   0  0  0  0  0  0  0  0  0  0  0  0
    7.7716  -15.4576   21.5469 C   0  0  2  0  0  0  0  0  0  0  0  0
    7.2306  -15.4082   22.8684 N   0  0  0  0  0  0  0  0  0  0  0  0
    9.2376  -15.7852   21.5625 C   0  0  0  0  0  0  0  0  0  0  0  0
   10.0555  -15.0045   22.0952 O   0  0  0  0  0  0  0  0  0  0  0  0
   11.1129  -19.1116   22.6350 C   0  0  0  0  0  0  0  0  0  0  0  0
   11.3361  -18.8381   21.1624 C   0  0  1  0  0  0  0  0  0  0  0  0
   10.3964  -19.5927   20.4637 O   0  0  0  0  0  0  0  0  0  0  0  0
   11.1367  -17.3541   20.9528 C   0  0  2  0  0  0  0  0  0  0  0  0
    9.7399  -16.9804   20.9806 N   0  0  0  0  0  0  0  0  0  0  0  0
   11.6976  -17.0176   19.6219 C   0  0  0  0  0  0  0  0  0  0  0  0
   13.0852  -17.0957   19.3815 O   0  0  0  0  0  0  0  0  0  0  0  0
   11.0165  -16.6511   18.6386 O   0  0  0  0  0  0  0  0  0  0  0  0
  2  1  1  1
  2 13  1  0
  3  4  1  0
  3  2  1  0
  4 12  1  0
  5  4  2  0
  5  6  1  0
  6  7  1  0
  7  8  1  0
  8  9  2  0
 10  9  1  0
 11 10  2  0
 12  7  2  0
 12 11  1  0
 13 20  1  0
 13 14  2  0
 16 17  1  0
 16 15  1  0
 17 18  1  1
 19 17  1  0
 19 21  1  0
 19 20  1  1
 21 22  2  0
 24 23  1  1
 24 26  1  0
 25 24  1  0
 26 28  1  0
 26 27  1  6
 27 21  1  0
 28 29  1  0
 30 28  2  0
M  END
$$$$
