WIT.pdb
     RDKit          3D

 30 31  0  0  1  0  0  0  0  0999 V2000
    5.9917  -18.3731   24.6351 N   0  0  0  0  0  0  0  0  0  0  0  0
    6.4050  -16.9566   24.4664 C   0  0  1  0  0  0  0  0  0  0  0  0
    6.9388  -16.5356   25.7857 C   0  0  0  0  0  0  0  0  0  0  0  0
    6.5565  -15.2153   26.2884 C   0  0  0  0  0  0  0  0  0  0  0  0
    5.2462  -14.8618   26.6140 C   0  0  0  0  0  0  0  0  0  0  0  0
    5.2561  -13.5914   26.9906 N   0  0  0  0  0  0  0  0  0  0  0  0
    6.4878  -13.0743   26.9384 C   0  0  0  0  0  0  0  0  0  0  0  0
    6.9702  -11.7992   27.2541 C   0  0  0  0  0  0  0  0  0  0  0  0
    8.3178  -11.5603   27.1183 C   0  0  0  0  0  0  0  0  0  0  0  0
    9.1502  -12.5651   26.6815 C   0  0  0  0  0  0  0  0  0  0  0  0
    8.6614  -13.7994   26.3786 C   0  0  0  0  0  0  0  0  0  0  0  0
    7.3008  -14.0824   26.5020 C   0  0  0  0  0  0  0  0  0  0  0  0
    7.3911  -16.8619   23.3928 C   0  0  0  0  0  0  0  0  0  0  0  0
    8.1922  -17.7953   23.1582 O   0  0  0  0  0  0  0  0  0  0  0  0
    7.2343  -12.3359   20.0816 C   0  0  0  0  0  0  0  0  0  0  0  0
    7.1221  -13.7942   20.4908 C   0  0  0  0  0  0  0  0  0  0  0  0
    8.5040  -14.2429   20.9219 C   0  0  2  0  0  0  0  0  0  0  0  0
    9.4139  -14.1379   19.7294 C   0  0  0  0  0  0  0  0  0  0  0  0
    8.5126  -15.6256   21.5095 C   0  0  2  0  0  0  0  0  0  0  0  0
    7.5239  -15.7157   22.5371 N   0  0  0  0  0  0  0  0  0  0  0  0
    9.8950  -15.8526   22.0519 C   0  0  0  0  0  0  0  0  0  0  0  0
   10.3832  -15.0656   22.8914 O   0  0  0  0  0  0  0  0  0  0  0  0
   11.6185  -18.7730   23.8788 C   0  0  0  0  0  0  0  0  0  0  0  0
   12.2537  -18.6332   22.5112 C   0  0  1  0  0  0  0  0  0  0  0  0
   11.6073  -19.5367   21.6707 O   0  0  0  0  0  0  0  0  0  0  0  0
   12.0437  -17.2024   22.0700 C   0  0  2  0  0  0  0  0  0  0  0  0
   10.6861  -16.9573   21.6361 N   0  0  0  0  0  0  0  0  0  0  0  0
   12.9637  -16.9519   20.9342 C   0  0  0  0  0  0  0  0  0  0  0  0
   14.3612  -16.9449   21.1239 O   0  0  0  0  0  0  0  0  0  0  0  0
   12.5946  -16.7347   19.7587 O   0  0  0  0  0  0  0  0  0  0  0  0
  2  1  1  1
  2 13  1  0
  3  4  1  0
  3  2  1  0
  4 12  1  0
  5  4  2  0
  5  6  1  0
  6  7  1  0
  7  8  1  0
  8  9  2  0
 10  9  1  0
 11 10  2  0
 12  7  2  0
 12 11  1  0
 13 20  1  0
 13 14  2  0
 16 17  1  0
 16 15  1  0
 17 18  1  6
 19 17  1  0
 19 21  1  0
 19 20  1  1
 21 22  2  0
 24 23  1  1
 24 26  1  0
 25 24  1  0
 26 28  1  0
 26 27  1  6
 27 21  1  0
 28 29  1  0
 30 28  2  0
M  END
$$$$
