WIT.pdb
     RDKit          3D

 30 31  0  0  1  0  0  0  0  0999 V2000
    6.8450  -18.1260   22.3006 N   0  0  0  0  0  0  0  0  0  0  0  0
    7.6070  -16.9567   21.7931 C   0  0  1  0  0  0  0  0  0  0  0  0
    6.7856  -16.3898   20.6944 C   0  0  0  0  0  0  0  0  0  0  0  0
    7.3654  -15.3103   19.8941 C   0  0  0  0  0  0  0  0  0  0  0  0
    7.8377  -15.4814   18.5920 C   0  0  0  0  0  0  0  0  0  0  0  0
    8.3298  -14.3191   18.1888 N   0  0  0  0  0  0  0  0  0  0  0  0
    8.2160  -13.3832   19.1366 C   0  0  0  0  0  0  0  0  0  0  0  0
    8.5772  -12.0313   19.1504 C   0  0  0  0  0  0  0  0  0  0  0  0
    8.3122  -11.2976   20.2830 C   0  0  0  0  0  0  0  0  0  0  0  0
    7.7067  -11.8995   21.3621 C   0  0  0  0  0  0  0  0  0  0  0  0
    7.3633  -13.2168   21.3296 C   0  0  0  0  0  0  0  0  0  0  0  0
    7.6155  -13.9963   20.2003 C   0  0  0  0  0  0  0  0  0  0  0  0
    7.8336  -16.0126   22.8845 C   0  0  0  0  0  0  0  0  0  0  0  0
    8.1548  -14.8229   22.6623 O   0  0  0  0  0  0  0  0  0  0  0  0
    7.6746  -12.5358   27.2255 C   0  0  0  0  0  0  0  0  0  0  0  0
    8.4981  -13.7616   26.8710 C   0  0  0  0  0  0  0  0  0  0  0  0
    7.7756  -14.4726   25.7443 C   0  0  2  0  0  0  0  0  0  0  0  0
    6.3704  -14.7492   26.2023 C   0  0  0  0  0  0  0  0  0  0  0  0
    8.4744  -15.7266   25.3014 C   0  0  2  0  0  0  0  0  0  0  0  0
    7.7126  -16.3618   24.2728 N   0  0  0  0  0  0  0  0  0  0  0  0
    8.5980  -16.6009   26.5166 C   0  0  0  0  0  0  0  0  0  0  0  0
    7.6068  -16.8129   27.2480 O   0  0  0  0  0  0  0  0  0  0  0  0
    9.4344  -20.0654   26.3351 C   0  0  0  0  0  0  0  0  0  0  0  0
   10.5000  -19.5403   27.2743 C   0  0  1  0  0  0  0  0  0  0  0  0
   11.6453  -19.3303   26.5097 O   0  0  0  0  0  0  0  0  0  0  0  0
    9.9727  -18.2528   27.8661 C   0  0  2  0  0  0  0  0  0  0  0  0
    9.8307  -17.2117   26.8724 N   0  0  0  0  0  0  0  0  0  0  0  0
   10.9466  -17.8080   28.8922 C   0  0  0  0  0  0  0  0  0  0  0  0
   11.2143  -18.6017   30.0269 O   0  0  0  0  0  0  0  0  0  0  0  0
   11.5882  -16.7352   28.8414 O   0  0  0  0  0  0  0  0  0  0  0  0
  2  1  1  1
  2 13  1  0
  3  4  1  0
  3  2  1  0
  4 12  1  0
  5  4  2  0
  5  6  1  0
  6  7  1  0
  7  8  1  0
  8  9  2  0
 10  9  1  0
 11 10  2  0
 12  7  2  0
 12 11  1  0
 13 20  1  0
 13 14  2  0
 16 17  1  0
 16 15  1  0
 17 18  1  1
 19 17  1  0
 19 21  1  0
 19 20  1  6
 21 22  2  0
 24 23  1  6
 24 26  1  0
 25 24  1  0
 26 28  1  0
 26 27  1  6
 27 21  1  0
 28 29  1  0
 30 28  2  0
M  END
$$$$
