WIT.pdb
     RDKit          3D

 30 31  0  0  1  0  0  0  0  0999 V2000
    6.3614  -18.5787   24.8483 N   0  0  0  0  0  0  0  0  0  0  0  0
    6.5053  -17.1251   24.5802 C   0  0  1  0  0  0  0  0  0  0  0  0
    7.0875  -16.5457   25.8165 C   0  0  0  0  0  0  0  0  0  0  0  0
    6.5823  -15.2482   26.2673 C   0  0  0  0  0  0  0  0  0  0  0  0
    5.2375  -14.9954   26.5422 C   0  0  0  0  0  0  0  0  0  0  0  0
    5.1312  -13.7187   26.8805 N   0  0  0  0  0  0  0  0  0  0  0  0
    6.3175  -13.1031   26.8502 C   0  0  0  0  0  0  0  0  0  0  0  0
    6.6836  -11.7843   27.1419 C   0  0  0  0  0  0  0  0  0  0  0  0
    8.0108  -11.4387   27.0399 C   0  0  0  0  0  0  0  0  0  0  0  0
    8.9364  -12.3829   26.6590 C   0  0  0  0  0  0  0  0  0  0  0  0
    8.5603  -13.6612   26.3787 C   0  0  0  0  0  0  0  0  0  0  0  0
    7.2241  -14.0522   26.4692 C   0  0  0  0  0  0  0  0  0  0  0  0
    7.3481  -16.9283   23.4034 C   0  0  0  0  0  0  0  0  0  0  0  0
    8.2610  -17.7344   23.1122 O   0  0  0  0  0  0  0  0  0  0  0  0
    8.2358  -12.6477   19.0052 C   0  0  0  0  0  0  0  0  0  0  0  0
    8.6073  -14.0321   19.5074 C   0  0  0  0  0  0  0  0  0  0  0  0
    7.8117  -14.2741   20.7744 C   0  0  2  0  0  0  0  0  0  0  0  0
    8.1717  -13.1937   21.7563 C   0  0  0  0  0  0  0  0  0  0  0  0
    8.0306  -15.6448   21.3490 C   0  0  2  0  0  0  0  0  0  0  0  0
    7.2061  -15.8178   22.5031 N   0  0  0  0  0  0  0  0  0  0  0  0
    9.4897  -15.7374   21.6941 C   0  0  0  0  0  0  0  0  0  0  0  0
   10.0484  -14.8213   22.3352 O   0  0  0  0  0  0  0  0  0  0  0  0
   11.7926  -18.5444   23.3625 C   0  0  0  0  0  0  0  0  0  0  0  0
   12.1234  -18.3658   21.8955 C   0  0  1  0  0  0  0  0  0  0  0  0
   11.4021  -19.3319   21.1976 O   0  0  0  0  0  0  0  0  0  0  0  0
   11.7039  -16.9640   21.5148 C   0  0  2  0  0  0  0  0  0  0  0  0
   10.2764  -16.8566   21.3099 N   0  0  0  0  0  0  0  0  0  0  0  0
   12.3979  -16.6248   20.2489 C   0  0  0  0  0  0  0  0  0  0  0  0
   13.8030  -16.5127   20.2024 O   0  0  0  0  0  0  0  0  0  0  0  0
   11.8206  -16.4178   19.1585 O   0  0  0  0  0  0  0  0  0  0  0  0
  2  1  1  1
  2 13  1  0
  3  4  1  0
  3  2  1  0
  4 12  1  0
  5  4  2  0
  5  6  1  0
  6  7  1  0
  7  8  1  0
  8  9  2  0
 10  9  1  0
 11 10  2  0
 12  7  2  0
 12 11  1  0
 13 20  1  0
 13 14  2  0
 16 17  1  0
 16 15  1  0
 17 18  1  1
 19 17  1  0
 19 21  1  0
 19 20  1  1
 21 22  2  0
 24 23  1  1
 24 26  1  0
 25 24  1  0
 26 28  1  0
 26 27  1  6
 27 21  1  0
 28 29  1  0
 30 28  2  0
M  END
$$$$
