WIT.pdb
     RDKit          3D

 30 31  0  0  1  0  0  0  0  0999 V2000
    6.0677  -18.2835   24.6360 N   0  0  0  0  0  0  0  0  0  0  0  0
    6.3418  -16.8503   24.3591 C   0  0  1  0  0  0  0  0  0  0  0  0
    7.1497  -16.3683   25.5071 C   0  0  0  0  0  0  0  0  0  0  0  0
    6.7363  -15.1256   26.1604 C   0  0  0  0  0  0  0  0  0  0  0  0
    5.4513  -14.9045   26.6581 C   0  0  0  0  0  0  0  0  0  0  0  0
    5.4153  -13.6702   27.1390 N   0  0  0  0  0  0  0  0  0  0  0  0
    6.5927  -13.0536   26.9954 C   0  0  0  0  0  0  0  0  0  0  0  0
    7.0172  -11.7721   27.3640 C   0  0  0  0  0  0  0  0  0  0  0  0
    8.3193  -11.4163   27.1009 C   0  0  0  0  0  0  0  0  0  0  0  0
    9.1640  -12.3144   26.4900 C   0  0  0  0  0  0  0  0  0  0  0  0
    8.7318  -13.5568   26.1382 C   0  0  0  0  0  0  0  0  0  0  0  0
    7.4184  -13.9566   26.3867 C   0  0  0  0  0  0  0  0  0  0  0  0
    7.0342  -16.7258   23.0789 C   0  0  0  0  0  0  0  0  0  0  0  0
    7.6595  -17.6884   22.5786 O   0  0  0  0  0  0  0  0  0  0  0  0
    7.5219  -13.8177   18.1249 C   0  0  0  0  0  0  0  0  0  0  0  0
    8.4747  -13.7497   19.3056 C   0  0  0  0  0  0  0  0  0  0  0  0
    7.6525  -13.9910   20.5555 C   0  0  2  0  0  0  0  0  0  0  0  0
    8.0612  -12.9680   21.5789 C   0  0  0  0  0  0  0  0  0  0  0  0
    7.7877  -15.3913   21.0827 C   0  0  2  0  0  0  0  0  0  0  0  0
    7.0581  -15.5157   22.3049 N   0  0  0  0  0  0  0  0  0  0  0  0
    9.2560  -15.6320   21.2893 C   0  0  0  0  0  0  0  0  0  0  0  0
    9.9060  -14.9298   22.0936 O   0  0  0  0  0  0  0  0  0  0  0  0
   11.2754  -18.7198   22.3852 C   0  0  0  0  0  0  0  0  0  0  0  0
   11.6308  -18.4086   20.9464 C   0  0  1  0  0  0  0  0  0  0  0  0
   10.8175  -19.2083   20.1468 O   0  0  0  0  0  0  0  0  0  0  0  0
   11.3602  -16.9365   20.7323 C   0  0  2  0  0  0  0  0  0  0  0  0
    9.9491  -16.6550   20.5876 N   0  0  0  0  0  0  0  0  0  0  0  0
   12.0601  -16.5362   19.4877 C   0  0  0  0  0  0  0  0  0  0  0  0
   13.4687  -16.4929   19.4325 O   0  0  0  0  0  0  0  0  0  0  0  0
   11.4851  -16.2161   18.4237 O   0  0  0  0  0  0  0  0  0  0  0  0
  2  1  1  1
  2 13  1  0
  3  4  1  0
  3  2  1  0
  4 12  1  0
  5  4  2  0
  5  6  1  0
  6  7  1  0
  7  8  1  0
  8  9  2  0
 10  9  1  0
 11 10  2  0
 12  7  2  0
 12 11  1  0
 13 20  1  0
 13 14  2  0
 16 17  1  0
 16 15  1  0
 17 18  1  1
 19 17  1  0
 19 21  1  0
 19 20  1  1
 21 22  2  0
 24 23  1  1
 24 26  1  0
 25 24  1  0
 26 28  1  0
 26 27  1  6
 27 21  1  0
 28 29  1  0
 30 28  2  0
M  END
$$$$
