WIT.pdb
     RDKit          3D

 30 31  0  0  1  0  0  0  0  0999 V2000
    5.9659  -17.5732   24.9403 N   0  0  0  0  0  0  0  0  0  0  0  0
    6.7392  -16.3566   24.5831 C   0  0  1  0  0  0  0  0  0  0  0  0
    7.7181  -16.1674   25.6826 C   0  0  0  0  0  0  0  0  0  0  0  0
    7.4384  -15.1297   26.6761 C   0  0  0  0  0  0  0  0  0  0  0  0
    7.0333  -15.4008   27.9839 C   0  0  0  0  0  0  0  0  0  0  0  0
    6.8287  -14.2395   28.5884 N   0  0  0  0  0  0  0  0  0  0  0  0
    7.0718  -13.2112   27.7695 C   0  0  0  0  0  0  0  0  0  0  0  0
    7.0058  -11.8285   27.9755 C   0  0  0  0  0  0  0  0  0  0  0  0
    7.3403  -10.9976   26.9319 C   0  0  0  0  0  0  0  0  0  0  0  0
    7.7269  -11.5355   25.7259 C   0  0  0  0  0  0  0  0  0  0  0  0
    7.7841  -12.8838   25.5449 C   0  0  0  0  0  0  0  0  0  0  0  0
    7.4522  -13.7611   26.5777 C   0  0  0  0  0  0  0  0  0  0  0  0
    7.3713  -16.5469   23.2800 C   0  0  0  0  0  0  0  0  0  0  0  0
    7.6108  -17.6913   22.8316 O   0  0  0  0  0  0  0  0  0  0  0  0
    7.1449  -12.4371   19.6032 C   0  0  0  0  0  0  0  0  0  0  0  0
    6.9974  -13.8111   20.2331 C   0  0  0  0  0  0  0  0  0  0  0  0
    8.3919  -14.3866   20.3775 C   0  0  2  0  0  0  0  0  0  0  0  0
    8.9564  -14.5748   18.9965 C   0  0  0  0  0  0  0  0  0  0  0  0
    8.4183  -15.6632   21.1690 C   0  0  2  0  0  0  0  0  0  0  0  0
    7.7649  -15.4626   22.4238 N   0  0  0  0  0  0  0  0  0  0  0  0
    9.8648  -16.0251   21.3515 C   0  0  0  0  0  0  0  0  0  0  0  0
   10.6652  -15.2041   21.8493 O   0  0  0  0  0  0  0  0  0  0  0  0
   11.6937  -19.3042   22.8363 C   0  0  0  0  0  0  0  0  0  0  0  0
   11.9420  -19.1448   21.3510 C   0  0  1  0  0  0  0  0  0  0  0  0
   11.0047  -19.9408   20.6965 O   0  0  0  0  0  0  0  0  0  0  0  0
   11.7619  -17.6790   21.0270 C   0  0  2  0  0  0  0  0  0  0  0  0
   10.3678  -17.2983   20.9707 N   0  0  0  0  0  0  0  0  0  0  0  0
   12.3786  -17.4420   19.6994 C   0  0  0  0  0  0  0  0  0  0  0  0
   13.7783  -17.4922   19.5332 O   0  0  0  0  0  0  0  0  0  0  0  0
   11.7370  -17.1880   18.6558 O   0  0  0  0  0  0  0  0  0  0  0  0
  2  1  1  1
  2 13  1  0
  3  4  1  0
  3  2  1  0
  4 12  1  0
  5  4  2  0
  5  6  1  0
  6  7  1  0
  7  8  1  0
  8  9  2  0
 10  9  1  0
 11 10  2  0
 12  7  2  0
 12 11  1  0
 13 20  1  0
 13 14  2  0
 16 17  1  0
 16 15  1  0
 17 18  1  6
 19 17  1  0
 19 21  1  0
 19 20  1  1
 21 22  2  0
 24 23  1  1
 24 26  1  0
 25 24  1  0
 26 28  1  0
 26 27  1  6
 27 21  1  0
 28 29  1  0
 30 28  2  0
M  END
$$$$
