WIT.pdb
     RDKit          3D

 30 31  0  0  1  0  0  0  0  0999 V2000
    6.8456  -19.3427   26.4641 N   0  0  0  0  0  0  0  0  0  0  0  0
    7.5584  -18.0687   26.7367 C   0  0  1  0  0  0  0  0  0  0  0  0
    8.9273  -18.4581   27.1579 C   0  0  0  0  0  0  0  0  0  0  0  0
    9.4947  -17.7976   28.3343 C   0  0  0  0  0  0  0  0  0  0  0  0
    9.7926  -18.4618   29.5251 C   0  0  0  0  0  0  0  0  0  0  0  0
   10.2457  -17.5599   30.3838 N   0  0  0  0  0  0  0  0  0  0  0  0
   10.2704  -16.3375   29.8434 C   0  0  0  0  0  0  0  0  0  0  0  0
   10.6805  -15.1043   30.3624 C   0  0  0  0  0  0  0  0  0  0  0  0
   10.6092  -13.9984   29.5481 C   0  0  0  0  0  0  0  0  0  0  0  0
   10.1432  -14.1262   28.2597 C   0  0  0  0  0  0  0  0  0  0  0  0
    9.7482  -15.3350   27.7731 C   0  0  0  0  0  0  0  0  0  0  0  0
    9.8039  -16.4811   28.5668 C   0  0  0  0  0  0  0  0  0  0  0  0
    7.5435  -17.2362   25.5365 C   0  0  0  0  0  0  0  0  0  0  0  0
    7.5858  -17.7411   24.3914 O   0  0  0  0  0  0  0  0  0  0  0  0
    6.5472  -11.8752   26.2396 C   0  0  0  0  0  0  0  0  0  0  0  0
    6.2949  -13.1868   25.5165 C   0  0  0  0  0  0  0  0  0  0  0  0
    7.5706  -13.5409   24.7790 C   0  0  2  0  0  0  0  0  0  0  0  0
    7.6694  -12.6449   23.5756 C   0  0  0  0  0  0  0  0  0  0  0  0
    7.6428  -14.9929   24.4002 C   0  0  2  0  0  0  0  0  0  0  0  0
    7.4831  -15.8012   25.5676 N   0  0  0  0  0  0  0  0  0  0  0  0
    8.9865  -15.2036   23.7624 C   0  0  0  0  0  0  0  0  0  0  0  0
   10.0158  -14.7167   24.2780 O   0  0  0  0  0  0  0  0  0  0  0  0
   11.0412  -18.3103   22.9182 C   0  0  0  0  0  0  0  0  0  0  0  0
   10.6178  -17.6658   21.6149 C   0  0  1  0  0  0  0  0  0  0  0  0
    9.4461  -18.3018   21.2110 O   0  0  0  0  0  0  0  0  0  0  0  0
   10.3937  -16.1979   21.8994 C   0  0  2  0  0  0  0  0  0  0  0  0
    9.1332  -15.9559   22.5659 N   0  0  0  0  0  0  0  0  0  0  0  0
   10.3911  -15.4915   20.5955 C   0  0  0  0  0  0  0  0  0  0  0  0
   11.5625  -15.4120   19.8141 O   0  0  0  0  0  0  0  0  0  0  0  0
    9.3909  -14.9291   20.0970 O   0  0  0  0  0  0  0  0  0  0  0  0
  2  1  1  6
  2 13  1  0
  3  4  1  0
  3  2  1  0
  4 12  1  0
  5  4  2  0
  5  6  1  0
  6  7  1  0
  7  8  1  0
  8  9  2  0
 10  9  1  0
 11 10  2  0
 12  7  2  0
 12 11  1  0
 13 20  1  0
 13 14  2  0
 16 17  1  0
 16 15  1  0
 17 18  1  6
 19 17  1  0
 19 21  1  0
 19 20  1  1
 21 22  2  0
 24 23  1  1
 24 26  1  0
 25 24  1  0
 26 28  1  0
 26 27  1  6
 27 21  1  0
 28 29  1  0
 30 28  2  0
M  END
$$$$
