WIT.pdb
     RDKit          3D

 30 31  0  0  1  0  0  0  0  0999 V2000
    6.6235  -19.3089   26.6450 N   0  0  0  0  0  0  0  0  0  0  0  0
    7.4136  -18.0807   26.9154 C   0  0  1  0  0  0  0  0  0  0  0  0
    8.7333  -18.5531   27.4036 C   0  0  0  0  0  0  0  0  0  0  0  0
    9.4015  -17.7642   28.4394 C   0  0  0  0  0  0  0  0  0  0  0  0
    9.8395  -18.2953   29.6535 C   0  0  0  0  0  0  0  0  0  0  0  0
   10.3546  -17.3015   30.3626 N   0  0  0  0  0  0  0  0  0  0  0  0
   10.2898  -16.1420   29.7005 C   0  0  0  0  0  0  0  0  0  0  0  0
   10.7178  -14.8548   30.0444 C   0  0  0  0  0  0  0  0  0  0  0  0
   10.5323  -13.8413   29.1335 C   0  0  0  0  0  0  0  0  0  0  0  0
    9.9387  -14.1106   27.9218 C   0  0  0  0  0  0  0  0  0  0  0  0
    9.5282  -15.3699   27.6058 C   0  0  0  0  0  0  0  0  0  0  0  0
    9.6973  -16.4257   28.5021 C   0  0  0  0  0  0  0  0  0  0  0  0
    7.5063  -17.2832   25.6950 C   0  0  0  0  0  0  0  0  0  0  0  0
    7.6676  -17.8199   24.5752 O   0  0  0  0  0  0  0  0  0  0  0  0
    7.4003  -11.5982   26.0202 C   0  0  0  0  0  0  0  0  0  0  0  0
    7.8912  -13.0300   25.8957 C   0  0  0  0  0  0  0  0  0  0  0  0
    7.1339  -13.6616   24.7449 C   0  0  2  0  0  0  0  0  0  0  0  0
    5.6652  -13.5602   25.0508 C   0  0  0  0  0  0  0  0  0  0  0  0
    7.5512  -15.0802   24.4793 C   0  0  2  0  0  0  0  0  0  0  0  0
    7.4249  -15.8491   25.6770 N   0  0  0  0  0  0  0  0  0  0  0  0
    8.9756  -15.0268   24.0052 C   0  0  0  0  0  0  0  0  0  0  0  0
    9.7991  -14.2661   24.5580 O   0  0  0  0  0  0  0  0  0  0  0  0
   11.7775  -17.5562   23.8319 C   0  0  0  0  0  0  0  0  0  0  0  0
   11.3864  -17.2243   22.4071 C   0  0  1  0  0  0  0  0  0  0  0  0
   10.4594  -18.1845   22.0079 O   0  0  0  0  0  0  0  0  0  0  0  0
   10.7884  -15.8358   22.4244 C   0  0  2  0  0  0  0  0  0  0  0  0
    9.4319  -15.8304   22.9257 N   0  0  0  0  0  0  0  0  0  0  0  0
   10.7862  -15.3393   21.0271 C   0  0  0  0  0  0  0  0  0  0  0  0
   11.9934  -15.1732   20.3170 O   0  0  0  0  0  0  0  0  0  0  0  0
    9.7559  -15.0381   20.3843 O   0  0  0  0  0  0  0  0  0  0  0  0
  2  1  1  6
  2 13  1  0
  3  4  1  0
  3  2  1  0
  4 12  1  0
  5  4  2  0
  5  6  1  0
  6  7  1  0
  7  8  1  0
  8  9  2  0
 10  9  1  0
 11 10  2  0
 12  7  2  0
 12 11  1  0
 13 20  1  0
 13 14  2  0
 16 17  1  0
 16 15  1  0
 17 18  1  1
 19 17  1  0
 19 21  1  0
 19 20  1  1
 21 22  2  0
 24 23  1  1
 24 26  1  0
 25 24  1  0
 26 28  1  0
 26 27  1  6
 27 21  1  0
 28 29  1  0
 30 28  2  0
M  END
$$$$
