WIT.pdb
     RDKit          3D

 30 31  0  0  1  0  0  0  0  0999 V2000
    5.7716  -18.1460   24.6827 N   0  0  0  0  0  0  0  0  0  0  0  0
    6.2988  -16.7792   24.4387 C   0  0  1  0  0  0  0  0  0  0  0  0
    6.8703  -16.3334   25.7340 C   0  0  0  0  0  0  0  0  0  0  0  0
    6.4913  -15.0093   26.2291 C   0  0  0  0  0  0  0  0  0  0  0  0
    5.1877  -14.6618   26.5866 C   0  0  0  0  0  0  0  0  0  0  0  0
    5.1977  -13.3862   26.9454 N   0  0  0  0  0  0  0  0  0  0  0  0
    6.4231  -12.8602   26.8516 C   0  0  0  0  0  0  0  0  0  0  0  0
    6.9037  -11.5771   27.1362 C   0  0  0  0  0  0  0  0  0  0  0  0
    8.2449  -11.3294   26.9592 C   0  0  0  0  0  0  0  0  0  0  0  0
    9.0730  -12.3336   26.5129 C   0  0  0  0  0  0  0  0  0  0  0  0
    8.5861  -13.5758   26.2407 C   0  0  0  0  0  0  0  0  0  0  0  0
    7.2319  -13.8678   26.4062 C   0  0  0  0  0  0  0  0  0  0  0  0
    7.2853  -16.8231   23.3622 C   0  0  0  0  0  0  0  0  0  0  0  0
    7.9841  -17.8419   23.1584 O   0  0  0  0  0  0  0  0  0  0  0  0
    7.2648  -12.6777   19.6347 C   0  0  0  0  0  0  0  0  0  0  0  0
    7.1583  -14.0786   20.2116 C   0  0  0  0  0  0  0  0  0  0  0  0
    8.5405  -14.4659   20.6978 C   0  0  2  0  0  0  0  0  0  0  0  0
    9.4495  -14.5213   19.5013 C   0  0  0  0  0  0  0  0  0  0  0  0
    8.5495  -15.7576   21.4649 C   0  0  2  0  0  0  0  0  0  0  0  0
    7.5333  -15.7257   22.4689 N   0  0  0  0  0  0  0  0  0  0  0  0
    9.9186  -15.8882   22.0691 C   0  0  0  0  0  0  0  0  0  0  0  0
   10.3999  -14.9600   22.7540 O   0  0  0  0  0  0  0  0  0  0  0  0
   11.5614  -19.0280   23.9959 C   0  0  0  0  0  0  0  0  0  0  0  0
   12.3331  -18.6874   22.7382 C   0  0  1  0  0  0  0  0  0  0  0  0
   11.8779  -19.5452   21.7394 O   0  0  0  0  0  0  0  0  0  0  0  0
   12.0380  -17.2398   22.4164 C   0  0  2  0  0  0  0  0  0  0  0  0
   10.7046  -17.0579   21.8869 N   0  0  0  0  0  0  0  0  0  0  0  0
   13.0233  -16.8053   21.3968 C   0  0  0  0  0  0  0  0  0  0  0  0
   14.3943  -16.7060   21.7126 O   0  0  0  0  0  0  0  0  0  0  0  0
   12.7351  -16.5023   20.2176 O   0  0  0  0  0  0  0  0  0  0  0  0
  2  1  1  1
  2 13  1  0
  3  4  1  0
  3  2  1  0
  4 12  1  0
  5  4  2  0
  5  6  1  0
  6  7  1  0
  7  8  1  0
  8  9  2  0
 10  9  1  0
 11 10  2  0
 12  7  2  0
 12 11  1  0
 13 20  1  0
 13 14  2  0
 16 17  1  0
 16 15  1  0
 17 18  1  6
 19 17  1  0
 19 21  1  0
 19 20  1  1
 21 22  2  0
 24 23  1  1
 24 26  1  0
 25 24  1  0
 26 28  1  0
 26 27  1  6
 27 21  1  0
 28 29  1  0
 30 28  2  0
M  END
$$$$
