WIT.pdb
     RDKit          3D

 30 31  0  0  1  0  0  0  0  0999 V2000
    6.4876  -17.5513   25.1923 N   0  0  0  0  0  0  0  0  0  0  0  0
    7.0251  -16.3127   24.5738 C   0  0  1  0  0  0  0  0  0  0  0  0
    8.2511  -15.9812   25.3420 C   0  0  0  0  0  0  0  0  0  0  0  0
    8.1191  -15.0731   26.4821 C   0  0  0  0  0  0  0  0  0  0  0  0
    8.3777  -15.4466   27.8018 C   0  0  0  0  0  0  0  0  0  0  0  0
    8.1172  -14.4004   28.5722 N   0  0  0  0  0  0  0  0  0  0  0  0
    7.7026  -13.3528   27.8526 C   0  0  0  0  0  0  0  0  0  0  0  0
    7.3372  -12.0562   28.2315 C   0  0  0  0  0  0  0  0  0  0  0  0
    6.9663  -11.1699   27.2474 C   0  0  0  0  0  0  0  0  0  0  0  0
    6.9625  -11.5711   25.9313 C   0  0  0  0  0  0  0  0  0  0  0  0
    7.3209  -12.8376   25.5826 C   0  0  0  0  0  0  0  0  0  0  0  0
    7.7028  -13.7673   26.5503 C   0  0  0  0  0  0  0  0  0  0  0  0
    7.2842  -16.5496   23.1559 C   0  0  0  0  0  0  0  0  0  0  0  0
    7.3015  -17.7077   22.6801 O   0  0  0  0  0  0  0  0  0  0  0  0
    8.2980  -12.1903   19.5524 C   0  0  0  0  0  0  0  0  0  0  0  0
    8.6574  -13.4201   20.3678 C   0  0  0  0  0  0  0  0  0  0  0  0
    7.6313  -14.4863   20.0408 C   0  0  2  0  0  0  0  0  0  0  0  0
    6.2670  -13.8942   20.2624 C   0  0  0  0  0  0  0  0  0  0  0  0
    7.8266  -15.7479   20.8328 C   0  0  2  0  0  0  0  0  0  0  0  0
    7.5378  -15.4986   22.2099 N   0  0  0  0  0  0  0  0  0  0  0  0
    9.2571  -16.1616   20.6349 C   0  0  0  0  0  0  0  0  0  0  0  0
    9.6758  -16.4701   19.4983 O   0  0  0  0  0  0  0  0  0  0  0  0
   12.6366  -14.6697   22.3295 C   0  0  0  0  0  0  0  0  0  0  0  0
   12.4310  -16.1277   22.6836 C   0  0  1  0  0  0  0  0  0  0  0  0
   11.8423  -16.1583   23.9457 O   0  0  0  0  0  0  0  0  0  0  0  0
   11.5267  -16.7169   21.6247 C   0  0  2  0  0  0  0  0  0  0  0  0
   10.1739  -16.2146   21.7193 N   0  0  0  0  0  0  0  0  0  0  0  0
   11.5092  -18.1858   21.8278 C   0  0  0  0  0  0  0  0  0  0  0  0
   12.6945  -18.9435   21.7281 O   0  0  0  0  0  0  0  0  0  0  0  0
   10.4840  -18.8515   22.0943 O   0  0  0  0  0  0  0  0  0  0  0  0
  2  1  1  1
  2 13  1  0
  3  4  1  0
  3  2  1  0
  4 12  1  0
  5  4  2  0
  5  6  1  0
  6  7  1  0
  7  8  1  0
  8  9  2  0
 10  9  1  0
 11 10  2  0
 12  7  2  0
 12 11  1  0
 13 20  1  0
 13 14  2  0
 16 17  1  0
 16 15  1  0
 17 18  1  1
 19 17  1  0
 19 21  1  0
 19 20  1  1
 21 22  2  0
 24 23  1  6
 24 26  1  0
 25 24  1  0
 26 28  1  0
 26 27  1  1
 27 21  1  0
 28 29  1  0
 30 28  2  0
M  END
$$$$
