WIT.pdb
     RDKit          3D

 30 31  0  0  1  0  0  0  0  0999 V2000
    6.7912  -18.7722   24.4677 N   0  0  0  0  0  0  0  0  0  0  0  0
    6.8243  -17.2926   24.3444 C   0  0  1  0  0  0  0  0  0  0  0  0
    7.4431  -16.8000   25.6004 C   0  0  0  0  0  0  0  0  0  0  0  0
    6.9471  -15.5416   26.1593 C   0  0  0  0  0  0  0  0  0  0  0  0
    5.5949  -15.2001   26.2146 C   0  0  0  0  0  0  0  0  0  0  0  0
    5.5100  -13.9850   26.7363 N   0  0  0  0  0  0  0  0  0  0  0  0
    6.7172  -13.4937   27.0336 C   0  0  0  0  0  0  0  0  0  0  0  0
    7.1060  -12.2774   27.6061 C   0  0  0  0  0  0  0  0  0  0  0  0
    8.4469  -12.0547   27.8152 C   0  0  0  0  0  0  0  0  0  0  0  0
    9.3636  -13.0183   27.4624 C   0  0  0  0  0  0  0  0  0  0  0  0
    8.9655  -14.1955   26.9058 C   0  0  0  0  0  0  0  0  0  0  0  0
    7.6150  -14.4601   26.6763 C   0  0  0  0  0  0  0  0  0  0  0  0
    7.5788  -16.9205   23.1501 C   0  0  0  0  0  0  0  0  0  0  0  0
    8.4469  -17.6804   22.6634 O   0  0  0  0  0  0  0  0  0  0  0  0
    8.1603  -12.0784   19.3185 C   0  0  0  0  0  0  0  0  0  0  0  0
    8.3967  -13.5665   19.5089 C   0  0  0  0  0  0  0  0  0  0  0  0
    7.8097  -13.9417   20.8548 C   0  0  2  0  0  0  0  0  0  0  0  0
    8.3813  -13.0046   21.8825 C   0  0  0  0  0  0  0  0  0  0  0  0
    8.0503  -15.3797   21.2169 C   0  0  2  0  0  0  0  0  0  0  0  0
    7.3947  -15.6792   22.4507 N   0  0  0  0  0  0  0  0  0  0  0  0
    9.5386  -15.5513   21.3268 C   0  0  0  0  0  0  0  0  0  0  0  0
   10.2608  -15.4845   20.3088 O   0  0  0  0  0  0  0  0  0  0  0  0
   11.4950  -15.1253   25.0010 C   0  0  0  0  0  0  0  0  0  0  0  0
   11.9492  -16.3182   24.1861 C   0  0  1  0  0  0  0  0  0  0  0  0
   11.2726  -17.4294   24.6839 O   0  0  0  0  0  0  0  0  0  0  0  0
   11.5858  -16.0347   22.7462 C   0  0  2  0  0  0  0  0  0  0  0  0
   10.1704  -15.7912   22.5768 N   0  0  0  0  0  0  0  0  0  0  0  0
   11.9664  -17.2280   21.9524 C   0  0  0  0  0  0  0  0  0  0  0  0
   13.3191  -17.6024   21.8133 O   0  0  0  0  0  0  0  0  0  0  0  0
   11.1541  -17.9746   21.3625 O   0  0  0  0  0  0  0  0  0  0  0  0
  2  1  1  1
  2 13  1  0
  3  4  1  0
  3  2  1  0
  4 12  1  0
  5  4  2  0
  5  6  1  0
  6  7  1  0
  7  8  1  0
  8  9  2  0
 10  9  1  0
 11 10  2  0
 12  7  2  0
 12 11  1  0
 13 20  1  0
 13 14  2  0
 16 17  1  0
 16 15  1  0
 17 18  1  1
 19 17  1  0
 19 21  1  0
 19 20  1  1
 21 22  2  0
 24 23  1  1
 24 26  1  0
 25 24  1  0
 26 28  1  0
 26 27  1  1
 27 21  1  0
 28 29  1  0
 30 28  2  0
M  END
$$$$
