DFF.pdb
     RDKit          3D

 31 32  0  0  1  0  0  0  0  0999 V2000
   10.1589  -17.3048   18.9808 N   0  0  0  0  0  0  0  0  0  0  0  0
   11.0778  -17.7373   20.0171 C   0  0  1  0  0  0  0  0  0  0  0  0
   12.5031  -17.5873   19.5871 C   0  0  0  0  0  0  0  0  0  0  0  0
   12.7635  -18.3696   18.3584 C   0  0  0  0  0  0  0  0  0  0  0  0
   12.8891  -17.7608   17.2729 O   0  0  0  0  0  0  0  0  0  0  0  0
   10.8558  -16.8563   21.2080 C   0  0  0  0  0  0  0  0  0  0  0  0
   11.8474  -16.2924   21.7318 O   0  0  0  0  0  0  0  0  0  0  0  0
   12.8697  -19.7503   18.3888 O   0  0  0  0  0  0  0  0  0  0  0  0
    9.5808  -16.6441   21.7516 N   0  0  0  0  0  0  0  0  0  0  0  0
    9.3550  -15.7809   22.9312 C   0  0  1  0  0  0  0  0  0  0  0  0
    7.9481  -15.2812   22.8881 C   0  0  0  0  0  0  0  0  0  0  0  0
    7.5279  -14.3509   23.9302 C   0  0  0  0  0  0  0  0  0  0  0  0
    6.9413  -14.7954   25.1096 C   0  0  0  0  0  0  0  0  0  0  0  0
    6.5762  -13.9337   26.1181 C   0  0  0  0  0  0  0  0  0  0  0  0
    6.7841  -12.5914   25.9854 C   0  0  0  0  0  0  0  0  0  0  0  0
    7.3561  -12.1178   24.8445 C   0  0  0  0  0  0  0  0  0  0  0  0
    7.7275  -12.9950   23.8185 C   0  0  0  0  0  0  0  0  0  0  0  0
    9.6432  -16.6461   24.0908 C   0  0  0  0  0  0  0  0  0  0  0  0
    9.3120  -17.8868   24.0898 O   0  0  0  0  0  0  0  0  0  0  0  0
   10.2932  -16.1767   25.2453 N   0  0  0  0  0  0  0  0  0  0  0  0
   10.8599  -17.1473   26.1822 C   0  0  1  0  0  0  0  0  0  0  0  0
   11.7668  -16.3197   27.1040 C   0  0  0  0  0  0  0  0  0  0  0  0
   11.0181  -15.4537   28.0161 C   0  0  0  0  0  0  0  0  0  0  0  0
   10.4683  -14.2873   27.4826 C   0  0  0  0  0  0  0  0  0  0  0  0
    9.7508  -13.4517   28.3109 C   0  0  0  0  0  0  0  0  0  0  0  0
    9.5574  -13.7304   29.6529 C   0  0  0  0  0  0  0  0  0  0  0  0
   10.1033  -14.8798   30.1633 C   0  0  0  0  0  0  0  0  0  0  0  0
   10.8203  -15.7236   29.3551 C   0  0  0  0  0  0  0  0  0  0  0  0
    9.8461  -17.8732   26.9574 C   0  0  0  0  0  0  0  0  0  0  0  0
    8.5029  -17.6025   26.7830 O   0  0  0  0  0  0  0  0  0  0  0  0
   10.1538  -18.7479   27.7908 O   0  0  0  0  0  0  0  0  0  0  0  0
  2  1  1  6
  2  3  1  0
  3  4  1  0
  4  8  1  0
  5  4  2  0
  6  2  1  0
  6  7  2  0
  9  6  1  0
 10  9  1  0
 10 11  1  1
 12 11  1  0
 12 17  1  0
 13 12  2  0
 14 13  1  0
 14 15  2  0
 15 16  1  0
 16 17  2  0
 18 10  1  0
 19 18  2  0
 20 18  1  0
 21 20  1  0
 21 22  1  1
 22 23  1  0
 23 24  2  0
 24 25  1  0
 26 25  2  0
 27 26  1  0
 28 27  2  0
 28 23  1  0
 29 30  1  0
 29 21  1  0
 31 29  2  0
M  END
$$$$
