DFF.pdb
     RDKit          3D

 31 32  0  0  1  0  0  0  0  0999 V2000
    3.8048  -19.0691   22.1795 N   0  0  0  0  0  0  0  0  0  0  0  0
    5.0901  -19.2809   22.8190 C   0  0  1  0  0  0  0  0  0  0  0  0
    6.0506  -19.9776   21.9075 C   0  0  0  0  0  0  0  0  0  0  0  0
    5.6236  -21.3736   21.6663 C   0  0  0  0  0  0  0  0  0  0  0  0
    5.5081  -22.1450   22.6442 O   0  0  0  0  0  0  0  0  0  0  0  0
    5.6541  -17.9326   23.1469 C   0  0  0  0  0  0  0  0  0  0  0  0
    5.6176  -17.0360   22.2692 O   0  0  0  0  0  0  0  0  0  0  0  0
    5.3522  -21.8367   20.3893 O   0  0  0  0  0  0  0  0  0  0  0  0
    6.2184  -17.6441   24.3978 N   0  0  0  0  0  0  0  0  0  0  0  0
    6.8084  -16.3259   24.7168 C   0  0  1  0  0  0  0  0  0  0  0  0
    6.6762  -16.0928   26.1863 C   0  0  0  0  0  0  0  0  0  0  0  0
    7.0638  -14.7844   26.7017 C   0  0  0  0  0  0  0  0  0  0  0  0
    8.3720  -14.5111   27.0847 C   0  0  0  0  0  0  0  0  0  0  0  0
    8.7610  -13.2707   27.5351 C   0  0  0  0  0  0  0  0  0  0  0  0
    7.8549  -12.2537   27.6200 C   0  0  0  0  0  0  0  0  0  0  0  0
    6.5639  -12.4828   27.2540 C   0  0  0  0  0  0  0  0  0  0  0  0
    6.1682  -13.7452   26.7958 C   0  0  0  0  0  0  0  0  0  0  0  0
    8.2057  -16.4173   24.2528 C   0  0  0  0  0  0  0  0  0  0  0  0
    8.8673  -17.5131   24.3556 O   0  0  0  0  0  0  0  0  0  0  0  0
    8.8856  -15.3323   23.6729 N   0  0  0  0  0  0  0  0  0  0  0  0
   10.2206  -15.5503   23.1152 C   0  0  1  0  0  0  0  0  0  0  0  0
   10.3823  -14.4604   22.0462 C   0  0  0  0  0  0  0  0  0  0  0  0
    9.2447  -14.3860   21.1282 C   0  0  0  0  0  0  0  0  0  0  0  0
    8.3101  -13.3736   21.3496 C   0  0  0  0  0  0  0  0  0  0  0  0
    7.2299  -13.2691   20.5003 C   0  0  0  0  0  0  0  0  0  0  0  0
    7.0411  -14.1339   19.4361 C   0  0  0  0  0  0  0  0  0  0  0  0
    7.9672  -15.1237   19.2306 C   0  0  0  0  0  0  0  0  0  0  0  0
    9.0485  -15.2436   20.0648 C   0  0  0  0  0  0  0  0  0  0  0  0
   11.2930  -15.4683   24.1147 C   0  0  0  0  0  0  0  0  0  0  0  0
   11.0043  -15.1591   25.4296 O   0  0  0  0  0  0  0  0  0  0  0  0
   12.4872  -15.6706   23.8195 O   0  0  0  0  0  0  0  0  0  0  0  0
  2  1  1  6
  2  3  1  0
  3  4  1  0
  4  8  1  0
  5  4  2  0
  6  2  1  0
  6  7  2  0
  9  6  1  0
 10  9  1  0
 10 11  1  1
 12 11  1  0
 12 17  1  0
 13 12  2  0
 14 13  1  0
 14 15  2  0
 15 16  1  0
 16 17  2  0
 18 10  1  0
 19 18  2  0
 20 18  1  0
 21 20  1  0
 21 22  1  6
 22 23  1  0
 23 24  2  0
 24 25  1  0
 26 25  2  0
 27 26  1  0
 28 27  2  0
 28 23  1  0
 29 30  1  0
 29 21  1  0
 31 29  2  0
M  END
$$$$
