DFF.pdb
     RDKit          3D

 31 32  0  0  1  0  0  0  0  0999 V2000
    9.3018  -17.1963   18.5210 N   0  0  0  0  0  0  0  0  0  0  0  0
   10.2491  -17.6114   19.5388 C   0  0  1  0  0  0  0  0  0  0  0  0
   11.6612  -17.4893   19.0595 C   0  0  0  0  0  0  0  0  0  0  0  0
   11.9171  -18.4259   17.9428 C   0  0  0  0  0  0  0  0  0  0  0  0
   11.3028  -19.5154   17.9186 O   0  0  0  0  0  0  0  0  0  0  0  0
   10.0751  -16.6961   20.7117 C   0  0  0  0  0  0  0  0  0  0  0  0
   10.9479  -15.8197   20.9251 O   0  0  0  0  0  0  0  0  0  0  0  0
   12.8157  -18.1206   16.9340 O   0  0  0  0  0  0  0  0  0  0  0  0
    8.9725  -16.7889   21.5732 N   0  0  0  0  0  0  0  0  0  0  0  0
    8.8079  -15.9066   22.7487 C   0  0  1  0  0  0  0  0  0  0  0  0
    7.3740  -15.4972   22.8345 C   0  0  0  0  0  0  0  0  0  0  0  0
    6.9781  -14.6482   23.9527 C   0  0  0  0  0  0  0  0  0  0  0  0
    6.2695  -15.1547   25.0362 C   0  0  0  0  0  0  0  0  0  0  0  0
    5.9238  -14.3756   26.1162 C   0  0  0  0  0  0  0  0  0  0  0  0
    6.2742  -13.0572   26.1542 C   0  0  0  0  0  0  0  0  0  0  0  0
    6.9686  -12.5246   25.1115 C   0  0  0  0  0  0  0  0  0  0  0  0
    7.3202  -13.3177   24.0126 C   0  0  0  0  0  0  0  0  0  0  0  0
    9.2642  -16.7170   23.8938 C   0  0  0  0  0  0  0  0  0  0  0  0
    8.8303  -17.9121   24.0740 O   0  0  0  0  0  0  0  0  0  0  0  0
   10.1912  -16.2429   24.8380 N   0  0  0  0  0  0  0  0  0  0  0  0
   10.6767  -17.1560   25.8731 C   0  0  1  0  0  0  0  0  0  0  0  0
   11.8027  -16.3869   26.5784 C   0  0  0  0  0  0  0  0  0  0  0  0
   11.3071  -15.4053   27.5446 C   0  0  0  0  0  0  0  0  0  0  0  0
   11.0081  -14.1299   27.0635 C   0  0  0  0  0  0  0  0  0  0  0  0
   10.5324  -13.1824   27.9438 C   0  0  0  0  0  0  0  0  0  0  0  0
   10.3413  -13.4531   29.2878 C   0  0  0  0  0  0  0  0  0  0  0  0
   10.6392  -14.7103   29.7463 C   0  0  0  0  0  0  0  0  0  0  0  0
   11.1136  -15.6664   28.8860 C   0  0  0  0  0  0  0  0  0  0  0  0
    9.6391  -17.5615   26.8295 C   0  0  0  0  0  0  0  0  0  0  0  0
    9.8622  -18.6054   27.7061 O   0  0  0  0  0  0  0  0  0  0  0  0
    8.5333  -16.9886   26.8859 O   0  0  0  0  0  0  0  0  0  0  0  0
  2  1  1  6
  2  3  1  0
  3  4  1  0
  4  8  1  0
  5  4  2  0
  6  2  1  0
  6  7  2  0
  9  6  1  0
 10  9  1  0
 10 11  1  1
 12 11  1  0
 12 17  1  0
 13 12  2  0
 14 13  1  0
 14 15  2  0
 15 16  1  0
 16 17  2  0
 18 10  1  0
 19 18  2  0
 20 18  1  0
 21 20  1  0
 21 22  1  1
 22 23  1  0
 23 24  2  0
 24 25  1  0
 26 25  2  0
 27 26  1  0
 28 27  2  0
 28 23  1  0
 29 30  1  0
 29 21  1  0
 31 29  2  0
M  END
$$$$
