DFF.pdb
     RDKit          3D

 31 32  0  0  1  0  0  0  0  0999 V2000
   10.4194  -17.1280   18.4550 N   0  0  0  0  0  0  0  0  0  0  0  0
   10.4399  -17.9067   19.6792 C   0  0  1  0  0  0  0  0  0  0  0  0
   11.6721  -18.7500   19.7750 C   0  0  0  0  0  0  0  0  0  0  0  0
   11.7661  -19.6714   18.6210 C   0  0  0  0  0  0  0  0  0  0  0  0
   12.4411  -20.7177   18.7400 O   0  0  0  0  0  0  0  0  0  0  0  0
   10.4470  -16.9405   20.8239 C   0  0  0  0  0  0  0  0  0  0  0  0
   11.5099  -16.3262   21.0853 O   0  0  0  0  0  0  0  0  0  0  0  0
   11.1262  -19.3983   17.4233 O   0  0  0  0  0  0  0  0  0  0  0  0
    9.3083  -16.7035   21.6071 N   0  0  0  0  0  0  0  0  0  0  0  0
    9.2774  -15.6773   22.6717 C   0  0  1  0  0  0  0  0  0  0  0  0
    7.8913  -15.1273   22.7571 C   0  0  0  0  0  0  0  0  0  0  0  0
    7.6257  -14.1161   23.7744 C   0  0  0  0  0  0  0  0  0  0  0  0
    6.9677  -14.4295   24.9582 C   0  0  0  0  0  0  0  0  0  0  0  0
    6.7453  -13.4958   25.9438 C   0  0  0  0  0  0  0  0  0  0  0  0
    7.1733  -12.2099   25.7831 C   0  0  0  0  0  0  0  0  0  0  0  0
    7.8217  -11.8645   24.6371 C   0  0  0  0  0  0  0  0  0  0  0  0
    8.0478  -12.8149   23.6342 C   0  0  0  0  0  0  0  0  0  0  0  0
    9.7115  -16.3866   23.8902 C   0  0  0  0  0  0  0  0  0  0  0  0
    9.0904  -17.4310   24.3052 O   0  0  0  0  0  0  0  0  0  0  0  0
   10.8167  -15.9752   24.6551 N   0  0  0  0  0  0  0  0  0  0  0  0
   11.1508  -16.7167   25.8713 C   0  0  1  0  0  0  0  0  0  0  0  0
    9.8578  -16.7163   26.6990 C   0  0  0  0  0  0  0  0  0  0  0  0
    9.7228  -15.5322   27.5488 C   0  0  0  0  0  0  0  0  0  0  0  0
    8.4378  -15.0186   27.7295 C   0  0  0  0  0  0  0  0  0  0  0  0
    8.2723  -13.9087   28.5292 C   0  0  0  0  0  0  0  0  0  0  0  0
    9.3368  -13.2867   29.1586 C   0  0  0  0  0  0  0  0  0  0  0  0
   10.5934  -13.8022   28.9721 C   0  0  0  0  0  0  0  0  0  0  0  0
   10.7782  -14.9058   28.1801 C   0  0  0  0  0  0  0  0  0  0  0  0
   11.6085  -18.0879   25.6137 C   0  0  0  0  0  0  0  0  0  0  0  0
   11.4916  -18.6414   24.3536 O   0  0  0  0  0  0  0  0  0  0  0  0
   12.1118  -18.7948   26.5088 O   0  0  0  0  0  0  0  0  0  0  0  0
  2  1  1  6
  2  3  1  0
  3  4  1  0
  4  8  1  0
  5  4  2  0
  6  2  1  0
  6  7  2  0
  9  6  1  0
 10  9  1  0
 10 11  1  1
 12 11  1  0
 12 17  1  0
 13 12  2  0
 14 13  1  0
 14 15  2  0
 15 16  1  0
 16 17  2  0
 18 10  1  0
 19 18  2  0
 20 18  1  0
 21 20  1  0
 21 22  1  1
 22 23  1  0
 23 24  2  0
 24 25  1  0
 26 25  2  0
 27 26  1  0
 28 27  2  0
 28 23  1  0
 29 30  1  0
 29 21  1  0
 31 29  2  0
M  END
$$$$
