DFF.pdb
     RDKit          3D

 31 32  0  0  1  0  0  0  0  0999 V2000
    8.1950  -18.1685   19.7627 N   0  0  0  0  0  0  0  0  0  0  0  0
    9.6403  -18.0450   19.8028 C   0  0  1  0  0  0  0  0  0  0  0  0
   10.2161  -17.8676   18.4333 C   0  0  0  0  0  0  0  0  0  0  0  0
   10.1387  -19.1304   17.6660 C   0  0  0  0  0  0  0  0  0  0  0  0
    9.2757  -19.2359   16.7666 O   0  0  0  0  0  0  0  0  0  0  0  0
    9.9626  -16.8220   20.6053 C   0  0  0  0  0  0  0  0  0  0  0  0
   10.9464  -16.1211   20.2640 O   0  0  0  0  0  0  0  0  0  0  0  0
   10.9965  -20.1871   17.9234 O   0  0  0  0  0  0  0  0  0  0  0  0
    9.2024  -16.4392   21.7197 N   0  0  0  0  0  0  0  0  0  0  0  0
    9.6664  -15.4175   22.6833 C   0  0  1  0  0  0  0  0  0  0  0  0
    8.6732  -14.3020   22.7033 C   0  0  0  0  0  0  0  0  0  0  0  0
    7.9364  -14.0737   23.9413 C   0  0  0  0  0  0  0  0  0  0  0  0
    7.1503  -12.9414   24.1225 C   0  0  0  0  0  0  0  0  0  0  0  0
    6.4184  -12.7316   25.2684 C   0  0  0  0  0  0  0  0  0  0  0  0
    6.4446  -13.6480   26.2794 C   0  0  0  0  0  0  0  0  0  0  0  0
    7.2030  -14.7697   26.1391 C   0  0  0  0  0  0  0  0  0  0  0  0
    7.9477  -14.9829   24.9729 C   0  0  0  0  0  0  0  0  0  0  0  0
    9.7797  -16.1355   23.9670 C   0  0  0  0  0  0  0  0  0  0  0  0
    8.8694  -16.9567   24.3490 O   0  0  0  0  0  0  0  0  0  0  0  0
   10.8749  -15.9740   24.8331 N   0  0  0  0  0  0  0  0  0  0  0  0
   11.1116  -16.9794   25.8694 C   0  0  1  0  0  0  0  0  0  0  0  0
   10.0313  -16.7143   26.9276 C   0  0  0  0  0  0  0  0  0  0  0  0
   10.2418  -15.4644   27.6596 C   0  0  0  0  0  0  0  0  0  0  0  0
    9.1989  -14.5372   27.6538 C   0  0  0  0  0  0  0  0  0  0  0  0
    9.3595  -13.3522   28.3387 C   0  0  0  0  0  0  0  0  0  0  0  0
   10.5194  -13.0512   29.0315 C   0  0  0  0  0  0  0  0  0  0  0  0
   11.5357  -13.9715   29.0284 C   0  0  0  0  0  0  0  0  0  0  0  0
   11.3947  -15.1560   28.3528 C   0  0  0  0  0  0  0  0  0  0  0  0
   11.0338  -18.3596   25.3745 C   0  0  0  0  0  0  0  0  0  0  0  0
   10.6688  -18.6167   24.0674 O   0  0  0  0  0  0  0  0  0  0  0  0
   11.2896  -19.3377   26.1040 O   0  0  0  0  0  0  0  0  0  0  0  0
  2  1  1  6
  2  3  1  0
  3  4  1  0
  4  8  1  0
  5  4  2  0
  6  2  1  0
  6  7  2  0
  9  6  1  0
 10  9  1  0
 10 11  1  1
 12 11  1  0
 12 17  1  0
 13 12  2  0
 14 13  1  0
 14 15  2  0
 15 16  1  0
 16 17  2  0
 18 10  1  0
 19 18  2  0
 20 18  1  0
 21 20  1  0
 21 22  1  1
 22 23  1  0
 23 24  2  0
 24 25  1  0
 26 25  2  0
 27 26  1  0
 28 27  2  0
 28 23  1  0
 29 30  1  0
 29 21  1  0
 31 29  2  0
M  END
$$$$
