DFF.pdb
     RDKit          3D

 31 32  0  0  1  0  0  0  0  0999 V2000
   10.7113  -16.7844   18.6605 N   0  0  0  0  0  0  0  0  0  0  0  0
   10.4284  -17.7001   19.7500 C   0  0  1  0  0  0  0  0  0  0  0  0
   11.5481  -18.6702   19.9590 C   0  0  0  0  0  0  0  0  0  0  0  0
   11.6796  -19.5754   18.7959 C   0  0  0  0  0  0  0  0  0  0  0  0
   12.8114  -19.7457   18.2910 O   0  0  0  0  0  0  0  0  0  0  0  0
   10.2832  -16.8815   20.9961 C   0  0  0  0  0  0  0  0  0  0  0  0
   11.2592  -16.1914   21.3791 O   0  0  0  0  0  0  0  0  0  0  0  0
   10.5825  -20.2307   18.2616 O   0  0  0  0  0  0  0  0  0  0  0  0
    9.0964  -16.8634   21.7427 N   0  0  0  0  0  0  0  0  0  0  0  0
    8.9056  -15.9722   22.9075 C   0  0  1  0  0  0  0  0  0  0  0  0
    7.4897  -15.4963   22.9108 C   0  0  0  0  0  0  0  0  0  0  0  0
    7.0576  -14.6649   24.0288 C   0  0  0  0  0  0  0  0  0  0  0  0
    6.1824  -15.1443   24.9968 C   0  0  0  0  0  0  0  0  0  0  0  0
    5.7970  -14.3859   26.0782 C   0  0  0  0  0  0  0  0  0  0  0  0
    6.2730  -13.1163   26.2333 C   0  0  0  0  0  0  0  0  0  0  0  0
    7.1322  -12.6116   25.3058 C   0  0  0  0  0  0  0  0  0  0  0  0
    7.5241  -13.3836   24.2055 C   0  0  0  0  0  0  0  0  0  0  0  0
    9.2568  -16.8008   24.0764 C   0  0  0  0  0  0  0  0  0  0  0  0
    8.7993  -17.9939   24.2038 O   0  0  0  0  0  0  0  0  0  0  0  0
   10.1048  -16.3471   25.1014 N   0  0  0  0  0  0  0  0  0  0  0  0
   10.5740  -17.3017   26.1060 C   0  0  1  0  0  0  0  0  0  0  0  0
   11.7535  -16.5999   26.7939 C   0  0  0  0  0  0  0  0  0  0  0  0
   11.3531  -15.4048   27.5382 C   0  0  0  0  0  0  0  0  0  0  0  0
   11.2539  -15.5193   28.9254 C   0  0  0  0  0  0  0  0  0  0  0  0
   10.8865  -14.4122   29.6590 C   0  0  0  0  0  0  0  0  0  0  0  0
   10.6128  -13.1915   29.0665 C   0  0  0  0  0  0  0  0  0  0  0  0
   10.7143  -13.0936   27.7027 C   0  0  0  0  0  0  0  0  0  0  0  0
   11.0784  -14.1840   26.9559 C   0  0  0  0  0  0  0  0  0  0  0  0
    9.5441  -17.6765   27.0832 C   0  0  0  0  0  0  0  0  0  0  0  0
    9.7697  -18.7006   27.9823 O   0  0  0  0  0  0  0  0  0  0  0  0
    8.4430  -17.0945   27.1377 O   0  0  0  0  0  0  0  0  0  0  0  0
  2  1  1  6
  2  3  1  0
  3  4  1  0
  4  8  1  0
  5  4  2  0
  6  2  1  0
  6  7  2  0
  9  6  1  0
 10  9  1  0
 10 11  1  1
 12 11  1  0
 12 17  1  0
 13 12  2  0
 14 13  1  0
 14 15  2  0
 15 16  1  0
 16 17  2  0
 18 10  1  0
 19 18  2  0
 20 18  1  0
 21 20  1  0
 21 22  1  1
 22 23  1  0
 23 24  2  0
 24 25  1  0
 26 25  2  0
 27 26  1  0
 28 27  2  0
 28 23  1  0
 29 30  1  0
 29 21  1  0
 31 29  2  0
M  END
$$$$
