DFF.pdb
     RDKit          3D

 31 32  0  0  1  0  0  0  0  0999 V2000
    9.6339  -16.6807   19.7585 N   0  0  0  0  0  0  0  0  0  0  0  0
    9.9442  -17.3350   21.0159 C   0  0  1  0  0  0  0  0  0  0  0  0
   11.2869  -17.9939   20.9773 C   0  0  0  0  0  0  0  0  0  0  0  0
   11.4253  -18.8277   19.7627 C   0  0  0  0  0  0  0  0  0  0  0  0
   10.5020  -19.6182   19.4672 O   0  0  0  0  0  0  0  0  0  0  0  0
    9.9756  -16.2763   22.0752 C   0  0  0  0  0  0  0  0  0  0  0  0
   10.9978  -15.5547   22.1737 O   0  0  0  0  0  0  0  0  0  0  0  0
   12.5481  -18.7490   18.9553 O   0  0  0  0  0  0  0  0  0  0  0  0
    8.9033  -16.0690   22.9547 N   0  0  0  0  0  0  0  0  0  0  0  0
    8.8963  -14.9784   23.9537 C   0  0  1  0  0  0  0  0  0  0  0  0
    7.5286  -14.3788   23.9883 C   0  0  0  0  0  0  0  0  0  0  0  0
    7.2528  -13.3808   25.0159 C   0  0  0  0  0  0  0  0  0  0  0  0
    7.9145  -12.1584   25.0398 C   0  0  0  0  0  0  0  0  0  0  0  0
    7.6368  -11.1917   25.9786 C   0  0  0  0  0  0  0  0  0  0  0  0
    6.6848  -11.4108   26.9315 C   0  0  0  0  0  0  0  0  0  0  0  0
    6.0153  -12.5961   26.9407 C   0  0  0  0  0  0  0  0  0  0  0  0
    6.2981  -13.5796   25.9853 C   0  0  0  0  0  0  0  0  0  0  0  0
    9.2940  -15.6248   25.2187 C   0  0  0  0  0  0  0  0  0  0  0  0
    9.4379  -14.9401   26.2955 O   0  0  0  0  0  0  0  0  0  0  0  0
    9.5289  -17.0066   25.3242 N   0  0  0  0  0  0  0  0  0  0  0  0
    9.8687  -17.5687   26.6316 C   0  0  1  0  0  0  0  0  0  0  0  0
    9.2561  -18.9764   26.6249 C   0  0  0  0  0  0  0  0  0  0  0  0
    9.9598  -19.9025   25.7363 C   0  0  0  0  0  0  0  0  0  0  0  0
    9.5048  -21.2211   25.6978 C   0  0  0  0  0  0  0  0  0  0  0  0
   10.1391  -22.1190   24.8668 C   0  0  0  0  0  0  0  0  0  0  0  0
   11.2113  -21.7569   24.0698 C   0  0  0  0  0  0  0  0  0  0  0  0
   11.6476  -20.4580   24.1178 C   0  0  0  0  0  0  0  0  0  0  0  0
   11.0294  -19.5503   24.9383 C   0  0  0  0  0  0  0  0  0  0  0  0
   11.3136  -17.6264   26.8862 C   0  0  0  0  0  0  0  0  0  0  0  0
   12.2128  -17.2124   25.9229 O   0  0  0  0  0  0  0  0  0  0  0  0
   11.7775  -18.0456   27.9647 O   0  0  0  0  0  0  0  0  0  0  0  0
  2  1  1  6
  2  3  1  0
  3  4  1  0
  4  8  1  0
  5  4  2  0
  6  2  1  0
  6  7  2  0
  9  6  1  0
 10  9  1  0
 10 11  1  1
 12 11  1  0
 12 17  1  0
 13 12  2  0
 14 13  1  0
 14 15  2  0
 15 16  1  0
 16 17  2  0
 18 10  1  0
 19 18  2  0
 20 18  1  0
 21 20  1  0
 21 22  1  6
 22 23  1  0
 23 24  2  0
 24 25  1  0
 26 25  2  0
 27 26  1  0
 28 27  2  0
 28 23  1  0
 29 30  1  0
 29 21  1  0
 31 29  2  0
M  END
$$$$
