IAD.pdb
     RDKit          3D

 22 21  0  0  1  0  0  0  0  0999 V2000
   16.9749  -11.0809  -20.4174 C   0  0  0  0  0  0  0  0  0  0  0  0
   17.8548  -11.7160  -19.3639 C   0  0  0  0  0  0  0  0  0  0  0  0
   18.3758  -10.6745  -18.3733 C   0  0  2  0  0  0  0  0  0  0  0  0
   19.1433   -9.6441  -19.1034 C   0  0  0  0  0  0  0  0  0  0  0  0
   19.0954  -11.3997  -17.2965 C   0  0  2  0  0  0  0  0  0  0  0  0
   18.2189  -12.4427  -16.7930 N   0  0  0  0  0  0  0  0  0  0  0  0
   19.6684  -10.5679  -16.2414 C   0  0  0  0  0  0  0  0  0  0  0  0
   18.9012   -9.8044  -15.5997 O   0  0  0  0  0  0  0  0  0  0  0  0
   23.0126  -10.0033  -14.5140 C   0  0  0  0  0  0  0  0  0  0  0  0
   21.6167   -9.6462  -14.9072 C   0  0  2  0  0  0  0  0  0  0  0  0
   21.0391  -10.5438  -15.8687 N   0  0  0  0  0  0  0  0  0  0  0  0
   21.5949   -8.2314  -15.3652 C   0  0  0  0  0  0  0  0  0  0  0  0
   21.7422   -7.9184  -16.5794 O   0  0  0  0  0  0  0  0  0  0  0  0
   21.4061   -7.2010  -14.4351 N   0  0  0  0  0  0  0  0  0  0  0  0
   21.3761   -5.7860  -14.7090 C   0  0  1  0  0  0  0  0  0  0  0  0
   20.0074   -5.2489  -14.9187 C   0  0  0  0  0  0  0  0  0  0  0  0
   20.0070   -3.7821  -15.1035 C   0  0  0  0  0  0  0  0  0  0  0  0
   20.8468   -3.2212  -15.8370 O   0  0  0  0  0  0  0  0  0  0  0  0
   22.2006   -5.0814  -13.7250 C   0  0  0  0  0  0  0  0  0  0  0  0
   22.4449   -3.7307  -13.8618 O   0  0  0  0  0  0  0  0  0  0  0  0
   19.0756   -2.9619  -14.4719 O   0  0  0  0  0  0  0  0  0  0  0  0
   22.7017   -5.6851  -12.7364 O   0  0  0  0  0  0  0  0  0  0  0  0
  2  3  1  0
  2  1  1  0
  3  5  1  0
  3  4  1  6
  5  6  1  1
  7  5  1  0
  8  7  2  0
 10  9  1  6
 10 12  1  0
 10 11  1  0
 11  7  1  0
 12 14  1  0
 13 12  2  0
 14 15  1  0
 15 16  1  1
 15 19  1  0
 16 17  1  0
 17 21  1  0
 17 18  2  0
 19 22  2  0
 19 20  1  0
M  END
$$$$
