IAD.pdb
     RDKit          3D

 22 21  0  0  1  0  0  0  0  0999 V2000
   18.7812  -11.3672  -21.4007 C   0  0  0  0  0  0  0  0  0  0  0  0
   19.5729  -11.9432  -20.2479 C   0  0  0  0  0  0  0  0  0  0  0  0
   19.7091  -10.9336  -19.1079 C   0  0  2  0  0  0  0  0  0  0  0  0
   20.3458   -9.7013  -19.6174 C   0  0  0  0  0  0  0  0  0  0  0  0
   20.3928  -11.6175  -17.9818 C   0  0  2  0  0  0  0  0  0  0  0  0
   19.7021  -12.8702  -17.7301 N   0  0  0  0  0  0  0  0  0  0  0  0
   20.5928  -10.8163  -16.7772 C   0  0  0  0  0  0  0  0  0  0  0  0
   19.5955  -10.2400  -16.2707 O   0  0  0  0  0  0  0  0  0  0  0  0
   23.3516   -9.9614  -14.3035 C   0  0  0  0  0  0  0  0  0  0  0  0
   22.0505   -9.7420  -15.0032 C   0  0  2  0  0  0  0  0  0  0  0  0
   21.8351  -10.6263  -16.1146 N   0  0  0  0  0  0  0  0  0  0  0  0
   21.9492   -8.3092  -15.3886 C   0  0  0  0  0  0  0  0  0  0  0  0
   22.3791   -7.8818  -16.4960 O   0  0  0  0  0  0  0  0  0  0  0  0
   21.3619   -7.3910  -14.5086 N   0  0  0  0  0  0  0  0  0  0  0  0
   21.2100   -5.9725  -14.7162 C   0  0  1  0  0  0  0  0  0  0  0  0
   19.7986   -5.5121  -14.6738 C   0  0  0  0  0  0  0  0  0  0  0  0
   19.6845   -4.0491  -14.8532 C   0  0  0  0  0  0  0  0  0  0  0  0
   19.8611   -3.5173  -15.9684 O   0  0  0  0  0  0  0  0  0  0  0  0
   22.1491   -5.2506  -13.8550 C   0  0  0  0  0  0  0  0  0  0  0  0
   22.6113   -4.0037  -14.2217 O   0  0  0  0  0  0  0  0  0  0  0  0
   19.3765   -3.2003  -13.7930 O   0  0  0  0  0  0  0  0  0  0  0  0
   22.5534   -5.7446  -12.7663 O   0  0  0  0  0  0  0  0  0  0  0  0
  2  3  1  0
  2  1  1  0
  3  5  1  0
  3  4  1  6
  5  6  1  1
  7  5  1  0
  8  7  2  0
 10  9  1  6
 10 12  1  0
 10 11  1  0
 11  7  1  0
 12 14  1  0
 13 12  2  0
 14 15  1  0
 15 16  1  1
 15 19  1  0
 16 17  1  0
 17 21  1  0
 17 18  2  0
 19 22  2  0
 19 20  1  0
M  END
$$$$
