IAD.pdb
     RDKit          3D

 22 21  0  0  1  0  0  0  0  0999 V2000
   26.9502  -10.4861  -15.1864 C   0  0  0  0  0  0  0  0  0  0  0  0
   26.0784  -10.7371  -16.3965 C   0  0  0  0  0  0  0  0  0  0  0  0
   25.1442  -11.9263  -16.1713 C   0  0  2  0  0  0  0  0  0  0  0  0
   25.9480  -13.1455  -15.9451 C   0  0  0  0  0  0  0  0  0  0  0  0
   24.1848  -11.9641  -17.3033 C   0  0  2  0  0  0  0  0  0  0  0  0
   24.9423  -12.1451  -18.5293 N   0  0  0  0  0  0  0  0  0  0  0  0
   23.2344  -10.8571  -17.3699 C   0  0  0  0  0  0  0  0  0  0  0  0
   23.6524   -9.7330  -17.7506 O   0  0  0  0  0  0  0  0  0  0  0  0
   19.4978  -10.2661  -17.1437 C   0  0  0  0  0  0  0  0  0  0  0  0
   20.9287   -9.8417  -17.0896 C   0  0  2  0  0  0  0  0  0  0  0  0
   21.8556  -10.9379  -17.0371 N   0  0  0  0  0  0  0  0  0  0  0  0
   21.1049   -8.8934  -15.9576 C   0  0  0  0  0  0  0  0  0  0  0  0
   21.4637   -9.2795  -14.8104 O   0  0  0  0  0  0  0  0  0  0  0  0
   20.8702   -7.5259  -16.1514 N   0  0  0  0  0  0  0  0  0  0  0  0
   21.0610   -6.4722  -15.1864 C   0  0  1  0  0  0  0  0  0  0  0  0
   22.1213   -5.5033  -15.5642 C   0  0  0  0  0  0  0  0  0  0  0  0
   22.1786   -4.3517  -14.6389 C   0  0  0  0  0  0  0  0  0  0  0  0
   22.5319   -4.4925  -13.4502 O   0  0  0  0  0  0  0  0  0  0  0  0
   19.7622   -5.8984  -14.8280 C   0  0  0  0  0  0  0  0  0  0  0  0
   18.6882   -6.0191  -15.6852 O   0  0  0  0  0  0  0  0  0  0  0  0
   21.8433   -3.0632  -15.0474 O   0  0  0  0  0  0  0  0  0  0  0  0
   19.5938   -5.2870  -13.7368 O   0  0  0  0  0  0  0  0  0  0  0  0
  2  3  1  0
  2  1  1  0
  3  5  1  0
  3  4  1  6
  5  6  1  6
  7  5  1  0
  8  7  2  0
 10  9  1  1
 10 12  1  0
 10 11  1  0
 11  7  1  0
 12 14  1  0
 13 12  2  0
 14 15  1  0
 15 16  1  6
 15 19  1  0
 16 17  1  0
 17 21  1  0
 17 18  2  0
 19 22  2  0
 19 20  1  0
M  END
$$$$
