IAD.pdb
     RDKit          3D

 22 21  0  0  1  0  0  0  0  0999 V2000
   25.3844  -13.3543  -15.3115 C   0  0  0  0  0  0  0  0  0  0  0  0
   24.0340  -13.2557  -15.9853 C   0  0  0  0  0  0  0  0  0  0  0  0
   23.5681  -11.8030  -16.0865 C   0  0  2  0  0  0  0  0  0  0  0  0
   23.4861  -11.2188  -14.7316 C   0  0  0  0  0  0  0  0  0  0  0  0
   22.3224  -11.7862  -16.8933 C   0  0  2  0  0  0  0  0  0  0  0  0
   22.5659  -12.5367  -18.1127 N   0  0  0  0  0  0  0  0  0  0  0  0
   21.7365  -10.4699  -17.1328 C   0  0  0  0  0  0  0  0  0  0  0  0
   22.3941   -9.6375  -17.8094 O   0  0  0  0  0  0  0  0  0  0  0  0
   18.4460   -8.6495  -16.7419 C   0  0  0  0  0  0  0  0  0  0  0  0
   19.9362   -8.7130  -16.8197 C   0  0  2  0  0  0  0  0  0  0  0  0
   20.4677  -10.0382  -16.6614 N   0  0  0  0  0  0  0  0  0  0  0  0
   20.5086   -7.7501  -15.8415 C   0  0  0  0  0  0  0  0  0  0  0  0
   20.7997   -8.0887  -14.6606 O   0  0  0  0  0  0  0  0  0  0  0  0
   20.7389   -6.4223  -16.2243 N   0  0  0  0  0  0  0  0  0  0  0  0
   21.3129   -5.3776  -15.4136 C   0  0  1  0  0  0  0  0  0  0  0  0
   21.8307   -4.2295  -16.2006 C   0  0  0  0  0  0  0  0  0  0  0  0
   22.3507   -3.1500  -15.3346 C   0  0  0  0  0  0  0  0  0  0  0  0
   22.5066   -3.3215  -14.1082 O   0  0  0  0  0  0  0  0  0  0  0  0
   20.3946   -5.0479  -14.3215 C   0  0  0  0  0  0  0  0  0  0  0  0
   20.8659   -4.9191  -13.0315 O   0  0  0  0  0  0  0  0  0  0  0  0
   22.6890   -1.8984  -15.8429 O   0  0  0  0  0  0  0  0  0  0  0  0
   19.1623   -4.8733  -14.5308 O   0  0  0  0  0  0  0  0  0  0  0  0
  2  3  1  0
  2  1  1  0
  3  5  1  0
  3  4  1  1
  5  6  1  6
  7  5  1  0
  8  7  2  0
 10  9  1  1
 10 12  1  0
 10 11  1  0
 11  7  1  0
 12 14  1  0
 13 12  2  0
 14 15  1  0
 15 16  1  6
 15 19  1  0
 16 17  1  0
 17 21  1  0
 17 18  2  0
 19 22  2  0
 19 20  1  0
M  END
$$$$
