IAD.pdb
     RDKit          3D

 22 21  0  0  1  0  0  0  0  0999 V2000
   26.7205  -15.6006  -15.2353 C   0  0  0  0  0  0  0  0  0  0  0  0
   25.3318  -15.5540  -15.8326 C   0  0  0  0  0  0  0  0  0  0  0  0
   24.7950  -14.1232  -15.8802 C   0  0  2  0  0  0  0  0  0  0  0  0
   24.7860  -13.5571  -14.5152 C   0  0  0  0  0  0  0  0  0  0  0  0
   23.4942  -14.1553  -16.5942 C   0  0  2  0  0  0  0  0  0  0  0  0
   23.6718  -14.9158  -17.8189 N   0  0  0  0  0  0  0  0  0  0  0  0
   22.8521  -12.8607  -16.8065 C   0  0  0  0  0  0  0  0  0  0  0  0
   23.5396  -11.9255  -17.2924 O   0  0  0  0  0  0  0  0  0  0  0  0
   19.4042  -11.4034  -17.0656 C   0  0  0  0  0  0  0  0  0  0  0  0
   20.8604  -11.2935  -16.7528 C   0  0  2  0  0  0  0  0  0  0  0  0
   21.4965  -12.5580  -16.5079 N   0  0  0  0  0  0  0  0  0  0  0  0
   21.0378  -10.3400  -15.6253 C   0  0  0  0  0  0  0  0  0  0  0  0
   21.1517  -10.7302  -14.4300 O   0  0  0  0  0  0  0  0  0  0  0  0
   21.0823   -8.9628  -15.8781 N   0  0  0  0  0  0  0  0  0  0  0  0
   21.3036   -7.9149  -14.9132 C   0  0  1  0  0  0  0  0  0  0  0  0
   21.8843   -6.6795  -15.4982 C   0  0  0  0  0  0  0  0  0  0  0  0
   22.0664   -5.6167  -14.4868 C   0  0  0  0  0  0  0  0  0  0  0  0
   22.0181   -5.8693  -13.2654 O   0  0  0  0  0  0  0  0  0  0  0  0
   20.0981   -7.7378  -14.1007 C   0  0  0  0  0  0  0  0  0  0  0  0
   18.8498   -7.8182  -14.6820 O   0  0  0  0  0  0  0  0  0  0  0  0
   22.2990   -4.2916  -14.8466 O   0  0  0  0  0  0  0  0  0  0  0  0
   20.1699   -7.5115  -12.8612 O   0  0  0  0  0  0  0  0  0  0  0  0
  2  3  1  0
  2  1  1  0
  3  5  1  0
  3  4  1  1
  5  6  1  6
  7  5  1  0
  8  7  2  0
 10  9  1  1
 10 12  1  0
 10 11  1  0
 11  7  1  0
 12 14  1  0
 13 12  2  0
 14 15  1  0
 15 16  1  6
 15 19  1  0
 16 17  1  0
 17 21  1  0
 17 18  2  0
 19 22  2  0
 19 20  1  0
M  END
$$$$
