SRY.pdb
     RDKit          3D

 30 30  0  0  1  0  0  0  0  0999 V2000
    7.9124  -19.3359   24.9091 O   0  0  0  0  0  0  0  0  0  0  0  0
    8.0846  -20.2109   23.8337 C   0  0  0  0  0  0  0  0  0  0  0  0
    7.7682  -19.5298   22.5208 C   0  0  2  0  0  0  0  0  0  0  0  0
    8.1926  -20.3881   21.4319 N   0  0  0  0  0  0  0  0  0  0  0  0
    8.4704  -18.2309   22.3807 C   0  0  0  0  0  0  0  0  0  0  0  0
    9.6516  -18.1799   21.9562 O   0  0  0  0  0  0  0  0  0  0  0  0
    8.2263  -14.3034   17.6542 N   0  0  0  0  0  0  0  0  0  0  0  0
    8.1121  -13.0915   18.4080 C   0  0  0  0  0  0  0  0  0  0  0  0
    8.8168  -12.0630   18.0748 N   0  0  0  0  0  0  0  0  0  0  0  0
    7.2431  -13.0081   19.5051 N   0  0  0  0  0  0  0  0  0  0  0  0
    6.4388  -14.1457   19.8936 C   0  0  0  0  0  0  0  0  0  0  0  0
    7.2592  -15.1674   20.6422 C   0  0  0  0  0  0  0  0  0  0  0  0
    7.7497  -14.6306   21.9831 C   0  0  0  0  0  0  0  0  0  0  0  0
    8.4696  -15.7080   22.6961 C   0  0  2  0  0  0  0  0  0  0  0  0
    7.8774  -16.9863   22.7063 N   0  0  0  0  0  0  0  0  0  0  0  0
    8.8567  -15.3328   24.0919 C   0  0  0  0  0  0  0  0  0  0  0  0
    8.5204  -14.2349   24.5724 O   0  0  0  0  0  0  0  0  0  0  0  0
    8.6997  -11.1354   18.5508 O   0  0  0  0  0  0  0  0  0  0  0  0
    6.3660  -10.9110   26.2647 C   0  0  0  0  0  0  0  0  0  0  0  0
    6.9352  -12.1583   26.4511 C   0  0  0  0  0  0  0  0  0  0  0  0
    8.1968  -12.2770   26.9889 C   0  0  0  0  0  0  0  0  0  0  0  0
    8.7642  -13.5110   27.1752 C   0  0  0  0  0  0  0  0  0  0  0  0
    8.0427  -14.6258   26.8119 C   0  0  0  0  0  0  0  0  0  0  0  0
    8.6486  -15.9462   27.0105 C   0  0  2  0  0  0  0  0  0  0  0  0
    9.9746  -16.0070   26.2400 N   0  0  0  0  0  0  0  0  0  0  0  0
    9.6038  -16.2377   24.8499 C   0  0  0  0  0  0  0  0  0  0  0  0
   10.6767  -17.2125   26.7248 O   0  0  0  0  0  0  0  0  0  0  0  0
   10.7724  -18.2136   25.9787 C   0  0  0  0  0  0  0  0  0  0  0  0
    6.7843  -14.5165   26.2750 C   0  0  0  0  0  0  0  0  0  0  0  0
    6.2216  -13.2755   26.0911 O   0  0  0  0  0  0  0  0  0  0  0  0
  2  1  1  0
  3  2  1  0
  3  4  1  6
  5  6  2  0
  5  3  1  0
  7  8  1  0
  8  9  2  0
 10 11  1  0
 10  8  1  0
 11 12  1  0
 12 13  1  0
 14 13  1  1
 14 15  1  0
 15  5  1  0
 16 14  1  0
 17 16  2  0
 18 19  1  0
 19 20  2  0
 19 29  1  0
 20 21  1  0
 21 22  2  0
 22 23  1  0
 24 23  1  6
 24 25  1  0
 25 16  1  0
 26 30  1  0
 26 24  1  0
 27 26  2  0
 28 22  1  0
 29 28  2  0
M  END
$$$$
