SRY.pdb
     RDKit          3D

 30 30  0  0  1  0  0  0  0  0999 V2000
    8.2885  -12.0717   18.0705 O   0  0  0  0  0  0  0  0  0  0  0  0
    7.6327  -12.7338   19.1115 C   0  0  0  0  0  0  0  0  0  0  0  0
    8.5790  -13.0226   20.2554 C   0  0  2  0  0  0  0  0  0  0  0  0
    9.8418  -13.4869   19.7149 N   0  0  0  0  0  0  0  0  0  0  0  0
    8.0556  -14.0721   21.1634 C   0  0  0  0  0  0  0  0  0  0  0  0
    6.9557  -13.9245   21.7519 O   0  0  0  0  0  0  0  0  0  0  0  0
    8.3634  -20.3883   17.7877 N   0  0  0  0  0  0  0  0  0  0  0  0
    7.8178  -19.1882   17.2291 C   0  0  0  0  0  0  0  0  0  0  0  0
    8.0341  -18.9048   15.9889 N   0  0  0  0  0  0  0  0  0  0  0  0
    7.0503  -18.3159   18.0139 N   0  0  0  0  0  0  0  0  0  0  0  0
    6.8440  -18.5818   19.4206 C   0  0  0  0  0  0  0  0  0  0  0  0
    7.1074  -17.3526   20.2554 C   0  0  0  0  0  0  0  0  0  0  0  0
    8.0360  -17.6505   21.4284 C   0  0  0  0  0  0  0  0  0  0  0  0
    8.2904  -16.3956   22.1687 C   0  0  2  0  0  0  0  0  0  0  0  0
    8.7384  -15.2851   21.4266 N   0  0  0  0  0  0  0  0  0  0  0  0
    9.1782  -16.5844   23.3583 C   0  0  0  0  0  0  0  0  0  0  0  0
    9.6523  -17.7034   23.6275 O   0  0  0  0  0  0  0  0  0  0  0  0
    7.6469  -18.0367   15.5448 O   0  0  0  0  0  0  0  0  0  0  0  0
    5.7581  -10.9002   26.6297 C   0  0  0  0  0  0  0  0  0  0  0  0
    6.4160  -12.1142   26.5424 C   0  0  0  0  0  0  0  0  0  0  0  0
    7.5553  -12.3458   27.2794 C   0  0  0  0  0  0  0  0  0  0  0  0
    8.2101  -13.5473   27.1957 C   0  0  0  0  0  0  0  0  0  0  0  0
    7.7010  -14.5142   26.3583 C   0  0  0  0  0  0  0  0  0  0  0  0
    8.4005  -15.7998   26.2678 C   0  0  2  0  0  0  0  0  0  0  0  0
    9.7593  -15.5809   25.5884 N   0  0  0  0  0  0  0  0  0  0  0  0
    9.4679  -15.4808   24.1643 C   0  0  0  0  0  0  0  0  0  0  0  0
   10.5311  -16.8215   25.8040 O   0  0  0  0  0  0  0  0  0  0  0  0
   10.7607  -17.5822   24.8363 C   0  0  0  0  0  0  0  0  0  0  0  0
    6.5657  -14.2918   25.6200 C   0  0  0  0  0  0  0  0  0  0  0  0
    5.9143  -13.0841   25.7091 O   0  0  0  0  0  0  0  0  0  0  0  0
  2  1  1  0
  3  2  1  0
  3  4  1  6
  5  6  2  0
  5  3  1  0
  7  8  1  0
  8  9  2  0
 10 11  1  0
 10  8  1  0
 11 12  1  0
 12 13  1  0
 14 13  1  6
 14 15  1  0
 15  5  1  0
 16 14  1  0
 17 16  2  0
 18 19  1  0
 19 20  2  0
 19 29  1  0
 20 21  1  0
 21 22  2  0
 22 23  1  0
 24 23  1  1
 24 25  1  0
 25 16  1  0
 26 30  1  0
 26 24  1  0
 27 26  2  0
 28 22  1  0
 29 28  2  0
M  END
$$$$
