SRY.pdb
     RDKit          3D

 30 30  0  0  1  0  0  0  0  0999 V2000
    6.5938  -13.0112   21.3380 O   0  0  0  0  0  0  0  0  0  0  0  0
    6.6821  -13.0279   19.9438 C   0  0  0  0  0  0  0  0  0  0  0  0
    8.0743  -13.4071   19.4904 C   0  0  2  0  0  0  0  0  0  0  0  0
    8.0846  -13.5148   18.0445 N   0  0  0  0  0  0  0  0  0  0  0  0
    8.5097  -14.7099   20.0500 C   0  0  0  0  0  0  0  0  0  0  0  0
    8.2856  -15.7821   19.4350 O   0  0  0  0  0  0  0  0  0  0  0  0
   14.5891  -15.7055   17.6512 N   0  0  0  0  0  0  0  0  0  0  0  0
   14.9112  -14.9278   18.8093 C   0  0  0  0  0  0  0  0  0  0  0  0
   15.8725  -14.0685   18.7548 N   0  0  0  0  0  0  0  0  0  0  0  0
   14.1943  -15.0882   20.0036 N   0  0  0  0  0  0  0  0  0  0  0  0
   13.1325  -16.0658   20.0975 C   0  0  0  0  0  0  0  0  0  0  0  0
   11.9631  -15.5311   20.8874 C   0  0  0  0  0  0  0  0  0  0  0  0
   10.9083  -16.6041   21.1383 C   0  0  0  0  0  0  0  0  0  0  0  0
    9.7644  -15.9943   21.8502 C   0  0  2  0  0  0  0  0  0  0  0  0
    9.1916  -14.8378   21.2850 N   0  0  0  0  0  0  0  0  0  0  0  0
   10.0369  -15.7509   23.3011 C   0  0  0  0  0  0  0  0  0  0  0  0
   10.8550  -14.8834   23.6584 O   0  0  0  0  0  0  0  0  0  0  0  0
   16.2074  -13.5593   19.6088 O   0  0  0  0  0  0  0  0  0  0  0  0
    6.6323  -10.6510   25.8552 C   0  0  0  0  0  0  0  0  0  0  0  0
    6.9557  -11.9948   25.9188 C   0  0  0  0  0  0  0  0  0  0  0  0
    6.0878  -12.9459   25.4319 C   0  0  0  0  0  0  0  0  0  0  0  0
    6.4045  -14.2783   25.4931 C   0  0  0  0  0  0  0  0  0  0  0  0
    7.6092  -14.6406   26.0522 C   0  0  0  0  0  0  0  0  0  0  0  0
    7.9491  -16.0654   26.1184 C   0  0  2  0  0  0  0  0  0  0  0  0
    9.4094  -16.2501   25.6835 N   0  0  0  0  0  0  0  0  0  0  0  0
    9.3558  -16.5152   24.2517 C   0  0  0  0  0  0  0  0  0  0  0  0
    9.8849  -17.4785   26.3514 O   0  0  0  0  0  0  0  0  0  0  0  0
   10.0449  -17.4840   27.5933 C   0  0  0  0  0  0  0  0  0  0  0  0
    8.4804  -13.6990   26.5400 C   0  0  0  0  0  0  0  0  0  0  0  0
    8.1560  -12.3643   26.4753 O   0  0  0  0  0  0  0  0  0  0  0  0
  2  1  1  0
  3  2  1  0
  3  4  1  6
  5  6  2  0
  5  3  1  0
  7  8  1  0
  8  9  2  0
 10 11  1  0
 10  8  1  0
 11 12  1  0
 12 13  1  0
 14 13  1  6
 14 15  1  0
 15  5  1  0
 16 14  1  0
 17 16  2  0
 18 19  1  0
 19 20  2  0
 19 29  1  0
 20 21  1  0
 21 22  2  0
 22 23  1  0
 24 23  1  6
 24 25  1  0
 25 16  1  0
 26 30  1  0
 26 24  1  0
 27 26  2  0
 28 22  1  0
 29 28  2  0
M  END
$$$$
