TAK.pdb
     RDKit          3D

 22 21  0  0  1  0  0  0  0  0999 V2000
   25.0812  -13.5976  -17.5097 C   0  0  0  0  0  0  0  0  0  0  0  0
   26.2642  -14.5305  -17.6624 C   0  0  1  0  0  0  0  0  0  0  0  0
   26.6290  -14.5278  -19.0080 O   0  0  0  0  0  0  0  0  0  0  0  0
   27.3816  -13.9694  -16.8163 C   0  0  2  0  0  0  0  0  0  0  0  0
   26.9344  -13.9683  -15.4374 N   0  0  0  0  0  0  0  0  0  0  0  0
   27.7314  -12.5706  -17.2470 C   0  0  0  0  0  0  0  0  0  0  0  0
   26.9487  -11.6178  -16.9950 O   0  0  0  0  0  0  0  0  0  0  0  0
   30.8107  -10.9043  -18.7270 C   0  0  0  0  0  0  0  0  0  0  0  0
   29.3539  -10.9719  -18.3299 C   0  0  2  0  0  0  0  0  0  0  0  0
   28.9413  -12.2980  -17.9408 N   0  0  0  0  0  0  0  0  0  0  0  0
   28.4740  -10.4472  -19.4258 C   0  0  0  0  0  0  0  0  0  0  0  0
   28.0508  -11.2177  -20.3212 O   0  0  0  0  0  0  0  0  0  0  0  0
   28.1169   -9.0932  -19.4598 N   0  0  0  0  0  0  0  0  0  0  0  0
   27.1388   -8.5414  -20.4261 C   0  0  1  0  0  0  0  0  0  0  0  0
   26.6108   -7.2360  -19.9425 C   0  0  0  0  0  0  0  0  0  0  0  0
   25.5957   -6.6640  -20.8608 C   0  0  0  0  0  0  0  0  0  0  0  0
   25.1157   -5.2889  -20.4136 C   0  0  0  0  0  0  0  0  0  0  0  0
   24.0991   -4.7176  -21.3692 C   0  0  0  0  0  0  0  0  0  0  0  0
   23.7018   -3.4205  -20.8243 N   0  0  0  0  0  0  0  0  0  0  0  0
   27.6988   -8.5313  -21.7735 C   0  0  0  0  0  0  0  0  0  0  0  0
   27.0693   -8.7482  -22.8195 O   0  0  0  0  0  0  0  0  0  0  0  0
   29.0745   -8.2519  -21.9110 O   0  0  0  0  0  0  0  0  0  0  0  0
  2  4  1  0
  2  1  1  6
  3  2  1  0
  4  5  1  1
  4  6  1  0
  6  7  2  0
  9  8  1  6
 10  6  1  0
 10  9  1  0
 11  9  1  0
 11 13  1  0
 12 11  2  0
 14 13  1  0
 14 15  1  1
 15 16  1  0
 16 17  1  0
 18 17  1  0
 19 18  1  0
 20 14  1  0
 21 20  2  0
 22 20  1  0
M  END
$$$$
