TAK.pdb
     RDKit          3D

 22 21  0  0  1  0  0  0  0  0999 V2000
   22.8795  -15.3402  -17.6866 C   0  0  0  0  0  0  0  0  0  0  0  0
   24.3905  -15.4349  -17.7164 C   0  0  1  0  0  0  0  0  0  0  0  0
   24.7286  -16.4627  -18.5957 O   0  0  0  0  0  0  0  0  0  0  0  0
   24.9060  -14.1134  -18.2334 C   0  0  2  0  0  0  0  0  0  0  0  0
   26.3283  -14.2572  -18.4742 N   0  0  0  0  0  0  0  0  0  0  0  0
   24.6595  -13.0133  -17.2366 C   0  0  0  0  0  0  0  0  0  0  0  0
   23.4927  -12.7847  -16.8240 O   0  0  0  0  0  0  0  0  0  0  0  0
   26.8535  -10.4896  -15.4005 C   0  0  0  0  0  0  0  0  0  0  0  0
   25.5488  -11.1346  -15.8082 C   0  0  2  0  0  0  0  0  0  0  0  0
   25.7285  -12.2166  -16.7447 N   0  0  0  0  0  0  0  0  0  0  0  0
   24.5949  -10.1156  -16.3579 C   0  0  0  0  0  0  0  0  0  0  0  0
   24.7459   -9.6705  -17.5213 O   0  0  0  0  0  0  0  0  0  0  0  0
   23.5277   -9.6518  -15.5782 N   0  0  0  0  0  0  0  0  0  0  0  0
   22.5396   -8.6635  -16.0701 C   0  0  1  0  0  0  0  0  0  0  0  0
   21.1602   -9.0747  -15.6896 C   0  0  0  0  0  0  0  0  0  0  0  0
   20.7409  -10.3290  -16.3618 C   0  0  0  0  0  0  0  0  0  0  0  0
   19.3108  -10.7246  -16.0159 C   0  0  0  0  0  0  0  0  0  0  0  0
   18.9547  -12.0745  -16.5848 C   0  0  0  0  0  0  0  0  0  0  0  0
   17.6330  -12.4103  -16.0580 N   0  0  0  0  0  0  0  0  0  0  0  0
   22.9238   -7.3131  -15.6729 C   0  0  0  0  0  0  0  0  0  0  0  0
   22.4326   -6.2630  -16.1127 O   0  0  0  0  0  0  0  0  0  0  0  0
   23.9412   -7.1773  -14.7053 O   0  0  0  0  0  0  0  0  0  0  0  0
  2  4  1  0
  2  1  1  6
  3  2  1  0
  4  5  1  1
  4  6  1  0
  6  7  2  0
  9  8  1  6
 10  6  1  0
 10  9  1  0
 11  9  1  0
 11 13  1  0
 12 11  2  0
 14 13  1  0
 14 15  1  1
 15 16  1  0
 16 17  1  0
 18 17  1  0
 19 18  1  0
 20 14  1  0
 21 20  2  0
 22 20  1  0
M  END
$$$$
