TAK.pdb
     RDKit          3D

 22 21  0  0  1  0  0  0  0  0999 V2000
   14.8873  -10.7100  -15.1262 C   0  0  0  0  0  0  0  0  0  0  0  0
   15.4967  -12.0494  -14.7691 C   0  0  1  0  0  0  0  0  0  0  0  0
   15.2660  -12.9132  -15.8387 O   0  0  0  0  0  0  0  0  0  0  0  0
   16.9787  -11.8262  -14.5871 C   0  0  2  0  0  0  0  0  0  0  0  0
   17.6106  -13.1257  -14.4702 N   0  0  0  0  0  0  0  0  0  0  0  0
   17.2514  -11.0066  -13.3548 C   0  0  0  0  0  0  0  0  0  0  0  0
   16.8206  -11.3870  -12.2352 O   0  0  0  0  0  0  0  0  0  0  0  0
   19.1513   -7.7876  -12.6051 C   0  0  0  0  0  0  0  0  0  0  0  0
   18.1891   -8.9139  -12.3050 C   0  0  2  0  0  0  0  0  0  0  0  0
   17.9941   -9.7972  -13.4283 N   0  0  0  0  0  0  0  0  0  0  0  0
   16.8734   -8.3808  -11.8198 C   0  0  0  0  0  0  0  0  0  0  0  0
   16.0040   -7.9993  -12.6402 O   0  0  0  0  0  0  0  0  0  0  0  0
   16.6033   -8.3041  -10.4475 N   0  0  0  0  0  0  0  0  0  0  0  0
   15.4104   -7.6190   -9.8976 C   0  0  1  0  0  0  0  0  0  0  0  0
   14.5387   -8.5897   -9.1803 C   0  0  0  0  0  0  0  0  0  0  0  0
   13.2650   -7.9767   -8.7298 C   0  0  0  0  0  0  0  0  0  0  0  0
   12.3656   -8.9700   -8.0048 C   0  0  0  0  0  0  0  0  0  0  0  0
   11.1133   -8.3099   -7.4863 C   0  0  0  0  0  0  0  0  0  0  0  0
   10.2419   -9.3858   -7.0171 N   0  0  0  0  0  0  0  0  0  0  0  0
   15.8033   -6.4421   -9.1298 C   0  0  0  0  0  0  0  0  0  0  0  0
   16.8260   -6.3400   -8.4361 O   0  0  0  0  0  0  0  0  0  0  0  0
   14.9545   -5.3164   -9.1724 O   0  0  0  0  0  0  0  0  0  0  0  0
  2  4  1  0
  2  1  1  6
  3  2  1  0
  4  5  1  1
  4  6  1  0
  6  7  2  0
  9  8  1  6
 10  6  1  0
 10  9  1  0
 11  9  1  0
 11 13  1  0
 12 11  2  0
 14 13  1  0
 14 15  1  1
 15 16  1  0
 16 17  1  0
 18 17  1  0
 19 18  1  0
 20 14  1  0
 21 20  2  0
 22 20  1  0
M  END
$$$$
