TAK.pdb
     RDKit          3D

 22 21  0  0  1  0  0  0  0  0999 V2000
   29.0788   -8.6460  -18.6383 C   0  0  0  0  0  0  0  0  0  0  0  0
   29.0314   -9.8792  -19.5157 C   0  0  1  0  0  0  0  0  0  0  0  0
   30.2554   -9.9702  -20.1769 O   0  0  0  0  0  0  0  0  0  0  0  0
   28.8415  -11.0653  -18.6010 C   0  0  2  0  0  0  0  0  0  0  0  0
   28.9469  -12.2661  -19.4063 N   0  0  0  0  0  0  0  0  0  0  0  0
   27.4980  -11.0130  -17.9250 C   0  0  0  0  0  0  0  0  0  0  0  0
   26.4530  -11.2745  -18.5758 O   0  0  0  0  0  0  0  0  0  0  0  0
   26.2437  -10.5288  -14.3735 C   0  0  0  0  0  0  0  0  0  0  0  0
   26.1175  -10.4932  -15.8793 C   0  0  2  0  0  0  0  0  0  0  0  0
   27.3816  -10.6705  -16.5507 N   0  0  0  0  0  0  0  0  0  0  0  0
   25.4537   -9.2266  -16.3326 C   0  0  0  0  0  0  0  0  0  0  0  0
   26.1332   -8.1887  -16.5214 O   0  0  0  0  0  0  0  0  0  0  0  0
   24.0704   -9.1906  -16.5491 N   0  0  0  0  0  0  0  0  0  0  0  0
   23.3511   -7.9642  -16.9659 C   0  0  1  0  0  0  0  0  0  0  0  0
   22.3735   -8.2767  -18.0445 C   0  0  0  0  0  0  0  0  0  0  0  0
   21.6377   -7.0731  -18.5036 C   0  0  0  0  0  0  0  0  0  0  0  0
   20.7178   -7.3677  -19.6818 C   0  0  0  0  0  0  0  0  0  0  0  0
   20.0971   -6.1082  -20.2305 C   0  0  0  0  0  0  0  0  0  0  0  0
   19.3097   -6.5081  -21.3955 N   0  0  0  0  0  0  0  0  0  0  0  0
   22.8037   -7.2711  -15.8044 C   0  0  0  0  0  0  0  0  0  0  0  0
   22.3235   -7.8143  -14.7986 O   0  0  0  0  0  0  0  0  0  0  0  0
   22.8162   -5.8606  -15.8149 O   0  0  0  0  0  0  0  0  0  0  0  0
  2  4  1  0
  2  1  1  1
  3  2  1  0
  4  5  1  6
  4  6  1  0
  6  7  2  0
  9  8  1  1
 10  6  1  0
 10  9  1  0
 11  9  1  0
 11 13  1  0
 12 11  2  0
 14 13  1  0
 14 15  1  6
 15 16  1  0
 16 17  1  0
 18 17  1  0
 19 18  1  0
 20 14  1  0
 21 20  2  0
 22 20  1  0
M  END
$$$$
