TAK.pdb
     RDKit          3D

 22 21  0  0  1  0  0  0  0  0999 V2000
   18.2133  -11.5885  -14.8551 C   0  0  0  0  0  0  0  0  0  0  0  0
   16.9797  -11.0776  -15.5694 C   0  0  1  0  0  0  0  0  0  0  0  0
   16.3500  -12.1749  -16.1550 O   0  0  0  0  0  0  0  0  0  0  0  0
   16.0862  -10.4596  -14.5210 C   0  0  2  0  0  0  0  0  0  0  0  0
   14.8121  -10.1620  -15.1455 N   0  0  0  0  0  0  0  0  0  0  0  0
   16.6973   -9.2002  -13.9686 C   0  0  0  0  0  0  0  0  0  0  0  0
   17.0507   -8.2759  -14.7462 O   0  0  0  0  0  0  0  0  0  0  0  0
   17.4613   -7.8633  -10.4812 C   0  0  0  0  0  0  0  0  0  0  0  0
   17.5394   -7.8814  -11.9906 C   0  0  2  0  0  0  0  0  0  0  0  0
   16.8866   -9.0293  -12.5705 N   0  0  0  0  0  0  0  0  0  0  0  0
   18.9630   -7.7947  -12.4555 C   0  0  0  0  0  0  0  0  0  0  0  0
   19.6899   -8.8174  -12.4621 O   0  0  0  0  0  0  0  0  0  0  0  0
   19.4938   -6.5721  -12.8862 N   0  0  0  0  0  0  0  0  0  0  0  0
   20.8841   -6.4247  -13.3764 C   0  0  1  0  0  0  0  0  0  0  0  0
   21.0333   -7.0608  -14.7142 C   0  0  0  0  0  0  0  0  0  0  0  0
   22.4019   -6.9012  -15.2642 C   0  0  0  0  0  0  0  0  0  0  0  0
   22.5543   -7.5390  -16.6394 C   0  0  0  0  0  0  0  0  0  0  0  0
   23.9435   -7.3434  -17.1916 C   0  0  0  0  0  0  0  0  0  0  0  0
   23.9990   -8.0902  -18.4472 N   0  0  0  0  0  0  0  0  0  0  0  0
   21.3125   -5.0324  -13.2924 C   0  0  0  0  0  0  0  0  0  0  0  0
   20.5718   -4.0418  -13.3788 O   0  0  0  0  0  0  0  0  0  0  0  0
   22.6860   -4.7783  -13.0960 O   0  0  0  0  0  0  0  0  0  0  0  0
  2  4  1  0
  2  1  1  1
  3  2  1  0
  4  5  1  6
  4  6  1  0
  6  7  2  0
  9  8  1  1
 10  6  1  0
 10  9  1  0
 11  9  1  0
 11 13  1  0
 12 11  2  0
 14 13  1  0
 14 15  1  6
 15 16  1  0
 16 17  1  0
 18 17  1  0
 19 18  1  0
 20 14  1  0
 21 20  2  0
 22 20  1  0
M  END
$$$$
