TAK.pdb
     RDKit          3D

 22 21  0  0  1  0  0  0  0  0999 V2000
   24.9473  -21.8614  -18.1432 C   0  0  0  0  0  0  0  0  0  0  0  0
   26.0958  -22.1980  -17.2154 C   0  0  1  0  0  0  0  0  0  0  0  0
   27.2183  -22.4356  -18.0072 O   0  0  0  0  0  0  0  0  0  0  0  0
   26.3216  -20.9916  -16.3361 C   0  0  2  0  0  0  0  0  0  0  0  0
   27.5011  -21.2450  -15.5321 N   0  0  0  0  0  0  0  0  0  0  0  0
   25.1333  -20.7450  -15.4464 C   0  0  0  0  0  0  0  0  0  0  0  0
   24.9155  -21.4965  -14.4607 O   0  0  0  0  0  0  0  0  0  0  0  0
   22.4947  -18.0146  -15.1752 C   0  0  0  0  0  0  0  0  0  0  0  0
   23.1147  -19.3547  -14.8522 C   0  0  2  0  0  0  0  0  0  0  0  0
   24.2401  -19.6686  -15.6977 N   0  0  0  0  0  0  0  0  0  0  0  0
   22.0898  -20.4486  -14.9122 C   0  0  0  0  0  0  0  0  0  0  0  0
   21.8392  -21.0219  -15.9999 O   0  0  0  0  0  0  0  0  0  0  0  0
   21.4036  -20.8400  -13.7556 N   0  0  0  0  0  0  0  0  0  0  0  0
   20.4453  -21.9696  -13.7299 C   0  0  1  0  0  0  0  0  0  0  0  0
   20.3544  -22.5425  -12.3587 C   0  0  0  0  0  0  0  0  0  0  0  0
   19.4242  -23.6962  -12.2910 C   0  0  0  0  0  0  0  0  0  0  0  0
   19.2395  -24.2120  -10.8694 C   0  0  0  0  0  0  0  0  0  0  0  0
   18.3075  -25.3962  -10.8248 C   0  0  0  0  0  0  0  0  0  0  0  0
   18.0601  -25.6754   -9.4113 N   0  0  0  0  0  0  0  0  0  0  0  0
   19.1751  -21.5781  -14.3319 C   0  0  0  0  0  0  0  0  0  0  0  0
   18.4799  -22.2848  -15.0766 O   0  0  0  0  0  0  0  0  0  0  0  0
   18.6849  -20.2859  -14.0496 O   0  0  0  0  0  0  0  0  0  0  0  0
  2  4  1  0
  2  1  1  6
  3  2  1  0
  4  5  1  1
  4  6  1  0
  6  7  2  0
  9  8  1  6
 10  6  1  0
 10  9  1  0
 11  9  1  0
 11 13  1  0
 12 11  2  0
 14 13  1  0
 14 15  1  1
 15 16  1  0
 16 17  1  0
 18 17  1  0
 19 18  1  0
 20 14  1  0
 21 20  2  0
 22 20  1  0
M  END
$$$$
