TAK.pdb
     RDKit          3D

 22 21  0  0  1  0  0  0  0  0999 V2000
   21.4311  -15.8512  -19.5360 C   0  0  0  0  0  0  0  0  0  0  0  0
   21.2821  -14.6063  -18.6868 C   0  0  1  0  0  0  0  0  0  0  0  0
   19.9236  -14.2988  -18.6287 O   0  0  0  0  0  0  0  0  0  0  0  0
   21.8011  -14.9456  -17.3103 C   0  0  2  0  0  0  0  0  0  0  0  0
   21.0250  -16.0623  -16.8080 N   0  0  0  0  0  0  0  0  0  0  0  0
   21.6725  -13.7682  -16.3820 C   0  0  0  0  0  0  0  0  0  0  0  0
   20.5743  -13.5266  -15.8167 O   0  0  0  0  0  0  0  0  0  0  0  0
   24.0320  -11.0988  -15.0338 C   0  0  0  0  0  0  0  0  0  0  0  0
   22.6819  -11.6995  -15.3512 C   0  0  2  0  0  0  0  0  0  0  0  0
   22.7775  -12.9120  -16.1263 N   0  0  0  0  0  0  0  0  0  0  0  0
   21.7993  -10.7018  -16.0413 C   0  0  0  0  0  0  0  0  0  0  0  0
   21.7736  -10.6398  -17.2942 O   0  0  0  0  0  0  0  0  0  0  0  0
   20.9964   -9.8307  -15.2939 N   0  0  0  0  0  0  0  0  0  0  0  0
   20.1519   -8.7822  -15.9122 C   0  0  1  0  0  0  0  0  0  0  0  0
   18.7122   -9.0487  -15.6419 C   0  0  0  0  0  0  0  0  0  0  0  0
   17.8276   -8.0141  -16.2319 C   0  0  0  0  0  0  0  0  0  0  0  0
   16.3657   -8.2129  -15.8517 C   0  0  0  0  0  0  0  0  0  0  0  0
   15.4873   -7.1388  -16.4413 C   0  0  0  0  0  0  0  0  0  0  0  0
   14.1622   -7.3167  -15.8501 N   0  0  0  0  0  0  0  0  0  0  0  0
   20.6256   -7.4544  -15.5361 C   0  0  0  0  0  0  0  0  0  0  0  0
   21.3602   -7.1954  -14.5714 O   0  0  0  0  0  0  0  0  0  0  0  0
   20.2195   -6.3624  -16.3313 O   0  0  0  0  0  0  0  0  0  0  0  0
  2  4  1  0
  2  1  1  6
  3  2  1  0
  4  5  1  1
  4  6  1  0
  6  7  2  0
  9  8  1  6
 10  6  1  0
 10  9  1  0
 11  9  1  0
 11 13  1  0
 12 11  2  0
 14 13  1  0
 14 15  1  1
 15 16  1  0
 16 17  1  0
 18 17  1  0
 19 18  1  0
 20 14  1  0
 21 20  2  0
 22 20  1  0
M  END
$$$$
