QFI.pdb
     RDKit          3D

 29 29  0  0  1  0  0  0  0  0999 V2000
   26.8713  -20.4050  -16.1043 N   0  0  0  0  0  0  0  0  0  0  0  0
   28.0095  -19.5561  -16.2046 C   0  0  0  0  0  0  0  0  0  0  0  0
   28.3669  -19.0690  -17.3269 O   0  0  0  0  0  0  0  0  0  0  0  0
   28.8263  -19.2039  -15.0047 C   0  0  0  0  0  0  0  0  0  0  0  0
   28.1422  -19.6551  -13.7490 C   0  0  0  0  0  0  0  0  0  0  0  0
   29.0194  -20.7098  -13.0802 C   0  0  2  0  0  0  0  0  0  0  0  0
   28.9804  -21.8767  -13.9215 N   0  0  0  0  0  0  0  0  0  0  0  0
   28.4880  -21.0314  -11.7554 C   0  0  0  0  0  0  0  0  0  0  0  0
   27.4378  -21.7150  -11.6576 O   0  0  0  0  0  0  0  0  0  0  0  0
   29.0872  -20.6169  -10.5356 N   0  0  0  0  0  0  0  0  0  0  0  0
   28.4608  -20.7438   -9.2318 C   0  0  1  0  0  0  0  0  0  0  0  0
   29.3815  -20.3295   -8.1244 C   0  0  0  0  0  0  0  0  0  0  0  0
   28.7573  -20.2169   -6.8044 C   0  0  0  0  0  0  0  0  0  0  0  0
   28.1741  -19.0313   -6.4167 C   0  0  0  0  0  0  0  0  0  0  0  0
   27.5760  -18.9066   -5.1571 C   0  0  0  0  0  0  0  0  0  0  0  0
   27.5662  -19.9738   -4.2922 C   0  0  0  0  0  0  0  0  0  0  0  0
   28.1433  -21.1604   -4.6653 C   0  0  0  0  0  0  0  0  0  0  0  0
   28.7275  -21.2571   -5.9149 C   0  0  0  0  0  0  0  0  0  0  0  0
   27.1090  -20.1978   -9.1893 C   0  0  0  0  0  0  0  0  0  0  0  0
   26.9082  -19.0059   -9.5827 O   0  0  0  0  0  0  0  0  0  0  0  0
   22.2701  -19.9825  -11.9594 C   0  0  0  0  0  0  0  0  0  0  0  0
   22.7260  -19.9597  -10.5027 C   0  0  0  0  0  0  0  0  0  0  0  0
   24.1370  -20.4474  -10.3520 C   0  0  2  0  0  0  0  0  0  0  0  0
   24.1306  -21.9033  -10.8463 C   0  0  0  0  0  0  0  0  0  0  0  0
   24.5948  -20.3961   -8.9561 C   0  0  2  0  0  0  0  0  0  0  0  0
   25.9526  -20.8619   -8.7498 N   0  0  0  0  0  0  0  0  0  0  0  0
   23.7370  -21.2019   -8.0718 C   0  0  0  0  0  0  0  0  0  0  0  0
   22.3693  -20.9846   -7.8950 O   0  0  0  0  0  0  0  0  0  0  0  0
   24.1930  -22.1708   -7.3900 O   0  0  0  0  0  0  0  0  0  0  0  0
  2  1  1  0
  3  2  2  0
  4  2  1  0
  5  6  1  0
  5  4  1  0
  6  7  1  6
  8  6  1  0
  8  9  2  0
 10  8  1  0
 11 10  1  0
 11 12  1  1
 13 12  1  0
 13 18  2  0
 14 13  1  0
 15 14  2  0
 15 16  1  0
 16 17  2  0
 17 18  1  0
 19 11  1  0
 20 19  2  0
 21 22  1  0
 22 23  1  0
 23 25  1  0
 23 24  1  1
 25 26  1  6
 26 19  1  0
 27 25  1  0
 28 27  1  0
 29 27  2  0
M  END
$$$$
