QFI.pdb
     RDKit          3D

 29 29  0  0  1  0  0  0  0  0999 V2000
   34.9946  -40.8366   -7.2665 N   0  0  0  0  0  0  0  0  0  0  0  0
   34.5788  -40.7692   -5.9067 C   0  0  0  0  0  0  0  0  0  0  0  0
   33.3839  -40.4466   -5.6021 O   0  0  0  0  0  0  0  0  0  0  0  0
   35.5212  -41.0723   -4.7884 C   0  0  0  0  0  0  0  0  0  0  0  0
   35.3615  -40.0768   -3.6785 C   0  0  0  0  0  0  0  0  0  0  0  0
   36.0361  -38.7756   -4.1037 C   0  0  2  0  0  0  0  0  0  0  0  0
   37.4183  -38.8786   -3.7166 N   0  0  0  0  0  0  0  0  0  0  0  0
   35.4092  -37.6439   -3.4203 C   0  0  0  0  0  0  0  0  0  0  0  0
   35.7077  -37.3988   -2.2243 O   0  0  0  0  0  0  0  0  0  0  0  0
   34.4606  -36.7757   -4.0247 N   0  0  0  0  0  0  0  0  0  0  0  0
   33.8862  -35.6115   -3.3742 C   0  0  1  0  0  0  0  0  0  0  0  0
   33.6546  -34.4876   -4.3379 C   0  0  0  0  0  0  0  0  0  0  0  0
   32.9887  -33.3111   -3.7748 C   0  0  0  0  0  0  0  0  0  0  0  0
   31.6678  -33.0590   -4.0713 C   0  0  0  0  0  0  0  0  0  0  0  0
   31.0176  -31.9372   -3.5433 C   0  0  0  0  0  0  0  0  0  0  0  0
   31.6974  -31.0732   -2.7196 C   0  0  0  0  0  0  0  0  0  0  0  0
   33.0131  -31.3121   -2.4161 C   0  0  0  0  0  0  0  0  0  0  0  0
   33.6318  -32.4272   -2.9506 C   0  0  0  0  0  0  0  0  0  0  0  0
   32.7791  -35.9400   -2.4834 C   0  0  0  0  0  0  0  0  0  0  0  0
   31.8588  -36.7137   -2.8960 O   0  0  0  0  0  0  0  0  0  0  0  0
   33.0642  -37.5243    2.6817 C   0  0  0  0  0  0  0  0  0  0  0  0
   32.6684  -37.2826    1.2273 C   0  0  0  0  0  0  0  0  0  0  0  0
   31.7977  -36.0693    1.0804 C   0  0  2  0  0  0  0  0  0  0  0  0
   30.5162  -36.3766    1.8722 C   0  0  0  0  0  0  0  0  0  0  0  0
   31.4629  -35.7946   -0.3243 C   0  0  2  0  0  0  0  0  0  0  0  0
   32.6028  -35.4865   -1.1663 N   0  0  0  0  0  0  0  0  0  0  0  0
   30.5313  -34.6617   -0.4504 C   0  0  0  0  0  0  0  0  0  0  0  0
   29.1462  -34.7945   -0.5647 O   0  0  0  0  0  0  0  0  0  0  0  0
   30.9326  -33.4575   -0.4678 O   0  0  0  0  0  0  0  0  0  0  0  0
  2  1  1  0
  3  2  2  0
  4  2  1  0
  5  6  1  0
  5  4  1  0
  6  7  1  1
  8  6  1  0
  8  9  2  0
 10  8  1  0
 11 10  1  0
 11 12  1  6
 13 12  1  0
 13 18  2  0
 14 13  1  0
 15 14  2  0
 15 16  1  0
 16 17  2  0
 17 18  1  0
 19 11  1  0
 20 19  2  0
 21 22  1  0
 22 23  1  0
 23 25  1  0
 23 24  1  1
 25 26  1  6
 26 19  1  0
 27 25  1  0
 28 27  1  0
 29 27  2  0
M  END
$$$$
