QFI.pdb
     RDKit          3D

 29 29  0  0  1  0  0  0  0  0999 V2000
   29.1404  -18.0384  -17.2451 N   0  0  0  0  0  0  0  0  0  0  0  0
   28.4609  -18.6353  -18.3444 C   0  0  0  0  0  0  0  0  0  0  0  0
   28.8166  -18.3934  -19.5442 O   0  0  0  0  0  0  0  0  0  0  0  0
   27.3099  -19.5642  -18.1368 C   0  0  0  0  0  0  0  0  0  0  0  0
   26.9963  -19.6987  -16.6767 C   0  0  0  0  0  0  0  0  0  0  0  0
   28.0155  -20.6496  -16.0553 C   0  0  2  0  0  0  0  0  0  0  0  0
   28.0703  -21.8113  -16.9028 N   0  0  0  0  0  0  0  0  0  0  0  0
   27.5833  -21.0324  -14.7108 C   0  0  0  0  0  0  0  0  0  0  0  0
   26.7054  -21.9208  -14.5709 O   0  0  0  0  0  0  0  0  0  0  0  0
   28.0965  -20.4586  -13.5165 N   0  0  0  0  0  0  0  0  0  0  0  0
   27.4782  -20.5987  -12.2102 C   0  0  1  0  0  0  0  0  0  0  0  0
   28.3358  -20.0316  -11.1200 C   0  0  0  0  0  0  0  0  0  0  0  0
   27.6879  -19.9211   -9.8112 C   0  0  0  0  0  0  0  0  0  0  0  0
   27.9200  -20.8741   -8.8447 C   0  0  0  0  0  0  0  0  0  0  0  0
   27.3062  -20.7844   -7.5897 C   0  0  0  0  0  0  0  0  0  0  0  0
   26.4614  -19.7375   -7.3110 C   0  0  0  0  0  0  0  0  0  0  0  0
   26.2213  -18.7815   -8.2643 C   0  0  0  0  0  0  0  0  0  0  0  0
   26.8402  -18.8935   -9.4957 C   0  0  0  0  0  0  0  0  0  0  0  0
   26.0721  -20.2114  -12.1965 C   0  0  0  0  0  0  0  0  0  0  0  0
   25.7435  -19.0521  -12.6013 O   0  0  0  0  0  0  0  0  0  0  0  0
   22.5590  -21.4495  -15.4207 C   0  0  0  0  0  0  0  0  0  0  0  0
   23.3054  -20.7552  -14.2845 C   0  0  0  0  0  0  0  0  0  0  0  0
   22.8403  -21.2300  -12.9392 C   0  0  2  0  0  0  0  0  0  0  0  0
   21.3589  -20.8294  -12.8443 C   0  0  0  0  0  0  0  0  0  0  0  0
   23.5963  -20.6108  -11.8413 C   0  0  2  0  0  0  0  0  0  0  0  0
   24.9912  -21.0020  -11.7745 N   0  0  0  0  0  0  0  0  0  0  0  0
   23.0094  -20.9283  -10.5291 C   0  0  0  0  0  0  0  0  0  0  0  0
   21.8859  -20.2922   -9.9979 O   0  0  0  0  0  0  0  0  0  0  0  0
   23.4978  -21.8211   -9.7703 O   0  0  0  0  0  0  0  0  0  0  0  0
  2  1  1  0
  3  2  2  0
  4  2  1  0
  5  6  1  0
  5  4  1  0
  6  7  1  6
  8  6  1  0
  8  9  2  0
 10  8  1  0
 11 10  1  0
 11 12  1  1
 13 12  1  0
 13 18  2  0
 14 13  1  0
 15 14  2  0
 15 16  1  0
 16 17  2  0
 17 18  1  0
 19 11  1  0
 20 19  2  0
 21 22  1  0
 22 23  1  0
 23 25  1  0
 23 24  1  1
 25 26  1  1
 26 19  1  0
 27 25  1  0
 28 27  1  0
 29 27  2  0
M  END
$$$$
