QFI.pdb
     RDKit          3D

 29 29  0  0  1  0  0  0  0  0999 V2000
   27.6585  -19.3344  -16.4592 N   0  0  0  0  0  0  0  0  0  0  0  0
   28.0539  -18.5318  -15.3521 C   0  0  0  0  0  0  0  0  0  0  0  0
   29.1384  -17.8627  -15.3819 O   0  0  0  0  0  0  0  0  0  0  0  0
   27.2182  -18.4420  -14.1175 C   0  0  0  0  0  0  0  0  0  0  0  0
   26.6492  -19.7840  -13.7660 C   0  0  0  0  0  0  0  0  0  0  0  0
   27.7586  -20.6230  -13.1379 C   0  0  2  0  0  0  0  0  0  0  0  0
   27.8083  -21.8610  -13.8700 N   0  0  0  0  0  0  0  0  0  0  0  0
   27.4481  -20.8863  -11.7325 C   0  0  0  0  0  0  0  0  0  0  0  0
   26.5310  -21.6946  -11.4408 O   0  0  0  0  0  0  0  0  0  0  0  0
   28.1251  -20.2791  -10.6408 N   0  0  0  0  0  0  0  0  0  0  0  0
   27.7734  -20.4796   -9.2463 C   0  0  1  0  0  0  0  0  0  0  0  0
   28.8569  -20.0138   -8.3219 C   0  0  0  0  0  0  0  0  0  0  0  0
   28.5024  -20.0044   -6.9010 C   0  0  0  0  0  0  0  0  0  0  0  0
   27.8701  -18.9094   -6.3556 C   0  0  0  0  0  0  0  0  0  0  0  0
   27.5272  -18.8837   -4.9986 C   0  0  0  0  0  0  0  0  0  0  0  0
   27.8210  -19.9585   -4.1949 C   0  0  0  0  0  0  0  0  0  0  0  0
   28.4504  -21.0555   -4.7249 C   0  0  0  0  0  0  0  0  0  0  0  0
   28.7782  -21.0554   -6.0682 C   0  0  0  0  0  0  0  0  0  0  0  0
   26.4183  -20.0441   -8.9282 C   0  0  0  0  0  0  0  0  0  0  0  0
   26.0439  -18.8789   -9.2718 O   0  0  0  0  0  0  0  0  0  0  0  0
   21.3283  -20.1770  -10.9797 C   0  0  0  0  0  0  0  0  0  0  0  0
   21.9491  -20.1645   -9.5852 C   0  0  0  0  0  0  0  0  0  0  0  0
   23.4007  -20.5433   -9.6174 C   0  0  2  0  0  0  0  0  0  0  0  0
   23.4459  -21.9768  -10.1714 C   0  0  0  0  0  0  0  0  0  0  0  0
   24.0130  -20.5047   -8.2817 C   0  0  2  0  0  0  0  0  0  0  0  0
   25.4344  -20.7921   -8.2619 N   0  0  0  0  0  0  0  0  0  0  0  0
   23.3790  -21.4654   -7.3640 C   0  0  0  0  0  0  0  0  0  0  0  0
   22.1510  -21.2550   -6.7340 O   0  0  0  0  0  0  0  0  0  0  0  0
   23.9193  -22.5765   -7.0724 O   0  0  0  0  0  0  0  0  0  0  0  0
  2  1  1  0
  3  2  2  0
  4  2  1  0
  5  6  1  0
  5  4  1  0
  6  7  1  6
  8  6  1  0
  8  9  2  0
 10  8  1  0
 11 10  1  0
 11 12  1  1
 13 12  1  0
 13 18  2  0
 14 13  1  0
 15 14  2  0
 15 16  1  0
 16 17  2  0
 17 18  1  0
 19 11  1  0
 20 19  2  0
 21 22  1  0
 22 23  1  0
 23 25  1  0
 23 24  1  1
 25 26  1  6
 26 19  1  0
 27 25  1  0
 28 27  1  0
 29 27  2  0
M  END
$$$$
