QFI.pdb
     RDKit          3D

 29 29  0  0  1  0  0  0  0  0999 V2000
   18.2343  -18.1145  -15.2310 N   0  0  0  0  0  0  0  0  0  0  0  0
   19.3806  -17.3377  -15.5611 C   0  0  0  0  0  0  0  0  0  0  0  0
   19.4462  -16.7025  -16.6641 O   0  0  0  0  0  0  0  0  0  0  0  0
   20.5463  -17.2366  -14.6328 C   0  0  0  0  0  0  0  0  0  0  0  0
   21.5911  -18.2531  -14.9840 C   0  0  0  0  0  0  0  0  0  0  0  0
   22.5320  -17.6340  -16.0138 C   0  0  2  0  0  0  0  0  0  0  0  0
   22.1137  -18.1184  -17.3028 N   0  0  0  0  0  0  0  0  0  0  0  0
   23.9080  -18.0531  -15.7456 C   0  0  0  0  0  0  0  0  0  0  0  0
   24.2291  -19.2592  -15.8934 O   0  0  0  0  0  0  0  0  0  0  0  0
   24.9387  -17.1734  -15.3180 N   0  0  0  0  0  0  0  0  0  0  0  0
   26.3287  -17.5601  -15.1542 C   0  0  1  0  0  0  0  0  0  0  0  0
   27.2675  -16.4818  -15.6027 C   0  0  0  0  0  0  0  0  0  0  0  0
   27.3550  -16.2951  -17.0526 C   0  0  0  0  0  0  0  0  0  0  0  0
   26.5652  -15.3546  -17.6753 C   0  0  0  0  0  0  0  0  0  0  0  0
   26.6349  -15.1660  -19.0608 C   0  0  0  0  0  0  0  0  0  0  0  0
   27.4980  -15.9232  -19.8150 C   0  0  0  0  0  0  0  0  0  0  0  0
   28.2903  -16.8635  -19.2078 C   0  0  0  0  0  0  0  0  0  0  0  0
   28.2021  -17.0299  -17.8380 C   0  0  0  0  0  0  0  0  0  0  0  0
   26.6071  -18.1631  -13.8557 C   0  0  0  0  0  0  0  0  0  0  0  0
   26.6589  -17.4211  -12.8248 O   0  0  0  0  0  0  0  0  0  0  0  0
   23.6837  -20.6483  -10.7932 C   0  0  0  0  0  0  0  0  0  0  0  0
   24.8699  -19.8873  -11.3800 C   0  0  0  0  0  0  0  0  0  0  0  0
   26.0358  -20.7928  -11.6488 C   0  0  2  0  0  0  0  0  0  0  0  0
   26.4816  -21.3187  -10.2744 C   0  0  0  0  0  0  0  0  0  0  0  0
   27.1488  -20.0852  -12.2976 C   0  0  2  0  0  0  0  0  0  0  0  0
   26.8308  -19.5249  -13.5969 N   0  0  0  0  0  0  0  0  0  0  0  0
   28.3124  -20.9651  -12.4947 C   0  0  0  0  0  0  0  0  0  0  0  0
   29.2256  -21.2942  -11.4912 O   0  0  0  0  0  0  0  0  0  0  0  0
   28.5743  -21.4952  -13.6180 O   0  0  0  0  0  0  0  0  0  0  0  0
  2  1  1  0
  3  2  2  0
  4  2  1  0
  5  6  1  0
  5  4  1  0
  6  7  1  6
  8  6  1  0
  8  9  2  0
 10  8  1  0
 11 10  1  0
 11 12  1  1
 13 12  1  0
 13 18  2  0
 14 13  1  0
 15 14  2  0
 15 16  1  0
 16 17  2  0
 17 18  1  0
 19 11  1  0
 20 19  2  0
 21 22  1  0
 22 23  1  0
 23 25  1  0
 23 24  1  1
 25 26  1  6
 26 19  1  0
 27 25  1  0
 28 27  1  0
 29 27  2  0
M  END
$$$$
