HQM.pdb
     RDKit          3D

 28 28  0  0  1  0  0  0  0  0999 V2000
   20.2914  -10.4816  -20.9534 N   0  0  0  0  0  0  0  0  0  0  0  0
   21.0348  -10.5762  -19.7352 C   0  0  1  0  0  0  0  0  0  0  0  0
   22.0545  -11.7023  -19.7827 C   0  0  0  0  0  0  0  0  0  0  0  0
   21.3201  -13.0058  -19.8064 C   0  0  0  0  0  0  0  0  0  0  0  0
   20.2287  -13.3283  -19.0081 C   0  0  0  0  0  0  0  0  0  0  0  0
   19.8225  -14.5837  -19.2977 N   0  0  0  0  0  0  0  0  0  0  0  0
   20.6329  -15.0549  -20.2578 C   0  0  0  0  0  0  0  0  0  0  0  0
   21.5442  -14.0914  -20.5656 N   0  0  0  0  0  0  0  0  0  0  0  0
   21.7747   -9.3287  -19.4171 C   0  0  0  0  0  0  0  0  0  0  0  0
   22.2965   -8.6805  -20.3341 O   0  0  0  0  0  0  0  0  0  0  0  0
   20.8251   -6.2411  -14.3117 N   0  0  0  0  0  0  0  0  0  0  0  0
   21.8681   -5.3971  -14.7604 C   0  0  0  0  0  0  0  0  0  0  0  0
   22.1493   -4.3686  -14.1291 O   0  0  0  0  0  0  0  0  0  0  0  0
   22.5953   -5.8093  -16.0127 C   0  0  0  0  0  0  0  0  0  0  0  0
   21.9791   -7.0858  -16.4827 C   0  0  0  0  0  0  0  0  0  0  0  0
   22.5906   -7.6511  -17.7344 C   0  0  2  0  0  0  0  0  0  0  0  0
   21.8813   -8.8858  -18.0742 N   0  0  0  0  0  0  0  0  0  0  0  0
   24.0420   -7.8969  -17.6379 C   0  0  0  0  0  0  0  0  0  0  0  0
   24.8968   -6.9836  -17.5340 O   0  0  0  0  0  0  0  0  0  0  0  0
   29.8107  -12.8206  -15.6901 C   0  0  0  0  0  0  0  0  0  0  0  0
   28.0681  -12.3836  -15.4838 S   0  0  0  0  0  0  0  0  0  0  0  0
   27.6931  -11.0180  -16.6122 C   0  0  0  0  0  0  0  0  0  0  0  0
   26.2455  -10.5582  -16.4475 C   0  0  0  0  0  0  0  0  0  0  0  0
   25.9368   -9.5416  -17.5042 C   0  0  2  0  0  0  0  0  0  0  0  0
   24.5469   -9.2482  -17.6608 N   0  0  0  0  0  0  0  0  0  0  0  0
   26.5872   -9.9261  -18.7907 C   0  0  0  0  0  0  0  0  0  0  0  0
   25.9461  -10.6748  -19.5702 O   0  0  0  0  0  0  0  0  0  0  0  0
   27.8412   -9.5105  -19.1703 O   0  0  0  0  0  0  0  0  0  0  0  0
  2  1  1  6
  2  9  1  0
  3  2  1  0
  4  3  1  0
  5  4  2  0
  6  5  1  0
  7  6  1  0
  7  8  2  0
  8  4  1  0
  9 17  1  0
 10  9  2  0
 12 11  1  0
 13 12  2  0
 14 12  1  0
 15 14  1  0
 16 15  1  1
 17 16  1  0
 18 16  1  0
 18 19  2  0
 21 22  1  0
 21 20  1  0
 22 23  1  0
 24 23  1  1
 24 25  1  0
 24 26  1  0
 25 18  1  0
 26 28  1  0
 27 26  2  0
M  END
$$$$
