HQM.pdb
     RDKit          3D

 28 28  0  0  1  0  0  0  0  0999 V2000
   21.9861  -23.1894  -16.5152 N   0  0  0  0  0  0  0  0  0  0  0  0
   21.6040  -24.1540  -15.5308 C   0  0  1  0  0  0  0  0  0  0  0  0
   22.5797  -25.3180  -15.4731 C   0  0  0  0  0  0  0  0  0  0  0  0
   22.5677  -26.0125  -16.7985 C   0  0  0  0  0  0  0  0  0  0  0  0
   23.6049  -25.9964  -17.7239 C   0  0  0  0  0  0  0  0  0  0  0  0
   23.2488  -26.7281  -18.8023 N   0  0  0  0  0  0  0  0  0  0  0  0
   22.0142  -27.2017  -18.5745 C   0  0  0  0  0  0  0  0  0  0  0  0
   21.6019  -26.7641  -17.3530 N   0  0  0  0  0  0  0  0  0  0  0  0
   21.5276  -23.5786  -14.1641 C   0  0  0  0  0  0  0  0  0  0  0  0
   22.4297  -22.8281  -13.7690 O   0  0  0  0  0  0  0  0  0  0  0  0
   19.6172  -19.2467  -13.6471 N   0  0  0  0  0  0  0  0  0  0  0  0
   19.3835  -19.3136  -12.2534 C   0  0  0  0  0  0  0  0  0  0  0  0
   19.1323  -18.2813  -11.6158 O   0  0  0  0  0  0  0  0  0  0  0  0
   19.4555  -20.6725  -11.6089 C   0  0  0  0  0  0  0  0  0  0  0  0
   19.8903  -21.6391  -12.6610 C   0  0  0  0  0  0  0  0  0  0  0  0
   20.0934  -23.0459  -12.1713 C   0  0  2  0  0  0  0  0  0  0  0  0
   20.4301  -23.8875  -13.3209 N   0  0  0  0  0  0  0  0  0  0  0  0
   18.9383  -23.6026  -11.4420 C   0  0  0  0  0  0  0  0  0  0  0  0
   17.7975  -23.7407  -11.9471 O   0  0  0  0  0  0  0  0  0  0  0  0
   17.7388  -27.9829   -5.7797 C   0  0  0  0  0  0  0  0  0  0  0  0
   17.4932  -26.1992   -5.6102 S   0  0  0  0  0  0  0  0  0  0  0  0
   17.0933  -25.5287   -7.2440 C   0  0  0  0  0  0  0  0  0  0  0  0
   18.3359  -24.9386   -7.9088 C   0  0  0  0  0  0  0  0  0  0  0  0
   17.9913  -24.5380   -9.3109 C   0  0  2  0  0  0  0  0  0  0  0  0
   19.0872  -24.0232  -10.0700 N   0  0  0  0  0  0  0  0  0  0  0  0
   16.8175  -23.6171   -9.3068 C   0  0  0  0  0  0  0  0  0  0  0  0
   17.0427  -22.3815   -9.2638 O   0  0  0  0  0  0  0  0  0  0  0  0
   15.5104  -24.0403   -9.3471 O   0  0  0  0  0  0  0  0  0  0  0  0
  2  1  1  6
  2  9  1  0
  3  2  1  0
  4  3  1  0
  5  4  2  0
  6  5  1  0
  7  6  1  0
  7  8  2  0
  8  4  1  0
  9 17  1  0
 10  9  2  0
 12 11  1  0
 13 12  2  0
 14 12  1  0
 15 14  1  0
 16 15  1  6
 17 16  1  0
 18 16  1  0
 18 19  2  0
 21 22  1  0
 21 20  1  0
 22 23  1  0
 24 23  1  1
 24 25  1  0
 24 26  1  0
 25 18  1  0
 26 28  1  0
 27 26  2  0
M  END
$$$$
