HQM.pdb
     RDKit          3D

 28 28  0  0  1  0  0  0  0  0999 V2000
   20.1094  -12.8340  -16.2166 N   0  0  0  0  0  0  0  0  0  0  0  0
   19.7866  -12.5326  -17.5769 C   0  0  1  0  0  0  0  0  0  0  0  0
   18.4128  -13.0577  -17.9604 C   0  0  0  0  0  0  0  0  0  0  0  0
   18.4374  -14.5517  -17.8810 C   0  0  0  0  0  0  0  0  0  0  0  0
   18.7886  -15.4063  -18.9195 C   0  0  0  0  0  0  0  0  0  0  0  0
   18.6983  -16.6847  -18.4922 N   0  0  0  0  0  0  0  0  0  0  0  0
   18.2992  -16.6511  -17.2115 C   0  0  0  0  0  0  0  0  0  0  0  0
   18.1410  -15.3504  -16.8419 N   0  0  0  0  0  0  0  0  0  0  0  0
   19.7922  -11.0745  -17.8577 C   0  0  0  0  0  0  0  0  0  0  0  0
   19.6039  -10.6775  -19.0154 O   0  0  0  0  0  0  0  0  0  0  0  0
   16.2204   -7.2678  -16.1160 N   0  0  0  0  0  0  0  0  0  0  0  0
   16.9490   -7.6526  -14.9660 C   0  0  0  0  0  0  0  0  0  0  0  0
   16.4722   -7.4655  -13.8377 O   0  0  0  0  0  0  0  0  0  0  0  0
   18.2980   -8.2842  -15.1864 C   0  0  0  0  0  0  0  0  0  0  0  0
   18.5835   -8.2189  -16.6507 C   0  0  0  0  0  0  0  0  0  0  0  0
   19.9516   -8.7035  -17.0427 C   0  0  2  0  0  0  0  0  0  0  0  0
   20.0116  -10.1472  -16.8076 N   0  0  0  0  0  0  0  0  0  0  0  0
   21.0562   -8.0184  -16.3450 C   0  0  0  0  0  0  0  0  0  0  0  0
   21.5331   -8.4044  -15.2500 O   0  0  0  0  0  0  0  0  0  0  0  0
   26.8822   -2.7115  -16.4427 C   0  0  0  0  0  0  0  0  0  0  0  0
   25.4166   -3.2528  -17.3533 S   0  0  0  0  0  0  0  0  0  0  0  0
   24.6240   -4.5779  -16.4074 C   0  0  0  0  0  0  0  0  0  0  0  0
   23.4172   -5.1362  -17.1595 C   0  0  0  0  0  0  0  0  0  0  0  0
   22.7278   -6.1434  -16.2901 C   0  0  2  0  0  0  0  0  0  0  0  0
   21.6481   -6.8354  -16.9207 N   0  0  0  0  0  0  0  0  0  0  0  0
   22.3257   -5.5151  -14.9981 C   0  0  0  0  0  0  0  0  0  0  0  0
   23.2381   -5.1058  -14.2369 O   0  0  0  0  0  0  0  0  0  0  0  0
   21.0211   -5.3590  -14.5944 O   0  0  0  0  0  0  0  0  0  0  0  0
  2  1  1  1
  2  9  1  0
  3  2  1  0
  4  3  1  0
  5  4  2  0
  6  5  1  0
  7  6  1  0
  7  8  2  0
  8  4  1  0
  9 17  1  0
 10  9  2  0
 12 11  1  0
 13 12  2  0
 14 12  1  0
 15 14  1  0
 16 15  1  1
 17 16  1  0
 18 16  1  0
 18 19  2  0
 21 22  1  0
 21 20  1  0
 22 23  1  0
 24 23  1  6
 24 25  1  0
 24 26  1  0
 25 18  1  0
 26 28  1  0
 27 26  2  0
M  END
$$$$
