HQM.pdb
     RDKit          3D

 28 28  0  0  1  0  0  0  0  0999 V2000
   19.1739  -20.8758  -13.3274 N   0  0  0  0  0  0  0  0  0  0  0  0
   20.2024  -21.0130  -14.3117 C   0  0  1  0  0  0  0  0  0  0  0  0
   19.7540  -20.5017  -15.6710 C   0  0  0  0  0  0  0  0  0  0  0  0
   18.6690  -21.3977  -16.1800 C   0  0  0  0  0  0  0  0  0  0  0  0
   18.8374  -22.7198  -16.5749 C   0  0  0  0  0  0  0  0  0  0  0  0
   17.6474  -23.2183  -16.9756 N   0  0  0  0  0  0  0  0  0  0  0  0
   16.7384  -22.2405  -16.8411 C   0  0  0  0  0  0  0  0  0  0  0  0
   17.3637  -21.1325  -16.3562 N   0  0  0  0  0  0  0  0  0  0  0  0
   21.4406  -20.2759  -13.9533 C   0  0  0  0  0  0  0  0  0  0  0  0
   21.3622  -19.0930  -13.5958 O   0  0  0  0  0  0  0  0  0  0  0  0
   25.9668  -22.9256  -11.2659 N   0  0  0  0  0  0  0  0  0  0  0  0
   26.6622  -21.7012  -11.4030 C   0  0  0  0  0  0  0  0  0  0  0  0
   27.7519  -21.5393  -10.8358 O   0  0  0  0  0  0  0  0  0  0  0  0
   26.0199  -20.6375  -12.2534 C   0  0  0  0  0  0  0  0  0  0  0  0
   24.7225  -21.1884  -12.7466 C   0  0  0  0  0  0  0  0  0  0  0  0
   23.9284  -20.2435  -13.6050 C   0  0  2  0  0  0  0  0  0  0  0  0
   22.7004  -20.9234  -14.0208 N   0  0  0  0  0  0  0  0  0  0  0  0
   24.6623  -19.7349  -14.7792 C   0  0  0  0  0  0  0  0  0  0  0  0
   24.7198  -20.3380  -15.8785 O   0  0  0  0  0  0  0  0  0  0  0  0
   26.7586  -13.5000  -15.8841 C   0  0  0  0  0  0  0  0  0  0  0  0
   28.0744  -14.4747  -16.6513 S   0  0  0  0  0  0  0  0  0  0  0  0
   27.4918  -16.1820  -16.8077 C   0  0  0  0  0  0  0  0  0  0  0  0
   26.7398  -16.6173  -15.5511 C   0  0  0  0  0  0  0  0  0  0  0  0
   26.0974  -17.9467  -15.8068 C   0  0  2  0  0  0  0  0  0  0  0  0
   25.3662  -18.4781  -14.6999 N   0  0  0  0  0  0  0  0  0  0  0  0
   27.1056  -18.9089  -16.3393 C   0  0  0  0  0  0  0  0  0  0  0  0
   27.7132  -19.6368  -15.5145 O   0  0  0  0  0  0  0  0  0  0  0  0
   27.4067  -19.0443  -17.6736 O   0  0  0  0  0  0  0  0  0  0  0  0
  2  1  1  1
  2  9  1  0
  3  2  1  0
  4  3  1  0
  5  4  2  0
  6  5  1  0
  7  6  1  0
  7  8  2  0
  8  4  1  0
  9 17  1  0
 10  9  2  0
 12 11  1  0
 13 12  2  0
 14 12  1  0
 15 14  1  0
 16 15  1  6
 17 16  1  0
 18 16  1  0
 18 19  2  0
 21 22  1  0
 21 20  1  0
 22 23  1  0
 24 23  1  1
 24 25  1  0
 24 26  1  0
 25 18  1  0
 26 28  1  0
 27 26  2  0
M  END
$$$$
