HQM.pdb
     RDKit          3D

 28 28  0  0  1  0  0  0  0  0999 V2000
   18.9326  -12.7296  -18.6497 N   0  0  0  0  0  0  0  0  0  0  0  0
   19.6399  -12.2636  -17.4973 C   0  0  1  0  0  0  0  0  0  0  0  0
   21.0733  -12.7684  -17.4729 C   0  0  0  0  0  0  0  0  0  0  0  0
   21.0485  -14.2597  -17.3528 C   0  0  0  0  0  0  0  0  0  0  0  0
   19.9033  -15.0369  -17.2234 C   0  0  0  0  0  0  0  0  0  0  0  0
   20.2570  -16.3382  -17.1413 N   0  0  0  0  0  0  0  0  0  0  0  0
   21.5955  -16.3944  -17.2162 C   0  0  0  0  0  0  0  0  0  0  0  0
   22.0750  -15.1267  -17.3450 N   0  0  0  0  0  0  0  0  0  0  0  0
   19.6961  -10.7818  -17.4199 C   0  0  0  0  0  0  0  0  0  0  0  0
   19.9511  -10.1288  -18.4406 O   0  0  0  0  0  0  0  0  0  0  0  0
   15.7991   -7.5852  -14.4335 N   0  0  0  0  0  0  0  0  0  0  0  0
   15.6425   -8.1283  -15.7304 C   0  0  0  0  0  0  0  0  0  0  0  0
   14.5097   -8.2637  -16.2141 O   0  0  0  0  0  0  0  0  0  0  0  0
   16.8956   -8.5205  -16.4673 C   0  0  0  0  0  0  0  0  0  0  0  0
   18.0444   -8.2888  -15.5417 C   0  0  0  0  0  0  0  0  0  0  0  0
   19.3867   -8.6630  -16.1059 C   0  0  2  0  0  0  0  0  0  0  0  0
   19.4595  -10.1229  -16.1867 N   0  0  0  0  0  0  0  0  0  0  0  0
   20.5310   -8.1283  -15.3437 C   0  0  0  0  0  0  0  0  0  0  0  0
   20.9281   -8.6108  -14.2551 O   0  0  0  0  0  0  0  0  0  0  0  0
   25.8402   -7.6300  -19.1020 C   0  0  0  0  0  0  0  0  0  0  0  0
   25.2322   -6.2737  -18.0718 S   0  0  0  0  0  0  0  0  0  0  0  0
   24.0187   -6.9498  -16.9103 C   0  0  0  0  0  0  0  0  0  0  0  0
   23.4362   -5.8463  -16.0287 C   0  0  0  0  0  0  0  0  0  0  0  0
   22.3796   -6.4382  -15.1463 C   0  0  2  0  0  0  0  0  0  0  0  0
   21.2601   -6.9882  -15.8437 N   0  0  0  0  0  0  0  0  0  0  0  0
   21.9734   -5.4530  -14.1021 C   0  0  0  0  0  0  0  0  0  0  0  0
   21.0191   -4.6793  -14.3665 O   0  0  0  0  0  0  0  0  0  0  0  0
   22.5799   -5.3436  -12.8735 O   0  0  0  0  0  0  0  0  0  0  0  0
  2  1  1  6
  2  9  1  0
  3  2  1  0
  4  3  1  0
  5  4  2  0
  6  5  1  0
  7  6  1  0
  7  8  2  0
  8  4  1  0
  9 17  1  0
 10  9  2  0
 12 11  1  0
 13 12  2  0
 14 12  1  0
 15 14  1  0
 16 15  1  1
 17 16  1  0
 18 16  1  0
 18 19  2  0
 21 22  1  0
 21 20  1  0
 22 23  1  0
 24 23  1  6
 24 25  1  0
 24 26  1  0
 25 18  1  0
 26 28  1  0
 27 26  2  0
M  END
$$$$
