HQM.pdb
     RDKit          3D

 28 28  0  0  1  0  0  0  0  0999 V2000
   17.0776  -12.5251  -14.7176 N   0  0  0  0  0  0  0  0  0  0  0  0
   16.1659  -11.5730  -14.1626 C   0  0  1  0  0  0  0  0  0  0  0  0
   15.0252  -12.2504  -13.4209 C   0  0  0  0  0  0  0  0  0  0  0  0
   14.1590  -12.9498  -14.4207 C   0  0  0  0  0  0  0  0  0  0  0  0
   12.9401  -12.4803  -14.8963 C   0  0  0  0  0  0  0  0  0  0  0  0
   12.4390  -13.3667  -15.7841 N   0  0  0  0  0  0  0  0  0  0  0  0
   13.3144  -14.3795  -15.8758 C   0  0  0  0  0  0  0  0  0  0  0  0
   14.3612  -14.1227  -15.0441 N   0  0  0  0  0  0  0  0  0  0  0  0
   16.8195  -10.6439  -13.2063 C   0  0  0  0  0  0  0  0  0  0  0  0
   17.6216  -11.0911  -12.3758 O   0  0  0  0  0  0  0  0  0  0  0  0
   17.5415   -4.7063  -15.5044 N   0  0  0  0  0  0  0  0  0  0  0  0
   17.9326   -5.4270  -14.3514 C   0  0  0  0  0  0  0  0  0  0  0  0
   18.5755   -4.8626  -13.4550 O   0  0  0  0  0  0  0  0  0  0  0  0
   17.5338   -6.8771  -14.2791 C   0  0  0  0  0  0  0  0  0  0  0  0
   18.0466   -7.4132  -12.9831 C   0  0  0  0  0  0  0  0  0  0  0  0
   17.0953   -8.3305  -12.2662 C   0  0  2  0  0  0  0  0  0  0  0  0
   16.5257   -9.2572  -13.2460 N   0  0  0  0  0  0  0  0  0  0  0  0
   16.0248   -7.6322  -11.5298 C   0  0  0  0  0  0  0  0  0  0  0  0
   14.9216   -7.3170  -12.0388 O   0  0  0  0  0  0  0  0  0  0  0  0
   12.8468   -5.2948   -4.7251 C   0  0  0  0  0  0  0  0  0  0  0  0
   14.1867   -6.2730   -5.4449 S   0  0  0  0  0  0  0  0  0  0  0  0
   14.1537   -6.0374   -7.2399 C   0  0  0  0  0  0  0  0  0  0  0  0
   15.2798   -6.8212   -7.9121 C   0  0  0  0  0  0  0  0  0  0  0  0
   15.2143   -6.5912   -9.3914 C   0  0  2  0  0  0  0  0  0  0  0  0
   16.2179   -7.2741  -10.1456 N   0  0  0  0  0  0  0  0  0  0  0  0
   15.1794   -5.1282   -9.6814 C   0  0  0  0  0  0  0  0  0  0  0  0
   16.2768   -4.5353   -9.8351 O   0  0  0  0  0  0  0  0  0  0  0  0
   14.0218   -4.3951   -9.7894 O   0  0  0  0  0  0  0  0  0  0  0  0
  2  1  1  1
  2  9  1  0
  3  2  1  0
  4  3  1  0
  5  4  2  0
  6  5  1  0
  7  6  1  0
  7  8  2  0
  8  4  1  0
  9 17  1  0
 10  9  2  0
 12 11  1  0
 13 12  2  0
 14 12  1  0
 15 14  1  0
 16 15  1  6
 17 16  1  0
 18 16  1  0
 18 19  2  0
 21 22  1  0
 21 20  1  0
 22 23  1  0
 24 23  1  1
 24 25  1  0
 24 26  1  0
 25 18  1  0
 26 28  1  0
 27 26  2  0
M  END
$$$$
