HQM.pdb
     RDKit          3D

 28 28  0  0  1  0  0  0  0  0999 V2000
   10.2213  -20.2881   -0.8876 N   0  0  0  0  0  0  0  0  0  0  0  0
   11.1911  -19.7872    0.0367 C   0  0  1  0  0  0  0  0  0  0  0  0
   10.5393  -19.0398    1.1885 C   0  0  0  0  0  0  0  0  0  0  0  0
    9.8540  -17.8281    0.6397 C   0  0  0  0  0  0  0  0  0  0  0  0
   10.4121  -16.5578    0.5554 C   0  0  0  0  0  0  0  0  0  0  0  0
    9.5110  -15.7124    0.0093 N   0  0  0  0  0  0  0  0  0  0  0  0
    8.4024  -16.4225   -0.2503 C   0  0  0  0  0  0  0  0  0  0  0  0
    8.6144  -17.7110    0.1348 N   0  0  0  0  0  0  0  0  0  0  0  0
   12.0267  -20.8622    0.6292 C   0  0  0  0  0  0  0  0  0  0  0  0
   11.6673  -22.0420    0.5194 O   0  0  0  0  0  0  0  0  0  0  0  0
   15.2230  -23.6360   -1.6314 N   0  0  0  0  0  0  0  0  0  0  0  0
   15.7225  -24.2481   -0.4578 C   0  0  0  0  0  0  0  0  0  0  0  0
   16.3899  -25.2891   -0.5365 O   0  0  0  0  0  0  0  0  0  0  0  0
   15.4053  -23.5804    0.8540 C   0  0  0  0  0  0  0  0  0  0  0  0
   14.4803  -22.4453    0.5608 C   0  0  0  0  0  0  0  0  0  0  0  0
   14.1600  -21.5781    1.7464 C   0  0  2  0  0  0  0  0  0  0  0  0
   13.2250  -20.5377    1.3144 N   0  0  0  0  0  0  0  0  0  0  0  0
   15.3433  -20.9768    2.3901 C   0  0  0  0  0  0  0  0  0  0  0  0
   16.1373  -20.2028    1.8019 O   0  0  0  0  0  0  0  0  0  0  0  0
   19.2643  -25.4597    3.6271 C   0  0  0  0  0  0  0  0  0  0  0  0
   19.5136  -23.6692    3.5808 S   0  0  0  0  0  0  0  0  0  0  0  0
   17.9573  -22.8721    4.0513 C   0  0  0  0  0  0  0  0  0  0  0  0
   18.0906  -21.3508    4.0082 C   0  0  0  0  0  0  0  0  0  0  0  0
   16.7900  -20.7382    4.4305 C   0  0  2  0  0  0  0  0  0  0  0  0
   15.6389  -21.2700    3.7715 N   0  0  0  0  0  0  0  0  0  0  0  0
   16.8680  -19.2516    4.3319 C   0  0  0  0  0  0  0  0  0  0  0  0
   16.0440  -18.6704    3.5818 O   0  0  0  0  0  0  0  0  0  0  0  0
   17.7848  -18.4849    5.0108 O   0  0  0  0  0  0  0  0  0  0  0  0
  2  1  1  6
  2  9  1  0
  3  2  1  0
  4  3  1  0
  5  4  2  0
  6  5  1  0
  7  6  1  0
  7  8  2  0
  8  4  1  0
  9 17  1  0
 10  9  2  0
 12 11  1  0
 13 12  2  0
 14 12  1  0
 15 14  1  0
 16 15  1  6
 17 16  1  0
 18 16  1  0
 18 19  2  0
 21 22  1  0
 21 20  1  0
 22 23  1  0
 24 23  1  6
 24 25  1  0
 24 26  1  0
 25 18  1  0
 26 28  1  0
 27 26  2  0
M  END
$$$$
