HQM.pdb
     RDKit          3D

 28 28  0  0  1  0  0  0  0  0999 V2000
   26.9164  -22.0078  -15.7348 N   0  0  0  0  0  0  0  0  0  0  0  0
   27.6151  -20.8885  -15.1827 C   0  0  1  0  0  0  0  0  0  0  0  0
   27.7181  -19.7423  -16.1755 C   0  0  0  0  0  0  0  0  0  0  0  0
   28.5292  -20.2009  -17.3463 C   0  0  0  0  0  0  0  0  0  0  0  0
   29.0925  -21.4637  -17.4888 C   0  0  0  0  0  0  0  0  0  0  0  0
   29.7532  -21.5247  -18.6656 N   0  0  0  0  0  0  0  0  0  0  0  0
   29.6172  -20.3309  -19.2631 C   0  0  0  0  0  0  0  0  0  0  0  0
   28.8710  -19.5266  -18.4570 N   0  0  0  0  0  0  0  0  0  0  0  0
   26.9636  -20.3524  -13.9608 C   0  0  0  0  0  0  0  0  0  0  0  0
   27.3287  -19.2599  -13.5066 O   0  0  0  0  0  0  0  0  0  0  0  0
   21.2333  -21.3946  -12.5050 N   0  0  0  0  0  0  0  0  0  0  0  0
   21.6266  -20.3144  -13.3297 C   0  0  0  0  0  0  0  0  0  0  0  0
   20.7879  -19.7316  -14.0312 O   0  0  0  0  0  0  0  0  0  0  0  0
   23.0811  -19.9256  -13.3059 C   0  0  0  0  0  0  0  0  0  0  0  0
   23.7622  -20.8191  -12.3221 C   0  0  0  0  0  0  0  0  0  0  0  0
   25.2324  -20.5549  -12.1516 C   0  0  2  0  0  0  0  0  0  0  0  0
   25.9328  -21.0871  -13.3218 N   0  0  0  0  0  0  0  0  0  0  0  0
   25.8039  -21.1084  -10.9093 C   0  0  0  0  0  0  0  0  0  0  0  0
   25.8828  -22.3375  -10.6671 O   0  0  0  0  0  0  0  0  0  0  0  0
   29.6809  -19.6242   -5.1921 C   0  0  0  0  0  0  0  0  0  0  0  0
   27.9586  -19.0854   -5.0751 S   0  0  0  0  0  0  0  0  0  0  0  0
   26.9677  -20.1253   -6.1777 C   0  0  0  0  0  0  0  0  0  0  0  0
   27.0411  -19.6167   -7.6164 C   0  0  0  0  0  0  0  0  0  0  0  0
   26.3081  -20.5735   -8.5067 C   0  0  2  0  0  0  0  0  0  0  0  0
   26.3107  -20.2205   -9.8915 N   0  0  0  0  0  0  0  0  0  0  0  0
   24.9321  -20.8107   -7.9810 C   0  0  0  0  0  0  0  0  0  0  0  0
   23.9880  -20.1613   -8.4969 O   0  0  0  0  0  0  0  0  0  0  0  0
   24.6391  -21.6944   -6.9698 O   0  0  0  0  0  0  0  0  0  0  0  0
  2  1  1  6
  2  9  1  0
  3  2  1  0
  4  3  1  0
  5  4  2  0
  6  5  1  0
  7  6  1  0
  7  8  2  0
  8  4  1  0
  9 17  1  0
 10  9  2  0
 12 11  1  0
 13 12  2  0
 14 12  1  0
 15 14  1  0
 16 15  1  6
 17 16  1  0
 18 16  1  0
 18 19  2  0
 21 22  1  0
 21 20  1  0
 22 23  1  0
 24 23  1  1
 24 25  1  0
 24 26  1  0
 25 18  1  0
 26 28  1  0
 27 26  2  0
M  END
$$$$
