HQM.pdb
     RDKit          3D

 28 28  0  0  1  0  0  0  0  0999 V2000
   16.9103  -12.1021  -17.1607 N   0  0  0  0  0  0  0  0  0  0  0  0
   17.9562  -11.5889  -16.3310 C   0  0  1  0  0  0  0  0  0  0  0  0
   19.2697  -12.3175  -16.5638 C   0  0  0  0  0  0  0  0  0  0  0  0
   19.0977  -13.7467  -16.1552 C   0  0  0  0  0  0  0  0  0  0  0  0
   17.9544  -14.2853  -15.5762 C   0  0  0  0  0  0  0  0  0  0  0  0
   18.1534  -15.6007  -15.3414 N   0  0  0  0  0  0  0  0  0  0  0  0
   19.3933  -15.8986  -15.7593 C   0  0  0  0  0  0  0  0  0  0  0  0
   19.9661  -14.7671  -16.2545 N   0  0  0  0  0  0  0  0  0  0  0  0
   18.2108  -10.1438  -16.5581 C   0  0  0  0  0  0  0  0  0  0  0  0
   18.3029   -9.7173  -17.7169 O   0  0  0  0  0  0  0  0  0  0  0  0
   15.3420   -5.6074  -14.6635 N   0  0  0  0  0  0  0  0  0  0  0  0
   15.1252   -6.3974  -15.8170 C   0  0  0  0  0  0  0  0  0  0  0  0
   14.0289   -6.3662  -16.3937 O   0  0  0  0  0  0  0  0  0  0  0  0
   16.2706   -7.2532  -16.2891 C   0  0  0  0  0  0  0  0  0  0  0  0
   17.3955   -7.0576  -15.3267 C   0  0  0  0  0  0  0  0  0  0  0  0
   18.6376   -7.8406  -15.6500 C   0  0  2  0  0  0  0  0  0  0  0  0
   18.3471   -9.2622  -15.4558 N   0  0  0  0  0  0  0  0  0  0  0  0
   19.8222   -7.4418  -14.8665 C   0  0  0  0  0  0  0  0  0  0  0  0
   20.0157   -7.7849  -13.6747 O   0  0  0  0  0  0  0  0  0  0  0  0
   25.1508   -8.4907  -18.4232 C   0  0  0  0  0  0  0  0  0  0  0  0
   24.9378   -6.9864  -17.4424 S   0  0  0  0  0  0  0  0  0  0  0  0
   23.4989   -7.2147  -16.3672 C   0  0  0  0  0  0  0  0  0  0  0  0
   23.2073   -5.9435  -15.5716 C   0  0  0  0  0  0  0  0  0  0  0  0
   21.9818   -6.1640  -14.7379 C   0  0  2  0  0  0  0  0  0  0  0  0
   20.8372   -6.6113  -15.4675 N   0  0  0  0  0  0  0  0  0  0  0  0
   21.6966   -4.9521  -13.9159 C   0  0  0  0  0  0  0  0  0  0  0  0
   22.5708   -4.5848  -13.0912 O   0  0  0  0  0  0  0  0  0  0  0  0
   20.5382   -4.2180  -14.0081 O   0  0  0  0  0  0  0  0  0  0  0  0
  2  1  1  6
  2  9  1  0
  3  2  1  0
  4  3  1  0
  5  4  2  0
  6  5  1  0
  7  6  1  0
  7  8  2  0
  8  4  1  0
  9 17  1  0
 10  9  2  0
 12 11  1  0
 13 12  2  0
 14 12  1  0
 15 14  1  0
 16 15  1  1
 17 16  1  0
 18 16  1  0
 18 19  2  0
 21 22  1  0
 21 20  1  0
 22 23  1  0
 24 23  1  6
 24 25  1  0
 24 26  1  0
 25 18  1  0
 26 28  1  0
 27 26  2  0
M  END
$$$$
