HDL.pdb
     RDKit          3D

 27 27  0  0  1  0  0  0  0  0999 V2000
    8.5951  -17.0445   18.5913 N   0  0  0  0  0  0  0  0  0  0  0  0
    8.6162  -16.0404   19.6252 C   0  0  1  0  0  0  0  0  0  0  0  0
    7.6175  -14.9528   19.3935 C   0  0  0  0  0  0  0  0  0  0  0  0
    7.8215  -14.2893   18.0908 C   0  0  0  0  0  0  0  0  0  0  0  0
    8.4118  -13.0229   17.9047 C   0  0  0  0  0  0  0  0  0  0  0  0
    8.4430  -12.7204   16.6048 N   0  0  0  0  0  0  0  0  0  0  0  0
    7.8933  -13.7511   15.9576 C   0  0  0  0  0  0  0  0  0  0  0  0
    7.5280  -14.6782   16.8483 N   0  0  0  0  0  0  0  0  0  0  0  0
    8.5986  -16.5598   20.9919 C   0  0  0  0  0  0  0  0  0  0  0  0
    7.5670  -17.1654   21.4468 O   0  0  0  0  0  0  0  0  0  0  0  0
    9.6608  -16.4501   21.9167 N   0  0  0  0  0  0  0  0  0  0  0  0
    9.6371  -17.0110   23.2308 C   0  0  1  0  0  0  0  0  0  0  0  0
   10.6266  -18.0638   23.5463 C   0  0  0  0  0  0  0  0  0  0  0  0
   11.3344  -18.6653   22.3978 C   0  0  0  0  0  0  0  0  0  0  0  0
   12.4866  -18.2762   22.1238 O   0  0  0  0  0  0  0  0  0  0  0  0
    9.7891  -15.9456   24.2715 C   0  0  0  0  0  0  0  0  0  0  0  0
   10.7408  -15.1418   24.2797 O   0  0  0  0  0  0  0  0  0  0  0  0
   10.7030  -19.6316   21.6676 O   0  0  0  0  0  0  0  0  0  0  0  0
    5.5753  -13.1076   25.9273 C   0  0  0  0  0  0  0  0  0  0  0  0
    6.9716  -13.5231   25.7074 C   0  0  1  0  0  0  0  0  0  0  0  0
    7.8888  -12.3271   25.4225 C   0  0  0  0  0  0  0  0  0  0  0  0
    7.6639  -14.3721   26.6825 C   0  0  0  0  0  0  0  0  0  0  0  0
    9.0233  -14.8941   26.4164 C   0  0  2  0  0  0  0  0  0  0  0  0
    8.8074  -15.8580   25.2795 N   0  0  0  0  0  0  0  0  0  0  0  0
    9.5212  -15.7456   27.4993 C   0  0  0  0  0  0  0  0  0  0  0  0
   10.2030  -15.2037   28.5853 O   0  0  0  0  0  0  0  0  0  0  0  0
    9.3809  -16.9877   27.5322 O   0  0  0  0  0  0  0  0  0  0  0  0
  2  1  1  6
  3  2  1  0
  4  8  1  0
  4  3  1  0
  5  4  2  0
  6  5  1  0
  6  7  1  0
  7  8  2  0
  9  2  1  0
 10  9  2  0
 11  9  1  0
 12 13  1  6
 12 11  1  0
 13 14  1  0
 14 15  2  0
 16 12  1  0
 17 16  2  0
 18 14  1  0
 20 19  1  1
 20 21  1  0
 22 20  1  0
 23 22  1  1
 23 24  1  0
 24 16  1  0
 25 26  1  0
 25 23  1  0
 27 25  2  0
M  END
$$$$
