HDL.pdb
     RDKit          3D

 27 27  0  0  1  0  0  0  0  0999 V2000
    6.6529  -16.9273   20.4711 N   0  0  0  0  0  0  0  0  0  0  0  0
    7.6841  -16.1770   21.1428 C   0  0  1  0  0  0  0  0  0  0  0  0
    7.3321  -14.7339   21.3091 C   0  0  0  0  0  0  0  0  0  0  0  0
    7.6794  -13.9432   20.1119 C   0  0  0  0  0  0  0  0  0  0  0  0
    8.2867  -14.4528   18.9465 C   0  0  0  0  0  0  0  0  0  0  0  0
    8.4623  -13.4727   18.0573 N   0  0  0  0  0  0  0  0  0  0  0  0
    7.9870  -12.3572   18.6169 C   0  0  0  0  0  0  0  0  0  0  0  0
    7.5235  -12.6466   19.8366 N   0  0  0  0  0  0  0  0  0  0  0  0
    8.1985  -16.7911   22.3659 C   0  0  0  0  0  0  0  0  0  0  0  0
    7.4775  -17.6052   23.0406 O   0  0  0  0  0  0  0  0  0  0  0  0
    9.4798  -16.5605   22.9143 N   0  0  0  0  0  0  0  0  0  0  0  0
    9.9479  -17.1527   24.1277 C   0  0  1  0  0  0  0  0  0  0  0  0
   11.1466  -18.0156   24.0532 C   0  0  0  0  0  0  0  0  0  0  0  0
   11.5458  -18.6946   25.3028 C   0  0  0  0  0  0  0  0  0  0  0  0
   10.6672  -19.0118   26.1283 O   0  0  0  0  0  0  0  0  0  0  0  0
   10.2288  -16.1067   25.1614 C   0  0  0  0  0  0  0  0  0  0  0  0
   11.2104  -15.3424   25.0978 O   0  0  0  0  0  0  0  0  0  0  0  0
   12.8695  -18.9539   25.5177 O   0  0  0  0  0  0  0  0  0  0  0  0
    6.6237  -12.7049   26.3921 C   0  0  0  0  0  0  0  0  0  0  0  0
    7.9533  -13.3383   26.3539 C   0  0  1  0  0  0  0  0  0  0  0  0
    9.0702  -12.3154   26.1109 C   0  0  0  0  0  0  0  0  0  0  0  0
    8.4001  -14.2106   27.4450 C   0  0  0  0  0  0  0  0  0  0  0  0
    9.6492  -14.9974   27.3353 C   0  0  2  0  0  0  0  0  0  0  0  0
    9.3376  -15.9915   26.2476 N   0  0  0  0  0  0  0  0  0  0  0  0
    9.8900  -15.8380   28.5106 C   0  0  0  0  0  0  0  0  0  0  0  0
    9.7206  -17.2186   28.4547 O   0  0  0  0  0  0  0  0  0  0  0  0
   10.2521  -15.3965   29.6231 O   0  0  0  0  0  0  0  0  0  0  0  0
  2  1  1  1
  3  2  1  0
  4  8  1  0
  4  3  1  0
  5  4  2  0
  6  5  1  0
  6  7  1  0
  7  8  2  0
  9  2  1  0
 10  9  2  0
 11  9  1  0
 12 13  1  6
 12 11  1  0
 13 14  1  0
 14 15  2  0
 16 12  1  0
 17 16  2  0
 18 14  1  0
 20 19  1  1
 20 21  1  0
 22 20  1  0
 23 22  1  1
 23 24  1  0
 24 16  1  0
 25 26  1  0
 25 23  1  0
 27 25  2  0
M  END
$$$$
