HDL.pdb
     RDKit          3D

 27 27  0  0  1  0  0  0  0  0999 V2000
   10.8940  -16.3146   18.5080 N   0  0  0  0  0  0  0  0  0  0  0  0
   11.0481  -15.7884   19.8411 C   0  0  1  0  0  0  0  0  0  0  0  0
   11.5047  -14.3653   19.8504 C   0  0  0  0  0  0  0  0  0  0  0  0
   12.9404  -14.2479   19.5275 C   0  0  0  0  0  0  0  0  0  0  0  0
   13.9637  -15.0608   20.0557 C   0  0  0  0  0  0  0  0  0  0  0  0
   15.1450  -14.6890   19.5575 N   0  0  0  0  0  0  0  0  0  0  0  0
   14.9084  -13.6677   18.7301 C   0  0  0  0  0  0  0  0  0  0  0  0
   13.5962  -13.4135   18.7183 N   0  0  0  0  0  0  0  0  0  0  0  0
    9.9219  -16.0399   20.7390 C   0  0  0  0  0  0  0  0  0  0  0  0
    8.7173  -15.8970   20.3311 O   0  0  0  0  0  0  0  0  0  0  0  0
   10.0326  -16.4410   22.0889 N   0  0  0  0  0  0  0  0  0  0  0  0
    8.9716  -17.0430   22.8332 C   0  0  1  0  0  0  0  0  0  0  0  0
    9.1110  -18.4696   23.1971 C   0  0  0  0  0  0  0  0  0  0  0  0
    9.3677  -19.4088   22.0862 C   0  0  0  0  0  0  0  0  0  0  0  0
    8.5833  -19.4316   21.1176 O   0  0  0  0  0  0  0  0  0  0  0  0
    8.7150  -16.2934   24.1035 C   0  0  0  0  0  0  0  0  0  0  0  0
    7.8459  -16.6387   24.9264 O   0  0  0  0  0  0  0  0  0  0  0  0
   10.4591  -20.2273   22.1544 O   0  0  0  0  0  0  0  0  0  0  0  0
    7.8963  -11.9674   27.2381 C   0  0  0  0  0  0  0  0  0  0  0  0
    7.2418  -13.0911   26.5455 C   0  0  1  0  0  0  0  0  0  0  0  0
    5.8463  -12.7150   26.0319 C   0  0  0  0  0  0  0  0  0  0  0  0
    7.9229  -13.8005   25.4574 C   0  0  0  0  0  0  0  0  0  0  0  0
    9.2634  -14.3977   25.6521 C   0  0  2  0  0  0  0  0  0  0  0  0
    9.4965  -15.1504   24.3685 N   0  0  0  0  0  0  0  0  0  0  0  0
    9.2686  -15.4485   26.6727 C   0  0  0  0  0  0  0  0  0  0  0  0
   10.1084  -15.3716   27.7802 O   0  0  0  0  0  0  0  0  0  0  0  0
    8.5447  -16.4672   26.6303 O   0  0  0  0  0  0  0  0  0  0  0  0
  2  1  1  6
  3  2  1  0
  4  8  1  0
  4  3  1  0
  5  4  2  0
  6  5  1  0
  6  7  1  0
  7  8  2  0
  9  2  1  0
 10  9  2  0
 11  9  1  0
 12 13  1  1
 12 11  1  0
 13 14  1  0
 14 15  2  0
 16 12  1  0
 17 16  2  0
 18 14  1  0
 20 19  1  6
 20 21  1  0
 22 20  1  0
 23 22  1  6
 23 24  1  0
 24 16  1  0
 25 26  1  0
 25 23  1  0
 27 25  2  0
M  END
$$$$
