HDL.pdb
     RDKit          3D

 27 27  0  0  1  0  0  0  0  0999 V2000
    6.6524  -17.4191   20.9232 N   0  0  0  0  0  0  0  0  0  0  0  0
    7.6438  -16.4505   21.3188 C   0  0  1  0  0  0  0  0  0  0  0  0
    7.0455  -15.1340   21.6968 C   0  0  0  0  0  0  0  0  0  0  0  0
    7.3025  -14.1010   20.6741 C   0  0  0  0  0  0  0  0  0  0  0  0
    8.0124  -14.3019   19.4730 C   0  0  0  0  0  0  0  0  0  0  0  0
    8.0625  -13.1642   18.7765 N   0  0  0  0  0  0  0  0  0  0  0  0
    7.4084  -12.2464   19.4931 C   0  0  0  0  0  0  0  0  0  0  0  0
    6.9601  -12.8122   20.6179 N   0  0  0  0  0  0  0  0  0  0  0  0
    8.6311  -16.9346   22.2825 C   0  0  0  0  0  0  0  0  0  0  0  0
    8.4018  -17.9815   22.9819 O   0  0  0  0  0  0  0  0  0  0  0  0
    9.8805  -16.3278   22.5403 N   0  0  0  0  0  0  0  0  0  0  0  0
   10.9115  -16.9257   23.3287 C   0  0  1  0  0  0  0  0  0  0  0  0
   12.3138  -16.6631   22.9391 C   0  0  0  0  0  0  0  0  0  0  0  0
   13.3559  -17.3250   23.7502 C   0  0  0  0  0  0  0  0  0  0  0  0
   13.0417  -18.2960   24.4661 O   0  0  0  0  0  0  0  0  0  0  0  0
   10.7801  -16.5361   24.7682 C   0  0  0  0  0  0  0  0  0  0  0  0
   11.4900  -17.0261   25.6670 O   0  0  0  0  0  0  0  0  0  0  0  0
   14.6356  -16.8511   23.6925 O   0  0  0  0  0  0  0  0  0  0  0  0
    6.5666  -13.9467   26.5037 C   0  0  0  0  0  0  0  0  0  0  0  0
    7.8022  -13.5757   25.7922 C   0  0  1  0  0  0  0  0  0  0  0  0
    7.7543  -12.1337   25.2713 C   0  0  0  0  0  0  0  0  0  0  0  0
    9.1142  -13.7616   26.4207 C   0  0  0  0  0  0  0  0  0  0  0  0
    9.7250  -15.1050   26.5378 C   0  0  2  0  0  0  0  0  0  0  0  0
    9.8086  -15.5729   25.1087 N   0  0  0  0  0  0  0  0  0  0  0  0
    8.8284  -16.0781   27.1663 C   0  0  0  0  0  0  0  0  0  0  0  0
    8.1708  -17.0440   26.4098 O   0  0  0  0  0  0  0  0  0  0  0  0
    8.5874  -16.1156   28.3927 O   0  0  0  0  0  0  0  0  0  0  0  0
  2  1  1  1
  3  2  1  0
  4  8  1  0
  4  3  1  0
  5  4  2  0
  6  5  1  0
  6  7  1  0
  7  8  2  0
  9  2  1  0
 10  9  2  0
 11  9  1  0
 12 13  1  6
 12 11  1  0
 13 14  1  0
 14 15  2  0
 16 12  1  0
 17 16  2  0
 18 14  1  0
 20 19  1  1
 20 21  1  0
 22 20  1  0
 23 22  1  6
 23 24  1  0
 24 16  1  0
 25 26  1  0
 25 23  1  0
 27 25  2  0
M  END
$$$$
