HDL.pdb
     RDKit          3D

 27 27  0  0  1  0  0  0  0  0999 V2000
    8.8621  -16.4649   19.3520 N   0  0  0  0  0  0  0  0  0  0  0  0
    8.6635  -15.5095   20.4128 C   0  0  1  0  0  0  0  0  0  0  0  0
    7.5149  -14.5892   20.1527 C   0  0  0  0  0  0  0  0  0  0  0  0
    7.5776  -14.0027   18.7995 C   0  0  0  0  0  0  0  0  0  0  0  0
    8.3525  -12.8844   18.4309 C   0  0  0  0  0  0  0  0  0  0  0  0
    8.1798  -12.6166   17.1346 N   0  0  0  0  0  0  0  0  0  0  0  0
    7.3220  -13.5265   16.6656 C   0  0  0  0  0  0  0  0  0  0  0  0
    6.9705  -14.3457   17.6615 N   0  0  0  0  0  0  0  0  0  0  0  0
    8.6572  -16.0750   21.7611 C   0  0  0  0  0  0  0  0  0  0  0  0
    7.5596  -16.2196   22.4032 O   0  0  0  0  0  0  0  0  0  0  0  0
    9.8036  -16.4963   22.4710 N   0  0  0  0  0  0  0  0  0  0  0  0
    9.7629  -17.1222   23.7550 C   0  0  1  0  0  0  0  0  0  0  0  0
   10.6364  -18.2950   23.9755 C   0  0  0  0  0  0  0  0  0  0  0  0
   10.5139  -19.3978   23.0004 C   0  0  0  0  0  0  0  0  0  0  0  0
   11.4273  -19.5789   22.1714 O   0  0  0  0  0  0  0  0  0  0  0  0
   10.0726  -16.1392   24.8409 C   0  0  0  0  0  0  0  0  0  0  0  0
   11.1274  -15.4771   24.8704 O   0  0  0  0  0  0  0  0  0  0  0  0
    9.3999  -20.1873   23.0353 O   0  0  0  0  0  0  0  0  0  0  0  0
    6.2302  -12.9185   26.5145 C   0  0  0  0  0  0  0  0  0  0  0  0
    7.6041  -13.4213   26.3406 C   0  0  1  0  0  0  0  0  0  0  0  0
    8.6155  -12.2811   26.1672 C   0  0  0  0  0  0  0  0  0  0  0  0
    8.1838  -14.3669   27.3002 C   0  0  0  0  0  0  0  0  0  0  0  0
    9.4636  -15.0561   27.0200 C   0  0  2  0  0  0  0  0  0  0  0  0
    9.1227  -15.9641   25.8678 N   0  0  0  0  0  0  0  0  0  0  0  0
    9.8486  -15.9837   28.0865 C   0  0  0  0  0  0  0  0  0  0  0  0
   10.6012  -15.5548   29.1762 O   0  0  0  0  0  0  0  0  0  0  0  0
    9.5444  -17.1965   28.1011 O   0  0  0  0  0  0  0  0  0  0  0  0
  2  1  1  6
  3  2  1  0
  4  8  1  0
  4  3  1  0
  5  4  2  0
  6  5  1  0
  6  7  1  0
  7  8  2  0
  9  2  1  0
 10  9  2  0
 11  9  1  0
 12 13  1  6
 12 11  1  0
 13 14  1  0
 14 15  2  0
 16 12  1  0
 17 16  2  0
 18 14  1  0
 20 19  1  1
 20 21  1  0
 22 20  1  0
 23 22  1  1
 23 24  1  0
 24 16  1  0
 25 26  1  0
 25 23  1  0
 27 25  2  0
M  END
$$$$
