HDL.pdb
     RDKit          3D

 27 27  0  0  1  0  0  0  0  0999 V2000
    9.0695  -16.5286   19.2479 N   0  0  0  0  0  0  0  0  0  0  0  0
    8.6944  -15.5359   20.2233 C   0  0  1  0  0  0  0  0  0  0  0  0
    7.4677  -14.7770   19.8317 C   0  0  0  0  0  0  0  0  0  0  0  0
    7.5720  -14.2349   18.4626 C   0  0  0  0  0  0  0  0  0  0  0  0
    8.2095  -13.0281   18.1102 C   0  0  0  0  0  0  0  0  0  0  0  0
    8.1222  -12.8337   16.7924 N   0  0  0  0  0  0  0  0  0  0  0  0
    7.4516  -13.8756   16.2943 C   0  0  0  0  0  0  0  0  0  0  0  0
    7.1296  -14.7027   17.2936 N   0  0  0  0  0  0  0  0  0  0  0  0
    8.6646  -16.0087   21.6065 C   0  0  0  0  0  0  0  0  0  0  0  0
    7.5632  -16.3692   22.1496 O   0  0  0  0  0  0  0  0  0  0  0  0
    9.7891  -16.1082   22.4558 N   0  0  0  0  0  0  0  0  0  0  0  0
    9.7433  -16.6339   23.7838 C   0  0  1  0  0  0  0  0  0  0  0  0
   10.6324  -17.7717   24.1032 C   0  0  0  0  0  0  0  0  0  0  0  0
   10.7175  -18.8433   23.0900 C   0  0  0  0  0  0  0  0  0  0  0  0
    9.6695  -19.3952   22.7012 O   0  0  0  0  0  0  0  0  0  0  0  0
   10.0251  -15.5653   24.7937 C   0  0  0  0  0  0  0  0  0  0  0  0
   11.0051  -14.8008   24.7109 O   0  0  0  0  0  0  0  0  0  0  0  0
   11.9454  -19.1994   22.6094 O   0  0  0  0  0  0  0  0  0  0  0  0
    6.1271  -12.9873   26.2998 C   0  0  0  0  0  0  0  0  0  0  0  0
    7.5597  -13.2707   26.1055 C   0  0  1  0  0  0  0  0  0  0  0  0
    8.2794  -12.1245   25.3834 C   0  0  0  0  0  0  0  0  0  0  0  0
    8.4066  -13.6643   27.2364 C   0  0  0  0  0  0  0  0  0  0  0  0
    9.5546  -14.5806   27.0524 C   0  0  2  0  0  0  0  0  0  0  0  0
    9.1365  -15.4280   25.8796 N   0  0  0  0  0  0  0  0  0  0  0  0
    9.6845  -15.5467   28.1458 C   0  0  0  0  0  0  0  0  0  0  0  0
   10.2008  -15.1691   29.3822 O   0  0  0  0  0  0  0  0  0  0  0  0
    9.3555  -16.7499   28.0577 O   0  0  0  0  0  0  0  0  0  0  0  0
  2  1  1  6
  3  2  1  0
  4  8  1  0
  4  3  1  0
  5  4  2  0
  6  5  1  0
  6  7  1  0
  7  8  2  0
  9  2  1  0
 10  9  2  0
 11  9  1  0
 12 13  1  6
 12 11  1  0
 13 14  1  0
 14 15  2  0
 16 12  1  0
 17 16  2  0
 18 14  1  0
 20 19  1  1
 20 21  1  0
 22 20  1  0
 23 22  1  1
 23 24  1  0
 24 16  1  0
 25 26  1  0
 25 23  1  0
 27 25  2  0
M  END
$$$$
