HDL.pdb
     RDKit          3D

 27 27  0  0  1  0  0  0  0  0999 V2000
    7.4817  -14.4532   21.0595 N   0  0  0  0  0  0  0  0  0  0  0  0
    7.3928  -15.8671   20.7936 C   0  0  1  0  0  0  0  0  0  0  0  0
    7.9274  -16.2356   19.4474 C   0  0  0  0  0  0  0  0  0  0  0  0
    7.9318  -15.0832   18.5248 C   0  0  0  0  0  0  0  0  0  0  0  0
    7.8737  -13.7290   18.9119 C   0  0  0  0  0  0  0  0  0  0  0  0
    7.8959  -12.9443   17.8322 N   0  0  0  0  0  0  0  0  0  0  0  0
    7.9667  -13.7527   16.7715 C   0  0  0  0  0  0  0  0  0  0  0  0
    7.9883  -15.0210   17.1929 N   0  0  0  0  0  0  0  0  0  0  0  0
    7.8843  -16.7301   21.8667 C   0  0  0  0  0  0  0  0  0  0  0  0
    7.8134  -18.0038   21.7641 O   0  0  0  0  0  0  0  0  0  0  0  0
    8.4559  -16.2772   23.0765 N   0  0  0  0  0  0  0  0  0  0  0  0
    9.7733  -16.6166   23.5140 C   0  0  1  0  0  0  0  0  0  0  0  0
   10.8898  -16.3918   22.5705 C   0  0  0  0  0  0  0  0  0  0  0  0
   12.2310  -16.8073   23.0290 C   0  0  0  0  0  0  0  0  0  0  0  0
   12.3266  -17.6921   23.9020 O   0  0  0  0  0  0  0  0  0  0  0  0
   10.1210  -15.8949   24.7787 C   0  0  0  0  0  0  0  0  0  0  0  0
   11.2820  -15.5362   25.0531 O   0  0  0  0  0  0  0  0  0  0  0  0
   13.3294  -16.2070   22.4822 O   0  0  0  0  0  0  0  0  0  0  0  0
    6.0997  -13.0337   26.2042 C   0  0  0  0  0  0  0  0  0  0  0  0
    7.5202  -13.4050   26.0819 C   0  0  1  0  0  0  0  0  0  0  0  0
    8.3840  -12.2265   25.6153 C   0  0  0  0  0  0  0  0  0  0  0  0
    8.2281  -14.0405   27.1982 C   0  0  0  0  0  0  0  0  0  0  0  0
    9.4173  -14.8913   26.9673 C   0  0  2  0  0  0  0  0  0  0  0  0
    9.0822  -15.6151   25.6897 N   0  0  0  0  0  0  0  0  0  0  0  0
    9.5378  -15.9694   27.9518 C   0  0  0  0  0  0  0  0  0  0  0  0
    9.4348  -17.3048   27.5726 O   0  0  0  0  0  0  0  0  0  0  0  0
    9.7332  -15.7821   29.1726 O   0  0  0  0  0  0  0  0  0  0  0  0
  2  1  1  1
  3  2  1  0
  4  8  1  0
  4  3  1  0
  5  4  2  0
  6  5  1  0
  6  7  1  0
  7  8  2  0
  9  2  1  0
 10  9  2  0
 11  9  1  0
 12 13  1  6
 12 11  1  0
 13 14  1  0
 14 15  2  0
 16 12  1  0
 17 16  2  0
 18 14  1  0
 20 19  1  1
 20 21  1  0
 22 20  1  0
 23 22  1  1
 23 24  1  0
 24 16  1  0
 25 26  1  0
 25 23  1  0
 27 25  2  0
M  END
$$$$
