HDL.pdb
     RDKit          3D

 27 27  0  0  1  0  0  0  0  0999 V2000
    6.9840  -17.3548   19.5319 N   0  0  0  0  0  0  0  0  0  0  0  0
    7.7365  -16.4473   20.3613 C   0  0  1  0  0  0  0  0  0  0  0  0
    7.0291  -15.1501   20.5863 C   0  0  0  0  0  0  0  0  0  0  0  0
    7.5060  -14.0986   19.6665 C   0  0  0  0  0  0  0  0  0  0  0  0
    8.5091  -14.2636   18.6900 C   0  0  0  0  0  0  0  0  0  0  0  0
    8.6981  -13.1177   18.0317 N   0  0  0  0  0  0  0  0  0  0  0  0
    7.8494  -12.2296   18.5556 C   0  0  0  0  0  0  0  0  0  0  0  0
    7.1452  -12.8215   19.5252 N   0  0  0  0  0  0  0  0  0  0  0  0
    8.2743  -17.0328   21.5884 C   0  0  0  0  0  0  0  0  0  0  0  0
    7.5554  -17.8050   22.3128 O   0  0  0  0  0  0  0  0  0  0  0  0
    9.5776  -16.8167   22.0886 N   0  0  0  0  0  0  0  0  0  0  0  0
   10.0534  -17.3388   23.3309 C   0  0  1  0  0  0  0  0  0  0  0  0
   11.2514  -18.2053   23.2981 C   0  0  0  0  0  0  0  0  0  0  0  0
   11.7575  -18.6761   24.6035 C   0  0  0  0  0  0  0  0  0  0  0  0
   10.9531  -19.1442   25.4330 O   0  0  0  0  0  0  0  0  0  0  0  0
   10.3412  -16.2357   24.3013 C   0  0  0  0  0  0  0  0  0  0  0  0
   11.1349  -15.3085   24.0522 O   0  0  0  0  0  0  0  0  0  0  0  0
   13.0950  -18.5829   24.8640 O   0  0  0  0  0  0  0  0  0  0  0  0
    6.7216  -14.5710   26.4416 C   0  0  0  0  0  0  0  0  0  0  0  0
    7.8313  -13.6034   26.3872 C   0  0  1  0  0  0  0  0  0  0  0  0
    8.0567  -12.9111   27.7373 C   0  0  0  0  0  0  0  0  0  0  0  0
    9.1499  -14.0020   25.8838 C   0  0  0  0  0  0  0  0  0  0  0  0
    9.9024  -15.1164   26.5029 C   0  0  2  0  0  0  0  0  0  0  0  0
    9.6797  -16.2580   25.5460 N   0  0  0  0  0  0  0  0  0  0  0  0
    9.2895  -15.5865   27.7476 C   0  0  0  0  0  0  0  0  0  0  0  0
    8.6452  -16.8188   27.8117 O   0  0  0  0  0  0  0  0  0  0  0  0
    9.2931  -14.9378   28.8166 O   0  0  0  0  0  0  0  0  0  0  0  0
  2  1  1  1
  3  2  1  0
  4  8  1  0
  4  3  1  0
  5  4  2  0
  6  5  1  0
  6  7  1  0
  7  8  2  0
  9  2  1  0
 10  9  2  0
 11  9  1  0
 12 13  1  6
 12 11  1  0
 13 14  1  0
 14 15  2  0
 16 12  1  0
 17 16  2  0
 18 14  1  0
 20 19  1  1
 20 21  1  0
 22 20  1  0
 23 22  1  6
 23 24  1  0
 24 16  1  0
 25 26  1  0
 25 23  1  0
 27 25  2  0
M  END
$$$$
