QLY.pdb
     RDKit          3D

 30 30  0  0  1  0  0  0  0  0999 V2000
   11.1297  -20.5180   16.1285 N   0  0  0  0  0  0  0  0  0  0  0  0
   11.3592  -19.5900   17.2064 C   0  0  0  0  0  0  0  0  0  0  0  0
   12.4432  -18.9957   17.2366 O   0  0  0  0  0  0  0  0  0  0  0  0
   10.3402  -19.3457   18.2432 C   0  0  0  0  0  0  0  0  0  0  0  0
   10.6779  -18.2234   19.1428 C   0  0  0  0  0  0  0  0  0  0  0  0
   10.1200  -18.2438   20.5195 C   0  0  2  0  0  0  0  0  0  0  0  0
    8.8019  -18.7922   20.6703 N   0  0  0  0  0  0  0  0  0  0  0  0
   10.1568  -16.8977   21.1703 C   0  0  0  0  0  0  0  0  0  0  0  0
   11.2638  -16.3201   21.2742 O   0  0  0  0  0  0  0  0  0  0  0  0
    8.4121  -13.0269   20.0421 C   0  0  0  0  0  0  0  0  0  0  0  0
    7.4462  -14.0357   20.5999 C   0  0  2  0  0  0  0  0  0  0  0  0
    6.0301  -13.5004   20.4475 C   0  0  0  0  0  0  0  0  0  0  0  0
    7.6627  -14.2846   22.0708 C   0  0  0  0  0  0  0  0  0  0  0  0
    8.9971  -14.9722   22.3272 C   0  0  2  0  0  0  0  0  0  0  0  0
    9.0119  -16.2437   21.6732 N   0  0  0  0  0  0  0  0  0  0  0  0
    9.1573  -15.0742   23.7954 C   0  0  0  0  0  0  0  0  0  0  0  0
    9.1593  -14.0234   24.4740 O   0  0  0  0  0  0  0  0  0  0  0  0
    5.3274  -20.8415   23.5891 O   0  0  0  0  0  0  0  0  0  0  0  0
    5.9332  -19.7919   24.2412 C   0  0  0  0  0  0  0  0  0  0  0  0
    6.7594  -20.0387   25.3006 C   0  0  0  0  0  0  0  0  0  0  0  0
    7.3935  -19.0467   25.9938 C   0  0  0  0  0  0  0  0  0  0  0  0
    7.2177  -17.7114   25.6384 C   0  0  0  0  0  0  0  0  0  0  0  0
    7.8814  -16.6489   26.4040 C   0  0  0  0  0  0  0  0  0  0  0  0
    9.2837  -16.4513   25.9197 C   0  0  2  0  0  0  0  0  0  0  0  0
    9.3075  -16.3141   24.4559 N   0  0  0  0  0  0  0  0  0  0  0  0
   10.1324  -17.5756   26.3146 C   0  0  0  0  0  0  0  0  0  0  0  0
   10.8138  -18.4020   25.4394 O   0  0  0  0  0  0  0  0  0  0  0  0
    6.3859  -17.4653   24.5725 C   0  0  0  0  0  0  0  0  0  0  0  0
    5.7539  -18.4700   23.8831 C   0  0  0  0  0  0  0  0  0  0  0  0
   10.2748  -17.8439   27.5562 O   0  0  0  0  0  0  0  0  0  0  0  0
  1  2  1  0
  2  4  1  0
  3  2  2  0
  4  5  1  0
  5  6  1  0
  6  7  1  6
  6  8  1  0
  8  9  2  0
 11 10  1  1
 12 11  1  0
 13 11  1  0
 14 13  1  1
 15  8  1  0
 15 14  1  0
 16 25  1  0
 16 14  1  0
 17 16  2  0
 19 18  1  0
 20 19  2  0
 21 20  1  0
 22 21  2  0
 22 28  1  0
 23 22  1  0
 24 23  1  6
 24 26  1  0
 24 25  1  0
 26 27  1  0
 28 29  2  0
 29 19  1  0
 30 26  2  0
M  END
$$$$
