QLY.pdb
     RDKit          3D

 30 30  0  0  1  0  0  0  0  0999 V2000
    9.7287  -18.3311   14.2503 N   0  0  0  0  0  0  0  0  0  0  0  0
   10.0693  -17.1106   14.9358 C   0  0  0  0  0  0  0  0  0  0  0  0
   10.5983  -16.2067   14.2784 O   0  0  0  0  0  0  0  0  0  0  0  0
    9.7969  -16.9324   16.3735 C   0  0  0  0  0  0  0  0  0  0  0  0
   10.5741  -17.8478   17.2343 C   0  0  0  0  0  0  0  0  0  0  0  0
   10.0540  -18.1302   18.5970 C   0  0  2  0  0  0  0  0  0  0  0  0
    8.6827  -18.5448   18.6879 N   0  0  0  0  0  0  0  0  0  0  0  0
   10.2738  -16.9898   19.5394 C   0  0  0  0  0  0  0  0  0  0  0  0
   11.4371  -16.5420   19.6662 O   0  0  0  0  0  0  0  0  0  0  0  0
    8.9356  -12.7175   19.9566 C   0  0  0  0  0  0  0  0  0  0  0  0
    7.8769  -13.7598   20.1898 C   0  0  2  0  0  0  0  0  0  0  0  0
    6.5373  -13.0670   20.3910 C   0  0  0  0  0  0  0  0  0  0  0  0
    8.1378  -14.5743   21.4313 C   0  0  0  0  0  0  0  0  0  0  0  0
    9.4157  -15.3921   21.3006 C   0  0  2  0  0  0  0  0  0  0  0  0
    9.2415  -16.3915   20.2929 N   0  0  0  0  0  0  0  0  0  0  0  0
    9.7049  -15.9610   22.6365 C   0  0  0  0  0  0  0  0  0  0  0  0
    8.8762  -16.7466   23.1472 O   0  0  0  0  0  0  0  0  0  0  0  0
    9.1341  -12.9979   29.5230 O   0  0  0  0  0  0  0  0  0  0  0  0
    9.4013  -13.9257   28.5424 C   0  0  0  0  0  0  0  0  0  0  0  0
    8.7705  -13.8353   27.3342 C   0  0  0  0  0  0  0  0  0  0  0  0
    8.9872  -14.7202   26.3160 C   0  0  0  0  0  0  0  0  0  0  0  0
    9.8824  -15.7756   26.4743 C   0  0  0  0  0  0  0  0  0  0  0  0
   10.0908  -16.7380   25.3853 C   0  0  0  0  0  0  0  0  0  0  0  0
   11.2901  -16.3599   24.5737 C   0  0  2  0  0  0  0  0  0  0  0  0
   10.8815  -15.6485   23.3534 N   0  0  0  0  0  0  0  0  0  0  0  0
   12.0633  -17.5464   24.2066 C   0  0  0  0  0  0  0  0  0  0  0  0
   12.7231  -18.3718   25.0991 O   0  0  0  0  0  0  0  0  0  0  0  0
   10.5157  -15.8649   27.6906 C   0  0  0  0  0  0  0  0  0  0  0  0
   10.2904  -14.9699   28.7067 C   0  0  0  0  0  0  0  0  0  0  0  0
   12.1588  -17.8722   22.9743 O   0  0  0  0  0  0  0  0  0  0  0  0
  1  2  1  0
  2  4  1  0
  3  2  2  0
  4  5  1  0
  5  6  1  0
  6  7  1  6
  6  8  1  0
  8  9  2  0
 11 10  1  1
 12 11  1  0
 13 11  1  0
 14 13  1  1
 15  8  1  0
 15 14  1  0
 16 25  1  0
 16 14  1  0
 17 16  2  0
 19 18  1  0
 20 19  2  0
 21 20  1  0
 22 21  2  0
 22 28  1  0
 23 22  1  0
 24 23  1  6
 24 26  1  0
 24 25  1  0
 26 27  1  0
 28 29  2  0
 29 19  1  0
 30 26  2  0
M  END
$$$$
