QLY.pdb
     RDKit          3D

 30 30  0  0  1  0  0  0  0  0999 V2000
    7.9629  -21.3082   15.7775 N   0  0  0  0  0  0  0  0  0  0  0  0
    8.2093  -20.0311   16.3971 C   0  0  0  0  0  0  0  0  0  0  0  0
    7.8354  -19.0161   15.7978 O   0  0  0  0  0  0  0  0  0  0  0  0
    8.8811  -19.9258   17.7050 C   0  0  0  0  0  0  0  0  0  0  0  0
    8.9878  -18.5371   18.1980 C   0  0  0  0  0  0  0  0  0  0  0  0
    9.1143  -18.3273   19.6633 C   0  0  2  0  0  0  0  0  0  0  0  0
    7.9247  -18.5167   20.4443 N   0  0  0  0  0  0  0  0  0  0  0  0
    9.7022  -16.9940   20.0004 C   0  0  0  0  0  0  0  0  0  0  0  0
   10.8754  -16.7538   19.6320 O   0  0  0  0  0  0  0  0  0  0  0  0
    8.5352  -13.0738   18.6555 C   0  0  0  0  0  0  0  0  0  0  0  0
    7.6852  -13.6542   19.7520 C   0  0  2  0  0  0  0  0  0  0  0  0
    6.4545  -12.7792   19.9387 C   0  0  0  0  0  0  0  0  0  0  0  0
    8.4027  -13.6868   21.0775 C   0  0  0  0  0  0  0  0  0  0  0  0
    9.5286  -14.7122   21.0745 C   0  0  2  0  0  0  0  0  0  0  0  0
    9.0065  -15.9927   20.7108 N   0  0  0  0  0  0  0  0  0  0  0  0
   10.1335  -14.6958   22.4256 C   0  0  0  0  0  0  0  0  0  0  0  0
   10.8195  -13.7064   22.7648 O   0  0  0  0  0  0  0  0  0  0  0  0
   10.7441  -15.2480   31.0564 O   0  0  0  0  0  0  0  0  0  0  0  0
   10.3515  -15.3264   29.7397 C   0  0  0  0  0  0  0  0  0  0  0  0
   10.2149  -16.5485   29.1450 C   0  0  0  0  0  0  0  0  0  0  0  0
    9.8293  -16.7012   27.8432 C   0  0  0  0  0  0  0  0  0  0  0  0
    9.5533  -15.5887   27.0519 C   0  0  0  0  0  0  0  0  0  0  0  0
    9.1647  -15.7592   25.6463 C   0  0  0  0  0  0  0  0  0  0  0  0
   10.3638  -15.6666   24.7557 C   0  0  2  0  0  0  0  0  0  0  0  0
    9.9636  -15.7562   23.3436 N   0  0  0  0  0  0  0  0  0  0  0  0
   11.3178  -16.7341   25.0572 C   0  0  0  0  0  0  0  0  0  0  0  0
   11.3180  -17.9876   24.4725 O   0  0  0  0  0  0  0  0  0  0  0  0
    9.6916  -14.3602   27.6519 C   0  0  0  0  0  0  0  0  0  0  0  0
   10.0797  -14.2185   28.9609 C   0  0  0  0  0  0  0  0  0  0  0  0
   12.2330  -16.5261   25.9251 O   0  0  0  0  0  0  0  0  0  0  0  0
  1  2  1  0
  2  4  1  0
  3  2  2  0
  4  5  1  0
  5  6  1  0
  6  7  1  1
  6  8  1  0
  8  9  2  0
 11 10  1  6
 12 11  1  0
 13 11  1  0
 14 13  1  1
 15  8  1  0
 15 14  1  0
 16 25  1  0
 16 14  1  0
 17 16  2  0
 19 18  1  0
 20 19  2  0
 21 20  1  0
 22 21  2  0
 22 28  1  0
 23 22  1  0
 24 23  1  1
 24 26  1  0
 24 25  1  0
 26 27  1  0
 28 29  2  0
 29 19  1  0
 30 26  2  0
M  END
$$$$
