QLY.pdb
     RDKit          3D

 30 30  0  0  1  0  0  0  0  0999 V2000
   10.8472  -18.3344   15.8907 N   0  0  0  0  0  0  0  0  0  0  0  0
   10.2630  -19.5343   16.4336 C   0  0  0  0  0  0  0  0  0  0  0  0
   10.1733  -20.5200   15.6925 O   0  0  0  0  0  0  0  0  0  0  0  0
    9.7877  -19.5975   17.8275 C   0  0  0  0  0  0  0  0  0  0  0  0
    9.8281  -18.2927   18.5195 C   0  0  0  0  0  0  0  0  0  0  0  0
    9.6664  -18.2836   19.9963 C   0  0  2  0  0  0  0  0  0  0  0  0
    8.4020  -18.7326   20.5067 N   0  0  0  0  0  0  0  0  0  0  0  0
    9.9796  -16.9499   20.5965 C   0  0  0  0  0  0  0  0  0  0  0  0
   11.1161  -16.4623   20.3958 O   0  0  0  0  0  0  0  0  0  0  0  0
    8.7778  -13.0493   19.6627 C   0  0  0  0  0  0  0  0  0  0  0  0
    7.7231  -13.8319   20.3955 C   0  0  2  0  0  0  0  0  0  0  0  0
    6.4230  -13.0418   20.3817 C   0  0  0  0  0  0  0  0  0  0  0  0
    8.0800  -14.0599   21.8423 C   0  0  0  0  0  0  0  0  0  0  0  0
    9.3159  -14.9393   21.9776 C   0  0  2  0  0  0  0  0  0  0  0  0
    9.0639  -16.2119   21.3763 N   0  0  0  0  0  0  0  0  0  0  0  0
    9.6256  -15.0325   23.4223 C   0  0  0  0  0  0  0  0  0  0  0  0
   10.2326  -14.0851   23.9690 O   0  0  0  0  0  0  0  0  0  0  0  0
    6.4662  -10.9318   26.7726 O   0  0  0  0  0  0  0  0  0  0  0  0
    6.8852  -12.2399   26.6887 C   0  0  0  0  0  0  0  0  0  0  0  0
    8.1581  -12.5687   27.0594 C   0  0  0  0  0  0  0  0  0  0  0  0
    8.6411  -13.8455   27.0024 C   0  0  0  0  0  0  0  0  0  0  0  0
    7.8339  -14.8879   26.5527 C   0  0  0  0  0  0  0  0  0  0  0  0
    8.3676  -16.2531   26.4693 C   0  0  0  0  0  0  0  0  0  0  0  0
    9.6046  -16.2822   25.6274 C   0  0  2  0  0  0  0  0  0  0  0  0
    9.2607  -16.1515   24.2038 N   0  0  0  0  0  0  0  0  0  0  0  0
   10.3442  -17.5274   25.8346 C   0  0  0  0  0  0  0  0  0  0  0  0
   10.7303  -18.3980   24.8315 O   0  0  0  0  0  0  0  0  0  0  0  0
    6.5538  -14.5549   26.1800 C   0  0  0  0  0  0  0  0  0  0  0  0
    6.0790  -13.2685   26.2415 C   0  0  0  0  0  0  0  0  0  0  0  0
   10.6724  -17.8679   27.0221 O   0  0  0  0  0  0  0  0  0  0  0  0
  1  2  1  0
  2  4  1  0
  3  2  2  0
  4  5  1  0
  5  6  1  0
  6  7  1  6
  6  8  1  0
  8  9  2  0
 11 10  1  1
 12 11  1  0
 13 11  1  0
 14 13  1  1
 15  8  1  0
 15 14  1  0
 16 25  1  0
 16 14  1  0
 17 16  2  0
 19 18  1  0
 20 19  2  0
 21 20  1  0
 22 21  2  0
 22 28  1  0
 23 22  1  0
 24 23  1  1
 24 26  1  0
 24 25  1  0
 26 27  1  0
 28 29  2  0
 29 19  1  0
 30 26  2  0
M  END
$$$$
