QLY.pdb
     RDKit          3D

 30 30  0  0  1  0  0  0  0  0999 V2000
    9.2014  -15.1018   15.9246 N   0  0  0  0  0  0  0  0  0  0  0  0
    7.8734  -15.5089   16.3068 C   0  0  0  0  0  0  0  0  0  0  0  0
    6.9530  -15.3032   15.5070 O   0  0  0  0  0  0  0  0  0  0  0  0
    7.6089  -16.1545   17.6054 C   0  0  0  0  0  0  0  0  0  0  0  0
    8.8288  -16.3720   18.4101 C   0  0  0  0  0  0  0  0  0  0  0  0
    8.6729  -16.9682   19.7619 C   0  0  2  0  0  0  0  0  0  0  0  0
    7.4222  -17.6169   20.0373 N   0  0  0  0  0  0  0  0  0  0  0  0
    8.9550  -15.9867   20.8545 C   0  0  0  0  0  0  0  0  0  0  0  0
   10.0191  -15.3277   20.7985 O   0  0  0  0  0  0  0  0  0  0  0  0
    5.9943  -13.4086   25.6561 C   0  0  0  0  0  0  0  0  0  0  0  0
    7.2426  -13.5156   24.8243 C   0  0  2  0  0  0  0  0  0  0  0  0
    7.6555  -12.1230   24.3714 C   0  0  0  0  0  0  0  0  0  0  0  0
    7.0318  -14.3356   23.5769 C   0  0  0  0  0  0  0  0  0  0  0  0
    8.3463  -14.8992   23.0540 C   0  0  2  0  0  0  0  0  0  0  0  0
    8.0871  -15.7633   21.9446 N   0  0  0  0  0  0  0  0  0  0  0  0
    9.0023  -15.5914   24.1864 C   0  0  0  0  0  0  0  0  0  0  0  0
    8.3637  -16.4725   24.8032 O   0  0  0  0  0  0  0  0  0  0  0  0
   11.9608  -16.4444   32.0973 O   0  0  0  0  0  0  0  0  0  0  0  0
   11.4466  -16.1356   30.8588 C   0  0  0  0  0  0  0  0  0  0  0  0
   10.8194  -17.1023   30.1253 C   0  0  0  0  0  0  0  0  0  0  0  0
   10.2859  -16.8670   28.8897 C   0  0  0  0  0  0  0  0  0  0  0  0
   10.3627  -15.6003   28.3153 C   0  0  0  0  0  0  0  0  0  0  0  0
    9.8103  -15.3610   26.9762 C   0  0  0  0  0  0  0  0  0  0  0  0
   10.8443  -15.6265   25.9273 C   0  0  2  0  0  0  0  0  0  0  0  0
   10.3216  -15.2925   24.5941 N   0  0  0  0  0  0  0  0  0  0  0  0
   11.2564  -17.0301   25.9483 C   0  0  0  0  0  0  0  0  0  0  0  0
   12.5320  -17.4790   26.2389 O   0  0  0  0  0  0  0  0  0  0  0  0
   10.9942  -14.6294   29.0547 C   0  0  0  0  0  0  0  0  0  0  0  0
   11.5267  -14.8770   30.2955 C   0  0  0  0  0  0  0  0  0  0  0  0
   10.3964  -17.9368   25.6796 O   0  0  0  0  0  0  0  0  0  0  0  0
  1  2  1  0
  2  4  1  0
  3  2  2  0
  4  5  1  0
  5  6  1  0
  6  7  1  1
  6  8  1  0
  8  9  2  0
 11 10  1  6
 12 11  1  0
 13 11  1  0
 14 13  1  1
 15  8  1  0
 15 14  1  0
 16 25  1  0
 16 14  1  0
 17 16  2  0
 19 18  1  0
 20 19  2  0
 21 20  1  0
 22 21  2  0
 22 28  1  0
 23 22  1  0
 24 23  1  1
 24 26  1  0
 24 25  1  0
 26 27  1  0
 28 29  2  0
 29 19  1  0
 30 26  2  0
M  END
$$$$
