WTS.pdb
     RDKit          3D

 28 29  0  0  1  0  0  0  0  0999 V2000
    8.0331  -16.2363   22.1751 N   0  0  0  0  0  0  0  0  0  0  0  0
    8.9101  -16.0683   23.3189 C   0  0  1  0  0  0  0  0  0  0  0  0
    8.0590  -15.7570   24.5298 C   0  0  0  0  0  0  0  0  0  0  0  0
    7.3278  -14.4724   24.3434 C   0  0  0  0  0  0  0  0  0  0  0  0
    6.5926  -14.0742   23.2582 C   0  0  0  0  0  0  0  0  0  0  0  0
    6.1152  -12.8538   23.5231 N   0  0  0  0  0  0  0  0  0  0  0  0
    6.5199  -12.4579   24.7400 C   0  0  0  0  0  0  0  0  0  0  0  0
    6.3167  -11.3013   25.4953 C   0  0  0  0  0  0  0  0  0  0  0  0
    6.8673  -11.1612   26.7504 C   0  0  0  0  0  0  0  0  0  0  0  0
    7.6396  -12.1619   27.3036 C   0  0  0  0  0  0  0  0  0  0  0  0
    7.8274  -13.2946   26.5409 C   0  0  0  0  0  0  0  0  0  0  0  0
    7.2762  -13.4519   25.2675 C   0  0  0  0  0  0  0  0  0  0  0  0
    9.6724  -17.3264   23.4823 C   0  0  0  0  0  0  0  0  0  0  0  0
    9.0242  -18.4039   23.5073 O   0  0  0  0  0  0  0  0  0  0  0  0
   12.9956  -18.6788   21.8256 C   0  0  0  0  0  0  0  0  0  0  0  0
   13.0915  -18.7132   23.3047 C   0  0  1  0  0  0  0  0  0  0  0  0
   13.9677  -17.6499   23.6573 O   0  0  0  0  0  0  0  0  0  0  0  0
   11.8017  -18.5827   24.0627 C   0  0  2  0  0  0  0  0  0  0  0  0
   11.0847  -17.3755   23.6108 N   0  0  0  0  0  0  0  0  0  0  0  0
   11.9494  -18.5457   25.5327 C   0  0  0  0  0  0  0  0  0  0  0  0
   12.2982  -17.4704   26.1316 O   0  0  0  0  0  0  0  0  0  0  0  0
   10.6547  -21.4824   27.5376 O   0  0  0  0  0  0  0  0  0  0  0  0
   10.9500  -20.4879   28.4787 C   0  0  0  0  0  0  0  0  0  0  0  0
   12.0005  -19.5825   27.8187 C   0  0  2  0  0  0  0  0  0  0  0  0
   11.7276  -19.6453   26.3944 N   0  0  0  0  0  0  0  0  0  0  0  0
   13.3497  -20.1163   28.0595 C   0  0  0  0  0  0  0  0  0  0  0  0
   14.1536  -20.4645   26.9935 O   0  0  0  0  0  0  0  0  0  0  0  0
   13.7727  -20.2565   29.2206 O   0  0  0  0  0  0  0  0  0  0  0  0
  2  1  1  6
  2  3  1  0
  2 13  1  0
  4 12  1  0
  4  3  1  0
  5  4  2  0
  6  5  1  0
  6  7  1  0
  7  8  1  0
  7 12  2  0
  8  9  2  0
  9 10  1  0
 11 10  2  0
 12 11  1  0
 13 14  2  0
 16 18  1  0
 16 15  1  6
 17 16  1  0
 19 13  1  0
 18 19  1  6
 20 25  1  0
 20 18  1  0
 21 20  2  0
 23 22  1  0
 24 25  1  0
 24 23  1  1
 26 27  1  0
 26 24  1  0
 28 26  2  0
M  END
$$$$
