WTS.pdb
     RDKit          3D

 28 29  0  0  1  0  0  0  0  0999 V2000
    6.7227  -17.5917   23.6543 N   0  0  0  0  0  0  0  0  0  0  0  0
    7.8755  -16.7125   23.5914 C   0  0  1  0  0  0  0  0  0  0  0  0
    8.2284  -16.2887   24.9998 C   0  0  0  0  0  0  0  0  0  0  0  0
    7.1965  -15.3628   25.5452 C   0  0  0  0  0  0  0  0  0  0  0  0
    5.9445  -15.6770   26.0040 C   0  0  0  0  0  0  0  0  0  0  0  0
    5.3648  -14.5388   26.3991 N   0  0  0  0  0  0  0  0  0  0  0  0
    6.2030  -13.5080   26.2088 C   0  0  0  0  0  0  0  0  0  0  0  0
    6.1111  -12.1343   26.4415 C   0  0  0  0  0  0  0  0  0  0  0  0
    7.1556  -11.2871   26.1426 C   0  0  0  0  0  0  0  0  0  0  0  0
    8.3298  -11.7696   25.6019 C   0  0  0  0  0  0  0  0  0  0  0  0
    8.3989  -13.1284   25.3803 C   0  0  0  0  0  0  0  0  0  0  0  0
    7.3493  -14.0001   25.6779 C   0  0  0  0  0  0  0  0  0  0  0  0
    8.9733  -17.4658   22.9447 C   0  0  0  0  0  0  0  0  0  0  0  0
    9.0950  -18.6842   23.2320 O   0  0  0  0  0  0  0  0  0  0  0  0
   10.0300  -17.3999   19.1745 C   0  0  0  0  0  0  0  0  0  0  0  0
   11.2294  -17.2765   20.0374 C   0  0  1  0  0  0  0  0  0  0  0  0
   11.6568  -15.9261   19.9096 O   0  0  0  0  0  0  0  0  0  0  0  0
   11.0483  -17.6179   21.4886 C   0  0  2  0  0  0  0  0  0  0  0  0
    9.8857  -16.8860   22.0256 N   0  0  0  0  0  0  0  0  0  0  0  0
   12.2294  -17.3561   22.3375 C   0  0  0  0  0  0  0  0  0  0  0  0
   12.5037  -16.1716   22.7352 O   0  0  0  0  0  0  0  0  0  0  0  0
   14.1294  -20.3457   23.4818 O   0  0  0  0  0  0  0  0  0  0  0  0
   14.8253  -19.3257   24.1430 C   0  0  0  0  0  0  0  0  0  0  0  0
   14.3545  -18.0114   23.5027 C   0  0  2  0  0  0  0  0  0  0  0  0
   13.1388  -18.3439   22.7825 N   0  0  0  0  0  0  0  0  0  0  0  0
   15.3546  -17.5348   22.5352 C   0  0  0  0  0  0  0  0  0  0  0  0
   16.5895  -17.1049   22.9756 O   0  0  0  0  0  0  0  0  0  0  0  0
   15.0945  -17.5165   21.3192 O   0  0  0  0  0  0  0  0  0  0  0  0
  2  1  1  1
  2  3  1  0
  2 13  1  0
  4 12  1  0
  4  3  1  0
  5  4  2  0
  6  5  1  0
  6  7  1  0
  7  8  1  0
  7 12  2  0
  8  9  2  0
  9 10  1  0
 11 10  2  0
 12 11  1  0
 13 14  2  0
 16 18  1  0
 16 15  1  6
 17 16  1  0
 19 13  1  0
 18 19  1  1
 20 25  1  0
 20 18  1  0
 21 20  2  0
 23 22  1  0
 24 25  1  0
 24 23  1  6
 26 27  1  0
 26 24  1  0
 28 26  2  0
M  END
$$$$
