WTS.pdb
     RDKit          3D

 28 29  0  0  1  0  0  0  0  0999 V2000
    7.3508  -17.0141   23.1477 N   0  0  0  0  0  0  0  0  0  0  0  0
    8.5719  -16.3188   23.5097 C   0  0  1  0  0  0  0  0  0  0  0  0
    8.6355  -16.2222   25.0178 C   0  0  0  0  0  0  0  0  0  0  0  0
    7.4594  -15.4771   25.5479 C   0  0  0  0  0  0  0  0  0  0  0  0
    6.2319  -15.9794   25.8909 C   0  0  0  0  0  0  0  0  0  0  0  0
    5.4853  -14.9564   26.3192 N   0  0  0  0  0  0  0  0  0  0  0  0
    6.1930  -13.8174   26.2617 C   0  0  0  0  0  0  0  0  0  0  0  0
    5.9089  -12.4880   26.5803 C   0  0  0  0  0  0  0  0  0  0  0  0
    6.8516  -11.4966   26.4173 C   0  0  0  0  0  0  0  0  0  0  0  0
    8.1107  -11.7858   25.9327 C   0  0  0  0  0  0  0  0  0  0  0  0
    8.3697  -13.1041   25.6245 C   0  0  0  0  0  0  0  0  0  0  0  0
    7.4252  -14.1203   25.7841 C   0  0  0  0  0  0  0  0  0  0  0  0
    9.7046  -17.0917   22.9526 C   0  0  0  0  0  0  0  0  0  0  0  0
    9.4365  -18.1259   22.2888 O   0  0  0  0  0  0  0  0  0  0  0  0
   10.4969  -17.3645   20.3452 C   0  0  0  0  0  0  0  0  0  0  0  0
   11.8322  -16.9432   20.8327 C   0  0  1  0  0  0  0  0  0  0  0  0
   11.8976  -15.5403   20.6083 O   0  0  0  0  0  0  0  0  0  0  0  0
   12.1458  -17.2440   22.2702 C   0  0  2  0  0  0  0  0  0  0  0  0
   11.0642  -16.7264   23.1292 N   0  0  0  0  0  0  0  0  0  0  0  0
   13.4437  -16.7184   22.7429 C   0  0  0  0  0  0  0  0  0  0  0  0
   13.7028  -15.4665   22.6952 O   0  0  0  0  0  0  0  0  0  0  0  0
   15.9986  -19.2441   23.9586 O   0  0  0  0  0  0  0  0  0  0  0  0
   16.3433  -18.0778   24.6534 C   0  0  0  0  0  0  0  0  0  0  0  0
   15.6599  -16.9241   23.9045 C   0  0  2  0  0  0  0  0  0  0  0  0
   14.4884  -17.5082   23.2771 N   0  0  0  0  0  0  0  0  0  0  0  0
   16.5475  -16.4113   22.8496 C   0  0  0  0  0  0  0  0  0  0  0  0
   17.6830  -15.7044   23.1877 O   0  0  0  0  0  0  0  0  0  0  0  0
   16.2811  -16.6111   21.6514 O   0  0  0  0  0  0  0  0  0  0  0  0
  2  1  1  1
  2  3  1  0
  2 13  1  0
  4 12  1  0
  4  3  1  0
  5  4  2  0
  6  5  1  0
  6  7  1  0
  7  8  1  0
  7 12  2  0
  8  9  2  0
  9 10  1  0
 11 10  2  0
 12 11  1  0
 13 14  2  0
 16 18  1  0
 16 15  1  1
 17 16  1  0
 19 13  1  0
 18 19  1  1
 20 25  1  0
 20 18  1  0
 21 20  2  0
 23 22  1  0
 24 25  1  0
 24 23  1  6
 26 27  1  0
 26 24  1  0
 28 26  2  0
M  END
$$$$
