VMN.pdb
     RDKit          3D

 24 23  0  0  1  0  0  0  0  0999 V2000
    7.3201  -12.4335   20.9560 C   0  0  0  0  0  0  0  0  0  0  0  0
    8.4390  -13.1049   20.1743 C   0  0  2  0  0  0  0  0  0  0  0  0
    7.9416  -13.1864   18.7311 C   0  0  0  0  0  0  0  0  0  0  0  0
    8.6562  -14.5121   20.6398 C   0  0  2  0  0  0  0  0  0  0  0  0
    7.4424  -15.2637   20.3836 N   0  0  0  0  0  0  0  0  0  0  0  0
    9.0045  -14.5881   22.0838 C   0  0  0  0  0  0  0  0  0  0  0  0
   10.1194  -14.1580   22.4700 O   0  0  0  0  0  0  0  0  0  0  0  0
    6.1801  -11.2315   26.5052 C   0  0  0  0  0  0  0  0  0  0  0  0
    7.1219  -12.7866   26.3681 S   0  0  0  0  0  0  0  0  0  0  0  0
    6.3202  -13.9042   25.1619 C   0  0  0  0  0  0  0  0  0  0  0  0
    7.0864  -15.2301   25.2613 C   0  0  0  0  0  0  0  0  0  0  0  0
    8.4009  -15.1328   24.4763 C   0  0  2  0  0  0  0  0  0  0  0  0
    8.1276  -15.1286   23.0494 N   0  0  0  0  0  0  0  0  0  0  0  0
    9.2252  -16.2991   24.8692 C   0  0  0  0  0  0  0  0  0  0  0  0
    9.4117  -16.5305   26.0895 O   0  0  0  0  0  0  0  0  0  0  0  0
    9.4061  -19.6212   21.1966 N   0  0  0  0  0  0  0  0  0  0  0  0
    9.5030  -19.6810   22.6092 C   0  0  0  0  0  0  0  0  0  0  0  0
    8.4770  -19.9864   23.2608 O   0  0  0  0  0  0  0  0  0  0  0  0
   10.7574  -19.3983   23.3220 C   0  0  0  0  0  0  0  0  0  0  0  0
   10.6532  -18.2985   24.3199 C   0  0  2  0  0  0  0  0  0  0  0  0
    9.8316  -17.1920   23.9351 N   0  0  0  0  0  0  0  0  0  0  0  0
   12.0392  -17.7974   24.6024 C   0  0  0  0  0  0  0  0  0  0  0  0
   12.3254  -16.5875   24.4188 O   0  0  0  0  0  0  0  0  0  0  0  0
   13.0484  -18.6281   25.0696 O   0  0  0  0  0  0  0  0  0  0  0  0
  2  1  1  1
  2  3  1  0
  4  2  1  0
  4  6  1  0
  4  5  1  1
  6 13  1  0
  6  7  2  0
  9  8  1  0
 10  9  1  0
 11 10  1  0
 12 11  1  1
 13 12  1  0
 14 12  1  0
 14 15  2  0
 16 17  1  0
 17 19  1  0
 18 17  2  0
 20 19  1  6
 20 21  1  0
 21 14  1  0
 22 20  1  0
 23 22  2  0
 24 22  1  0
M  END
$$$$
