VMN.pdb
     RDKit          3D

 24 23  0  0  1  0  0  0  0  0999 V2000
    7.1202  -12.3991   20.5776 C   0  0  0  0  0  0  0  0  0  0  0  0
    8.0641  -13.2459   19.7376 C   0  0  2  0  0  0  0  0  0  0  0  0
    7.3311  -13.4952   18.4196 C   0  0  0  0  0  0  0  0  0  0  0  0
    8.2952  -14.5855   20.3671 C   0  0  2  0  0  0  0  0  0  0  0  0
    7.0345  -15.3025   20.3759 N   0  0  0  0  0  0  0  0  0  0  0  0
    8.8288  -14.4811   21.7515 C   0  0  0  0  0  0  0  0  0  0  0  0
   10.0030  -14.0718   21.9277 O   0  0  0  0  0  0  0  0  0  0  0  0
    7.2712  -11.3691   26.9659 C   0  0  0  0  0  0  0  0  0  0  0  0
    6.6883  -13.0965   26.9493 S   0  0  0  0  0  0  0  0  0  0  0  0
    6.6466  -13.7307   25.2339 C   0  0  0  0  0  0  0  0  0  0  0  0
    7.4769  -15.0211   25.2550 C   0  0  0  0  0  0  0  0  0  0  0  0
    8.6140  -14.9261   24.2296 C   0  0  2  0  0  0  0  0  0  0  0  0
    8.0654  -14.8259   22.8880 N   0  0  0  0  0  0  0  0  0  0  0  0
    9.4419  -16.1440   24.3895 C   0  0  0  0  0  0  0  0  0  0  0  0
    9.9373  -16.6827   23.3687 O   0  0  0  0  0  0  0  0  0  0  0  0
   12.2410  -20.5632   24.6331 N   0  0  0  0  0  0  0  0  0  0  0  0
   12.3870  -19.4123   25.4471 C   0  0  0  0  0  0  0  0  0  0  0  0
   13.1344  -19.4874   26.4502 O   0  0  0  0  0  0  0  0  0  0  0  0
   11.6950  -18.1494   25.1512 C   0  0  0  0  0  0  0  0  0  0  0  0
   10.3537  -18.0297   25.7862 C   0  0  2  0  0  0  0  0  0  0  0  0
    9.7178  -16.7553   25.6494 N   0  0  0  0  0  0  0  0  0  0  0  0
   10.5037  -18.3421   27.2463 C   0  0  0  0  0  0  0  0  0  0  0  0
   10.9568  -19.4556   27.6127 O   0  0  0  0  0  0  0  0  0  0  0  0
   10.1567  -17.4363   28.2390 O   0  0  0  0  0  0  0  0  0  0  0  0
  2  1  1  1
  2  3  1  0
  4  2  1  0
  4  6  1  0
  4  5  1  1
  6 13  1  0
  6  7  2  0
  9  8  1  0
 10  9  1  0
 11 10  1  0
 12 11  1  1
 13 12  1  0
 14 12  1  0
 14 15  2  0
 16 17  1  0
 17 19  1  0
 18 17  2  0
 20 19  1  1
 20 21  1  0
 21 14  1  0
 22 20  1  0
 23 22  2  0
 24 22  1  0
M  END
$$$$
