VMN.pdb
     RDKit          3D

 24 23  0  0  1  0  0  0  0  0999 V2000
    7.4938  -13.3811   18.2995 C   0  0  0  0  0  0  0  0  0  0  0  0
    7.7341  -13.2473   19.7956 C   0  0  2  0  0  0  0  0  0  0  0  0
    8.7841  -12.1467   19.9471 C   0  0  0  0  0  0  0  0  0  0  0  0
    8.3309  -14.4990   20.3624 C   0  0  2  0  0  0  0  0  0  0  0  0
    7.3971  -15.5855   20.1366 N   0  0  0  0  0  0  0  0  0  0  0  0
    8.6306  -14.3814   21.8145 C   0  0  0  0  0  0  0  0  0  0  0  0
    9.6922  -13.8180   22.1787 O   0  0  0  0  0  0  0  0  0  0  0  0
    7.6759  -11.2192   27.5080 C   0  0  0  0  0  0  0  0  0  0  0  0
    6.3689  -12.3534   26.9342 S   0  0  0  0  0  0  0  0  0  0  0  0
    7.0996  -13.9532   26.4307 C   0  0  0  0  0  0  0  0  0  0  0  0
    6.8348  -14.0672   24.9235 C   0  0  0  0  0  0  0  0  0  0  0  0
    8.0193  -14.7596   24.2370 C   0  0  2  0  0  0  0  0  0  0  0  0
    7.7650  -14.8811   22.8118 N   0  0  0  0  0  0  0  0  0  0  0  0
    8.1735  -16.0864   24.8774 C   0  0  0  0  0  0  0  0  0  0  0  0
    7.2554  -16.9343   24.7518 O   0  0  0  0  0  0  0  0  0  0  0  0
   12.3036  -19.3994   23.0840 N   0  0  0  0  0  0  0  0  0  0  0  0
   11.1524  -19.2727   23.9007 C   0  0  0  0  0  0  0  0  0  0  0  0
   10.7408  -20.2900   24.5058 O   0  0  0  0  0  0  0  0  0  0  0  0
   10.4371  -17.9976   24.0555 C   0  0  0  0  0  0  0  0  0  0  0  0
   10.0132  -17.7059   25.4525 C   0  0  2  0  0  0  0  0  0  0  0  0
    9.3169  -16.4701   25.6407 N   0  0  0  0  0  0  0  0  0  0  0  0
   11.2393  -17.7077   26.3177 C   0  0  0  0  0  0  0  0  0  0  0  0
   12.0168  -18.6951   26.3129 O   0  0  0  0  0  0  0  0  0  0  0  0
   11.5653  -16.6427   27.1460 O   0  0  0  0  0  0  0  0  0  0  0  0
  2  1  1  6
  2  3  1  0
  4  2  1  0
  4  6  1  0
  4  5  1  1
  6 13  1  0
  6  7  2  0
  9  8  1  0
 10  9  1  0
 11 10  1  0
 12 11  1  1
 13 12  1  0
 14 12  1  0
 14 15  2  0
 16 17  1  0
 17 19  1  0
 18 17  2  0
 20 19  1  6
 20 21  1  0
 21 14  1  0
 22 20  1  0
 23 22  2  0
 24 22  1  0
M  END
$$$$
