VMN.pdb
     RDKit          3D

 24 23  0  0  1  0  0  0  0  0999 V2000
    7.2457  -12.6963   19.9410 C   0  0  0  0  0  0  0  0  0  0  0  0
    8.2757  -13.6133   19.2991 C   0  0  2  0  0  0  0  0  0  0  0  0
    7.6319  -14.1145   18.0064 C   0  0  0  0  0  0  0  0  0  0  0  0
    8.5345  -14.8177   20.1516 C   0  0  2  0  0  0  0  0  0  0  0  0
    7.3530  -15.6582   20.1144 N   0  0  0  0  0  0  0  0  0  0  0  0
    8.8594  -14.4617   21.5587 C   0  0  0  0  0  0  0  0  0  0  0  0
    9.9166  -13.8297   21.8037 O   0  0  0  0  0  0  0  0  0  0  0  0
    6.8526  -11.0906   27.0355 C   0  0  0  0  0  0  0  0  0  0  0  0
    6.0783  -12.7184   26.7624 S   0  0  0  0  0  0  0  0  0  0  0  0
    7.3454  -13.9447   26.2752 C   0  0  0  0  0  0  0  0  0  0  0  0
    7.0236  -14.3086   24.8195 C   0  0  0  0  0  0  0  0  0  0  0  0
    8.3249  -14.4927   24.0282 C   0  0  2  0  0  0  0  0  0  0  0  0
    8.0228  -14.8070   22.6424 N   0  0  0  0  0  0  0  0  0  0  0  0
    9.0768  -15.5880   24.6833 C   0  0  0  0  0  0  0  0  0  0  0  0
    8.5440  -16.7215   24.7782 O   0  0  0  0  0  0  0  0  0  0  0  0
   11.9347  -17.5203   28.6063 N   0  0  0  0  0  0  0  0  0  0  0  0
   10.6620  -16.9023   28.6887 C   0  0  0  0  0  0  0  0  0  0  0  0
   10.0414  -16.9674   29.7754 O   0  0  0  0  0  0  0  0  0  0  0  0
   10.0577  -16.1963   27.5495 C   0  0  0  0  0  0  0  0  0  0  0  0
   10.8890  -16.2147   26.3146 C   0  0  2  0  0  0  0  0  0  0  0  0
   10.3895  -15.4364   25.2228 N   0  0  0  0  0  0  0  0  0  0  0  0
   11.0254  -17.6414   25.8700 C   0  0  0  0  0  0  0  0  0  0  0  0
   11.5351  -18.4978   26.6357 O   0  0  0  0  0  0  0  0  0  0  0  0
   10.6043  -18.0732   24.6199 O   0  0  0  0  0  0  0  0  0  0  0  0
  2  1  1  1
  2  3  1  0
  4  2  1  0
  4  6  1  0
  4  5  1  1
  6 13  1  0
  6  7  2  0
  9  8  1  0
 10  9  1  0
 11 10  1  0
 12 11  1  1
 13 12  1  0
 14 12  1  0
 14 15  2  0
 16 17  1  0
 17 19  1  0
 18 17  2  0
 20 19  1  1
 20 21  1  0
 21 14  1  0
 22 20  1  0
 23 22  2  0
 24 22  1  0
M  END
$$$$
