VMN.pdb
     RDKit          3D

 24 23  0  0  1  0  0  0  0  0999 V2000
    7.2473  -14.2333   20.6781 C   0  0  0  0  0  0  0  0  0  0  0  0
    8.3717  -15.1821   20.2919 C   0  0  2  0  0  0  0  0  0  0  0  0
    7.8320  -16.0059   19.1228 C   0  0  0  0  0  0  0  0  0  0  0  0
    8.6730  -16.1443   21.3998 C   0  0  2  0  0  0  0  0  0  0  0  0
    7.4951  -16.9617   21.6192 N   0  0  0  0  0  0  0  0  0  0  0  0
    9.0566  -15.4585   22.6626 C   0  0  0  0  0  0  0  0  0  0  0  0
   10.2367  -15.0540   22.8076 O   0  0  0  0  0  0  0  0  0  0  0  0
    5.7489  -10.8719   25.8067 C   0  0  0  0  0  0  0  0  0  0  0  0
    6.1311  -12.0290   27.1628 S   0  0  0  0  0  0  0  0  0  0  0  0
    7.6122  -13.0192   26.7474 C   0  0  0  0  0  0  0  0  0  0  0  0
    7.2518  -13.7734   25.4604 C   0  0  0  0  0  0  0  0  0  0  0  0
    8.4774  -14.5375   24.9433 C   0  0  2  0  0  0  0  0  0  0  0  0
    8.1429  -15.2404   23.7166 N   0  0  0  0  0  0  0  0  0  0  0  0
    8.8842  -15.4760   26.0147 C   0  0  0  0  0  0  0  0  0  0  0  0
    9.1198  -15.0250   27.1631 O   0  0  0  0  0  0  0  0  0  0  0  0
    6.3513  -18.5544   25.6595 N   0  0  0  0  0  0  0  0  0  0  0  0
    7.3362  -19.2222   26.4292 C   0  0  0  0  0  0  0  0  0  0  0  0
    7.5135  -20.4467   26.2302 O   0  0  0  0  0  0  0  0  0  0  0  0
    8.1450  -18.5272   27.4413 C   0  0  0  0  0  0  0  0  0  0  0  0
    9.3176  -17.7984   26.8845 C   0  0  2  0  0  0  0  0  0  0  0  0
    9.0284  -16.8831   25.8235 N   0  0  0  0  0  0  0  0  0  0  0  0
   10.3032  -18.8166   26.3908 C   0  0  0  0  0  0  0  0  0  0  0  0
   10.6729  -18.8101   25.1896 O   0  0  0  0  0  0  0  0  0  0  0  0
   10.8413  -19.7920   27.2189 O   0  0  0  0  0  0  0  0  0  0  0  0
  2  1  1  1
  2  3  1  0
  4  2  1  0
  4  6  1  0
  4  5  1  1
  6 13  1  0
  6  7  2  0
  9  8  1  0
 10  9  1  0
 11 10  1  0
 12 11  1  1
 13 12  1  0
 14 12  1  0
 14 15  2  0
 16 17  1  0
 17 19  1  0
 18 17  2  0
 20 19  1  6
 20 21  1  0
 21 14  1  0
 22 20  1  0
 23 22  2  0
 24 22  1  0
M  END
$$$$
