VMN.pdb
     RDKit          3D

 24 23  0  0  1  0  0  0  0  0999 V2000
    7.3347  -15.2095   18.0628 C   0  0  0  0  0  0  0  0  0  0  0  0
    7.9513  -15.2038   19.4533 C   0  0  2  0  0  0  0  0  0  0  0  0
    7.3530  -16.4118   20.1741 C   0  0  0  0  0  0  0  0  0  0  0  0
    7.5372  -13.9880   20.2245 C   0  0  2  0  0  0  0  0  0  0  0  0
    7.9398  -12.8170   19.4693 N   0  0  0  0  0  0  0  0  0  0  0  0
    8.1357  -13.9442   21.5854 C   0  0  0  0  0  0  0  0  0  0  0  0
    9.3717  -13.7575   21.7069 O   0  0  0  0  0  0  0  0  0  0  0  0
    7.1952  -10.9838   27.5615 C   0  0  0  0  0  0  0  0  0  0  0  0
    5.8936  -11.8960   26.6685 S   0  0  0  0  0  0  0  0  0  0  0  0
    6.4944  -12.3916   25.0132 C   0  0  0  0  0  0  0  0  0  0  0  0
    6.8871  -13.8691   25.1464 C   0  0  0  0  0  0  0  0  0  0  0  0
    7.9395  -14.2262   24.0888 C   0  0  2  0  0  0  0  0  0  0  0  0
    7.3673  -14.1054   22.7588 N   0  0  0  0  0  0  0  0  0  0  0  0
    8.3787  -15.6130   24.3684 C   0  0  0  0  0  0  0  0  0  0  0  0
    7.5825  -16.5600   24.1519 O   0  0  0  0  0  0  0  0  0  0  0  0
   12.5294  -16.6602   22.4829 N   0  0  0  0  0  0  0  0  0  0  0  0
   11.5590  -17.4923   23.0947 C   0  0  0  0  0  0  0  0  0  0  0  0
   10.7723  -18.1276   22.3546 O   0  0  0  0  0  0  0  0  0  0  0  0
   11.4512  -17.6288   24.5546 C   0  0  0  0  0  0  0  0  0  0  0  0
   10.1061  -17.2931   25.0973 C   0  0  2  0  0  0  0  0  0  0  0  0
    9.6697  -15.9484   24.8764 N   0  0  0  0  0  0  0  0  0  0  0  0
   10.1232  -17.5605   26.5738 C   0  0  0  0  0  0  0  0  0  0  0  0
    9.7849  -16.6617   27.3845 O   0  0  0  0  0  0  0  0  0  0  0  0
   10.5050  -18.7859   27.1023 O   0  0  0  0  0  0  0  0  0  0  0  0
  2  1  1  6
  2  3  1  0
  4  2  1  0
  4  6  1  0
  4  5  1  6
  6 13  1  0
  6  7  2  0
  9  8  1  0
 10  9  1  0
 11 10  1  0
 12 11  1  1
 13 12  1  0
 14 12  1  0
 14 15  2  0
 16 17  1  0
 17 19  1  0
 18 17  2  0
 20 19  1  1
 20 21  1  0
 21 14  1  0
 22 20  1  0
 23 22  2  0
 24 22  1  0
M  END
$$$$
