VMN.pdb
     RDKit          3D

 24 23  0  0  1  0  0  0  0  0999 V2000
    7.5276  -12.5189   19.8438 C   0  0  0  0  0  0  0  0  0  0  0  0
    8.3560  -13.5738   19.1263 C   0  0  2  0  0  0  0  0  0  0  0  0
    7.5400  -13.9718   17.8964 C   0  0  0  0  0  0  0  0  0  0  0  0
    8.5080  -14.8058   19.9649 C   0  0  2  0  0  0  0  0  0  0  0  0
    7.2362  -15.5032   19.9756 N   0  0  0  0  0  0  0  0  0  0  0  0
    8.9300  -14.4995   21.3578 C   0  0  0  0  0  0  0  0  0  0  0  0
   10.0885  -14.0618   21.5662 O   0  0  0  0  0  0  0  0  0  0  0  0
    6.9751  -11.6540   28.2957 C   0  0  0  0  0  0  0  0  0  0  0  0
    6.4238  -12.4166   26.7342 S   0  0  0  0  0  0  0  0  0  0  0  0
    7.7461  -13.4807   26.0516 C   0  0  0  0  0  0  0  0  0  0  0  0
    7.3012  -13.8196   24.6225 C   0  0  0  0  0  0  0  0  0  0  0  0
    8.4734  -14.4282   23.8421 C   0  0  2  0  0  0  0  0  0  0  0  0
    8.0764  -14.6813   22.4677 N   0  0  0  0  0  0  0  0  0  0  0  0
    8.8519  -15.6795   24.5386 C   0  0  0  0  0  0  0  0  0  0  0  0
    7.9538  -16.5027   24.8443 O   0  0  0  0  0  0  0  0  0  0  0  0
   12.4486  -17.8087   22.8870 N   0  0  0  0  0  0  0  0  0  0  0  0
   12.6503  -17.1592   24.1304 C   0  0  0  0  0  0  0  0  0  0  0  0
   13.4037  -16.1583   24.1602 O   0  0  0  0  0  0  0  0  0  0  0  0
   12.0087  -17.6214   25.3698 C   0  0  0  0  0  0  0  0  0  0  0  0
   10.5661  -17.2686   25.4737 C   0  0  2  0  0  0  0  0  0  0  0  0
   10.1935  -16.0162   24.8907 N   0  0  0  0  0  0  0  0  0  0  0  0
   10.1969  -17.2548   26.9282 C   0  0  0  0  0  0  0  0  0  0  0  0
    9.8303  -16.1862   27.4788 O   0  0  0  0  0  0  0  0  0  0  0  0
   10.2420  -18.3962   27.7168 O   0  0  0  0  0  0  0  0  0  0  0  0
  2  1  1  1
  2  3  1  0
  4  2  1  0
  4  6  1  0
  4  5  1  1
  6 13  1  0
  6  7  2  0
  9  8  1  0
 10  9  1  0
 11 10  1  0
 12 11  1  1
 13 12  1  0
 14 12  1  0
 14 15  2  0
 16 17  1  0
 17 19  1  0
 18 17  2  0
 20 19  1  1
 20 21  1  0
 21 14  1  0
 22 20  1  0
 23 22  2  0
 24 22  1  0
M  END
$$$$
