VMN.pdb
     RDKit          3D

 24 23  0  0  1  0  0  0  0  0999 V2000
    7.2676  -12.5622   20.5349 C   0  0  0  0  0  0  0  0  0  0  0  0
    8.3382  -13.4071   19.8614 C   0  0  2  0  0  0  0  0  0  0  0  0
    7.7905  -13.7353   18.4725 C   0  0  0  0  0  0  0  0  0  0  0  0
    8.5268  -14.7113   20.5741 C   0  0  2  0  0  0  0  0  0  0  0  0
    7.2814  -15.4507   20.4974 N   0  0  0  0  0  0  0  0  0  0  0  0
    8.9235  -14.5322   21.9963 C   0  0  0  0  0  0  0  0  0  0  0  0
   10.0356  -14.0131   22.2629 O   0  0  0  0  0  0  0  0  0  0  0  0
    7.0457  -11.0272   27.2073 C   0  0  0  0  0  0  0  0  0  0  0  0
    5.9253  -12.0553   26.2015 S   0  0  0  0  0  0  0  0  0  0  0  0
    6.8353  -12.7851   24.7923 C   0  0  0  0  0  0  0  0  0  0  0  0
    7.1863  -14.2140   25.2283 C   0  0  0  0  0  0  0  0  0  0  0  0
    8.4265  -14.7013   24.4680 C   0  0  2  0  0  0  0  0  0  0  0  0
    8.0961  -14.9246   23.0710 N   0  0  0  0  0  0  0  0  0  0  0  0
    8.8739  -15.9498   25.1278 C   0  0  0  0  0  0  0  0  0  0  0  0
    9.2129  -15.9128   26.3366 O   0  0  0  0  0  0  0  0  0  0  0  0
   12.5823  -19.2303   22.6873 N   0  0  0  0  0  0  0  0  0  0  0  0
   12.4811  -18.0215   23.4201 C   0  0  0  0  0  0  0  0  0  0  0  0
   13.5054  -17.5946   24.0024 O   0  0  0  0  0  0  0  0  0  0  0  0
   11.2244  -17.2645   23.5148 C   0  0  0  0  0  0  0  0  0  0  0  0
   10.1621  -17.9490   24.3019 C   0  0  2  0  0  0  0  0  0  0  0  0
    8.9461  -17.2133   24.4677 N   0  0  0  0  0  0  0  0  0  0  0  0
   10.7235  -18.2685   25.6564 C   0  0  0  0  0  0  0  0  0  0  0  0
   10.8999  -17.3546   26.5009 O   0  0  0  0  0  0  0  0  0  0  0  0
   11.0667  -19.5598   26.0323 O   0  0  0  0  0  0  0  0  0  0  0  0
  2  1  1  1
  2  3  1  0
  4  2  1  0
  4  6  1  0
  4  5  1  1
  6 13  1  0
  6  7  2  0
  9  8  1  0
 10  9  1  0
 11 10  1  0
 12 11  1  1
 13 12  1  0
 14 12  1  0
 14 15  2  0
 16 17  1  0
 17 19  1  0
 18 17  2  0
 20 19  1  6
 20 21  1  0
 21 14  1  0
 22 20  1  0
 23 22  2  0
 24 22  1  0
M  END
$$$$
