EFE.pdb
     RDKit          3D

 30 30  0  0  1  0  0  0  0  0999 V2000
    8.6418  -16.4311   19.3356 N   0  0  0  0  0  0  0  0  0  0  0  0
    8.8719  -17.3463   20.4669 C   0  0  1  0  0  0  0  0  0  0  0  0
   10.0754  -18.1875   20.2134 C   0  0  0  0  0  0  0  0  0  0  0  0
    9.7062  -19.6320   20.0489 C   0  0  0  0  0  0  0  0  0  0  0  0
    9.8655  -20.0775   18.6614 C   0  0  0  0  0  0  0  0  0  0  0  0
   10.3246  -19.3268   17.7769 O   0  0  0  0  0  0  0  0  0  0  0  0
    9.1035  -16.4804   21.6440 C   0  0  0  0  0  0  0  0  0  0  0  0
   10.2328  -16.1003   22.0011 O   0  0  0  0  0  0  0  0  0  0  0  0
    9.4993  -21.3651   18.3066 O   0  0  0  0  0  0  0  0  0  0  0  0
    8.0322  -16.0171   22.4592 N   0  0  0  0  0  0  0  0  0  0  0  0
    8.1521  -15.2232   23.6263 C   0  0  1  0  0  0  0  0  0  0  0  0
    7.0275  -14.3492   23.9899 C   0  0  0  0  0  0  0  0  0  0  0  0
    7.2001  -13.5400   25.2036 C   0  0  0  0  0  0  0  0  0  0  0  0
    8.0504  -12.4645   25.3030 C   0  0  0  0  0  0  0  0  0  0  0  0
    8.1004  -11.7867   26.5173 C   0  0  0  0  0  0  0  0  0  0  0  0
    7.3152  -12.1829   27.5985 C   0  0  0  0  0  0  0  0  0  0  0  0
    6.4673  -13.2624   27.4828 C   0  0  0  0  0  0  0  0  0  0  0  0
    6.4094  -13.9395   26.2880 C   0  0  0  0  0  0  0  0  0  0  0  0
    8.7418  -15.9980   24.7728 C   0  0  0  0  0  0  0  0  0  0  0  0
    8.1557  -17.0351   25.1478 O   0  0  0  0  0  0  0  0  0  0  0  0
    9.9166  -15.5969   25.4195 N   0  0  0  0  0  0  0  0  0  0  0  0
   10.7206  -16.4732   26.3142 C   0  0  1  0  0  0  0  0  0  0  0  0
   12.1457  -16.3628   25.9602 C   0  0  0  0  0  0  0  0  0  0  0  0
   12.6260  -17.0035   24.7173 C   0  0  0  0  0  0  0  0  0  0  0  0
   14.0323  -16.8601   24.3415 C   0  0  0  0  0  0  0  0  0  0  0  0
   14.8872  -16.2472   25.0782 O   0  0  0  0  0  0  0  0  0  0  0  0
   10.3476  -16.0430   27.6676 C   0  0  0  0  0  0  0  0  0  0  0  0
   10.8020  -16.5910   28.6863 O   0  0  0  0  0  0  0  0  0  0  0  0
   14.5664  -17.3816   23.1458 O   0  0  0  0  0  0  0  0  0  0  0  0
    9.4572  -14.9896   27.9077 O   0  0  0  0  0  0  0  0  0  0  0  0
  2  7  1  0
  2  1  1  6
  3  4  1  0
  3  2  1  0
  4  5  1  0
  5  6  2  0
  5  9  1  0
  7  8  2  0
 10  7  1  0
 10 11  1  0
 11 12  1  1
 12 13  1  0
 13 18  2  0
 14 13  1  0
 14 15  2  0
 15 16  1  0
 16 17  2  0
 18 17  1  0
 19 21  1  0
 19 11  1  0
 20 19  2  0
 22 23  1  6
 22 27  1  0
 22 21  1  0
 24 25  1  0
 24 23  1  0
 25 29  1  0
 26 25  2  0
 27 30  1  0
 28 27  2  0
M  END
$$$$
