EFE.pdb
     RDKit          3D

 30 30  0  0  1  0  0  0  0  0999 V2000
    9.2900  -17.0687   19.5081 N   0  0  0  0  0  0  0  0  0  0  0  0
    9.4225  -17.5718   20.8864 C   0  0  1  0  0  0  0  0  0  0  0  0
   10.7075  -18.3091   21.0453 C   0  0  0  0  0  0  0  0  0  0  0  0
   11.0515  -19.0789   19.8049 C   0  0  0  0  0  0  0  0  0  0  0  0
   12.2819  -19.8579   19.9740 C   0  0  0  0  0  0  0  0  0  0  0  0
   12.4415  -20.6367   20.9355 O   0  0  0  0  0  0  0  0  0  0  0  0
    9.4207  -16.3732   21.7538 C   0  0  0  0  0  0  0  0  0  0  0  0
   10.2091  -15.4222   21.6068 O   0  0  0  0  0  0  0  0  0  0  0  0
   13.3054  -19.7357   19.0491 O   0  0  0  0  0  0  0  0  0  0  0  0
    8.5021  -16.2261   22.8314 N   0  0  0  0  0  0  0  0  0  0  0  0
    8.4388  -15.1356   23.7335 C   0  0  1  0  0  0  0  0  0  0  0  0
    7.1134  -14.6355   24.1260 C   0  0  0  0  0  0  0  0  0  0  0  0
    7.0938  -13.5843   25.1518 C   0  0  0  0  0  0  0  0  0  0  0  0
    7.1571  -13.8208   26.5045 C   0  0  0  0  0  0  0  0  0  0  0  0
    7.1384  -12.7213   27.3572 C   0  0  0  0  0  0  0  0  0  0  0  0
    7.0584  -11.4222   26.8590 C   0  0  0  0  0  0  0  0  0  0  0  0
    6.9965  -11.2014   25.5007 C   0  0  0  0  0  0  0  0  0  0  0  0
    7.0144  -12.2800   24.6486 C   0  0  0  0  0  0  0  0  0  0  0  0
    9.4134  -15.2903   24.8687 C   0  0  0  0  0  0  0  0  0  0  0  0
    9.8444  -14.2567   25.4216 O   0  0  0  0  0  0  0  0  0  0  0  0
    9.8415  -16.5442   25.3200 N   0  0  0  0  0  0  0  0  0  0  0  0
   10.8044  -16.7481   26.4363 C   0  0  1  0  0  0  0  0  0  0  0  0
   10.2773  -17.7657   27.3610 C   0  0  0  0  0  0  0  0  0  0  0  0
   11.1584  -18.2896   28.4264 C   0  0  0  0  0  0  0  0  0  0  0  0
   10.6840  -19.3915   29.2631 C   0  0  0  0  0  0  0  0  0  0  0  0
    9.5565  -19.9744   29.0673 O   0  0  0  0  0  0  0  0  0  0  0  0
   12.0702  -17.0677   25.7645 C   0  0  0  0  0  0  0  0  0  0  0  0
   13.1523  -16.5683   26.1167 O   0  0  0  0  0  0  0  0  0  0  0  0
   11.4213  -19.9063   30.3486 O   0  0  0  0  0  0  0  0  0  0  0  0
   12.1497  -17.9538   24.6835 O   0  0  0  0  0  0  0  0  0  0  0  0
  2  7  1  0
  2  1  1  6
  3  4  1  0
  3  2  1  0
  4  5  1  0
  5  6  2  0
  5  9  1  0
  7  8  2  0
 10  7  1  0
 10 11  1  0
 11 12  1  1
 12 13  1  0
 13 18  2  0
 14 13  1  0
 14 15  2  0
 15 16  1  0
 16 17  2  0
 18 17  1  0
 19 21  1  0
 19 11  1  0
 20 19  2  0
 22 23  1  1
 22 27  1  0
 22 21  1  0
 24 25  1  0
 24 23  1  0
 25 29  1  0
 26 25  2  0
 27 30  1  0
 28 27  2  0
M  END
$$$$
