EFE.pdb
     RDKit          3D

 30 30  0  0  1  0  0  0  0  0999 V2000
    8.4838  -17.8510   20.2923 N   0  0  0  0  0  0  0  0  0  0  0  0
    9.8747  -17.4492   20.5648 C   0  0  1  0  0  0  0  0  0  0  0  0
   10.5160  -16.9344   19.3222 C   0  0  0  0  0  0  0  0  0  0  0  0
   10.0670  -17.7061   18.1170 C   0  0  0  0  0  0  0  0  0  0  0  0
   10.7153  -17.2254   16.8931 C   0  0  0  0  0  0  0  0  0  0  0  0
   11.9320  -17.4007   16.6797 O   0  0  0  0  0  0  0  0  0  0  0  0
    9.7910  -16.3681   21.5715 C   0  0  0  0  0  0  0  0  0  0  0  0
   10.7560  -15.6471   21.8818 O   0  0  0  0  0  0  0  0  0  0  0  0
    9.9695  -16.5552   15.9380 O   0  0  0  0  0  0  0  0  0  0  0  0
    8.5812  -16.0765   22.2630 N   0  0  0  0  0  0  0  0  0  0  0  0
    8.4608  -15.3236   23.4570 C   0  0  1  0  0  0  0  0  0  0  0  0
    7.2241  -14.5593   23.6740 C   0  0  0  0  0  0  0  0  0  0  0  0
    7.1769  -13.7313   24.8863 C   0  0  0  0  0  0  0  0  0  0  0  0
    7.9319  -12.5991   25.0808 C   0  0  0  0  0  0  0  0  0  0  0  0
    7.7722  -11.9105   26.2795 C   0  0  0  0  0  0  0  0  0  0  0  0
    6.8769  -12.3518   27.2522 C   0  0  0  0  0  0  0  0  0  0  0  0
    6.1267  -13.4879   27.0420 C   0  0  0  0  0  0  0  0  0  0  0  0
    6.2760  -14.1762   25.8615 C   0  0  0  0  0  0  0  0  0  0  0  0
    8.9420  -16.0940   24.6560 C   0  0  0  0  0  0  0  0  0  0  0  0
    8.3591  -17.1599   24.9455 O   0  0  0  0  0  0  0  0  0  0  0  0
   10.0140  -15.6577   25.4431 N   0  0  0  0  0  0  0  0  0  0  0  0
   10.6732  -16.4832   26.4913 C   0  0  1  0  0  0  0  0  0  0  0  0
   12.1196  -16.5544   26.2241 C   0  0  0  0  0  0  0  0  0  0  0  0
   12.5796  -16.8757   24.8561 C   0  0  0  0  0  0  0  0  0  0  0  0
   14.0156  -16.9516   24.5888 C   0  0  0  0  0  0  0  0  0  0  0  0
   14.7135  -15.9263   24.2561 O   0  0  0  0  0  0  0  0  0  0  0  0
   10.2717  -15.8487   27.7530 C   0  0  0  0  0  0  0  0  0  0  0  0
   10.4832  -16.3773   28.8577 O   0  0  0  0  0  0  0  0  0  0  0  0
   14.7521  -18.1503   24.6754 O   0  0  0  0  0  0  0  0  0  0  0  0
    9.6243  -14.6083   27.8032 O   0  0  0  0  0  0  0  0  0  0  0  0
  2  7  1  0
  2  1  1  6
  3  4  1  0
  3  2  1  0
  4  5  1  0
  5  6  2  0
  5  9  1  0
  7  8  2  0
 10  7  1  0
 10 11  1  0
 11 12  1  1
 12 13  1  0
 13 18  2  0
 14 13  1  0
 14 15  2  0
 15 16  1  0
 16 17  2  0
 18 17  1  0
 19 21  1  0
 19 11  1  0
 20 19  2  0
 22 23  1  6
 22 27  1  0
 22 21  1  0
 24 25  1  0
 24 23  1  0
 25 29  1  0
 26 25  2  0
 27 30  1  0
 28 27  2  0
M  END
$$$$
