EFE.pdb
     RDKit          3D

 30 30  0  0  1  0  0  0  0  0999 V2000
    7.5245  -18.0448   20.6941 N   0  0  0  0  0  0  0  0  0  0  0  0
    8.7196  -17.2551   20.3498 C   0  0  1  0  0  0  0  0  0  0  0  0
    8.5188  -16.5554   19.0497 C   0  0  0  0  0  0  0  0  0  0  0  0
    9.7048  -16.7289   18.1481 C   0  0  0  0  0  0  0  0  0  0  0  0
    9.3299  -17.3446   16.8716 C   0  0  0  0  0  0  0  0  0  0  0  0
    8.1453  -17.6256   16.5984 O   0  0  0  0  0  0  0  0  0  0  0  0
    8.8722  -16.2622   21.4361 C   0  0  0  0  0  0  0  0  0  0  0  0
    9.9358  -15.6599   21.6669 O   0  0  0  0  0  0  0  0  0  0  0  0
   10.3071  -17.6294   15.9325 O   0  0  0  0  0  0  0  0  0  0  0  0
    7.7947  -15.9248   22.3032 N   0  0  0  0  0  0  0  0  0  0  0  0
    7.8870  -15.1661   23.4960 C   0  0  1  0  0  0  0  0  0  0  0  0
    6.7095  -14.3962   23.9219 C   0  0  0  0  0  0  0  0  0  0  0  0
    6.8191  -13.7029   25.2123 C   0  0  0  0  0  0  0  0  0  0  0  0
    6.3856  -14.2214   26.4093 C   0  0  0  0  0  0  0  0  0  0  0  0
    6.5658  -13.4505   27.5538 C   0  0  0  0  0  0  0  0  0  0  0  0
    7.1658  -12.1941   27.4912 C   0  0  0  0  0  0  0  0  0  0  0  0
    7.5957  -11.6886   26.2840 C   0  0  0  0  0  0  0  0  0  0  0  0
    7.4232  -12.4414   25.1468 C   0  0  0  0  0  0  0  0  0  0  0  0
    8.5681  -15.9330   24.5964 C   0  0  0  0  0  0  0  0  0  0  0  0
    8.0539  -17.0070   24.9729 O   0  0  0  0  0  0  0  0  0  0  0  0
    9.7493  -15.4847   25.1988 N   0  0  0  0  0  0  0  0  0  0  0  0
   10.8068  -16.3822   25.7381 C   0  0  1  0  0  0  0  0  0  0  0  0
   12.1007  -16.0436   25.1220 C   0  0  0  0  0  0  0  0  0  0  0  0
   13.3180  -16.7450   25.5826 C   0  0  0  0  0  0  0  0  0  0  0  0
   14.6055  -16.4063   24.9769 C   0  0  0  0  0  0  0  0  0  0  0  0
   15.7203  -16.5362   25.6009 O   0  0  0  0  0  0  0  0  0  0  0  0
   10.7117  -16.2147   27.1936 C   0  0  0  0  0  0  0  0  0  0  0  0
   11.2276  -17.0186   27.9886 O   0  0  0  0  0  0  0  0  0  0  0  0
   14.7316  -15.9130   23.6625 O   0  0  0  0  0  0  0  0  0  0  0  0
   10.0359  -15.1427   27.7888 O   0  0  0  0  0  0  0  0  0  0  0  0
  2  7  1  0
  2  1  1  1
  3  4  1  0
  3  2  1  0
  4  5  1  0
  5  6  2  0
  5  9  1  0
  7  8  2  0
 10  7  1  0
 10 11  1  0
 11 12  1  1
 12 13  1  0
 13 18  2  0
 14 13  1  0
 14 15  2  0
 15 16  1  0
 16 17  2  0
 18 17  1  0
 19 21  1  0
 19 11  1  0
 20 19  2  0
 22 23  1  6
 22 27  1  0
 22 21  1  0
 24 25  1  0
 24 23  1  0
 25 29  1  0
 26 25  2  0
 27 30  1  0
 28 27  2  0
M  END
$$$$
