EFE.pdb
     RDKit          3D

 30 30  0  0  1  0  0  0  0  0999 V2000
   10.2213  -16.5795   19.4061 N   0  0  0  0  0  0  0  0  0  0  0  0
    9.0262  -16.8733   20.2158 C   0  0  1  0  0  0  0  0  0  0  0  0
    8.9242  -18.3374   20.4728 C   0  0  0  0  0  0  0  0  0  0  0  0
   10.1747  -19.0528   20.0553 C   0  0  0  0  0  0  0  0  0  0  0  0
   10.0431  -20.5054   20.2026 C   0  0  0  0  0  0  0  0  0  0  0  0
    9.8967  -21.2568   19.2174 O   0  0  0  0  0  0  0  0  0  0  0  0
    9.2184  -16.1515   21.4929 C   0  0  0  0  0  0  0  0  0  0  0  0
   10.3019  -16.1191   22.1031 O   0  0  0  0  0  0  0  0  0  0  0  0
   10.0793  -21.0744   21.4646 O   0  0  0  0  0  0  0  0  0  0  0  0
    8.1593  -15.4346   22.1184 N   0  0  0  0  0  0  0  0  0  0  0  0
    8.2148  -14.7919   23.3796 C   0  0  1  0  0  0  0  0  0  0  0  0
    7.0854  -13.9376   23.7737 C   0  0  0  0  0  0  0  0  0  0  0  0
    7.1851  -13.2967   25.0916 C   0  0  0  0  0  0  0  0  0  0  0  0
    8.3097  -12.6601   25.5602 C   0  0  0  0  0  0  0  0  0  0  0  0
    8.2518  -12.0895   26.8281 C   0  0  0  0  0  0  0  0  0  0  0  0
    7.0931  -12.1596   27.5994 C   0  0  0  0  0  0  0  0  0  0  0  0
    5.9738  -12.8003   27.1154 C   0  0  0  0  0  0  0  0  0  0  0  0
    6.0193  -13.3675   25.8641 C   0  0  0  0  0  0  0  0  0  0  0  0
    8.7098  -15.7162   24.4581 C   0  0  0  0  0  0  0  0  0  0  0  0
    8.0193  -16.7181   24.7395 O   0  0  0  0  0  0  0  0  0  0  0  0
    9.9095  -15.4904   25.1428 N   0  0  0  0  0  0  0  0  0  0  0  0
   10.6925  -16.5517   25.8322 C   0  0  1  0  0  0  0  0  0  0  0  0
   12.0965  -16.4916   25.3921 C   0  0  0  0  0  0  0  0  0  0  0  0
   13.1017  -17.3203   26.0913 C   0  0  0  0  0  0  0  0  0  0  0  0
   14.5050  -17.2244   25.6902 C   0  0  0  0  0  0  0  0  0  0  0  0
   15.3652  -18.1407   25.9542 O   0  0  0  0  0  0  0  0  0  0  0  0
   10.4434  -16.3119   27.2591 C   0  0  0  0  0  0  0  0  0  0  0  0
   10.4511  -17.2297   28.0969 O   0  0  0  0  0  0  0  0  0  0  0  0
   15.0294  -16.1245   24.9815 O   0  0  0  0  0  0  0  0  0  0  0  0
   10.1801  -15.0381   27.7770 O   0  0  0  0  0  0  0  0  0  0  0  0
  2  7  1  0
  2  1  1  6
  3  4  1  0
  3  2  1  0
  4  5  1  0
  5  6  2  0
  5  9  1  0
  7  8  2  0
 10  7  1  0
 10 11  1  0
 11 12  1  1
 12 13  1  0
 13 18  2  0
 14 13  1  0
 14 15  2  0
 15 16  1  0
 16 17  2  0
 18 17  1  0
 19 21  1  0
 19 11  1  0
 20 19  2  0
 22 23  1  1
 22 27  1  0
 22 21  1  0
 24 25  1  0
 24 23  1  0
 25 29  1  0
 26 25  2  0
 27 30  1  0
 28 27  2  0
M  END
$$$$
