EFE.pdb
     RDKit          3D

 30 30  0  0  1  0  0  0  0  0999 V2000
    8.5177  -16.7127   19.4583 N   0  0  0  0  0  0  0  0  0  0  0  0
    9.4902  -17.2979   20.3975 C   0  0  1  0  0  0  0  0  0  0  0  0
   10.8081  -17.4824   19.7273 C   0  0  0  0  0  0  0  0  0  0  0  0
   10.7001  -18.4185   18.5604 C   0  0  0  0  0  0  0  0  0  0  0  0
   11.9992  -18.6334   17.9157 C   0  0  0  0  0  0  0  0  0  0  0  0
   12.9208  -19.2551   18.4821 O   0  0  0  0  0  0  0  0  0  0  0  0
    9.6207  -16.3214   21.5014 C   0  0  0  0  0  0  0  0  0  0  0  0
   10.7065  -16.0378   22.0381 O   0  0  0  0  0  0  0  0  0  0  0  0
   12.2252  -18.1374   16.6427 O   0  0  0  0  0  0  0  0  0  0  0  0
    8.4944  -15.6305   22.0313 N   0  0  0  0  0  0  0  0  0  0  0  0
    8.4180  -15.0042   23.2997 C   0  0  1  0  0  0  0  0  0  0  0  0
    7.3711  -13.9947   23.5136 C   0  0  0  0  0  0  0  0  0  0  0  0
    7.3457  -13.3560   24.8361 C   0  0  0  0  0  0  0  0  0  0  0  0
    8.2572  -12.4190   25.2614 C   0  0  0  0  0  0  0  0  0  0  0  0
    8.0993  -11.8936   26.5402 C   0  0  0  0  0  0  0  0  0  0  0  0
    7.0524  -12.3020   27.3646 C   0  0  0  0  0  0  0  0  0  0  0  0
    6.1464  -13.2413   26.9236 C   0  0  0  0  0  0  0  0  0  0  0  0
    6.2923  -13.7672   25.6620 C   0  0  0  0  0  0  0  0  0  0  0  0
    8.5772  -15.9921   24.4228 C   0  0  0  0  0  0  0  0  0  0  0  0
    7.7173  -16.8894   24.5458 O   0  0  0  0  0  0  0  0  0  0  0  0
    9.6508  -15.9374   25.3191 N   0  0  0  0  0  0  0  0  0  0  0  0
   10.1638  -17.1069   26.0832 C   0  0  1  0  0  0  0  0  0  0  0  0
   11.5270  -17.4309   25.6302 C   0  0  0  0  0  0  0  0  0  0  0  0
   12.2585  -18.5319   26.2927 C   0  0  0  0  0  0  0  0  0  0  0  0
   13.6332  -18.8188   25.8838 C   0  0  0  0  0  0  0  0  0  0  0  0
   14.5474  -19.1601   26.7187 O   0  0  0  0  0  0  0  0  0  0  0  0
   10.0190  -16.7088   27.4889 C   0  0  0  0  0  0  0  0  0  0  0  0
    9.6643  -17.5086   28.3715 O   0  0  0  0  0  0  0  0  0  0  0  0
   14.0688  -18.7476   24.5451 O   0  0  0  0  0  0  0  0  0  0  0  0
   10.2685  -15.4054   27.9352 O   0  0  0  0  0  0  0  0  0  0  0  0
  2  7  1  0
  2  1  1  6
  3  4  1  0
  3  2  1  0
  4  5  1  0
  5  6  2  0
  5  9  1  0
  7  8  2  0
 10  7  1  0
 10 11  1  0
 11 12  1  1
 12 13  1  0
 13 18  2  0
 14 13  1  0
 14 15  2  0
 15 16  1  0
 16 17  2  0
 18 17  1  0
 19 21  1  0
 19 11  1  0
 20 19  2  0
 22 23  1  6
 22 27  1  0
 22 21  1  0
 24 25  1  0
 24 23  1  0
 25 29  1  0
 26 25  2  0
 27 30  1  0
 28 27  2  0
M  END
$$$$
