EFE.pdb
     RDKit          3D

 30 30  0  0  1  0  0  0  0  0999 V2000
    8.2195  -17.6856   19.8917 N   0  0  0  0  0  0  0  0  0  0  0  0
    9.6040  -17.2209   20.0858 C   0  0  1  0  0  0  0  0  0  0  0  0
   10.1428  -16.6596   18.8151 C   0  0  0  0  0  0  0  0  0  0  0  0
    9.4936  -17.2930   17.6206 C   0  0  0  0  0  0  0  0  0  0  0  0
   10.0652  -16.7957   16.3655 C   0  0  0  0  0  0  0  0  0  0  0  0
    9.8504  -15.6363   15.9576 O   0  0  0  0  0  0  0  0  0  0  0  0
    9.5312  -16.1585   21.1130 C   0  0  0  0  0  0  0  0  0  0  0  0
   10.5058  -15.4597   21.4436 O   0  0  0  0  0  0  0  0  0  0  0  0
   10.8675  -17.6248   15.5996 O   0  0  0  0  0  0  0  0  0  0  0  0
    8.3218  -15.8604   21.8023 N   0  0  0  0  0  0  0  0  0  0  0  0
    8.2103  -15.1824   23.0412 C   0  0  1  0  0  0  0  0  0  0  0  0
    7.0325  -14.3315   23.2633 C   0  0  0  0  0  0  0  0  0  0  0  0
    6.9469  -13.6701   24.5721 C   0  0  0  0  0  0  0  0  0  0  0  0
    6.3649  -14.2284   25.6854 C   0  0  0  0  0  0  0  0  0  0  0  0
    6.3675  -13.4843   26.8613 C   0  0  0  0  0  0  0  0  0  0  0  0
    6.9406  -12.2148   26.9114 C   0  0  0  0  0  0  0  0  0  0  0  0
    7.5207  -11.6694   25.7873 C   0  0  0  0  0  0  0  0  0  0  0  0
    7.5243  -12.3954   24.6201 C   0  0  0  0  0  0  0  0  0  0  0  0
    8.5714  -16.0705   24.2003 C   0  0  0  0  0  0  0  0  0  0  0  0
    8.0065  -17.1805   24.2918 O   0  0  0  0  0  0  0  0  0  0  0  0
    9.5144  -15.6944   25.1640 N   0  0  0  0  0  0  0  0  0  0  0  0
   10.4256  -16.6439   25.8587 C   0  0  1  0  0  0  0  0  0  0  0  0
   11.7513  -16.6111   25.2185 C   0  0  0  0  0  0  0  0  0  0  0  0
   12.8298  -17.4641   25.7621 C   0  0  0  0  0  0  0  0  0  0  0  0
   14.1304  -17.4777   25.0930 C   0  0  0  0  0  0  0  0  0  0  0  0
   14.9481  -16.4891   25.1479 O   0  0  0  0  0  0  0  0  0  0  0  0
   10.3687  -16.2309   27.2665 C   0  0  0  0  0  0  0  0  0  0  0  0
   10.1574  -15.0537   27.6041 O   0  0  0  0  0  0  0  0  0  0  0  0
   14.5953  -18.5726   24.3368 O   0  0  0  0  0  0  0  0  0  0  0  0
   10.5478  -17.1287   28.3257 O   0  0  0  0  0  0  0  0  0  0  0  0
  2  7  1  0
  2  1  1  6
  3  4  1  0
  3  2  1  0
  4  5  1  0
  5  6  2  0
  5  9  1  0
  7  8  2  0
 10  7  1  0
 10 11  1  0
 11 12  1  1
 12 13  1  0
 13 18  2  0
 14 13  1  0
 14 15  2  0
 15 16  1  0
 16 17  2  0
 18 17  1  0
 19 21  1  0
 19 11  1  0
 20 19  2  0
 22 23  1  6
 22 27  1  0
 22 21  1  0
 24 25  1  0
 24 23  1  0
 25 29  1  0
 26 25  2  0
 27 30  1  0
 28 27  2  0
M  END
$$$$
