EFE.pdb
     RDKit          3D

 30 30  0  0  1  0  0  0  0  0999 V2000
    8.4073  -18.5525   18.9101 N   0  0  0  0  0  0  0  0  0  0  0  0
    9.8141  -18.2598   18.5854 C   0  0  1  0  0  0  0  0  0  0  0  0
    9.9037  -17.5335   17.2874 C   0  0  0  0  0  0  0  0  0  0  0  0
    9.1362  -18.2427   16.2115 C   0  0  0  0  0  0  0  0  0  0  0  0
    9.3205  -17.6054   14.9042 C   0  0  0  0  0  0  0  0  0  0  0  0
   10.1885  -17.9959   14.0975 O   0  0  0  0  0  0  0  0  0  0  0  0
   10.3079  -17.3951   19.6797 C   0  0  0  0  0  0  0  0  0  0  0  0
   11.4296  -16.8573   19.6725 O   0  0  0  0  0  0  0  0  0  0  0  0
    8.5167  -16.5379   14.5406 O   0  0  0  0  0  0  0  0  0  0  0  0
    9.5196  -17.1166   20.8320 N   0  0  0  0  0  0  0  0  0  0  0  0
    9.8723  -16.2525   21.8978 C   0  0  1  0  0  0  0  0  0  0  0  0
    8.8114  -15.4450   22.5169 C   0  0  0  0  0  0  0  0  0  0  0  0
    8.0963  -14.5205   21.6271 C   0  0  0  0  0  0  0  0  0  0  0  0
    6.8535  -14.7652   21.0931 C   0  0  0  0  0  0  0  0  0  0  0  0
    6.2960  -13.7893   20.2726 C   0  0  0  0  0  0  0  0  0  0  0  0
    6.9732  -12.6021   19.9997 C   0  0  0  0  0  0  0  0  0  0  0  0
    8.2178  -12.3713   20.5431 C   0  0  0  0  0  0  0  0  0  0  0  0
    8.7783  -13.3282   21.3554 C   0  0  0  0  0  0  0  0  0  0  0  0
   10.8057  -16.9170   22.8723 C   0  0  0  0  0  0  0  0  0  0  0  0
   10.4417  -17.9879   23.4019 O   0  0  0  0  0  0  0  0  0  0  0  0
   12.0568  -16.3782   23.1943 N   0  0  0  0  0  0  0  0  0  0  0  0
   13.1512  -17.1397   23.8555 C   0  0  1  0  0  0  0  0  0  0  0  0
   14.4515  -16.5628   23.4752 C   0  0  0  0  0  0  0  0  0  0  0  0
   15.6823  -17.1057   24.0888 C   0  0  0  0  0  0  0  0  0  0  0  0
   16.9816  -16.6221   23.6228 C   0  0  0  0  0  0  0  0  0  0  0  0
   17.2767  -15.3735   23.5670 O   0  0  0  0  0  0  0  0  0  0  0  0
   12.8080  -17.0952   25.2824 C   0  0  0  0  0  0  0  0  0  0  0  0
   13.0096  -18.0570   26.0432 O   0  0  0  0  0  0  0  0  0  0  0  0
   18.0159  -17.4811   23.1996 O   0  0  0  0  0  0  0  0  0  0  0  0
   12.2314  -15.9716   25.8867 O   0  0  0  0  0  0  0  0  0  0  0  0
  2  7  1  0
  2  1  1  1
  3  4  1  0
  3  2  1  0
  4  5  1  0
  5  6  2  0
  5  9  1  0
  7  8  2  0
 10  7  1  0
 10 11  1  0
 11 12  1  1
 12 13  1  0
 13 18  2  0
 14 13  1  0
 14 15  2  0
 15 16  1  0
 16 17  2  0
 18 17  1  0
 19 21  1  0
 19 11  1  0
 20 19  2  0
 22 23  1  1
 22 27  1  0
 22 21  1  0
 24 25  1  0
 24 23  1  0
 25 29  1  0
 26 25  2  0
 27 30  1  0
 28 27  2  0
M  END
$$$$
