EFE.pdb
     RDKit          3D

 30 30  0  0  1  0  0  0  0  0999 V2000
    8.2484  -17.0889   19.7586 N   0  0  0  0  0  0  0  0  0  0  0  0
    9.3489  -17.4112   20.6835 C   0  0  1  0  0  0  0  0  0  0  0  0
   10.6078  -17.6517   19.9235 C   0  0  0  0  0  0  0  0  0  0  0  0
   10.4031  -17.4503   18.4514 C   0  0  0  0  0  0  0  0  0  0  0  0
   11.6238  -17.7331   17.6906 C   0  0  0  0  0  0  0  0  0  0  0  0
   12.2069  -16.8507   17.0287 O   0  0  0  0  0  0  0  0  0  0  0  0
    9.5056  -16.2233   21.5515 C   0  0  0  0  0  0  0  0  0  0  0  0
   10.6102  -15.7316   21.8439 O   0  0  0  0  0  0  0  0  0  0  0  0
   12.1564  -19.0115   17.6960 O   0  0  0  0  0  0  0  0  0  0  0  0
    8.3848  -15.5533   22.1187 N   0  0  0  0  0  0  0  0  0  0  0  0
    8.3390  -14.9281   23.3891 C   0  0  1  0  0  0  0  0  0  0  0  0
    7.3272  -13.8858   23.6138 C   0  0  0  0  0  0  0  0  0  0  0  0
    7.2932  -13.2928   24.9572 C   0  0  0  0  0  0  0  0  0  0  0  0
    8.1120  -12.2700   25.3733 C   0  0  0  0  0  0  0  0  0  0  0  0
    7.9573  -11.8035   26.6752 C   0  0  0  0  0  0  0  0  0  0  0  0
    7.0044  -12.3532   27.5310 C   0  0  0  0  0  0  0  0  0  0  0  0
    6.1907  -13.3773   27.0988 C   0  0  0  0  0  0  0  0  0  0  0  0
    6.3344  -13.8461   25.8146 C   0  0  0  0  0  0  0  0  0  0  0  0
    8.4748  -15.9236   24.5086 C   0  0  0  0  0  0  0  0  0  0  0  0
    7.5461  -16.7387   24.6895 O   0  0  0  0  0  0  0  0  0  0  0  0
    9.6007  -15.9645   25.3392 N   0  0  0  0  0  0  0  0  0  0  0  0
    9.9383  -17.1030   26.2362 C   0  0  1  0  0  0  0  0  0  0  0  0
   11.0728  -17.8537   25.6726 C   0  0  0  0  0  0  0  0  0  0  0  0
   12.3133  -17.1257   25.3302 C   0  0  0  0  0  0  0  0  0  0  0  0
   13.3154  -17.7840   24.4926 C   0  0  0  0  0  0  0  0  0  0  0  0
   14.5418  -17.4052   24.4523 O   0  0  0  0  0  0  0  0  0  0  0  0
   10.1548  -16.4759   27.5460 C   0  0  0  0  0  0  0  0  0  0  0  0
   10.3813  -17.1418   28.5706 O   0  0  0  0  0  0  0  0  0  0  0  0
   13.0222  -18.8862   23.6642 O   0  0  0  0  0  0  0  0  0  0  0  0
   10.1218  -15.0891   27.7351 O   0  0  0  0  0  0  0  0  0  0  0  0
  2  7  1  0
  2  1  1  6
  3  4  1  0
  3  2  1  0
  4  5  1  0
  5  6  2  0
  5  9  1  0
  7  8  2  0
 10  7  1  0
 10 11  1  0
 11 12  1  1
 12 13  1  0
 13 18  2  0
 14 13  1  0
 14 15  2  0
 15 16  1  0
 16 17  2  0
 18 17  1  0
 19 21  1  0
 19 11  1  0
 20 19  2  0
 22 23  1  6
 22 27  1  0
 22 21  1  0
 24 25  1  0
 24 23  1  0
 25 29  1  0
 26 25  2  0
 27 30  1  0
 28 27  2  0
M  END
$$$$
