EFE.pdb
     RDKit          3D

 30 30  0  0  1  0  0  0  0  0999 V2000
    8.2250  -17.6740   20.1780 N   0  0  0  0  0  0  0  0  0  0  0  0
    9.6155  -17.2727   20.4536 C   0  0  1  0  0  0  0  0  0  0  0  0
   10.2927  -16.8593   19.1924 C   0  0  0  0  0  0  0  0  0  0  0  0
    9.8338  -17.6885   18.0299 C   0  0  0  0  0  0  0  0  0  0  0  0
   10.5846  -17.3750   16.8104 C   0  0  0  0  0  0  0  0  0  0  0  0
   10.0335  -16.8797   15.8066 O   0  0  0  0  0  0  0  0  0  0  0  0
    9.5258  -16.1197   21.3765 C   0  0  0  0  0  0  0  0  0  0  0  0
   10.4895  -15.3784   21.6394 O   0  0  0  0  0  0  0  0  0  0  0  0
   11.9444  -17.6311   16.7554 O   0  0  0  0  0  0  0  0  0  0  0  0
    8.3114  -15.7766   22.0355 N   0  0  0  0  0  0  0  0  0  0  0  0
    8.1946  -15.1182   23.2844 C   0  0  1  0  0  0  0  0  0  0  0  0
    7.0307  -14.2477   23.5040 C   0  0  0  0  0  0  0  0  0  0  0  0
    6.9361  -13.6110   24.8244 C   0  0  0  0  0  0  0  0  0  0  0  0
    6.2928  -14.1634   25.9063 C   0  0  0  0  0  0  0  0  0  0  0  0
    6.2944  -13.4456   27.0985 C   0  0  0  0  0  0  0  0  0  0  0  0
    6.9269  -12.2074   27.1951 C   0  0  0  0  0  0  0  0  0  0  0  0
    7.5681  -11.6674   26.1020 C   0  0  0  0  0  0  0  0  0  0  0  0
    7.5732  -12.3677   24.9191 C   0  0  0  0  0  0  0  0  0  0  0  0
    8.5203  -16.0335   24.4328 C   0  0  0  0  0  0  0  0  0  0  0  0
    7.8168  -17.0529   24.5930 O   0  0  0  0  0  0  0  0  0  0  0  0
    9.5791  -15.7804   25.3126 N   0  0  0  0  0  0  0  0  0  0  0  0
   10.5231  -16.8192   25.8072 C   0  0  1  0  0  0  0  0  0  0  0  0
   11.8814  -16.5198   25.3238 C   0  0  0  0  0  0  0  0  0  0  0  0
   13.0102  -17.3449   25.8046 C   0  0  0  0  0  0  0  0  0  0  0  0
   14.3328  -17.1559   25.2093 C   0  0  0  0  0  0  0  0  0  0  0  0
   14.9616  -18.0984   24.6049 O   0  0  0  0  0  0  0  0  0  0  0  0
   10.3310  -16.8148   27.2627 C   0  0  0  0  0  0  0  0  0  0  0  0
   10.5627  -17.8135   27.9651 O   0  0  0  0  0  0  0  0  0  0  0  0
   15.0251  -15.9286   25.2464 O   0  0  0  0  0  0  0  0  0  0  0  0
    9.8750  -15.6908   27.9619 O   0  0  0  0  0  0  0  0  0  0  0  0
  2  7  1  0
  2  1  1  6
  3  4  1  0
  3  2  1  0
  4  5  1  0
  5  6  2  0
  5  9  1  0
  7  8  2  0
 10  7  1  0
 10 11  1  0
 11 12  1  1
 12 13  1  0
 13 18  2  0
 14 13  1  0
 14 15  2  0
 15 16  1  0
 16 17  2  0
 18 17  1  0
 19 21  1  0
 19 11  1  0
 20 19  2  0
 22 23  1  1
 22 27  1  0
 22 21  1  0
 24 25  1  0
 24 23  1  0
 25 29  1  0
 26 25  2  0
 27 30  1  0
 28 27  2  0
M  END
$$$$
