EFE.pdb
     RDKit          3D

 30 30  0  0  1  0  0  0  0  0999 V2000
    9.7918  -16.2466   19.0028 N   0  0  0  0  0  0  0  0  0  0  0  0
    8.5216  -16.1759   19.7458 C   0  0  1  0  0  0  0  0  0  0  0  0
    7.9573  -17.5419   19.9343 C   0  0  0  0  0  0  0  0  0  0  0  0
    8.9878  -18.5990   19.6691 C   0  0  0  0  0  0  0  0  0  0  0  0
    8.4286  -19.7236   18.9128 C   0  0  0  0  0  0  0  0  0  0  0  0
    7.4914  -19.5720   18.1034 O   0  0  0  0  0  0  0  0  0  0  0  0
    8.8570  -15.5854   21.0603 C   0  0  0  0  0  0  0  0  0  0  0  0
    9.9480  -15.7632   21.6308 O   0  0  0  0  0  0  0  0  0  0  0  0
    8.9441  -20.9964   19.0920 O   0  0  0  0  0  0  0  0  0  0  0  0
    7.9390  -14.7614   21.7708 N   0  0  0  0  0  0  0  0  0  0  0  0
    8.0605  -14.3435   23.1190 C   0  0  1  0  0  0  0  0  0  0  0  0
    7.2002  -13.2469   23.5861 C   0  0  0  0  0  0  0  0  0  0  0  0
    7.3066  -12.8993   25.0093 C   0  0  0  0  0  0  0  0  0  0  0  0
    8.4382  -12.3883   25.5993 C   0  0  0  0  0  0  0  0  0  0  0  0
    8.3862  -12.0973   26.9591 C   0  0  0  0  0  0  0  0  0  0  0  0
    7.2264  -12.3156   27.7006 C   0  0  0  0  0  0  0  0  0  0  0  0
    6.1002  -12.8275   27.0947 C   0  0  0  0  0  0  0  0  0  0  0  0
    6.1398  -13.1186   25.7518 C   0  0  0  0  0  0  0  0  0  0  0  0
    8.1561  -15.5120   24.0613 C   0  0  0  0  0  0  0  0  0  0  0  0
    7.2494  -16.3704   24.0310 O   0  0  0  0  0  0  0  0  0  0  0  0
    9.2216  -15.6648   24.9561 N   0  0  0  0  0  0  0  0  0  0  0  0
    9.5325  -16.9275   25.6797 C   0  0  1  0  0  0  0  0  0  0  0  0
   10.4641  -17.7378   24.8772 C   0  0  0  0  0  0  0  0  0  0  0  0
   11.8584  -17.2736   24.7140 C   0  0  0  0  0  0  0  0  0  0  0  0
   12.8037  -18.1097   23.9747 C   0  0  0  0  0  0  0  0  0  0  0  0
   14.0430  -18.2059   24.2974 O   0  0  0  0  0  0  0  0  0  0  0  0
   10.0177  -16.4796   26.9910 C   0  0  0  0  0  0  0  0  0  0  0  0
   10.3151  -15.2945   27.2185 O   0  0  0  0  0  0  0  0  0  0  0  0
   12.4363  -18.8788   22.8520 O   0  0  0  0  0  0  0  0  0  0  0  0
   10.1802  -17.3506   28.0750 O   0  0  0  0  0  0  0  0  0  0  0  0
  2  7  1  0
  2  1  1  6
  3  4  1  0
  3  2  1  0
  4  5  1  0
  5  6  2  0
  5  9  1  0
  7  8  2  0
 10  7  1  0
 10 11  1  0
 11 12  1  1
 12 13  1  0
 13 18  2  0
 14 13  1  0
 14 15  2  0
 15 16  1  0
 16 17  2  0
 18 17  1  0
 19 21  1  0
 19 11  1  0
 20 19  2  0
 22 23  1  6
 22 27  1  0
 22 21  1  0
 24 25  1  0
 24 23  1  0
 25 29  1  0
 26 25  2  0
 27 30  1  0
 28 27  2  0
M  END
$$$$
