EFE.pdb
     RDKit          3D

 30 30  0  0  1  0  0  0  0  0999 V2000
    8.6914  -16.2476   19.4887 N   0  0  0  0  0  0  0  0  0  0  0  0
    7.8347  -16.6941   20.6010 C   0  0  1  0  0  0  0  0  0  0  0  0
    7.7199  -18.1797   20.5996 C   0  0  0  0  0  0  0  0  0  0  0  0
    9.0700  -18.8309   20.5460 C   0  0  0  0  0  0  0  0  0  0  0  0
    8.9646  -20.2882   20.4263 C   0  0  0  0  0  0  0  0  0  0  0  0
    7.9932  -20.8345   19.8654 O   0  0  0  0  0  0  0  0  0  0  0  0
    8.5130  -16.2440   21.8365 C   0  0  0  0  0  0  0  0  0  0  0  0
    9.7390  -16.0470   21.9100 O   0  0  0  0  0  0  0  0  0  0  0  0
    9.9630  -21.0946   20.9466 O   0  0  0  0  0  0  0  0  0  0  0  0
    7.7962  -16.0027   23.0426 N   0  0  0  0  0  0  0  0  0  0  0  0
    8.3339  -15.4816   24.2452 C   0  0  1  0  0  0  0  0  0  0  0  0
    7.4071  -14.8906   25.2212 C   0  0  0  0  0  0  0  0  0  0  0  0
    8.0204  -14.2250   26.3782 C   0  0  0  0  0  0  0  0  0  0  0  0
    8.2419  -12.8711   26.4652 C   0  0  0  0  0  0  0  0  0  0  0  0
    8.8241  -12.3823   27.6308 C   0  0  0  0  0  0  0  0  0  0  0  0
    9.1720  -13.2350   28.6769 C   0  0  0  0  0  0  0  0  0  0  0  0
    8.9427  -14.5895   28.5749 C   0  0  0  0  0  0  0  0  0  0  0  0
    8.3679  -15.0837   27.4282 C   0  0  0  0  0  0  0  0  0  0  0  0
    9.3712  -16.3958   24.8375 C   0  0  0  0  0  0  0  0  0  0  0  0
    9.0734  -17.5972   25.0034 O   0  0  0  0  0  0  0  0  0  0  0  0
   10.6460  -15.9444   25.1985 N   0  0  0  0  0  0  0  0  0  0  0  0
   11.8346  -16.8270   25.3505 C   0  0  1  0  0  0  0  0  0  0  0  0
   12.9510  -16.2903   24.5542 C   0  0  0  0  0  0  0  0  0  0  0  0
   14.2800  -16.9290   24.6637 C   0  0  0  0  0  0  0  0  0  0  0  0
   15.3715  -16.4477   23.8174 C   0  0  0  0  0  0  0  0  0  0  0  0
   15.2267  -16.2221   22.5615 O   0  0  0  0  0  0  0  0  0  0  0  0
   12.0429  -16.9015   26.8020 C   0  0  0  0  0  0  0  0  0  0  0  0
   12.7502  -17.7786   27.3261 O   0  0  0  0  0  0  0  0  0  0  0  0
   16.6681  -16.1897   24.3065 O   0  0  0  0  0  0  0  0  0  0  0  0
   11.4625  -15.9944   27.6967 O   0  0  0  0  0  0  0  0  0  0  0  0
  2  7  1  0
  2  1  1  6
  3  4  1  0
  3  2  1  0
  4  5  1  0
  5  6  2  0
  5  9  1  0
  7  8  2  0
 10  7  1  0
 10 11  1  0
 11 12  1  1
 12 13  1  0
 13 18  2  0
 14 13  1  0
 14 15  2  0
 15 16  1  0
 16 17  2  0
 18 17  1  0
 19 21  1  0
 19 11  1  0
 20 19  2  0
 22 23  1  6
 22 27  1  0
 22 21  1  0
 24 25  1  0
 24 23  1  0
 25 29  1  0
 26 25  2  0
 27 30  1  0
 28 27  2  0
M  END
$$$$
