TAD.pdb
     RDKit          3D

 21 20  0  0  1  0  0  0  0  0999 V2000
   18.5701  -11.4399  -19.3263 C   0  0  0  0  0  0  0  0  0  0  0  0
   18.9044  -10.4896  -18.2133 C   0  0  1  0  0  0  0  0  0  0  0  0
   17.7630   -9.7326  -17.9013 O   0  0  0  0  0  0  0  0  0  0  0  0
   19.3844  -11.2587  -16.9914 C   0  0  2  0  0  0  0  0  0  0  0  0
   18.3219  -12.1488  -16.5714 N   0  0  0  0  0  0  0  0  0  0  0  0
   19.7842  -10.3448  -15.9005 C   0  0  0  0  0  0  0  0  0  0  0  0
   18.9063   -9.7705  -15.2074 O   0  0  0  0  0  0  0  0  0  0  0  0
   22.9707   -9.4158  -14.1276 C   0  0  0  0  0  0  0  0  0  0  0  0
   21.5750   -9.1117  -14.6312 C   0  0  2  0  0  0  0  0  0  0  0  0
   21.1492  -10.0843  -15.5982 N   0  0  0  0  0  0  0  0  0  0  0  0
   21.4684   -7.7214  -15.1486 C   0  0  0  0  0  0  0  0  0  0  0  0
   21.7950   -7.4522  -16.3368 O   0  0  0  0  0  0  0  0  0  0  0  0
   21.0049   -6.6378  -14.3594 N   0  0  0  0  0  0  0  0  0  0  0  0
   21.0505   -5.2601  -14.8201 C   0  0  1  0  0  0  0  0  0  0  0  0
   19.9046   -4.5233  -14.1656 C   0  0  0  0  0  0  0  0  0  0  0  0
   18.6183   -4.9400  -14.7710 C   0  0  0  0  0  0  0  0  0  0  0  0
   18.5477   -5.1274  -16.0066 O   0  0  0  0  0  0  0  0  0  0  0  0
   22.3278   -4.6078  -14.4064 C   0  0  0  0  0  0  0  0  0  0  0  0
   22.6007   -3.4873  -14.8771 O   0  0  0  0  0  0  0  0  0  0  0  0
   17.4833   -5.1278  -13.9887 O   0  0  0  0  0  0  0  0  0  0  0  0
   23.1959   -5.2118  -13.5286 O   0  0  0  0  0  0  0  0  0  0  0  0
  2  1  1  6
  3  2  1  0
  4  5  1  1
  4  2  1  0
  6  4  1  0
  6  7  2  0
  9  8  1  6
  9 10  1  0
  9 11  1  0
 10  6  1  0
 11 12  2  0
 13 11  1  0
 13 14  1  0
 14 15  1  1
 15 16  1  0
 16 20  1  0
 16 17  2  0
 18 21  1  0
 18 14  1  0
 19 18  2  0
M  END
$$$$
