TAD.pdb
     RDKit          3D

 21 20  0  0  1  0  0  0  0  0999 V2000
   15.9492  -11.4313  -10.2130 C   0  0  0  0  0  0  0  0  0  0  0  0
   14.4548  -11.5229  -10.3225 C   0  0  1  0  0  0  0  0  0  0  0  0
   14.0630  -12.8557  -10.1150 O   0  0  0  0  0  0  0  0  0  0  0  0
   13.7955  -10.6082   -9.3009 C   0  0  2  0  0  0  0  0  0  0  0  0
   12.3659  -10.8355   -9.3467 N   0  0  0  0  0  0  0  0  0  0  0  0
   14.1238   -9.1895   -9.5547 C   0  0  0  0  0  0  0  0  0  0  0  0
   13.6019   -8.5873  -10.5273 O   0  0  0  0  0  0  0  0  0  0  0  0
   15.8746   -6.4009   -7.7542 C   0  0  0  0  0  0  0  0  0  0  0  0
   15.4711   -7.1315   -9.0181 C   0  0  2  0  0  0  0  0  0  0  0  0
   15.0241   -8.4647   -8.7262 N   0  0  0  0  0  0  0  0  0  0  0  0
   16.5573   -7.1131  -10.0338 C   0  0  0  0  0  0  0  0  0  0  0  0
   17.6383   -7.7299   -9.8285 O   0  0  0  0  0  0  0  0  0  0  0  0
   16.4499   -6.4189  -11.2660 N   0  0  0  0  0  0  0  0  0  0  0  0
   17.5394   -6.3578  -12.2260 C   0  0  1  0  0  0  0  0  0  0  0  0
   17.3255   -7.4686  -13.2284 C   0  0  0  0  0  0  0  0  0  0  0  0
   18.3600   -7.4063  -14.2869 C   0  0  0  0  0  0  0  0  0  0  0  0
   19.5431   -7.1351  -13.9810 O   0  0  0  0  0  0  0  0  0  0  0  0
   17.5269   -5.0557  -12.9558 C   0  0  0  0  0  0  0  0  0  0  0  0
   16.4363   -4.4752  -13.1138 O   0  0  0  0  0  0  0  0  0  0  0  0
   18.0397   -7.6446  -15.6196 O   0  0  0  0  0  0  0  0  0  0  0  0
   18.6798   -4.4935  -13.4496 O   0  0  0  0  0  0  0  0  0  0  0  0
  2  1  1  1
  3  2  1  0
  4  5  1  6
  4  2  1  0
  6  4  1  0
  6  7  2  0
  9  8  1  1
  9 10  1  0
  9 11  1  0
 10  6  1  0
 11 12  2  0
 13 11  1  0
 13 14  1  0
 14 15  1  6
 15 16  1  0
 16 20  1  0
 16 17  2  0
 18 21  1  0
 18 14  1  0
 19 18  2  0
M  END
$$$$
