TAD.pdb
     RDKit          3D

 21 20  0  0  1  0  0  0  0  0999 V2000
   17.0485  -11.1218  -17.5305 C   0  0  0  0  0  0  0  0  0  0  0  0
   17.0475  -12.0773  -16.3726 C   0  0  1  0  0  0  0  0  0  0  0  0
   15.9883  -12.9860  -16.5318 O   0  0  0  0  0  0  0  0  0  0  0  0
   18.3761  -12.8149  -16.2983 C   0  0  2  0  0  0  0  0  0  0  0  0
   18.2556  -13.8648  -15.3079 N   0  0  0  0  0  0  0  0  0  0  0  0
   19.4874  -11.8951  -15.9757 C   0  0  0  0  0  0  0  0  0  0  0  0
   19.5056  -11.2932  -14.8719 O   0  0  0  0  0  0  0  0  0  0  0  0
   22.8117  -11.0571  -17.5775 C   0  0  0  0  0  0  0  0  0  0  0  0
   21.7060  -10.8590  -16.5615 C   0  0  2  0  0  0  0  0  0  0  0  0
   20.5576  -11.6595  -16.8821 N   0  0  0  0  0  0  0  0  0  0  0  0
   21.3608   -9.4217  -16.3984 C   0  0  0  0  0  0  0  0  0  0  0  0
   20.4601   -8.8937  -17.1063 O   0  0  0  0  0  0  0  0  0  0  0  0
   22.0055   -8.5748  -15.4608 N   0  0  0  0  0  0  0  0  0  0  0  0
   21.6443   -7.1771  -15.2929 C   0  0  1  0  0  0  0  0  0  0  0  0
   22.3330   -6.6759  -14.0443 C   0  0  0  0  0  0  0  0  0  0  0  0
   21.9709   -5.2612  -13.7952 C   0  0  0  0  0  0  0  0  0  0  0  0
   22.7521   -4.3503  -14.1513 O   0  0  0  0  0  0  0  0  0  0  0  0
   22.1214   -6.3662  -16.4519 C   0  0  0  0  0  0  0  0  0  0  0  0
   23.1806   -6.7023  -17.0145 O   0  0  0  0  0  0  0  0  0  0  0  0
   20.7741   -4.9251  -13.1706 O   0  0  0  0  0  0  0  0  0  0  0  0
   21.4237   -5.2714  -16.9032 O   0  0  0  0  0  0  0  0  0  0  0  0
  2  1  1  6
  3  2  1  0
  4  5  1  1
  4  2  1  0
  6  4  1  0
  6  7  2  0
  9  8  1  6
  9 10  1  0
  9 11  1  0
 10  6  1  0
 11 12  2  0
 13 11  1  0
 13 14  1  0
 14 15  1  1
 15 16  1  0
 16 20  1  0
 16 17  2  0
 18 21  1  0
 18 14  1  0
 19 18  2  0
M  END
$$$$
