TAD.pdb
     RDKit          3D

 21 20  0  0  1  0  0  0  0  0999 V2000
   28.5101  -21.0992  -18.0349 C   0  0  0  0  0  0  0  0  0  0  0  0
   27.2510  -20.5913  -17.3942 C   0  0  1  0  0  0  0  0  0  0  0  0
   26.4445  -21.6862  -17.0422 O   0  0  0  0  0  0  0  0  0  0  0  0
   27.5850  -19.7583  -16.1656 C   0  0  2  0  0  0  0  0  0  0  0  0
   28.2880  -20.6042  -15.2234 N   0  0  0  0  0  0  0  0  0  0  0  0
   26.3687  -19.1743  -15.5619 C   0  0  0  0  0  0  0  0  0  0  0  0
   25.7782  -19.7761  -14.6291 O   0  0  0  0  0  0  0  0  0  0  0  0
   24.3864  -15.9737  -15.9943 C   0  0  0  0  0  0  0  0  0  0  0  0
   24.5759  -17.4067  -15.5422 C   0  0  2  0  0  0  0  0  0  0  0  0
   25.8294  -17.9345  -16.0031 N   0  0  0  0  0  0  0  0  0  0  0  0
   23.4264  -18.2639  -15.9370 C   0  0  0  0  0  0  0  0  0  0  0  0
   23.4863  -18.9800  -16.9738 O   0  0  0  0  0  0  0  0  0  0  0  0
   22.2210  -18.3293  -15.1924 N   0  0  0  0  0  0  0  0  0  0  0  0
   21.0891  -19.1408  -15.6078 C   0  0  1  0  0  0  0  0  0  0  0  0
   20.3337  -19.5403  -14.3611 C   0  0  0  0  0  0  0  0  0  0  0  0
   19.3006  -20.5491  -14.6923 C   0  0  0  0  0  0  0  0  0  0  0  0
   19.1957  -20.9646  -15.8684 O   0  0  0  0  0  0  0  0  0  0  0  0
   20.1704  -18.3554  -16.4840 C   0  0  0  0  0  0  0  0  0  0  0  0
   20.0246  -17.1404  -16.2519 O   0  0  0  0  0  0  0  0  0  0  0  0
   18.4416  -21.0449  -13.7168 O   0  0  0  0  0  0  0  0  0  0  0  0
   19.4923  -18.9397  -17.5270 O   0  0  0  0  0  0  0  0  0  0  0  0
  2  1  1  1
  3  2  1  0
  4  5  1  1
  4  2  1  0
  6  4  1  0
  6  7  2  0
  9  8  1  6
  9 10  1  0
  9 11  1  0
 10  6  1  0
 11 12  2  0
 13 11  1  0
 13 14  1  0
 14 15  1  1
 15 16  1  0
 16 20  1  0
 16 17  2  0
 18 21  1  0
 18 14  1  0
 19 18  2  0
M  END
$$$$
