TAD.pdb
     RDKit          3D

 21 20  0  0  1  0  0  0  0  0999 V2000
   18.9548   -9.6188  -18.4023 C   0  0  0  0  0  0  0  0  0  0  0  0
   18.1063  -10.3604  -17.4106 C   0  0  1  0  0  0  0  0  0  0  0  0
   17.8094  -11.6331  -17.9256 O   0  0  0  0  0  0  0  0  0  0  0  0
   18.8352  -10.4804  -16.0804 C   0  0  2  0  0  0  0  0  0  0  0  0
   18.0642  -11.3532  -15.2195 N   0  0  0  0  0  0  0  0  0  0  0  0
   19.0439   -9.1563  -15.4574 C   0  0  0  0  0  0  0  0  0  0  0  0
   18.0562   -8.4311  -15.1753 O   0  0  0  0  0  0  0  0  0  0  0  0
   21.9872   -7.2383  -14.0629 C   0  0  0  0  0  0  0  0  0  0  0  0
   20.5882   -7.3469  -14.6329 C   0  0  2  0  0  0  0  0  0  0  0  0
   20.3429   -8.6605  -15.1587 N   0  0  0  0  0  0  0  0  0  0  0  0
   20.3191   -6.2815  -15.6351 C   0  0  0  0  0  0  0  0  0  0  0  0
   20.6977   -6.4151  -16.8310 O   0  0  0  0  0  0  0  0  0  0  0  0
   19.6375   -5.0786  -15.3186 N   0  0  0  0  0  0  0  0  0  0  0  0
   19.4063   -4.0304  -16.2985 C   0  0  1  0  0  0  0  0  0  0  0  0
   18.0010   -3.5146  -16.0900 C   0  0  0  0  0  0  0  0  0  0  0  0
   17.7292   -2.3884  -17.0133 C   0  0  0  0  0  0  0  0  0  0  0  0
   17.8451   -2.5584  -18.2480 O   0  0  0  0  0  0  0  0  0  0  0  0
   20.3586   -2.8990  -16.0951 C   0  0  0  0  0  0  0  0  0  0  0  0
   20.4877   -2.0616  -17.0080 O   0  0  0  0  0  0  0  0  0  0  0  0
   17.3460   -1.1407  -16.5317 O   0  0  0  0  0  0  0  0  0  0  0  0
   21.0850   -2.7661  -14.9359 O   0  0  0  0  0  0  0  0  0  0  0  0
  2  1  1  6
  3  2  1  0
  4  5  1  1
  4  2  1  0
  6  4  1  0
  6  7  2  0
  9  8  1  6
  9 10  1  0
  9 11  1  0
 10  6  1  0
 11 12  2  0
 13 11  1  0
 13 14  1  0
 14 15  1  1
 15 16  1  0
 16 20  1  0
 16 17  2  0
 18 21  1  0
 18 14  1  0
 19 18  2  0
M  END
$$$$
