TAD.pdb
     RDKit          3D

 21 20  0  0  1  0  0  0  0  0999 V2000
   23.7337  -11.4641  -15.0146 C   0  0  0  0  0  0  0  0  0  0  0  0
   23.3318  -11.9084  -16.3912 C   0  0  1  0  0  0  0  0  0  0  0  0
   23.8970  -13.1686  -16.6470 O   0  0  0  0  0  0  0  0  0  0  0  0
   21.8157  -11.9718  -16.5017 C   0  0  2  0  0  0  0  0  0  0  0  0
   21.4798  -12.5491  -17.7868 N   0  0  0  0  0  0  0  0  0  0  0  0
   21.2056  -10.6357  -16.3354 C   0  0  0  0  0  0  0  0  0  0  0  0
   21.4511   -9.7242  -17.1659 O   0  0  0  0  0  0  0  0  0  0  0  0
   18.6486   -9.0962  -14.0071 C   0  0  0  0  0  0  0  0  0  0  0  0
   19.7598   -9.0368  -15.0345 C   0  0  2  0  0  0  0  0  0  0  0  0
   20.3349  -10.3347  -15.2519 N   0  0  0  0  0  0  0  0  0  0  0  0
   20.7853   -8.0209  -14.6766 C   0  0  0  0  0  0  0  0  0  0  0  0
   21.7262   -8.3094  -13.8874 O   0  0  0  0  0  0  0  0  0  0  0  0
   20.7713   -6.6974  -15.1864 N   0  0  0  0  0  0  0  0  0  0  0  0
   21.8156   -5.7328  -14.8846 C   0  0  1  0  0  0  0  0  0  0  0  0
   21.6426   -4.5647  -15.8281 C   0  0  0  0  0  0  0  0  0  0  0  0
   22.6787   -3.5391  -15.5650 C   0  0  0  0  0  0  0  0  0  0  0  0
   22.3359   -2.3936  -15.1948 O   0  0  0  0  0  0  0  0  0  0  0  0
   21.6821   -5.2316  -13.4848 C   0  0  0  0  0  0  0  0  0  0  0  0
   22.6147   -4.5603  -13.0041 O   0  0  0  0  0  0  0  0  0  0  0  0
   24.0308   -3.8266  -15.7224 O   0  0  0  0  0  0  0  0  0  0  0  0
   20.5654   -5.4932  -12.7276 O   0  0  0  0  0  0  0  0  0  0  0  0
  2  1  1  1
  3  2  1  0
  4  5  1  6
  4  2  1  0
  6  4  1  0
  6  7  2  0
  9  8  1  1
  9 10  1  0
  9 11  1  0
 10  6  1  0
 11 12  2  0
 13 11  1  0
 13 14  1  0
 14 15  1  6
 15 16  1  0
 16 20  1  0
 16 17  2  0
 18 21  1  0
 18 14  1  0
 19 18  2  0
M  END
$$$$
