KIL.pdb
     RDKit          3D

 26 25  0  0  1  0  0  0  0  0999 V2000
   23.2130  -20.7546  -15.8917 N   0  0  0  0  0  0  0  0  0  0  0  0
   23.3660  -20.2376  -14.5703 C   0  0  1  0  0  0  0  0  0  0  0  0
   22.1132  -20.3909  -13.7292 C   0  0  0  0  0  0  0  0  0  0  0  0
   20.9705  -20.8754  -14.6125 C   0  0  0  0  0  0  0  0  0  0  0  0
   20.6230  -22.2795  -14.1019 C   0  0  0  0  0  0  0  0  0  0  0  0
   19.1816  -22.5823  -14.4378 C   0  0  0  0  0  0  0  0  0  0  0  0
   18.9174  -23.9412  -13.9424 N   0  0  0  0  0  0  0  0  0  0  0  0
   24.4759  -20.8743  -13.8230 C   0  0  0  0  0  0  0  0  0  0  0  0
   24.6511  -22.1172  -13.8405 O   0  0  0  0  0  0  0  0  0  0  0  0
   29.2695  -19.4593  -14.6300 C   0  0  0  0  0  0  0  0  0  0  0  0
   28.0019  -20.2127  -14.1976 C   0  0  0  0  0  0  0  0  0  0  0  0
   27.7667  -20.0427  -12.7286 C   0  0  2  0  0  0  0  0  0  0  0  0
   28.9683  -20.6319  -12.0102 C   0  0  0  0  0  0  0  0  0  0  0  0
   26.4807  -20.6251  -12.2918 C   0  0  2  0  0  0  0  0  0  0  0  0
   25.3606  -20.0667  -13.0714 N   0  0  0  0  0  0  0  0  0  0  0  0
   26.1711  -20.3203  -10.8758 C   0  0  0  0  0  0  0  0  0  0  0  0
   25.7795  -19.1398  -10.6068 O   0  0  0  0  0  0  0  0  0  0  0  0
   28.0708  -21.2569   -6.5382 C   0  0  0  0  0  0  0  0  0  0  0  0
   27.8348  -20.0302   -7.3944 C   0  0  2  0  0  0  0  0  0  0  0  0
   28.4328  -18.7710   -6.8371 C   0  0  0  0  0  0  0  0  0  0  0  0
   26.4749  -19.9261   -7.9527 C   0  0  0  0  0  0  0  0  0  0  0  0
   25.7870  -21.0982   -8.4962 C   0  0  2  0  0  0  0  0  0  0  0  0
   26.2992  -21.2890   -9.8406 N   0  0  0  0  0  0  0  0  0  0  0  0
   24.3409  -21.2046   -8.4048 C   0  0  0  0  0  0  0  0  0  0  0  0
   23.6516  -21.7607   -7.3416 O   0  0  0  0  0  0  0  0  0  0  0  0
   23.6162  -20.7774   -9.3346 O   0  0  0  0  0  0  0  0  0  0  0  0
  2  3  1  0
  2  1  1  6
  4  3  1  0
  5  4  1  0
  5  6  1  0
  7  6  1  0
  8  9  2  0
  8  2  1  0
 11 10  1  0
 12 11  1  0
 12 14  1  0
 12 13  1  1
 14 15  1  6
 15  8  1  0
 16 14  1  0
 17 16  2  0
 19 18  1  1
 19 21  1  0
 20 19  1  0
 22 21  1  6
 22 23  1  0
 22 24  1  0
 23 16  1  0
 24 25  1  0
 26 24  2  0
M  END
$$$$
