KIL.pdb
     RDKit          3D

 26 25  0  0  1  0  0  0  0  0999 V2000
   28.5619  -21.0933  -15.5576 N   0  0  0  0  0  0  0  0  0  0  0  0
   27.8371  -20.2086  -14.7040 C   0  0  1  0  0  0  0  0  0  0  0  0
   27.2101  -19.0488  -15.4537 C   0  0  0  0  0  0  0  0  0  0  0  0
   28.3113  -18.1546  -16.0092 C   0  0  0  0  0  0  0  0  0  0  0  0
   28.4231  -18.5153  -17.4959 C   0  0  0  0  0  0  0  0  0  0  0  0
   29.4211  -17.5907  -18.1526 C   0  0  0  0  0  0  0  0  0  0  0  0
   29.6123  -18.0924  -19.5215 N   0  0  0  0  0  0  0  0  0  0  0  0
   26.7514  -20.8843  -13.9554 C   0  0  0  0  0  0  0  0  0  0  0  0
   26.1976  -21.9214  -14.3954 O   0  0  0  0  0  0  0  0  0  0  0  0
   26.8950  -20.3394   -8.5291 C   0  0  0  0  0  0  0  0  0  0  0  0
   26.6814  -21.0103   -9.8949 C   0  0  0  0  0  0  0  0  0  0  0  0
   25.3764  -20.5818  -10.4909 C   0  0  2  0  0  0  0  0  0  0  0  0
   24.2739  -21.1533   -9.6162 C   0  0  0  0  0  0  0  0  0  0  0  0
   25.2524  -20.9646  -11.9128 C   0  0  2  0  0  0  0  0  0  0  0  0
   26.3263  -20.3519  -12.7162 N   0  0  0  0  0  0  0  0  0  0  0  0
   23.9849  -20.4955  -12.5187 C   0  0  0  0  0  0  0  0  0  0  0  0
   23.7770  -19.2402  -12.5345 O   0  0  0  0  0  0  0  0  0  0  0  0
   21.7483  -21.7211  -17.4355 C   0  0  0  0  0  0  0  0  0  0  0  0
   21.8398  -20.8766  -16.1817 C   0  0  2  0  0  0  0  0  0  0  0  0
   22.9628  -19.8804  -16.1959 C   0  0  0  0  0  0  0  0  0  0  0  0
   21.6305  -21.6200  -14.9266 C   0  0  0  0  0  0  0  0  0  0  0  0
   21.7548  -20.9609  -13.6256 C   0  0  2  0  0  0  0  0  0  0  0  0
   23.0229  -21.3908  -13.0662 N   0  0  0  0  0  0  0  0  0  0  0  0
   20.6560  -21.0050  -12.6761 C   0  0  0  0  0  0  0  0  0  0  0  0
   20.5648  -21.8798  -11.6078 O   0  0  0  0  0  0  0  0  0  0  0  0
   19.6906  -20.2130  -12.7900 O   0  0  0  0  0  0  0  0  0  0  0  0
  2  3  1  0
  2  1  1  6
  4  3  1  0
  5  4  1  0
  5  6  1  0
  7  6  1  0
  8  9  2  0
  8  2  1  0
 11 10  1  0
 12 11  1  0
 12 14  1  0
 12 13  1  1
 14 15  1  6
 15  8  1  0
 16 14  1  0
 17 16  2  0
 19 18  1  6
 19 21  1  0
 20 19  1  0
 22 21  1  6
 22 23  1  0
 22 24  1  0
 23 16  1  0
 24 25  1  0
 26 24  2  0
M  END
$$$$
