KIL.pdb
     RDKit          3D

 26 25  0  0  1  0  0  0  0  0999 V2000
   22.7222  -19.6905  -17.8197 N   0  0  0  0  0  0  0  0  0  0  0  0
   23.3604  -18.9190  -16.8027 C   0  0  1  0  0  0  0  0  0  0  0  0
   22.3746  -18.2693  -15.8506 C   0  0  0  0  0  0  0  0  0  0  0  0
   21.1347  -17.8410  -16.6251 C   0  0  0  0  0  0  0  0  0  0  0  0
   20.2841  -19.1089  -16.7734 C   0  0  0  0  0  0  0  0  0  0  0  0
   18.9608  -18.7425  -17.4030 C   0  0  0  0  0  0  0  0  0  0  0  0
   18.1487  -19.9683  -17.4037 N   0  0  0  0  0  0  0  0  0  0  0  0
   24.3059  -19.7108  -15.9812 C   0  0  0  0  0  0  0  0  0  0  0  0
   24.0368  -20.8811  -15.6154 O   0  0  0  0  0  0  0  0  0  0  0  0
   29.7030  -19.2940  -16.7451 C   0  0  0  0  0  0  0  0  0  0  0  0
   28.2812  -19.7911  -16.4406 C   0  0  0  0  0  0  0  0  0  0  0  0
   27.8887  -19.4310  -15.0412 C   0  0  2  0  0  0  0  0  0  0  0  0
   28.9215  -20.0460  -14.1127 C   0  0  0  0  0  0  0  0  0  0  0  0
   26.5028  -19.8331  -14.7226 C   0  0  2  0  0  0  0  0  0  0  0  0
   25.5411  -19.1385  -15.5982 N   0  0  0  0  0  0  0  0  0  0  0  0
   26.1118  -19.4759  -13.3394 C   0  0  0  0  0  0  0  0  0  0  0  0
   25.4341  -18.4103  -13.1830 O   0  0  0  0  0  0  0  0  0  0  0  0
   22.8223  -19.4985  -10.3246 C   0  0  0  0  0  0  0  0  0  0  0  0
   23.1052  -20.1422  -11.6659 C   0  0  2  0  0  0  0  0  0  0  0  0
   21.8846  -20.6765  -12.3576 C   0  0  0  0  0  0  0  0  0  0  0  0
   24.3079  -20.9935  -11.6946 C   0  0  0  0  0  0  0  0  0  0  0  0
   25.5701  -20.5421  -11.1066 C   0  0  2  0  0  0  0  0  0  0  0  0
   26.4674  -20.2737  -12.2152 N   0  0  0  0  0  0  0  0  0  0  0  0
   26.1866  -21.2982  -10.0300 C   0  0  0  0  0  0  0  0  0  0  0  0
   26.1472  -20.9495   -8.6915 O   0  0  0  0  0  0  0  0  0  0  0  0
   26.8163  -22.3534  -10.2794 O   0  0  0  0  0  0  0  0  0  0  0  0
  2  3  1  0
  2  1  1  6
  4  3  1  0
  5  4  1  0
  5  6  1  0
  7  6  1  0
  8  9  2  0
  8  2  1  0
 11 10  1  0
 12 11  1  0
 12 14  1  0
 12 13  1  1
 14 15  1  6
 15  8  1  0
 16 14  1  0
 17 16  2  0
 19 18  1  1
 19 21  1  0
 20 19  1  0
 22 21  1  6
 22 23  1  0
 22 24  1  0
 23 16  1  0
 24 25  1  0
 26 24  2  0
M  END
$$$$
