KIL.pdb
     RDKit          3D

 26 25  0  0  1  0  0  0  0  0999 V2000
   16.8314  -23.9570   11.3687 N   0  0  0  0  0  0  0  0  0  0  0  0
   17.7111  -23.0939   10.6490 C   0  0  1  0  0  0  0  0  0  0  0  0
   16.9923  -22.2518    9.6124 C   0  0  0  0  0  0  0  0  0  0  0  0
   16.2998  -23.1684    8.6119 C   0  0  0  0  0  0  0  0  0  0  0  0
   15.6329  -22.2357    7.5929 C   0  0  0  0  0  0  0  0  0  0  0  0
   14.7664  -23.0573    6.6676 C   0  0  0  0  0  0  0  0  0  0  0  0
   14.0389  -22.0994    5.8219 N   0  0  0  0  0  0  0  0  0  0  0  0
   18.4583  -22.1635   11.5275 C   0  0  0  0  0  0  0  0  0  0  0  0
   17.9566  -21.7162   12.5878 O   0  0  0  0  0  0  0  0  0  0  0  0
   23.4023  -23.1975   13.0810 C   0  0  0  0  0  0  0  0  0  0  0  0
   21.9755  -22.6318   13.0057 C   0  0  0  0  0  0  0  0  0  0  0  0
   21.9479  -21.3891   12.1710 C   0  0  2  0  0  0  0  0  0  0  0  0
   22.9006  -20.3955   12.8130 C   0  0  0  0  0  0  0  0  0  0  0  0
   20.5803  -20.8578   11.9947 C   0  0  2  0  0  0  0  0  0  0  0  0
   19.7671  -21.7676   11.1669 N   0  0  0  0  0  0  0  0  0  0  0  0
   20.5635  -19.5556   11.2891 C   0  0  0  0  0  0  0  0  0  0  0  0
   21.4244  -18.6893   11.6461 O   0  0  0  0  0  0  0  0  0  0  0  0
   21.5406  -15.8671    9.8430 C   0  0  0  0  0  0  0  0  0  0  0  0
   22.1116  -17.1434    9.2611 C   0  0  2  0  0  0  0  0  0  0  0  0
   23.2748  -16.9273    8.3368 C   0  0  0  0  0  0  0  0  0  0  0  0
   21.1008  -18.1269    8.8338 C   0  0  0  0  0  0  0  0  0  0  0  0
   19.7435  -18.1054    9.3813 C   0  0  2  0  0  0  0  0  0  0  0  0
   19.6332  -19.2606   10.2527 N   0  0  0  0  0  0  0  0  0  0  0  0
   18.6022  -17.9319    8.4992 C   0  0  0  0  0  0  0  0  0  0  0  0
   18.2563  -16.7477    7.8724 O   0  0  0  0  0  0  0  0  0  0  0  0
   17.8393  -18.8968    8.2561 O   0  0  0  0  0  0  0  0  0  0  0  0
  2  3  1  0
  2  1  1  1
  4  3  1  0
  5  4  1  0
  5  6  1  0
  7  6  1  0
  8  9  2  0
  8  2  1  0
 11 10  1  0
 12 11  1  0
 12 14  1  0
 12 13  1  1
 14 15  1  6
 15  8  1  0
 16 14  1  0
 17 16  2  0
 19 18  1  6
 19 21  1  0
 20 19  1  0
 22 21  1  6
 22 23  1  0
 22 24  1  0
 23 16  1  0
 24 25  1  0
 26 24  2  0
M  END
$$$$
