KIL.pdb
     RDKit          3D

 26 25  0  0  1  0  0  0  0  0999 V2000
   22.7281  -21.0105  -16.2539 N   0  0  0  0  0  0  0  0  0  0  0  0
   23.0367  -20.3280  -15.0391 C   0  0  1  0  0  0  0  0  0  0  0  0
   21.8901  -20.3451  -14.0464 C   0  0  0  0  0  0  0  0  0  0  0  0
   20.5697  -20.4044  -14.8039 C   0  0  0  0  0  0  0  0  0  0  0  0
   20.2596  -18.9563  -15.2037 C   0  0  0  0  0  0  0  0  0  0  0  0
   19.0490  -18.9440  -16.1071 C   0  0  0  0  0  0  0  0  0  0  0  0
   18.7967  -17.5348  -16.4427 N   0  0  0  0  0  0  0  0  0  0  0  0
   24.2235  -20.8831  -14.3470 C   0  0  0  0  0  0  0  0  0  0  0  0
   24.4443  -22.1184  -14.3109 O   0  0  0  0  0  0  0  0  0  0  0  0
   29.0081  -18.9324  -15.1484 C   0  0  0  0  0  0  0  0  0  0  0  0
   27.8205  -19.8363  -14.7827 C   0  0  0  0  0  0  0  0  0  0  0  0
   27.5146  -19.7337  -13.3206 C   0  0  2  0  0  0  0  0  0  0  0  0
   28.7544  -20.1874  -12.5694 C   0  0  0  0  0  0  0  0  0  0  0  0
   26.2968  -20.4818  -12.9448 C   0  0  2  0  0  0  0  0  0  0  0  0
   25.1311  -20.0045  -13.7112 N   0  0  0  0  0  0  0  0  0  0  0  0
   25.9369  -20.3017  -11.5194 C   0  0  0  0  0  0  0  0  0  0  0  0
   25.4880  -19.1629  -11.1720 O   0  0  0  0  0  0  0  0  0  0  0  0
   27.9005  -21.5360   -7.3867 C   0  0  0  0  0  0  0  0  0  0  0  0
   27.5923  -20.1791   -7.9846 C   0  0  2  0  0  0  0  0  0  0  0  0
   28.0336  -19.0222   -7.1357 C   0  0  0  0  0  0  0  0  0  0  0  0
   26.2609  -20.0730   -8.6073 C   0  0  0  0  0  0  0  0  0  0  0  0
   25.6021  -21.2422   -9.1916 C   0  0  2  0  0  0  0  0  0  0  0  0
   26.0788  -21.3426  -10.5586 N   0  0  0  0  0  0  0  0  0  0  0  0
   24.1648  -21.4112   -9.0636 C   0  0  0  0  0  0  0  0  0  0  0  0
   23.5153  -21.8453   -7.9215 O   0  0  0  0  0  0  0  0  0  0  0  0
   23.4105  -21.1607  -10.0334 O   0  0  0  0  0  0  0  0  0  0  0  0
  2  3  1  0
  2  1  1  6
  4  3  1  0
  5  4  1  0
  5  6  1  0
  7  6  1  0
  8  9  2  0
  8  2  1  0
 11 10  1  0
 12 11  1  0
 12 14  1  0
 12 13  1  1
 14 15  1  6
 15  8  1  0
 16 14  1  0
 17 16  2  0
 19 18  1  1
 19 21  1  0
 20 19  1  0
 22 21  1  6
 22 23  1  0
 22 24  1  0
 23 16  1  0
 24 25  1  0
 26 24  2  0
M  END
$$$$
