KIL.pdb
     RDKit          3D

 26 25  0  0  1  0  0  0  0  0999 V2000
   28.8756  -21.4437  -15.3367 N   0  0  0  0  0  0  0  0  0  0  0  0
   27.9842  -20.4822  -14.7732 C   0  0  1  0  0  0  0  0  0  0  0  0
   27.4381  -19.5111  -15.8024 C   0  0  0  0  0  0  0  0  0  0  0  0
   28.5985  -18.8397  -16.5259 C   0  0  0  0  0  0  0  0  0  0  0  0
   27.9555  -17.8373  -17.4928 C   0  0  0  0  0  0  0  0  0  0  0  0
   29.0457  -17.1095  -18.2436 C   0  0  0  0  0  0  0  0  0  0  0  0
   28.3702  -16.1366  -19.1150 N   0  0  0  0  0  0  0  0  0  0  0  0
   26.8213  -21.0982  -14.0920 C   0  0  0  0  0  0  0  0  0  0  0  0
   26.3293  -22.1839  -14.4858 O   0  0  0  0  0  0  0  0  0  0  0  0
   26.5712  -20.7672   -8.7004 C   0  0  0  0  0  0  0  0  0  0  0  0
   26.4167  -21.2841  -10.1392 C   0  0  0  0  0  0  0  0  0  0  0  0
   25.2101  -20.6785  -10.7868 C   0  0  2  0  0  0  0  0  0  0  0  0
   23.9996  -21.1189   -9.9819 C   0  0  0  0  0  0  0  0  0  0  0  0
   25.1115  -21.0146  -12.2225 C   0  0  2  0  0  0  0  0  0  0  0  0
   26.2494  -20.4513  -12.9721 N   0  0  0  0  0  0  0  0  0  0  0  0
   23.8982  -20.4489  -12.8561 C   0  0  0  0  0  0  0  0  0  0  0  0
   23.7896  -19.1812  -12.8765 O   0  0  0  0  0  0  0  0  0  0  0  0
   22.6056  -19.5818  -16.6644 C   0  0  0  0  0  0  0  0  0  0  0  0
   22.4114  -21.0529  -16.3618 C   0  0  2  0  0  0  0  0  0  0  0  0
   22.3155  -21.9211  -17.5828 C   0  0  0  0  0  0  0  0  0  0  0  0
   21.4574  -21.3331  -15.2740 C   0  0  0  0  0  0  0  0  0  0  0  0
   21.6305  -20.7463  -13.9443 C   0  0  2  0  0  0  0  0  0  0  0  0
   22.8814  -21.2671  -13.4246 N   0  0  0  0  0  0  0  0  0  0  0  0
   20.5420  -20.7816  -12.9826 C   0  0  0  0  0  0  0  0  0  0  0  0
   19.4171  -19.9771  -13.0271 O   0  0  0  0  0  0  0  0  0  0  0  0
   20.5769  -21.5825  -12.0184 O   0  0  0  0  0  0  0  0  0  0  0  0
  2  3  1  0
  2  1  1  6
  4  3  1  0
  5  4  1  0
  5  6  1  0
  7  6  1  0
  8  9  2  0
  8  2  1  0
 11 10  1  0
 12 11  1  0
 12 14  1  0
 12 13  1  1
 14 15  1  6
 15  8  1  0
 16 14  1  0
 17 16  2  0
 19 18  1  6
 19 21  1  0
 20 19  1  0
 22 21  1  6
 22 23  1  0
 22 24  1  0
 23 16  1  0
 24 25  1  0
 26 24  2  0
M  END
$$$$
