KIL.pdb
     RDKit          3D

 26 25  0  0  1  0  0  0  0  0999 V2000
   28.3747  -21.9960  -15.8393 N   0  0  0  0  0  0  0  0  0  0  0  0
   27.5632  -20.9226  -15.3638 C   0  0  1  0  0  0  0  0  0  0  0  0
   26.8401  -20.1922  -16.4791 C   0  0  0  0  0  0  0  0  0  0  0  0
   27.8111  -19.9348  -17.6244 C   0  0  0  0  0  0  0  0  0  0  0  0
   28.5020  -18.6074  -17.2873 C   0  0  0  0  0  0  0  0  0  0  0  0
   29.4195  -18.2275  -18.4256 C   0  0  0  0  0  0  0  0  0  0  0  0
   30.0661  -16.9665  -18.0335 N   0  0  0  0  0  0  0  0  0  0  0  0
   26.5367  -21.3591  -14.3885 C   0  0  0  0  0  0  0  0  0  0  0  0
   25.8779  -22.4144  -14.5568 O   0  0  0  0  0  0  0  0  0  0  0  0
   27.5157  -20.5220   -9.1356 C   0  0  0  0  0  0  0  0  0  0  0  0
   27.0011  -21.1590  -10.4359 C   0  0  0  0  0  0  0  0  0  0  0  0
   25.7310  -20.4991  -10.8758 C   0  0  2  0  0  0  0  0  0  0  0  0
   24.6954  -20.7518   -9.7938 C   0  0  0  0  0  0  0  0  0  0  0  0
   25.2976  -20.9462  -12.2160 C   0  0  2  0  0  0  0  0  0  0  0  0
   26.2902  -20.5717  -13.2400 N   0  0  0  0  0  0  0  0  0  0  0  0
   24.0278  -20.3139  -12.6423 C   0  0  0  0  0  0  0  0  0  0  0  0
   24.0515  -19.0642  -12.8810 O   0  0  0  0  0  0  0  0  0  0  0  0
   21.8775  -18.6240  -15.6790 C   0  0  0  0  0  0  0  0  0  0  0  0
   22.0708  -20.1256  -15.7127 C   0  0  2  0  0  0  0  0  0  0  0  0
   21.9758  -20.7239  -17.0864 C   0  0  0  0  0  0  0  0  0  0  0  0
   21.3937  -20.8543  -14.6254 C   0  0  0  0  0  0  0  0  0  0  0  0
   21.5677  -20.4609  -13.2262 C   0  0  2  0  0  0  0  0  0  0  0  0
   22.8183  -21.0507  -12.7856 N   0  0  0  0  0  0  0  0  0  0  0  0
   20.4795  -20.6306  -12.2787 C   0  0  0  0  0  0  0  0  0  0  0  0
   19.4075  -19.7669  -12.1381 O   0  0  0  0  0  0  0  0  0  0  0  0
   20.4640  -21.6169  -11.5046 O   0  0  0  0  0  0  0  0  0  0  0  0
  2  3  1  0
  2  1  1  6
  4  3  1  0
  5  4  1  0
  5  6  1  0
  7  6  1  0
  8  9  2  0
  8  2  1  0
 11 10  1  0
 12 11  1  0
 12 14  1  0
 12 13  1  1
 14 15  1  6
 15  8  1  0
 16 14  1  0
 17 16  2  0
 19 18  1  6
 19 21  1  0
 20 19  1  0
 22 21  1  6
 22 23  1  0
 22 24  1  0
 23 16  1  0
 24 25  1  0
 26 24  2  0
M  END
$$$$
