HNW.pdb
     RDKit          3D

 33 35  0  0  1  0  0  0  0  0999 V2000
   26.3937  -17.8571  -16.0388 N   0  0  0  0  0  0  0  0  0  0  0  0
   25.7636  -18.1401  -14.7651 C   0  0  1  0  0  0  0  0  0  0  0  0
   24.2871  -17.7710  -14.9069 C   0  0  0  0  0  0  0  0  0  0  0  0
   24.2302  -16.3663  -15.3787 C   0  0  0  0  0  0  0  0  0  0  0  0
   24.3530  -15.2465  -14.5844 C   0  0  0  0  0  0  0  0  0  0  0  0
   24.2447  -14.1707  -15.3865 N   0  0  0  0  0  0  0  0  0  0  0  0
   24.0596  -14.5731  -16.6469 C   0  0  0  0  0  0  0  0  0  0  0  0
   24.0520  -15.9106  -16.6346 N   0  0  0  0  0  0  0  0  0  0  0  0
   25.9619  -19.5106  -14.2987 C   0  0  0  0  0  0  0  0  0  0  0  0
   25.0460  -20.3545  -14.4318 O   0  0  0  0  0  0  0  0  0  0  0  0
   29.6532  -19.5836  -12.7152 N   0  0  0  0  0  0  0  0  0  0  0  0
   29.9095  -20.8674  -13.2650 C   0  0  0  0  0  0  0  0  0  0  0  0
   31.0906  -21.2096  -13.4641 O   0  0  0  0  0  0  0  0  0  0  0  0
   28.7972  -21.7828  -13.5954 C   0  0  0  0  0  0  0  0  0  0  0  0
   27.4742  -21.2173  -13.1941 C   0  0  2  0  0  0  0  0  0  0  0  0
   27.1862  -19.9086  -13.6909 N   0  0  0  0  0  0  0  0  0  0  0  0
   27.2758  -21.3220  -11.7213 C   0  0  0  0  0  0  0  0  0  0  0  0
   28.2870  -21.6437  -11.0345 O   0  0  0  0  0  0  0  0  0  0  0  0
   26.0066  -21.0680  -11.1567 N   0  0  0  0  0  0  0  0  0  0  0  0
   25.8190  -21.1009   -9.7192 C   0  0  1  0  0  0  0  0  0  0  0  0
   26.8127  -20.2036   -9.0176 C   0  0  0  0  0  0  0  0  0  0  0  0
   26.5989  -20.3292   -7.5601 C   0  0  0  0  0  0  0  0  0  0  0  0
   25.5238  -20.9409   -6.9501 C   0  0  0  0  0  0  0  0  0  0  0  0
   25.6928  -20.8505   -5.6047 N   0  0  0  0  0  0  0  0  0  0  0  0
   26.8342  -20.2043   -5.3210 C   0  0  0  0  0  0  0  0  0  0  0  0
   27.4856  -19.8375   -4.1685 C   0  0  0  0  0  0  0  0  0  0  0  0
   28.6689  -19.1641   -4.2038 C   0  0  0  0  0  0  0  0  0  0  0  0
   29.2273  -18.8425   -5.4093 C   0  0  0  0  0  0  0  0  0  0  0  0
   28.6122  -19.1890   -6.5836 C   0  0  0  0  0  0  0  0  0  0  0  0
   27.4001  -19.8788   -6.5346 C   0  0  0  0  0  0  0  0  0  0  0  0
   24.4035  -20.7593   -9.3671 C   0  0  0  0  0  0  0  0  0  0  0  0
   23.7575  -19.9337  -10.0808 O   0  0  0  0  0  0  0  0  0  0  0  0
   23.7294  -21.2949   -8.2878 O   0  0  0  0  0  0  0  0  0  0  0  0
  2  1  1  6
  2  3  1  0
  3  4  1  0
  4  8  1  0
  5  4  2  0
  5  6  1  0
  6  7  1  0
  8  7  2  0
  9  2  1  0
  9 10  2  0
 11 12  1  0
 12 14  1  0
 13 12  2  0
 15 14  1  1
 15 16  1  0
 16  9  1  0
 17 15  1  0
 18 17  2  0
 19 17  1  0
 20 19  1  0
 20 31  1  0
 20 21  1  1
 22 21  1  0
 23 22  2  0
 24 25  1  0
 24 23  1  0
 25 30  2  0
 26 25  1  0
 26 27  2  0
 27 28  1  0
 28 29  2  0
 30 22  1  0
 30 29  1  0
 31 33  1  0
 32 31  2  0
M  END
$$$$
