HNW.pdb
     RDKit          3D

 33 35  0  0  1  0  0  0  0  0999 V2000
   24.7483  -25.9100  -18.3998 N   0  0  0  0  0  0  0  0  0  0  0  0
   24.5240  -26.5207  -17.1052 C   0  0  1  0  0  0  0  0  0  0  0  0
   25.3644  -25.7416  -16.0936 C   0  0  0  0  0  0  0  0  0  0  0  0
   26.7838  -26.0932  -16.3402 C   0  0  0  0  0  0  0  0  0  0  0  0
   27.6708  -25.3649  -17.1036 C   0  0  0  0  0  0  0  0  0  0  0  0
   28.8495  -26.0149  -17.0800 N   0  0  0  0  0  0  0  0  0  0  0  0
   28.7343  -27.1172  -16.3341 C   0  0  0  0  0  0  0  0  0  0  0  0
   27.4742  -27.1583  -15.8870 N   0  0  0  0  0  0  0  0  0  0  0  0
   23.1152  -26.6031  -16.7262 C   0  0  0  0  0  0  0  0  0  0  0  0
   22.3676  -25.6102  -16.8806 O   0  0  0  0  0  0  0  0  0  0  0  0
   20.5740  -27.7373  -18.4797 N   0  0  0  0  0  0  0  0  0  0  0  0
   20.2575  -28.9691  -17.8484 C   0  0  0  0  0  0  0  0  0  0  0  0
   19.7498  -29.8795  -18.5305 O   0  0  0  0  0  0  0  0  0  0  0  0
   20.5249  -29.1701  -16.4088 C   0  0  0  0  0  0  0  0  0  0  0  0
   21.2067  -27.9888  -15.8000 C   0  0  2  0  0  0  0  0  0  0  0  0
   22.5714  -27.8003  -16.1804 N   0  0  0  0  0  0  0  0  0  0  0  0
   21.0217  -27.9713  -14.3219 C   0  0  0  0  0  0  0  0  0  0  0  0
   21.6854  -28.8171  -13.6573 O   0  0  0  0  0  0  0  0  0  0  0  0
   20.1393  -27.0420  -13.7285 N   0  0  0  0  0  0  0  0  0  0  0  0
   20.0430  -26.9343  -12.2857 C   0  0  1  0  0  0  0  0  0  0  0  0
   20.4809  -25.5683  -11.8091 C   0  0  0  0  0  0  0  0  0  0  0  0
   19.5451  -24.5653  -12.3606 C   0  0  0  0  0  0  0  0  0  0  0  0
   18.3491  -24.1773  -11.7938 C   0  0  0  0  0  0  0  0  0  0  0  0
   17.7844  -23.2387  -12.5982 N   0  0  0  0  0  0  0  0  0  0  0  0
   18.5677  -23.0050  -13.6625 C   0  0  0  0  0  0  0  0  0  0  0  0
   18.4973  -22.1859  -14.7630 C   0  0  0  0  0  0  0  0  0  0  0  0
   19.4812  -22.1735  -15.7046 C   0  0  0  0  0  0  0  0  0  0  0  0
   20.5666  -22.9915  -15.5582 C   0  0  0  0  0  0  0  0  0  0  0  0
   20.6780  -23.8244  -14.4760 C   0  0  0  0  0  0  0  0  0  0  0  0
   19.6633  -23.8282  -13.5179 C   0  0  0  0  0  0  0  0  0  0  0  0
   18.6588  -27.2754  -11.8255 C   0  0  0  0  0  0  0  0  0  0  0  0
   17.7007  -27.2793  -12.6564 O   0  0  0  0  0  0  0  0  0  0  0  0
   18.3398  -27.5964  -10.5211 O   0  0  0  0  0  0  0  0  0  0  0  0
  2  1  1  6
  2  3  1  0
  3  4  1  0
  4  8  1  0
  5  4  2  0
  5  6  1  0
  6  7  1  0
  8  7  2  0
  9  2  1  0
  9 10  2  0
 11 12  1  0
 12 14  1  0
 13 12  2  0
 15 14  1  1
 15 16  1  0
 16  9  1  0
 17 15  1  0
 18 17  2  0
 19 17  1  0
 20 19  1  0
 20 31  1  0
 20 21  1  6
 22 21  1  0
 23 22  2  0
 24 25  1  0
 24 23  1  0
 25 30  2  0
 26 25  1  0
 26 27  2  0
 27 28  1  0
 28 29  2  0
 30 22  1  0
 30 29  1  0
 31 33  1  0
 32 31  2  0
M  END
$$$$
