HNW.pdb
     RDKit          3D

 33 35  0  0  1  0  0  0  0  0999 V2000
   24.3573  -14.4906  -18.1766 N   0  0  0  0  0  0  0  0  0  0  0  0
   24.3231  -13.5044  -17.1157 C   0  0  1  0  0  0  0  0  0  0  0  0
   25.6344  -12.7226  -17.1919 C   0  0  0  0  0  0  0  0  0  0  0  0
   26.7377  -13.7124  -17.1448 C   0  0  0  0  0  0  0  0  0  0  0  0
   26.9951  -14.5795  -16.1048 C   0  0  0  0  0  0  0  0  0  0  0  0
   28.0752  -15.3072  -16.4458 N   0  0  0  0  0  0  0  0  0  0  0  0
   28.5014  -14.9300  -17.6545 C   0  0  0  0  0  0  0  0  0  0  0  0
   27.6825  -13.9591  -18.0739 N   0  0  0  0  0  0  0  0  0  0  0  0
   23.1460  -12.6393  -17.1501 C   0  0  0  0  0  0  0  0  0  0  0  0
   23.0676  -11.7246  -18.0021 O   0  0  0  0  0  0  0  0  0  0  0  0
   19.2607  -15.1854  -16.0915 N   0  0  0  0  0  0  0  0  0  0  0  0
   19.3956  -13.8849  -16.6451 C   0  0  0  0  0  0  0  0  0  0  0  0
   19.2973  -13.7453  -17.8790 O   0  0  0  0  0  0  0  0  0  0  0  0
   19.6478  -12.7168  -15.7754 C   0  0  0  0  0  0  0  0  0  0  0  0
   20.9049  -12.0039  -16.1531 C   0  0  2  0  0  0  0  0  0  0  0  0
   22.0776  -12.8176  -16.2262 N   0  0  0  0  0  0  0  0  0  0  0  0
   21.1050  -10.7943  -15.3069 C   0  0  0  0  0  0  0  0  0  0  0  0
   21.1197  -10.9736  -14.0558 O   0  0  0  0  0  0  0  0  0  0  0  0
   21.2659   -9.5266  -15.9082 N   0  0  0  0  0  0  0  0  0  0  0  0
   21.6222   -8.3709  -15.1083 C   0  0  1  0  0  0  0  0  0  0  0  0
   22.9900   -8.5371  -14.4865 C   0  0  0  0  0  0  0  0  0  0  0  0
   23.9949   -8.5191  -15.5707 C   0  0  0  0  0  0  0  0  0  0  0  0
   24.0689   -7.5926  -16.5897 C   0  0  0  0  0  0  0  0  0  0  0  0
   25.1260   -7.9163  -17.3800 N   0  0  0  0  0  0  0  0  0  0  0  0
   25.7379   -9.0153  -16.9125 C   0  0  0  0  0  0  0  0  0  0  0  0
   26.8209   -9.7667  -17.2995 C   0  0  0  0  0  0  0  0  0  0  0  0
   27.2101  -10.8674  -16.5982 C   0  0  0  0  0  0  0  0  0  0  0  0
   26.5126  -11.2392  -15.4829 C   0  0  0  0  0  0  0  0  0  0  0  0
   25.4264  -10.5187  -15.0607 C   0  0  0  0  0  0  0  0  0  0  0  0
   25.0372   -9.3928  -15.7876 C   0  0  0  0  0  0  0  0  0  0  0  0
   21.5213   -7.1178  -15.9231 C   0  0  0  0  0  0  0  0  0  0  0  0
   21.3885   -7.1929  -17.1821 O   0  0  0  0  0  0  0  0  0  0  0  0
   21.5634   -5.8465  -15.3861 O   0  0  0  0  0  0  0  0  0  0  0  0
  2  1  1  6
  2  3  1  0
  3  4  1  0
  4  8  1  0
  5  4  2  0
  5  6  1  0
  6  7  1  0
  8  7  2  0
  9  2  1  0
  9 10  2  0
 11 12  1  0
 12 14  1  0
 13 12  2  0
 15 14  1  1
 15 16  1  0
 16  9  1  0
 17 15  1  0
 18 17  2  0
 19 17  1  0
 20 19  1  0
 20 31  1  0
 20 21  1  6
 22 21  1  0
 23 22  2  0
 24 25  1  0
 24 23  1  0
 25 30  2  0
 26 25  1  0
 26 27  2  0
 27 28  1  0
 28 29  2  0
 30 22  1  0
 30 29  1  0
 31 33  1  0
 32 31  2  0
M  END
$$$$
