HNW.pdb
     RDKit          3D

 33 35  0  0  1  0  0  0  0  0999 V2000
   29.4940  -22.0751  -18.6191 N   0  0  0  0  0  0  0  0  0  0  0  0
   28.2234  -22.2827  -17.9544 C   0  0  1  0  0  0  0  0  0  0  0  0
   27.9046  -23.7740  -18.0587 C   0  0  0  0  0  0  0  0  0  0  0  0
   27.6275  -24.0638  -19.4864 C   0  0  0  0  0  0  0  0  0  0  0  0
   28.3559  -24.9150  -20.2894 C   0  0  0  0  0  0  0  0  0  0  0  0
   27.7869  -24.9022  -21.5094 N   0  0  0  0  0  0  0  0  0  0  0  0
   26.7347  -24.0790  -21.5003 C   0  0  0  0  0  0  0  0  0  0  0  0
   26.6437  -23.5724  -20.2657 N   0  0  0  0  0  0  0  0  0  0  0  0
   28.1884  -21.7916  -16.5786 C   0  0  0  0  0  0  0  0  0  0  0  0
   29.0318  -22.2003  -15.7478 O   0  0  0  0  0  0  0  0  0  0  0  0
   28.3035  -17.4439  -16.6631 N   0  0  0  0  0  0  0  0  0  0  0  0
   28.3780  -18.2121  -15.4714 C   0  0  0  0  0  0  0  0  0  0  0  0
   29.4951  -18.4203  -14.9609 O   0  0  0  0  0  0  0  0  0  0  0  0
   27.1541  -18.7556  -14.8459 C   0  0  0  0  0  0  0  0  0  0  0  0
   27.1360  -20.2490  -14.8659 C   0  0  2  0  0  0  0  0  0  0  0  0
   27.2060  -20.8497  -16.1609 N   0  0  0  0  0  0  0  0  0  0  0  0
   26.0039  -20.7781  -14.0550 C   0  0  0  0  0  0  0  0  0  0  0  0
   24.9071  -20.9527  -14.6586 O   0  0  0  0  0  0  0  0  0  0  0  0
   26.1842  -21.0581  -12.6827 N   0  0  0  0  0  0  0  0  0  0  0  0
   25.0985  -21.6062  -11.8930 C   0  0  1  0  0  0  0  0  0  0  0  0
   25.6084  -22.1977  -10.5988 C   0  0  0  0  0  0  0  0  0  0  0  0
   26.3086  -21.1329   -9.8492 C   0  0  0  0  0  0  0  0  0  0  0  0
   25.7078  -20.1280   -9.1203 C   0  0  0  0  0  0  0  0  0  0  0  0
   26.6858  -19.3535   -8.5813 N   0  0  0  0  0  0  0  0  0  0  0  0
   27.8946  -19.8177   -8.9332 C   0  0  0  0  0  0  0  0  0  0  0  0
   29.1926  -19.4412   -8.6865 C   0  0  0  0  0  0  0  0  0  0  0  0
   30.2448  -20.1351   -9.2027 C   0  0  0  0  0  0  0  0  0  0  0  0
   30.0122  -21.2320   -9.9846 C   0  0  0  0  0  0  0  0  0  0  0  0
   28.7337  -21.6432  -10.2561 C   0  0  0  0  0  0  0  0  0  0  0  0
   27.6638  -20.9241   -9.7215 C   0  0  0  0  0  0  0  0  0  0  0  0
   24.0425  -20.5690  -11.6620 C   0  0  0  0  0  0  0  0  0  0  0  0
   24.3128  -19.3428  -11.8400 O   0  0  0  0  0  0  0  0  0  0  0  0
   22.7551  -20.8600  -11.2566 O   0  0  0  0  0  0  0  0  0  0  0  0
  2  1  1  1
  2  3  1  0
  3  4  1  0
  4  8  1  0
  5  4  2  0
  5  6  1  0
  6  7  1  0
  8  7  2  0
  9  2  1  0
  9 10  2  0
 11 12  1  0
 12 14  1  0
 13 12  2  0
 15 14  1  6
 15 16  1  0
 16  9  1  0
 17 15  1  0
 18 17  2  0
 19 17  1  0
 20 19  1  0
 20 31  1  0
 20 21  1  1
 22 21  1  0
 23 22  2  0
 24 25  1  0
 24 23  1  0
 25 30  2  0
 26 25  1  0
 26 27  2  0
 27 28  1  0
 28 29  2  0
 30 22  1  0
 30 29  1  0
 31 33  1  0
 32 31  2  0
M  END
$$$$
