HNW.pdb
     RDKit          3D

 33 35  0  0  1  0  0  0  0  0999 V2000
   16.6051  -14.5233    7.1942 N   0  0  0  0  0  0  0  0  0  0  0  0
   17.4970  -15.3263    6.3826 C   0  0  1  0  0  0  0  0  0  0  0  0
   18.9015  -15.1542    6.9608 C   0  0  0  0  0  0  0  0  0  0  0  0
   19.2998  -13.7443    6.7315 C   0  0  0  0  0  0  0  0  0  0  0  0
   19.5267  -12.8039    7.7132 C   0  0  0  0  0  0  0  0  0  0  0  0
   19.8645  -11.6546    7.0988 N   0  0  0  0  0  0  0  0  0  0  0  0
   19.8577  -11.8395    5.7757 C   0  0  0  0  0  0  0  0  0  0  0  0
   19.5132  -13.1138    5.5595 N   0  0  0  0  0  0  0  0  0  0  0  0
   17.0976  -16.7277    6.2742 C   0  0  0  0  0  0  0  0  0  0  0  0
   16.8286  -17.3823    7.3076 O   0  0  0  0  0  0  0  0  0  0  0  0
   16.2768  -21.4570    4.4296 N   0  0  0  0  0  0  0  0  0  0  0  0
   15.7004  -20.5572    3.4947 C   0  0  0  0  0  0  0  0  0  0  0  0
   15.0170  -21.0188    2.5611 O   0  0  0  0  0  0  0  0  0  0  0  0
   15.9058  -19.0994    3.6249 C   0  0  0  0  0  0  0  0  0  0  0  0
   16.7626  -18.7617    4.8008 C   0  0  2  0  0  0  0  0  0  0  0  0
   17.0075  -17.3687    5.0062 N   0  0  0  0  0  0  0  0  0  0  0  0
   18.0180  -19.5636    4.7919 C   0  0  0  0  0  0  0  0  0  0  0  0
   18.8127  -19.3620    3.8298 O   0  0  0  0  0  0  0  0  0  0  0  0
   18.2729  -20.4939    5.8233 N   0  0  0  0  0  0  0  0  0  0  0  0
   19.5269  -21.2205    5.8676 C   0  0  1  0  0  0  0  0  0  0  0  0
   20.6954  -20.2827    6.0678 C   0  0  0  0  0  0  0  0  0  0  0  0
   20.7996  -19.9769    7.5105 C   0  0  0  0  0  0  0  0  0  0  0  0
   20.2160  -20.6944    8.5336 C   0  0  0  0  0  0  0  0  0  0  0  0
   20.5461  -20.0991    9.7098 N   0  0  0  0  0  0  0  0  0  0  0  0
   21.3196  -19.0253    9.4875 C   0  0  0  0  0  0  0  0  0  0  0  0
   21.9239  -18.0791   10.2792 C   0  0  0  0  0  0  0  0  0  0  0  0
   22.6703  -17.0742    9.7426 C   0  0  0  0  0  0  0  0  0  0  0  0
   22.8263  -16.9987    8.3866 C   0  0  0  0  0  0  0  0  0  0  0  0
   22.2416  -17.9213    7.5595 C   0  0  0  0  0  0  0  0  0  0  0  0
   21.4792  -18.9464    8.1211 C   0  0  0  0  0  0  0  0  0  0  0  0
   19.4764  -22.2906    6.9149 C   0  0  0  0  0  0  0  0  0  0  0  0
   20.4227  -23.1299    7.0055 O   0  0  0  0  0  0  0  0  0  0  0  0
   18.4416  -22.4341    7.8176 O   0  0  0  0  0  0  0  0  0  0  0  0
  2  1  1  1
  2  3  1  0
  3  4  1  0
  4  8  1  0
  5  4  2  0
  5  6  1  0
  6  7  1  0
  8  7  2  0
  9  2  1  0
  9 10  2  0
 11 12  1  0
 12 14  1  0
 13 12  2  0
 15 14  1  6
 15 16  1  0
 16  9  1  0
 17 15  1  0
 18 17  2  0
 19 17  1  0
 20 19  1  0
 20 31  1  0
 20 21  1  1
 22 21  1  0
 23 22  2  0
 24 25  1  0
 24 23  1  0
 25 30  2  0
 26 25  1  0
 26 27  2  0
 27 28  1  0
 28 29  2  0
 30 22  1  0
 30 29  1  0
 31 33  1  0
 32 31  2  0
M  END
$$$$
