HNW.pdb
     RDKit          3D

 33 35  0  0  1  0  0  0  0  0999 V2000
   27.1775  -19.5039  -17.8508 N   0  0  0  0  0  0  0  0  0  0  0  0
   27.1849  -19.0164  -16.4864 C   0  0  1  0  0  0  0  0  0  0  0  0
   26.4355  -17.6841  -16.4855 C   0  0  0  0  0  0  0  0  0  0  0  0
   27.3278  -16.6794  -17.1127 C   0  0  0  0  0  0  0  0  0  0  0  0
   27.9478  -15.6363  -16.4589 C   0  0  0  0  0  0  0  0  0  0  0  0
   28.6645  -14.9572  -17.3742 N   0  0  0  0  0  0  0  0  0  0  0  0
   28.5172  -15.5334  -18.5705 C   0  0  0  0  0  0  0  0  0  0  0  0
   27.7024  -16.5810  -18.4037 N   0  0  0  0  0  0  0  0  0  0  0  0
   26.6487  -19.9677  -15.5154 C   0  0  0  0  0  0  0  0  0  0  0  0
   25.6810  -20.6994  -15.8265 O   0  0  0  0  0  0  0  0  0  0  0  0
   25.5652  -22.3557  -11.1064 N   0  0  0  0  0  0  0  0  0  0  0  0
   26.8313  -21.7582  -10.8698 C   0  0  0  0  0  0  0  0  0  0  0  0
   27.4062  -21.9799   -9.7872 O   0  0  0  0  0  0  0  0  0  0  0  0
   27.4577  -20.8889  -11.8878 C   0  0  0  0  0  0  0  0  0  0  0  0
   26.6086  -20.7637  -13.1102 C   0  0  2  0  0  0  0  0  0  0  0  0
   27.2098  -20.0799  -14.2118 N   0  0  0  0  0  0  0  0  0  0  0  0
   25.2638  -20.2205  -12.7703 C   0  0  0  0  0  0  0  0  0  0  0  0
   25.2345  -19.2262  -11.9904 O   0  0  0  0  0  0  0  0  0  0  0  0
   24.1018  -20.8135  -13.3109 N   0  0  0  0  0  0  0  0  0  0  0  0
   22.7900  -20.2742  -13.0091 C   0  0  1  0  0  0  0  0  0  0  0  0
   22.6784  -18.8315  -13.4461 C   0  0  0  0  0  0  0  0  0  0  0  0
   22.6992  -18.7941  -14.9239 C   0  0  0  0  0  0  0  0  0  0  0  0
   22.2922  -19.8089  -15.7645 C   0  0  0  0  0  0  0  0  0  0  0  0
   22.4646  -19.3915  -17.0463 N   0  0  0  0  0  0  0  0  0  0  0  0
   22.9672  -18.1474  -17.0674 C   0  0  0  0  0  0  0  0  0  0  0  0
   23.3305  -17.2599  -18.0511 C   0  0  0  0  0  0  0  0  0  0  0  0
   23.8290  -16.0288  -17.7496 C   0  0  0  0  0  0  0  0  0  0  0  0
   23.9739  -15.6607  -16.4411 C   0  0  0  0  0  0  0  0  0  0  0  0
   23.6240  -16.5142  -15.4280 C   0  0  0  0  0  0  0  0  0  0  0  0
   23.1143  -17.7729  -15.7495 C   0  0  0  0  0  0  0  0  0  0  0  0
   21.7193  -21.1310  -13.6123 C   0  0  0  0  0  0  0  0  0  0  0  0
   22.0345  -22.0740  -14.3996 O   0  0  0  0  0  0  0  0  0  0  0  0
   20.3712  -20.9637  -13.3656 O   0  0  0  0  0  0  0  0  0  0  0  0
  2  1  1  6
  2  3  1  0
  3  4  1  0
  4  8  1  0
  5  4  2  0
  5  6  1  0
  6  7  1  0
  8  7  2  0
  9  2  1  0
  9 10  2  0
 11 12  1  0
 12 14  1  0
 13 12  2  0
 15 14  1  1
 15 16  1  0
 16  9  1  0
 17 15  1  0
 18 17  2  0
 19 17  1  0
 20 19  1  0
 20 31  1  0
 20 21  1  6
 22 21  1  0
 23 22  2  0
 24 25  1  0
 24 23  1  0
 25 30  2  0
 26 25  1  0
 26 27  2  0
 27 28  1  0
 28 29  2  0
 30 22  1  0
 30 29  1  0
 31 33  1  0
 32 31  2  0
M  END
$$$$
