HNW.pdb
     RDKit          3D

 33 35  0  0  1  0  0  0  0  0999 V2000
   28.0665  -21.8625  -17.5424 N   0  0  0  0  0  0  0  0  0  0  0  0
   28.1666  -21.9929  -16.1029 C   0  0  1  0  0  0  0  0  0  0  0  0
   29.6560  -22.0423  -15.7626 C   0  0  0  0  0  0  0  0  0  0  0  0
   30.1807  -23.3295  -16.2792 C   0  0  0  0  0  0  0  0  0  0  0  0
   29.4306  -24.3239  -16.8694 C   0  0  0  0  0  0  0  0  0  0  0  0
   30.2725  -25.3222  -17.1966 N   0  0  0  0  0  0  0  0  0  0  0  0
   31.5154  -24.9917  -16.8350 C   0  0  0  0  0  0  0  0  0  0  0  0
   31.4520  -23.7775  -16.2774 N   0  0  0  0  0  0  0  0  0  0  0  0
   27.4516  -20.9548  -15.3638 C   0  0  0  0  0  0  0  0  0  0  0  0
   27.4926  -19.7667  -15.7579 O   0  0  0  0  0  0  0  0  0  0  0  0
   23.0659  -18.7457  -14.4826 N   0  0  0  0  0  0  0  0  0  0  0  0
   23.1253  -20.1630  -14.5416 C   0  0  0  0  0  0  0  0  0  0  0  0
   22.1021  -20.8181  -14.2664 O   0  0  0  0  0  0  0  0  0  0  0  0
   24.3768  -20.8509  -14.9226 C   0  0  0  0  0  0  0  0  0  0  0  0
   25.4225  -20.7292  -13.8631 C   0  0  2  0  0  0  0  0  0  0  0  0
   26.7029  -21.2705  -14.1947 N   0  0  0  0  0  0  0  0  0  0  0  0
   24.9154  -21.2309  -12.5553 C   0  0  0  0  0  0  0  0  0  0  0  0
   23.9588  -22.0561  -12.5969 O   0  0  0  0  0  0  0  0  0  0  0  0
   25.4987  -20.7836  -11.3495 N   0  0  0  0  0  0  0  0  0  0  0  0
   24.8665  -21.0657  -10.0754 C   0  0  1  0  0  0  0  0  0  0  0  0
   25.5070  -20.2720   -8.9597 C   0  0  0  0  0  0  0  0  0  0  0  0
   26.9433  -20.6190   -8.9123 C   0  0  0  0  0  0  0  0  0  0  0  0
   27.6225  -21.3804   -9.8402 C   0  0  0  0  0  0  0  0  0  0  0  0
   28.9197  -21.4710   -9.4453 N   0  0  0  0  0  0  0  0  0  0  0  0
   29.1057  -20.7988   -8.2990 C   0  0  0  0  0  0  0  0  0  0  0  0
   30.1764  -20.5606   -7.4718 C   0  0  0  0  0  0  0  0  0  0  0  0
   30.0478  -19.8166   -6.3383 C   0  0  0  0  0  0  0  0  0  0  0  0
   28.8293  -19.2916   -6.0096 C   0  0  0  0  0  0  0  0  0  0  0  0
   27.7346  -19.5038   -6.8058 C   0  0  0  0  0  0  0  0  0  0  0  0
   27.8788  -20.2678   -7.9647 C   0  0  0  0  0  0  0  0  0  0  0  0
   23.3893  -20.8303  -10.1593 C   0  0  0  0  0  0  0  0  0  0  0  0
   22.9431  -19.8579  -10.8402 O   0  0  0  0  0  0  0  0  0  0  0  0
   22.4483  -21.6202   -9.5294 O   0  0  0  0  0  0  0  0  0  0  0  0
  2  1  1  6
  2  3  1  0
  3  4  1  0
  4  8  1  0
  5  4  2  0
  5  6  1  0
  6  7  1  0
  8  7  2  0
  9  2  1  0
  9 10  2  0
 11 12  1  0
 12 14  1  0
 13 12  2  0
 15 14  1  6
 15 16  1  0
 16  9  1  0
 17 15  1  0
 18 17  2  0
 19 17  1  0
 20 19  1  0
 20 31  1  0
 20 21  1  1
 22 21  1  0
 23 22  2  0
 24 25  1  0
 24 23  1  0
 25 30  2  0
 26 25  1  0
 26 27  2  0
 27 28  1  0
 28 29  2  0
 30 22  1  0
 30 29  1  0
 31 33  1  0
 32 31  2  0
M  END
$$$$
