HNW.pdb
     RDKit          3D

 33 35  0  0  1  0  0  0  0  0999 V2000
   23.7310  -20.6467  -16.4063 N   0  0  0  0  0  0  0  0  0  0  0  0
   24.5156  -21.7770  -16.8601 C   0  0  1  0  0  0  0  0  0  0  0  0
   25.0559  -21.4173  -18.2440 C   0  0  0  0  0  0  0  0  0  0  0  0
   23.9836  -20.6795  -18.9545 C   0  0  0  0  0  0  0  0  0  0  0  0
   23.0004  -21.2468  -19.7363 C   0  0  0  0  0  0  0  0  0  0  0  0
   22.2284  -20.2462  -20.2004 N   0  0  0  0  0  0  0  0  0  0  0  0
   22.6892  -19.0796  -19.7406 C   0  0  0  0  0  0  0  0  0  0  0  0
   23.7575  -19.3510  -18.9829 N   0  0  0  0  0  0  0  0  0  0  0  0
   25.5677  -22.1786  -15.9289 C   0  0  0  0  0  0  0  0  0  0  0  0
   26.5501  -22.8364  -16.3423 O   0  0  0  0  0  0  0  0  0  0  0  0
   28.3066  -19.4294  -12.5691 N   0  0  0  0  0  0  0  0  0  0  0  0
   27.8635  -18.9961  -13.8465 C   0  0  0  0  0  0  0  0  0  0  0  0
   28.3762  -17.9760  -14.3449 O   0  0  0  0  0  0  0  0  0  0  0  0
   26.8135  -19.7400  -14.5736 C   0  0  0  0  0  0  0  0  0  0  0  0
   26.4252  -20.9933  -13.8601 C   0  0  2  0  0  0  0  0  0  0  0  0
   25.4972  -21.8337  -14.5495 N   0  0  0  0  0  0  0  0  0  0  0  0
   25.9963  -20.6994  -12.4640 C   0  0  0  0  0  0  0  0  0  0  0  0
   24.9333  -20.0294  -12.3266 O   0  0  0  0  0  0  0  0  0  0  0  0
   26.7650  -21.1620  -11.3735 N   0  0  0  0  0  0  0  0  0  0  0  0
   26.3362  -20.9132  -10.0108 C   0  0  1  0  0  0  0  0  0  0  0  0
   27.4053  -21.3129   -9.0198 C   0  0  0  0  0  0  0  0  0  0  0  0
   27.0686  -20.7134   -7.7110 C   0  0  0  0  0  0  0  0  0  0  0  0
   25.8211  -20.2746   -7.3193 C   0  0  0  0  0  0  0  0  0  0  0  0
   25.9207  -19.7921   -6.0527 N   0  0  0  0  0  0  0  0  0  0  0  0
   27.1829  -19.9013   -5.6105 C   0  0  0  0  0  0  0  0  0  0  0  0
   27.8383  -19.5831   -4.4458 C   0  0  0  0  0  0  0  0  0  0  0  0
   29.1704  -19.8207   -4.2915 C   0  0  0  0  0  0  0  0  0  0  0  0
   29.8781  -20.3885   -5.3139 C   0  0  0  0  0  0  0  0  0  0  0  0
   29.2648  -20.7221   -6.4928 C   0  0  0  0  0  0  0  0  0  0  0  0
   27.8994  -20.4737   -6.6391 C   0  0  0  0  0  0  0  0  0  0  0  0
   25.9189  -19.4841   -9.8449 C   0  0  0  0  0  0  0  0  0  0  0  0
   26.6655  -18.5545  -10.2772 O   0  0  0  0  0  0  0  0  0  0  0  0
   24.7430  -19.0925   -9.2363 O   0  0  0  0  0  0  0  0  0  0  0  0
  2  1  1  1
  2  3  1  0
  3  4  1  0
  4  8  1  0
  5  4  2  0
  5  6  1  0
  6  7  1  0
  8  7  2  0
  9  2  1  0
  9 10  2  0
 11 12  1  0
 12 14  1  0
 13 12  2  0
 15 14  1  6
 15 16  1  0
 16  9  1  0
 17 15  1  0
 18 17  2  0
 19 17  1  0
 20 19  1  0
 20 31  1  0
 20 21  1  1
 22 21  1  0
 23 22  2  0
 24 25  1  0
 24 23  1  0
 25 30  2  0
 26 25  1  0
 26 27  2  0
 27 28  1  0
 28 29  2  0
 30 22  1  0
 30 29  1  0
 31 33  1  0
 32 31  2  0
M  END
$$$$
