HNW.pdb
     RDKit          3D

 33 35  0  0  1  0  0  0  0  0999 V2000
   26.9962  -18.0403  -19.1135 N   0  0  0  0  0  0  0  0  0  0  0  0
   26.7465  -19.1150  -18.1744 C   0  0  1  0  0  0  0  0  0  0  0  0
   28.0950  -19.4939  -17.5624 C   0  0  0  0  0  0  0  0  0  0  0  0
   28.9410  -20.0220  -18.6599 C   0  0  0  0  0  0  0  0  0  0  0  0
   30.2170  -19.5994  -18.9649 C   0  0  0  0  0  0  0  0  0  0  0  0
   30.6378  -20.3207  -20.0209 N   0  0  0  0  0  0  0  0  0  0  0  0
   29.6778  -21.1749  -20.3865 C   0  0  0  0  0  0  0  0  0  0  0  0
   28.6481  -20.9875  -19.5536 N   0  0  0  0  0  0  0  0  0  0  0  0
   25.7372  -18.7973  -17.1666 C   0  0  0  0  0  0  0  0  0  0  0  0
   25.9772  -17.9324  -16.2931 O   0  0  0  0  0  0  0  0  0  0  0  0
   21.3157  -17.0975  -14.6404 N   0  0  0  0  0  0  0  0  0  0  0  0
   21.3158  -18.0026  -15.7344 C   0  0  0  0  0  0  0  0  0  0  0  0
   20.3155  -18.7218  -15.9178 O   0  0  0  0  0  0  0  0  0  0  0  0
   22.4801  -18.0913  -16.6405 C   0  0  0  0  0  0  0  0  0  0  0  0
   23.4103  -19.1906  -16.2441 C   0  0  2  0  0  0  0  0  0  0  0  0
   24.4758  -19.4573  -17.1585 N   0  0  0  0  0  0  0  0  0  0  0  0
   22.6543  -20.4212  -15.8788 C   0  0  0  0  0  0  0  0  0  0  0  0
   22.3061  -21.1763  -16.8308 O   0  0  0  0  0  0  0  0  0  0  0  0
   22.3587  -20.6968  -14.5257 N   0  0  0  0  0  0  0  0  0  0  0  0
   21.6014  -21.8786  -14.1621 C   0  0  1  0  0  0  0  0  0  0  0  0
   22.3418  -22.7090  -13.1389 C   0  0  0  0  0  0  0  0  0  0  0  0
   22.6654  -21.8408  -11.9869 C   0  0  0  0  0  0  0  0  0  0  0  0
   21.7532  -21.1840  -11.1877 C   0  0  0  0  0  0  0  0  0  0  0  0
   22.4407  -20.4924  -10.2411 N   0  0  0  0  0  0  0  0  0  0  0  0
   23.7608  -20.6759  -10.3970 C   0  0  0  0  0  0  0  0  0  0  0  0
   24.8891  -20.2332   -9.7503 C   0  0  0  0  0  0  0  0  0  0  0  0
   26.1345  -20.6038  -10.1585 C   0  0  0  0  0  0  0  0  0  0  0  0
   26.2730  -21.4349  -11.2350 C   0  0  0  0  0  0  0  0  0  0  0  0
   25.1749  -21.9006  -11.9092 C   0  0  0  0  0  0  0  0  0  0  0  0
   23.9041  -21.5138  -11.4816 C   0  0  0  0  0  0  0  0  0  0  0  0
   20.2294  -21.4993  -13.6951 C   0  0  0  0  0  0  0  0  0  0  0  0
   19.9554  -20.2827  -13.4644 O   0  0  0  0  0  0  0  0  0  0  0  0
   19.2088  -22.4065  -13.4912 O   0  0  0  0  0  0  0  0  0  0  0  0
  2  1  1  6
  2  3  1  0
  3  4  1  0
  4  8  1  0
  5  4  2  0
  5  6  1  0
  6  7  1  0
  8  7  2  0
  9  2  1  0
  9 10  2  0
 11 12  1  0
 12 14  1  0
 13 12  2  0
 15 14  1  6
 15 16  1  0
 16  9  1  0
 17 15  1  0
 18 17  2  0
 19 17  1  0
 20 19  1  0
 20 31  1  0
 20 21  1  1
 22 21  1  0
 23 22  2  0
 24 25  1  0
 24 23  1  0
 25 30  2  0
 26 25  1  0
 26 27  2  0
 27 28  1  0
 28 29  2  0
 30 22  1  0
 30 29  1  0
 31 33  1  0
 32 31  2  0
M  END
$$$$
