HNW.pdb
     RDKit          3D

 33 35  0  0  1  0  0  0  0  0999 V2000
   23.4189  -21.3828  -18.7644 N   0  0  0  0  0  0  0  0  0  0  0  0
   24.1745  -20.4702  -17.9305 C   0  0  1  0  0  0  0  0  0  0  0  0
   23.1654  -19.5309  -17.2704 C   0  0  0  0  0  0  0  0  0  0  0  0
   22.5772  -18.6950  -18.3448 C   0  0  0  0  0  0  0  0  0  0  0  0
   23.0936  -17.5049  -18.8104 C   0  0  0  0  0  0  0  0  0  0  0  0
   22.2711  -17.0615  -19.7796 N   0  0  0  0  0  0  0  0  0  0  0  0
   21.2642  -17.9252  -19.9375 C   0  0  0  0  0  0  0  0  0  0  0  0
   21.4571  -18.9170  -19.0610 N   0  0  0  0  0  0  0  0  0  0  0  0
   25.0449  -21.1354  -16.9635 C   0  0  0  0  0  0  0  0  0  0  0  0
   24.5765  -22.0110  -16.2002 O   0  0  0  0  0  0  0  0  0  0  0  0
   27.5127  -23.9247  -16.8461 N   0  0  0  0  0  0  0  0  0  0  0  0
   28.6866  -23.1287  -16.9122 C   0  0  0  0  0  0  0  0  0  0  0  0
   29.7258  -23.6304  -17.3812 O   0  0  0  0  0  0  0  0  0  0  0  0
   28.6781  -21.7301  -16.4341 C   0  0  0  0  0  0  0  0  0  0  0  0
   27.3391  -21.3315  -15.9058 C   0  0  2  0  0  0  0  0  0  0  0  0
   26.4266  -20.8047  -16.8714 N   0  0  0  0  0  0  0  0  0  0  0  0
   27.4788  -20.4473  -14.7151 C   0  0  0  0  0  0  0  0  0  0  0  0
   27.5815  -19.2075  -14.9385 O   0  0  0  0  0  0  0  0  0  0  0  0
   27.4928  -21.0027  -13.4168 N   0  0  0  0  0  0  0  0  0  0  0  0
   27.5995  -20.1481  -12.2502 C   0  0  1  0  0  0  0  0  0  0  0  0
   26.4817  -19.1313  -12.2135 C   0  0  0  0  0  0  0  0  0  0  0  0
   25.2768  -19.7897  -11.6654 C   0  0  0  0  0  0  0  0  0  0  0  0
   25.0839  -20.1583  -10.3505 C   0  0  0  0  0  0  0  0  0  0  0  0
   23.8556  -20.7305  -10.2472 N   0  0  0  0  0  0  0  0  0  0  0  0
   23.2472  -20.7467  -11.4431 C   0  0  0  0  0  0  0  0  0  0  0  0
   22.0353  -21.1905  -11.9139 C   0  0  0  0  0  0  0  0  0  0  0  0
   21.6927  -21.0649  -13.2261 C   0  0  0  0  0  0  0  0  0  0  0  0
   22.5690  -20.4852  -14.1004 C   0  0  0  0  0  0  0  0  0  0  0  0
   23.7883  -20.0282  -13.6741 C   0  0  0  0  0  0  0  0  0  0  0  0
   24.1281  -20.1625  -12.3273 C   0  0  0  0  0  0  0  0  0  0  0  0
   27.6545  -20.9716  -11.0000 C   0  0  0  0  0  0  0  0  0  0  0  0
   27.3767  -22.2082  -11.0463 O   0  0  0  0  0  0  0  0  0  0  0  0
   27.9967  -20.4665   -9.7614 O   0  0  0  0  0  0  0  0  0  0  0  0
  2  1  1  1
  2  3  1  0
  3  4  1  0
  4  8  1  0
  5  4  2  0
  5  6  1  0
  6  7  1  0
  8  7  2  0
  9  2  1  0
  9 10  2  0
 11 12  1  0
 12 14  1  0
 13 12  2  0
 15 14  1  6
 15 16  1  0
 16  9  1  0
 17 15  1  0
 18 17  2  0
 19 17  1  0
 20 19  1  0
 20 31  1  0
 20 21  1  1
 22 21  1  0
 23 22  2  0
 24 25  1  0
 24 23  1  0
 25 30  2  0
 26 25  1  0
 26 27  2  0
 27 28  1  0
 28 29  2  0
 30 22  1  0
 30 29  1  0
 31 33  1  0
 32 31  2  0
M  END
$$$$
