HNW.pdb
     RDKit          3D

 33 35  0  0  1  0  0  0  0  0999 V2000
   14.5237  -19.6346    1.9031 N   0  0  0  0  0  0  0  0  0  0  0  0
   15.3717  -19.8756    3.0529 C   0  0  1  0  0  0  0  0  0  0  0  0
   16.7350  -20.3124    2.5171 C   0  0  0  0  0  0  0  0  0  0  0  0
   16.5347  -21.5980    1.8058 C   0  0  0  0  0  0  0  0  0  0  0  0
   16.3524  -21.7446    0.4474 C   0  0  0  0  0  0  0  0  0  0  0  0
   16.2061  -23.0600    0.2010 N   0  0  0  0  0  0  0  0  0  0  0  0
   16.2896  -23.7390    1.3485 C   0  0  0  0  0  0  0  0  0  0  0  0
   16.4897  -22.8427    2.3210 N   0  0  0  0  0  0  0  0  0  0  0  0
   15.4611  -18.7417    3.9701 C   0  0  0  0  0  0  0  0  0  0  0  0
   15.5488  -17.5772    3.5172 O   0  0  0  0  0  0  0  0  0  0  0  0
   12.2092  -19.2039    7.3234 N   0  0  0  0  0  0  0  0  0  0  0  0
   13.0614  -18.1074    7.0280 C   0  0  0  0  0  0  0  0  0  0  0  0
   12.6039  -17.1518    6.3728 O   0  0  0  0  0  0  0  0  0  0  0  0
   14.4658  -18.0975    7.4885 C   0  0  0  0  0  0  0  0  0  0  0  0
   15.4200  -17.8939    6.3576 C   0  0  2  0  0  0  0  0  0  0  0  0
   15.4503  -18.9364    5.3804 N   0  0  0  0  0  0  0  0  0  0  0  0
   16.7785  -17.5501    6.8632 C   0  0  0  0  0  0  0  0  0  0  0  0
   17.6684  -18.4404    6.7482 O   0  0  0  0  0  0  0  0  0  0  0  0
   17.0222  -16.2831    7.4372 N   0  0  0  0  0  0  0  0  0  0  0  0
   18.3430  -15.9360    7.9246 C   0  0  1  0  0  0  0  0  0  0  0  0
   19.3594  -15.9496    6.8059 C   0  0  0  0  0  0  0  0  0  0  0  0
   19.2574  -14.6689    6.0742 C   0  0  0  0  0  0  0  0  0  0  0  0
   19.6528  -13.4345    6.5453 C   0  0  0  0  0  0  0  0  0  0  0  0
   19.3973  -12.5118    5.5809 N   0  0  0  0  0  0  0  0  0  0  0  0
   18.8522  -13.1007    4.5054 C   0  0  0  0  0  0  0  0  0  0  0  0
   18.4061  -12.6696    3.2797 C   0  0  0  0  0  0  0  0  0  0  0  0
   17.8830  -13.5359    2.3682 C   0  0  0  0  0  0  0  0  0  0  0  0
   17.7965  -14.8657    2.6724 C   0  0  0  0  0  0  0  0  0  0  0  0
   18.2296  -15.3394    3.8829 C   0  0  0  0  0  0  0  0  0  0  0  0
   18.7638  -14.4420    4.8087 C   0  0  0  0  0  0  0  0  0  0  0  0
   18.3089  -14.6202    8.6401 C   0  0  0  0  0  0  0  0  0  0  0  0
   17.2909  -13.8712    8.5353 O   0  0  0  0  0  0  0  0  0  0  0  0
   19.3379  -14.1486    9.4308 O   0  0  0  0  0  0  0  0  0  0  0  0
  2  1  1  6
  2  3  1  0
  3  4  1  0
  4  8  1  0
  5  4  2  0
  5  6  1  0
  6  7  1  0
  8  7  2  0
  9  2  1  0
  9 10  2  0
 11 12  1  0
 12 14  1  0
 13 12  2  0
 15 14  1  1
 15 16  1  0
 16  9  1  0
 17 15  1  0
 18 17  2  0
 19 17  1  0
 20 19  1  0
 20 31  1  0
 20 21  1  6
 22 21  1  0
 23 22  2  0
 24 25  1  0
 24 23  1  0
 25 30  2  0
 26 25  1  0
 26 27  2  0
 27 28  1  0
 28 29  2  0
 30 22  1  0
 30 29  1  0
 31 33  1  0
 32 31  2  0
M  END
$$$$
