SCA.pdb
     RDKit          3D

 18 17  0  0  1  0  0  0  0  0999 V2000
   17.3133  -10.4569  -17.5859 O   0  0  0  0  0  0  0  0  0  0  0  0
   17.4869   -9.6189  -16.4787 C   0  0  0  0  0  0  0  0  0  0  0  0
   18.8714   -9.7900  -15.8899 C   0  0  2  0  0  0  0  0  0  0  0  0
   18.9314  -11.0664  -15.2477 N   0  0  0  0  0  0  0  0  0  0  0  0
   19.2783   -8.6565  -15.0566 C   0  0  0  0  0  0  0  0  0  0  0  0
   18.7046   -8.4303  -13.9856 O   0  0  0  0  0  0  0  0  0  0  0  0
   20.3515   -7.7786  -15.4585 N   0  0  0  0  0  0  0  0  0  0  0  0
   20.6643   -6.5848  -14.7049 C   0  0  1  0  0  0  0  0  0  0  0  0
   22.0401   -6.6674  -14.0744 C   0  0  0  0  0  0  0  0  0  0  0  0
   22.4475   -5.0929  -13.2317 S   0  0  0  0  0  0  0  0  0  0  0  0
   20.4907   -5.3564  -15.5061 C   0  0  0  0  0  0  0  0  0  0  0  0
   21.1487   -5.1698  -16.5638 O   0  0  0  0  0  0  0  0  0  0  0  0
   18.1963   -2.3740  -15.6221 C   0  0  0  0  0  0  0  0  0  0  0  0
   19.5088   -3.0709  -15.8527 C   0  0  2  0  0  0  0  0  0  0  0  0
   19.5787   -4.3396  -15.1188 N   0  0  0  0  0  0  0  0  0  0  0  0
   20.6336   -2.1888  -15.4567 C   0  0  0  0  0  0  0  0  0  0  0  0
   21.0927   -2.2236  -14.2980 O   0  0  0  0  0  0  0  0  0  0  0  0
   21.1963   -1.3024  -16.3840 O   0  0  0  0  0  0  0  0  0  0  0  0
  2  1  1  0
  3  5  1  0
  3  2  1  0
  3  4  1  1
  5  6  2  0
  7  8  1  0
  7  5  1  0
  8  9  1  6
 10  9  1  0
 11 15  1  0
 11  8  1  0
 12 11  2  0
 14 13  1  1
 14 15  1  0
 16 14  1  0
 16 18  1  0
 17 16  2  0
M  END
$$$$
