SCA.pdb
     RDKit          3D

 18 17  0  0  1  0  0  0  0  0999 V2000
   16.8357  -11.6557  -17.9493 O   0  0  0  0  0  0  0  0  0  0  0  0
   16.9619  -10.7070  -16.9284 C   0  0  0  0  0  0  0  0  0  0  0  0
   18.2963  -10.8500  -16.2271 C   0  0  2  0  0  0  0  0  0  0  0  0
   18.2955  -12.0866  -15.5086 N   0  0  0  0  0  0  0  0  0  0  0  0
   18.6496   -9.6714  -15.4328 C   0  0  0  0  0  0  0  0  0  0  0  0
   18.0858   -9.4518  -14.3551 O   0  0  0  0  0  0  0  0  0  0  0  0
   19.6574   -8.7404  -15.8817 N   0  0  0  0  0  0  0  0  0  0  0  0
   20.0168   -7.5860  -15.0886 C   0  0  1  0  0  0  0  0  0  0  0  0
   21.5071   -7.5376  -14.8168 C   0  0  0  0  0  0  0  0  0  0  0  0
   21.9649   -8.7939  -13.5648 S   0  0  0  0  0  0  0  0  0  0  0  0
   19.5157   -6.3267  -15.6752 C   0  0  0  0  0  0  0  0  0  0  0  0
   19.8920   -5.9433  -16.8144 O   0  0  0  0  0  0  0  0  0  0  0  0
   16.6857   -3.9632  -15.1538 C   0  0  0  0  0  0  0  0  0  0  0  0
   18.0969   -4.2563  -15.5826 C   0  0  2  0  0  0  0  0  0  0  0  0
   18.5928   -5.4998  -14.9820 N   0  0  0  0  0  0  0  0  0  0  0  0
   18.9866   -3.1251  -15.2235 C   0  0  0  0  0  0  0  0  0  0  0  0
   19.8645   -3.2584  -14.3481 O   0  0  0  0  0  0  0  0  0  0  0  0
   18.8510   -1.8881  -15.8666 O   0  0  0  0  0  0  0  0  0  0  0  0
  2  1  1  0
  3  5  1  0
  3  2  1  0
  3  4  1  1
  5  6  2  0
  7  8  1  0
  7  5  1  0
  8  9  1  6
 10  9  1  0
 11 15  1  0
 11  8  1  0
 12 11  2  0
 14 13  1  1
 14 15  1  0
 16 14  1  0
 16 18  1  0
 17 16  2  0
M  END
$$$$
