SCA.pdb
     RDKit          3D

 18 17  0  0  1  0  0  0  0  0999 V2000
   14.6817  -10.5030  -15.5599 O   0  0  0  0  0  0  0  0  0  0  0  0
   15.9236  -10.1057  -15.0519 C   0  0  0  0  0  0  0  0  0  0  0  0
   17.0303  -10.9835  -15.5973 C   0  0  2  0  0  0  0  0  0  0  0  0
   16.8839  -12.2908  -15.0363 N   0  0  0  0  0  0  0  0  0  0  0  0
   18.3583  -10.3863  -15.4403 C   0  0  0  0  0  0  0  0  0  0  0  0
   19.1159  -10.7735  -14.5439 O   0  0  0  0  0  0  0  0  0  0  0  0
   18.8166   -9.3374  -16.3200 N   0  0  0  0  0  0  0  0  0  0  0  0
   20.1304   -8.7532  -16.1677 C   0  0  1  0  0  0  0  0  0  0  0  0
   20.8385   -8.6166  -17.5008 C   0  0  0  0  0  0  0  0  0  0  0  0
   22.5334   -7.9668  -17.2555 S   0  0  0  0  0  0  0  0  0  0  0  0
   20.0925   -7.4783  -15.4232 C   0  0  0  0  0  0  0  0  0  0  0  0
   19.1843   -6.6301  -15.6291 O   0  0  0  0  0  0  0  0  0  0  0  0
   21.8919   -5.9575  -12.4691 C   0  0  0  0  0  0  0  0  0  0  0  0
   20.9821   -5.9199  -13.6659 C   0  0  2  0  0  0  0  0  0  0  0  0
   21.0739   -7.1576  -14.4486 N   0  0  0  0  0  0  0  0  0  0  0  0
   21.3062   -4.7506  -14.5190 C   0  0  0  0  0  0  0  0  0  0  0  0
   21.9207   -4.8973  -15.5939 O   0  0  0  0  0  0  0  0  0  0  0  0
   20.9236   -3.4617  -14.1257 O   0  0  0  0  0  0  0  0  0  0  0  0
  2  1  1  0
  3  5  1  0
  3  2  1  0
  3  4  1  1
  5  6  2  0
  7  8  1  0
  7  5  1  0
  8  9  1  6
 10  9  1  0
 11 15  1  0
 11  8  1  0
 12 11  2  0
 14 13  1  1
 14 15  1  0
 16 14  1  0
 16 18  1  0
 17 16  2  0
M  END
$$$$
