SCA.pdb
     RDKit          3D

 18 17  0  0  1  0  0  0  0  0999 V2000
   17.8096   -8.8108  -21.3836 O   0  0  0  0  0  0  0  0  0  0  0  0
   17.9801   -8.6448  -20.0047 C   0  0  0  0  0  0  0  0  0  0  0  0
   18.6867   -9.8421  -19.4048 C   0  0  2  0  0  0  0  0  0  0  0  0
   17.8277  -10.9788  -19.5290 N   0  0  0  0  0  0  0  0  0  0  0  0
   19.1869   -9.5875  -18.0521 C   0  0  0  0  0  0  0  0  0  0  0  0
   18.4115   -9.5806  -17.0898 O   0  0  0  0  0  0  0  0  0  0  0  0
   20.5876   -9.3394  -17.8059 N   0  0  0  0  0  0  0  0  0  0  0  0
   21.0807   -9.0930  -16.4692 C   0  0  1  0  0  0  0  0  0  0  0  0
   22.2447  -10.0016  -16.1274 C   0  0  0  0  0  0  0  0  0  0  0  0
   22.9619   -9.5324  -14.5086 S   0  0  0  0  0  0  0  0  0  0  0  0
   21.4003   -7.6687  -16.2449 C   0  0  0  0  0  0  0  0  0  0  0  0
   22.2457   -7.0699  -16.9612 O   0  0  0  0  0  0  0  0  0  0  0  0
   19.8292   -4.7153  -14.6817 C   0  0  0  0  0  0  0  0  0  0  0  0
   21.0667   -5.4935  -15.0345 C   0  0  2  0  0  0  0  0  0  0  0  0
   20.7702   -6.9189  -15.2170 N   0  0  0  0  0  0  0  0  0  0  0  0
   22.0994   -5.3168  -13.9846 C   0  0  0  0  0  0  0  0  0  0  0  0
   22.1815   -6.1159  -13.0311 O   0  0  0  0  0  0  0  0  0  0  0  0
   22.9993   -4.2453  -14.0523 O   0  0  0  0  0  0  0  0  0  0  0  0
  2  1  1  0
  3  5  1  0
  3  2  1  0
  3  4  1  1
  5  6  2  0
  7  8  1  0
  7  5  1  0
  8  9  1  6
 10  9  1  0
 11 15  1  0
 11  8  1  0
 12 11  2  0
 14 13  1  1
 14 15  1  0
 16 14  1  0
 16 18  1  0
 17 16  2  0
M  END
$$$$
