SCA.pdb
     RDKit          3D

 18 17  0  0  1  0  0  0  0  0999 V2000
   20.4300   -9.3539  -16.0800 O   0  0  0  0  0  0  0  0  0  0  0  0
   19.2732   -8.9213  -15.4222 C   0  0  0  0  0  0  0  0  0  0  0  0
   18.3713  -10.0939  -15.0990 C   0  0  2  0  0  0  0  0  0  0  0  0
   17.9106  -10.6583  -16.3296 N   0  0  0  0  0  0  0  0  0  0  0  0
   17.3180   -9.7529  -14.1403 C   0  0  0  0  0  0  0  0  0  0  0  0
   16.2216   -9.3421  -14.5359 O   0  0  0  0  0  0  0  0  0  0  0  0
   17.5282   -9.8855  -12.7182 N   0  0  0  0  0  0  0  0  0  0  0  0
   16.5148   -9.4785  -11.7704 C   0  0  1  0  0  0  0  0  0  0  0  0
   16.2938  -10.5316  -10.7031 C   0  0  0  0  0  0  0  0  0  0  0  0
   15.0146   -9.9740   -9.5166 S   0  0  0  0  0  0  0  0  0  0  0  0
   16.7922   -8.1481  -11.1923 C   0  0  0  0  0  0  0  0  0  0  0  0
   17.9106   -7.8813  -10.6780 O   0  0  0  0  0  0  0  0  0  0  0  0
   14.9141   -4.8895  -10.6963 C   0  0  0  0  0  0  0  0  0  0  0  0
   16.0620   -5.8433  -10.5120 C   0  0  2  0  0  0  0  0  0  0  0  0
   15.8137   -7.1194  -11.1925 N   0  0  0  0  0  0  0  0  0  0  0  0
   16.3094   -6.0740   -9.0679 C   0  0  0  0  0  0  0  0  0  0  0  0
   16.7769   -5.1687   -8.3493 O   0  0  0  0  0  0  0  0  0  0  0  0
   16.0191   -7.3173   -8.4914 O   0  0  0  0  0  0  0  0  0  0  0  0
  2  1  1  0
  3  5  1  0
  3  2  1  0
  3  4  1  6
  5  6  2  0
  7  8  1  0
  7  5  1  0
  8  9  1  1
 10  9  1  0
 11 15  1  0
 11  8  1  0
 12 11  2  0
 14 13  1  1
 14 15  1  0
 16 14  1  0
 16 18  1  0
 17 16  2  0
M  END
$$$$
