SCA.pdb
     RDKit          3D

 18 17  0  0  1  0  0  0  0  0999 V2000
   21.8300  -24.0724  -14.0647 O   0  0  0  0  0  0  0  0  0  0  0  0
   22.7461  -23.0287  -14.2368 C   0  0  0  0  0  0  0  0  0  0  0  0
   22.3999  -21.8593  -13.3394 C   0  0  2  0  0  0  0  0  0  0  0  0
   21.2707  -21.1832  -13.8989 N   0  0  0  0  0  0  0  0  0  0  0  0
   23.5534  -21.0049  -13.0493 C   0  0  0  0  0  0  0  0  0  0  0  0
   23.6529  -19.8899  -13.5728 O   0  0  0  0  0  0  0  0  0  0  0  0
   24.5983  -21.4367  -12.1517 N   0  0  0  0  0  0  0  0  0  0  0  0
   25.7688  -20.6207  -11.9175 C   0  0  1  0  0  0  0  0  0  0  0  0
   26.4072  -20.9318  -10.5785 C   0  0  0  0  0  0  0  0  0  0  0  0
   25.2259  -20.5971   -9.2193 S   0  0  0  0  0  0  0  0  0  0  0  0
   26.7376  -20.7007  -13.0293 C   0  0  0  0  0  0  0  0  0  0  0  0
   27.4849  -21.7046  -13.1717 O   0  0  0  0  0  0  0  0  0  0  0  0
   27.4052  -21.0067  -15.9560 C   0  0  0  0  0  0  0  0  0  0  0  0
   27.7541  -19.7933  -15.1392 C   0  0  2  0  0  0  0  0  0  0  0  0
   26.8659  -19.6536  -13.9796 N   0  0  0  0  0  0  0  0  0  0  0  0
   27.6909  -18.5737  -15.9810 C   0  0  0  0  0  0  0  0  0  0  0  0
   26.7730  -17.7433  -15.8312 O   0  0  0  0  0  0  0  0  0  0  0  0
   28.6663  -18.3390  -16.9587 O   0  0  0  0  0  0  0  0  0  0  0  0
  2  1  1  0
  3  5  1  0
  3  2  1  0
  3  4  1  6
  5  6  2  0
  7  8  1  0
  7  5  1  0
  8  9  1  1
 10  9  1  0
 11 15  1  0
 11  8  1  0
 12 11  2  0
 14 13  1  6
 14 15  1  0
 16 14  1  0
 16 18  1  0
 17 16  2  0
M  END
$$$$
