SCA.pdb
     RDKit          3D

 18 17  0  0  1  0  0  0  0  0999 V2000
   16.3011  -12.7827  -17.0037 O   0  0  0  0  0  0  0  0  0  0  0  0
   17.2357  -12.2579  -16.1041 C   0  0  0  0  0  0  0  0  0  0  0  0
   17.6627  -10.8679  -16.5263 C   0  0  2  0  0  0  0  0  0  0  0  0
   18.0839  -10.9231  -17.8919 N   0  0  0  0  0  0  0  0  0  0  0  0
   18.6272  -10.2653  -15.6036 C   0  0  0  0  0  0  0  0  0  0  0  0
   18.3700  -10.1804  -14.3978 O   0  0  0  0  0  0  0  0  0  0  0  0
   19.8949   -9.7573  -16.0718 N   0  0  0  0  0  0  0  0  0  0  0  0
   20.8269   -9.1217  -15.1673 C   0  0  1  0  0  0  0  0  0  0  0  0
   22.2061   -9.7435  -15.2595 C   0  0  0  0  0  0  0  0  0  0  0  0
   23.3764   -8.8566  -14.1646 S   0  0  0  0  0  0  0  0  0  0  0  0
   20.8633   -7.6556  -15.3413 C   0  0  0  0  0  0  0  0  0  0  0  0
   21.2099   -7.1376  -16.4359 O   0  0  0  0  0  0  0  0  0  0  0  0
   19.4994   -4.5706  -13.8943 C   0  0  0  0  0  0  0  0  0  0  0  0
   20.6877   -5.3234  -14.4258 C   0  0  2  0  0  0  0  0  0  0  0  0
   20.5104   -6.7733  -14.2864 N   0  0  0  0  0  0  0  0  0  0  0  0
   21.9226   -4.8903  -13.7275 C   0  0  0  0  0  0  0  0  0  0  0  0
   22.3963   -3.7528  -13.9181 O   0  0  0  0  0  0  0  0  0  0  0  0
   22.5740   -5.7577  -12.8411 O   0  0  0  0  0  0  0  0  0  0  0  0
  2  1  1  0
  3  5  1  0
  3  2  1  0
  3  4  1  6
  5  6  2  0
  7  8  1  0
  7  5  1  0
  8  9  1  6
 10  9  1  0
 11 15  1  0
 11  8  1  0
 12 11  2  0
 14 13  1  1
 14 15  1  0
 16 14  1  0
 16 18  1  0
 17 16  2  0
M  END
$$$$
