SCA.pdb
     RDKit          3D

 18 17  0  0  1  0  0  0  0  0999 V2000
   17.9779   -9.7855  -18.9587 O   0  0  0  0  0  0  0  0  0  0  0  0
   17.9711   -8.7695  -17.9965 C   0  0  0  0  0  0  0  0  0  0  0  0
   18.6739   -9.2230  -16.7343 C   0  0  2  0  0  0  0  0  0  0  0  0
   17.8782  -10.2391  -16.1181 N   0  0  0  0  0  0  0  0  0  0  0  0
   19.0443   -8.1090  -15.8589 C   0  0  0  0  0  0  0  0  0  0  0  0
   18.2251   -7.6431  -15.0593 O   0  0  0  0  0  0  0  0  0  0  0  0
   20.3650   -7.5279  -15.9042 N   0  0  0  0  0  0  0  0  0  0  0  0
   20.7236   -6.4163  -15.0518 C   0  0  1  0  0  0  0  0  0  0  0  0
   22.0921   -6.6091  -14.4295 C   0  0  0  0  0  0  0  0  0  0  0  0
   22.5317   -5.1584  -13.4012 S   0  0  0  0  0  0  0  0  0  0  0  0
   20.6045   -5.1182  -15.7460 C   0  0  0  0  0  0  0  0  0  0  0  0
   21.2077   -4.9013  -16.8302 O   0  0  0  0  0  0  0  0  0  0  0  0
   18.3988   -2.0937  -15.6115 C   0  0  0  0  0  0  0  0  0  0  0  0
   19.6981   -2.7828  -15.9253 C   0  0  2  0  0  0  0  0  0  0  0  0
   19.8082   -4.0660  -15.2222 N   0  0  0  0  0  0  0  0  0  0  0  0
   20.8412   -1.9065  -15.5712 C   0  0  0  0  0  0  0  0  0  0  0  0
   21.5125   -2.1198  -14.5424 O   0  0  0  0  0  0  0  0  0  0  0  0
   21.1821   -0.8239  -16.3924 O   0  0  0  0  0  0  0  0  0  0  0  0
  2  1  1  0
  3  5  1  0
  3  2  1  0
  3  4  1  1
  5  6  2  0
  7  8  1  0
  7  5  1  0
  8  9  1  6
 10  9  1  0
 11 15  1  0
 11  8  1  0
 12 11  2  0
 14 13  1  1
 14 15  1  0
 16 14  1  0
 16 18  1  0
 17 16  2  0
M  END
$$$$
