VVE.pdb
     RDKit          3D

 24 23  0  0  1  0  0  0  0  0999 V2000
   28.3773  -17.6560  -16.6414 C   0  0  0  0  0  0  0  0  0  0  0  0
   27.2581  -18.4435  -15.9865 C   0  0  1  0  0  0  0  0  0  0  0  0
   26.1417  -18.6130  -16.9655 C   0  0  0  0  0  0  0  0  0  0  0  0
   27.7678  -19.7649  -15.4353 C   0  0  2  0  0  0  0  0  0  0  0  0
   28.3628  -20.5159  -16.4961 N   0  0  0  0  0  0  0  0  0  0  0  0
   26.7415  -20.4892  -14.6807 C   0  0  0  0  0  0  0  0  0  0  0  0
   25.9241  -21.2036  -15.3154 O   0  0  0  0  0  0  0  0  0  0  0  0
   24.6443  -21.5590  -10.2812 C   0  0  0  0  0  0  0  0  0  0  0  0
   25.7957  -20.9551  -11.0168 C   0  0  2  0  0  0  0  0  0  0  0  0
   26.0176  -19.5103  -10.6094 C   0  0  0  0  0  0  0  0  0  0  0  0
   25.5580  -21.0504  -12.5277 C   0  0  2  0  0  0  0  0  0  0  0  0
   26.6161  -20.4307  -13.2657 N   0  0  0  0  0  0  0  0  0  0  0  0
   24.2612  -20.3396  -12.8032 C   0  0  0  0  0  0  0  0  0  0  0  0
   24.1921  -19.0909  -12.8432 O   0  0  0  0  0  0  0  0  0  0  0  0
   23.0587  -21.0576  -13.0298 N   0  0  0  0  0  0  0  0  0  0  0  0
   21.8176  -20.3536  -13.3214 C   0  0  1  0  0  0  0  0  0  0  0  0
   21.7595  -20.1864  -14.7997 C   0  0  0  0  0  0  0  0  0  0  0  0
   20.5594  -19.5064  -15.3479 C   0  0  0  0  0  0  0  0  0  0  0  0
   20.4570  -19.4755  -16.8129 C   0  0  0  0  0  0  0  0  0  0  0  0
   19.3951  -19.7484  -17.3858 O   0  0  0  0  0  0  0  0  0  0  0  0
   20.6460  -21.0739  -12.7659 C   0  0  0  0  0  0  0  0  0  0  0  0
   20.5855  -22.3244  -12.6432 O   0  0  0  0  0  0  0  0  0  0  0  0
   21.5792  -19.1319  -17.5651 O   0  0  0  0  0  0  0  0  0  0  0  0
   19.5403  -20.3460  -12.3507 O   0  0  0  0  0  0  0  0  0  0  0  0
  2  1  1  6
  3  2  1  0
  4  2  1  0
  4  6  1  0
  4  5  1  6
  6  7  2  0
  9  8  1  1
  9 10  1  0
  9 11  1  0
 11 13  1  0
 11 12  1  6
 12  6  1  0
 13 14  2  0
 15 13  1  0
 15 16  1  0
 16 21  1  0
 16 17  1  6
 18 17  1  0
 19 18  1  0
 20 19  2  0
 21 22  2  0
 21 24  1  0
 23 19  1  0
M  END
$$$$
