VVE.pdb
     RDKit          3D

 24 23  0  0  1  0  0  0  0  0999 V2000
   28.0142  -30.3864  -18.9883 C   0  0  0  0  0  0  0  0  0  0  0  0
   27.8098  -29.1343  -18.1563 C   0  0  1  0  0  0  0  0  0  0  0  0
   26.7763  -29.4051  -17.1112 C   0  0  0  0  0  0  0  0  0  0  0  0
   29.1249  -28.6422  -17.5748 C   0  0  2  0  0  0  0  0  0  0  0  0
   29.7616  -29.7181  -16.8818 N   0  0  0  0  0  0  0  0  0  0  0  0
   28.9634  -27.4208  -16.7815 C   0  0  0  0  0  0  0  0  0  0  0  0
   29.5021  -27.3685  -15.6464 O   0  0  0  0  0  0  0  0  0  0  0  0
   29.8559  -24.0480  -18.1960 C   0  0  0  0  0  0  0  0  0  0  0  0
   29.6056  -24.3150  -16.7476 C   0  0  2  0  0  0  0  0  0  0  0  0
   30.7132  -25.1550  -16.1392 C   0  0  0  0  0  0  0  0  0  0  0  0
   28.2524  -25.0122  -16.5714 C   0  0  2  0  0  0  0  0  0  0  0  0
   28.2293  -26.2861  -17.2231 N   0  0  0  0  0  0  0  0  0  0  0  0
   27.2204  -24.1070  -17.1867 C   0  0  0  0  0  0  0  0  0  0  0  0
   26.9860  -24.1180  -18.4157 O   0  0  0  0  0  0  0  0  0  0  0  0
   26.4677  -23.2002  -16.3966 N   0  0  0  0  0  0  0  0  0  0  0  0
   25.4276  -22.3778  -16.9989 C   0  0  1  0  0  0  0  0  0  0  0  0
   24.4900  -22.0066  -15.9035 C   0  0  0  0  0  0  0  0  0  0  0  0
   23.0402  -22.0733  -16.2146 C   0  0  0  0  0  0  0  0  0  0  0  0
   22.1394  -21.5719  -15.1683 C   0  0  0  0  0  0  0  0  0  0  0  0
   22.5834  -21.0639  -14.1314 O   0  0  0  0  0  0  0  0  0  0  0  0
   26.0057  -21.2048  -17.6989 C   0  0  0  0  0  0  0  0  0  0  0  0
   27.0981  -20.6675  -17.3819 O   0  0  0  0  0  0  0  0  0  0  0  0
   20.7614  -21.6730  -15.3528 O   0  0  0  0  0  0  0  0  0  0  0  0
   25.3186  -20.6510  -18.7694 O   0  0  0  0  0  0  0  0  0  0  0  0
  2  1  1  1
  3  2  1  0
  4  2  1  0
  4  6  1  0
  4  5  1  1
  6  7  2  0
  9  8  1  6
  9 10  1  0
  9 11  1  0
 11 13  1  0
 11 12  1  6
 12  6  1  0
 13 14  2  0
 15 13  1  0
 15 16  1  0
 16 21  1  0
 16 17  1  1
 18 17  1  0
 19 18  1  0
 20 19  2  0
 21 22  2  0
 21 24  1  0
 23 19  1  0
M  END
$$$$
