VVE.pdb
     RDKit          3D

 24 23  0  0  1  0  0  0  0  0999 V2000
   18.6727  -14.1791  -17.9419 C   0  0  0  0  0  0  0  0  0  0  0  0
   19.5308  -13.4813  -16.9036 C   0  0  1  0  0  0  0  0  0  0  0  0
   20.7295  -14.3251  -16.6126 C   0  0  0  0  0  0  0  0  0  0  0  0
   19.8917  -12.0734  -17.3477 C   0  0  2  0  0  0  0  0  0  0  0  0
   20.3949  -12.1192  -18.6849 N   0  0  0  0  0  0  0  0  0  0  0  0
   20.7702  -11.3933  -16.3920 C   0  0  0  0  0  0  0  0  0  0  0  0
   20.3245  -11.1417  -15.2433 O   0  0  0  0  0  0  0  0  0  0  0  0
   25.2356   -9.5709  -15.2009 C   0  0  0  0  0  0  0  0  0  0  0  0
   24.4143  -10.4426  -16.0939 C   0  0  2  0  0  0  0  0  0  0  0  0
   24.7204  -10.1823  -17.5571 C   0  0  0  0  0  0  0  0  0  0  0  0
   22.9240  -10.2190  -15.8152 C   0  0  2  0  0  0  0  0  0  0  0  0
   22.1035  -10.9997  -16.6900 N   0  0  0  0  0  0  0  0  0  0  0  0
   22.6605   -8.7554  -16.0416 C   0  0  0  0  0  0  0  0  0  0  0  0
   22.3284   -8.3136  -17.1642 O   0  0  0  0  0  0  0  0  0  0  0  0
   22.7779   -7.8120  -14.9884 N   0  0  0  0  0  0  0  0  0  0  0  0
   22.3012   -6.4464  -15.1588 C   0  0  1  0  0  0  0  0  0  0  0  0
   20.8562   -6.5394  -15.5050 C   0  0  0  0  0  0  0  0  0  0  0  0
   20.1165   -5.2588  -15.6323 C   0  0  0  0  0  0  0  0  0  0  0  0
   18.7064   -5.3730  -16.0271 C   0  0  0  0  0  0  0  0  0  0  0  0
   18.2410   -4.6849  -16.9439 O   0  0  0  0  0  0  0  0  0  0  0  0
   22.5633   -5.6292  -13.9491 C   0  0  0  0  0  0  0  0  0  0  0  0
   22.5959   -6.0958  -12.7813 O   0  0  0  0  0  0  0  0  0  0  0  0
   17.8832   -6.2739  -15.3534 O   0  0  0  0  0  0  0  0  0  0  0  0
   22.7888   -4.2675  -14.0897 O   0  0  0  0  0  0  0  0  0  0  0  0
  2  1  1  6
  3  2  1  0
  4  2  1  0
  4  6  1  0
  4  5  1  6
  6  7  2  0
  9  8  1  1
  9 10  1  0
  9 11  1  0
 11 13  1  0
 11 12  1  6
 12  6  1  0
 13 14  2  0
 15 13  1  0
 15 16  1  0
 16 21  1  0
 16 17  1  1
 18 17  1  0
 19 18  1  0
 20 19  2  0
 21 22  2  0
 21 24  1  0
 23 19  1  0
M  END
$$$$
