VVE.pdb
     RDKit          3D

 24 23  0  0  1  0  0  0  0  0999 V2000
   10.9201  -20.6099    0.1514 C   0  0  0  0  0  0  0  0  0  0  0  0
   12.0597  -20.6571    1.1518 C   0  0  1  0  0  0  0  0  0  0  0  0
   11.9787  -21.9332    1.9254 C   0  0  0  0  0  0  0  0  0  0  0  0
   13.4011  -20.4665    0.4633 C   0  0  2  0  0  0  0  0  0  0  0  0
   13.5037  -21.3880   -0.6246 N   0  0  0  0  0  0  0  0  0  0  0  0
   14.5239  -20.5110    1.4039 C   0  0  0  0  0  0  0  0  0  0  0  0
   15.2247  -21.5541    1.4508 O   0  0  0  0  0  0  0  0  0  0  0  0
   16.1389  -16.9786    2.8074 C   0  0  0  0  0  0  0  0  0  0  0  0
   16.9344  -18.2429    2.8259 C   0  0  2  0  0  0  0  0  0  0  0  0
   17.6641  -18.4581    1.5130 C   0  0  0  0  0  0  0  0  0  0  0  0
   16.0166  -19.4331    3.1247 C   0  0  2  0  0  0  0  0  0  0  0  0
   14.8683  -19.4379    2.2707 N   0  0  0  0  0  0  0  0  0  0  0  0
   15.5840  -19.2915    4.5585 C   0  0  0  0  0  0  0  0  0  0  0  0
   14.5058  -18.7369    4.8676 O   0  0  0  0  0  0  0  0  0  0  0  0
   16.3829  -19.7823    5.6232 N   0  0  0  0  0  0  0  0  0  0  0  0
   15.9624  -19.6103    7.0069 C   0  0  1  0  0  0  0  0  0  0  0  0
   16.5006  -20.7739    7.7638 C   0  0  0  0  0  0  0  0  0  0  0  0
   16.1395  -20.8601    9.2009 C   0  0  0  0  0  0  0  0  0  0  0  0
   16.7449  -21.9724    9.9453 C   0  0  0  0  0  0  0  0  0  0  0  0
   17.4919  -22.7847    9.3863 O   0  0  0  0  0  0  0  0  0  0  0  0
   16.4076  -18.3025    7.5469 C   0  0  0  0  0  0  0  0  0  0  0  0
   17.4154  -17.6772    7.1274 O   0  0  0  0  0  0  0  0  0  0  0  0
   16.4690  -22.1097   11.3048 O   0  0  0  0  0  0  0  0  0  0  0  0
   15.6852  -17.7152    8.5755 O   0  0  0  0  0  0  0  0  0  0  0  0
  2  1  1  6
  3  2  1  0
  4  2  1  0
  4  6  1  0
  4  5  1  6
  6  7  2  0
  9  8  1  6
  9 10  1  0
  9 11  1  0
 11 13  1  0
 11 12  1  6
 12  6  1  0
 13 14  2  0
 15 13  1  0
 15 16  1  0
 16 21  1  0
 16 17  1  1
 18 17  1  0
 19 18  1  0
 20 19  2  0
 21 22  2  0
 21 24  1  0
 23 19  1  0
M  END
$$$$
