VVE.pdb
     RDKit          3D

 24 23  0  0  1  0  0  0  0  0999 V2000
   17.8411   -9.2143  -17.6686 C   0  0  0  0  0  0  0  0  0  0  0  0
   17.4865  -10.6551  -17.3521 C   0  0  1  0  0  0  0  0  0  0  0  0
   16.7980  -11.2599  -18.5327 C   0  0  0  0  0  0  0  0  0  0  0  0
   18.7141  -11.4385  -16.9174 C   0  0  2  0  0  0  0  0  0  0  0  0
   18.3335  -12.7878  -16.6387 N   0  0  0  0  0  0  0  0  0  0  0  0
   19.4439  -10.7776  -15.8320 C   0  0  0  0  0  0  0  0  0  0  0  0
   18.8859  -10.6772  -14.7095 O   0  0  0  0  0  0  0  0  0  0  0  0
   23.6632   -9.6145  -16.0261 C   0  0  0  0  0  0  0  0  0  0  0  0
   22.8831   -9.9557  -14.7985 C   0  0  2  0  0  0  0  0  0  0  0  0
   22.9345  -11.4435  -14.5047 C   0  0  0  0  0  0  0  0  0  0  0  0
   21.4301   -9.4958  -14.9585 C   0  0  2  0  0  0  0  0  0  0  0  0
   20.7526  -10.2408  -15.9754 N   0  0  0  0  0  0  0  0  0  0  0  0
   21.4803   -8.0418  -15.3408 C   0  0  0  0  0  0  0  0  0  0  0  0
   21.7807   -7.6772  -16.4995 O   0  0  0  0  0  0  0  0  0  0  0  0
   21.1884   -7.0201  -14.4007 N   0  0  0  0  0  0  0  0  0  0  0  0
   21.3025   -5.6162  -14.7711 C   0  0  1  0  0  0  0  0  0  0  0  0
   19.9205   -5.0624  -14.7738 C   0  0  0  0  0  0  0  0  0  0  0  0
   19.7791   -3.6226  -15.1058 C   0  0  0  0  0  0  0  0  0  0  0  0
   18.4016   -3.1202  -15.1929 C   0  0  0  0  0  0  0  0  0  0  0  0
   17.8779   -2.8751  -16.2865 O   0  0  0  0  0  0  0  0  0  0  0  0
   22.2230   -4.8919  -13.8610 C   0  0  0  0  0  0  0  0  0  0  0  0
   22.4676   -5.2505  -12.6803 O   0  0  0  0  0  0  0  0  0  0  0  0
   17.6769   -2.9180  -14.0193 O   0  0  0  0  0  0  0  0  0  0  0  0
   22.8632   -3.7488  -14.3176 O   0  0  0  0  0  0  0  0  0  0  0  0
  2  1  1  6
  3  2  1  0
  4  2  1  0
  4  6  1  0
  4  5  1  1
  6  7  2  0
  9  8  1  6
  9 10  1  0
  9 11  1  0
 11 13  1  0
 11 12  1  6
 12  6  1  0
 13 14  2  0
 15 13  1  0
 15 16  1  0
 16 21  1  0
 16 17  1  1
 18 17  1  0
 19 18  1  0
 20 19  2  0
 21 22  2  0
 21 24  1  0
 23 19  1  0
M  END
$$$$
