VVE.pdb
     RDKit          3D

 24 23  0  0  1  0  0  0  0  0999 V2000
   18.5006   -8.9703  -18.5541 C   0  0  0  0  0  0  0  0  0  0  0  0
   17.6366  -10.1771  -18.2400 C   0  0  1  0  0  0  0  0  0  0  0  0
   16.8959  -10.5825  -19.4732 C   0  0  0  0  0  0  0  0  0  0  0  0
   18.4658  -11.3057  -17.6497 C   0  0  2  0  0  0  0  0  0  0  0  0
   17.6080  -12.4093  -17.3504 N   0  0  0  0  0  0  0  0  0  0  0  0
   19.2965  -10.8613  -16.5273 C   0  0  0  0  0  0  0  0  0  0  0  0
   18.7344  -10.5984  -15.4335 O   0  0  0  0  0  0  0  0  0  0  0  0
   23.7055  -10.3155  -14.3841 C   0  0  0  0  0  0  0  0  0  0  0  0
   22.8622  -10.9259  -15.4556 C   0  0  2  0  0  0  0  0  0  0  0  0
   23.5657  -10.8954  -16.7997 C   0  0  0  0  0  0  0  0  0  0  0  0
   21.5184  -10.1944  -15.5427 C   0  0  2  0  0  0  0  0  0  0  0  0
   20.7081  -10.7097  -16.6038 N   0  0  0  0  0  0  0  0  0  0  0  0
   21.8345   -8.7465  -15.8008 C   0  0  0  0  0  0  0  0  0  0  0  0
   22.1098   -8.3285  -16.9476 O   0  0  0  0  0  0  0  0  0  0  0  0
   21.8336   -7.7916  -14.7514 N   0  0  0  0  0  0  0  0  0  0  0  0
   22.0931   -6.3854  -15.0274 C   0  0  1  0  0  0  0  0  0  0  0  0
   21.0124   -5.9239  -15.9416 C   0  0  0  0  0  0  0  0  0  0  0  0
   20.2508   -4.7213  -15.5212 C   0  0  0  0  0  0  0  0  0  0  0  0
   18.9577   -4.5195  -16.1882 C   0  0  0  0  0  0  0  0  0  0  0  0
   18.8893   -3.9913  -17.3047 O   0  0  0  0  0  0  0  0  0  0  0  0
   22.1778   -5.5969  -13.7740 C   0  0  0  0  0  0  0  0  0  0  0  0
   21.8875   -6.0526  -12.6380 O   0  0  0  0  0  0  0  0  0  0  0  0
   17.7910   -4.9324  -15.5468 O   0  0  0  0  0  0  0  0  0  0  0  0
   22.5998   -4.2765  -13.8339 O   0  0  0  0  0  0  0  0  0  0  0  0
  2  1  1  6
  3  2  1  0
  4  2  1  0
  4  6  1  0
  4  5  1  1
  6  7  2  0
  9  8  1  1
  9 10  1  0
  9 11  1  0
 11 13  1  0
 11 12  1  6
 12  6  1  0
 13 14  2  0
 15 13  1  0
 15 16  1  0
 16 21  1  0
 16 17  1  6
 18 17  1  0
 19 18  1  0
 20 19  2  0
 21 22  2  0
 21 24  1  0
 23 19  1  0
M  END
$$$$
