VVE.pdb
     RDKit          3D

 24 23  0  0  1  0  0  0  0  0999 V2000
   18.6779  -26.8403   -7.7136 C   0  0  0  0  0  0  0  0  0  0  0  0
   18.6475  -25.4634   -8.3500 C   0  0  1  0  0  0  0  0  0  0  0  0
   17.3068  -25.2417   -8.9720 C   0  0  0  0  0  0  0  0  0  0  0  0
   19.0186  -24.3866   -7.3437 C   0  0  2  0  0  0  0  0  0  0  0  0
   18.0900  -24.4215   -6.2575 N   0  0  0  0  0  0  0  0  0  0  0  0
   19.1746  -23.0692   -7.9662 C   0  0  0  0  0  0  0  0  0  0  0  0
   18.1598  -22.3348   -8.0759 O   0  0  0  0  0  0  0  0  0  0  0  0
   22.9572  -21.7466   -9.5845 C   0  0  0  0  0  0  0  0  0  0  0  0
   22.0106  -20.7800   -8.9508 C   0  0  2  0  0  0  0  0  0  0  0  0
   22.3534  -20.5441   -7.4915 C   0  0  0  0  0  0  0  0  0  0  0  0
   20.5731  -21.2945   -9.0822 C   0  0  2  0  0  0  0  0  0  0  0  0
   20.4131  -22.5712   -8.4557 N   0  0  0  0  0  0  0  0  0  0  0  0
   20.2928  -21.4118  -10.5555 C   0  0  0  0  0  0  0  0  0  0  0  0
   20.4062  -22.5008  -11.1611 O   0  0  0  0  0  0  0  0  0  0  0  0
   19.8870  -20.2891  -11.3221 N   0  0  0  0  0  0  0  0  0  0  0  0
   19.6062  -20.4242  -12.7447 C   0  0  1  0  0  0  0  0  0  0  0  0
   18.5763  -19.4010  -13.0749 C   0  0  0  0  0  0  0  0  0  0  0  0
   18.1477  -19.3189  -14.4937 C   0  0  0  0  0  0  0  0  0  0  0  0
   17.1376  -18.2967  -14.7970 C   0  0  0  0  0  0  0  0  0  0  0  0
   16.6904  -17.5568  -13.9121 O   0  0  0  0  0  0  0  0  0  0  0  0
   20.8430  -20.2938  -13.5530 C   0  0  0  0  0  0  0  0  0  0  0  0
   21.8297  -19.5900  -13.2162 O   0  0  0  0  0  0  0  0  0  0  0  0
   16.6786  -18.1628  -16.1064 O   0  0  0  0  0  0  0  0  0  0  0  0
   20.9397  -20.9797  -14.7552 O   0  0  0  0  0  0  0  0  0  0  0  0
  2  1  1  1
  3  2  1  0
  4  2  1  0
  4  6  1  0
  4  5  1  1
  6  7  2  0
  9  8  1  1
  9 10  1  0
  9 11  1  0
 11 13  1  0
 11 12  1  1
 12  6  1  0
 13 14  2  0
 15 13  1  0
 15 16  1  0
 16 21  1  0
 16 17  1  6
 18 17  1  0
 19 18  1  0
 20 19  2  0
 21 22  2  0
 21 24  1  0
 23 19  1  0
M  END
$$$$
