VVE.pdb
     RDKit          3D

 24 23  0  0  1  0  0  0  0  0999 V2000
   26.3122  -19.3546  -16.3068 C   0  0  0  0  0  0  0  0  0  0  0  0
   27.2769  -20.4955  -16.5701 C   0  0  1  0  0  0  0  0  0  0  0  0
   28.4295  -19.9859  -17.3734 C   0  0  0  0  0  0  0  0  0  0  0  0
   27.7073  -21.1594  -15.2725 C   0  0  2  0  0  0  0  0  0  0  0  0
   28.6774  -22.1684  -15.5626 N   0  0  0  0  0  0  0  0  0  0  0  0
   26.5677  -21.6242  -14.4772 C   0  0  0  0  0  0  0  0  0  0  0  0
   25.9461  -22.6472  -14.8626 O   0  0  0  0  0  0  0  0  0  0  0  0
   25.1796  -19.6478  -10.7896 C   0  0  0  0  0  0  0  0  0  0  0  0
   25.2197  -21.1240  -11.0154 C   0  0  2  0  0  0  0  0  0  0  0  0
   26.5266  -21.7238  -10.5309 C   0  0  0  0  0  0  0  0  0  0  0  0
   25.0137  -21.4306  -12.5027 C   0  0  2  0  0  0  0  0  0  0  0  0
   26.1220  -20.9824  -13.2894 N   0  0  0  0  0  0  0  0  0  0  0  0
   23.7652  -20.7034  -12.9213 C   0  0  0  0  0  0  0  0  0  0  0  0
   23.7393  -19.4582  -13.0416 O   0  0  0  0  0  0  0  0  0  0  0  0
   22.5613  -21.4012  -13.1981 N   0  0  0  0  0  0  0  0  0  0  0  0
   21.3569  -20.6792  -13.5841 C   0  0  1  0  0  0  0  0  0  0  0  0
   20.5636  -21.6014  -14.4424 C   0  0  0  0  0  0  0  0  0  0  0  0
   19.2165  -21.1351  -14.8562 C   0  0  0  0  0  0  0  0  0  0  0  0
   18.3865  -22.1238  -15.5571 C   0  0  0  0  0  0  0  0  0  0  0  0
   18.7904  -23.2772  -15.7490 O   0  0  0  0  0  0  0  0  0  0  0  0
   20.6123  -20.1984  -12.3947 C   0  0  0  0  0  0  0  0  0  0  0  0
   20.6747  -20.7416  -11.2618 O   0  0  0  0  0  0  0  0  0  0  0  0
   17.1229  -21.7499  -16.0115 O   0  0  0  0  0  0  0  0  0  0  0  0
   19.7925  -19.0856  -12.5154 O   0  0  0  0  0  0  0  0  0  0  0  0
  2  1  1  1
  3  2  1  0
  4  2  1  0
  4  6  1  0
  4  5  1  6
  6  7  2  0
  9  8  1  6
  9 10  1  0
  9 11  1  0
 11 13  1  0
 11 12  1  6
 12  6  1  0
 13 14  2  0
 15 13  1  0
 15 16  1  0
 16 21  1  0
 16 17  1  1
 18 17  1  0
 19 18  1  0
 20 19  2  0
 21 22  2  0
 21 24  1  0
 23 19  1  0
M  END
$$$$
