VVE.pdb
     RDKit          3D

 24 23  0  0  1  0  0  0  0  0999 V2000
   16.9910  -12.8468  -18.1205 C   0  0  0  0  0  0  0  0  0  0  0  0
   17.7632  -12.0274  -17.1036 C   0  0  1  0  0  0  0  0  0  0  0  0
   16.8918  -11.7748  -15.9160 C   0  0  0  0  0  0  0  0  0  0  0  0
   19.0768  -12.7004  -16.7415 C   0  0  2  0  0  0  0  0  0  0  0  0
   18.8125  -14.0325  -16.2953 N   0  0  0  0  0  0  0  0  0  0  0  0
   19.8794  -11.8981  -15.8144 C   0  0  0  0  0  0  0  0  0  0  0  0
   19.6486  -11.9974  -14.5822 O   0  0  0  0  0  0  0  0  0  0  0  0
   23.5687  -10.2408  -16.9116 C   0  0  0  0  0  0  0  0  0  0  0  0
   23.1631  -10.4043  -15.4832 C   0  0  2  0  0  0  0  0  0  0  0  0
   23.5388  -11.7758  -14.9536 C   0  0  0  0  0  0  0  0  0  0  0  0
   21.6549  -10.1741  -15.3389 C   0  0  2  0  0  0  0  0  0  0  0  0
   20.9088  -11.0096  -16.2295 N   0  0  0  0  0  0  0  0  0  0  0  0
   21.4083   -8.7279  -15.6713 C   0  0  0  0  0  0  0  0  0  0  0  0
   20.8237   -8.3861  -16.7235 O   0  0  0  0  0  0  0  0  0  0  0  0
   21.8297   -7.6879  -14.8031 N   0  0  0  0  0  0  0  0  0  0  0  0
   21.4382   -6.3077  -15.0535 C   0  0  1  0  0  0  0  0  0  0  0  0
   19.9520   -6.2955  -15.1414 C   0  0  0  0  0  0  0  0  0  0  0  0
   19.2998   -4.9655  -15.2358 C   0  0  0  0  0  0  0  0  0  0  0  0
   17.8320   -4.9769  -15.2897 C   0  0  0  0  0  0  0  0  0  0  0  0
   17.2000   -6.0403  -15.2852 O   0  0  0  0  0  0  0  0  0  0  0  0
   21.9717   -5.3984  -14.0102 C   0  0  0  0  0  0  0  0  0  0  0  0
   22.2669   -5.7661  -12.8439 O   0  0  0  0  0  0  0  0  0  0  0  0
   17.1450   -3.7654  -15.3466 O   0  0  0  0  0  0  0  0  0  0  0  0
   22.1648   -4.0590  -14.3162 O   0  0  0  0  0  0  0  0  0  0  0  0
  2  1  1  6
  3  2  1  0
  4  2  1  0
  4  6  1  0
  4  5  1  1
  6  7  2  0
  9  8  1  6
  9 10  1  0
  9 11  1  0
 11 13  1  0
 11 12  1  6
 12  6  1  0
 13 14  2  0
 15 13  1  0
 15 16  1  0
 16 21  1  0
 16 17  1  1
 18 17  1  0
 19 18  1  0
 20 19  2  0
 21 22  2  0
 21 24  1  0
 23 19  1  0
M  END
$$$$
