CQV.pdb
     RDKit          3D

 23 22  0  0  1  0  0  0  0  0999 V2000
   17.1505  -15.3659  -17.2192 N   0  0  0  0  0  0  0  0  0  0  0  0
   16.9740  -14.4382  -16.1190 C   0  0  1  0  0  0  0  0  0  0  0  0
   17.3984  -15.1532  -14.8623 C   0  0  0  0  0  0  0  0  0  0  0  0
   16.2312  -16.3945  -14.3125 S   0  0  0  0  0  0  0  0  0  0  0  0
   17.7301  -13.1987  -16.3583 C   0  0  0  0  0  0  0  0  0  0  0  0
   18.7966  -13.1548  -17.0267 O   0  0  0  0  0  0  0  0  0  0  0  0
   13.9718   -9.9670  -16.0332 N   0  0  0  0  0  0  0  0  0  0  0  0
   14.6123   -9.6997  -17.2571 C   0  0  0  0  0  0  0  0  0  0  0  0
   13.8852   -9.6004  -18.3009 O   0  0  0  0  0  0  0  0  0  0  0  0
   16.0779   -9.5345  -17.3595 C   0  0  0  0  0  0  0  0  0  0  0  0
   16.6845   -9.6865  -16.0071 C   0  0  0  0  0  0  0  0  0  0  0  0
   17.8302  -10.6985  -16.0375 C   0  0  2  0  0  0  0  0  0  0  0  0
   17.2516  -11.9883  -15.8197 N   0  0  0  0  0  0  0  0  0  0  0  0
   18.8047  -10.2764  -15.0366 C   0  0  0  0  0  0  0  0  0  0  0  0
   18.5880  -10.2701  -13.8015 O   0  0  0  0  0  0  0  0  0  0  0  0
   23.6014   -9.8186  -14.3183 C   0  0  0  0  0  0  0  0  0  0  0  0
   22.4366  -10.0494  -15.2243 C   0  0  2  0  0  0  0  0  0  0  0  0
   22.6544   -9.2530  -16.5108 C   0  0  0  0  0  0  0  0  0  0  0  0
   21.1556   -9.4903  -14.5948 C   0  0  2  0  0  0  0  0  0  0  0  0
   20.0809   -9.8448  -15.4881 N   0  0  0  0  0  0  0  0  0  0  0  0
   21.3169   -8.0338  -14.5286 C   0  0  0  0  0  0  0  0  0  0  0  0
   20.8363   -7.2284  -15.3607 O   0  0  0  0  0  0  0  0  0  0  0  0
   22.0473   -7.4905  -13.4822 O   0  0  0  0  0  0  0  0  0  0  0  0
  2  1  1  6
  2  3  1  0
  3  4  1  0
  5 13  1  0
  5  2  1  0
  6  5  2  0
  8  7  1  0
  9  8  2  0
 10  8  1  0
 11 10  1  0
 12 11  1  1
 12 14  1  0
 12 13  1  0
 14 15  2  0
 17 16  1  1
 17 19  1  0
 17 18  1  0
 20 14  1  0
 19 20  1  6
 21 19  1  0
 21 23  1  0
 22 21  2  0
M  END
$$$$
