CQV.pdb
     RDKit          3D

 23 22  0  0  1  0  0  0  0  0999 V2000
   24.6989  -21.2083   -7.6033 N   0  0  0  0  0  0  0  0  0  0  0  0
   25.3445  -20.3293   -8.5587 C   0  0  1  0  0  0  0  0  0  0  0  0
   26.7744  -20.1626   -8.1136 C   0  0  0  0  0  0  0  0  0  0  0  0
   26.9847  -18.9568   -6.8069 S   0  0  0  0  0  0  0  0  0  0  0  0
   25.2263  -20.8682   -9.9229 C   0  0  0  0  0  0  0  0  0  0  0  0
   25.6239  -22.0172  -10.2516 O   0  0  0  0  0  0  0  0  0  0  0  0
   20.2547  -19.9527  -13.0373 N   0  0  0  0  0  0  0  0  0  0  0  0
   20.7063  -21.2001  -12.5689 C   0  0  0  0  0  0  0  0  0  0  0  0
   19.8330  -22.1009  -12.3361 O   0  0  0  0  0  0  0  0  0  0  0  0
   22.1394  -21.4857  -12.3449 C   0  0  0  0  0  0  0  0  0  0  0  0
   22.9284  -20.2415  -12.5682 C   0  0  0  0  0  0  0  0  0  0  0  0
   24.4104  -20.4801  -12.2782 C   0  0  2  0  0  0  0  0  0  0  0  0
   24.6406  -20.0724  -10.9267 N   0  0  0  0  0  0  0  0  0  0  0  0
   25.1702  -19.7487  -13.2869 C   0  0  0  0  0  0  0  0  0  0  0  0
   25.3541  -18.5084  -13.2678 O   0  0  0  0  0  0  0  0  0  0  0  0
   28.4067  -21.3807  -14.7064 C   0  0  0  0  0  0  0  0  0  0  0  0
   27.5341  -20.9657  -15.8454 C   0  0  2  0  0  0  0  0  0  0  0  0
   28.4079  -20.3125  -16.9160 C   0  0  0  0  0  0  0  0  0  0  0  0
   26.5465  -19.8849  -15.3910 C   0  0  2  0  0  0  0  0  0  0  0  0
   25.7384  -20.4868  -14.3597 N   0  0  0  0  0  0  0  0  0  0  0  0
   25.7275  -19.5416  -16.5585 C   0  0  0  0  0  0  0  0  0  0  0  0
   24.6871  -20.1527  -16.8995 O   0  0  0  0  0  0  0  0  0  0  0  0
   26.1129  -18.4715  -17.3522 O   0  0  0  0  0  0  0  0  0  0  0  0
  2  1  1  1
  2  3  1  0
  3  4  1  0
  5 13  1  0
  5  2  1  0
  6  5  2  0
  8  7  1  0
  9  8  2  0
 10  8  1  0
 11 10  1  0
 12 11  1  6
 12 14  1  0
 12 13  1  0
 14 15  2  0
 17 16  1  1
 17 19  1  0
 17 18  1  0
 20 14  1  0
 19 20  1  1
 21 19  1  0
 21 23  1  0
 22 21  2  0
M  END
$$$$
