CQV.pdb
     RDKit          3D

 23 22  0  0  1  0  0  0  0  0999 V2000
   14.8810  -13.2068  -14.1251 N   0  0  0  0  0  0  0  0  0  0  0  0
   14.8639  -11.7606  -14.2287 C   0  0  1  0  0  0  0  0  0  0  0  0
   13.4190  -11.3337  -14.2506 C   0  0  0  0  0  0  0  0  0  0  0  0
   12.4972  -11.8419  -12.8023 S   0  0  0  0  0  0  0  0  0  0  0  0
   15.6265  -11.1519  -13.1272 C   0  0  0  0  0  0  0  0  0  0  0  0
   15.6933  -11.6492  -11.9721 O   0  0  0  0  0  0  0  0  0  0  0  0
   20.5376   -7.5549  -14.1457 N   0  0  0  0  0  0  0  0  0  0  0  0
   20.4104   -7.5229  -12.7449 C   0  0  0  0  0  0  0  0  0  0  0  0
   21.3706   -7.0212  -12.0707 O   0  0  0  0  0  0  0  0  0  0  0  0
   19.2149   -8.0463  -12.0503 C   0  0  0  0  0  0  0  0  0  0  0  0
   18.2879   -8.6441  -13.0520 C   0  0  0  0  0  0  0  0  0  0  0  0
   17.0404   -9.2052  -12.3689 C   0  0  2  0  0  0  0  0  0  0  0  0
   16.3244   -9.9504  -13.3578 N   0  0  0  0  0  0  0  0  0  0  0  0
   16.3168   -8.0744  -11.7969 C   0  0  0  0  0  0  0  0  0  0  0  0
   15.7321   -7.1967  -12.4752 O   0  0  0  0  0  0  0  0  0  0  0  0
   13.6781   -8.2871   -9.1957 C   0  0  0  0  0  0  0  0  0  0  0  0
   14.7755   -7.4703   -8.5962 C   0  0  2  0  0  0  0  0  0  0  0  0
   14.1529   -6.2934   -7.8454 C   0  0  0  0  0  0  0  0  0  0  0  0
   15.6424   -6.8542   -9.7002 C   0  0  2  0  0  0  0  0  0  0  0  0
   16.2705   -7.9587  -10.3816 N   0  0  0  0  0  0  0  0  0  0  0  0
   16.6456   -6.0170   -9.0335 C   0  0  0  0  0  0  0  0  0  0  0  0
   16.4108   -4.8917   -8.5327 O   0  0  0  0  0  0  0  0  0  0  0  0
   17.9483   -6.4837   -8.9401 O   0  0  0  0  0  0  0  0  0  0  0  0
  2  1  1  1
  2  3  1  0
  3  4  1  0
  5 13  1  0
  5  2  1  0
  6  5  2  0
  8  7  1  0
  9  8  2  0
 10  8  1  0
 11 10  1  0
 12 11  1  6
 12 14  1  0
 12 13  1  0
 14 15  2  0
 17 16  1  6
 17 19  1  0
 17 18  1  0
 20 14  1  0
 19 20  1  1
 21 19  1  0
 21 23  1  0
 22 21  2  0
M  END
$$$$
