CQV.pdb
     RDKit          3D

 23 22  0  0  1  0  0  0  0  0999 V2000
   14.4349  -13.8436  -12.6994 N   0  0  0  0  0  0  0  0  0  0  0  0
   13.8485  -12.5779  -12.3041 C   0  0  1  0  0  0  0  0  0  0  0  0
   12.9108  -12.8608  -11.1590 C   0  0  0  0  0  0  0  0  0  0  0  0
   11.4440  -13.7686  -11.6386 S   0  0  0  0  0  0  0  0  0  0  0  0
   14.8971  -11.6042  -11.9611 C   0  0  0  0  0  0  0  0  0  0  0  0
   15.9808  -11.9198  -11.4024 O   0  0  0  0  0  0  0  0  0  0  0  0
   19.1935   -8.2009  -11.4414 N   0  0  0  0  0  0  0  0  0  0  0  0
   18.5989   -8.3628  -12.7062 C   0  0  0  0  0  0  0  0  0  0  0  0
   19.2116   -9.0802  -13.5653 O   0  0  0  0  0  0  0  0  0  0  0  0
   17.3073   -7.7340  -13.0557 C   0  0  0  0  0  0  0  0  0  0  0  0
   16.2885   -8.7979  -13.2804 C   0  0  0  0  0  0  0  0  0  0  0  0
   15.6092   -9.1841  -11.9662 C   0  0  2  0  0  0  0  0  0  0  0  0
   14.6963  -10.2437  -12.2657 N   0  0  0  0  0  0  0  0  0  0  0  0
   15.0013   -7.9736  -11.4233 C   0  0  0  0  0  0  0  0  0  0  0  0
   14.1030   -7.3166  -12.0013 O   0  0  0  0  0  0  0  0  0  0  0  0
   14.2924   -7.9171   -7.5791 C   0  0  0  0  0  0  0  0  0  0  0  0
   15.0352   -6.6812   -7.9685 C   0  0  2  0  0  0  0  0  0  0  0  0
   14.4168   -5.4899   -7.2372 C   0  0  0  0  0  0  0  0  0  0  0  0
   14.8497   -6.3995   -9.4639 C   0  0  2  0  0  0  0  0  0  0  0  0
   15.4544   -7.5081  -10.1598 N   0  0  0  0  0  0  0  0  0  0  0  0
   15.5660   -5.1523   -9.7522 C   0  0  0  0  0  0  0  0  0  0  0  0
   15.1291   -4.0067   -9.4899 O   0  0  0  0  0  0  0  0  0  0  0  0
   16.8127   -5.2233  -10.3556 O   0  0  0  0  0  0  0  0  0  0  0  0
  2  1  1  1
  2  3  1  0
  3  4  1  0
  5 13  1  0
  5  2  1  0
  6  5  2  0
  8  7  1  0
  9  8  2  0
 10  8  1  0
 11 10  1  0
 12 11  1  6
 12 14  1  0
 12 13  1  0
 14 15  2  0
 17 16  1  1
 17 19  1  0
 17 18  1  0
 20 14  1  0
 19 20  1  6
 21 19  1  0
 21 23  1  0
 22 21  2  0
M  END
$$$$
