CQV.pdb
     RDKit          3D

 23 22  0  0  1  0  0  0  0  0999 V2000
   21.8577  -13.6025  -20.2687 N   0  0  0  0  0  0  0  0  0  0  0  0
   22.4231  -12.6907  -19.2934 C   0  0  1  0  0  0  0  0  0  0  0  0
   23.6739  -12.1100  -19.9007 C   0  0  0  0  0  0  0  0  0  0  0  0
   25.0982  -13.1884  -19.7818 S   0  0  0  0  0  0  0  0  0  0  0  0
   21.4402  -11.6647  -18.9106 C   0  0  0  0  0  0  0  0  0  0  0  0
   21.0627  -10.7437  -19.6822 O   0  0  0  0  0  0  0  0  0  0  0  0
   17.0674  -12.7187  -14.7037 N   0  0  0  0  0  0  0  0  0  0  0  0
   16.9321  -11.3354  -14.9220 C   0  0  0  0  0  0  0  0  0  0  0  0
   15.9149  -10.7498  -14.4213 O   0  0  0  0  0  0  0  0  0  0  0  0
   17.9206  -10.5605  -15.7018 C   0  0  0  0  0  0  0  0  0  0  0  0
   18.9644  -11.4849  -16.2273 C   0  0  0  0  0  0  0  0  0  0  0  0
   19.9821  -10.7254  -17.0788 C   0  0  2  0  0  0  0  0  0  0  0  0
   20.8815  -11.6981  -17.6180 N   0  0  0  0  0  0  0  0  0  0  0  0
   20.5965   -9.7182  -16.2199 C   0  0  0  0  0  0  0  0  0  0  0  0
   21.4794   -9.9658  -15.3646 O   0  0  0  0  0  0  0  0  0  0  0  0
   21.8237   -5.0704  -15.9849 C   0  0  0  0  0  0  0  0  0  0  0  0
   21.2429   -6.2690  -16.6608 C   0  0  2  0  0  0  0  0  0  0  0  0
   20.0057   -5.8341  -17.4461 C   0  0  0  0  0  0  0  0  0  0  0  0
   20.7469   -7.2778  -15.6185 C   0  0  2  0  0  0  0  0  0  0  0  0
   20.1687   -8.3706  -16.3602 N   0  0  0  0  0  0  0  0  0  0  0  0
   19.7243   -6.5935  -14.8199 C   0  0  0  0  0  0  0  0  0  0  0  0
   19.9712   -5.8011  -13.8801 O   0  0  0  0  0  0  0  0  0  0  0  0
   18.3876   -6.8251  -15.1078 O   0  0  0  0  0  0  0  0  0  0  0  0
  2  1  1  6
  2  3  1  0
  3  4  1  0
  5 13  1  0
  5  2  1  0
  6  5  2  0
  8  7  1  0
  9  8  2  0
 10  8  1  0
 11 10  1  0
 12 11  1  1
 12 14  1  0
 12 13  1  0
 14 15  2  0
 17 16  1  1
 17 19  1  0
 17 18  1  0
 20 14  1  0
 19 20  1  6
 21 19  1  0
 21 23  1  0
 22 21  2  0
M  END
$$$$
