CQV.pdb
     RDKit          3D

 23 22  0  0  1  0  0  0  0  0999 V2000
   26.4529  -20.2285   -9.7530 N   0  0  0  0  0  0  0  0  0  0  0  0
   25.5327  -21.0482  -10.5170 C   0  0  1  0  0  0  0  0  0  0  0  0
   24.3542  -21.3425   -9.6254 C   0  0  0  0  0  0  0  0  0  0  0  0
   23.3934  -19.8923   -9.2019 S   0  0  0  0  0  0  0  0  0  0  0  0
   25.1525  -20.3737  -11.7684 C   0  0  0  0  0  0  0  0  0  0  0  0
   24.9953  -19.1279  -11.8648 O   0  0  0  0  0  0  0  0  0  0  0  0
   26.3078  -21.1148  -18.8854 N   0  0  0  0  0  0  0  0  0  0  0  0
   26.1351  -21.5336  -17.5534 C   0  0  0  0  0  0  0  0  0  0  0  0
   26.7341  -22.5968  -17.1806 O   0  0  0  0  0  0  0  0  0  0  0  0
   25.2933  -20.7858  -16.5954 C   0  0  0  0  0  0  0  0  0  0  0  0
   25.4142  -21.4075  -15.2467 C   0  0  0  0  0  0  0  0  0  0  0  0
   24.5963  -20.6291  -14.2157 C   0  0  2  0  0  0  0  0  0  0  0  0
   24.9494  -21.1452  -12.9293 N   0  0  0  0  0  0  0  0  0  0  0  0
   23.1910  -20.7757  -14.5807 C   0  0  0  0  0  0  0  0  0  0  0  0
   22.4795  -21.7580  -14.2626 O   0  0  0  0  0  0  0  0  0  0  0  0
   21.4947  -17.3179  -15.8857 C   0  0  0  0  0  0  0  0  0  0  0  0
   20.6067  -18.4265  -15.4238 C   0  0  2  0  0  0  0  0  0  0  0  0
   20.5406  -18.3943  -13.8971 C   0  0  0  0  0  0  0  0  0  0  0  0
   21.2179  -19.7837  -15.7902 C   0  0  2  0  0  0  0  0  0  0  0  0
   22.5886  -19.7406  -15.3452 N   0  0  0  0  0  0  0  0  0  0  0  0
   21.1494  -19.8987  -17.2510 C   0  0  0  0  0  0  0  0  0  0  0  0
   22.1150  -19.6954  -18.0245 O   0  0  0  0  0  0  0  0  0  0  0  0
   19.9436  -20.2555  -17.8361 O   0  0  0  0  0  0  0  0  0  0  0  0
  2  1  1  1
  2  3  1  0
  3  4  1  0
  5 13  1  0
  5  2  1  0
  6  5  2  0
  8  7  1  0
  9  8  2  0
 10  8  1  0
 11 10  1  0
 12 11  1  6
 12 14  1  0
 12 13  1  0
 14 15  2  0
 17 16  1  1
 17 19  1  0
 17 18  1  0
 20 14  1  0
 19 20  1  6
 21 19  1  0
 21 23  1  0
 22 21  2  0
M  END
$$$$
