ANI.pdb
     RDKit          3D

 22 21  0  0  1  0  0  0  0  0999 V2000
    7.5429  -12.5581   18.5436 C   0  0  0  0  0  0  0  0  0  0  0  0
    8.6514  -13.3630   19.1889 C   0  0  2  0  0  0  0  0  0  0  0  0
    9.1310  -14.3774   18.2762 N   0  0  0  0  0  0  0  0  0  0  0  0
    8.1296  -13.9356   20.4444 C   0  0  0  0  0  0  0  0  0  0  0  0
    7.6158  -13.1318   21.2935 O   0  0  0  0  0  0  0  0  0  0  0  0
    9.5084  -18.8200   22.7493 N   0  0  0  0  0  0  0  0  0  0  0  0
    8.8512  -18.0031   21.8015 C   0  0  0  0  0  0  0  0  0  0  0  0
    9.4208  -17.8741   20.6832 O   0  0  0  0  0  0  0  0  0  0  0  0
    7.5815  -17.3206   22.0375 C   0  0  0  0  0  0  0  0  0  0  0  0
    7.6328  -15.8233   22.0439 C   0  0  2  0  0  0  0  0  0  0  0  0
    8.1453  -15.2971   20.7964 N   0  0  0  0  0  0  0  0  0  0  0  0
    8.3759  -15.3434   23.2164 C   0  0  0  0  0  0  0  0  0  0  0  0
    9.6117  -15.2042   23.1643 O   0  0  0  0  0  0  0  0  0  0  0  0
    5.6962  -12.5463   27.4076 C   0  0  0  0  0  0  0  0  0  0  0  0
    6.3794  -13.5831   26.5797 C   0  0  0  0  0  0  0  0  0  0  0  0
    7.7475  -13.1777   26.1032 C   0  0  2  0  0  0  0  0  0  0  0  0
    7.5881  -12.2019   24.9670 C   0  0  0  0  0  0  0  0  0  0  0  0
    8.4430  -14.4070   25.5753 C   0  0  2  0  0  0  0  0  0  0  0  0
    7.7570  -15.0142   24.4564 N   0  0  0  0  0  0  0  0  0  0  0  0
    8.6425  -15.4429   26.6232 C   0  0  0  0  0  0  0  0  0  0  0  0
    8.1215  -16.5917   26.5297 O   0  0  0  0  0  0  0  0  0  0  0  0
    9.4093  -15.2037   27.7570 O   0  0  0  0  0  0  0  0  0  0  0  0
  2  1  1  6
  2  4  1  0
  3  2  1  0
  4  5  2  0
  7  6  1  0
  7  9  1  0
  8  7  2  0
 10  9  1  6
 10 12  1  0
 11 10  1  0
 11  4  1  0
 12 13  2  0
 12 19  1  0
 14 15  1  0
 16 15  1  0
 16 17  1  6
 18 16  1  0
 18 19  1  6
 20 18  1  0
 20 22  1  0
 21 20  2  0
M  END
$$$$
