ANI.pdb
     RDKit          3D

 22 21  0  0  1  0  0  0  0  0999 V2000
    8.5704  -12.5705   19.0247 C   0  0  0  0  0  0  0  0  0  0  0  0
    8.4028  -14.0682   18.8781 C   0  0  2  0  0  0  0  0  0  0  0  0
    7.6051  -14.3716   17.7104 N   0  0  0  0  0  0  0  0  0  0  0  0
    7.8006  -14.5850   20.1219 C   0  0  0  0  0  0  0  0  0  0  0  0
    6.5354  -14.4758   20.2572 O   0  0  0  0  0  0  0  0  0  0  0  0
    5.8817  -17.8198   23.9052 N   0  0  0  0  0  0  0  0  0  0  0  0
    7.2491  -17.8494   23.5488 C   0  0  0  0  0  0  0  0  0  0  0  0
    8.0178  -18.4734   24.3306 O   0  0  0  0  0  0  0  0  0  0  0  0
    7.8062  -17.2172   22.3557 C   0  0  0  0  0  0  0  0  0  0  0  0
    7.8680  -15.7203   22.3746 C   0  0  2  0  0  0  0  0  0  0  0  0
    8.4966  -15.1926   21.1821 N   0  0  0  0  0  0  0  0  0  0  0  0
    8.5043  -15.2518   23.6127 C   0  0  0  0  0  0  0  0  0  0  0  0
    9.7383  -15.3308   23.7548 O   0  0  0  0  0  0  0  0  0  0  0  0
    5.4571  -12.2213   27.3542 C   0  0  0  0  0  0  0  0  0  0  0  0
    6.2790  -13.3399   26.8062 C   0  0  0  0  0  0  0  0  0  0  0  0
    7.6822  -12.9413   26.4385 C   0  0  2  0  0  0  0  0  0  0  0  0
    7.6147  -11.9133   25.3398 C   0  0  0  0  0  0  0  0  0  0  0  0
    8.3900  -14.1597   25.9019 C   0  0  2  0  0  0  0  0  0  0  0  0
    7.7796  -14.6924   24.7040 N   0  0  0  0  0  0  0  0  0  0  0  0
    8.4857  -15.2516   26.9067 C   0  0  0  0  0  0  0  0  0  0  0  0
    7.8902  -16.3561   26.7467 O   0  0  0  0  0  0  0  0  0  0  0  0
    9.2321  -15.1162   28.0708 O   0  0  0  0  0  0  0  0  0  0  0  0
  2  1  1  1
  2  4  1  0
  3  2  1  0
  4  5  2  0
  7  6  1  0
  7  9  1  0
  8  7  2  0
 10  9  1  6
 10 12  1  0
 11 10  1  0
 11  4  1  0
 12 13  2  0
 12 19  1  0
 14 15  1  0
 16 15  1  0
 16 17  1  6
 18 16  1  0
 18 19  1  6
 20 18  1  0
 20 22  1  0
 21 20  2  0
M  END
$$$$
