ANI.pdb
     RDKit          3D

 22 21  0  0  1  0  0  0  0  0999 V2000
    7.2289  -12.8150   19.0857 C   0  0  0  0  0  0  0  0  0  0  0  0
    8.5203  -13.5583   19.3554 C   0  0  2  0  0  0  0  0  0  0  0  0
    8.8789  -14.3708   18.2138 N   0  0  0  0  0  0  0  0  0  0  0  0
    8.3402  -14.3580   20.5820 C   0  0  0  0  0  0  0  0  0  0  0  0
    7.4209  -13.9998   21.3930 O   0  0  0  0  0  0  0  0  0  0  0  0
   10.9396  -18.1999   20.0837 N   0  0  0  0  0  0  0  0  0  0  0  0
    9.8015  -18.1940   20.9217 C   0  0  0  0  0  0  0  0  0  0  0  0
    8.8054  -18.8542   20.5174 O   0  0  0  0  0  0  0  0  0  0  0  0
    9.7179  -17.4873   22.1973 C   0  0  0  0  0  0  0  0  0  0  0  0
    8.9345  -16.2101   22.1897 C   0  0  2  0  0  0  0  0  0  0  0  0
    9.0935  -15.4888   20.9447 N   0  0  0  0  0  0  0  0  0  0  0  0
    9.2691  -15.3997   23.3680 C   0  0  0  0  0  0  0  0  0  0  0  0
   10.3547  -14.7937   23.4272 O   0  0  0  0  0  0  0  0  0  0  0  0
    6.8926  -11.3990   27.2362 C   0  0  0  0  0  0  0  0  0  0  0  0
    7.8667  -12.5016   26.9859 C   0  0  0  0  0  0  0  0  0  0  0  0
    7.5057  -13.3801   25.8193 C   0  0  2  0  0  0  0  0  0  0  0  0
    6.2780  -14.1741   26.1808 C   0  0  0  0  0  0  0  0  0  0  0  0
    8.6414  -14.3452   25.5906 C   0  0  2  0  0  0  0  0  0  0  0  0
    8.4048  -15.2539   24.4909 N   0  0  0  0  0  0  0  0  0  0  0  0
    8.9611  -15.1459   26.8020 C   0  0  0  0  0  0  0  0  0  0  0  0
    9.3381  -14.6001   27.8791 O   0  0  0  0  0  0  0  0  0  0  0  0
    8.8630  -16.5319   26.8144 O   0  0  0  0  0  0  0  0  0  0  0  0
  2  1  1  6
  2  4  1  0
  3  2  1  0
  4  5  2  0
  7  6  1  0
  7  9  1  0
  8  7  2  0
 10  9  1  6
 10 12  1  0
 11 10  1  0
 11  4  1  0
 12 13  2  0
 12 19  1  0
 14 15  1  0
 16 15  1  0
 16 17  1  1
 18 16  1  0
 18 19  1  6
 20 18  1  0
 20 22  1  0
 21 20  2  0
M  END
$$$$
