ANI.pdb
     RDKit          3D

 22 21  0  0  1  0  0  0  0  0999 V2000
    7.1579  -12.9198   18.7859 C   0  0  0  0  0  0  0  0  0  0  0  0
    8.4058  -13.5730   19.3417 C   0  0  2  0  0  0  0  0  0  0  0  0
    8.9146  -14.5558   18.4104 N   0  0  0  0  0  0  0  0  0  0  0  0
    8.0696  -14.1601   20.6528 C   0  0  0  0  0  0  0  0  0  0  0  0
    7.5278  -13.3971   21.5220 O   0  0  0  0  0  0  0  0  0  0  0  0
    9.9598  -18.3747   20.9483 N   0  0  0  0  0  0  0  0  0  0  0  0
    9.3018  -18.0935   22.1671 C   0  0  0  0  0  0  0  0  0  0  0  0
    9.9576  -18.3162   23.2215 O   0  0  0  0  0  0  0  0  0  0  0  0
    7.9420  -17.5705   22.2707 C   0  0  0  0  0  0  0  0  0  0  0  0
    7.8115  -16.0779   22.2726 C   0  0  2  0  0  0  0  0  0  0  0  0
    8.2919  -15.4942   21.0381 N   0  0  0  0  0  0  0  0  0  0  0  0
    8.4573  -15.5110   23.4637 C   0  0  0  0  0  0  0  0  0  0  0  0
    9.6941  -15.3775   23.5054 O   0  0  0  0  0  0  0  0  0  0  0  0
    5.8300  -11.6190   26.0391 C   0  0  0  0  0  0  0  0  0  0  0  0
    6.8626  -12.5425   25.4844 C   0  0  0  0  0  0  0  0  0  0  0  0
    7.4138  -13.5151   26.4911 C   0  0  2  0  0  0  0  0  0  0  0  0
    8.2155  -12.7467   27.5087 C   0  0  0  0  0  0  0  0  0  0  0  0
    8.3448  -14.4576   25.7710 C   0  0  2  0  0  0  0  0  0  0  0  0
    7.7393  -15.0877   24.6189 N   0  0  0  0  0  0  0  0  0  0  0  0
    8.8798  -15.5210   26.6620 C   0  0  0  0  0  0  0  0  0  0  0  0
    9.8638  -15.3126   27.4290 O   0  0  0  0  0  0  0  0  0  0  0  0
    8.3285  -16.7960   26.6985 O   0  0  0  0  0  0  0  0  0  0  0  0
  2  1  1  6
  2  4  1  0
  3  2  1  0
  4  5  2  0
  7  6  1  0
  7  9  1  0
  8  7  2  0
 10  9  1  6
 10 12  1  0
 11 10  1  0
 11  4  1  0
 12 13  2  0
 12 19  1  0
 14 15  1  0
 16 15  1  0
 16 17  1  1
 18 16  1  0
 18 19  1  6
 20 18  1  0
 20 22  1  0
 21 20  2  0
M  END
$$$$
