ANI.pdb
     RDKit          3D

 22 21  0  0  1  0  0  0  0  0999 V2000
    7.2470  -12.8042   18.6384 C   0  0  0  0  0  0  0  0  0  0  0  0
    8.5338  -13.3465   19.2237 C   0  0  2  0  0  0  0  0  0  0  0  0
    9.2207  -14.1671   18.2506 N   0  0  0  0  0  0  0  0  0  0  0  0
    8.1993  -14.0909   20.4528 C   0  0  0  0  0  0  0  0  0  0  0  0
    7.4392  -13.5176   21.3041 O   0  0  0  0  0  0  0  0  0  0  0  0
    6.8099  -18.8601   20.7409 N   0  0  0  0  0  0  0  0  0  0  0  0
    8.1048  -18.2951   20.7783 C   0  0  0  0  0  0  0  0  0  0  0  0
    8.8178  -18.4613   19.7509 O   0  0  0  0  0  0  0  0  0  0  0  0
    8.6477  -17.5467   21.9090 C   0  0  0  0  0  0  0  0  0  0  0  0
    8.2693  -16.0987   21.9799 C   0  0  2  0  0  0  0  0  0  0  0  0
    8.6434  -15.3852   20.7772 N   0  0  0  0  0  0  0  0  0  0  0  0
    8.8129  -15.4887   23.2004 C   0  0  0  0  0  0  0  0  0  0  0  0
    9.9858  -15.0730   23.2273 O   0  0  0  0  0  0  0  0  0  0  0  0
    7.1420  -11.3221   27.1792 C   0  0  0  0  0  0  0  0  0  0  0  0
    7.9961  -12.5048   26.8650 C   0  0  0  0  0  0  0  0  0  0  0  0
    7.4385  -13.3884   25.7827 C   0  0  2  0  0  0  0  0  0  0  0  0
    6.1797  -14.0367   26.2961 C   0  0  0  0  0  0  0  0  0  0  0  0
    8.4460  -14.4736   25.4984 C   0  0  2  0  0  0  0  0  0  0  0  0
    8.0627  -15.3344   24.4014 N   0  0  0  0  0  0  0  0  0  0  0  0
    8.7204  -15.3220   26.6884 C   0  0  0  0  0  0  0  0  0  0  0  0
    9.2294  -14.8432   27.7428 O   0  0  0  0  0  0  0  0  0  0  0  0
    8.4329  -16.6814   26.7044 O   0  0  0  0  0  0  0  0  0  0  0  0
  2  1  1  6
  2  4  1  0
  3  2  1  0
  4  5  2  0
  7  6  1  0
  7  9  1  0
  8  7  2  0
 10  9  1  6
 10 12  1  0
 11 10  1  0
 11  4  1  0
 12 13  2  0
 12 19  1  0
 14 15  1  0
 16 15  1  0
 16 17  1  1
 18 16  1  0
 18 19  1  6
 20 18  1  0
 20 22  1  0
 21 20  2  0
M  END
$$$$
