ANI.pdb
     RDKit          3D

 22 21  0  0  1  0  0  0  0  0999 V2000
   10.7064  -20.9463   23.0854 C   0  0  0  0  0  0  0  0  0  0  0  0
   10.4518  -19.9006   24.1506 C   0  0  2  0  0  0  0  0  0  0  0  0
    9.5398  -20.4137   25.1491 N   0  0  0  0  0  0  0  0  0  0  0  0
    9.9367  -18.6878   23.4870 C   0  0  0  0  0  0  0  0  0  0  0  0
   10.7595  -17.9939   22.7996 O   0  0  0  0  0  0  0  0  0  0  0  0
    5.1640  -18.9551   23.3562 N   0  0  0  0  0  0  0  0  0  0  0  0
    5.7999  -17.6984   23.4735 C   0  0  0  0  0  0  0  0  0  0  0  0
    5.5537  -17.0424   24.5226 O   0  0  0  0  0  0  0  0  0  0  0  0
    6.7046  -17.1334   22.4757 C   0  0  0  0  0  0  0  0  0  0  0  0
    8.1420  -17.0197   22.8828 C   0  0  2  0  0  0  0  0  0  0  0  0
    8.6114  -18.2204   23.5413 N   0  0  0  0  0  0  0  0  0  0  0  0
    8.3502  -15.8075   23.6856 C   0  0  0  0  0  0  0  0  0  0  0  0
    8.4170  -14.6927   23.1360 O   0  0  0  0  0  0  0  0  0  0  0  0
    5.7665  -12.5773   26.0835 C   0  0  0  0  0  0  0  0  0  0  0  0
    6.9479  -13.3057   25.5350 C   0  0  0  0  0  0  0  0  0  0  0  0
    7.7930  -13.9734   26.5851 C   0  0  2  0  0  0  0  0  0  0  0  0
    8.3822  -12.9087   27.4726 C   0  0  0  0  0  0  0  0  0  0  0  0
    8.9246  -14.6884   25.8910 C   0  0  2  0  0  0  0  0  0  0  0  0
    8.4868  -15.8195   25.1034 N   0  0  0  0  0  0  0  0  0  0  0  0
    9.9720  -15.1524   26.8390 C   0  0  0  0  0  0  0  0  0  0  0  0
   10.0761  -16.3685   27.1712 O   0  0  0  0  0  0  0  0  0  0  0  0
   10.8886  -14.2768   27.4082 O   0  0  0  0  0  0  0  0  0  0  0  0
  2  1  1  6
  2  4  1  0
  3  2  1  0
  4  5  2  0
  7  6  1  0
  7  9  1  0
  8  7  2  0
 10  9  1  1
 10 12  1  0
 11 10  1  0
 11  4  1  0
 12 13  2  0
 12 19  1  0
 14 15  1  0
 16 15  1  0
 16 17  1  1
 18 16  1  0
 18 19  1  1
 20 18  1  0
 20 22  1  0
 21 20  2  0
M  END
$$$$
