ANI.pdb
     RDKit          3D

 22 21  0  0  1  0  0  0  0  0999 V2000
    7.3689  -12.6556   19.3011 C   0  0  0  0  0  0  0  0  0  0  0  0
    8.5200  -13.6250   19.4686 C   0  0  2  0  0  0  0  0  0  0  0  0
    8.6059  -14.5041   18.3233 N   0  0  0  0  0  0  0  0  0  0  0  0
    8.3175  -14.3618   20.7306 C   0  0  0  0  0  0  0  0  0  0  0  0
    7.3267  -14.0230   21.4619 O   0  0  0  0  0  0  0  0  0  0  0  0
    8.2747  -19.3845   21.1582 N   0  0  0  0  0  0  0  0  0  0  0  0
    9.2330  -18.3465   21.2012 C   0  0  0  0  0  0  0  0  0  0  0  0
    9.8815  -18.1392   20.1391 O   0  0  0  0  0  0  0  0  0  0  0  0
    9.5048  -17.5206   22.3748 C   0  0  0  0  0  0  0  0  0  0  0  0
    8.8373  -16.1795   22.4022 C   0  0  2  0  0  0  0  0  0  0  0  0
    9.1212  -15.4126   21.2077 N   0  0  0  0  0  0  0  0  0  0  0  0
    9.1814  -15.4638   23.6378 C   0  0  0  0  0  0  0  0  0  0  0  0
   10.3232  -14.9942   23.7957 O   0  0  0  0  0  0  0  0  0  0  0  0
    5.8215  -11.9668   25.8429 C   0  0  0  0  0  0  0  0  0  0  0  0
    7.0058  -12.7856   25.4503 C   0  0  0  0  0  0  0  0  0  0  0  0
    7.4330  -13.7791   26.4959 C   0  0  2  0  0  0  0  0  0  0  0  0
    7.9214  -13.0223   27.7031 C   0  0  0  0  0  0  0  0  0  0  0  0
    8.5858  -14.5769   25.9410 C   0  0  2  0  0  0  0  0  0  0  0  0
    8.2642  -15.2624   24.7090 N   0  0  0  0  0  0  0  0  0  0  0  0
    9.1078  -15.5747   26.9121 C   0  0  0  0  0  0  0  0  0  0  0  0
    8.7124  -16.7762   26.9077 O   0  0  0  0  0  0  0  0  0  0  0  0
   10.0545  -15.2403   27.8727 O   0  0  0  0  0  0  0  0  0  0  0  0
  2  1  1  6
  2  4  1  0
  3  2  1  0
  4  5  2  0
  7  6  1  0
  7  9  1  0
  8  7  2  0
 10  9  1  6
 10 12  1  0
 11 10  1  0
 11  4  1  0
 12 13  2  0
 12 19  1  0
 14 15  1  0
 16 15  1  0
 16 17  1  1
 18 16  1  0
 18 19  1  6
 20 18  1  0
 20 22  1  0
 21 20  2  0
M  END
$$$$
