ANI.pdb
     RDKit          3D

 22 21  0  0  1  0  0  0  0  0999 V2000
    7.4056  -12.9641   18.8413 C   0  0  0  0  0  0  0  0  0  0  0  0
    8.5173  -13.7847   19.4606 C   0  0  2  0  0  0  0  0  0  0  0  0
    8.9185  -14.8445   18.5619 N   0  0  0  0  0  0  0  0  0  0  0  0
    8.0387  -14.2974   20.7586 C   0  0  0  0  0  0  0  0  0  0  0  0
    7.5086  -13.4621   21.5663 O   0  0  0  0  0  0  0  0  0  0  0  0
    7.4596  -19.3158   24.2969 N   0  0  0  0  0  0  0  0  0  0  0  0
    6.8605  -18.2238   23.6290 C   0  0  0  0  0  0  0  0  0  0  0  0
    5.8103  -17.7572   24.1496 O   0  0  0  0  0  0  0  0  0  0  0  0
    7.3776  -17.6196   22.4038 C   0  0  0  0  0  0  0  0  0  0  0  0
    7.5137  -16.1276   22.4148 C   0  0  2  0  0  0  0  0  0  0  0  0
    8.1124  -15.6329   21.1932 N   0  0  0  0  0  0  0  0  0  0  0  0
    8.2279  -15.6895   23.6211 C   0  0  0  0  0  0  0  0  0  0  0  0
    9.4585  -15.8501   23.7168 O   0  0  0  0  0  0  0  0  0  0  0  0
    6.1009  -11.4113   26.1885 C   0  0  0  0  0  0  0  0  0  0  0  0
    7.0304  -12.4299   25.6181 C   0  0  0  0  0  0  0  0  0  0  0  0
    7.4725  -13.4730   26.6078 C   0  0  2  0  0  0  0  0  0  0  0  0
    8.3663  -12.8166   27.6269 C   0  0  0  0  0  0  0  0  0  0  0  0
    8.2815  -14.5081   25.8677 C   0  0  2  0  0  0  0  0  0  0  0  0
    7.5856  -15.0705   24.7317 N   0  0  0  0  0  0  0  0  0  0  0  0
    8.7227  -15.6223   26.7479 C   0  0  0  0  0  0  0  0  0  0  0  0
    7.9816  -16.6213   26.9776 O   0  0  0  0  0  0  0  0  0  0  0  0
    9.9689  -15.6245   27.3627 O   0  0  0  0  0  0  0  0  0  0  0  0
  2  1  1  6
  2  4  1  0
  3  2  1  0
  4  5  2  0
  7  6  1  0
  7  9  1  0
  8  7  2  0
 10  9  1  6
 10 12  1  0
 11 10  1  0
 11  4  1  0
 12 13  2  0
 12 19  1  0
 14 15  1  0
 16 15  1  0
 16 17  1  1
 18 16  1  0
 18 19  1  6
 20 18  1  0
 20 22  1  0
 21 20  2  0
M  END
$$$$
