ANI.pdb
     RDKit          3D

 22 21  0  0  1  0  0  0  0  0999 V2000
    8.6257  -12.5931   18.9031 C   0  0  0  0  0  0  0  0  0  0  0  0
    8.4394  -14.0918   18.7933 C   0  0  2  0  0  0  0  0  0  0  0  0
    7.6369  -14.4137   17.6338 N   0  0  0  0  0  0  0  0  0  0  0  0
    7.8321  -14.5705   20.0497 C   0  0  0  0  0  0  0  0  0  0  0  0
    6.5683  -14.4429   20.1829 O   0  0  0  0  0  0  0  0  0  0  0  0
    5.9624  -18.0966   23.6395 N   0  0  0  0  0  0  0  0  0  0  0  0
    7.3466  -17.9024   23.4301 C   0  0  0  0  0  0  0  0  0  0  0  0
    8.1162  -18.3524   24.3227 O   0  0  0  0  0  0  0  0  0  0  0  0
    7.9203  -17.2301   22.2672 C   0  0  0  0  0  0  0  0  0  0  0  0
    7.8807  -15.7325   22.2893 C   0  0  2  0  0  0  0  0  0  0  0  0
    8.5216  -15.1601   21.1243 N   0  0  0  0  0  0  0  0  0  0  0  0
    8.4320  -15.2264   23.5530 C   0  0  0  0  0  0  0  0  0  0  0  0
    9.6635  -15.1477   23.7155 O   0  0  0  0  0  0  0  0  0  0  0  0
    5.5177  -11.5725   26.3619 C   0  0  0  0  0  0  0  0  0  0  0  0
    6.6331  -12.3691   25.7718 C   0  0  0  0  0  0  0  0  0  0  0  0
    7.1329  -13.4718   26.6648 C   0  0  2  0  0  0  0  0  0  0  0  0
    7.8303  -12.8507   27.8465 C   0  0  0  0  0  0  0  0  0  0  0  0
    8.1441  -14.2793   25.8910 C   0  0  2  0  0  0  0  0  0  0  0  0
    7.6243  -14.8037   24.6477 N   0  0  0  0  0  0  0  0  0  0  0  0
    8.6975  -15.4092   26.6835 C   0  0  0  0  0  0  0  0  0  0  0  0
    9.8254  -15.3334   27.2511 O   0  0  0  0  0  0  0  0  0  0  0  0
    8.0065  -16.6044   26.8415 O   0  0  0  0  0  0  0  0  0  0  0  0
  2  1  1  1
  2  4  1  0
  3  2  1  0
  4  5  2  0
  7  6  1  0
  7  9  1  0
  8  7  2  0
 10  9  1  1
 10 12  1  0
 11 10  1  0
 11  4  1  0
 12 13  2  0
 12 19  1  0
 14 15  1  0
 16 15  1  0
 16 17  1  1
 18 16  1  0
 18 19  1  6
 20 18  1  0
 20 22  1  0
 21 20  2  0
M  END
$$$$
