TRS.pdb
     RDKit          3D

 25 24  0  0  1  0  0  0  0  0999 V2000
   18.3440  -28.2714   -8.4200 C   0  0  0  0  0  0  0  0  0  0  0  0
   18.0416  -27.0032   -9.1466 C   0  0  1  0  0  0  0  0  0  0  0  0
   16.7020  -26.7357   -9.3197 O   0  0  0  0  0  0  0  0  0  0  0  0
   18.7605  -25.7937   -8.5416 C   0  0  2  0  0  0  0  0  0  0  0  0
   18.1105  -25.3392   -7.3486 N   0  0  0  0  0  0  0  0  0  0  0  0
   18.7091  -24.7292   -9.5585 C   0  0  0  0  0  0  0  0  0  0  0  0
   17.9820  -23.7190   -9.3980 O   0  0  0  0  0  0  0  0  0  0  0  0
   23.9532  -23.5174  -16.4329 N   0  0  0  0  0  0  0  0  0  0  0  0
   23.7653  -24.1320  -15.1683 C   0  0  0  0  0  0  0  0  0  0  0  0
   24.6276  -24.9515  -14.6801 N   0  0  0  0  0  0  0  0  0  0  0  0
   22.5986  -23.8675  -14.3703 N   0  0  0  0  0  0  0  0  0  0  0  0
   21.4386  -23.1884  -14.8421 C   0  0  0  0  0  0  0  0  0  0  0  0
   20.3554  -22.9653  -13.8382 C   0  0  0  0  0  0  0  0  0  0  0  0
   20.5246  -24.0431  -12.7676 C   0  0  0  0  0  0  0  0  0  0  0  0
   19.3723  -23.8929  -11.7854 C   0  0  2  0  0  0  0  0  0  0  0  0
   19.4947  -24.8657  -10.7210 N   0  0  0  0  0  0  0  0  0  0  0  0
   18.0591  -24.0578  -12.5024 C   0  0  0  0  0  0  0  0  0  0  0  0
   17.6829  -25.1526  -12.9520 O   0  0  0  0  0  0  0  0  0  0  0  0
   24.4332  -25.4188  -13.7801 O   0  0  0  0  0  0  0  0  0  0  0  0
   15.4008  -20.9614  -12.0521 C   0  0  0  0  0  0  0  0  0  0  0  0
   14.9571  -22.2293  -12.4340 C   0  0  1  0  0  0  0  0  0  0  0  0
   15.9591  -22.9333  -13.3317 N   0  0  0  0  0  0  0  0  0  0  0  0
   17.2271  -22.9352  -12.6706 C   0  0  0  0  0  0  0  0  0  0  0  0
   15.9558  -22.2692  -14.6327 O   0  0  0  0  0  0  0  0  0  0  0  0
   16.9927  -21.7098  -15.0577 O   0  0  0  0  0  0  0  0  0  0  0  0
  2  1  1  1
  3  2  1  0
  4  2  1  0
  4  5  1  1
  6  7  2  0
  6  4  1  0
  9  8  1  0
  9 11  1  0
 10  9  2  0
 12 11  1  0
 13 14  1  0
 13 12  1  0
 15 14  1  6
 15 16  1  0
 16  6  1  0
 17 15  1  0
 18 17  2  0
 19 20  1  0
 21 20  1  1
 21 22  1  0
 22 17  1  0
 23 21  1  0
 24 23  2  0
 25 23  1  0
M  END
$$$$
