TRS.pdb
     RDKit          3D

 25 24  0  0  1  0  0  0  0  0999 V2000
   24.7630  -12.7793  -19.3885 C   0  0  0  0  0  0  0  0  0  0  0  0
   24.5019  -14.1352  -18.8218 C   0  0  1  0  0  0  0  0  0  0  0  0
   23.3001  -14.6986  -19.1884 O   0  0  0  0  0  0  0  0  0  0  0  0
   25.6555  -15.1102  -19.0754 C   0  0  2  0  0  0  0  0  0  0  0  0
   25.7581  -15.4531  -20.4625 N   0  0  0  0  0  0  0  0  0  0  0  0
   25.3525  -16.3230  -18.2963 C   0  0  0  0  0  0  0  0  0  0  0  0
   24.9308  -17.3623  -18.8594 O   0  0  0  0  0  0  0  0  0  0  0  0
   25.9698  -21.1006  -11.1457 N   0  0  0  0  0  0  0  0  0  0  0  0
   27.1242  -21.0235  -11.9664 C   0  0  0  0  0  0  0  0  0  0  0  0
   27.9083  -22.0300  -12.1265 N   0  0  0  0  0  0  0  0  0  0  0  0
   27.4736  -19.8132  -12.6600 N   0  0  0  0  0  0  0  0  0  0  0  0
   26.6047  -18.6948  -12.8136 C   0  0  0  0  0  0  0  0  0  0  0  0
   25.7368  -18.7005  -14.0291 C   0  0  0  0  0  0  0  0  0  0  0  0
   26.1301  -17.4734  -14.8513 C   0  0  0  0  0  0  0  0  0  0  0  0
   25.2893  -17.4872  -16.1193 C   0  0  2  0  0  0  0  0  0  0  0  0
   25.5452  -16.2959  -16.9001 N   0  0  0  0  0  0  0  0  0  0  0  0
   23.8288  -17.5844  -15.7682 C   0  0  0  0  0  0  0  0  0  0  0  0
   23.2144  -16.6510  -15.2264 O   0  0  0  0  0  0  0  0  0  0  0  0
   28.7813  -21.9146  -12.6658 O   0  0  0  0  0  0  0  0  0  0  0  0
   20.3745  -19.3063  -13.7575 C   0  0  0  0  0  0  0  0  0  0  0  0
   21.6459  -18.9353  -14.2003 C   0  0  2  0  0  0  0  0  0  0  0  0
   21.7754  -19.0480  -15.7090 N   0  0  0  0  0  0  0  0  0  0  0  0
   23.1331  -18.7718  -16.0628 C   0  0  0  0  0  0  0  0  0  0  0  0
   20.7963  -18.1540  -16.3219 O   0  0  0  0  0  0  0  0  0  0  0  0
   21.1601  -17.0580  -16.8069 O   0  0  0  0  0  0  0  0  0  0  0  0
  2  1  1  6
  3  2  1  0
  4  2  1  0
  4  5  1  6
  6  7  2  0
  6  4  1  0
  9  8  1  0
  9 11  1  0
 10  9  2  0
 12 11  1  0
 13 14  1  0
 13 12  1  0
 15 14  1  1
 15 16  1  0
 16  6  1  0
 17 15  1  0
 18 17  2  0
 19 20  1  0
 21 20  1  1
 21 22  1  0
 22 17  1  0
 23 21  1  0
 24 23  2  0
 25 23  1  0
M  END
$$$$
