TRS.pdb
     RDKit          3D

 25 24  0  0  1  0  0  0  0  0999 V2000
   24.7033  -14.5293  -15.4052 C   0  0  0  0  0  0  0  0  0  0  0  0
   25.5673  -14.4794  -16.6212 C   0  0  1  0  0  0  0  0  0  0  0  0
   25.8990  -13.2134  -17.0491 O   0  0  0  0  0  0  0  0  0  0  0  0
   26.8201  -15.3504  -16.4880 C   0  0  2  0  0  0  0  0  0  0  0  0
   27.6121  -15.3174  -17.6813 N   0  0  0  0  0  0  0  0  0  0  0  0
   26.3464  -16.7260  -16.2573 C   0  0  0  0  0  0  0  0  0  0  0  0
   25.8540  -17.4034  -17.1920 O   0  0  0  0  0  0  0  0  0  0  0  0
   28.1771  -21.7813   -9.5353 N   0  0  0  0  0  0  0  0  0  0  0  0
   28.7152  -21.5409  -10.8256 C   0  0  0  0  0  0  0  0  0  0  0  0
   29.9432  -21.8003  -11.1051 N   0  0  0  0  0  0  0  0  0  0  0  0
   27.9110  -20.9939  -11.8850 N   0  0  0  0  0  0  0  0  0  0  0  0
   26.4893  -21.0668  -11.9351 C   0  0  0  0  0  0  0  0  0  0  0  0
   25.8464  -20.5026  -13.1596 C   0  0  0  0  0  0  0  0  0  0  0  0
   26.5444  -19.1731  -13.4452 C   0  0  0  0  0  0  0  0  0  0  0  0
   25.8950  -18.5758  -14.6848 C   0  0  2  0  0  0  0  0  0  0  0  0
   26.4562  -17.2710  -14.9619 N   0  0  0  0  0  0  0  0  0  0  0  0
   24.4055  -18.4792  -14.4905 C   0  0  0  0  0  0  0  0  0  0  0  0
   23.8948  -17.7164  -13.6540 O   0  0  0  0  0  0  0  0  0  0  0  0
   30.3050  -21.5934  -12.0499 O   0  0  0  0  0  0  0  0  0  0  0  0
   20.2255  -19.6456  -16.6855 C   0  0  0  0  0  0  0  0  0  0  0  0
   21.6203  -19.6705  -16.6203 C   0  0  2  0  0  0  0  0  0  0  0  0
   22.1306  -19.2602  -15.2504 N   0  0  0  0  0  0  0  0  0  0  0  0
   23.5601  -19.2789  -15.2821 C   0  0  0  0  0  0  0  0  0  0  0  0
   21.5356  -20.1473  -14.2542 O   0  0  0  0  0  0  0  0  0  0  0  0
   22.0954  -21.2277  -13.9574 O   0  0  0  0  0  0  0  0  0  0  0  0
  2  1  1  1
  3  2  1  0
  4  2  1  0
  4  5  1  6
  6  7  2  0
  6  4  1  0
  9  8  1  0
  9 11  1  0
 10  9  2  0
 12 11  1  0
 13 14  1  0
 13 12  1  0
 15 14  1  1
 15 16  1  0
 16  6  1  0
 17 15  1  0
 18 17  2  0
 19 20  1  0
 21 20  1  6
 21 22  1  0
 22 17  1  0
 23 21  1  0
 24 23  2  0
 25 23  1  0
M  END
$$$$
