TRS.pdb
     RDKit          3D

 25 24  0  0  1  0  0  0  0  0999 V2000
   22.3123  -21.2432  -12.3420 C   0  0  0  0  0  0  0  0  0  0  0  0
   22.6645  -20.7198  -10.9893 C   0  0  1  0  0  0  0  0  0  0  0  0
   21.8232  -21.1161   -9.9737 O   0  0  0  0  0  0  0  0  0  0  0  0
   24.1254  -20.9895  -10.6170 C   0  0  2  0  0  0  0  0  0  0  0  0
   24.4077  -20.5860   -9.2718 N   0  0  0  0  0  0  0  0  0  0  0  0
   24.9442  -20.1912  -11.5455 C   0  0  0  0  0  0  0  0  0  0  0  0
   25.3066  -19.0272  -11.2478 O   0  0  0  0  0  0  0  0  0  0  0  0
   31.2331  -20.2769  -11.1599 N   0  0  0  0  0  0  0  0  0  0  0  0
   31.0027  -21.6570  -11.3932 C   0  0  0  0  0  0  0  0  0  0  0  0
   31.4520  -22.5615  -10.5974 N   0  0  0  0  0  0  0  0  0  0  0  0
   30.2540  -22.1114  -12.5339 N   0  0  0  0  0  0  0  0  0  0  0  0
   29.6105  -21.2503  -13.4685 C   0  0  0  0  0  0  0  0  0  0  0  0
   28.3512  -20.5978  -13.0000 C   0  0  0  0  0  0  0  0  0  0  0  0
   27.3379  -20.7404  -14.1355 C   0  0  0  0  0  0  0  0  0  0  0  0
   26.0856  -19.9799  -13.7253 C   0  0  2  0  0  0  0  0  0  0  0  0
   25.3155  -20.7603  -12.7806 N   0  0  0  0  0  0  0  0  0  0  0  0
   25.2582  -19.6558  -14.9403 C   0  0  0  0  0  0  0  0  0  0  0  0
   24.5984  -20.5191  -15.5417 O   0  0  0  0  0  0  0  0  0  0  0  0
   31.2631  -23.5564  -10.7988 O   0  0  0  0  0  0  0  0  0  0  0  0
   24.4570  -15.6059  -15.7199 C   0  0  0  0  0  0  0  0  0  0  0  0
   24.8522  -16.4138  -16.7883 C   0  0  2  0  0  0  0  0  0  0  0  0
   24.5010  -17.8725  -16.5554 N   0  0  0  0  0  0  0  0  0  0  0  0
   25.2293  -18.3306  -15.4133 C   0  0  0  0  0  0  0  0  0  0  0  0
   24.7747  -18.6126  -17.7846 O   0  0  0  0  0  0  0  0  0  0  0  0
   25.9534  -18.8909  -18.1038 O   0  0  0  0  0  0  0  0  0  0  0  0
  2  1  1  6
  3  2  1  0
  4  2  1  0
  4  5  1  1
  6  7  2  0
  6  4  1  0
  9  8  1  0
  9 11  1  0
 10  9  2  0
 12 11  1  0
 13 14  1  0
 13 12  1  0
 15 14  1  6
 15 16  1  0
 16  6  1  0
 17 15  1  0
 18 17  2  0
 19 20  1  0
 21 20  1  1
 21 22  1  0
 22 17  1  0
 23 21  1  0
 24 23  2  0
 25 23  1  0
M  END
$$$$
