TRS.pdb
     RDKit          3D

 25 24  0  0  1  0  0  0  0  0999 V2000
   18.3393  -20.6034  -13.6898 C   0  0  0  0  0  0  0  0  0  0  0  0
   17.0874  -20.8291  -14.4704 C   0  0  1  0  0  0  0  0  0  0  0  0
   16.6608  -19.7506  -15.2127 O   0  0  0  0  0  0  0  0  0  0  0  0
   17.1551  -22.0895  -15.3380 C   0  0  2  0  0  0  0  0  0  0  0  0
   15.9301  -22.3041  -16.0490 N   0  0  0  0  0  0  0  0  0  0  0  0
   17.3858  -23.2154  -14.4167 C   0  0  0  0  0  0  0  0  0  0  0  0
   16.4545  -23.6704  -13.7091 O   0  0  0  0  0  0  0  0  0  0  0  0
   23.8679  -28.2791  -16.0276 N   0  0  0  0  0  0  0  0  0  0  0  0
   23.3648  -27.0212  -16.4478 C   0  0  0  0  0  0  0  0  0  0  0  0
   24.0024  -26.2840  -17.2865 N   0  0  0  0  0  0  0  0  0  0  0  0
   22.1148  -26.5091  -15.9544 N   0  0  0  0  0  0  0  0  0  0  0  0
   21.1949  -27.2569  -15.1647 C   0  0  0  0  0  0  0  0  0  0  0  0
   19.9127  -26.5703  -14.8249 C   0  0  0  0  0  0  0  0  0  0  0  0
   20.2424  -25.5413  -13.7439 C   0  0  0  0  0  0  0  0  0  0  0  0
   18.9475  -24.8271  -13.3861 C   0  0  2  0  0  0  0  0  0  0  0  0
   18.6772  -23.7758  -14.3432 N   0  0  0  0  0  0  0  0  0  0  0  0
   19.0381  -24.2624  -11.9937 C   0  0  0  0  0  0  0  0  0  0  0  0
   19.5786  -23.1699  -11.7560 O   0  0  0  0  0  0  0  0  0  0  0  0
   23.5993  -25.3793  -17.5783 O   0  0  0  0  0  0  0  0  0  0  0  0
   16.9210  -24.0256   -7.7900 C   0  0  0  0  0  0  0  0  0  0  0  0
   17.0279  -24.4175   -9.1262 C   0  0  1  0  0  0  0  0  0  0  0  0
   18.4755  -24.5777   -9.5552 N   0  0  0  0  0  0  0  0  0  0  0  0
   18.4927  -24.9949  -10.9228 C   0  0  0  0  0  0  0  0  0  0  0  0
   19.1284  -25.5024   -8.6320 O   0  0  0  0  0  0  0  0  0  0  0  0
   19.2670  -25.1960   -7.4255 O   0  0  0  0  0  0  0  0  0  0  0  0
  2  1  1  6
  3  2  1  0
  4  2  1  0
  4  5  1  1
  6  7  2  0
  6  4  1  0
  9  8  1  0
  9 11  1  0
 10  9  2  0
 12 11  1  0
 13 14  1  0
 13 12  1  0
 15 14  1  6
 15 16  1  0
 16  6  1  0
 17 15  1  0
 18 17  2  0
 19 20  1  0
 21 20  1  6
 21 22  1  0
 22 17  1  0
 23 21  1  0
 24 23  2  0
 25 23  1  0
M  END
$$$$
