YYT.pdb
     RDKit          3D

 32 33  0  0  1  0  0  0  0  0999 V2000
   23.2388  -34.1002   12.5492 O   0  0  0  0  0  0  0  0  0  0  0  0
   23.7583  -33.7732   11.2933 C   0  0  0  0  0  0  0  0  0  0  0  0
   23.0269  -33.0490   10.3758 C   0  0  0  0  0  0  0  0  0  0  0  0
   23.5393  -32.7259    9.1358 C   0  0  0  0  0  0  0  0  0  0  0  0
   24.8187  -33.1211    8.7644 C   0  0  0  0  0  0  0  0  0  0  0  0
   25.3433  -32.7684    7.4442 C   0  0  0  0  0  0  0  0  0  0  0  0
   26.3764  -31.6618    7.5333 C   0  0  2  0  0  0  0  0  0  0  0  0
   25.6568  -30.4015    7.5470 N   0  0  0  0  0  0  0  0  0  0  0  0
   27.2761  -31.6732    6.3786 C   0  0  0  0  0  0  0  0  0  0  0  0
   27.0938  -30.9102    5.3882 O   0  0  0  0  0  0  0  0  0  0  0  0
   25.5240  -33.8439    9.7042 C   0  0  0  0  0  0  0  0  0  0  0  0
   25.0286  -34.1752   10.9462 C   0  0  0  0  0  0  0  0  0  0  0  0
   34.6578  -32.6892    1.5132 O   0  0  0  0  0  0  0  0  0  0  0  0
   33.7040  -32.6436    2.5344 C   0  0  0  0  0  0  0  0  0  0  0  0
   33.0968  -31.4504    2.8620 C   0  0  0  0  0  0  0  0  0  0  0  0
   32.1522  -31.3566    3.8598 C   0  0  0  0  0  0  0  0  0  0  0  0
   31.7760  -32.4805    4.5789 C   0  0  0  0  0  0  0  0  0  0  0  0
   30.7848  -32.4846    5.6535 C   0  0  0  0  0  0  0  0  0  0  0  0
   29.3587  -32.4624    5.1865 C   0  0  2  0  0  0  0  0  0  0  0  0
   28.4182  -32.5369    6.2800 N   0  0  0  0  0  0  0  0  0  0  0  0
   29.1873  -33.5864    4.2295 C   0  0  0  0  0  0  0  0  0  0  0  0
   29.2122  -34.7771    4.6273 O   0  0  0  0  0  0  0  0  0  0  0  0
   32.3866  -33.6713    4.2470 C   0  0  0  0  0  0  0  0  0  0  0  0
   33.3403  -33.7680    3.2401 C   0  0  0  0  0  0  0  0  0  0  0  0
   26.4279  -34.4151    1.9983 C   0  0  0  0  0  0  0  0  0  0  0  0
   27.6260  -34.2803    1.0833 C   0  0  1  0  0  0  0  0  0  0  0  0
   27.6244  -32.9681    0.6082 O   0  0  0  0  0  0  0  0  0  0  0  0
   28.8727  -34.4935    1.9113 C   0  0  2  0  0  0  0  0  0  0  0  0
   28.9896  -33.3757    2.8378 N   0  0  0  0  0  0  0  0  0  0  0  0
   30.0827  -34.5571    1.0860 C   0  0  0  0  0  0  0  0  0  0  0  0
   30.3227  -35.5555    0.3627 O   0  0  0  0  0  0  0  0  0  0  0  0
   30.9712  -33.4995    1.1069 O   0  0  0  0  0  0  0  0  0  0  0  0
  2 12  2  0
  2  1  1  0
  3  2  1  0
  4  5  1  0
  4  3  2  0
  5 11  2  0
  6  5  1  0
  7  9  1  0
  7  6  1  0
  7  8  1  6
  9 10  2  0
 11 12  1  0
 14 15  2  0
 14 13  1  0
 16 15  1  0
 17 16  2  0
 19 18  1  1
 18 17  1  0
 20 19  1  0
 20  9  1  0
 21 22  2  0
 21 19  1  0
 23 17  1  0
 23 24  2  0
 24 14  1  0
 26 25  1  1
 26 28  1  0
 27 26  1  0
 28 30  1  0
 28 29  1  1
 29 21  1  0
 30 32  1  0
 31 30  2  0
M  END
$$$$
