YYT.pdb
     RDKit          3D

 32 33  0  0  1  0  0  0  0  0999 V2000
   16.0979  -14.8030  -15.6953 O   0  0  0  0  0  0  0  0  0  0  0  0
   16.9097  -13.6683  -15.7818 C   0  0  0  0  0  0  0  0  0  0  0  0
   18.2502  -13.7135  -15.4618 C   0  0  0  0  0  0  0  0  0  0  0  0
   19.0521  -12.5936  -15.5471 C   0  0  0  0  0  0  0  0  0  0  0  0
   18.5348  -11.3722  -15.9611 C   0  0  0  0  0  0  0  0  0  0  0  0
   19.4024  -10.1962  -16.0445 C   0  0  0  0  0  0  0  0  0  0  0  0
   19.7060   -9.8295  -17.4844 C   0  0  2  0  0  0  0  0  0  0  0  0
   20.7047  -10.7664  -17.9654 N   0  0  0  0  0  0  0  0  0  0  0  0
   20.2482   -8.4740  -17.5902 C   0  0  0  0  0  0  0  0  0  0  0  0
   21.4691   -8.2293  -17.3757 O   0  0  0  0  0  0  0  0  0  0  0  0
   17.1912  -11.3604  -16.2739 C   0  0  0  0  0  0  0  0  0  0  0  0
   16.3761  -12.4681  -16.1946 C   0  0  0  0  0  0  0  0  0  0  0  0
   21.2292   -7.6832  -24.2062 O   0  0  0  0  0  0  0  0  0  0  0  0
   20.8101   -7.0989  -23.0072 C   0  0  0  0  0  0  0  0  0  0  0  0
   19.6687   -7.5491  -22.3794 C   0  0  0  0  0  0  0  0  0  0  0  0
   19.2170   -7.0049  -21.1977 C   0  0  0  0  0  0  0  0  0  0  0  0
   19.9096   -5.9679  -20.5918 C   0  0  0  0  0  0  0  0  0  0  0  0
   19.5131   -5.3251  -19.3402 C   0  0  0  0  0  0  0  0  0  0  0  0
   20.0106   -6.0116  -18.1017 C   0  0  2  0  0  0  0  0  0  0  0  0
   19.4507   -7.3331  -17.9400 N   0  0  0  0  0  0  0  0  0  0  0  0
   19.6945   -5.1299  -16.9479 C   0  0  0  0  0  0  0  0  0  0  0  0
   18.5050   -4.8423  -16.6672 O   0  0  0  0  0  0  0  0  0  0  0  0
   21.0506   -5.5217  -21.2242 C   0  0  0  0  0  0  0  0  0  0  0  0
   21.5081   -6.0697  -22.4170 C   0  0  0  0  0  0  0  0  0  0  0  0
   22.5083   -4.5761  -13.9856 C   0  0  0  0  0  0  0  0  0  0  0  0
   21.0160   -4.5273  -13.7377 C   0  0  1  0  0  0  0  0  0  0  0  0
   20.8228   -3.7510  -12.5942 O   0  0  0  0  0  0  0  0  0  0  0  0
   20.3699   -3.8281  -14.9120 C   0  0  2  0  0  0  0  0  0  0  0  0
   20.7052   -4.5758  -16.1161 N   0  0  0  0  0  0  0  0  0  0  0  0
   20.8390   -2.4473  -15.0622 C   0  0  0  0  0  0  0  0  0  0  0  0
   20.5604   -1.5709  -14.2066 O   0  0  0  0  0  0  0  0  0  0  0  0
   21.5999   -2.1082  -16.1642 O   0  0  0  0  0  0  0  0  0  0  0  0
  2 12  2  0
  2  1  1  0
  3  2  1  0
  4  5  1  0
  4  3  2  0
  5 11  2  0
  6  5  1  0
  7  9  1  0
  7  6  1  0
  7  8  1  1
  9 10  2  0
 11 12  1  0
 14 15  2  0
 14 13  1  0
 16 15  1  0
 17 16  2  0
 19 18  1  6
 18 17  1  0
 20 19  1  0
 20  9  1  0
 21 22  2  0
 21 19  1  0
 23 17  1  0
 23 24  2  0
 24 14  1  0
 26 25  1  6
 26 28  1  0
 27 26  1  0
 28 30  1  0
 28 29  1  6
 29 21  1  0
 30 32  1  0
 31 30  2  0
M  END
$$$$
