YYT.pdb
     RDKit          3D

 32 33  0  0  1  0  0  0  0  0999 V2000
   29.6778  -21.4857   -7.8912 O   0  0  0  0  0  0  0  0  0  0  0  0
   28.8105  -21.2326   -8.9579 C   0  0  0  0  0  0  0  0  0  0  0  0
   27.4542  -21.0766   -8.7643 C   0  0  0  0  0  0  0  0  0  0  0  0
   26.5976  -20.8268   -9.8171 C   0  0  0  0  0  0  0  0  0  0  0  0
   27.0735  -20.7228  -11.1185 C   0  0  0  0  0  0  0  0  0  0  0  0
   26.1479  -20.4576  -12.2211 C   0  0  0  0  0  0  0  0  0  0  0  0
   24.9752  -21.4190  -12.2067 C   0  0  2  0  0  0  0  0  0  0  0  0
   25.4942  -22.7355  -12.5287 N   0  0  0  0  0  0  0  0  0  0  0  0
   23.9708  -21.0555  -13.2077 C   0  0  0  0  0  0  0  0  0  0  0  0
   23.7896  -21.7494  -14.2479 O   0  0  0  0  0  0  0  0  0  0  0  0
   28.4342  -20.8837  -11.2784 C   0  0  0  0  0  0  0  0  0  0  0  0
   29.3038  -21.1334  -10.2396 C   0  0  0  0  0  0  0  0  0  0  0  0
   18.8827  -23.6119   -9.7572 O   0  0  0  0  0  0  0  0  0  0  0  0
   19.3386  -22.5722  -10.5730 C   0  0  0  0  0  0  0  0  0  0  0  0
   19.3053  -22.7029  -11.9447 C   0  0  0  0  0  0  0  0  0  0  0  0
   19.7434  -21.7063  -12.7884 C   0  0  0  0  0  0  0  0  0  0  0  0
   20.2406  -20.5188  -12.2742 C   0  0  0  0  0  0  0  0  0  0  0  0
   20.7280  -19.4036  -13.0841 C   0  0  0  0  0  0  0  0  0  0  0  0
   21.9466  -19.7139  -13.9034 C   0  0  2  0  0  0  0  0  0  0  0  0
   23.1256  -19.9014  -13.0905 N   0  0  0  0  0  0  0  0  0  0  0  0
   22.1172  -18.6084  -14.8819 C   0  0  0  0  0  0  0  0  0  0  0  0
   22.3782  -17.4430  -14.4941 O   0  0  0  0  0  0  0  0  0  0  0  0
   20.2715  -20.3935  -10.9015 C   0  0  0  0  0  0  0  0  0  0  0  0
   19.8299  -21.3982  -10.0483 C   0  0  0  0  0  0  0  0  0  0  0  0
   24.4151  -18.2639  -17.8724 C   0  0  0  0  0  0  0  0  0  0  0  0
   22.9893  -18.1663  -18.3707 C   0  0  1  0  0  0  0  0  0  0  0  0
   22.5993  -19.4569  -18.7310 O   0  0  0  0  0  0  0  0  0  0  0  0
   22.1234  -17.7023  -17.2217 C   0  0  2  0  0  0  0  0  0  0  0  0
   21.9958  -18.8093  -16.2838 N   0  0  0  0  0  0  0  0  0  0  0  0
   20.7861  -17.2955  -17.6638 C   0  0  0  0  0  0  0  0  0  0  0  0
   19.7617  -17.9183  -17.2891 O   0  0  0  0  0  0  0  0  0  0  0  0
   20.6544  -16.2087  -18.5063 O   0  0  0  0  0  0  0  0  0  0  0  0
  2 12  2  0
  2  1  1  0
  3  2  1  0
  4  5  1  0
  4  3  2  0
  5 11  2  0
  6  5  1  0
  7  9  1  0
  7  6  1  0
  7  8  1  6
  9 10  2  0
 11 12  1  0
 14 15  2  0
 14 13  1  0
 16 15  1  0
 17 16  2  0
 19 18  1  1
 18 17  1  0
 20 19  1  0
 20  9  1  0
 21 22  2  0
 21 19  1  0
 23 17  1  0
 23 24  2  0
 24 14  1  0
 26 25  1  1
 26 28  1  0
 27 26  1  0
 28 30  1  0
 28 29  1  1
 29 21  1  0
 30 32  1  0
 31 30  2  0
M  END
$$$$
