YYT.pdb
     RDKit          3D

 32 33  0  0  1  0  0  0  0  0999 V2000
   21.6446  -28.7829   -9.9053 O   0  0  0  0  0  0  0  0  0  0  0  0
   22.4702  -29.7893   -9.3958 C   0  0  0  0  0  0  0  0  0  0  0  0
   23.4211  -29.5246   -8.4330 C   0  0  0  0  0  0  0  0  0  0  0  0
   24.2364  -30.5178   -7.9298 C   0  0  0  0  0  0  0  0  0  0  0  0
   24.1282  -31.8288   -8.3777 C   0  0  0  0  0  0  0  0  0  0  0  0
   25.0029  -32.8674   -7.8311 C   0  0  0  0  0  0  0  0  0  0  0  0
   26.4010  -32.7802   -8.4121 C   0  0  2  0  0  0  0  0  0  0  0  0
   26.3232  -33.2304   -9.7896 N   0  0  0  0  0  0  0  0  0  0  0  0
   27.3369  -33.6442   -7.6907 C   0  0  0  0  0  0  0  0  0  0  0  0
   27.5897  -34.8193   -8.0801 O   0  0  0  0  0  0  0  0  0  0  0  0
   23.1679  -32.0604   -9.3407 C   0  0  0  0  0  0  0  0  0  0  0  0
   22.3457  -31.0817   -9.8541 C   0  0  0  0  0  0  0  0  0  0  0  0
   34.3242  -36.4369   -3.0734 O   0  0  0  0  0  0  0  0  0  0  0  0
   33.3141  -35.6623   -3.6516 C   0  0  0  0  0  0  0  0  0  0  0  0
   32.2974  -35.1556   -2.8710 C   0  0  0  0  0  0  0  0  0  0  0  0
   31.2814  -34.3879   -3.3956 C   0  0  0  0  0  0  0  0  0  0  0  0
   31.2495  -34.0958   -4.7504 C   0  0  0  0  0  0  0  0  0  0  0  0
   30.2170  -33.2914   -5.4017 C   0  0  0  0  0  0  0  0  0  0  0  0
   29.0114  -34.0663   -5.8470 C   0  0  2  0  0  0  0  0  0  0  0  0
   28.0309  -33.2334   -6.5034 N   0  0  0  0  0  0  0  0  0  0  0  0
   28.4512  -34.7435   -4.6485 C   0  0  0  0  0  0  0  0  0  0  0  0
   27.9491  -34.0764   -3.7107 O   0  0  0  0  0  0  0  0  0  0  0  0
   32.2690  -34.6052   -5.5264 C   0  0  0  0  0  0  0  0  0  0  0  0
   33.2953  -35.3803   -4.9988 C   0  0  0  0  0  0  0  0  0  0  0  0
   26.0218  -37.7137   -4.5412 C   0  0  0  0  0  0  0  0  0  0  0  0
   27.2458  -38.0798   -3.7297 C   0  0  1  0  0  0  0  0  0  0  0  0
   28.1004  -38.7792   -4.5830 O   0  0  0  0  0  0  0  0  0  0  0  0
   27.9267  -36.7981   -3.3071 C   0  0  2  0  0  0  0  0  0  0  0  0
   28.4546  -36.1575   -4.5040 N   0  0  0  0  0  0  0  0  0  0  0  0
   29.0281  -37.0379   -2.3697 C   0  0  0  0  0  0  0  0  0  0  0  0
   30.2184  -36.8001   -2.6929 O   0  0  0  0  0  0  0  0  0  0  0  0
   28.7483  -37.5337   -1.1110 O   0  0  0  0  0  0  0  0  0  0  0  0
  2 12  2  0
  2  1  1  0
  3  2  1  0
  4  5  1  0
  4  3  2  0
  5 11  2  0
  6  5  1  0
  7  9  1  0
  7  6  1  0
  7  8  1  6
  9 10  2  0
 11 12  1  0
 14 15  2  0
 14 13  1  0
 16 15  1  0
 17 16  2  0
 19 18  1  1
 18 17  1  0
 20 19  1  0
 20  9  1  0
 21 22  2  0
 21 19  1  0
 23 17  1  0
 23 24  2  0
 24 14  1  0
 26 25  1  6
 26 28  1  0
 27 26  1  0
 28 30  1  0
 28 29  1  6
 29 21  1  0
 30 32  1  0
 31 30  2  0
M  END
$$$$
