YYT.pdb
     RDKit          3D

 32 33  0  0  1  0  0  0  0  0999 V2000
   31.3077  -20.9535  -22.7486 O   0  0  0  0  0  0  0  0  0  0  0  0
   30.4469  -21.2576  -21.6900 C   0  0  0  0  0  0  0  0  0  0  0  0
   30.1962  -22.5606  -21.3148 C   0  0  0  0  0  0  0  0  0  0  0  0
   29.3465  -22.8613  -20.2698 C   0  0  0  0  0  0  0  0  0  0  0  0
   28.7088  -21.8560  -19.5532 C   0  0  0  0  0  0  0  0  0  0  0  0
   27.8111  -22.1964  -18.4482 C   0  0  0  0  0  0  0  0  0  0  0  0
   28.5814  -22.4878  -17.1749 C   0  0  2  0  0  0  0  0  0  0  0  0
   29.1906  -23.7959  -17.3305 N   0  0  0  0  0  0  0  0  0  0  0  0
   27.6975  -22.5202  -16.0084 C   0  0  0  0  0  0  0  0  0  0  0  0
   27.1840  -23.5981  -15.5950 O   0  0  0  0  0  0  0  0  0  0  0  0
   28.9805  -20.5640  -19.9531 C   0  0  0  0  0  0  0  0  0  0  0  0
   29.8255  -20.2454  -20.9934 C   0  0  0  0  0  0  0  0  0  0  0  0
   23.6780  -20.5913   -8.3582 O   0  0  0  0  0  0  0  0  0  0  0  0
   24.4744  -20.5568   -9.5066 C   0  0  0  0  0  0  0  0  0  0  0  0
   25.6015  -21.3456   -9.5916 C   0  0  0  0  0  0  0  0  0  0  0  0
   26.4163  -21.3453  -10.7020 C   0  0  0  0  0  0  0  0  0  0  0  0
   26.1223  -20.5363  -11.7887 C   0  0  0  0  0  0  0  0  0  0  0  0
   26.9221  -20.4650  -13.0104 C   0  0  0  0  0  0  0  0  0  0  0  0
   26.4810  -21.3984  -14.0998 C   0  0  2  0  0  0  0  0  0  0  0  0
   27.3490  -21.3505  -15.2532 N   0  0  0  0  0  0  0  0  0  0  0  0
   25.0790  -21.0466  -14.4452 C   0  0  0  0  0  0  0  0  0  0  0  0
   24.8167  -19.9807  -15.0549 O   0  0  0  0  0  0  0  0  0  0  0  0
   24.9938  -19.7494  -11.6982 C   0  0  0  0  0  0  0  0  0  0  0  0
   24.1702  -19.7483  -10.5784 C   0  0  0  0  0  0  0  0  0  0  0  0
   22.8587  -23.0679  -16.4335 C   0  0  0  0  0  0  0  0  0  0  0  0
   22.0370  -22.7760  -15.1963 C   0  0  1  0  0  0  0  0  0  0  0  0
   22.1875  -23.8717  -14.3451 O   0  0  0  0  0  0  0  0  0  0  0  0
   22.6234  -21.5562  -14.5230 C   0  0  2  0  0  0  0  0  0  0  0  0
   23.9809  -21.8841  -14.1092 N   0  0  0  0  0  0  0  0  0  0  0  0
   21.8517  -21.1477  -13.3454 C   0  0  0  0  0  0  0  0  0  0  0  0
   22.3363  -21.2354  -12.1899 O   0  0  0  0  0  0  0  0  0  0  0  0
   20.5707  -20.6586  -13.5133 O   0  0  0  0  0  0  0  0  0  0  0  0
  2 12  2  0
  2  1  1  0
  3  2  1  0
  4  5  1  0
  4  3  2  0
  5 11  2  0
  6  5  1  0
  7  9  1  0
  7  6  1  0
  7  8  1  6
  9 10  2  0
 11 12  1  0
 14 15  2  0
 14 13  1  0
 16 15  1  0
 17 16  2  0
 19 18  1  1
 18 17  1  0
 20 19  1  0
 20  9  1  0
 21 22  2  0
 21 19  1  0
 23 17  1  0
 23 24  2  0
 24 14  1  0
 26 25  1  6
 26 28  1  0
 27 26  1  0
 28 30  1  0
 28 29  1  1
 29 21  1  0
 30 32  1  0
 31 30  2  0
M  END
$$$$
