YYT.pdb
     RDKit          3D

 32 33  0  0  1  0  0  0  0  0999 V2000
   26.2717  -20.4862  -25.0487 O   0  0  0  0  0  0  0  0  0  0  0  0
   26.1267  -20.8179  -23.6985 C   0  0  0  0  0  0  0  0  0  0  0  0
   27.1968  -20.7905  -22.8294 C   0  0  0  0  0  0  0  0  0  0  0  0
   27.0542  -21.1179  -21.4964 C   0  0  0  0  0  0  0  0  0  0  0  0
   25.8195  -21.4894  -20.9782 C   0  0  0  0  0  0  0  0  0  0  0  0
   25.6897  -21.8332  -19.5613 C   0  0  0  0  0  0  0  0  0  0  0  0
   24.8344  -20.8240  -18.8199 C   0  0  2  0  0  0  0  0  0  0  0  0
   25.5761  -19.5771  -18.7818 N   0  0  0  0  0  0  0  0  0  0  0  0
   24.5695  -21.2519  -17.4453 C   0  0  0  0  0  0  0  0  0  0  0  0
   24.1410  -22.4110  -17.1823 O   0  0  0  0  0  0  0  0  0  0  0  0
   24.7697  -21.5068  -21.8731 C   0  0  0  0  0  0  0  0  0  0  0  0
   24.8937  -21.1832  -23.2064 C   0  0  0  0  0  0  0  0  0  0  0  0
   24.0663  -21.6807   -8.5954 O   0  0  0  0  0  0  0  0  0  0  0  0
   24.3670  -21.3069   -9.9085 C   0  0  0  0  0  0  0  0  0  0  0  0
   25.3669  -21.9550  -10.6013 C   0  0  0  0  0  0  0  0  0  0  0  0
   25.6986  -21.6218  -11.8958 C   0  0  0  0  0  0  0  0  0  0  0  0
   25.0242  -20.6051  -12.5542 C   0  0  0  0  0  0  0  0  0  0  0  0
   25.3007  -20.1780  -13.9248 C   0  0  0  0  0  0  0  0  0  0  0  0
   24.4177  -20.8056  -14.9635 C   0  0  2  0  0  0  0  0  0  0  0  0
   24.7717  -20.4040  -16.3050 N   0  0  0  0  0  0  0  0  0  0  0  0
   23.0148  -20.4473  -14.6289 C   0  0  0  0  0  0  0  0  0  0  0  0
   22.6750  -19.2466  -14.4898 O   0  0  0  0  0  0  0  0  0  0  0  0
   24.0251  -19.9603  -11.8565 C   0  0  0  0  0  0  0  0  0  0  0  0
   23.6889  -20.2952  -10.5499 C   0  0  0  0  0  0  0  0  0  0  0  0
   20.0817  -20.7456  -16.4570 C   0  0  0  0  0  0  0  0  0  0  0  0
   19.7259  -21.5190  -15.2056 C   0  0  1  0  0  0  0  0  0  0  0  0
   19.9930  -22.8625  -15.4728 O   0  0  0  0  0  0  0  0  0  0  0  0
   20.6399  -21.0558  -14.0943 C   0  0  2  0  0  0  0  0  0  0  0  0
   22.0018  -21.4286  -14.4519 N   0  0  0  0  0  0  0  0  0  0  0  0
   20.3011  -21.6677  -12.8058 C   0  0  0  0  0  0  0  0  0  0  0  0
   19.2459  -21.3586  -12.1985 O   0  0  0  0  0  0  0  0  0  0  0  0
   21.1589  -22.5991  -12.2537 O   0  0  0  0  0  0  0  0  0  0  0  0
  2 12  2  0
  2  1  1  0
  3  2  1  0
  4  5  1  0
  4  3  2  0
  5 11  2  0
  6  5  1  0
  7  9  1  0
  7  6  1  0
  7  8  1  1
  9 10  2  0
 11 12  1  0
 14 15  2  0
 14 13  1  0
 16 15  1  0
 17 16  2  0
 19 18  1  1
 18 17  1  0
 20 19  1  0
 20  9  1  0
 21 22  2  0
 21 19  1  0
 23 17  1  0
 23 24  2  0
 24 14  1  0
 26 25  1  6
 26 28  1  0
 27 26  1  0
 28 30  1  0
 28 29  1  6
 29 21  1  0
 30 32  1  0
 31 30  2  0
M  END
$$$$
