YYT.pdb
     RDKit          3D

 32 33  0  0  1  0  0  0  0  0999 V2000
   26.1810  -17.5280  -22.0713 O   0  0  0  0  0  0  0  0  0  0  0  0
   26.1179  -18.1465  -20.8194 C   0  0  0  0  0  0  0  0  0  0  0  0
   25.4854  -19.3591  -20.6442 C   0  0  0  0  0  0  0  0  0  0  0  0
   25.4229  -19.9702  -19.4084 C   0  0  0  0  0  0  0  0  0  0  0  0
   25.9986  -19.3821  -18.2887 C   0  0  0  0  0  0  0  0  0  0  0  0
   25.9208  -20.0467  -16.9868 C   0  0  0  0  0  0  0  0  0  0  0  0
   27.2791  -20.5482  -16.5360 C   0  0  2  0  0  0  0  0  0  0  0  0
   27.6216  -21.6792  -17.3786 N   0  0  0  0  0  0  0  0  0  0  0  0
   27.2506  -20.9959  -15.1425 C   0  0  0  0  0  0  0  0  0  0  0  0
   26.8053  -22.1336  -14.8204 O   0  0  0  0  0  0  0  0  0  0  0  0
   26.6234  -18.1700  -18.4973 C   0  0  0  0  0  0  0  0  0  0  0  0
   26.6954  -17.5458  -19.7232 C   0  0  0  0  0  0  0  0  0  0  0  0
   33.1143  -23.5211  -11.0715 O   0  0  0  0  0  0  0  0  0  0  0  0
   32.0195  -22.6693  -11.2457 C   0  0  0  0  0  0  0  0  0  0  0  0
   31.6788  -22.2285  -12.5064 C   0  0  0  0  0  0  0  0  0  0  0  0
   30.6094  -21.3892  -12.7271 C   0  0  0  0  0  0  0  0  0  0  0  0
   29.8280  -20.9538  -11.6679 C   0  0  0  0  0  0  0  0  0  0  0  0
   28.6747  -20.0649  -11.7983 C   0  0  0  0  0  0  0  0  0  0  0  0
   27.5738  -20.5957  -12.6693 C   0  0  2  0  0  0  0  0  0  0  0  0
   27.7180  -20.1927  -14.0488 N   0  0  0  0  0  0  0  0  0  0  0  0
   26.2861  -20.1343  -12.0881 C   0  0  0  0  0  0  0  0  0  0  0  0
   26.0337  -18.9092  -11.9792 O   0  0  0  0  0  0  0  0  0  0  0  0
   30.1733  -21.3978  -10.4092 C   0  0  0  0  0  0  0  0  0  0  0  0
   31.2524  -22.2450  -10.1844 C   0  0  0  0  0  0  0  0  0  0  0  0
   23.0143  -20.5450  -13.2628 C   0  0  0  0  0  0  0  0  0  0  0  0
   22.9036  -21.1169  -11.8658 C   0  0  1  0  0  0  0  0  0  0  0  0
   23.0632  -22.4984  -11.9823 O   0  0  0  0  0  0  0  0  0  0  0  0
   24.0459  -20.5656  -11.0434 C   0  0  2  0  0  0  0  0  0  0  0  0
   25.2902  -21.0406  -11.6329 N   0  0  0  0  0  0  0  0  0  0  0  0
   23.9839  -21.0017   -9.6451 C   0  0  0  0  0  0  0  0  0  0  0  0
   24.9132  -21.6746   -9.1338 O   0  0  0  0  0  0  0  0  0  0  0  0
   22.8838  -20.6652   -8.8805 O   0  0  0  0  0  0  0  0  0  0  0  0
  2 12  2  0
  2  1  1  0
  3  2  1  0
  4  5  1  0
  4  3  2  0
  5 11  2  0
  6  5  1  0
  7  9  1  0
  7  6  1  0
  7  8  1  6
  9 10  2  0
 11 12  1  0
 14 15  2  0
 14 13  1  0
 16 15  1  0
 17 16  2  0
 19 18  1  1
 18 17  1  0
 20 19  1  0
 20  9  1  0
 21 22  2  0
 21 19  1  0
 23 17  1  0
 23 24  2  0
 24 14  1  0
 26 25  1  6
 26 28  1  0
 27 26  1  0
 28 30  1  0
 28 29  1  6
 29 21  1  0
 30 32  1  0
 31 30  2  0
M  END
$$$$
