YYT.pdb
     RDKit          3D

 32 33  0  0  1  0  0  0  0  0999 V2000
   27.5728  -13.6782  -19.1858 O   0  0  0  0  0  0  0  0  0  0  0  0
   26.7127  -14.6624  -18.6901 C   0  0  0  0  0  0  0  0  0  0  0  0
   26.8507  -15.1655  -17.4137 C   0  0  0  0  0  0  0  0  0  0  0  0
   26.0019  -16.1372  -16.9239 C   0  0  0  0  0  0  0  0  0  0  0  0
   24.9710  -16.6471  -17.7038 C   0  0  0  0  0  0  0  0  0  0  0  0
   24.0819  -17.6777  -17.1653 C   0  0  0  0  0  0  0  0  0  0  0  0
   24.8014  -19.0023  -16.9997 C   0  0  2  0  0  0  0  0  0  0  0  0
   25.1037  -19.4969  -18.3302 N   0  0  0  0  0  0  0  0  0  0  0  0
   23.9620  -19.9871  -16.3151 C   0  0  0  0  0  0  0  0  0  0  0  0
   23.0738  -20.6430  -16.9293 O   0  0  0  0  0  0  0  0  0  0  0  0
   24.8599  -16.1232  -18.9751 C   0  0  0  0  0  0  0  0  0  0  0  0
   25.6978  -15.1534  -19.4804 C   0  0  0  0  0  0  0  0  0  0  0  0
   27.1906  -25.7791  -16.7355 O   0  0  0  0  0  0  0  0  0  0  0  0
   26.4390  -24.9117  -15.9373 C   0  0  0  0  0  0  0  0  0  0  0  0
   25.2733  -25.3497  -15.3463 C   0  0  0  0  0  0  0  0  0  0  0  0
   24.5002  -24.5321  -14.5522 C   0  0  0  0  0  0  0  0  0  0  0  0
   24.8777  -23.2188  -14.3185 C   0  0  0  0  0  0  0  0  0  0  0  0
   24.1274  -22.2743  -13.4925 C   0  0  0  0  0  0  0  0  0  0  0  0
   23.2868  -21.3007  -14.2658 C   0  0  2  0  0  0  0  0  0  0  0  0
   24.0782  -20.2819  -14.9153 N   0  0  0  0  0  0  0  0  0  0  0  0
   22.2995  -20.7178  -13.3203 C   0  0  0  0  0  0  0  0  0  0  0  0
   22.6790  -20.0457  -12.3299 O   0  0  0  0  0  0  0  0  0  0  0  0
   26.0444  -22.7861  -14.9121 C   0  0  0  0  0  0  0  0  0  0  0  0
   26.8262  -23.6098  -15.7140 C   0  0  0  0  0  0  0  0  0  0  0  0
   19.9328  -18.1521  -13.5617 C   0  0  0  0  0  0  0  0  0  0  0  0
   19.0760  -19.3505  -13.2145 C   0  0  1  0  0  0  0  0  0  0  0  0
   18.6417  -19.8986  -14.4222 O   0  0  0  0  0  0  0  0  0  0  0  0
   19.9512  -20.3625  -12.5109 C   0  0  2  0  0  0  0  0  0  0  0  0
   20.8979  -20.8878  -13.4852 N   0  0  0  0  0  0  0  0  0  0  0  0
   19.1753  -21.4743  -11.9529 C   0  0  0  0  0  0  0  0  0  0  0  0
   19.3061  -22.6428  -12.3950 O   0  0  0  0  0  0  0  0  0  0  0  0
   18.2867  -21.2289  -10.9241 O   0  0  0  0  0  0  0  0  0  0  0  0
  2 12  2  0
  2  1  1  0
  3  2  1  0
  4  5  1  0
  4  3  2  0
  5 11  2  0
  6  5  1  0
  7  9  1  0
  7  6  1  0
  7  8  1  6
  9 10  2  0
 11 12  1  0
 14 15  2  0
 14 13  1  0
 16 15  1  0
 17 16  2  0
 19 18  1  1
 18 17  1  0
 20 19  1  0
 20  9  1  0
 21 22  2  0
 21 19  1  0
 23 17  1  0
 23 24  2  0
 24 14  1  0
 26 25  1  6
 26 28  1  0
 27 26  1  0
 28 30  1  0
 28 29  1  6
 29 21  1  0
 30 32  1  0
 31 30  2  0
M  END
$$$$
