YYT.pdb
     RDKit          3D

 32 33  0  0  1  0  0  0  0  0999 V2000
   28.5670  -14.6508  -22.8223 O   0  0  0  0  0  0  0  0  0  0  0  0
   28.0837  -15.5422  -21.8602 C   0  0  0  0  0  0  0  0  0  0  0  0
   28.0200  -15.1998  -20.5260 C   0  0  0  0  0  0  0  0  0  0  0  0
   27.5429  -16.0795  -19.5757 C   0  0  0  0  0  0  0  0  0  0  0  0
   27.1067  -17.3502  -19.9309 C   0  0  0  0  0  0  0  0  0  0  0  0
   26.6044  -18.2682  -18.9074 C   0  0  0  0  0  0  0  0  0  0  0  0
   27.7382  -18.9177  -18.1377 C   0  0  2  0  0  0  0  0  0  0  0  0
   28.3830  -19.8592  -19.0344 N   0  0  0  0  0  0  0  0  0  0  0  0
   27.2442  -19.6488  -16.9696 C   0  0  0  0  0  0  0  0  0  0  0  0
   26.6191  -20.7407  -17.0861 O   0  0  0  0  0  0  0  0  0  0  0  0
   27.1833  -17.6617  -21.2727 C   0  0  0  0  0  0  0  0  0  0  0  0
   27.6565  -16.7965  -22.2345 C   0  0  0  0  0  0  0  0  0  0  0  0
   24.8181  -21.4193   -8.5621 O   0  0  0  0  0  0  0  0  0  0  0  0
   25.4627  -20.9273   -9.7008 C   0  0  0  0  0  0  0  0  0  0  0  0
   26.3791  -21.7096  -10.3702 C   0  0  0  0  0  0  0  0  0  0  0  0
   27.0388  -21.2681  -11.4957 C   0  0  0  0  0  0  0  0  0  0  0  0
   26.7968  -19.9994  -11.9994 C   0  0  0  0  0  0  0  0  0  0  0  0
   27.4438  -19.4401  -13.1850 C   0  0  0  0  0  0  0  0  0  0  0  0
   26.8214  -19.8512  -14.4874 C   0  0  2  0  0  0  0  0  0  0  0  0
   27.4269  -19.1924  -15.6212 N   0  0  0  0  0  0  0  0  0  0  0  0
   25.3657  -19.5673  -14.3929 C   0  0  0  0  0  0  0  0  0  0  0  0
   24.9432  -18.3853  -14.3625 O   0  0  0  0  0  0  0  0  0  0  0  0
   25.8793  -19.2213  -11.3259 C   0  0  0  0  0  0  0  0  0  0  0  0
   25.2124  -19.6651  -10.1898 C   0  0  0  0  0  0  0  0  0  0  0  0
   22.4631  -22.2084  -15.5909 C   0  0  0  0  0  0  0  0  0  0  0  0
   22.2461  -20.7229  -15.3982 C   0  0  1  0  0  0  0  0  0  0  0  0
   20.8774  -20.5384  -15.1980 O   0  0  0  0  0  0  0  0  0  0  0  0
   22.9794  -20.3023  -14.1450 C   0  0  2  0  0  0  0  0  0  0  0  0
   24.3924  -20.6015  -14.3331 N   0  0  0  0  0  0  0  0  0  0  0  0
   22.4965  -21.0102  -12.9555 C   0  0  0  0  0  0  0  0  0  0  0  0
   23.2261  -21.8343  -12.3503 O   0  0  0  0  0  0  0  0  0  0  0  0
   21.2172  -20.7643  -12.4957 O   0  0  0  0  0  0  0  0  0  0  0  0
  2 12  2  0
  2  1  1  0
  3  2  1  0
  4  5  1  0
  4  3  2  0
  5 11  2  0
  6  5  1  0
  7  9  1  0
  7  6  1  0
  7  8  1  6
  9 10  2  0
 11 12  1  0
 14 15  2  0
 14 13  1  0
 16 15  1  0
 17 16  2  0
 19 18  1  1
 18 17  1  0
 20 19  1  0
 20  9  1  0
 21 22  2  0
 21 19  1  0
 23 17  1  0
 23 24  2  0
 24 14  1  0
 26 25  1  1
 26 28  1  0
 27 26  1  0
 28 30  1  0
 28 29  1  6
 29 21  1  0
 30 32  1  0
 31 30  2  0
M  END
$$$$
