CGF.pdb
     RDKit          3D

 22 22  0  0  1  0  0  0  0  0999 V2000
    8.4349  -15.1678   17.2812 N   0  0  0  0  0  0  0  0  0  0  0  0
    8.5091  -14.4813   18.5317 C   0  0  1  0  0  0  0  0  0  0  0  0
    8.0302  -13.0508   18.4533 C   0  0  0  0  0  0  0  0  0  0  0  0
    8.0770  -12.2335   20.0645 S   0  0  0  0  0  0  0  0  0  0  0  0
    7.7378  -15.1401   19.6181 C   0  0  0  0  0  0  0  0  0  0  0  0
    6.6344  -15.6429   19.3366 O   0  0  0  0  0  0  0  0  0  0  0  0
    8.2279  -15.2030   20.9388 N   0  0  0  0  0  0  0  0  0  0  0  0
    7.6685  -15.9755   21.9924 C   0  0  0  0  0  0  0  0  0  0  0  0
    8.3619  -15.8585   23.2954 C   0  0  0  0  0  0  0  0  0  0  0  0
    9.6237  -15.6189   23.3371 O   0  0  0  0  0  0  0  0  0  0  0  0
    7.7003  -15.9955   24.5434 N   0  0  0  0  0  0  0  0  0  0  0  0
    8.4442  -15.9296   25.8058 C   0  0  1  0  0  0  0  0  0  0  0  0
    7.5433  -15.3400   26.8629 C   0  0  0  0  0  0  0  0  0  0  0  0
    7.2466  -13.9308   26.6416 C   0  0  0  0  0  0  0  0  0  0  0  0
    5.9523  -13.5550   26.3573 C   0  0  0  0  0  0  0  0  0  0  0  0
    5.6612  -12.2240   26.1567 C   0  0  0  0  0  0  0  0  0  0  0  0
    6.6374  -11.2501   26.2332 C   0  0  0  0  0  0  0  0  0  0  0  0
    7.9309  -11.6333   26.5181 C   0  0  0  0  0  0  0  0  0  0  0  0
    8.2256  -12.9644   26.7195 C   0  0  0  0  0  0  0  0  0  0  0  0
    9.0314  -17.2234   26.1531 C   0  0  0  0  0  0  0  0  0  0  0  0
   10.0589  -17.2953   27.0751 O   0  0  0  0  0  0  0  0  0  0  0  0
    8.6280  -18.2903   25.6328 O   0  0  0  0  0  0  0  0  0  0  0  0
  2  1  1  6
  2  3  1  0
  3  4  1  0
  5  2  1  0
  6  5  2  0
  7  5  1  0
  8  7  1  0
  8  9  1  0
  9 11  1  0
  9 10  2  0
 11 12  1  0
 12 13  1  1
 13 14  1  0
 14 19  2  0
 15 16  2  0
 15 14  1  0
 16 17  1  0
 17 18  2  0
 19 18  1  0
 20 12  1  0
 20 21  1  0
 22 20  2  0
M  END
$$$$
