CGF.pdb
     RDKit          3D

 22 22  0  0  1  0  0  0  0  0999 V2000
    7.3761  -18.8418   20.9420 N   0  0  0  0  0  0  0  0  0  0  0  0
    7.4147  -18.1359   19.7007 C   0  0  1  0  0  0  0  0  0  0  0  0
    6.2615  -18.4778   18.7869 C   0  0  0  0  0  0  0  0  0  0  0  0
    4.7106  -18.6616   19.6961 S   0  0  0  0  0  0  0  0  0  0  0  0
    7.4231  -16.6579   19.8574 C   0  0  0  0  0  0  0  0  0  0  0  0
    7.6567  -15.9599   18.8537 O   0  0  0  0  0  0  0  0  0  0  0  0
    7.1751  -16.0455   21.1032 N   0  0  0  0  0  0  0  0  0  0  0  0
    7.9788  -15.0395   21.7046 C   0  0  0  0  0  0  0  0  0  0  0  0
    8.5666  -15.4027   23.0140 C   0  0  0  0  0  0  0  0  0  0  0  0
    8.7327  -16.6377   23.3280 O   0  0  0  0  0  0  0  0  0  0  0  0
    8.9751  -14.4428   23.9763 N   0  0  0  0  0  0  0  0  0  0  0  0
    9.4609  -14.8547   25.2974 C   0  0  1  0  0  0  0  0  0  0  0  0
    8.2785  -14.9745   26.2271 C   0  0  0  0  0  0  0  0  0  0  0  0
    7.4887  -13.7530   26.3096 C   0  0  0  0  0  0  0  0  0  0  0  0
    8.0288  -12.6460   26.9260 C   0  0  0  0  0  0  0  0  0  0  0  0
    7.2931  -11.4841   26.9995 C   0  0  0  0  0  0  0  0  0  0  0  0
    6.0209  -11.3983   26.4688 C   0  0  0  0  0  0  0  0  0  0  0  0
    5.4864  -12.5102   25.8532 C   0  0  0  0  0  0  0  0  0  0  0  0
    6.2199  -13.6744   25.7779 C   0  0  0  0  0  0  0  0  0  0  0  0
   10.2988  -16.0507   25.2144 C   0  0  0  0  0  0  0  0  0  0  0  0
   11.0485  -16.2967   24.0793 O   0  0  0  0  0  0  0  0  0  0  0  0
   10.3612  -16.8773   26.1550 O   0  0  0  0  0  0  0  0  0  0  0  0
  2  1  1  1
  2  3  1  0
  3  4  1  0
  5  2  1  0
  6  5  2  0
  7  5  1  0
  8  7  1  0
  8  9  1  0
  9 11  1  0
  9 10  2  0
 11 12  1  0
 12 13  1  1
 13 14  1  0
 14 19  2  0
 15 16  2  0
 15 14  1  0
 16 17  1  0
 17 18  2  0
 19 18  1  0
 20 12  1  0
 20 21  1  0
 22 20  2  0
M  END
$$$$
