CGF.pdb
     RDKit          3D

 22 22  0  0  1  0  0  0  0  0999 V2000
    2.5796  -20.6088   21.5872 N   0  0  0  0  0  0  0  0  0  0  0  0
    3.9693  -20.2942   21.6883 C   0  0  1  0  0  0  0  0  0  0  0  0
    4.6477  -20.1622   20.3451 C   0  0  0  0  0  0  0  0  0  0  0  0
    6.3794  -19.6714   20.5083 S   0  0  0  0  0  0  0  0  0  0  0  0
    4.2419  -19.0408   22.4392 C   0  0  0  0  0  0  0  0  0  0  0  0
    3.6465  -18.0042   22.0923 O   0  0  0  0  0  0  0  0  0  0  0  0
    5.1481  -19.0087   23.5191 N   0  0  0  0  0  0  0  0  0  0  0  0
    5.4404  -17.8714   24.3197 C   0  0  0  0  0  0  0  0  0  0  0  0
    6.7989  -17.3097   24.1432 C   0  0  0  0  0  0  0  0  0  0  0  0
    7.6174  -17.8465   23.3107 O   0  0  0  0  0  0  0  0  0  0  0  0
    7.2706  -16.1767   24.8560 N   0  0  0  0  0  0  0  0  0  0  0  0
    8.6257  -15.6580   24.6419 C   0  0  1  0  0  0  0  0  0  0  0  0
    8.5340  -14.1779   24.3634 C   0  0  0  0  0  0  0  0  0  0  0  0
    7.8652  -13.4359   25.4241 C   0  0  0  0  0  0  0  0  0  0  0  0
    6.5102  -13.2070   25.3303 C   0  0  0  0  0  0  0  0  0  0  0  0
    5.8683  -12.5152   26.3333 C   0  0  0  0  0  0  0  0  0  0  0  0
    6.5503  -12.0420   27.4371 C   0  0  0  0  0  0  0  0  0  0  0  0
    7.9065  -12.2747   27.5246 C   0  0  0  0  0  0  0  0  0  0  0  0
    8.5519  -12.9666   26.5226 C   0  0  0  0  0  0  0  0  0  0  0  0
    9.5210  -16.0206   25.7402 C   0  0  0  0  0  0  0  0  0  0  0  0
   10.8814  -15.8016   25.6292 O   0  0  0  0  0  0  0  0  0  0  0  0
    9.0892  -16.5340   26.7993 O   0  0  0  0  0  0  0  0  0  0  0  0
  2  1  1  6
  2  3  1  0
  3  4  1  0
  5  2  1  0
  6  5  2  0
  7  5  1  0
  8  7  1  0
  8  9  1  0
  9 11  1  0
  9 10  2  0
 11 12  1  0
 12 13  1  1
 13 14  1  0
 14 19  2  0
 15 16  2  0
 15 14  1  0
 16 17  1  0
 17 18  2  0
 19 18  1  0
 20 12  1  0
 20 21  1  0
 22 20  2  0
M  END
$$$$
