CGF.pdb
     RDKit          3D

 22 22  0  0  1  0  0  0  0  0999 V2000
    7.0221  -18.5678   20.2430 N   0  0  0  0  0  0  0  0  0  0  0  0
    6.2898  -17.5322   20.9000 C   0  0  1  0  0  0  0  0  0  0  0  0
    5.4360  -18.0387   22.0385 C   0  0  0  0  0  0  0  0  0  0  0  0
    5.8954  -19.7151   22.5334 S   0  0  0  0  0  0  0  0  0  0  0  0
    7.1505  -16.4514   21.4481 C   0  0  0  0  0  0  0  0  0  0  0  0
    6.5987  -15.4739   21.9860 O   0  0  0  0  0  0  0  0  0  0  0  0
    8.5569  -16.5154   21.3694 N   0  0  0  0  0  0  0  0  0  0  0  0
    9.4603  -15.5749   21.9343 C   0  0  0  0  0  0  0  0  0  0  0  0
    9.5638  -15.6100   23.4109 C   0  0  0  0  0  0  0  0  0  0  0  0
   10.6465  -15.2343   23.9922 O   0  0  0  0  0  0  0  0  0  0  0  0
    8.5081  -16.0436   24.2544 N   0  0  0  0  0  0  0  0  0  0  0  0
    8.6659  -16.0691   25.7123 C   0  0  1  0  0  0  0  0  0  0  0  0
    7.3545  -15.6709   26.3435 C   0  0  0  0  0  0  0  0  0  0  0  0
    7.1270  -14.2318   26.3319 C   0  0  0  0  0  0  0  0  0  0  0  0
    5.9233  -13.7472   25.8700 C   0  0  0  0  0  0  0  0  0  0  0  0
    5.6960  -12.3890   25.8649 C   0  0  0  0  0  0  0  0  0  0  0  0
    6.6478  -11.4943   26.3130 C   0  0  0  0  0  0  0  0  0  0  0  0
    7.8505  -11.9861   26.7741 C   0  0  0  0  0  0  0  0  0  0  0  0
    8.0812  -13.3448   26.7805 C   0  0  0  0  0  0  0  0  0  0  0  0
    9.2044  -17.3484   26.1735 C   0  0  0  0  0  0  0  0  0  0  0  0
    9.5916  -17.5050   27.4913 O   0  0  0  0  0  0  0  0  0  0  0  0
    9.3304  -18.3269   25.3999 O   0  0  0  0  0  0  0  0  0  0  0  0
  2  1  1  1
  2  3  1  0
  3  4  1  0
  5  2  1  0
  6  5  2  0
  7  5  1  0
  8  7  1  0
  8  9  1  0
  9 11  1  0
  9 10  2  0
 11 12  1  0
 12 13  1  1
 13 14  1  0
 14 19  2  0
 15 16  2  0
 15 14  1  0
 16 17  1  0
 17 18  2  0
 19 18  1  0
 20 12  1  0
 20 21  1  0
 22 20  2  0
M  END
$$$$
