CGF.pdb
     RDKit          3D

 22 22  0  0  1  0  0  0  0  0999 V2000
    7.1890  -16.1066   19.3622 N   0  0  0  0  0  0  0  0  0  0  0  0
    7.7591  -15.2650   20.3658 C   0  0  1  0  0  0  0  0  0  0  0  0
    7.2381  -13.8479   20.3190 C   0  0  0  0  0  0  0  0  0  0  0  0
    8.4433  -12.6636   20.9600 S   0  0  0  0  0  0  0  0  0  0  0  0
    7.5457  -15.7623   21.7501 C   0  0  0  0  0  0  0  0  0  0  0  0
    6.5381  -15.3720   22.3680 O   0  0  0  0  0  0  0  0  0  0  0  0
    8.4507  -16.6532   22.3630 N   0  0  0  0  0  0  0  0  0  0  0  0
    9.8008  -16.3607   22.6970 C   0  0  0  0  0  0  0  0  0  0  0  0
   10.0224  -15.9193   24.0928 C   0  0  0  0  0  0  0  0  0  0  0  0
   11.1041  -15.3035   24.4121 O   0  0  0  0  0  0  0  0  0  0  0  0
    9.0845  -16.1368   25.1354 N   0  0  0  0  0  0  0  0  0  0  0  0
    9.4650  -15.9725   26.5424 C   0  0  1  0  0  0  0  0  0  0  0  0
    8.2601  -15.4898   27.3117 C   0  0  0  0  0  0  0  0  0  0  0  0
    7.7271  -14.2301   26.8098 C   0  0  0  0  0  0  0  0  0  0  0  0
    6.5666  -14.2414   26.0680 C   0  0  0  0  0  0  0  0  0  0  0  0
    6.0504  -13.0542   25.5983 C   0  0  0  0  0  0  0  0  0  0  0  0
    6.6684  -11.8455   25.8521 C   0  0  0  0  0  0  0  0  0  0  0  0
    7.8298  -11.8414   26.5952 C   0  0  0  0  0  0  0  0  0  0  0  0
    8.3491  -13.0277   27.0669 C   0  0  0  0  0  0  0  0  0  0  0  0
   10.0886  -17.1829   27.0766 C   0  0  0  0  0  0  0  0  0  0  0  0
   10.0745  -18.3542   26.3423 O   0  0  0  0  0  0  0  0  0  0  0  0
   10.6454  -17.1958   28.1998 O   0  0  0  0  0  0  0  0  0  0  0  0
  2  1  1  6
  2  3  1  0
  3  4  1  0
  5  2  1  0
  6  5  2  0
  7  5  1  0
  8  7  1  0
  8  9  1  0
  9 11  1  0
  9 10  2  0
 11 12  1  0
 12 13  1  1
 13 14  1  0
 14 19  2  0
 15 16  2  0
 15 14  1  0
 16 17  1  0
 17 18  2  0
 19 18  1  0
 20 12  1  0
 20 21  1  0
 22 20  2  0
M  END
$$$$
