CGF.pdb
     RDKit          3D

 22 22  0  0  1  0  0  0  0  0999 V2000
    7.4523  -17.6512   22.0811 N   0  0  0  0  0  0  0  0  0  0  0  0
    7.8535  -16.4204   21.4771 C   0  0  1  0  0  0  0  0  0  0  0  0
    6.9097  -15.2785   21.7724 C   0  0  0  0  0  0  0  0  0  0  0  0
    5.6593  -15.7344   22.9950 S   0  0  0  0  0  0  0  0  0  0  0  0
    9.2138  -15.9766   21.8793 C   0  0  0  0  0  0  0  0  0  0  0  0
    9.6963  -14.9744   21.3206 O   0  0  0  0  0  0  0  0  0  0  0  0
    9.9527  -16.6612   22.8661 N   0  0  0  0  0  0  0  0  0  0  0  0
   11.2856  -16.3613   23.2576 C   0  0  0  0  0  0  0  0  0  0  0  0
   11.4519  -15.9683   24.6754 C   0  0  0  0  0  0  0  0  0  0  0  0
   12.6182  -15.9725   25.2149 O   0  0  0  0  0  0  0  0  0  0  0  0
   10.3706  -15.5711   25.5043 N   0  0  0  0  0  0  0  0  0  0  0  0
   10.5486  -15.3986   26.9499 C   0  0  1  0  0  0  0  0  0  0  0  0
   10.1642  -13.9859   27.3150 C   0  0  0  0  0  0  0  0  0  0  0  0
    8.9223  -13.5505   26.6899 C   0  0  0  0  0  0  0  0  0  0  0  0
    7.7564  -13.5811   27.4227 C   0  0  0  0  0  0  0  0  0  0  0  0
    6.5797  -13.1619   26.8429 C   0  0  0  0  0  0  0  0  0  0  0  0
    6.5366  -12.7090   25.5389 C   0  0  0  0  0  0  0  0  0  0  0  0
    7.7073  -12.6810   24.8111 C   0  0  0  0  0  0  0  0  0  0  0  0
    8.8866  -13.0998   25.3883 C   0  0  0  0  0  0  0  0  0  0  0  0
    9.8513  -16.4383   27.7063 C   0  0  0  0  0  0  0  0  0  0  0  0
    9.0859  -17.3822   27.0473 O   0  0  0  0  0  0  0  0  0  0  0  0
    9.9244  -16.5041   28.9561 O   0  0  0  0  0  0  0  0  0  0  0  0
  2  1  1  1
  2  3  1  0
  3  4  1  0
  5  2  1  0
  6  5  2  0
  7  5  1  0
  8  7  1  0
  8  9  1  0
  9 11  1  0
  9 10  2  0
 11 12  1  0
 12 13  1  1
 13 14  1  0
 14 19  2  0
 15 16  2  0
 15 14  1  0
 16 17  1  0
 17 18  2  0
 19 18  1  0
 20 12  1  0
 20 21  1  0
 22 20  2  0
M  END
$$$$
