CGF.pdb
     RDKit          3D

 22 22  0  0  1  0  0  0  0  0999 V2000
    8.1279  -14.6678   17.6551 N   0  0  0  0  0  0  0  0  0  0  0  0
    8.2991  -14.1569   18.9779 C   0  0  1  0  0  0  0  0  0  0  0  0
    7.6165  -12.8267   19.1940 C   0  0  0  0  0  0  0  0  0  0  0  0
    8.5715  -11.4572   18.5022 S   0  0  0  0  0  0  0  0  0  0  0  0
    7.8084  -15.0757   20.0382 C   0  0  0  0  0  0  0  0  0  0  0  0
    6.6632  -15.5498   19.9239 O   0  0  0  0  0  0  0  0  0  0  0  0
    8.6060  -15.4125   21.1513 N   0  0  0  0  0  0  0  0  0  0  0  0
    8.2333  -16.2993   22.1975 C   0  0  0  0  0  0  0  0  0  0  0  0
    8.8261  -15.9969   23.5201 C   0  0  0  0  0  0  0  0  0  0  0  0
   10.0382  -15.5786   23.6049 O   0  0  0  0  0  0  0  0  0  0  0  0
    8.1177  -16.1412   24.7412 N   0  0  0  0  0  0  0  0  0  0  0  0
    8.7936  -15.9770   26.0325 C   0  0  1  0  0  0  0  0  0  0  0  0
    7.7921  -15.4594   27.0354 C   0  0  0  0  0  0  0  0  0  0  0  0
    7.3917  -14.0809   26.7857 C   0  0  0  0  0  0  0  0  0  0  0  0
    8.3604  -13.1045   26.7115 C   0  0  0  0  0  0  0  0  0  0  0  0
    7.9916  -11.8006   26.4658 C   0  0  0  0  0  0  0  0  0  0  0  0
    6.6691  -11.4433   26.2908 C   0  0  0  0  0  0  0  0  0  0  0  0
    5.7045  -12.4257   26.3664 C   0  0  0  0  0  0  0  0  0  0  0  0
    6.0702  -13.7315   26.6121 C   0  0  0  0  0  0  0  0  0  0  0  0
    9.4889  -17.1990   26.4357 C   0  0  0  0  0  0  0  0  0  0  0  0
   10.4273  -17.1623   27.4502 O   0  0  0  0  0  0  0  0  0  0  0  0
    9.2597  -18.3001   25.8817 O   0  0  0  0  0  0  0  0  0  0  0  0
  2  1  1  6
  2  3  1  0
  3  4  1  0
  5  2  1  0
  6  5  2  0
  7  5  1  0
  8  7  1  0
  8  9  1  0
  9 11  1  0
  9 10  2  0
 11 12  1  0
 12 13  1  1
 13 14  1  0
 14 19  2  0
 15 16  2  0
 15 14  1  0
 16 17  1  0
 17 18  2  0
 19 18  1  0
 20 12  1  0
 20 21  1  0
 22 20  2  0
M  END
$$$$
