CGF.pdb
     RDKit          3D

 22 22  0  0  1  0  0  0  0  0999 V2000
    4.5804  -18.2897   23.2284 N   0  0  0  0  0  0  0  0  0  0  0  0
    4.7336  -18.3937   21.8120 C   0  0  1  0  0  0  0  0  0  0  0  0
    3.4262  -18.2842   21.0634 C   0  0  0  0  0  0  0  0  0  0  0  0
    2.1792  -19.4201   21.7121 S   0  0  0  0  0  0  0  0  0  0  0  0
    5.6515  -17.3758   21.2371 C   0  0  0  0  0  0  0  0  0  0  0  0
    6.2005  -17.6249   20.1480 O   0  0  0  0  0  0  0  0  0  0  0  0
    5.9054  -16.1544   21.8945 N   0  0  0  0  0  0  0  0  0  0  0  0
    7.0434  -15.3275   21.6924 C   0  0  0  0  0  0  0  0  0  0  0  0
    7.9808  -15.2562   22.8363 C   0  0  0  0  0  0  0  0  0  0  0  0
    9.0484  -14.5458   22.7539 O   0  0  0  0  0  0  0  0  0  0  0  0
    7.7680  -15.9425   24.0601 N   0  0  0  0  0  0  0  0  0  0  0  0
    8.7129  -15.8138   25.1744 C   0  0  1  0  0  0  0  0  0  0  0  0
    7.9387  -15.4662   26.4219 C   0  0  0  0  0  0  0  0  0  0  0  0
    7.3785  -14.1215   26.3923 C   0  0  0  0  0  0  0  0  0  0  0  0
    6.0211  -13.9645   26.2192 C   0  0  0  0  0  0  0  0  0  0  0  0
    5.4820  -12.6974   26.2001 C   0  0  0  0  0  0  0  0  0  0  0  0
    6.2700  -11.5733   26.3505 C   0  0  0  0  0  0  0  0  0  0  0  0
    7.6280  -11.7376   26.5234 C   0  0  0  0  0  0  0  0  0  0  0  0
    8.1708  -13.0042   26.5430 C   0  0  0  0  0  0  0  0  0  0  0  0
    9.5692  -16.9937   25.2934 C   0  0  0  0  0  0  0  0  0  0  0  0
   10.6571  -16.9798   26.1463 O   0  0  0  0  0  0  0  0  0  0  0  0
    9.3470  -18.0374   24.6353 O   0  0  0  0  0  0  0  0  0  0  0  0
  2  1  1  1
  2  3  1  0
  3  4  1  0
  5  2  1  0
  6  5  2  0
  7  5  1  0
  8  7  1  0
  8  9  1  0
  9 11  1  0
  9 10  2  0
 11 12  1  0
 12 13  1  1
 13 14  1  0
 14 19  2  0
 15 16  2  0
 15 14  1  0
 16 17  1  0
 17 18  2  0
 19 18  1  0
 20 12  1  0
 20 21  1  0
 22 20  2  0
M  END
$$$$
