IMY.pdb
     RDKit          3D

 29 29  0  0  1  0  0  0  0  0999 V2000
    2.7478  -19.2684   21.2867 C   0  0  0  0  0  0  0  0  0  0  0  0
    4.0710  -19.2740   21.9687 C   0  0  0  0  0  0  0  0  0  0  0  0
    4.9251  -18.0745   21.7577 C   0  0  2  0  0  0  0  0  0  0  0  0
    4.9934  -17.6865   20.2888 C   0  0  0  0  0  0  0  0  0  0  0  0
    6.2763  -18.1114   22.3817 C   0  0  2  0  0  0  0  0  0  0  0  0
    6.1878  -18.5337   23.7457 N   0  0  0  0  0  0  0  0  0  0  0  0
    7.0352  -16.8382   22.2280 C   0  0  0  0  0  0  0  0  0  0  0  0
    7.3990  -16.4975   21.0648 O   0  0  0  0  0  0  0  0  0  0  0  0
    7.2992  -12.2538   26.9819 C   0  0  0  0  0  0  0  0  0  0  0  0
    5.8635  -12.2867   25.8787 S   0  0  0  0  0  0  0  0  0  0  0  0
    6.2183  -13.3611   24.4846 C   0  0  0  0  0  0  0  0  0  0  0  0
    7.6028  -13.9227   24.4831 C   0  0  0  0  0  0  0  0  0  0  0  0
    7.9234  -14.7071   23.2297 C   0  0  2  0  0  0  0  0  0  0  0  0
    7.3436  -16.0319   23.3389 N   0  0  0  0  0  0  0  0  0  0  0  0
    9.4047  -14.8605   23.1735 C   0  0  0  0  0  0  0  0  0  0  0  0
   10.1124  -13.9444   22.7242 O   0  0  0  0  0  0  0  0  0  0  0  0
   11.7142  -16.2937   31.2910 O   0  0  0  0  0  0  0  0  0  0  0  0
   11.2094  -16.1367   30.0080 C   0  0  0  0  0  0  0  0  0  0  0  0
   11.1474  -14.9247   29.3545 C   0  0  0  0  0  0  0  0  0  0  0  0
   10.6477  -14.7660   28.0830 C   0  0  0  0  0  0  0  0  0  0  0  0
   10.1624  -15.8777   27.3745 C   0  0  0  0  0  0  0  0  0  0  0  0
    9.6013  -15.7298   26.0198 C   0  0  0  0  0  0  0  0  0  0  0  0
   10.5599  -16.1991   24.9800 C   0  0  2  0  0  0  0  0  0  0  0  0
   10.0246  -16.0588   23.6342 N   0  0  0  0  0  0  0  0  0  0  0  0
   11.0729  -17.5829   25.1974 C   0  0  0  0  0  0  0  0  0  0  0  0
   10.4506  -18.7270   24.7434 O   0  0  0  0  0  0  0  0  0  0  0  0
   10.2292  -17.0836   28.0369 C   0  0  0  0  0  0  0  0  0  0  0  0
   10.7299  -17.2408   29.3096 C   0  0  0  0  0  0  0  0  0  0  0  0
   12.1551  -17.7330   25.8443 O   0  0  0  0  0  0  0  0  0  0  0  0
  2  1  1  0
  3  2  1  0
  3  4  1  6
  5  3  1  0
  5  6  1  1
  7  5  1  0
  7  8  2  0
  9 10  1  0
 10 11  1  0
 11 12  1  0
 13 12  1  1
 13 14  1  0
 14  7  1  0
 15 13  1  0
 16 15  2  0
 18 28  2  0
 18 17  1  0
 19 18  1  0
 20 21  1  0
 20 19  2  0
 21 27  2  0
 22 21  1  0
 23 22  1  1
 23 24  1  0
 24 15  1  0
 25 26  1  0
 25 23  1  0
 27 28  1  0
 29 25  2  0
M  END
$$$$
