IMY.pdb
     RDKit          3D

 29 29  0  0  1  0  0  0  0  0999 V2000
    8.2740  -11.6889   19.6919 C   0  0  0  0  0  0  0  0  0  0  0  0
    8.8409  -13.0604   19.5758 C   0  0  0  0  0  0  0  0  0  0  0  0
    7.9378  -14.1800   19.9546 C   0  0  2  0  0  0  0  0  0  0  0  0
    6.7092  -13.6815   20.6996 C   0  0  0  0  0  0  0  0  0  0  0  0
    8.5747  -15.3320   20.6502 C   0  0  2  0  0  0  0  0  0  0  0  0
    7.7038  -16.4670   20.6420 N   0  0  0  0  0  0  0  0  0  0  0  0
    9.0657  -15.0010   22.0176 C   0  0  0  0  0  0  0  0  0  0  0  0
   10.2403  -14.5452   22.1354 O   0  0  0  0  0  0  0  0  0  0  0  0
    5.0006  -12.9590   26.7623 C   0  0  0  0  0  0  0  0  0  0  0  0
    6.6671  -12.4287   27.2325 S   0  0  0  0  0  0  0  0  0  0  0  0
    7.8662  -13.5596   26.5204 C   0  0  0  0  0  0  0  0  0  0  0  0
    7.5635  -13.9652   25.1146 C   0  0  0  0  0  0  0  0  0  0  0  0
    8.6540  -14.8099   24.4931 C   0  0  2  0  0  0  0  0  0  0  0  0
    8.2537  -15.1875   23.1514 N   0  0  0  0  0  0  0  0  0  0  0  0
    8.7621  -16.0553   25.3045 C   0  0  0  0  0  0  0  0  0  0  0  0
    7.8184  -16.8615   25.3427 O   0  0  0  0  0  0  0  0  0  0  0  0
   13.0640  -18.7073   21.1558 O   0  0  0  0  0  0  0  0  0  0  0  0
   12.2923  -18.7019   22.3091 C   0  0  0  0  0  0  0  0  0  0  0  0
   12.2913  -17.6699   23.2227 C   0  0  0  0  0  0  0  0  0  0  0  0
   11.5276  -17.6617   24.3665 C   0  0  0  0  0  0  0  0  0  0  0  0
   10.6864  -18.7485   24.6580 C   0  0  0  0  0  0  0  0  0  0  0  0
    9.8756  -18.7734   25.8884 C   0  0  0  0  0  0  0  0  0  0  0  0
   10.1572  -17.5902   26.7492 C   0  0  2  0  0  0  0  0  0  0  0  0
    9.9482  -16.3344   26.0446 N   0  0  0  0  0  0  0  0  0  0  0  0
   11.5004  -17.6087   27.3983 C   0  0  0  0  0  0  0  0  0  0  0  0
   12.4104  -16.5738   27.3399 O   0  0  0  0  0  0  0  0  0  0  0  0
   10.6953  -19.7740   23.7384 C   0  0  0  0  0  0  0  0  0  0  0  0
   11.4602  -19.7804   22.5938 C   0  0  0  0  0  0  0  0  0  0  0  0
   11.8432  -18.6421   28.0514 O   0  0  0  0  0  0  0  0  0  0  0  0
  2  1  1  0
  3  2  1  0
  3  4  1  1
  5  3  1  0
  5  6  1  1
  7  5  1  0
  7  8  2  0
  9 10  1  0
 10 11  1  0
 11 12  1  0
 13 12  1  1
 13 14  1  0
 14  7  1  0
 15 13  1  0
 16 15  2  0
 18 28  2  0
 18 17  1  0
 19 18  1  0
 20 21  1  0
 20 19  2  0
 21 27  2  0
 22 21  1  0
 23 22  1  6
 23 24  1  0
 24 15  1  0
 25 26  1  0
 25 23  1  0
 27 28  1  0
 29 25  2  0
M  END
$$$$
