IMY.pdb
     RDKit          3D

 29 29  0  0  1  0  0  0  0  0999 V2000
    4.7355  -21.4458   23.3159 C   0  0  0  0  0  0  0  0  0  0  0  0
    4.9323  -20.6066   22.1022 C   0  0  0  0  0  0  0  0  0  0  0  0
    6.0644  -19.6427   22.1453 C   0  0  2  0  0  0  0  0  0  0  0  0
    5.9408  -18.6850   23.3202 C   0  0  0  0  0  0  0  0  0  0  0  0
    6.3640  -18.9232   20.8767 C   0  0  2  0  0  0  0  0  0  0  0  0
    6.4052  -19.8388   19.7782 N   0  0  0  0  0  0  0  0  0  0  0  0
    7.5835  -18.0701   20.9528 C   0  0  0  0  0  0  0  0  0  0  0  0
    8.7127  -18.6349   20.8670 O   0  0  0  0  0  0  0  0  0  0  0  0
    6.8735  -11.6918   20.6190 C   0  0  0  0  0  0  0  0  0  0  0  0
    7.1612  -12.6687   19.1215 S   0  0  0  0  0  0  0  0  0  0  0  0
    7.6851  -14.3210   19.5897 C   0  0  0  0  0  0  0  0  0  0  0  0
    8.2947  -14.4059   20.9510 C   0  0  0  0  0  0  0  0  0  0  0  0
    8.6378  -15.8215   21.3602 C   0  0  2  0  0  0  0  0  0  0  0  0
    7.4916  -16.6758   21.1162 N   0  0  0  0  0  0  0  0  0  0  0  0
    8.8909  -15.8059   22.8287 C   0  0  0  0  0  0  0  0  0  0  0  0
    8.0020  -16.1582   23.6210 O   0  0  0  0  0  0  0  0  0  0  0  0
   10.6386  -15.3497   31.1455 O   0  0  0  0  0  0  0  0  0  0  0  0
   10.2955  -15.3282   29.8012 C   0  0  0  0  0  0  0  0  0  0  0  0
    9.8720  -16.4387   29.1031 C   0  0  0  0  0  0  0  0  0  0  0  0
    9.5313  -16.4205   27.7707 C   0  0  0  0  0  0  0  0  0  0  0  0
    9.6052  -15.2215   27.0424 C   0  0  0  0  0  0  0  0  0  0  0  0
    9.2671  -15.1811   25.6085 C   0  0  0  0  0  0  0  0  0  0  0  0
   10.4716  -15.4016   24.7595 C   0  0  2  0  0  0  0  0  0  0  0  0
   10.1543  -15.3870   23.3394 N   0  0  0  0  0  0  0  0  0  0  0  0
   11.2536  -16.6232   25.1082 C   0  0  0  0  0  0  0  0  0  0  0  0
   12.3288  -16.6422   25.9720 O   0  0  0  0  0  0  0  0  0  0  0  0
   10.0295  -14.1183   27.7498 C   0  0  0  0  0  0  0  0  0  0  0  0
   10.3700  -14.1382   29.0835 C   0  0  0  0  0  0  0  0  0  0  0  0
   10.9185  -17.7281   24.5801 O   0  0  0  0  0  0  0  0  0  0  0  0
  2  1  1  0
  3  2  1  0
  3  4  1  1
  5  3  1  0
  5  6  1  6
  7  5  1  0
  7  8  2  0
  9 10  1  0
 10 11  1  0
 11 12  1  0
 13 12  1  1
 13 14  1  0
 14  7  1  0
 15 13  1  0
 16 15  2  0
 18 28  2  0
 18 17  1  0
 19 18  1  0
 20 21  1  0
 20 19  2  0
 21 27  2  0
 22 21  1  0
 23 22  1  1
 23 24  1  0
 24 15  1  0
 25 26  1  0
 25 23  1  0
 27 28  1  0
 29 25  2  0
M  END
$$$$
