IMY.pdb
     RDKit          3D

 29 29  0  0  1  0  0  0  0  0999 V2000
    3.0284  -18.6962   21.3927 C   0  0  0  0  0  0  0  0  0  0  0  0
    4.2704  -18.7220   22.2130 C   0  0  0  0  0  0  0  0  0  0  0  0
    5.2861  -17.6807   21.9021 C   0  0  2  0  0  0  0  0  0  0  0  0
    5.6070  -17.6367   20.4162 C   0  0  0  0  0  0  0  0  0  0  0  0
    6.5215  -17.6984   22.7327 C   0  0  2  0  0  0  0  0  0  0  0  0
    6.2278  -18.1450   24.0597 N   0  0  0  0  0  0  0  0  0  0  0  0
    7.2642  -16.4065   22.7182 C   0  0  0  0  0  0  0  0  0  0  0  0
    7.7087  -15.9866   21.6102 O   0  0  0  0  0  0  0  0  0  0  0  0
    6.2209  -10.9092   26.2471 C   0  0  0  0  0  0  0  0  0  0  0  0
    5.3901  -12.5139   26.1277 S   0  0  0  0  0  0  0  0  0  0  0  0
    6.1802  -13.4904   24.8447 C   0  0  0  0  0  0  0  0  0  0  0  0
    7.6731  -13.4838   24.9041 C   0  0  0  0  0  0  0  0  0  0  0  0
    8.3084  -14.4864   23.9659 C   0  0  2  0  0  0  0  0  0  0  0  0
    7.4706  -15.6682   23.8979 N   0  0  0  0  0  0  0  0  0  0  0  0
    9.6127  -14.8857   24.5664 C   0  0  0  0  0  0  0  0  0  0  0  0
    9.9593  -14.4319   25.6691 O   0  0  0  0  0  0  0  0  0  0  0  0
   10.5923  -15.0994   30.7135 O   0  0  0  0  0  0  0  0  0  0  0  0
   10.5914  -15.7178   29.4713 C   0  0  0  0  0  0  0  0  0  0  0  0
   10.9852  -17.0229   29.2674 C   0  0  0  0  0  0  0  0  0  0  0  0
   10.9854  -17.6385   28.0375 C   0  0  0  0  0  0  0  0  0  0  0  0
   10.5677  -16.9318   26.8975 C   0  0  0  0  0  0  0  0  0  0  0  0
   10.5804  -17.5622   25.5655 C   0  0  0  0  0  0  0  0  0  0  0  0
   11.3341  -16.7367   24.5803 C   0  0  2  0  0  0  0  0  0  0  0  0
   10.4754  -15.7915   23.8826 N   0  0  0  0  0  0  0  0  0  0  0  0
   12.1415  -17.5275   23.6065 C   0  0  0  0  0  0  0  0  0  0  0  0
   11.9784  -17.4819   22.2376 O   0  0  0  0  0  0  0  0  0  0  0  0
   10.1764  -15.6287   27.1128 C   0  0  0  0  0  0  0  0  0  0  0  0
   10.1766  -15.0141   28.3446 C   0  0  0  0  0  0  0  0  0  0  0  0
   13.0434  -18.3007   24.0545 O   0  0  0  0  0  0  0  0  0  0  0  0
  2  1  1  0
  3  2  1  0
  3  4  1  6
  5  3  1  0
  5  6  1  1
  7  5  1  0
  7  8  2  0
  9 10  1  0
 10 11  1  0
 11 12  1  0
 13 12  1  1
 13 14  1  0
 14  7  1  0
 15 13  1  0
 16 15  2  0
 18 28  2  0
 18 17  1  0
 19 18  1  0
 20 21  1  0
 20 19  2  0
 21 27  2  0
 22 21  1  0
 23 22  1  6
 23 24  1  0
 24 15  1  0
 25 26  1  0
 25 23  1  0
 27 28  1  0
 29 25  2  0
M  END
$$$$
