KGD.pdb
     RDKit          3D

 22 21  0  0  1  0  0  0  0  0999 V2000
   19.9979  -10.0883  -17.5559 N   0  0  0  0  0  0  0  0  0  0  0  0
   18.6233  -10.2374  -18.0505 C   0  0  1  0  0  0  0  0  0  0  0  0
   17.9311  -11.1946  -17.1427 C   0  0  0  0  0  0  0  0  0  0  0  0
   17.9629  -12.5883  -17.6841 C   0  0  0  0  0  0  0  0  0  0  0  0
   17.2133  -13.5093  -16.7409 C   0  0  0  0  0  0  0  0  0  0  0  0
   17.2188  -14.9401  -17.2868 C   0  0  0  0  0  0  0  0  0  0  0  0
   16.6602  -15.7684  -16.2337 N   0  0  0  0  0  0  0  0  0  0  0  0
   17.9605   -8.9151  -18.0590 C   0  0  0  0  0  0  0  0  0  0  0  0
   16.7848   -8.7275  -18.4634 O   0  0  0  0  0  0  0  0  0  0  0  0
   18.7099   -7.7802  -17.5746 N   0  0  0  0  0  0  0  0  0  0  0  0
   17.9804   -6.6369  -17.0676 C   0  0  0  0  0  0  0  0  0  0  0  0
   18.8738   -5.7945  -16.2423 C   0  0  0  0  0  0  0  0  0  0  0  0
   18.4424   -4.7135  -15.7769 O   0  0  0  0  0  0  0  0  0  0  0  0
   20.1939   -6.2319  -15.9995 N   0  0  0  0  0  0  0  0  0  0  0  0
   21.0803   -5.3650  -15.2118 C   0  0  1  0  0  0  0  0  0  0  0  0
   21.1666   -5.9114  -13.8099 C   0  0  0  0  0  0  0  0  0  0  0  0
   22.1931   -5.1843  -13.0457 C   0  0  0  0  0  0  0  0  0  0  0  0
   22.3296   -3.9241  -13.1944 O   0  0  0  0  0  0  0  0  0  0  0  0
   22.4383   -5.4686  -15.8594 C   0  0  0  0  0  0  0  0  0  0  0  0
   22.6650   -6.1594  -16.8737 O   0  0  0  0  0  0  0  0  0  0  0  0
   23.0495   -5.7940  -12.1503 O   0  0  0  0  0  0  0  0  0  0  0  0
   23.5177   -4.7762  -15.3319 O   0  0  0  0  0  0  0  0  0  0  0  0
  2  1  1  1
  2  8  1  0
  3  2  1  0
  4  3  1  0
  5  4  1  0
  6  7  1  0
  6  5  1  0
  8 10  1  0
  9  8  2  0
 10 11  1  0
 12 14  1  0
 12 11  1  0
 13 12  2  0
 15 16  1  1
 15 14  1  0
 16 17  1  0
 17 18  2  0
 17 21  1  0
 19 15  1  0
 19 22  1  0
 20 19  2  0
M  END
$$$$
