KGD.pdb
     RDKit          3D

 22 21  0  0  1  0  0  0  0  0999 V2000
   19.6431  -25.8557  -10.3204 N   0  0  0  0  0  0  0  0  0  0  0  0
   19.1358  -24.4778  -10.3217 C   0  0  1  0  0  0  0  0  0  0  0  0
   18.6539  -24.1882  -11.7014 C   0  0  0  0  0  0  0  0  0  0  0  0
   18.8331  -25.3656  -12.6060 C   0  0  0  0  0  0  0  0  0  0  0  0
   20.2220  -25.3238  -13.2133 C   0  0  0  0  0  0  0  0  0  0  0  0
   20.1304  -25.3748  -14.7411 C   0  0  0  0  0  0  0  0  0  0  0  0
   21.4984  -25.3121  -15.2226 N   0  0  0  0  0  0  0  0  0  0  0  0
   18.0488  -24.3558   -9.3260 C   0  0  0  0  0  0  0  0  0  0  0  0
   17.3618  -23.3145   -9.1684 O   0  0  0  0  0  0  0  0  0  0  0  0
   17.7652  -25.4991   -8.4914 N   0  0  0  0  0  0  0  0  0  0  0  0
   16.7493  -25.3714   -7.4677 C   0  0  0  0  0  0  0  0  0  0  0  0
   17.3523  -25.5703   -6.1314 C   0  0  0  0  0  0  0  0  0  0  0  0
   18.5998  -25.6252   -6.0220 O   0  0  0  0  0  0  0  0  0  0  0  0
   16.5035  -25.6937   -5.0101 N   0  0  0  0  0  0  0  0  0  0  0  0
   17.1173  -25.9129   -3.6938 C   0  0  1  0  0  0  0  0  0  0  0  0
   16.0887  -25.6285   -2.6296 C   0  0  0  0  0  0  0  0  0  0  0  0
   16.6231  -25.9769   -1.3032 C   0  0  0  0  0  0  0  0  0  0  0  0
   17.8816  -25.9498   -1.0924 O   0  0  0  0  0  0  0  0  0  0  0  0
   17.4756  -27.3770   -3.6459 C   0  0  0  0  0  0  0  0  0  0  0  0
   16.9491  -28.2376   -4.3803 O   0  0  0  0  0  0  0  0  0  0  0  0
   15.8288  -26.3459   -0.2356 O   0  0  0  0  0  0  0  0  0  0  0  0
   18.4350  -27.8319   -2.7540 O   0  0  0  0  0  0  0  0  0  0  0  0
  2  1  1  6
  2  8  1  0
  3  2  1  0
  4  3  1  0
  5  4  1  0
  6  7  1  0
  6  5  1  0
  8 10  1  0
  9  8  2  0
 10 11  1  0
 12 14  1  0
 12 11  1  0
 13 12  2  0
 15 16  1  1
 15 14  1  0
 16 17  1  0
 17 18  2  0
 17 21  1  0
 19 15  1  0
 19 22  1  0
 20 19  2  0
M  END
$$$$
