KGD.pdb
     RDKit          3D

 22 21  0  0  1  0  0  0  0  0999 V2000
   19.4186  -12.5356  -16.5761 N   0  0  0  0  0  0  0  0  0  0  0  0
   17.9772  -12.2591  -16.6214 C   0  0  1  0  0  0  0  0  0  0  0  0
   17.3139  -13.2345  -15.7113 C   0  0  0  0  0  0  0  0  0  0  0  0
   17.2134  -14.5898  -16.3353 C   0  0  0  0  0  0  0  0  0  0  0  0
   16.4503  -15.5138  -15.4061 C   0  0  0  0  0  0  0  0  0  0  0  0
   16.1818  -16.8530  -16.0987 C   0  0  0  0  0  0  0  0  0  0  0  0
   15.4724  -17.6662  -15.1278 N   0  0  0  0  0  0  0  0  0  0  0  0
   17.7334  -10.8630  -16.1980 C   0  0  0  0  0  0  0  0  0  0  0  0
   16.5875  -10.3549  -16.0984 O   0  0  0  0  0  0  0  0  0  0  0  0
   18.8786  -10.0426  -15.8825 N   0  0  0  0  0  0  0  0  0  0  0  0
   18.6545   -8.7542  -15.2608 C   0  0  0  0  0  0  0  0  0  0  0  0
   19.9143   -7.9788  -15.2396 C   0  0  0  0  0  0  0  0  0  0  0  0
   21.0105   -8.5869  -15.2393 O   0  0  0  0  0  0  0  0  0  0  0  0
   19.8488   -6.5687  -15.2201 N   0  0  0  0  0  0  0  0  0  0  0  0
   21.1080   -5.8132  -15.2495 C   0  0  1  0  0  0  0  0  0  0  0  0
   20.7954   -4.3676  -15.5391 C   0  0  0  0  0  0  0  0  0  0  0  0
   22.0425   -3.6027  -15.7007 C   0  0  0  0  0  0  0  0  0  0  0  0
   23.1705   -4.1971  -15.6433 O   0  0  0  0  0  0  0  0  0  0  0  0
   21.6830   -5.9181  -13.8593 C   0  0  0  0  0  0  0  0  0  0  0  0
   22.7273   -5.3359  -13.5019 O   0  0  0  0  0  0  0  0  0  0  0  0
   22.0765   -2.2389  -15.9148 O   0  0  0  0  0  0  0  0  0  0  0  0
   21.0491   -6.6912  -12.8984 O   0  0  0  0  0  0  0  0  0  0  0  0
  2  1  1  1
  2  8  1  0
  3  2  1  0
  4  3  1  0
  5  4  1  0
  6  7  1  0
  6  5  1  0
  8 10  1  0
  9  8  2  0
 10 11  1  0
 12 14  1  0
 12 11  1  0
 13 12  2  0
 15 16  1  1
 15 14  1  0
 16 17  1  0
 17 18  2  0
 17 21  1  0
 19 15  1  0
 19 22  1  0
 20 19  2  0
M  END
$$$$
