KGD.pdb
     RDKit          3D

 22 21  0  0  1  0  0  0  0  0999 V2000
   25.9720  -20.6780  -18.9477 N   0  0  0  0  0  0  0  0  0  0  0  0
   26.1066  -19.2304  -18.7409 C   0  0  1  0  0  0  0  0  0  0  0  0
   24.7323  -18.6554  -18.7516 C   0  0  0  0  0  0  0  0  0  0  0  0
   23.8656  -19.2800  -17.7050 C   0  0  0  0  0  0  0  0  0  0  0  0
   22.5149  -18.5908  -17.6965 C   0  0  0  0  0  0  0  0  0  0  0  0
   21.6058  -19.2269  -16.6410 C   0  0  0  0  0  0  0  0  0  0  0  0
   20.3453  -18.5112  -16.7202 N   0  0  0  0  0  0  0  0  0  0  0  0
   26.7935  -18.9819  -17.4548 C   0  0  0  0  0  0  0  0  0  0  0  0
   27.1010  -17.8357  -17.0390 O   0  0  0  0  0  0  0  0  0  0  0  0
   27.1269  -20.1225  -16.6350 N   0  0  0  0  0  0  0  0  0  0  0  0
   27.6548  -19.8876  -15.3074 C   0  0  0  0  0  0  0  0  0  0  0  0
   26.8324  -20.5996  -14.3046 C   0  0  0  0  0  0  0  0  0  0  0  0
   26.1690  -21.6039  -14.6549 O   0  0  0  0  0  0  0  0  0  0  0  0
   26.8162  -20.1276  -12.9742 N   0  0  0  0  0  0  0  0  0  0  0  0
   26.0648  -20.8955  -11.9726 C   0  0  1  0  0  0  0  0  0  0  0  0
   26.5424  -20.4941  -10.6007 C   0  0  0  0  0  0  0  0  0  0  0  0
   25.7898  -21.2255   -9.5688 C   0  0  0  0  0  0  0  0  0  0  0  0
   25.4355  -22.4349   -9.7708 O   0  0  0  0  0  0  0  0  0  0  0  0
   24.6246  -20.4765  -12.1289 C   0  0  0  0  0  0  0  0  0  0  0  0
   24.2772  -19.3461  -12.5275 O   0  0  0  0  0  0  0  0  0  0  0  0
   25.4262  -20.6728   -8.3567 O   0  0  0  0  0  0  0  0  0  0  0  0
   23.6029  -21.3633  -11.8249 O   0  0  0  0  0  0  0  0  0  0  0  0
  2  1  1  1
  2  8  1  0
  3  2  1  0
  4  3  1  0
  5  4  1  0
  6  7  1  0
  6  5  1  0
  8 10  1  0
  9  8  2  0
 10 11  1  0
 12 14  1  0
 12 11  1  0
 13 12  2  0
 15 16  1  1
 15 14  1  0
 16 17  1  0
 17 18  2  0
 17 21  1  0
 19 15  1  0
 19 22  1  0
 20 19  2  0
M  END
$$$$
