KGD.pdb
     RDKit          3D

 22 21  0  0  1  0  0  0  0  0999 V2000
   18.1176  -10.9654  -16.8314 N   0  0  0  0  0  0  0  0  0  0  0  0
   16.8121  -10.3874  -17.1743 C   0  0  1  0  0  0  0  0  0  0  0  0
   15.7752  -11.3869  -16.7931 C   0  0  0  0  0  0  0  0  0  0  0  0
   16.1496  -12.1204  -15.5448 C   0  0  0  0  0  0  0  0  0  0  0  0
   15.0714  -13.1353  -15.2176 C   0  0  0  0  0  0  0  0  0  0  0  0
   15.3846  -13.8260  -13.8872 C   0  0  0  0  0  0  0  0  0  0  0  0
   14.3130  -14.7820  -13.6749 N   0  0  0  0  0  0  0  0  0  0  0  0
   16.6356   -9.1117  -16.4466 C   0  0  0  0  0  0  0  0  0  0  0  0
   15.5898   -8.4160  -16.5033 O   0  0  0  0  0  0  0  0  0  0  0  0
   17.7283   -8.6444  -15.6270 N   0  0  0  0  0  0  0  0  0  0  0  0
   17.5579   -7.4115  -14.8871 C   0  0  0  0  0  0  0  0  0  0  0  0
   18.7405   -7.1693  -14.0318 C   0  0  0  0  0  0  0  0  0  0  0  0
   19.2013   -8.1076  -13.3401 O   0  0  0  0  0  0  0  0  0  0  0  0
   19.3214   -5.8827  -14.0169 N   0  0  0  0  0  0  0  0  0  0  0  0
   20.7724   -5.7767  -13.8156 C   0  0  1  0  0  0  0  0  0  0  0  0
   21.4692   -6.4166  -14.9887 C   0  0  0  0  0  0  0  0  0  0  0  0
   22.9285   -6.3524  -14.8071 C   0  0  0  0  0  0  0  0  0  0  0  0
   23.4233   -6.2228  -13.6378 O   0  0  0  0  0  0  0  0  0  0  0  0
   21.0803   -4.3004  -13.8123 C   0  0  0  0  0  0  0  0  0  0  0  0
   20.4057   -3.4564  -14.4367 O   0  0  0  0  0  0  0  0  0  0  0  0
   23.8291   -6.4227  -15.8515 O   0  0  0  0  0  0  0  0  0  0  0  0
   22.1601   -3.8143  -13.0907 O   0  0  0  0  0  0  0  0  0  0  0  0
  2  1  1  1
  2  8  1  0
  3  2  1  0
  4  3  1  0
  5  4  1  0
  6  7  1  0
  6  5  1  0
  8 10  1  0
  9  8  2  0
 10 11  1  0
 12 14  1  0
 12 11  1  0
 13 12  2  0
 15 16  1  6
 15 14  1  0
 16 17  1  0
 17 18  2  0
 17 21  1  0
 19 15  1  0
 19 22  1  0
 20 19  2  0
M  END
$$$$
