KGD.pdb
     RDKit          3D

 22 21  0  0  1  0  0  0  0  0999 V2000
   18.0249  -13.6850  -15.1696 N   0  0  0  0  0  0  0  0  0  0  0  0
   18.9368  -13.9420  -16.2914 C   0  0  1  0  0  0  0  0  0  0  0  0
   18.1459  -14.6255  -17.3529 C   0  0  0  0  0  0  0  0  0  0  0  0
   17.4645  -15.8498  -16.8302 C   0  0  0  0  0  0  0  0  0  0  0  0
   16.5508  -16.4110  -17.9025 C   0  0  0  0  0  0  0  0  0  0  0  0
   15.9021  -17.7096  -17.4148 C   0  0  0  0  0  0  0  0  0  0  0  0
   14.8828  -18.0362  -18.3955 N   0  0  0  0  0  0  0  0  0  0  0  0
   19.4991  -12.6598  -16.7684 C   0  0  0  0  0  0  0  0  0  0  0  0
   20.3665  -12.5733  -17.6746 O   0  0  0  0  0  0  0  0  0  0  0  0
   19.0215  -11.4428  -16.1559 N   0  0  0  0  0  0  0  0  0  0  0  0
   19.5559  -10.1801  -16.6212 C   0  0  0  0  0  0  0  0  0  0  0  0
   19.8803   -9.3139  -15.4666 C   0  0  0  0  0  0  0  0  0  0  0  0
   19.4397   -9.6120  -14.3316 O   0  0  0  0  0  0  0  0  0  0  0  0
   20.6808   -8.1698  -15.6741 N   0  0  0  0  0  0  0  0  0  0  0  0
   20.9270   -7.2767  -14.5342 C   0  0  1  0  0  0  0  0  0  0  0  0
   21.9809   -6.2737  -14.9272 C   0  0  0  0  0  0  0  0  0  0  0  0
   22.2573   -5.3636  -13.8039 C   0  0  0  0  0  0  0  0  0  0  0  0
   22.1042   -5.7647  -12.6020 O   0  0  0  0  0  0  0  0  0  0  0  0
   19.6280   -6.5494  -14.2937 C   0  0  0  0  0  0  0  0  0  0  0  0
   19.3403   -5.9958  -13.2129 O   0  0  0  0  0  0  0  0  0  0  0  0
   22.6831   -4.0603  -13.9676 O   0  0  0  0  0  0  0  0  0  0  0  0
   18.6770   -6.4683  -15.2996 O   0  0  0  0  0  0  0  0  0  0  0  0
  2  1  1  1
  2  8  1  0
  3  2  1  0
  4  3  1  0
  5  4  1  0
  6  7  1  0
  6  5  1  0
  8 10  1  0
  9  8  2  0
 10 11  1  0
 12 14  1  0
 12 11  1  0
 13 12  2  0
 15 16  1  6
 15 14  1  0
 16 17  1  0
 17 18  2  0
 17 21  1  0
 19 15  1  0
 19 22  1  0
 20 19  2  0
M  END
$$$$
