KGD.pdb
     RDKit          3D

 22 21  0  0  1  0  0  0  0  0999 V2000
   19.9169  -11.5122  -17.4050 N   0  0  0  0  0  0  0  0  0  0  0  0
   18.8911  -11.1633  -16.4139 C   0  0  1  0  0  0  0  0  0  0  0  0
   18.3359  -12.4416  -15.8875 C   0  0  0  0  0  0  0  0  0  0  0  0
   17.0170  -12.7682  -16.5124 C   0  0  0  0  0  0  0  0  0  0  0  0
   16.4958  -14.0685  -15.9317 C   0  0  0  0  0  0  0  0  0  0  0  0
   15.2260  -14.5030  -16.6692 C   0  0  0  0  0  0  0  0  0  0  0  0
   14.7911  -15.7275  -16.0221 N   0  0  0  0  0  0  0  0  0  0  0  0
   19.5042  -10.3504  -15.3410 C   0  0  0  0  0  0  0  0  0  0  0  0
   18.8743   -9.9351  -14.3350 O   0  0  0  0  0  0  0  0  0  0  0  0
   20.9041  -10.0185  -15.4605 N   0  0  0  0  0  0  0  0  0  0  0  0
   21.4961   -9.1538  -14.4613 C   0  0  0  0  0  0  0  0  0  0  0  0
   21.4588   -7.7491  -14.9243 C   0  0  0  0  0  0  0  0  0  0  0  0
   21.5433   -7.5037  -16.1506 O   0  0  0  0  0  0  0  0  0  0  0  0
   21.3283   -6.7179  -13.9691 N   0  0  0  0  0  0  0  0  0  0  0  0
   21.3694   -5.3264  -14.4375 C   0  0  1  0  0  0  0  0  0  0  0  0
   19.9834   -4.7432  -14.3364 C   0  0  0  0  0  0  0  0  0  0  0  0
   19.9886   -3.3440  -14.7931 C   0  0  0  0  0  0  0  0  0  0  0  0
   20.9349   -2.9157  -15.5346 O   0  0  0  0  0  0  0  0  0  0  0  0
   22.2761   -4.5964  -13.4786 C   0  0  0  0  0  0  0  0  0  0  0  0
   22.6664   -5.0820  -12.3973 O   0  0  0  0  0  0  0  0  0  0  0  0
   19.0071   -2.4313  -14.4605 O   0  0  0  0  0  0  0  0  0  0  0  0
   22.7219   -3.3175  -13.7760 O   0  0  0  0  0  0  0  0  0  0  0  0
  2  1  1  6
  2  8  1  0
  3  2  1  0
  4  3  1  0
  5  4  1  0
  6  7  1  0
  6  5  1  0
  8 10  1  0
  9  8  2  0
 10 11  1  0
 12 14  1  0
 12 11  1  0
 13 12  2  0
 15 16  1  1
 15 14  1  0
 16 17  1  0
 17 18  2  0
 17 21  1  0
 19 15  1  0
 19 22  1  0
 20 19  2  0
M  END
$$$$
