KGD.pdb
     RDKit          3D

 22 21  0  0  1  0  0  0  0  0999 V2000
   27.7867  -24.4559  -16.8847 N   0  0  0  0  0  0  0  0  0  0  0  0
   28.6608  -23.3739  -16.4140 C   0  0  1  0  0  0  0  0  0  0  0  0
   29.8220  -23.3105  -17.3452 C   0  0  0  0  0  0  0  0  0  0  0  0
   30.6663  -24.5417  -17.2575 C   0  0  0  0  0  0  0  0  0  0  0  0
   31.8451  -24.4090  -18.2023 C   0  0  0  0  0  0  0  0  0  0  0  0
   32.7854  -25.6071  -18.0425 C   0  0  0  0  0  0  0  0  0  0  0  0
   33.8893  -25.3691  -18.9548 N   0  0  0  0  0  0  0  0  0  0  0  0
   27.9023  -22.1041  -16.3985 C   0  0  0  0  0  0  0  0  0  0  0  0
   28.3756  -21.0147  -15.9859 O   0  0  0  0  0  0  0  0  0  0  0  0
   26.5434  -22.1225  -16.8854 N   0  0  0  0  0  0  0  0  0  0  0  0
   25.7867  -20.8882  -16.8667 C   0  0  0  0  0  0  0  0  0  0  0  0
   24.5749  -21.0523  -16.0340 C   0  0  0  0  0  0  0  0  0  0  0  0
   24.3687  -22.1462  -15.4576 O   0  0  0  0  0  0  0  0  0  0  0  0
   23.6790  -19.9684  -15.9098 N   0  0  0  0  0  0  0  0  0  0  0  0
   22.5142  -20.1259  -15.0290 C   0  0  1  0  0  0  0  0  0  0  0  0
   21.8782  -18.7748  -14.8257 C   0  0  0  0  0  0  0  0  0  0  0  0
   20.7072  -18.8945  -13.9420 C   0  0  0  0  0  0  0  0  0  0  0  0
   20.5089  -19.9697  -13.2836 O   0  0  0  0  0  0  0  0  0  0  0  0
   21.5494  -21.0107  -15.7776 C   0  0  0  0  0  0  0  0  0  0  0  0
   21.4307  -21.0015  -17.0199 O   0  0  0  0  0  0  0  0  0  0  0  0
   19.7755  -17.8895  -13.7730 O   0  0  0  0  0  0  0  0  0  0  0  0
   20.7337  -21.8947  -15.0875 O   0  0  0  0  0  0  0  0  0  0  0  0
  2  1  1  6
  2  8  1  0
  3  2  1  0
  4  3  1  0
  5  4  1  0
  6  7  1  0
  6  5  1  0
  8 10  1  0
  9  8  2  0
 10 11  1  0
 12 14  1  0
 12 11  1  0
 13 12  2  0
 15 16  1  6
 15 14  1  0
 16 17  1  0
 17 18  2  0
 17 21  1  0
 19 15  1  0
 19 22  1  0
 20 19  2  0
M  END
$$$$
