KGD.pdb
     RDKit          3D

 22 21  0  0  1  0  0  0  0  0999 V2000
   25.7314  -22.3286  -12.6560 N   0  0  0  0  0  0  0  0  0  0  0  0
   25.8724  -20.8671  -12.6322 C   0  0  1  0  0  0  0  0  0  0  0  0
   26.2313  -20.4830  -11.2382 C   0  0  0  0  0  0  0  0  0  0  0  0
   25.1718  -20.8900  -10.2644 C   0  0  0  0  0  0  0  0  0  0  0  0
   23.8232  -20.4042  -10.7594 C   0  0  0  0  0  0  0  0  0  0  0  0
   22.7460  -20.6770   -9.7057 C   0  0  0  0  0  0  0  0  0  0  0  0
   21.4984  -20.2129  -10.2848 N   0  0  0  0  0  0  0  0  0  0  0  0
   26.9167  -20.4606  -13.5976 C   0  0  0  0  0  0  0  0  0  0  0  0
   27.2117  -19.2629  -13.8418 O   0  0  0  0  0  0  0  0  0  0  0  0
   27.6342  -21.5011  -14.2952 N   0  0  0  0  0  0  0  0  0  0  0  0
   28.5227  -21.1228  -15.3740 C   0  0  0  0  0  0  0  0  0  0  0  0
   27.7477  -20.9204  -16.6179 C   0  0  0  0  0  0  0  0  0  0  0  0
   27.1915  -21.9030  -17.1623 O   0  0  0  0  0  0  0  0  0  0  0  0
   27.6544  -19.6208  -17.1613 N   0  0  0  0  0  0  0  0  0  0  0  0
   26.4578  -19.2767  -17.9404 C   0  0  1  0  0  0  0  0  0  0  0  0
   25.2744  -19.2270  -17.0086 C   0  0  0  0  0  0  0  0  0  0  0  0
   24.0570  -18.8705  -17.7551 C   0  0  0  0  0  0  0  0  0  0  0  0
   24.1149  -18.6618  -19.0128 O   0  0  0  0  0  0  0  0  0  0  0  0
   26.7063  -17.8930  -18.4862 C   0  0  0  0  0  0  0  0  0  0  0  0
   26.0196  -17.3779  -19.3920 O   0  0  0  0  0  0  0  0  0  0  0  0
   22.8145  -18.7396  -17.1668 O   0  0  0  0  0  0  0  0  0  0  0  0
   27.7415  -17.1197  -17.9827 O   0  0  0  0  0  0  0  0  0  0  0  0
  2  1  1  1
  2  8  1  0
  3  2  1  0
  4  3  1  0
  5  4  1  0
  6  7  1  0
  6  5  1  0
  8 10  1  0
  9  8  2  0
 10 11  1  0
 12 14  1  0
 12 11  1  0
 13 12  2  0
 15 16  1  1
 15 14  1  0
 16 17  1  0
 17 18  2  0
 17 21  1  0
 19 15  1  0
 19 22  1  0
 20 19  2  0
M  END
$$$$
