KGD.pdb
     RDKit          3D

 22 21  0  0  1  0  0  0  0  0999 V2000
   26.4510  -18.5072  -17.7887 N   0  0  0  0  0  0  0  0  0  0  0  0
   25.7978  -17.7997  -16.6801 C   0  0  1  0  0  0  0  0  0  0  0  0
   24.3524  -18.1587  -16.7206 C   0  0  0  0  0  0  0  0  0  0  0  0
   23.9415  -18.6376  -18.0764 C   0  0  0  0  0  0  0  0  0  0  0  0
   24.0134  -20.1519  -18.1157 C   0  0  0  0  0  0  0  0  0  0  0  0
   23.5102  -20.6680  -19.4669 C   0  0  0  0  0  0  0  0  0  0  0  0
   23.6322  -22.1134  -19.4095 N   0  0  0  0  0  0  0  0  0  0  0  0
   26.4262  -18.2044  -15.4037 C   0  0  0  0  0  0  0  0  0  0  0  0
   26.0459  -17.7923  -14.2782 O   0  0  0  0  0  0  0  0  0  0  0  0
   27.5375  -19.1242  -15.4592 N   0  0  0  0  0  0  0  0  0  0  0  0
   28.1104  -19.5904  -14.2139 C   0  0  0  0  0  0  0  0  0  0  0  0
   27.2854  -20.6857  -13.6583 C   0  0  0  0  0  0  0  0  0  0  0  0
   27.1645  -21.7528  -14.3048 O   0  0  0  0  0  0  0  0  0  0  0  0
   26.6536  -20.4997  -12.4096 N   0  0  0  0  0  0  0  0  0  0  0  0
   25.8753  -21.6131  -11.8510 C   0  0  1  0  0  0  0  0  0  0  0  0
   26.1754  -21.7187  -10.3779 C   0  0  0  0  0  0  0  0  0  0  0  0
   25.8904  -20.4383   -9.7102 C   0  0  0  0  0  0  0  0  0  0  0  0
   25.5419  -19.4211  -10.3977 O   0  0  0  0  0  0  0  0  0  0  0  0
   24.4270  -21.2313  -12.0268 C   0  0  0  0  0  0  0  0  0  0  0  0
   23.4767  -21.9711  -11.6997 O   0  0  0  0  0  0  0  0  0  0  0  0
   25.9800  -20.2558   -8.3444 O   0  0  0  0  0  0  0  0  0  0  0  0
   24.0907  -20.0034  -12.5765 O   0  0  0  0  0  0  0  0  0  0  0  0
  2  1  1  6
  2  8  1  0
  3  2  1  0
  4  3  1  0
  5  4  1  0
  6  7  1  0
  6  5  1  0
  8 10  1  0
  9  8  2  0
 10 11  1  0
 12 14  1  0
 12 11  1  0
 13 12  2  0
 15 16  1  1
 15 14  1  0
 16 17  1  0
 17 18  2  0
 17 21  1  0
 19 15  1  0
 19 22  1  0
 20 19  2  0
M  END
$$$$
