IHC.pdb
     RDKit          3D

 25 25  0  0  1  0  0  0  0  0999 V2000
    6.8612  -11.6112   27.4860 C   0  0  0  0  0  0  0  0  0  0  0  0
    6.1239  -12.7638   26.8425 C   0  0  0  0  0  0  0  0  0  0  0  0
    6.9129  -13.3572   25.7006 C   0  0  2  0  0  0  0  0  0  0  0  0
    7.1000  -12.2923   24.6437 C   0  0  0  0  0  0  0  0  0  0  0  0
    6.3119  -14.6147   25.1498 C   0  0  2  0  0  0  0  0  0  0  0  0
    5.8989  -15.4572   26.2443 N   0  0  0  0  0  0  0  0  0  0  0  0
    7.1340  -15.3140   24.1632 C   0  0  0  0  0  0  0  0  0  0  0  0
    6.5865  -16.0822   23.3358 O   0  0  0  0  0  0  0  0  0  0  0  0
    8.5467  -15.1747   24.0815 N   0  0  0  0  0  0  0  0  0  0  0  0
    9.3840  -15.9900   23.2253 C   0  0  1  0  0  0  0  0  0  0  0  0
    9.9888  -15.1077   22.1435 C   0  0  0  0  0  0  0  0  0  0  0  0
    8.9664  -14.7130   21.1514 C   0  0  0  0  0  0  0  0  0  0  0  0
    7.8557  -15.4536   20.7344 C   0  0  0  0  0  0  0  0  0  0  0  0
    7.2153  -14.6976   19.8243 N   0  0  0  0  0  0  0  0  0  0  0  0
    7.8606  -13.5339   19.6514 C   0  0  0  0  0  0  0  0  0  0  0  0
    8.9259  -13.5680   20.4728 N   0  0  0  0  0  0  0  0  0  0  0  0
   10.4823  -16.5396   24.0838 C   0  0  0  0  0  0  0  0  0  0  0  0
   11.4111  -15.8186   24.5215 O   0  0  0  0  0  0  0  0  0  0  0  0
   10.5017  -17.9187   24.4319 N   0  0  0  0  0  0  0  0  0  0  0  0
   11.5077  -18.4074   25.3709 C   0  0  1  0  0  0  0  0  0  0  0  0
   11.2891  -17.8094   26.7357 C   0  0  0  0  0  0  0  0  0  0  0  0
    9.5969  -18.2084   27.2638 S   0  0  0  0  0  0  0  0  0  0  0  0
   11.3873  -19.9026   25.5076 C   0  0  0  0  0  0  0  0  0  0  0  0
   10.3696  -20.5871   24.8901 O   0  0  0  0  0  0  0  0  0  0  0  0
   12.2225  -20.5172   26.1890 O   0  0  0  0  0  0  0  0  0  0  0  0
  2  1  1  0
  3  2  1  0
  3  4  1  6
  5  3  1  0
  5  7  1  0
  5  6  1  1
  7  8  2  0
  9  7  1  0
  9 10  1  0
 10 11  1  6
 11 12  1  0
 12 13  2  0
 13 14  1  0
 15 14  1  0
 16 12  1  0
 16 15  2  0
 17 10  1  0
 17 18  2  0
 19 17  1  0
 20 23  1  0
 20 19  1  0
 20 21  1  1
 22 21  1  0
 23 24  1  0
 25 23  2  0
M  END
$$$$
