IHC.pdb
     RDKit          3D

 25 25  0  0  1  0  0  0  0  0999 V2000
    7.5139  -12.1923   18.6779 C   0  0  0  0  0  0  0  0  0  0  0  0
    8.0295  -13.5983   18.8861 C   0  0  0  0  0  0  0  0  0  0  0  0
    7.7847  -14.0745   20.2975 C   0  0  2  0  0  0  0  0  0  0  0  0
    8.3803  -13.0655   21.2531 C   0  0  0  0  0  0  0  0  0  0  0  0
    8.2766  -15.4671   20.5514 C   0  0  2  0  0  0  0  0  0  0  0  0
    7.5545  -16.3828   19.7039 N   0  0  0  0  0  0  0  0  0  0  0  0
    8.2916  -15.8726   21.9563 C   0  0  0  0  0  0  0  0  0  0  0  0
    7.2180  -16.2029   22.5155 O   0  0  0  0  0  0  0  0  0  0  0  0
    9.4734  -15.9164   22.7457 N   0  0  0  0  0  0  0  0  0  0  0  0
    9.4905  -16.3041   24.1416 C   0  0  1  0  0  0  0  0  0  0  0  0
   10.7570  -17.1012   24.4156 C   0  0  0  0  0  0  0  0  0  0  0  0
   10.6725  -18.4494   23.8151 C   0  0  0  0  0  0  0  0  0  0  0  0
    9.5180  -19.1986   23.5663 C   0  0  0  0  0  0  0  0  0  0  0  0
    9.9276  -20.3554   23.0151 N   0  0  0  0  0  0  0  0  0  0  0  0
   11.2650  -20.3695   22.9068 C   0  0  0  0  0  0  0  0  0  0  0  0
   11.6957  -19.1948   23.4020 N   0  0  0  0  0  0  0  0  0  0  0  0
    9.5205  -15.0400   24.9455 C   0  0  0  0  0  0  0  0  0  0  0  0
   10.4448  -14.1991   24.8323 O   0  0  0  0  0  0  0  0  0  0  0  0
    8.4830  -14.7540   25.8757 N   0  0  0  0  0  0  0  0  0  0  0  0
    8.5621  -13.5436   26.6888 C   0  0  1  0  0  0  0  0  0  0  0  0
    7.2531  -12.7997   26.6549 C   0  0  0  0  0  0  0  0  0  0  0  0
    5.9077  -14.0175   26.7475 S   0  0  0  0  0  0  0  0  0  0  0  0
    8.8342  -13.9152   28.1230 C   0  0  0  0  0  0  0  0  0  0  0  0
    8.9057  -15.2312   28.5087 O   0  0  0  0  0  0  0  0  0  0  0  0
    8.9947  -13.0147   28.9615 O   0  0  0  0  0  0  0  0  0  0  0  0
  2  1  1  0
  3  2  1  0
  3  4  1  1
  5  3  1  0
  5  7  1  0
  5  6  1  6
  7  8  2  0
  9  7  1  0
  9 10  1  0
 10 11  1  6
 11 12  1  0
 12 13  2  0
 13 14  1  0
 15 14  1  0
 16 12  1  0
 16 15  2  0
 17 10  1  0
 17 18  2  0
 19 17  1  0
 20 23  1  0
 20 19  1  0
 20 21  1  1
 22 21  1  0
 23 24  1  0
 25 23  2  0
M  END
$$$$
