IHC.pdb
     RDKit          3D

 25 25  0  0  1  0  0  0  0  0999 V2000
    7.1600  -12.0524   19.6945 C   0  0  0  0  0  0  0  0  0  0  0  0
    7.6789  -13.3080   19.0311 C   0  0  0  0  0  0  0  0  0  0  0  0
    8.2614  -14.2673   20.0406 C   0  0  2  0  0  0  0  0  0  0  0  0
    9.2910  -13.5280   20.8648 C   0  0  0  0  0  0  0  0  0  0  0  0
    8.8080  -15.5205   19.4269 C   0  0  2  0  0  0  0  0  0  0  0  0
    7.7876  -16.1276   18.6092 N   0  0  0  0  0  0  0  0  0  0  0  0
    9.4225  -16.4549   20.3690 C   0  0  0  0  0  0  0  0  0  0  0  0
    8.6933  -17.2233   21.0416 O   0  0  0  0  0  0  0  0  0  0  0  0
   10.8262  -16.5488   20.5751 N   0  0  0  0  0  0  0  0  0  0  0  0
   11.4349  -17.4194   21.5603 C   0  0  1  0  0  0  0  0  0  0  0  0
   12.8510  -17.7524   21.1151 C   0  0  0  0  0  0  0  0  0  0  0  0
   12.8456  -18.8193   20.0918 C   0  0  0  0  0  0  0  0  0  0  0  0
   11.9173  -19.8555   19.9487 C   0  0  0  0  0  0  0  0  0  0  0  0
   12.3158  -20.5782   18.8863 N   0  0  0  0  0  0  0  0  0  0  0  0
   13.4340  -20.0538   18.3619 C   0  0  0  0  0  0  0  0  0  0  0  0
   13.7368  -18.9811   19.1157 N   0  0  0  0  0  0  0  0  0  0  0  0
   11.4904  -16.6522   22.8462 C   0  0  0  0  0  0  0  0  0  0  0  0
   11.6057  -15.4032   22.8734 O   0  0  0  0  0  0  0  0  0  0  0  0
   11.4125  -17.3317   24.0934 N   0  0  0  0  0  0  0  0  0  0  0  0
   10.8369  -16.6478   25.2482 C   0  0  1  0  0  0  0  0  0  0  0  0
    9.4055  -16.2670   24.9755 C   0  0  0  0  0  0  0  0  0  0  0  0
    8.7600  -15.4068   26.4400 S   0  0  0  0  0  0  0  0  0  0  0  0
   10.8401  -17.5731   26.4368 C   0  0  0  0  0  0  0  0  0  0  0  0
   11.3418  -17.1632   27.6476 O   0  0  0  0  0  0  0  0  0  0  0  0
   10.3818  -18.7194   26.3126 O   0  0  0  0  0  0  0  0  0  0  0  0
  2  1  1  0
  3  2  1  0
  3  4  1  6
  5  3  1  0
  5  7  1  0
  5  6  1  1
  7  8  2  0
  9  7  1  0
  9 10  1  0
 10 11  1  6
 11 12  1  0
 12 13  2  0
 13 14  1  0
 15 14  1  0
 16 12  1  0
 16 15  2  0
 17 10  1  0
 17 18  2  0
 19 17  1  0
 20 23  1  0
 20 19  1  0
 20 21  1  6
 22 21  1  0
 23 24  1  0
 25 23  2  0
M  END
$$$$
