IHC.pdb
     RDKit          3D

 25 25  0  0  1  0  0  0  0  0999 V2000
    7.6230  -12.0841   18.9363 C   0  0  0  0  0  0  0  0  0  0  0  0
    8.0909  -13.5119   19.1046 C   0  0  0  0  0  0  0  0  0  0  0  0
    7.8882  -13.9978   20.5193 C   0  0  2  0  0  0  0  0  0  0  0  0
    8.5606  -13.0243   21.4608 C   0  0  0  0  0  0  0  0  0  0  0  0
    8.3384  -15.4108   20.7354 C   0  0  2  0  0  0  0  0  0  0  0  0
    7.6309  -16.2745   19.8233 N   0  0  0  0  0  0  0  0  0  0  0  0
    8.2875  -15.8723   22.1221 C   0  0  0  0  0  0  0  0  0  0  0  0
    7.1820  -16.1765   22.6318 O   0  0  0  0  0  0  0  0  0  0  0  0
    9.4384  -16.0003   22.9471 N   0  0  0  0  0  0  0  0  0  0  0  0
    9.4024  -16.5264   24.2965 C   0  0  1  0  0  0  0  0  0  0  0  0
   10.5540  -17.5044   24.4745 C   0  0  0  0  0  0  0  0  0  0  0  0
   10.2503  -18.8003   23.8313 C   0  0  0  0  0  0  0  0  0  0  0  0
    9.0812  -19.1596   23.1531 C   0  0  0  0  0  0  0  0  0  0  0  0
    9.2557  -20.4285   22.7417 N   0  0  0  0  0  0  0  0  0  0  0  0
   10.4611  -20.8780   23.1231 C   0  0  0  0  0  0  0  0  0  0  0  0
   11.0485  -19.8652   23.7863 N   0  0  0  0  0  0  0  0  0  0  0  0
    9.5948  -15.3648   25.2233 C   0  0  0  0  0  0  0  0  0  0  0  0
   10.5631  -14.5749   25.1109 O   0  0  0  0  0  0  0  0  0  0  0  0
    8.6681  -15.1220   26.2747 N   0  0  0  0  0  0  0  0  0  0  0  0
    8.8972  -14.0073   27.1898 C   0  0  1  0  0  0  0  0  0  0  0  0
    7.5873  -13.4046   27.6245 C   0  0  0  0  0  0  0  0  0  0  0  0
    6.5614  -13.1541   26.1459 S   0  0  0  0  0  0  0  0  0  0  0  0
    9.5988  -14.5047   28.4265 C   0  0  0  0  0  0  0  0  0  0  0  0
   10.0588  -13.6269   29.3771 O   0  0  0  0  0  0  0  0  0  0  0  0
    9.7596  -15.7253   28.5815 O   0  0  0  0  0  0  0  0  0  0  0  0
  2  1  1  0
  3  2  1  0
  3  4  1  1
  5  3  1  0
  5  7  1  0
  5  6  1  6
  7  8  2  0
  9  7  1  0
  9 10  1  0
 10 11  1  6
 11 12  1  0
 12 13  2  0
 13 14  1  0
 15 14  1  0
 16 12  1  0
 16 15  2  0
 17 10  1  0
 17 18  2  0
 19 17  1  0
 20 23  1  0
 20 19  1  0
 20 21  1  1
 22 21  1  0
 23 24  1  0
 25 23  2  0
M  END
$$$$
