IHC.pdb
     RDKit          3D

 25 25  0  0  1  0  0  0  0  0999 V2000
    7.1875  -11.9851   24.7131 C   0  0  0  0  0  0  0  0  0  0  0  0
    6.9700  -13.2903   23.9816 C   0  0  0  0  0  0  0  0  0  0  0  0
    7.9741  -13.4760   22.8700 C   0  0  2  0  0  0  0  0  0  0  0  0
    7.7986  -12.3523   21.8736 C   0  0  0  0  0  0  0  0  0  0  0  0
    7.9108  -14.8288   22.2282 C   0  0  2  0  0  0  0  0  0  0  0  0
    6.6362  -14.9785   21.5715 N   0  0  0  0  0  0  0  0  0  0  0  0
    8.2400  -15.9487   23.1090 C   0  0  0  0  0  0  0  0  0  0  0  0
    7.3164  -16.6500   23.5880 O   0  0  0  0  0  0  0  0  0  0  0  0
    9.5711  -16.2998   23.4645 N   0  0  0  0  0  0  0  0  0  0  0  0
    9.8970  -17.2908   24.4698 C   0  0  1  0  0  0  0  0  0  0  0  0
   10.7224  -18.3938   23.8244 C   0  0  0  0  0  0  0  0  0  0  0  0
   11.5915  -17.8488   22.7601 C   0  0  0  0  0  0  0  0  0  0  0  0
   11.3077  -16.7928   21.8881 C   0  0  0  0  0  0  0  0  0  0  0  0
   12.3866  -16.6536   21.0966 N   0  0  0  0  0  0  0  0  0  0  0  0
   13.3218  -17.5582   21.4242 C   0  0  0  0  0  0  0  0  0  0  0  0
   12.8123  -18.2755   22.4423 N   0  0  0  0  0  0  0  0  0  0  0  0
   10.7250  -16.6009   25.5108 C   0  0  0  0  0  0  0  0  0  0  0  0
   11.3178  -15.5189   25.2825 O   0  0  0  0  0  0  0  0  0  0  0  0
   10.8638  -17.1643   26.8095 N   0  0  0  0  0  0  0  0  0  0  0  0
   11.2155  -16.2999   27.9327 C   0  0  1  0  0  0  0  0  0  0  0  0
   10.1273  -15.2886   28.1802 C   0  0  0  0  0  0  0  0  0  0  0  0
   10.6179  -14.2653   29.5992 S   0  0  0  0  0  0  0  0  0  0  0  0
   11.3563  -17.1280   29.1830 C   0  0  0  0  0  0  0  0  0  0  0  0
   12.2154  -16.7504   30.1855 O   0  0  0  0  0  0  0  0  0  0  0  0
   10.6837  -18.1640   29.3016 O   0  0  0  0  0  0  0  0  0  0  0  0
  2  1  1  0
  3  2  1  0
  3  4  1  6
  5  3  1  0
  5  7  1  0
  5  6  1  1
  7  8  2  0
  9  7  1  0
  9 10  1  0
 10 11  1  6
 11 12  1  0
 12 13  2  0
 13 14  1  0
 15 14  1  0
 16 12  1  0
 16 15  2  0
 17 10  1  0
 17 18  2  0
 19 17  1  0
 20 23  1  0
 20 19  1  0
 20 21  1  1
 22 21  1  0
 23 24  1  0
 25 23  2  0
M  END
$$$$
