IHC.pdb
     RDKit          3D

 25 25  0  0  1  0  0  0  0  0999 V2000
    7.0735  -11.9311   19.4484 C   0  0  0  0  0  0  0  0  0  0  0  0
    7.7733  -13.0141   18.6588 C   0  0  0  0  0  0  0  0  0  0  0  0
    8.4497  -14.0122   19.5670 C   0  0  2  0  0  0  0  0  0  0  0  0
    9.4309  -13.2708   20.4466 C   0  0  0  0  0  0  0  0  0  0  0  0
    9.0848  -15.1535   18.8320 C   0  0  2  0  0  0  0  0  0  0  0  0
    8.1135  -15.7378   17.9412 N   0  0  0  0  0  0  0  0  0  0  0  0
    9.7561  -16.1389   19.6785 C   0  0  0  0  0  0  0  0  0  0  0  0
    9.0705  -16.9690   20.3230 O   0  0  0  0  0  0  0  0  0  0  0  0
   11.1687  -16.2165   19.8201 N   0  0  0  0  0  0  0  0  0  0  0  0
   11.8335  -17.1171   20.7397 C   0  0  1  0  0  0  0  0  0  0  0  0
   13.2538  -17.3595   20.2512 C   0  0  0  0  0  0  0  0  0  0  0  0
   13.2650  -18.2867   19.0999 C   0  0  0  0  0  0  0  0  0  0  0  0
   12.2343  -19.1337   18.6802 C   0  0  0  0  0  0  0  0  0  0  0  0
   12.6955  -19.7854   17.5975 N   0  0  0  0  0  0  0  0  0  0  0  0
   13.9488  -19.3946   17.3201 C   0  0  0  0  0  0  0  0  0  0  0  0
   14.2733  -18.4794   18.2517 N   0  0  0  0  0  0  0  0  0  0  0  0
   11.8809  -16.4273   22.0691 C   0  0  0  0  0  0  0  0  0  0  0  0
   11.5902  -15.2140   22.2018 O   0  0  0  0  0  0  0  0  0  0  0  0
   12.2637  -17.1424   23.2375 N   0  0  0  0  0  0  0  0  0  0  0  0
   11.5246  -16.9351   24.4799 C   0  0  1  0  0  0  0  0  0  0  0  0
   10.0498  -16.8113   24.2011 C   0  0  0  0  0  0  0  0  0  0  0  0
    9.2194  -16.3393   25.7468 S   0  0  0  0  0  0  0  0  0  0  0  0
   11.7156  -18.1233   25.3858 C   0  0  0  0  0  0  0  0  0  0  0  0
   12.1803  -17.9643   26.6682 O   0  0  0  0  0  0  0  0  0  0  0  0
   11.4472  -19.2577   24.9607 O   0  0  0  0  0  0  0  0  0  0  0  0
  2  1  1  0
  3  2  1  0
  3  4  1  6
  5  3  1  0
  5  7  1  0
  5  6  1  1
  7  8  2  0
  9  7  1  0
  9 10  1  0
 10 11  1  6
 11 12  1  0
 12 13  2  0
 13 14  1  0
 15 14  1  0
 16 12  1  0
 16 15  2  0
 17 10  1  0
 17 18  2  0
 19 17  1  0
 20 23  1  0
 20 19  1  0
 20 21  1  6
 22 21  1  0
 23 24  1  0
 25 23  2  0
M  END
$$$$
