IHC.pdb
     RDKit          3D

 25 25  0  0  1  0  0  0  0  0999 V2000
    7.1267  -12.4998   19.1401 C   0  0  0  0  0  0  0  0  0  0  0  0
    7.8083  -13.7283   19.6989 C   0  0  0  0  0  0  0  0  0  0  0  0
    9.1576  -13.3935   20.2870 C   0  0  2  0  0  0  0  0  0  0  0  0
    9.9908  -12.7195   19.2204 C   0  0  0  0  0  0  0  0  0  0  0  0
    9.8512  -14.5726   20.8990 C   0  0  2  0  0  0  0  0  0  0  0  0
   10.0627  -15.5733   19.8830 N   0  0  0  0  0  0  0  0  0  0  0  0
    9.2220  -15.1031   22.1078 C   0  0  0  0  0  0  0  0  0  0  0  0
    8.5942  -14.3277   22.8686 O   0  0  0  0  0  0  0  0  0  0  0  0
    9.2790  -16.4734   22.4829 N   0  0  0  0  0  0  0  0  0  0  0  0
    8.8455  -16.9695   23.7732 C   0  0  1  0  0  0  0  0  0  0  0  0
    8.9968  -18.4831   23.7948 C   0  0  0  0  0  0  0  0  0  0  0  0
    8.5236  -19.0427   25.0786 C   0  0  0  0  0  0  0  0  0  0  0  0
    7.3993  -18.6526   25.8133 C   0  0  0  0  0  0  0  0  0  0  0  0
    7.3687  -19.4371   26.9057 N   0  0  0  0  0  0  0  0  0  0  0  0
    8.4048  -20.2896   26.8936 C   0  0  0  0  0  0  0  0  0  0  0  0
    9.0945  -20.0286   25.7680 N   0  0  0  0  0  0  0  0  0  0  0  0
    9.7562  -16.3688   24.8004 C   0  0  0  0  0  0  0  0  0  0  0  0
   10.6105  -15.4980   24.5070 O   0  0  0  0  0  0  0  0  0  0  0  0
    9.6751  -16.7770   26.1606 N   0  0  0  0  0  0  0  0  0  0  0  0
   10.2139  -15.9084   27.2036 C   0  0  1  0  0  0  0  0  0  0  0  0
    9.3726  -14.6669   27.3419 C   0  0  0  0  0  0  0  0  0  0  0  0
   10.1310  -13.6078   28.6088 S   0  0  0  0  0  0  0  0  0  0  0  0
   10.1805  -16.6272   28.5269 C   0  0  0  0  0  0  0  0  0  0  0  0
   11.1994  -16.4787   29.4355 O   0  0  0  0  0  0  0  0  0  0  0  0
    9.2162  -17.3616   28.7926 O   0  0  0  0  0  0  0  0  0  0  0  0
  2  1  1  0
  3  2  1  0
  3  4  1  6
  5  3  1  0
  5  7  1  0
  5  6  1  6
  7  8  2  0
  9  7  1  0
  9 10  1  0
 10 11  1  6
 11 12  1  0
 12 13  2  0
 13 14  1  0
 15 14  1  0
 16 12  1  0
 16 15  2  0
 17 10  1  0
 17 18  2  0
 19 17  1  0
 20 23  1  0
 20 19  1  0
 20 21  1  1
 22 21  1  0
 23 24  1  0
 25 23  2  0
M  END
$$$$
