PEY.pdb
     RDKit          3D

 29 30  0  0  1  0  0  0  0  0999 V2000
   26.0272  -23.1215  -15.7677 N   0  0  0  0  0  0  0  0  0  0  0  0
   26.3179  -23.7722  -17.0323 C   0  0  0  0  0  0  0  0  0  0  0  0
   26.5058  -22.5961  -17.9600 C   0  0  0  0  0  0  0  0  0  0  0  0
   26.8004  -21.3945  -17.0684 C   0  0  0  0  0  0  0  0  0  0  0  0
   27.0443  -22.0833  -15.7353 C   0  0  1  0  0  0  0  0  0  0  0  0
   26.7893  -21.1890  -14.5868 C   0  0  0  0  0  0  0  0  0  0  0  0
   27.4470  -20.1210  -14.4462 O   0  0  0  0  0  0  0  0  0  0  0  0
   25.7887  -21.5125  -13.6039 N   0  0  0  0  0  0  0  0  0  0  0  0
   25.3689  -20.5357  -12.6312 C   0  0  1  0  0  0  0  0  0  0  0  0
   23.8878  -20.2406  -12.6973 C   0  0  0  0  0  0  0  0  0  0  0  0
   23.0550  -21.4644  -12.8705 C   0  0  0  0  0  0  0  0  0  0  0  0
   21.6279  -21.1069  -12.6842 C   0  0  0  0  0  0  0  0  0  0  0  0
   21.0134  -20.4626  -13.5691 O   0  0  0  0  0  0  0  0  0  0  0  0
   25.7808  -20.9479  -11.2602 C   0  0  0  0  0  0  0  0  0  0  0  0
   25.6232  -22.1444  -10.8602 O   0  0  0  0  0  0  0  0  0  0  0  0
   20.9475  -21.4723  -11.5409 O   0  0  0  0  0  0  0  0  0  0  0  0
   29.4974  -19.9095   -3.2719 O   0  0  0  0  0  0  0  0  0  0  0  0
   29.0213  -19.7333   -4.5699 C   0  0  0  0  0  0  0  0  0  0  0  0
   29.4619  -20.5252   -5.5896 C   0  0  0  0  0  0  0  0  0  0  0  0
   28.9971  -20.3587   -6.8761 C   0  0  0  0  0  0  0  0  0  0  0  0
   28.0698  -19.3688   -7.1203 C   0  0  0  0  0  0  0  0  0  0  0  0
   27.5887  -19.2055   -8.4963 C   0  0  0  0  0  0  0  0  0  0  0  0
   26.7507  -20.3555   -9.0021 C   0  0  2  0  0  0  0  0  0  0  0  0
   26.3568  -20.0108  -10.3760 N   0  0  0  0  0  0  0  0  0  0  0  0
   25.5881  -20.6387   -8.1625 C   0  0  0  0  0  0  0  0  0  0  0  0
   25.7097  -21.5568   -7.1186 O   0  0  0  0  0  0  0  0  0  0  0  0
   27.6168  -18.5642   -6.1058 C   0  0  0  0  0  0  0  0  0  0  0  0
   28.0940  -18.7499   -4.8371 C   0  0  0  0  0  0  0  0  0  0  0  0
   24.4871  -20.0714   -8.3649 O   0  0  0  0  0  0  0  0  0  0  0  0
  1  5  1  0
  2  3  1  0
  2  1  1  0
  3  4  1  0
  5  4  1  0
  6  7  2  0
  5  6  1  1
  8  6  1  0
  9  8  1  0
  9 10  1  1
 11 10  1  0
 12 11  1  0
 13 12  2  0
 14  9  1  0
 14 15  2  0
 16 12  1  0
 18 17  1  0
 19 18  2  0
 20 19  1  0
 21 20  2  0
 21 27  1  0
 22 21  1  0
 23 24  1  0
 23 22  1  1
 24 14  1  0
 25 23  1  0
 26 25  1  0
 27 28  2  0
 28 18  1  0
 29 25  2  0
M  END
$$$$
