PEY.pdb
     RDKit          3D

 29 30  0  0  1  0  0  0  0  0999 V2000
   25.8706  -11.9873  -16.8756 N   0  0  0  0  0  0  0  0  0  0  0  0
   26.8734  -13.0237  -16.7107 C   0  0  0  0  0  0  0  0  0  0  0  0
   28.1605  -12.2448  -16.8379 C   0  0  0  0  0  0  0  0  0  0  0  0
   27.8036  -10.7872  -16.5665 C   0  0  0  0  0  0  0  0  0  0  0  0
   26.3943  -10.9377  -16.0168 C   0  0  1  0  0  0  0  0  0  0  0  0
   25.5872   -9.7132  -16.1988 C   0  0  0  0  0  0  0  0  0  0  0  0
   25.8551   -8.6652  -15.5485 O   0  0  0  0  0  0  0  0  0  0  0  0
   24.4803   -9.6854  -17.1184 N   0  0  0  0  0  0  0  0  0  0  0  0
   23.7264   -8.4752  -17.3271 C   0  0  1  0  0  0  0  0  0  0  0  0
   22.9862   -8.4647  -18.6452 C   0  0  0  0  0  0  0  0  0  0  0  0
   22.1850   -7.2258  -18.8559 C   0  0  0  0  0  0  0  0  0  0  0  0
   21.3338   -7.4006  -20.0576 C   0  0  0  0  0  0  0  0  0  0  0  0
   20.6376   -6.4486  -20.4873 O   0  0  0  0  0  0  0  0  0  0  0  0
   22.8045   -8.2259  -16.1837 C   0  0  0  0  0  0  0  0  0  0  0  0
   22.1157   -9.1680  -15.6794 O   0  0  0  0  0  0  0  0  0  0  0  0
   21.2880   -8.6066  -20.7262 O   0  0  0  0  0  0  0  0  0  0  0  0
   21.9929   -0.3750  -15.6832 O   0  0  0  0  0  0  0  0  0  0  0  0
   22.1284   -1.6697  -15.1852 C   0  0  0  0  0  0  0  0  0  0  0  0
   21.2254   -2.1745  -14.2959 C   0  0  0  0  0  0  0  0  0  0  0  0
   21.3508   -3.4532  -13.7979 C   0  0  0  0  0  0  0  0  0  0  0  0
   22.4144   -4.2234  -14.2163 C   0  0  0  0  0  0  0  0  0  0  0  0
   22.5322   -5.5810  -13.6734 C   0  0  0  0  0  0  0  0  0  0  0  0
   21.8181   -6.6377  -14.4822 C   0  0  2  0  0  0  0  0  0  0  0  0
   22.6795   -6.9308  -15.6371 N   0  0  0  0  0  0  0  0  0  0  0  0
   20.4746   -6.2395  -14.8984 C   0  0  0  0  0  0  0  0  0  0  0  0
   19.4401   -6.2517  -13.9619 O   0  0  0  0  0  0  0  0  0  0  0  0
   23.3309   -3.7304  -15.1100 C   0  0  0  0  0  0  0  0  0  0  0  0
   23.1838   -2.4575  -15.5896 C   0  0  0  0  0  0  0  0  0  0  0  0
   20.2380   -5.8882  -16.0798 O   0  0  0  0  0  0  0  0  0  0  0  0
  1  5  1  0
  2  3  1  0
  2  1  1  0
  3  4  1  0
  5  4  1  0
  6  7  2  0
  5  6  1  6
  8  6  1  0
  9  8  1  0
  9 10  1  6
 11 10  1  0
 12 11  1  0
 13 12  2  0
 14  9  1  0
 14 15  2  0
 16 12  1  0
 18 17  1  0
 19 18  2  0
 20 19  1  0
 21 20  2  0
 21 27  1  0
 22 21  1  0
 23 24  1  0
 23 22  1  6
 24 14  1  0
 25 23  1  0
 26 25  1  0
 27 28  2  0
 28 18  1  0
 29 25  2  0
M  END
$$$$
