PEY.pdb
     RDKit          3D

 29 30  0  0  1  0  0  0  0  0999 V2000
   28.0940  -23.0511  -18.6117 N   0  0  0  0  0  0  0  0  0  0  0  0
   29.0801  -23.8729  -19.2895 C   0  0  0  0  0  0  0  0  0  0  0  0
   30.3523  -23.0904  -19.0694 C   0  0  0  0  0  0  0  0  0  0  0  0
   30.0852  -22.1699  -17.8833 C   0  0  0  0  0  0  0  0  0  0  0  0
   28.7775  -22.7466  -17.3654 C   0  0  1  0  0  0  0  0  0  0  0  0
   27.9873  -21.7537  -16.6080 C   0  0  0  0  0  0  0  0  0  0  0  0
   28.4096  -21.3012  -15.5080 O   0  0  0  0  0  0  0  0  0  0  0  0
   26.7218  -21.2800  -17.1038 N   0  0  0  0  0  0  0  0  0  0  0  0
   26.0007  -20.2429  -16.4103 C   0  0  1  0  0  0  0  0  0  0  0  0
   25.2004  -19.3612  -17.3416 C   0  0  0  0  0  0  0  0  0  0  0  0
   24.2783  -20.1293  -18.2254 C   0  0  0  0  0  0  0  0  0  0  0  0
   23.6129  -19.1901  -19.1605 C   0  0  0  0  0  0  0  0  0  0  0  0
   24.2780  -18.3068  -19.7545 O   0  0  0  0  0  0  0  0  0  0  0  0
   25.1425  -20.8242  -15.3403 C   0  0  0  0  0  0  0  0  0  0  0  0
   24.6078  -21.9694  -15.4784 O   0  0  0  0  0  0  0  0  0  0  0  0
   22.2557  -19.2658  -19.3971 O   0  0  0  0  0  0  0  0  0  0  0  0
   21.3407  -21.1663   -7.3252 O   0  0  0  0  0  0  0  0  0  0  0  0
   22.0854  -20.8179   -8.4507 C   0  0  0  0  0  0  0  0  0  0  0  0
   21.5360  -20.0645   -9.4464 C   0  0  0  0  0  0  0  0  0  0  0  0
   22.2641  -19.7149  -10.5629 C   0  0  0  0  0  0  0  0  0  0  0  0
   23.5706  -20.1427  -10.6598 C   0  0  0  0  0  0  0  0  0  0  0  0
   24.3287  -19.7626  -11.8566 C   0  0  0  0  0  0  0  0  0  0  0  0
   24.0625  -20.6314  -13.0628 C   0  0  2  0  0  0  0  0  0  0  0  0
   24.9068  -20.1086  -14.1470 N   0  0  0  0  0  0  0  0  0  0  0  0
   22.6530  -20.6718  -13.4482 C   0  0  0  0  0  0  0  0  0  0  0  0
   22.1193  -19.6165  -14.1891 O   0  0  0  0  0  0  0  0  0  0  0  0
   24.1376  -20.9009   -9.6671 C   0  0  0  0  0  0  0  0  0  0  0  0
   23.3934  -21.2344   -8.5687 C   0  0  0  0  0  0  0  0  0  0  0  0
   21.9185  -21.6366  -13.1246 O   0  0  0  0  0  0  0  0  0  0  0  0
  1  5  1  0
  2  3  1  0
  2  1  1  0
  3  4  1  0
  5  4  1  0
  6  7  2  0
  5  6  1  6
  8  6  1  0
  9  8  1  0
  9 10  1  6
 11 10  1  0
 12 11  1  0
 13 12  2  0
 14  9  1  0
 14 15  2  0
 16 12  1  0
 18 17  1  0
 19 18  2  0
 20 19  1  0
 21 20  2  0
 21 27  1  0
 22 21  1  0
 23 24  1  0
 23 22  1  1
 24 14  1  0
 25 23  1  0
 26 25  1  0
 27 28  2  0
 28 18  1  0
 29 25  2  0
M  END
$$$$
