PEY.pdb
     RDKit          3D

 29 30  0  0  1  0  0  0  0  0999 V2000
   26.6810  -21.5234  -16.3163 N   0  0  0  0  0  0  0  0  0  0  0  0
   27.1925  -21.4741  -17.6739 C   0  0  0  0  0  0  0  0  0  0  0  0
   27.4900  -20.0044  -17.8490 C   0  0  0  0  0  0  0  0  0  0  0  0
   27.5983  -19.4224  -16.4437 C   0  0  0  0  0  0  0  0  0  0  0  0
   27.6457  -20.6945  -15.6126 C   0  0  1  0  0  0  0  0  0  0  0  0
   27.1803  -20.4772  -14.2270 C   0  0  0  0  0  0  0  0  0  0  0  0
   27.7537  -19.6352  -13.4817 O   0  0  0  0  0  0  0  0  0  0  0  0
   26.0662  -21.2171  -13.6951 N   0  0  0  0  0  0  0  0  0  0  0  0
   25.2474  -20.6633  -12.6466 C   0  0  1  0  0  0  0  0  0  0  0  0
   23.7744  -20.9398  -12.8442 C   0  0  0  0  0  0  0  0  0  0  0  0
   22.9168  -20.3161  -11.7970 C   0  0  0  0  0  0  0  0  0  0  0  0
   21.4994  -20.6575  -12.0681 C   0  0  0  0  0  0  0  0  0  0  0  0
   20.7860  -21.1691  -11.1708 O   0  0  0  0  0  0  0  0  0  0  0  0
   25.7143  -21.1315  -11.3116 C   0  0  0  0  0  0  0  0  0  0  0  0
   25.7246  -22.3683  -11.0173 O   0  0  0  0  0  0  0  0  0  0  0  0
   20.9362  -20.4220  -13.3054 O   0  0  0  0  0  0  0  0  0  0  0  0
   29.2598  -20.1606   -3.2112 O   0  0  0  0  0  0  0  0  0  0  0  0
   28.7919  -19.9807   -4.5118 C   0  0  0  0  0  0  0  0  0  0  0  0
   27.8526  -19.0318   -4.7916 C   0  0  0  0  0  0  0  0  0  0  0  0
   27.3839  -18.8463   -6.0741 C   0  0  0  0  0  0  0  0  0  0  0  0
   27.8838  -19.6430   -7.0815 C   0  0  0  0  0  0  0  0  0  0  0  0
   27.3711  -19.4322   -8.4395 C   0  0  0  0  0  0  0  0  0  0  0  0
   26.6158  -20.6099   -9.0082 C   0  0  2  0  0  0  0  0  0  0  0  0
   26.1562  -20.2036  -10.3444 N   0  0  0  0  0  0  0  0  0  0  0  0
   25.5044  -21.0473   -8.1653 C   0  0  0  0  0  0  0  0  0  0  0  0
   24.2280  -20.5355   -8.4020 O   0  0  0  0  0  0  0  0  0  0  0  0
   28.8286  -20.6016   -6.8164 C   0  0  0  0  0  0  0  0  0  0  0  0
   29.2776  -20.7657   -5.5345 C   0  0  0  0  0  0  0  0  0  0  0  0
   25.6797  -21.8724   -7.2360 O   0  0  0  0  0  0  0  0  0  0  0  0
  1  5  1  0
  2  3  1  0
  2  1  1  0
  3  4  1  0
  5  4  1  0
  6  7  2  0
  5  6  1  1
  8  6  1  0
  9  8  1  0
  9 10  1  6
 11 10  1  0
 12 11  1  0
 13 12  2  0
 14  9  1  0
 14 15  2  0
 16 12  1  0
 18 17  1  0
 19 18  2  0
 20 19  1  0
 21 20  2  0
 21 27  1  0
 22 21  1  0
 23 24  1  0
 23 22  1  1
 24 14  1  0
 25 23  1  0
 26 25  1  0
 27 28  2  0
 28 18  1  0
 29 25  2  0
M  END
$$$$
