PEY.pdb
     RDKit          3D

 29 30  0  0  1  0  0  0  0  0999 V2000
   21.3677  -12.3317  -18.6574 N   0  0  0  0  0  0  0  0  0  0  0  0
   20.5466  -13.3563  -19.2763 C   0  0  0  0  0  0  0  0  0  0  0  0
   20.5323  -14.4345  -18.2196 C   0  0  0  0  0  0  0  0  0  0  0  0
   20.9149  -13.7517  -16.9108 C   0  0  0  0  0  0  0  0  0  0  0  0
   20.8146  -12.2893  -17.3137 C   0  0  1  0  0  0  0  0  0  0  0  0
   21.6559  -11.4157  -16.4694 C   0  0  0  0  0  0  0  0  0  0  0  0
   21.3954  -11.2633  -15.2438 O   0  0  0  0  0  0  0  0  0  0  0  0
   22.7884  -10.7197  -17.0213 N   0  0  0  0  0  0  0  0  0  0  0  0
   23.5716   -9.8253  -16.2070 C   0  0  1  0  0  0  0  0  0  0  0  0
   25.0556  -10.1002  -16.2937 C   0  0  0  0  0  0  0  0  0  0  0  0
   25.4652  -11.3337  -15.5642 C   0  0  0  0  0  0  0  0  0  0  0  0
   26.9178  -11.5535  -15.7663 C   0  0  0  0  0  0  0  0  0  0  0  0
   27.5839  -10.7736  -16.4901 O   0  0  0  0  0  0  0  0  0  0  0  0
   23.2613   -8.4060  -16.5366 C   0  0  0  0  0  0  0  0  0  0  0  0
   23.4862   -7.9381  -17.6972 O   0  0  0  0  0  0  0  0  0  0  0  0
   27.5659  -12.6137  -15.1669 O   0  0  0  0  0  0  0  0  0  0  0  0
   16.2965   -8.1050  -15.3372 O   0  0  0  0  0  0  0  0  0  0  0  0
   17.5437   -7.6262  -15.7348 C   0  0  0  0  0  0  0  0  0  0  0  0
   18.3948   -8.4093  -16.4583 C   0  0  0  0  0  0  0  0  0  0  0  0
   19.6297   -7.9449  -16.8559 C   0  0  0  0  0  0  0  0  0  0  0  0
   19.9966   -6.6629  -16.5077 C   0  0  0  0  0  0  0  0  0  0  0  0
   21.3157   -6.1873  -16.9380 C   0  0  0  0  0  0  0  0  0  0  0  0
   22.3521   -6.1523  -15.8402 C   0  0  2  0  0  0  0  0  0  0  0  0
   22.7085   -7.5509  -15.5594 N   0  0  0  0  0  0  0  0  0  0  0  0
   21.8977   -5.4592  -14.6360 C   0  0  0  0  0  0  0  0  0  0  0  0
   21.6083   -4.0958  -14.7036 O   0  0  0  0  0  0  0  0  0  0  0  0
   19.1522   -5.8630  -15.7805 C   0  0  0  0  0  0  0  0  0  0  0  0
   17.9313   -6.3478  -15.3980 C   0  0  0  0  0  0  0  0  0  0  0  0
   21.7643   -6.0687  -13.5471 O   0  0  0  0  0  0  0  0  0  0  0  0
  1  5  1  0
  2  3  1  0
  2  1  1  0
  3  4  1  0
  5  4  1  0
  6  7  2  0
  5  6  1  1
  8  6  1  0
  9  8  1  0
  9 10  1  6
 11 10  1  0
 12 11  1  0
 13 12  2  0
 14  9  1  0
 14 15  2  0
 16 12  1  0
 18 17  1  0
 19 18  2  0
 20 19  1  0
 21 20  2  0
 21 27  1  0
 22 21  1  0
 23 24  1  0
 23 22  1  6
 24 14  1  0
 25 23  1  0
 26 25  1  0
 27 28  2  0
 28 18  1  0
 29 25  2  0
M  END
$$$$
