PEY.pdb
     RDKit          3D

 29 30  0  0  1  0  0  0  0  0999 V2000
   22.6303  -15.5306  -16.5463 N   0  0  0  0  0  0  0  0  0  0  0  0
   21.4661  -14.7362  -16.8937 C   0  0  0  0  0  0  0  0  0  0  0  0
   20.7197  -15.6568  -17.8289 C   0  0  0  0  0  0  0  0  0  0  0  0
   21.2452  -17.0612  -17.5515 C   0  0  0  0  0  0  0  0  0  0  0  0
   22.0268  -16.8238  -16.2695 C   0  0  1  0  0  0  0  0  0  0  0  0
   23.0948  -17.8255  -16.0697 C   0  0  0  0  0  0  0  0  0  0  0  0
   22.8113  -19.0063  -15.7256 O   0  0  0  0  0  0  0  0  0  0  0  0
   24.4790  -17.4810  -16.2618 N   0  0  0  0  0  0  0  0  0  0  0  0
   25.5137  -18.4707  -16.0997 C   0  0  1  0  0  0  0  0  0  0  0  0
   26.7708  -18.1372  -16.8701 C   0  0  0  0  0  0  0  0  0  0  0  0
   27.8381  -19.1668  -16.7214 C   0  0  0  0  0  0  0  0  0  0  0  0
   28.0342  -19.8494  -18.0233 C   0  0  0  0  0  0  0  0  0  0  0  0
   28.0225  -19.1931  -19.0932 O   0  0  0  0  0  0  0  0  0  0  0  0
   25.8043  -18.6964  -14.6560 C   0  0  0  0  0  0  0  0  0  0  0  0
   25.9600  -17.7190  -13.8580 O   0  0  0  0  0  0  0  0  0  0  0  0
   28.2328  -21.2133  -18.0873 O   0  0  0  0  0  0  0  0  0  0  0  0
   26.1452  -19.9226   -6.3791 O   0  0  0  0  0  0  0  0  0  0  0  0
   25.9066  -19.8617   -7.7510 C   0  0  0  0  0  0  0  0  0  0  0  0
   26.2922  -18.7749   -8.4799 C   0  0  0  0  0  0  0  0  0  0  0  0
   26.0607  -18.7054   -9.8365 C   0  0  0  0  0  0  0  0  0  0  0  0
   25.4265  -19.7623  -10.4532 C   0  0  0  0  0  0  0  0  0  0  0  0
   25.1869  -19.6689  -11.8973 C   0  0  0  0  0  0  0  0  0  0  0  0
   26.2702  -20.2880  -12.7481 C   0  0  2  0  0  0  0  0  0  0  0  0
   25.9123  -20.0080  -14.1464 N   0  0  0  0  0  0  0  0  0  0  0  0
   26.4450  -21.7200  -12.5123 C   0  0  0  0  0  0  0  0  0  0  0  0
   27.3916  -22.1458  -11.5796 O   0  0  0  0  0  0  0  0  0  0  0  0
   25.0326  -20.8622   -9.7343 C   0  0  0  0  0  0  0  0  0  0  0  0
   25.2742  -20.9067   -8.3884 C   0  0  0  0  0  0  0  0  0  0  0  0
   25.7600  -22.5688  -13.1330 O   0  0  0  0  0  0  0  0  0  0  0  0
  1  5  1  0
  2  3  1  0
  2  1  1  0
  3  4  1  0
  5  4  1  0
  6  7  2  0
  5  6  1  6
  8  6  1  0
  9  8  1  0
  9 10  1  6
 11 10  1  0
 12 11  1  0
 13 12  2  0
 14  9  1  0
 14 15  2  0
 16 12  1  0
 18 17  1  0
 19 18  2  0
 20 19  1  0
 21 20  2  0
 21 27  1  0
 22 21  1  0
 23 24  1  0
 23 22  1  1
 24 14  1  0
 25 23  1  0
 26 25  1  0
 27 28  2  0
 28 18  1  0
 29 25  2  0
M  END
$$$$
