PEY.pdb
     RDKit          3D

 29 30  0  0  1  0  0  0  0  0999 V2000
   26.9443  -20.6659  -15.7352 N   0  0  0  0  0  0  0  0  0  0  0  0
   27.6266  -20.4814  -17.0031 C   0  0  0  0  0  0  0  0  0  0  0  0
   27.8287  -18.9857  -17.0413 C   0  0  0  0  0  0  0  0  0  0  0  0
   27.7030  -18.5030  -15.6003 C   0  0  0  0  0  0  0  0  0  0  0  0
   27.7388  -19.8266  -14.8534 C   0  0  1  0  0  0  0  0  0  0  0  0
   27.0774  -19.7447  -13.5345 C   0  0  0  0  0  0  0  0  0  0  0  0
   27.4528  -18.8954  -12.6796 O   0  0  0  0  0  0  0  0  0  0  0  0
   25.9932  -20.6278  -13.1933 N   0  0  0  0  0  0  0  0  0  0  0  0
   25.1443  -20.3492  -12.0627 C   0  0  1  0  0  0  0  0  0  0  0  0
   23.7332  -20.8585  -12.2487 C   0  0  0  0  0  0  0  0  0  0  0  0
   22.9895  -20.1410  -13.3227 C   0  0  0  0  0  0  0  0  0  0  0  0
   21.6162  -20.6939  -13.4103 C   0  0  0  0  0  0  0  0  0  0  0  0
   20.6712  -20.1501  -12.7882 O   0  0  0  0  0  0  0  0  0  0  0  0
   25.7510  -20.8740  -10.8074 C   0  0  0  0  0  0  0  0  0  0  0  0
   25.9766  -22.1163  -10.6577 O   0  0  0  0  0  0  0  0  0  0  0  0
   21.3481  -21.8120  -14.1729 O   0  0  0  0  0  0  0  0  0  0  0  0
   29.6802  -20.3254   -2.8651 O   0  0  0  0  0  0  0  0  0  0  0  0
   29.1476  -20.0919   -4.1317 C   0  0  0  0  0  0  0  0  0  0  0  0
   28.2969  -19.0481   -4.3506 C   0  0  0  0  0  0  0  0  0  0  0  0
   27.7652  -18.8091   -5.5992 C   0  0  0  0  0  0  0  0  0  0  0  0
   28.1095  -19.6499   -6.6356 C   0  0  0  0  0  0  0  0  0  0  0  0
   27.5318  -19.3807   -7.9567 C   0  0  0  0  0  0  0  0  0  0  0  0
   26.6147  -20.4668   -8.4667 C   0  0  2  0  0  0  0  0  0  0  0  0
   26.0877  -19.9952   -9.7558 N   0  0  0  0  0  0  0  0  0  0  0  0
   25.5398  -20.8027   -7.5348 C   0  0  0  0  0  0  0  0  0  0  0  0
   24.2456  -20.3514   -7.7970 O   0  0  0  0  0  0  0  0  0  0  0  0
   28.9637  -20.7037   -6.4318 C   0  0  0  0  0  0  0  0  0  0  0  0
   29.4781  -20.9195   -5.1825 C   0  0  0  0  0  0  0  0  0  0  0  0
   25.7618  -21.4877   -6.5069 O   0  0  0  0  0  0  0  0  0  0  0  0
  1  5  1  0
  2  3  1  0
  2  1  1  0
  3  4  1  0
  5  4  1  0
  6  7  2  0
  5  6  1  1
  8  6  1  0
  9  8  1  0
  9 10  1  6
 11 10  1  0
 12 11  1  0
 13 12  2  0
 14  9  1  0
 14 15  2  0
 16 12  1  0
 18 17  1  0
 19 18  2  0
 20 19  1  0
 21 20  2  0
 21 27  1  0
 22 21  1  0
 23 24  1  0
 23 22  1  1
 24 14  1  0
 25 23  1  0
 26 25  1  0
 27 28  2  0
 28 18  1  0
 29 25  2  0
M  END
$$$$
