PEY.pdb
     RDKit          3D

 29 30  0  0  1  0  0  0  0  0999 V2000
   28.8670  -21.4303  -12.4519 N   0  0  0  0  0  0  0  0  0  0  0  0
   30.0957  -21.8145  -11.7812 C   0  0  0  0  0  0  0  0  0  0  0  0
   30.2269  -20.7478  -10.7209 C   0  0  0  0  0  0  0  0  0  0  0  0
   28.8358  -20.1475  -10.5478 C   0  0  0  0  0  0  0  0  0  0  0  0
   27.9956  -21.1499  -11.3226 C   0  0  1  0  0  0  0  0  0  0  0  0
   26.7337  -20.5610  -11.8172 C   0  0  0  0  0  0  0  0  0  0  0  0
   25.9312  -20.0004  -11.0204 O   0  0  0  0  0  0  0  0  0  0  0  0
   26.3899  -20.6118  -13.2139 N   0  0  0  0  0  0  0  0  0  0  0  0
   25.2664  -19.8670  -13.7234 C   0  0  1  0  0  0  0  0  0  0  0  0
   25.4515  -19.4353  -15.1603 C   0  0  0  0  0  0  0  0  0  0  0  0
   26.5651  -18.4610  -15.3392 C   0  0  0  0  0  0  0  0  0  0  0  0
   26.6546  -18.0887  -16.7719 C   0  0  0  0  0  0  0  0  0  0  0  0
   27.3618  -18.7621  -17.5605 O   0  0  0  0  0  0  0  0  0  0  0  0
   24.0019  -20.6342  -13.5446 C   0  0  0  0  0  0  0  0  0  0  0  0
   23.9217  -21.8554  -13.8889 O   0  0  0  0  0  0  0  0  0  0  0  0
   25.9664  -17.0003  -17.2672 O   0  0  0  0  0  0  0  0  0  0  0  0
   16.1240  -22.3853   -9.9248 O   0  0  0  0  0  0  0  0  0  0  0  0
   17.3295  -21.8103  -10.3233 C   0  0  0  0  0  0  0  0  0  0  0  0
   17.3518  -20.7918  -11.2306 C   0  0  0  0  0  0  0  0  0  0  0  0
   18.5385  -20.2170  -11.6309 C   0  0  0  0  0  0  0  0  0  0  0  0
   19.7161  -20.6918  -11.0948 C   0  0  0  0  0  0  0  0  0  0  0  0
   20.9691  -20.0688  -11.5348 C   0  0  0  0  0  0  0  0  0  0  0  0
   21.6135  -20.7415  -12.7234 C   0  0  2  0  0  0  0  0  0  0  0  0
   22.8639  -20.0140  -12.9860 N   0  0  0  0  0  0  0  0  0  0  0  0
   20.7532  -20.7795  -13.9047 C   0  0  0  0  0  0  0  0  0  0  0  0
   19.9791  -21.9151  -14.1468 O   0  0  0  0  0  0  0  0  0  0  0  0
   19.7105  -21.7152  -10.1814 C   0  0  0  0  0  0  0  0  0  0  0  0
   18.5188  -22.2690   -9.8005 C   0  0  0  0  0  0  0  0  0  0  0  0
   20.7000  -19.8109  -14.7010 O   0  0  0  0  0  0  0  0  0  0  0  0
  1  5  1  0
  2  3  1  0
  2  1  1  0
  3  4  1  0
  5  4  1  0
  6  7  2  0
  5  6  1  6
  8  6  1  0
  9  8  1  0
  9 10  1  6
 11 10  1  0
 12 11  1  0
 13 12  2  0
 14  9  1  0
 14 15  2  0
 16 12  1  0
 18 17  1  0
 19 18  2  0
 20 19  1  0
 21 20  2  0
 21 27  1  0
 22 21  1  0
 23 24  1  0
 23 22  1  1
 24 14  1  0
 25 23  1  0
 26 25  1  0
 27 28  2  0
 28 18  1  0
 29 25  2  0
M  END
$$$$
