SNY.pdb
     RDKit          3D

 27 27  0  0  1  0  0  0  0  0999 V2000
   26.4764  -18.8305  -16.9146 O   0  0  0  0  0  0  0  0  0  0  0  0
   27.8437  -18.9571  -16.7373 C   0  0  0  0  0  0  0  0  0  0  0  0
   28.1640  -20.4002  -16.3981 C   0  0  2  0  0  0  0  0  0  0  0  0
   28.0106  -21.1848  -17.5836 N   0  0  0  0  0  0  0  0  0  0  0  0
   27.2649  -20.8360  -15.3003 C   0  0  0  0  0  0  0  0  0  0  0  0
   26.4097  -21.7347  -15.4933 O   0  0  0  0  0  0  0  0  0  0  0  0
   24.7535  -21.3839  -10.6875 N   0  0  0  0  0  0  0  0  0  0  0  0
   25.9430  -20.6538  -10.4879 C   0  0  0  0  0  0  0  0  0  0  0  0
   26.2795  -20.3826   -9.3104 O   0  0  0  0  0  0  0  0  0  0  0  0
   26.8030  -20.1967  -11.5723 C   0  0  0  0  0  0  0  0  0  0  0  0
   26.3872  -20.6028  -12.9515 C   0  0  2  0  0  0  0  0  0  0  0  0
   27.3182  -20.2677  -13.9796 N   0  0  0  0  0  0  0  0  0  0  0  0
   25.0104  -20.0919  -13.2423 C   0  0  0  0  0  0  0  0  0  0  0  0
   24.8563  -18.9402  -13.7235 O   0  0  0  0  0  0  0  0  0  0  0  0
   21.3543  -15.3577  -17.2659 O   0  0  0  0  0  0  0  0  0  0  0  0
   21.6822  -16.6042  -16.7178 C   0  0  0  0  0  0  0  0  0  0  0  0
   20.7519  -17.3580  -16.0352 C   0  0  0  0  0  0  0  0  0  0  0  0
   21.0702  -18.5864  -15.4935 C   0  0  0  0  0  0  0  0  0  0  0  0
   22.3447  -19.1278  -15.6075 C   0  0  0  0  0  0  0  0  0  0  0  0
   22.6675  -20.4327  -15.0269 C   0  0  0  0  0  0  0  0  0  0  0  0
   22.5321  -20.4970  -13.5302 C   0  0  2  0  0  0  0  0  0  0  0  0
   23.8360  -20.8493  -13.0008 N   0  0  0  0  0  0  0  0  0  0  0  0
   21.5075  -21.4277  -13.0601 C   0  0  0  0  0  0  0  0  0  0  0  0
   20.1922  -21.0712  -12.8095 O   0  0  0  0  0  0  0  0  0  0  0  0
   23.2603  -18.3580  -16.2939 C   0  0  0  0  0  0  0  0  0  0  0  0
   22.9502  -17.1318  -16.8369 C   0  0  0  0  0  0  0  0  0  0  0  0
   21.8215  -22.6285  -12.8661 O   0  0  0  0  0  0  0  0  0  0  0  0
  1  2  1  0
  3  2  1  0
  3  4  1  6
  5  3  1  0
  5  6  2  0
  7  8  1  0
  8 10  1  0
  8  9  2  0
 11 10  1  1
 11 12  1  0
 12  5  1  0
 13 11  1  0
 13 22  1  0
 14 13  2  0
 15 16  1  0
 16 26  2  0
 17 18  2  0
 17 16  1  0
 18 19  1  0
 19 20  1  0
 19 25  2  0
 21 20  1  6
 21 22  1  0
 21 23  1  0
 23 27  2  0
 23 24  1  0
 26 25  1  0
M  END
$$$$
