SNY.pdb
     RDKit          3D

 27 27  0  0  1  0  0  0  0  0999 V2000
   31.3328  -22.5955  -19.3417 O   0  0  0  0  0  0  0  0  0  0  0  0
   32.5233  -22.8165  -20.0132 C   0  0  0  0  0  0  0  0  0  0  0  0
   33.5856  -23.2227  -19.0098 C   0  0  2  0  0  0  0  0  0  0  0  0
   34.8172  -23.4112  -19.7114 N   0  0  0  0  0  0  0  0  0  0  0  0
   33.1283  -24.4504  -18.3117 C   0  0  0  0  0  0  0  0  0  0  0  0
   33.1390  -25.5605  -18.8981 O   0  0  0  0  0  0  0  0  0  0  0  0
   35.1171  -25.2032  -14.0647 N   0  0  0  0  0  0  0  0  0  0  0  0
   34.3048  -25.9267  -14.9616 C   0  0  0  0  0  0  0  0  0  0  0  0
   34.8680  -26.6578  -15.8111 O   0  0  0  0  0  0  0  0  0  0  0  0
   32.8483  -25.8727  -14.9573 C   0  0  0  0  0  0  0  0  0  0  0  0
   32.1999  -25.6155  -16.2814 C   0  0  2  0  0  0  0  0  0  0  0  0
   32.6563  -24.4419  -16.9527 N   0  0  0  0  0  0  0  0  0  0  0  0
   30.7102  -25.6446  -16.1362 C   0  0  0  0  0  0  0  0  0  0  0  0
   30.1034  -24.6407  -15.6831 O   0  0  0  0  0  0  0  0  0  0  0  0
   22.3639  -25.3252  -18.0478 O   0  0  0  0  0  0  0  0  0  0  0  0
   23.7527  -25.4122  -17.8900 C   0  0  0  0  0  0  0  0  0  0  0  0
   24.5256  -26.1870  -18.7279 C   0  0  0  0  0  0  0  0  0  0  0  0
   25.8942  -26.2758  -18.5763 C   0  0  0  0  0  0  0  0  0  0  0  0
   26.5648  -25.5893  -17.5716 C   0  0  0  0  0  0  0  0  0  0  0  0
   28.0177  -25.6940  -17.4231 C   0  0  0  0  0  0  0  0  0  0  0  0
   28.4688  -26.7650  -16.4681 C   0  0  2  0  0  0  0  0  0  0  0  0
   29.9194  -26.7681  -16.4882 N   0  0  0  0  0  0  0  0  0  0  0  0
   27.9386  -28.0947  -16.7643 C   0  0  0  0  0  0  0  0  0  0  0  0
   26.7852  -28.6135  -16.1980 O   0  0  0  0  0  0  0  0  0  0  0  0
   25.7734  -24.8202  -16.7444 C   0  0  0  0  0  0  0  0  0  0  0  0
   24.4078  -24.7266  -16.8894 C   0  0  0  0  0  0  0  0  0  0  0  0
   28.5537  -28.8254  -17.5802 O   0  0  0  0  0  0  0  0  0  0  0  0
  1  2  1  0
  3  2  1  0
  3  4  1  6
  5  3  1  0
  5  6  2  0
  7  8  1  0
  8 10  1  0
  8  9  2  0
 11 10  1  1
 11 12  1  0
 12  5  1  0
 13 11  1  0
 13 22  1  0
 14 13  2  0
 15 16  1  0
 16 26  2  0
 17 18  2  0
 17 16  1  0
 18 19  1  0
 19 20  1  0
 19 25  2  0
 21 20  1  6
 21 22  1  0
 21 23  1  0
 23 27  2  0
 23 24  1  0
 26 25  1  0
M  END
$$$$
