SNY.pdb
     RDKit          3D

 27 27  0  0  1  0  0  0  0  0999 V2000
   19.1110  -11.8927  -19.0858 O   0  0  0  0  0  0  0  0  0  0  0  0
   20.3767  -11.6028  -19.5666 C   0  0  0  0  0  0  0  0  0  0  0  0
   21.3812  -11.7790  -18.4441 C   0  0  2  0  0  0  0  0  0  0  0  0
   21.3832  -13.1550  -18.0553 N   0  0  0  0  0  0  0  0  0  0  0  0
   21.0091  -10.8683  -17.3325 C   0  0  0  0  0  0  0  0  0  0  0  0
   20.7471  -11.3249  -16.1927 O   0  0  0  0  0  0  0  0  0  0  0  0
   19.9860   -7.0189  -14.0330 N   0  0  0  0  0  0  0  0  0  0  0  0
   21.1664   -7.7864  -14.1056 C   0  0  0  0  0  0  0  0  0  0  0  0
   21.9794   -7.7121  -13.1534 O   0  0  0  0  0  0  0  0  0  0  0  0
   21.4948   -8.6610  -15.2244 C   0  0  0  0  0  0  0  0  0  0  0  0
   20.5997   -8.5574  -16.4194 C   0  0  2  0  0  0  0  0  0  0  0  0
   20.9282   -9.4406  -17.4909 N   0  0  0  0  0  0  0  0  0  0  0  0
   20.5053   -7.1317  -16.8662 C   0  0  0  0  0  0  0  0  0  0  0  0
   21.2145   -6.7243  -17.8215 O   0  0  0  0  0  0  0  0  0  0  0  0
   13.6828   -7.0239  -18.6293 O   0  0  0  0  0  0  0  0  0  0  0  0
   14.9774   -6.5032  -18.5096 C   0  0  0  0  0  0  0  0  0  0  0  0
   16.0664   -7.1482  -19.0551 C   0  0  0  0  0  0  0  0  0  0  0  0
   17.3436   -6.6390  -18.9397 C   0  0  0  0  0  0  0  0  0  0  0  0
   17.5990   -5.4500  -18.2679 C   0  0  0  0  0  0  0  0  0  0  0  0
   18.9601   -4.9225  -18.1535 C   0  0  0  0  0  0  0  0  0  0  0  0
   19.4728   -4.8278  -16.7425 C   0  0  2  0  0  0  0  0  0  0  0  0
   19.6402   -6.1856  -16.2597 N   0  0  0  0  0  0  0  0  0  0  0  0
   18.6171   -4.0547  -15.8442 C   0  0  0  0  0  0  0  0  0  0  0  0
   18.0162   -4.5733  -14.7084 O   0  0  0  0  0  0  0  0  0  0  0  0
   16.4962   -4.8206  -17.7297 C   0  0  0  0  0  0  0  0  0  0  0  0
   15.2192   -5.3223  -17.8406 C   0  0  0  0  0  0  0  0  0  0  0  0
   18.4025   -2.8442  -16.1027 O   0  0  0  0  0  0  0  0  0  0  0  0
  1  2  1  0
  3  2  1  0
  3  4  1  1
  5  3  1  0
  5  6  2  0
  7  8  1  0
  8 10  1  0
  8  9  2  0
 11 10  1  1
 11 12  1  0
 12  5  1  0
 13 11  1  0
 13 22  1  0
 14 13  2  0
 15 16  1  0
 16 26  2  0
 17 18  2  0
 17 16  1  0
 18 19  1  0
 19 20  1  0
 19 25  2  0
 21 20  1  6
 21 22  1  0
 21 23  1  0
 23 27  2  0
 23 24  1  0
 26 25  1  0
M  END
$$$$
