SNY.pdb
     RDKit          3D

 27 27  0  0  1  0  0  0  0  0999 V2000
   23.0034   -9.6004  -14.8206 O   0  0  0  0  0  0  0  0  0  0  0  0
   22.2448   -8.5958  -15.3971 C   0  0  0  0  0  0  0  0  0  0  0  0
   20.8116   -9.0748  -15.5265 C   0  0  2  0  0  0  0  0  0  0  0  0
   20.7664  -10.0897  -16.5327 N   0  0  0  0  0  0  0  0  0  0  0  0
   19.9528   -7.9075  -15.8487 C   0  0  0  0  0  0  0  0  0  0  0  0
   19.6963   -7.6129  -17.0419 O   0  0  0  0  0  0  0  0  0  0  0  0
   15.1374   -6.2678  -15.3600 N   0  0  0  0  0  0  0  0  0  0  0  0
   16.2890   -6.6333  -14.6334 C   0  0  0  0  0  0  0  0  0  0  0  0
   16.3801   -7.8159  -14.2257 O   0  0  0  0  0  0  0  0  0  0  0  0
   17.3790   -5.7145  -14.3295 C   0  0  0  0  0  0  0  0  0  0  0  0
   18.6253   -5.8886  -15.1395 C   0  0  2  0  0  0  0  0  0  0  0  0
   19.3763   -7.0633  -14.8363 N   0  0  0  0  0  0  0  0  0  0  0  0
   19.4588   -4.6469  -15.0697 C   0  0  0  0  0  0  0  0  0  0  0  0
   20.1433   -4.4067  -14.0424 O   0  0  0  0  0  0  0  0  0  0  0  0
   23.5976    2.7327  -18.0161 O   0  0  0  0  0  0  0  0  0  0  0  0
   22.9056    1.5225  -17.8819 C   0  0  0  0  0  0  0  0  0  0  0  0
   21.5328    1.4871  -17.7641 C   0  0  0  0  0  0  0  0  0  0  0  0
   20.8467    0.2973  -17.6317 C   0  0  0  0  0  0  0  0  0  0  0  0
   21.5032   -0.9270  -17.6103 C   0  0  0  0  0  0  0  0  0  0  0  0
   20.7613   -2.1814  -17.4687 C   0  0  0  0  0  0  0  0  0  0  0  0
   20.3263   -2.4902  -16.0623 C   0  0  2  0  0  0  0  0  0  0  0  0
   19.5246   -3.6979  -16.1215 N   0  0  0  0  0  0  0  0  0  0  0  0
   19.5931   -1.4069  -15.4098 C   0  0  0  0  0  0  0  0  0  0  0  0
   20.1953   -0.3808  -14.6994 O   0  0  0  0  0  0  0  0  0  0  0  0
   22.8760   -0.8695  -17.7295 C   0  0  0  0  0  0  0  0  0  0  0  0
   23.5674    0.3133  -17.8618 C   0  0  0  0  0  0  0  0  0  0  0  0
   18.3395   -1.3894  -15.4877 O   0  0  0  0  0  0  0  0  0  0  0  0
  1  2  1  0
  3  2  1  0
  3  4  1  6
  5  3  1  0
  5  6  2  0
  7  8  1  0
  8 10  1  0
  8  9  2  0
 11 10  1  1
 11 12  1  0
 12  5  1  0
 13 11  1  0
 13 22  1  0
 14 13  2  0
 15 16  1  0
 16 26  2  0
 17 18  2  0
 17 16  1  0
 18 19  1  0
 19 20  1  0
 19 25  2  0
 21 20  1  6
 21 22  1  0
 21 23  1  0
 23 27  2  0
 23 24  1  0
 26 25  1  0
M  END
$$$$
