SNY.pdb
     RDKit          3D

 27 27  0  0  1  0  0  0  0  0999 V2000
   15.9407   -9.4105  -14.4892 O   0  0  0  0  0  0  0  0  0  0  0  0
   16.7099   -8.2875  -14.2357 C   0  0  0  0  0  0  0  0  0  0  0  0
   16.0336   -7.0787  -14.8535 C   0  0  2  0  0  0  0  0  0  0  0  0
   15.7743   -7.3642  -16.2304 N   0  0  0  0  0  0  0  0  0  0  0  0
   16.9162   -5.8997  -14.6675 C   0  0  0  0  0  0  0  0  0  0  0  0
   18.0445   -5.8531  -15.2161 O   0  0  0  0  0  0  0  0  0  0  0  0
   17.8947   -4.4371   -9.7741 N   0  0  0  0  0  0  0  0  0  0  0  0
   17.3386   -5.6304  -10.2786 C   0  0  0  0  0  0  0  0  0  0  0  0
   17.2279   -6.6068   -9.4990 O   0  0  0  0  0  0  0  0  0  0  0  0
   16.8855   -5.7931  -11.6543 C   0  0  0  0  0  0  0  0  0  0  0  0
   16.9889   -4.5796  -12.5242 C   0  0  2  0  0  0  0  0  0  0  0  0
   16.5401   -4.7657  -13.8658 N   0  0  0  0  0  0  0  0  0  0  0  0
   18.3766   -4.0213  -12.4610 C   0  0  0  0  0  0  0  0  0  0  0  0
   18.8393   -3.6107  -11.3661 O   0  0  0  0  0  0  0  0  0  0  0  0
   20.8677   -9.9659  -13.7585 O   0  0  0  0  0  0  0  0  0  0  0  0
   20.9958   -8.5829  -13.9391 C   0  0  0  0  0  0  0  0  0  0  0  0
   20.3742   -7.9323  -14.9830 C   0  0  0  0  0  0  0  0  0  0  0  0
   20.4975   -6.5702  -15.1650 C   0  0  0  0  0  0  0  0  0  0  0  0
   21.2544   -5.7831  -14.3059 C   0  0  0  0  0  0  0  0  0  0  0  0
   21.3761   -4.3386  -14.5123 C   0  0  0  0  0  0  0  0  0  0  0  0
   20.6114   -3.5033  -13.5223 C   0  0  2  0  0  0  0  0  0  0  0  0
   19.2248   -3.9242  -13.5934 N   0  0  0  0  0  0  0  0  0  0  0  0
   20.7323   -2.0619  -13.7339 C   0  0  0  0  0  0  0  0  0  0  0  0
   21.9360   -1.3757  -13.7290 O   0  0  0  0  0  0  0  0  0  0  0  0
   21.8679   -6.4533  -13.2683 C   0  0  0  0  0  0  0  0  0  0  0  0
   21.7496   -7.8117  -13.0803 C   0  0  0  0  0  0  0  0  0  0  0  0
   19.6909   -1.3885  -13.9340 O   0  0  0  0  0  0  0  0  0  0  0  0
  1  2  1  0
  3  2  1  0
  3  4  1  6
  5  3  1  0
  5  6  2  0
  7  8  1  0
  8 10  1  0
  8  9  2  0
 11 10  1  1
 11 12  1  0
 12  5  1  0
 13 11  1  0
 13 22  1  0
 14 13  2  0
 15 16  1  0
 16 26  2  0
 17 18  2  0
 17 16  1  0
 18 19  1  0
 19 20  1  0
 19 25  2  0
 21 20  1  6
 21 22  1  0
 21 23  1  0
 23 27  2  0
 23 24  1  0
 26 25  1  0
M  END
$$$$
