SNY.pdb
     RDKit          3D

 27 27  0  0  1  0  0  0  0  0999 V2000
   16.1622   -9.7642  -15.4901 O   0  0  0  0  0  0  0  0  0  0  0  0
   17.1488   -9.9005  -16.4519 C   0  0  0  0  0  0  0  0  0  0  0  0
   18.3950  -10.4690  -15.8006 C   0  0  2  0  0  0  0  0  0  0  0  0
   18.1757  -11.8595  -15.5492 N   0  0  0  0  0  0  0  0  0  0  0  0
   18.6723   -9.6981  -14.5627 C   0  0  0  0  0  0  0  0  0  0  0  0
   18.3165  -10.1388  -13.4422 O   0  0  0  0  0  0  0  0  0  0  0  0
   21.8165   -6.4314  -11.3245 N   0  0  0  0  0  0  0  0  0  0  0  0
   21.0134   -5.8780  -12.3426 C   0  0  0  0  0  0  0  0  0  0  0  0
   20.5977   -4.7038  -12.1950 O   0  0  0  0  0  0  0  0  0  0  0  0
   20.6394   -6.5931  -13.5563 C   0  0  0  0  0  0  0  0  0  0  0  0
   19.6402   -7.6941  -13.3844 C   0  0  2  0  0  0  0  0  0  0  0  0
   19.3498   -8.4289  -14.5725 N   0  0  0  0  0  0  0  0  0  0  0  0
   18.4039   -7.1651  -12.7263 C   0  0  0  0  0  0  0  0  0  0  0  0
   17.4868   -6.6620  -13.4244 O   0  0  0  0  0  0  0  0  0  0  0  0
   11.3259   -6.8023   -7.5454 O   0  0  0  0  0  0  0  0  0  0  0  0
   12.5102   -7.0755   -8.2413 C   0  0  0  0  0  0  0  0  0  0  0  0
   13.4899   -7.8838   -7.7061 C   0  0  0  0  0  0  0  0  0  0  0  0
   14.6582   -8.1559   -8.3880 C   0  0  0  0  0  0  0  0  0  0  0  0
   14.9083   -7.6296   -9.6493 C   0  0  0  0  0  0  0  0  0  0  0  0
   16.1532   -7.9272  -10.3604 C   0  0  0  0  0  0  0  0  0  0  0  0
   16.9904   -6.7188  -10.6788 C   0  0  2  0  0  0  0  0  0  0  0  0
   18.1988   -7.1975  -11.3234 N   0  0  0  0  0  0  0  0  0  0  0  0
   17.3099   -5.8880   -9.5192 C   0  0  0  0  0  0  0  0  0  0  0  0
   16.5411   -4.8145   -9.0989 O   0  0  0  0  0  0  0  0  0  0  0  0
   13.9157   -6.8238  -10.1666 C   0  0  0  0  0  0  0  0  0  0  0  0
   12.7478   -6.5479   -9.4925 C   0  0  0  0  0  0  0  0  0  0  0  0
   18.3411   -6.1492   -8.8511 O   0  0  0  0  0  0  0  0  0  0  0  0
  1  2  1  0
  3  2  1  0
  3  4  1  1
  5  3  1  0
  5  6  2  0
  7  8  1  0
  8 10  1  0
  8  9  2  0
 11 10  1  6
 11 12  1  0
 12  5  1  0
 13 11  1  0
 13 22  1  0
 14 13  2  0
 15 16  1  0
 16 26  2  0
 17 18  2  0
 17 16  1  0
 18 19  1  0
 19 20  1  0
 19 25  2  0
 21 20  1  1
 21 22  1  0
 21 23  1  0
 23 27  2  0
 23 24  1  0
 26 25  1  0
M  END
$$$$
