GGP.pdb
     RDKit          3D

 16 16  0  0  1  0  0  0  0  0999 V2000
   23.6394  -20.9948   -7.5655 N   0  0  0  0  0  0  0  0  0  0  0  0
   23.4743  -21.3350   -8.9451 C   0  0  0  0  0  0  0  0  0  0  0  0
   24.6946  -20.9639   -9.7471 C   0  0  0  0  0  0  0  0  0  0  0  0
   25.2478  -19.8424   -9.6086 O   0  0  0  0  0  0  0  0  0  0  0  0
   25.2593  -21.8688  -10.6850 N   0  0  0  0  0  0  0  0  0  0  0  0
   26.3128  -21.4535  -11.5726 C   0  0  0  0  0  0  0  0  0  0  0  0
   25.8007  -20.6721  -12.7277 C   0  0  0  0  0  0  0  0  0  0  0  0
   24.5683  -20.5964  -12.8629 O   0  0  0  0  0  0  0  0  0  0  0  0
   26.7061  -20.0582  -13.6097 N   0  0  0  0  0  0  0  0  0  0  0  0
   28.0875  -19.7302  -13.1640 C   0  0  0  0  0  0  0  0  0  0  0  0
   28.9448  -19.8161  -14.3954 C   0  0  0  0  0  0  0  0  0  0  0  0
   27.9890  -20.2278  -15.4937 C   0  0  0  0  0  0  0  0  0  0  0  0
   26.6848  -19.5956  -14.9498 C   0  0  1  0  0  0  0  0  0  0  0  0
   25.5619  -19.8975  -15.8015 C   0  0  0  0  0  0  0  0  0  0  0  0
   24.7198  -19.0467  -16.4621 O   0  0  0  0  0  0  0  0  0  0  0  0
   25.3083  -21.1462  -15.9689 O   0  0  0  0  0  0  0  0  0  0  0  0
  2  1  1  0
  3  5  1  0
  3  2  1  0
  4  3  2  0
  6  5  1  0
  7  6  1  0
  8  7  2  0
  9 13  1  0
  9  7  1  0
 10  9  1  0
 11 10  1  0
 11 12  1  0
 12 13  1  0
 14 15  1  0
 13 14  1  6
 16 14  2  0
M  END
$$$$
