GGP.pdb
     RDKit          3D

 16 16  0  0  1  0  0  0  0  0999 V2000
   24.1176  -21.2597  -13.6411 N   0  0  0  0  0  0  0  0  0  0  0  0
   23.8973  -19.8776  -13.3452 C   0  0  0  0  0  0  0  0  0  0  0  0
   24.3511  -19.5410  -11.9484 C   0  0  0  0  0  0  0  0  0  0  0  0
   23.5202  -19.3232  -11.0292 O   0  0  0  0  0  0  0  0  0  0  0  0
   25.7318  -19.4589  -11.6254 N   0  0  0  0  0  0  0  0  0  0  0  0
   26.1626  -19.2038  -10.2765 C   0  0  0  0  0  0  0  0  0  0  0  0
   26.4114  -20.4569   -9.5183 C   0  0  0  0  0  0  0  0  0  0  0  0
   26.1413  -21.5288  -10.0848 O   0  0  0  0  0  0  0  0  0  0  0  0
   26.9322  -20.3907   -8.2148 N   0  0  0  0  0  0  0  0  0  0  0  0
   28.2227  -19.6974   -7.9532 C   0  0  0  0  0  0  0  0  0  0  0  0
   28.1223  -19.1634   -6.5520 C   0  0  0  0  0  0  0  0  0  0  0  0
   26.7373  -19.5639   -6.0930 C   0  0  0  0  0  0  0  0  0  0  0  0
   26.5520  -20.8532   -6.9296 C   0  0  1  0  0  0  0  0  0  0  0  0
   25.2459  -21.4272   -6.7245 C   0  0  0  0  0  0  0  0  0  0  0  0
   24.8993  -22.6002   -6.1136 O   0  0  0  0  0  0  0  0  0  0  0  0
   24.2579  -20.7429   -7.1798 O   0  0  0  0  0  0  0  0  0  0  0  0
  2  1  1  0
  3  5  1  0
  3  2  1  0
  4  3  2  0
  6  5  1  0
  7  6  1  0
  8  7  2  0
  9 13  1  0
  9  7  1  0
 10  9  1  0
 11 10  1  0
 11 12  1  0
 12 13  1  0
 14 15  1  0
 13 14  1  6
 16 14  2  0
M  END
$$$$
