GGP.pdb
     RDKit          3D

 16 16  0  0  1  0  0  0  0  0999 V2000
   25.3379  -21.3836  -12.6010 N   0  0  0  0  0  0  0  0  0  0  0  0
   24.9100  -21.3936  -11.2360 C   0  0  0  0  0  0  0  0  0  0  0  0
   25.6525  -20.3633  -10.4253 C   0  0  0  0  0  0  0  0  0  0  0  0
   25.6384  -19.1475  -10.7483 O   0  0  0  0  0  0  0  0  0  0  0  0
   26.3922  -20.7325   -9.2703 N   0  0  0  0  0  0  0  0  0  0  0  0
   26.8791  -19.7364   -8.3532 C   0  0  0  0  0  0  0  0  0  0  0  0
   26.8101  -20.1900   -6.9402 C   0  0  0  0  0  0  0  0  0  0  0  0
   25.7617  -20.7441   -6.5702 O   0  0  0  0  0  0  0  0  0  0  0  0
   27.9075  -19.9825   -6.0875 N   0  0  0  0  0  0  0  0  0  0  0  0
   29.2589  -19.7145   -6.6502 C   0  0  0  0  0  0  0  0  0  0  0  0
   29.9583  -18.8508   -5.6385 C   0  0  0  0  0  0  0  0  0  0  0  0
   28.9334  -18.6438   -4.5449 C   0  0  0  0  0  0  0  0  0  0  0  0
   28.1347  -19.9622   -4.6882 C   0  0  1  0  0  0  0  0  0  0  0  0
   27.0211  -20.0017   -3.7739 C   0  0  0  0  0  0  0  0  0  0  0  0
   26.9211  -20.6095   -2.5533 O   0  0  0  0  0  0  0  0  0  0  0  0
   25.9641  -19.3774   -4.1546 O   0  0  0  0  0  0  0  0  0  0  0  0
  2  1  1  0
  3  5  1  0
  3  2  1  0
  4  3  2  0
  6  5  1  0
  7  6  1  0
  8  7  2  0
  9 13  1  0
  9  7  1  0
 10  9  1  0
 11 10  1  0
 11 12  1  0
 12 13  1  0
 14 15  1  0
 13 14  1  1
 16 14  2  0
M  END
$$$$
