GGP.pdb
     RDKit          3D

 16 16  0  0  1  0  0  0  0  0999 V2000
   16.2479  -14.4976  -16.8091 N   0  0  0  0  0  0  0  0  0  0  0  0
   16.8624  -13.3462  -17.3948 C   0  0  0  0  0  0  0  0  0  0  0  0
   18.1466  -12.9963  -16.6887 C   0  0  0  0  0  0  0  0  0  0  0  0
   18.4291  -13.4931  -15.5679 O   0  0  0  0  0  0  0  0  0  0  0  0
   19.0792  -12.0941  -17.2664 N   0  0  0  0  0  0  0  0  0  0  0  0
   20.3063  -11.7645  -16.5912 C   0  0  0  0  0  0  0  0  0  0  0  0
   20.1825  -10.5354  -15.7660 C   0  0  0  0  0  0  0  0  0  0  0  0
   19.1244   -9.8913  -15.8584 O   0  0  0  0  0  0  0  0  0  0  0  0
   21.2417  -10.1499  -14.9270 N   0  0  0  0  0  0  0  0  0  0  0  0
   22.2815  -11.1356  -14.5247 C   0  0  0  0  0  0  0  0  0  0  0  0
   23.5411  -10.3409  -14.3235 C   0  0  0  0  0  0  0  0  0  0  0  0
   23.1489   -8.9188  -14.6598 C   0  0  0  0  0  0  0  0  0  0  0  0
   21.6525   -8.9649  -14.2658 C   0  0  1  0  0  0  0  0  0  0  0  0
   20.9973   -7.7131  -14.5510 C   0  0  0  0  0  0  0  0  0  0  0  0
   20.8767   -7.0473  -15.7390 O   0  0  0  0  0  0  0  0  0  0  0  0
   20.4439   -7.1315  -13.5474 O   0  0  0  0  0  0  0  0  0  0  0  0
  2  1  1  0
  3  5  1  0
  3  2  1  0
  4  3  2  0
  6  5  1  0
  7  6  1  0
  8  7  2  0
  9 13  1  0
  9  7  1  0
 10  9  1  0
 11 10  1  0
 11 12  1  0
 12 13  1  0
 14 15  1  0
 13 14  1  6
 16 14  2  0
M  END
$$$$
