GGP.pdb
     RDKit          3D

 16 16  0  0  1  0  0  0  0  0999 V2000
   22.8372  -21.2040   -7.2049 N   0  0  0  0  0  0  0  0  0  0  0  0
   22.7512  -21.1338   -8.6311 C   0  0  0  0  0  0  0  0  0  0  0  0
   24.1068  -20.9044   -9.2475 C   0  0  0  0  0  0  0  0  0  0  0  0
   24.8798  -20.0149   -8.8068 O   0  0  0  0  0  0  0  0  0  0  0  0
   24.5550  -21.6855  -10.3458 N   0  0  0  0  0  0  0  0  0  0  0  0
   25.8373  -21.4436  -10.9520 C   0  0  0  0  0  0  0  0  0  0  0  0
   25.7385  -20.5693  -12.1490 C   0  0  0  0  0  0  0  0  0  0  0  0
   24.6121  -20.1411  -12.4504 O   0  0  0  0  0  0  0  0  0  0  0  0
   26.8956  -20.2621  -12.8847 N   0  0  0  0  0  0  0  0  0  0  0  0
   28.2290  -20.2555  -12.2241 C   0  0  0  0  0  0  0  0  0  0  0  0
   29.2153  -20.6373  -13.2918 C   0  0  0  0  0  0  0  0  0  0  0  0
   28.3675  -20.8760  -14.5220 C   0  0  0  0  0  0  0  0  0  0  0  0
   27.2003  -19.9041  -14.2223 C   0  0  1  0  0  0  0  0  0  0  0  0
   26.1829  -19.9780  -15.2407 C   0  0  0  0  0  0  0  0  0  0  0  0
   25.7806  -19.0268  -16.1366 O   0  0  0  0  0  0  0  0  0  0  0  0
   25.5578  -21.0978  -15.3247 O   0  0  0  0  0  0  0  0  0  0  0  0
  2  1  1  0
  3  5  1  0
  3  2  1  0
  4  3  2  0
  6  5  1  0
  7  6  1  0
  8  7  2  0
  9 13  1  0
  9  7  1  0
 10  9  1  0
 11 10  1  0
 11 12  1  0
 12 13  1  0
 14 15  1  0
 13 14  1  6
 16 14  2  0
M  END
$$$$
