GGP.pdb
     RDKit          3D

 16 16  0  0  1  0  0  0  0  0999 V2000
   14.8661  -12.6986  -15.9515 N   0  0  0  0  0  0  0  0  0  0  0  0
   15.6700  -11.8265  -16.7512 C   0  0  0  0  0  0  0  0  0  0  0  0
   17.1123  -11.8650  -16.3169 C   0  0  0  0  0  0  0  0  0  0  0  0
   17.5035  -12.6671  -15.4301 O   0  0  0  0  0  0  0  0  0  0  0  0
   18.0761  -10.9966  -16.8952 N   0  0  0  0  0  0  0  0  0  0  0  0
   19.4604  -11.0650  -16.5091 C   0  0  0  0  0  0  0  0  0  0  0  0
   19.8115  -10.0442  -15.4884 C   0  0  0  0  0  0  0  0  0  0  0  0
   18.9508   -9.1908  -15.2165 O   0  0  0  0  0  0  0  0  0  0  0  0
   21.0766  -10.0762  -14.8775 N   0  0  0  0  0  0  0  0  0  0  0  0
   21.8872  -11.3241  -14.8883 C   0  0  0  0  0  0  0  0  0  0  0  0
   23.3225  -10.8785  -14.8751 C   0  0  0  0  0  0  0  0  0  0  0  0
   23.2495   -9.3673  -14.8893 C   0  0  0  0  0  0  0  0  0  0  0  0
   21.8975   -9.1684  -14.1618 C   0  0  1  0  0  0  0  0  0  0  0  0
   21.5419   -7.7734  -14.0901 C   0  0  0  0  0  0  0  0  0  0  0  0
   21.3609   -6.8706  -15.1008 O   0  0  0  0  0  0  0  0  0  0  0  0
   21.3685   -7.3018  -12.9072 O   0  0  0  0  0  0  0  0  0  0  0  0
  2  1  1  0
  3  5  1  0
  3  2  1  0
  4  3  2  0
  6  5  1  0
  7  6  1  0
  8  7  2  0
  9 13  1  0
  9  7  1  0
 10  9  1  0
 11 10  1  0
 11 12  1  0
 12 13  1  0
 14 15  1  0
 13 14  1  6
 16 14  2  0
M  END
$$$$
