YQT.pdb
     RDKit          3D

 29 29  0  0  1  0  0  0  0  0999 V2000
    8.7237  -12.3560   17.0630 O   0  0  0  0  0  0  0  0  0  0  0  0
    8.2212  -12.9360   18.2137 C   0  0  0  0  0  0  0  0  0  0  0  0
    9.0581  -13.3523   19.2403 C   0  0  0  0  0  0  0  0  0  0  0  0
    8.5505  -13.9212   20.3683 C   0  0  0  0  0  0  0  0  0  0  0  0
    7.1817  -14.1051   20.5307 C   0  0  0  0  0  0  0  0  0  0  0  0
    6.7086  -14.7366   21.7938 C   0  0  0  0  0  0  0  0  0  0  0  0
    7.0727  -16.1923   21.8616 C   0  0  2  0  0  0  0  0  0  0  0  0
    6.1457  -16.9488   21.0157 N   0  0  0  0  0  0  0  0  0  0  0  0
    6.9537  -16.6804   23.2642 C   0  0  0  0  0  0  0  0  0  0  0  0
    5.8761  -17.1647   23.7109 O   0  0  0  0  0  0  0  0  0  0  0  0
    6.3616  -13.6995   19.5298 C   0  0  0  0  0  0  0  0  0  0  0  0
    6.8762  -13.1150   18.3717 C   0  0  0  0  0  0  0  0  0  0  0  0
    8.7049  -20.9188   26.2845 N   0  0  0  0  0  0  0  0  0  0  0  0
    7.4247  -20.5804   26.7859 C   0  0  0  0  0  0  0  0  0  0  0  0
    6.8156  -21.2658   27.6166 O   0  0  0  0  0  0  0  0  0  0  0  0
    6.7948  -19.3228   26.2693 C   0  0  0  0  0  0  0  0  0  0  0  0
    7.7320  -18.6638   25.3085 C   0  0  0  0  0  0  0  0  0  0  0  0
    7.9498  -17.2085   25.5189 C   0  0  2  0  0  0  0  0  0  0  0  0
    8.0420  -16.6243   24.1613 N   0  0  0  0  0  0  0  0  0  0  0  0
    9.1418  -16.7935   26.2412 C   0  0  0  0  0  0  0  0  0  0  0  0
   10.3204  -17.0319   25.7985 O   0  0  0  0  0  0  0  0  0  0  0  0
    9.6974  -13.1064   27.5624 C   0  0  0  0  0  0  0  0  0  0  0  0
    9.9338  -14.1432   28.6267 C   0  0  1  0  0  0  0  0  0  0  0  0
    8.8165  -14.1087   29.4667 O   0  0  0  0  0  0  0  0  0  0  0  0
   10.2257  -15.5103   28.1247 C   0  0  2  0  0  0  0  0  0  0  0  0
    9.0527  -16.0965   27.4699 N   0  0  0  0  0  0  0  0  0  0  0  0
   10.6763  -16.4230   29.2381 C   0  0  0  0  0  0  0  0  0  0  0  0
   11.6436  -16.1664   29.9669 O   0  0  0  0  0  0  0  0  0  0  0  0
    9.9450  -17.5841   29.4168 O   0  0  0  0  0  0  0  0  0  0  0  0
  2  3  2  0
  2  1  1  0
  4  3  1  0
  5  4  2  0
  6  5  1  0
  7  6  1  0
  7  8  1  6
  9  7  1  0
  9 10  2  0
 11  5  1  0
 11 12  2  0
 12  2  1  0
 14 13  1  0
 15 14  2  0
 16 14  1  0
 18 17  1  6
 17 16  1  0
 18 19  1  0
 19  9  1  0
 20 18  1  0
 21 20  2  0
 23 22  1  6
 23 25  1  0
 24 23  1  0
 25 27  1  0
 25 26  1  1
 26 20  1  0
 27 29  1  0
 28 27  2  0
M  END
$$$$
