YQT.pdb
     RDKit          3D

 29 29  0  0  1  0  0  0  0  0999 V2000
    7.7135  -10.9808   18.6723 O   0  0  0  0  0  0  0  0  0  0  0  0
    8.1238  -12.1599   19.2677 C   0  0  0  0  0  0  0  0  0  0  0  0
    7.2218  -13.0035   19.9020 C   0  0  0  0  0  0  0  0  0  0  0  0
    7.6386  -14.1617   20.4837 C   0  0  0  0  0  0  0  0  0  0  0  0
    8.9770  -14.5385   20.4637 C   0  0  0  0  0  0  0  0  0  0  0  0
    9.3501  -15.8198   21.1246 C   0  0  0  0  0  0  0  0  0  0  0  0
   10.1480  -16.7077   20.2129 C   0  0  2  0  0  0  0  0  0  0  0  0
    9.3048  -17.0972   19.0796 N   0  0  0  0  0  0  0  0  0  0  0  0
   10.5719  -17.9351   20.9431 C   0  0  0  0  0  0  0  0  0  0  0  0
    9.8916  -18.9988   20.9074 O   0  0  0  0  0  0  0  0  0  0  0  0
    9.8605  -13.7167   19.8449 C   0  0  0  0  0  0  0  0  0  0  0  0
    9.4390  -12.5286   19.2463 C   0  0  0  0  0  0  0  0  0  0  0  0
   14.3535  -23.0932   21.9648 N   0  0  0  0  0  0  0  0  0  0  0  0
   14.2781  -21.8052   21.3813 C   0  0  0  0  0  0  0  0  0  0  0  0
   14.1746  -21.6143   20.1633 O   0  0  0  0  0  0  0  0  0  0  0  0
   14.3283  -20.6277   22.3067 C   0  0  0  0  0  0  0  0  0  0  0  0
   13.5512  -19.4995   21.7072 C   0  0  0  0  0  0  0  0  0  0  0  0
   12.2333  -19.2216   22.3358 C   0  0  2  0  0  0  0  0  0  0  0  0
   11.7560  -17.9668   21.7106 N   0  0  0  0  0  0  0  0  0  0  0  0
   12.1918  -19.0207   23.7756 C   0  0  0  0  0  0  0  0  0  0  0  0
   12.5463  -17.9145   24.3164 O   0  0  0  0  0  0  0  0  0  0  0  0
   11.0262  -20.9418   28.2738 C   0  0  0  0  0  0  0  0  0  0  0  0
   10.9141  -20.8894   26.7743 C   0  0  1  0  0  0  0  0  0  0  0  0
    9.5635  -20.6700   26.4866 O   0  0  0  0  0  0  0  0  0  0  0  0
   11.8046  -19.9055   26.1071 C   0  0  2  0  0  0  0  0  0  0  0  0
   11.7480  -20.0423   24.6489 N   0  0  0  0  0  0  0  0  0  0  0  0
   13.2350  -20.0583   26.5614 C   0  0  0  0  0  0  0  0  0  0  0  0
   14.0864  -20.6719   25.9047 O   0  0  0  0  0  0  0  0  0  0  0  0
   13.5641  -19.4679   27.7689 O   0  0  0  0  0  0  0  0  0  0  0  0
  2  3  2  0
  2  1  1  0
  4  3  1  0
  5  4  2  0
  6  5  1  0
  7  6  1  0
  7  8  1  6
  9  7  1  0
  9 10  2  0
 11  5  1  0
 11 12  2  0
 12  2  1  0
 14 13  1  0
 15 14  2  0
 16 14  1  0
 18 17  1  6
 17 16  1  0
 18 19  1  0
 19  9  1  0
 20 18  1  0
 21 20  2  0
 23 22  1  1
 23 25  1  0
 24 23  1  0
 25 27  1  0
 25 26  1  6
 26 20  1  0
 27 29  1  0
 28 27  2  0
M  END
$$$$
