YQT.pdb
     RDKit          3D

 29 29  0  0  1  0  0  0  0  0999 V2000
    5.2953  -11.6194   28.6264 O   0  0  0  0  0  0  0  0  0  0  0  0
    5.9668  -12.1408   27.5355 C   0  0  0  0  0  0  0  0  0  0  0  0
    5.6266  -13.3744   26.9970 C   0  0  0  0  0  0  0  0  0  0  0  0
    6.2953  -13.8761   25.9224 C   0  0  0  0  0  0  0  0  0  0  0  0
    7.3387  -13.1736   25.3293 C   0  0  0  0  0  0  0  0  0  0  0  0
    8.0193  -13.7936   24.1587 C   0  0  0  0  0  0  0  0  0  0  0  0
    8.5980  -15.1381   24.4958 C   0  0  2  0  0  0  0  0  0  0  0  0
    9.5463  -14.9781   25.6012 N   0  0  0  0  0  0  0  0  0  0  0  0
    9.3211  -15.6897   23.3158 C   0  0  0  0  0  0  0  0  0  0  0  0
   10.5476  -15.4601   23.1202 O   0  0  0  0  0  0  0  0  0  0  0  0
    7.6734  -11.9683   25.8529 C   0  0  0  0  0  0  0  0  0  0  0  0
    6.9910  -11.4488   26.9538 C   0  0  0  0  0  0  0  0  0  0  0  0
    9.9561  -21.0185   21.5395 N   0  0  0  0  0  0  0  0  0  0  0  0
   10.9193  -20.2507   22.2379 C   0  0  0  0  0  0  0  0  0  0  0  0
   11.8286  -20.7493   22.9128 O   0  0  0  0  0  0  0  0  0  0  0  0
   10.8119  -18.7593   22.1398 C   0  0  0  0  0  0  0  0  0  0  0  0
    9.6020  -18.4068   21.3349 C   0  0  0  0  0  0  0  0  0  0  0  0
    9.3645  -16.9532   21.1348 C   0  0  2  0  0  0  0  0  0  0  0  0
    8.6679  -16.4962   22.3592 N   0  0  0  0  0  0  0  0  0  0  0  0
    8.5470  -16.5438   20.0039 C   0  0  0  0  0  0  0  0  0  0  0  0
    7.3766  -17.0253   19.8036 O   0  0  0  0  0  0  0  0  0  0  0  0
    8.1196  -12.7377   18.7212 C   0  0  0  0  0  0  0  0  0  0  0  0
    8.4494  -13.7092   17.6206 C   0  0  1  0  0  0  0  0  0  0  0  0
    9.7817  -13.4708   17.2695 O   0  0  0  0  0  0  0  0  0  0  0  0
    8.1922  -15.1371   17.9388 C   0  0  2  0  0  0  0  0  0  0  0  0
    9.0079  -15.5833   19.0719 N   0  0  0  0  0  0  0  0  0  0  0  0
    8.4688  -16.0260   16.7518 C   0  0  0  0  0  0  0  0  0  0  0  0
    9.3348  -16.9107   16.7626 O   0  0  0  0  0  0  0  0  0  0  0  0
    7.6947  -15.8083   15.6257 O   0  0  0  0  0  0  0  0  0  0  0  0
  2  3  2  0
  2  1  1  0
  4  3  1  0
  5  4  2  0
  6  5  1  0
  7  6  1  0
  7  8  1  1
  9  7  1  0
  9 10  2  0
 11  5  1  0
 11 12  2  0
 12  2  1  0
 14 13  1  0
 15 14  2  0
 16 14  1  0
 18 17  1  1
 17 16  1  0
 18 19  1  0
 19  9  1  0
 20 18  1  0
 21 20  2  0
 23 22  1  1
 23 25  1  0
 24 23  1  0
 25 27  1  0
 25 26  1  1
 26 20  1  0
 27 29  1  0
 28 27  2  0
M  END
$$$$
