YQT.pdb
     RDKit          3D

 29 29  0  0  1  0  0  0  0  0999 V2000
    7.8559  -13.0406   16.1673 O   0  0  0  0  0  0  0  0  0  0  0  0
    7.8600  -13.4976   17.4727 C   0  0  0  0  0  0  0  0  0  0  0  0
    8.9478  -14.1823   17.9973 C   0  0  0  0  0  0  0  0  0  0  0  0
    8.9395  -14.6263   19.2844 C   0  0  0  0  0  0  0  0  0  0  0  0
    7.8451  -14.4110   20.1150 C   0  0  0  0  0  0  0  0  0  0  0  0
    7.9155  -14.9305   21.5089 C   0  0  0  0  0  0  0  0  0  0  0  0
    9.2880  -15.4379   21.8478 C   0  0  2  0  0  0  0  0  0  0  0  0
    9.6650  -16.4629   20.8710 N   0  0  0  0  0  0  0  0  0  0  0  0
    9.2827  -16.0463   23.2077 C   0  0  0  0  0  0  0  0  0  0  0  0
    8.5197  -15.6252   24.1220 O   0  0  0  0  0  0  0  0  0  0  0  0
    6.7810  -13.7424   19.6055 C   0  0  0  0  0  0  0  0  0  0  0  0
    6.7843  -13.2843   18.2873 C   0  0  0  0  0  0  0  0  0  0  0  0
   12.0084  -21.3613   24.3741 N   0  0  0  0  0  0  0  0  0  0  0  0
   10.6556  -21.3860   23.9565 C   0  0  0  0  0  0  0  0  0  0  0  0
   10.1072  -22.3889   23.4831 O   0  0  0  0  0  0  0  0  0  0  0  0
    9.8673  -20.1204   24.1052 C   0  0  0  0  0  0  0  0  0  0  0  0
   10.7345  -19.0727   24.7268 C   0  0  0  0  0  0  0  0  0  0  0  0
   10.1094  -17.7338   24.8881 C   0  0  2  0  0  0  0  0  0  0  0  0
   10.1321  -17.1239   23.5389 N   0  0  0  0  0  0  0  0  0  0  0  0
   10.7444  -16.7879   25.7920 C   0  0  0  0  0  0  0  0  0  0  0  0
   11.8766  -16.2505   25.5252 O   0  0  0  0  0  0  0  0  0  0  0  0
   10.0667  -13.3204   27.0252 C   0  0  0  0  0  0  0  0  0  0  0  0
   10.0366  -14.2788   28.1847 C   0  0  1  0  0  0  0  0  0  0  0  0
    8.6876  -14.5080   28.4726 O   0  0  0  0  0  0  0  0  0  0  0  0
   10.7972  -15.5388   27.9842 C   0  0  2  0  0  0  0  0  0  0  0  0
   10.1325  -16.4104   27.0112 N   0  0  0  0  0  0  0  0  0  0  0  0
   10.9724  -16.2903   29.2804 C   0  0  0  0  0  0  0  0  0  0  0  0
   10.4905  -17.4139   29.4758 O   0  0  0  0  0  0  0  0  0  0  0  0
   11.7136  -15.6584   30.2634 O   0  0  0  0  0  0  0  0  0  0  0  0
  2  3  2  0
  2  1  1  0
  4  3  1  0
  5  4  2  0
  6  5  1  0
  7  6  1  0
  7  8  1  6
  9  7  1  0
  9 10  2  0
 11  5  1  0
 11 12  2  0
 12  2  1  0
 14 13  1  0
 15 14  2  0
 16 14  1  0
 18 17  1  6
 17 16  1  0
 18 19  1  0
 19  9  1  0
 20 18  1  0
 21 20  2  0
 23 22  1  6
 23 25  1  0
 24 23  1  0
 25 27  1  0
 25 26  1  6
 26 20  1  0
 27 29  1  0
 28 27  2  0
M  END
$$$$
