YQT.pdb
     RDKit          3D

 29 29  0  0  1  0  0  0  0  0999 V2000
    5.2262  -10.3188   27.2538 O   0  0  0  0  0  0  0  0  0  0  0  0
    5.9206  -11.4047   26.7521 C   0  0  0  0  0  0  0  0  0  0  0  0
    6.8187  -11.2683   25.7023 C   0  0  0  0  0  0  0  0  0  0  0  0
    7.4964  -12.3453   25.2180 C   0  0  0  0  0  0  0  0  0  0  0  0
    7.3130  -13.6147   25.7555 C   0  0  0  0  0  0  0  0  0  0  0  0
    8.0916  -14.7396   25.1671 C   0  0  0  0  0  0  0  0  0  0  0  0
    7.3156  -15.4598   24.1017 C   0  0  2  0  0  0  0  0  0  0  0  0
    6.3106  -16.3099   24.7454 N   0  0  0  0  0  0  0  0  0  0  0  0
    8.2314  -16.3185   23.2995 C   0  0  0  0  0  0  0  0  0  0  0  0
    8.4480  -17.5253   23.6030 O   0  0  0  0  0  0  0  0  0  0  0  0
    6.4364  -13.7513   26.7811 C   0  0  0  0  0  0  0  0  0  0  0  0
    5.7395  -12.6508   27.2820 C   0  0  0  0  0  0  0  0  0  0  0  0
    7.7549  -18.1363   18.3134 N   0  0  0  0  0  0  0  0  0  0  0  0
    8.5978  -17.0069   18.1751 C   0  0  0  0  0  0  0  0  0  0  0  0
    9.3346  -16.8225   17.1985 O   0  0  0  0  0  0  0  0  0  0  0  0
    8.5795  -15.9963   19.2813 C   0  0  0  0  0  0  0  0  0  0  0  0
    9.8761  -16.0582   20.0236 C   0  0  0  0  0  0  0  0  0  0  0  0
    9.8155  -16.6804   21.3722 C   0  0  2  0  0  0  0  0  0  0  0  0
    8.9013  -15.8225   22.1604 N   0  0  0  0  0  0  0  0  0  0  0  0
   11.0519  -16.7911   22.1297 C   0  0  0  0  0  0  0  0  0  0  0  0
   11.8252  -15.7865   22.3162 O   0  0  0  0  0  0  0  0  0  0  0  0
   11.7984  -18.0117   25.8223 C   0  0  0  0  0  0  0  0  0  0  0  0
   12.4628  -18.8470   24.7618 C   0  0  1  0  0  0  0  0  0  0  0  0
   11.6821  -19.9982   24.6192 O   0  0  0  0  0  0  0  0  0  0  0  0
   12.6991  -18.1565   23.4681 C   0  0  2  0  0  0  0  0  0  0  0  0
   11.4553  -18.0198   22.7049 N   0  0  0  0  0  0  0  0  0  0  0  0
   13.7150  -18.8899   22.6281 C   0  0  0  0  0  0  0  0  0  0  0  0
   13.4458  -19.3782   21.5228 O   0  0  0  0  0  0  0  0  0  0  0  0
   14.9903  -18.9940   23.1552 O   0  0  0  0  0  0  0  0  0  0  0  0
  2  3  2  0
  2  1  1  0
  4  3  1  0
  5  4  2  0
  6  5  1  0
  7  6  1  0
  7  8  1  1
  9  7  1  0
  9 10  2  0
 11  5  1  0
 11 12  2  0
 12  2  1  0
 14 13  1  0
 15 14  2  0
 16 14  1  0
 18 17  1  6
 17 16  1  0
 18 19  1  0
 19  9  1  0
 20 18  1  0
 21 20  2  0
 23 22  1  1
 23 25  1  0
 24 23  1  0
 25 27  1  0
 25 26  1  6
 26 20  1  0
 27 29  1  0
 28 27  2  0
M  END
$$$$
