YQT.pdb
     RDKit          3D

 29 29  0  0  1  0  0  0  0  0999 V2000
    5.0244   -9.7961   26.0839 O   0  0  0  0  0  0  0  0  0  0  0  0
    5.6862  -11.0105   26.0653 C   0  0  0  0  0  0  0  0  0  0  0  0
    6.9837  -11.1213   25.5839 C   0  0  0  0  0  0  0  0  0  0  0  0
    7.6242  -12.3226   25.5716 C   0  0  0  0  0  0  0  0  0  0  0  0
    7.0035  -13.4762   26.0384 C   0  0  0  0  0  0  0  0  0  0  0  0
    7.7730  -14.7503   25.9885 C   0  0  0  0  0  0  0  0  0  0  0  0
    7.5483  -15.4892   24.7003 C   0  0  2  0  0  0  0  0  0  0  0  0
    6.2178  -16.1020   24.7356 N   0  0  0  0  0  0  0  0  0  0  0  0
    8.5699  -16.5626   24.5460 C   0  0  0  0  0  0  0  0  0  0  0  0
    8.3755  -17.7332   24.9789 O   0  0  0  0  0  0  0  0  0  0  0  0
    5.7362  -13.3713   26.5092 C   0  0  0  0  0  0  0  0  0  0  0  0
    5.0749  -12.1424   26.5249 C   0  0  0  0  0  0  0  0  0  0  0  0
   13.2351  -16.6858   20.6177 N   0  0  0  0  0  0  0  0  0  0  0  0
   11.8751  -16.3493   20.4122 C   0  0  0  0  0  0  0  0  0  0  0  0
   11.4337  -15.9231   19.3379 O   0  0  0  0  0  0  0  0  0  0  0  0
   10.9409  -16.5268   21.5703 C   0  0  0  0  0  0  0  0  0  0  0  0
   11.6972  -17.0961   22.7277 C   0  0  0  0  0  0  0  0  0  0  0  0
   10.9081  -17.3076   23.9695 C   0  0  2  0  0  0  0  0  0  0  0  0
    9.8054  -16.3211   23.9077 N   0  0  0  0  0  0  0  0  0  0  0  0
   11.5782  -17.1155   25.2458 C   0  0  0  0  0  0  0  0  0  0  0  0
   12.7962  -16.7245   25.3202 O   0  0  0  0  0  0  0  0  0  0  0  0
   11.1568  -14.6489   27.9352 C   0  0  0  0  0  0  0  0  0  0  0  0
   10.9201  -16.0181   28.5123 C   0  0  1  0  0  0  0  0  0  0  0  0
    9.5340  -16.1667   28.6207 O   0  0  0  0  0  0  0  0  0  0  0  0
   11.5554  -17.1365   27.7693 C   0  0  2  0  0  0  0  0  0  0  0  0
   10.9081  -17.3461   26.4711 N   0  0  0  0  0  0  0  0  0  0  0  0
   11.5066  -18.4216   28.5578 C   0  0  0  0  0  0  0  0  0  0  0  0
   10.9268  -19.4372   28.1516 O   0  0  0  0  0  0  0  0  0  0  0  0
   12.1542  -18.4188   29.7808 O   0  0  0  0  0  0  0  0  0  0  0  0
  2  3  2  0
  2  1  1  0
  4  3  1  0
  5  4  2  0
  6  5  1  0
  7  6  1  0
  7  8  1  1
  9  7  1  0
  9 10  2  0
 11  5  1  0
 11 12  2  0
 12  2  1  0
 14 13  1  0
 15 14  2  0
 16 14  1  0
 18 17  1  6
 17 16  1  0
 18 19  1  0
 19  9  1  0
 20 18  1  0
 21 20  2  0
 23 22  1  6
 23 25  1  0
 24 23  1  0
 25 27  1  0
 25 26  1  6
 26 20  1  0
 27 29  1  0
 28 27  2  0
M  END
$$$$
