YQT.pdb
     RDKit          3D

 29 29  0  0  1  0  0  0  0  0999 V2000
    5.4183  -10.3540   28.5126 O   0  0  0  0  0  0  0  0  0  0  0  0
    6.0394  -11.3834   27.8289 C   0  0  0  0  0  0  0  0  0  0  0  0
    5.6794  -11.7107   26.5286 C   0  0  0  0  0  0  0  0  0  0  0  0
    6.2992  -12.7260   25.8665 C   0  0  0  0  0  0  0  0  0  0  0  0
    7.3102  -13.4683   26.4672 C   0  0  0  0  0  0  0  0  0  0  0  0
    7.9357  -14.5631   25.6746 C   0  0  0  0  0  0  0  0  0  0  0  0
    6.9359  -15.2584   24.7954 C   0  0  2  0  0  0  0  0  0  0  0  0
    6.2884  -16.3212   25.5687 N   0  0  0  0  0  0  0  0  0  0  0  0
    7.6266  -15.8665   23.6238 C   0  0  0  0  0  0  0  0  0  0  0  0
    7.9369  -17.0906   23.5962 O   0  0  0  0  0  0  0  0  0  0  0  0
    7.6643  -13.1511   27.7372 C   0  0  0  0  0  0  0  0  0  0  0  0
    7.0329  -12.1109   28.4205 C   0  0  0  0  0  0  0  0  0  0  0  0
    7.8749  -13.0620   18.2576 N   0  0  0  0  0  0  0  0  0  0  0  0
    8.6707  -14.1595   17.8487 C   0  0  0  0  0  0  0  0  0  0  0  0
    9.0342  -14.3392   16.6798 O   0  0  0  0  0  0  0  0  0  0  0  0
    9.0819  -15.1410   18.9037 C   0  0  0  0  0  0  0  0  0  0  0  0
    8.4632  -14.7479   20.2070 C   0  0  0  0  0  0  0  0  0  0  0  0
    8.6395  -15.7169   21.3203 C   0  0  2  0  0  0  0  0  0  0  0  0
    7.9674  -15.1016   22.4876 N   0  0  0  0  0  0  0  0  0  0  0  0
    9.9950  -16.0426   21.7343 C   0  0  0  0  0  0  0  0  0  0  0  0
   10.6793  -15.2646   22.4881 O   0  0  0  0  0  0  0  0  0  0  0  0
   13.6255  -19.5222   21.8439 C   0  0  0  0  0  0  0  0  0  0  0  0
   12.2304  -19.0620   21.5186 C   0  0  1  0  0  0  0  0  0  0  0  0
   11.3628  -19.9084   22.2158 O   0  0  0  0  0  0  0  0  0  0  0  0
   11.9595  -17.6260   21.7846 C   0  0  2  0  0  0  0  0  0  0  0  0
   10.6204  -17.2452   21.3265 N   0  0  0  0  0  0  0  0  0  0  0  0
   12.9801  -16.7385   21.1165 C   0  0  0  0  0  0  0  0  0  0  0  0
   13.9713  -16.2912   21.7083 O   0  0  0  0  0  0  0  0  0  0  0  0
   12.7588  -16.4408   19.7833 O   0  0  0  0  0  0  0  0  0  0  0  0
  2  3  2  0
  2  1  1  0
  4  3  1  0
  5  4  2  0
  6  5  1  0
  7  6  1  0
  7  8  1  1
  9  7  1  0
  9 10  2  0
 11  5  1  0
 11 12  2  0
 12  2  1  0
 14 13  1  0
 15 14  2  0
 16 14  1  0
 18 17  1  6
 17 16  1  0
 18 19  1  0
 19  9  1  0
 20 18  1  0
 21 20  2  0
 23 22  1  1
 23 25  1  0
 24 23  1  0
 25 27  1  0
 25 26  1  6
 26 20  1  0
 27 29  1  0
 28 27  2  0
M  END
$$$$
