YQT.pdb
     RDKit          3D

 29 29  0  0  1  0  0  0  0  0999 V2000
   10.1141  -14.2815   30.5835 O   0  0  0  0  0  0  0  0  0  0  0  0
    9.9383  -14.4720   29.2249 C   0  0  0  0  0  0  0  0  0  0  0  0
    9.3269  -13.5105   28.4317 C   0  0  0  0  0  0  0  0  0  0  0  0
    9.1605  -13.7101   27.0952 C   0  0  0  0  0  0  0  0  0  0  0  0
    9.5947  -14.8795   26.4805 C   0  0  0  0  0  0  0  0  0  0  0  0
    9.3730  -15.0198   25.0145 C   0  0  0  0  0  0  0  0  0  0  0  0
    7.9801  -15.4869   24.7019 C   0  0  2  0  0  0  0  0  0  0  0  0
    7.7718  -16.7958   25.3266 N   0  0  0  0  0  0  0  0  0  0  0  0
    7.8092  -15.6230   23.2282 C   0  0  0  0  0  0  0  0  0  0  0  0
    7.5929  -16.7422   22.6841 O   0  0  0  0  0  0  0  0  0  0  0  0
   10.1924  -15.8205   27.2526 C   0  0  0  0  0  0  0  0  0  0  0  0
   10.3663  -15.6211   28.6229 C   0  0  0  0  0  0  0  0  0  0  0  0
    9.4305  -12.0427   19.0678 N   0  0  0  0  0  0  0  0  0  0  0  0
    8.4093  -12.5769   18.2453 C   0  0  0  0  0  0  0  0  0  0  0  0
    8.4624  -12.5804   17.0092 O   0  0  0  0  0  0  0  0  0  0  0  0
    7.2119  -13.1630   18.9296 C   0  0  0  0  0  0  0  0  0  0  0  0
    7.4893  -13.2724   20.3949 C   0  0  0  0  0  0  0  0  0  0  0  0
    7.7179  -14.6498   20.9045 C   0  0  2  0  0  0  0  0  0  0  0  0
    7.8813  -14.5053   22.3693 N   0  0  0  0  0  0  0  0  0  0  0  0
    8.8811  -15.3742   20.4174 C   0  0  0  0  0  0  0  0  0  0  0  0
    8.8409  -16.0826   19.3505 O   0  0  0  0  0  0  0  0  0  0  0  0
   12.2901  -13.7800   19.6058 C   0  0  0  0  0  0  0  0  0  0  0  0
   12.4602  -14.9422   20.5461 C   0  0  1  0  0  0  0  0  0  0  0  0
   12.7014  -14.3955   21.8102 O   0  0  0  0  0  0  0  0  0  0  0  0
   11.3414  -15.9193   20.5533 C   0  0  2  0  0  0  0  0  0  0  0  0
   10.1197  -15.3226   21.1006 N   0  0  0  0  0  0  0  0  0  0  0  0
   11.6890  -17.1510   21.3519 C   0  0  0  0  0  0  0  0  0  0  0  0
   11.0200  -17.5345   22.3204 O   0  0  0  0  0  0  0  0  0  0  0  0
   12.8108  -17.8521   20.9456 O   0  0  0  0  0  0  0  0  0  0  0  0
  2  3  2  0
  2  1  1  0
  4  3  1  0
  5  4  2  0
  6  5  1  0
  7  6  1  0
  7  8  1  1
  9  7  1  0
  9 10  2  0
 11  5  1  0
 11 12  2  0
 12  2  1  0
 14 13  1  0
 15 14  2  0
 16 14  1  0
 18 17  1  6
 17 16  1  0
 18 19  1  0
 19  9  1  0
 20 18  1  0
 21 20  2  0
 23 22  1  6
 23 25  1  0
 24 23  1  0
 25 27  1  0
 25 26  1  1
 26 20  1  0
 27 29  1  0
 28 27  2  0
M  END
$$$$
