YQT.pdb
     RDKit          3D

 29 29  0  0  1  0  0  0  0  0999 V2000
    7.9104  -13.0716   16.2758 O   0  0  0  0  0  0  0  0  0  0  0  0
    7.7894  -13.4827   17.5909 C   0  0  0  0  0  0  0  0  0  0  0  0
    7.1268  -12.7087   18.5339 C   0  0  0  0  0  0  0  0  0  0  0  0
    7.0141  -13.1251   19.8252 C   0  0  0  0  0  0  0  0  0  0  0  0
    7.5573  -14.3351   20.2433 C   0  0  0  0  0  0  0  0  0  0  0  0
    7.3914  -14.7162   21.6734 C   0  0  0  0  0  0  0  0  0  0  0  0
    7.0757  -16.1763   21.8300 C   0  0  2  0  0  0  0  0  0  0  0  0
    5.7045  -16.4129   21.3710 N   0  0  0  0  0  0  0  0  0  0  0  0
    7.1786  -16.5669   23.2640 C   0  0  0  0  0  0  0  0  0  0  0  0
    6.1771  -16.5436   24.0333 O   0  0  0  0  0  0  0  0  0  0  0  0
    8.2051  -15.0935   19.3245 C   0  0  0  0  0  0  0  0  0  0  0  0
    8.3230  -14.6720   17.9994 C   0  0  0  0  0  0  0  0  0  0  0  0
    7.5508  -19.4612   28.4857 N   0  0  0  0  0  0  0  0  0  0  0  0
    7.8408  -19.9081   27.1738 C   0  0  0  0  0  0  0  0  0  0  0  0
    7.0903  -20.6469   26.5244 O   0  0  0  0  0  0  0  0  0  0  0  0
    9.1290  -19.4497   26.5608 C   0  0  0  0  0  0  0  0  0  0  0  0
    8.8458  -18.8317   25.2290 C   0  0  0  0  0  0  0  0  0  0  0  0
    8.4925  -17.3881   25.2525 C   0  0  2  0  0  0  0  0  0  0  0  0
    8.4026  -16.9820   23.8312 N   0  0  0  0  0  0  0  0  0  0  0  0
    9.4161  -16.4692   25.8987 C   0  0  0  0  0  0  0  0  0  0  0  0
   10.4759  -16.0495   25.3134 O   0  0  0  0  0  0  0  0  0  0  0  0
    9.1097  -12.9305   26.8872 C   0  0  0  0  0  0  0  0  0  0  0  0
    9.4109  -13.7412   28.1184 C   0  0  1  0  0  0  0  0  0  0  0  0
    8.1997  -13.8862   28.8019 O   0  0  0  0  0  0  0  0  0  0  0  0
   10.0831  -15.0424   27.8705 C   0  0  2  0  0  0  0  0  0  0  0  0
    9.1800  -15.9883   27.2088 N   0  0  0  0  0  0  0  0  0  0  0  0
   10.5872  -15.6567   29.1528 C   0  0  0  0  0  0  0  0  0  0  0  0
   10.1974  -16.7552   29.5700 O   0  0  0  0  0  0  0  0  0  0  0  0
   11.5273  -14.9258   29.8579 O   0  0  0  0  0  0  0  0  0  0  0  0
  2  3  2  0
  2  1  1  0
  4  3  1  0
  5  4  2  0
  6  5  1  0
  7  6  1  0
  7  8  1  1
  9  7  1  0
  9 10  2  0
 11  5  1  0
 11 12  2  0
 12  2  1  0
 14 13  1  0
 15 14  2  0
 16 14  1  0
 18 17  1  6
 17 16  1  0
 18 19  1  0
 19  9  1  0
 20 18  1  0
 21 20  2  0
 23 22  1  6
 23 25  1  0
 24 23  1  0
 25 27  1  0
 25 26  1  1
 26 20  1  0
 27 29  1  0
 28 27  2  0
M  END
$$$$
