KGE.pdb
     RDKit          3D

 23 22  0  0  1  0  0  0  0  0999 V2000
   19.4933  -21.7846  -13.8646 N   0  0  0  0  0  0  0  0  0  0  0  0
   20.6347  -21.3294  -13.1286 C   0  0  1  0  0  0  0  0  0  0  0  0
   21.0117  -19.9105  -13.4849 C   0  0  0  0  0  0  0  0  0  0  0  0
   21.4132  -19.7137  -14.9052 C   0  0  0  0  0  0  0  0  0  0  0  0
   22.8629  -19.9107  -15.2056 C   0  0  0  0  0  0  0  0  0  0  0  0
   23.2014  -19.7276  -16.6545 C   0  0  0  0  0  0  0  0  0  0  0  0
   24.6282  -19.9344  -16.8090 N   0  0  0  0  0  0  0  0  0  0  0  0
   20.4356  -21.3766  -11.6619 C   0  0  0  0  0  0  0  0  0  0  0  0
   20.8549  -20.4089  -10.9762 O   0  0  0  0  0  0  0  0  0  0  0  0
   19.8010  -22.4440  -10.9729 N   0  0  0  0  0  0  0  0  0  0  0  0
   19.6144  -22.4654   -9.5490 C   0  0  0  0  0  0  0  0  0  0  0  0
   18.8538  -23.6539   -9.0913 C   0  0  0  0  0  0  0  0  0  0  0  0
   18.3112  -24.3959   -9.9463 O   0  0  0  0  0  0  0  0  0  0  0  0
   18.7200  -23.9786   -7.7175 N   0  0  0  0  0  0  0  0  0  0  0  0
   17.9103  -25.1023   -7.2540 C   0  0  1  0  0  0  0  0  0  0  0  0
   18.2804  -25.3063   -5.8110 C   0  0  0  0  0  0  0  0  0  0  0  0
   17.6357  -26.4772   -5.1429 C   0  0  0  0  0  0  0  0  0  0  0  0
   18.1183  -26.6994   -3.7847 C   0  0  0  0  0  0  0  0  0  0  0  0
   17.4267  -26.6517   -2.7435 O   0  0  0  0  0  0  0  0  0  0  0  0
   16.4821  -24.8777   -7.4944 C   0  0  0  0  0  0  0  0  0  0  0  0
   15.6840  -25.9609   -7.8460 O   0  0  0  0  0  0  0  0  0  0  0  0
   19.4813  -26.9957   -3.6046 O   0  0  0  0  0  0  0  0  0  0  0  0
   15.9141  -23.7652   -7.4062 O   0  0  0  0  0  0  0  0  0  0  0  0
  2  8  1  0
  2  1  1  6
  3  2  1  0
  4  3  1  0
  5  6  1  0
  5  4  1  0
  7  6  1  0
  8  9  2  0
 10 11  1  0
 10  8  1  0
 12 11  1  0
 12 14  1  0
 13 12  2  0
 15 14  1  0
 15 16  1  1
 16 17  1  0
 18 17  1  0
 18 22  1  0
 19 18  2  0
 20 15  1  0
 21 20  1  0
 23 20  2  0
M  END
$$$$
