KGE.pdb
     RDKit          3D

 23 22  0  0  1  0  0  0  0  0999 V2000
   17.7118  -11.6483  -15.2226 N   0  0  0  0  0  0  0  0  0  0  0  0
   18.8700  -11.2034  -15.9383 C   0  0  1  0  0  0  0  0  0  0  0  0
   18.7253  -11.3963  -17.4297 C   0  0  0  0  0  0  0  0  0  0  0  0
   17.9426  -12.5995  -17.8261 C   0  0  0  0  0  0  0  0  0  0  0  0
   18.7401  -13.8274  -18.1208 C   0  0  0  0  0  0  0  0  0  0  0  0
   17.9182  -14.9538  -18.6715 C   0  0  0  0  0  0  0  0  0  0  0  0
   18.8222  -16.0219  -19.0508 N   0  0  0  0  0  0  0  0  0  0  0  0
   19.1807   -9.7739  -15.7078 C   0  0  0  0  0  0  0  0  0  0  0  0
   20.1151   -9.2566  -16.3723 O   0  0  0  0  0  0  0  0  0  0  0  0
   18.4932   -8.9429  -14.7838 N   0  0  0  0  0  0  0  0  0  0  0  0
   18.9400   -8.7198  -13.4373 C   0  0  0  0  0  0  0  0  0  0  0  0
   19.9807   -7.6664  -13.3490 C   0  0  0  0  0  0  0  0  0  0  0  0
   20.2614   -7.1804  -12.2260 O   0  0  0  0  0  0  0  0  0  0  0  0
   20.6692   -7.1906  -14.4937 N   0  0  0  0  0  0  0  0  0  0  0  0
   21.7729   -6.2383  -14.4037 C   0  0  1  0  0  0  0  0  0  0  0  0
   22.7757   -6.6749  -15.4356 C   0  0  0  0  0  0  0  0  0  0  0  0
   24.0013   -5.8261  -15.5382 C   0  0  0  0  0  0  0  0  0  0  0  0
   24.8741   -6.2106  -16.6415 C   0  0  0  0  0  0  0  0  0  0  0  0
   25.1652   -5.4995  -17.6286 O   0  0  0  0  0  0  0  0  0  0  0  0
   21.3094   -4.8553  -14.5464 C   0  0  0  0  0  0  0  0  0  0  0  0
   22.0302   -3.8404  -13.9264 O   0  0  0  0  0  0  0  0  0  0  0  0
   25.4522   -7.4923  -16.6151 O   0  0  0  0  0  0  0  0  0  0  0  0
   20.2957   -4.5101  -15.1955 O   0  0  0  0  0  0  0  0  0  0  0  0
  2  8  1  0
  2  1  1  1
  3  2  1  0
  4  3  1  0
  5  6  1  0
  5  4  1  0
  7  6  1  0
  8  9  2  0
 10 11  1  0
 10  8  1  0
 12 11  1  0
 12 14  1  0
 13 12  2  0
 15 14  1  0
 15 16  1  6
 16 17  1  0
 18 17  1  0
 18 22  1  0
 19 18  2  0
 20 15  1  0
 21 20  1  0
 23 20  2  0
M  END
$$$$
