KGE.pdb
     RDKit          3D

 23 22  0  0  1  0  0  0  0  0999 V2000
   21.3873  -16.3722  -16.8543 N   0  0  0  0  0  0  0  0  0  0  0  0
   21.2018  -17.1855  -15.6899 C   0  0  1  0  0  0  0  0  0  0  0  0
   19.7573  -17.5852  -15.5002 C   0  0  0  0  0  0  0  0  0  0  0  0
   18.9551  -17.6249  -16.7541 C   0  0  0  0  0  0  0  0  0  0  0  0
   18.7493  -16.3129  -17.4375 C   0  0  0  0  0  0  0  0  0  0  0  0
   17.8282  -16.3938  -18.6175 C   0  0  0  0  0  0  0  0  0  0  0  0
   17.6607  -15.0539  -19.1455 N   0  0  0  0  0  0  0  0  0  0  0  0
   22.0027  -18.4308  -15.7186 C   0  0  0  0  0  0  0  0  0  0  0  0
   22.0812  -19.1086  -14.6619 O   0  0  0  0  0  0  0  0  0  0  0  0
   22.6915  -18.9148  -16.8624 N   0  0  0  0  0  0  0  0  0  0  0  0
   23.4251  -20.1494  -16.8794 C   0  0  0  0  0  0  0  0  0  0  0  0
   24.6019  -20.1260  -15.9766 C   0  0  0  0  0  0  0  0  0  0  0  0
   25.6836  -19.6486  -16.3984 O   0  0  0  0  0  0  0  0  0  0  0  0
   24.5436  -20.6263  -14.6510 N   0  0  0  0  0  0  0  0  0  0  0  0
   25.7029  -20.6259  -13.7625 C   0  0  1  0  0  0  0  0  0  0  0  0
   25.1638  -20.8996  -12.3858 C   0  0  0  0  0  0  0  0  0  0  0  0
   26.1940  -21.1179  -11.3254 C   0  0  0  0  0  0  0  0  0  0  0  0
   25.6188  -21.4546  -10.0282 C   0  0  0  0  0  0  0  0  0  0  0  0
   24.3985  -21.5415   -9.7672 O   0  0  0  0  0  0  0  0  0  0  0  0
   26.7336  -21.5645  -14.2148 C   0  0  0  0  0  0  0  0  0  0  0  0
   28.0705  -21.2050  -14.0834 O   0  0  0  0  0  0  0  0  0  0  0  0
   26.4960  -21.7087   -8.9588 O   0  0  0  0  0  0  0  0  0  0  0  0
   26.4994  -22.6862  -14.7199 O   0  0  0  0  0  0  0  0  0  0  0  0
  2  8  1  0
  2  1  1  6
  3  2  1  0
  4  3  1  0
  5  6  1  0
  5  4  1  0
  7  6  1  0
  8  9  2  0
 10 11  1  0
 10  8  1  0
 12 11  1  0
 12 14  1  0
 13 12  2  0
 15 14  1  0
 15 16  1  1
 16 17  1  0
 18 17  1  0
 18 22  1  0
 19 18  2  0
 20 15  1  0
 21 20  1  0
 23 20  2  0
M  END
$$$$
