KGE.pdb
     RDKit          3D

 23 22  0  0  1  0  0  0  0  0999 V2000
   13.7012  -19.7221    2.1929 N   0  0  0  0  0  0  0  0  0  0  0  0
   14.6760  -20.3568    3.0288 C   0  0  1  0  0  0  0  0  0  0  0  0
   15.4912  -21.3807    2.2743 C   0  0  0  0  0  0  0  0  0  0  0  0
   14.7241  -22.1636    1.2664 C   0  0  0  0  0  0  0  0  0  0  0  0
   15.5323  -23.0530    0.3797 C   0  0  0  0  0  0  0  0  0  0  0  0
   14.7668  -23.5736   -0.7996 C   0  0  0  0  0  0  0  0  0  0  0  0
   15.6400  -24.4618   -1.5417 N   0  0  0  0  0  0  0  0  0  0  0  0
   15.6274  -19.4002    3.6394 C   0  0  0  0  0  0  0  0  0  0  0  0
   15.8831  -18.3391    3.0142 O   0  0  0  0  0  0  0  0  0  0  0  0
   16.2741  -19.5992    4.8881 N   0  0  0  0  0  0  0  0  0  0  0  0
   17.1020  -18.6080    5.5161 C   0  0  0  0  0  0  0  0  0  0  0  0
   17.6901  -19.0818    6.7928 C   0  0  0  0  0  0  0  0  0  0  0  0
   17.4252  -20.2424    7.1916 O   0  0  0  0  0  0  0  0  0  0  0  0
   18.5428  -18.2648    7.5779 N   0  0  0  0  0  0  0  0  0  0  0  0
   19.1036  -18.7134    8.8497 C   0  0  1  0  0  0  0  0  0  0  0  0
   20.3187  -17.8598    9.0854 C   0  0  0  0  0  0  0  0  0  0  0  0
   21.4971  -18.1686    8.2197 C   0  0  0  0  0  0  0  0  0  0  0  0
   22.6543  -17.3284    8.5058 C   0  0  0  0  0  0  0  0  0  0  0  0
   22.9576  -16.8532    9.6225 O   0  0  0  0  0  0  0  0  0  0  0  0
   18.1090  -18.6739    9.9254 C   0  0  0  0  0  0  0  0  0  0  0  0
   18.3335  -19.4270   11.0727 O   0  0  0  0  0  0  0  0  0  0  0  0
   23.5220  -17.0102    7.4458 O   0  0  0  0  0  0  0  0  0  0  0  0
   17.0528  -18.0019    9.8909 O   0  0  0  0  0  0  0  0  0  0  0  0
  2  8  1  0
  2  1  1  6
  3  2  1  0
  4  3  1  0
  5  6  1  0
  5  4  1  0
  7  6  1  0
  8  9  2  0
 10 11  1  0
 10  8  1  0
 12 11  1  0
 12 14  1  0
 13 12  2  0
 15 14  1  0
 15 16  1  1
 16 17  1  0
 18 17  1  0
 18 22  1  0
 19 18  2  0
 20 15  1  0
 21 20  1  0
 23 20  2  0
M  END
$$$$
