KGE.pdb
     RDKit          3D

 23 22  0  0  1  0  0  0  0  0999 V2000
   21.7649  -21.0675  -16.0941 N   0  0  0  0  0  0  0  0  0  0  0  0
   22.1282  -20.1106  -15.0920 C   0  0  1  0  0  0  0  0  0  0  0  0
   22.1582  -18.7016  -15.6362 C   0  0  0  0  0  0  0  0  0  0  0  0
   23.0916  -18.4977  -16.7783 C   0  0  0  0  0  0  0  0  0  0  0  0
   23.1100  -17.1255  -17.3676 C   0  0  0  0  0  0  0  0  0  0  0  0
   24.1490  -16.9488  -18.4338 C   0  0  0  0  0  0  0  0  0  0  0  0
   23.9684  -15.6349  -19.0195 N   0  0  0  0  0  0  0  0  0  0  0  0
   21.2124  -20.1133  -13.9283 C   0  0  0  0  0  0  0  0  0  0  0  0
   20.0085  -19.8041  -14.1217 O   0  0  0  0  0  0  0  0  0  0  0  0
   21.6014  -20.4425  -12.6026 N   0  0  0  0  0  0  0  0  0  0  0  0
   20.6846  -20.4878  -11.4982 C   0  0  0  0  0  0  0  0  0  0  0  0
   20.0953  -21.8347  -11.3009 C   0  0  0  0  0  0  0  0  0  0  0  0
   20.3061  -22.7236  -12.1621 O   0  0  0  0  0  0  0  0  0  0  0  0
   19.3008  -22.1504  -10.1696 N   0  0  0  0  0  0  0  0  0  0  0  0
   18.8055  -23.5003   -9.9130 C   0  0  1  0  0  0  0  0  0  0  0  0
   18.7880  -23.6527   -8.4172 C   0  0  0  0  0  0  0  0  0  0  0  0
   18.3974  -25.0049   -7.9149 C   0  0  0  0  0  0  0  0  0  0  0  0
   18.5309  -25.1396   -6.4689 C   0  0  0  0  0  0  0  0  0  0  0  0
   18.9799  -24.2703   -5.6895 O   0  0  0  0  0  0  0  0  0  0  0  0
   17.5166  -23.7391  -10.5684 C   0  0  0  0  0  0  0  0  0  0  0  0
   17.2413  -25.0102  -11.0609 O   0  0  0  0  0  0  0  0  0  0  0  0
   18.1244  -26.3475   -5.8743 O   0  0  0  0  0  0  0  0  0  0  0  0
   16.6272  -22.8711  -10.7222 O   0  0  0  0  0  0  0  0  0  0  0  0
  2  8  1  0
  2  1  1  6
  3  2  1  0
  4  3  1  0
  5  6  1  0
  5  4  1  0
  7  6  1  0
  8  9  2  0
 10 11  1  0
 10  8  1  0
 12 11  1  0
 12 14  1  0
 13 12  2  0
 15 14  1  0
 15 16  1  1
 16 17  1  0
 18 17  1  0
 18 22  1  0
 19 18  2  0
 20 15  1  0
 21 20  1  0
 23 20  2  0
M  END
$$$$
