KGE.pdb
     RDKit          3D

 23 22  0  0  1  0  0  0  0  0999 V2000
   28.6338  -22.2479  -17.8269 N   0  0  0  0  0  0  0  0  0  0  0  0
   27.7352  -22.9597  -16.9680 C   0  0  1  0  0  0  0  0  0  0  0  0
   28.4687  -23.8260  -15.9711 C   0  0  0  0  0  0  0  0  0  0  0  0
   29.0787  -25.0555  -16.5487 C   0  0  0  0  0  0  0  0  0  0  0  0
   28.2343  -26.2864  -16.4998 C   0  0  0  0  0  0  0  0  0  0  0  0
   28.8645  -27.4685  -17.1729 C   0  0  0  0  0  0  0  0  0  0  0  0
   27.9186  -28.5662  -17.1246 N   0  0  0  0  0  0  0  0  0  0  0  0
   26.8385  -22.0668  -16.1989 C   0  0  0  0  0  0  0  0  0  0  0  0
   25.9794  -22.5952  -15.4472 O   0  0  0  0  0  0  0  0  0  0  0  0
   26.8816  -20.6482  -16.2518 N   0  0  0  0  0  0  0  0  0  0  0  0
   25.8171  -19.8444  -16.7842 C   0  0  0  0  0  0  0  0  0  0  0  0
   24.5449  -20.0184  -16.0415 C   0  0  0  0  0  0  0  0  0  0  0  0
   24.2574  -21.1513  -15.5833 O   0  0  0  0  0  0  0  0  0  0  0  0
   23.6424  -18.9448  -15.8326 N   0  0  0  0  0  0  0  0  0  0  0  0
   22.3646  -19.1185  -15.1469 C   0  0  1  0  0  0  0  0  0  0  0  0
   21.6800  -17.7813  -15.2114 C   0  0  0  0  0  0  0  0  0  0  0  0
   20.3205  -17.7264  -14.5934 C   0  0  0  0  0  0  0  0  0  0  0  0
   19.6030  -16.4932  -14.8956 C   0  0  0  0  0  0  0  0  0  0  0  0
   20.0487  -15.5280  -15.5548 O   0  0  0  0  0  0  0  0  0  0  0  0
   21.5930  -20.2298  -15.7105 C   0  0  0  0  0  0  0  0  0  0  0  0
   20.8554  -21.0365  -14.8507 O   0  0  0  0  0  0  0  0  0  0  0  0
   18.2896  -16.3538  -14.4127 O   0  0  0  0  0  0  0  0  0  0  0  0
   21.5454  -20.5145  -16.9290 O   0  0  0  0  0  0  0  0  0  0  0  0
  2  8  1  0
  2  1  1  1
  3  2  1  0
  4  3  1  0
  5  6  1  0
  5  4  1  0
  7  6  1  0
  8  9  2  0
 10 11  1  0
 10  8  1  0
 12 11  1  0
 12 14  1  0
 13 12  2  0
 15 14  1  0
 15 16  1  6
 16 17  1  0
 18 17  1  0
 18 22  1  0
 19 18  2  0
 20 15  1  0
 21 20  1  0
 23 20  2  0
M  END
$$$$
