KGE.pdb
     RDKit          3D

 23 22  0  0  1  0  0  0  0  0999 V2000
   24.6603  -31.2597   -8.5128 N   0  0  0  0  0  0  0  0  0  0  0  0
   25.2075  -32.4995   -8.0488 C   0  0  1  0  0  0  0  0  0  0  0  0
   26.1769  -33.0992   -9.0402 C   0  0  0  0  0  0  0  0  0  0  0  0
   25.5364  -33.8052  -10.1842 C   0  0  0  0  0  0  0  0  0  0  0  0
   26.4691  -34.4476  -11.1578 C   0  0  0  0  0  0  0  0  0  0  0  0
   25.7762  -35.0210  -12.3573 C   0  0  0  0  0  0  0  0  0  0  0  0
   26.7927  -35.5052  -13.2708 N   0  0  0  0  0  0  0  0  0  0  0  0
   25.9216  -32.3713   -6.7578 C   0  0  0  0  0  0  0  0  0  0  0  0
   26.9057  -31.5898   -6.7008 O   0  0  0  0  0  0  0  0  0  0  0  0
   25.5704  -33.0730   -5.5741 N   0  0  0  0  0  0  0  0  0  0  0  0
   26.2044  -32.8490   -4.3051 C   0  0  0  0  0  0  0  0  0  0  0  0
   26.5178  -34.1122   -3.5933 C   0  0  0  0  0  0  0  0  0  0  0  0
   26.1067  -35.1981   -4.0705 O   0  0  0  0  0  0  0  0  0  0  0  0
   27.2677  -34.1319   -2.3899 N   0  0  0  0  0  0  0  0  0  0  0  0
   27.5131  -35.3614   -1.6406 C   0  0  1  0  0  0  0  0  0  0  0  0
   28.5464  -35.0112   -0.6060 C   0  0  0  0  0  0  0  0  0  0  0  0
   28.9546  -36.1297    0.2970 C   0  0  0  0  0  0  0  0  0  0  0  0
   29.9287  -35.7265    1.3047 C   0  0  0  0  0  0  0  0  0  0  0  0
   30.3190  -34.5579    1.5213 O   0  0  0  0  0  0  0  0  0  0  0  0
   26.2724  -35.9250   -1.1013 C   0  0  0  0  0  0  0  0  0  0  0  0
   26.1813  -37.3022   -0.9310 O   0  0  0  0  0  0  0  0  0  0  0  0
   30.4940  -36.7244    2.1184 O   0  0  0  0  0  0  0  0  0  0  0  0
   25.2691  -35.2500   -0.7758 O   0  0  0  0  0  0  0  0  0  0  0  0
  2  8  1  0
  2  1  1  6
  3  2  1  0
  4  3  1  0
  5  6  1  0
  5  4  1  0
  7  6  1  0
  8  9  2  0
 10 11  1  0
 10  8  1  0
 12 11  1  0
 12 14  1  0
 13 12  2  0
 15 14  1  0
 15 16  1  1
 16 17  1  0
 18 17  1  0
 18 22  1  0
 19 18  2  0
 20 15  1  0
 21 20  1  0
 23 20  2  0
M  END
$$$$
