SRF.pdb
     RDKit          3D

 29 29  0  0  1  0  0  0  0  0999 V2000
    9.1083  -11.5892   19.2990 O   0  0  0  0  0  0  0  0  0  0  0  0
    8.5765  -12.4142   20.2986 C   0  0  0  0  0  0  0  0  0  0  0  0
    7.9991  -13.6958   19.7072 C   0  0  2  0  0  0  0  0  0  0  0  0
    6.7580  -13.3540   19.0811 N   0  0  0  0  0  0  0  0  0  0  0  0
    7.7713  -14.6298   20.8654 C   0  0  0  0  0  0  0  0  0  0  0  0
    6.7105  -14.5232   21.5272 O   0  0  0  0  0  0  0  0  0  0  0  0
   10.1951  -22.7736   21.0304 N   0  0  0  0  0  0  0  0  0  0  0  0
    9.4789  -22.7572   22.2463 C   0  0  0  0  0  0  0  0  0  0  0  0
    9.1975  -23.8634   22.8790 N   0  0  0  0  0  0  0  0  0  0  0  0
    9.0666  -21.4927   22.7716 N   0  0  0  0  0  0  0  0  0  0  0  0
    9.2899  -20.3201   21.9632 C   0  0  0  0  0  0  0  0  0  0  0  0
    8.7684  -19.0612   22.6860 C   0  0  0  0  0  0  0  0  0  0  0  0
    8.8941  -17.8770   21.8158 C   0  0  0  0  0  0  0  0  0  0  0  0
    8.4294  -16.5648   22.3111 C   0  0  2  0  0  0  0  0  0  0  0  0
    8.7044  -15.6142   21.2291 N   0  0  0  0  0  0  0  0  0  0  0  0
    8.9646  -16.0902   23.5866 C   0  0  0  0  0  0  0  0  0  0  0  0
   10.0417  -15.4518   23.7321 O   0  0  0  0  0  0  0  0  0  0  0  0
    8.7151  -23.8413   23.7837 N   0  0  0  0  0  0  0  0  0  0  0  0
    8.2477  -16.3409   24.7822 C   0  0  2  0  0  0  0  0  0  0  0  0
    8.7456  -15.8992   26.0864 C   0  0  0  0  0  0  0  0  0  0  0  0
    7.5800  -15.3492   26.8798 C   0  0  0  0  0  0  0  0  0  0  0  0
    7.1862  -13.9873   26.4908 C   0  0  0  0  0  0  0  0  0  0  0  0
    7.9775  -12.8835   26.8287 C   0  0  0  0  0  0  0  0  0  0  0  0
    7.5954  -11.6205   26.4513 C   0  0  0  0  0  0  0  0  0  0  0  0
    6.4381  -11.4065   25.7390 C   0  0  0  0  0  0  0  0  0  0  0  0
    5.6330  -12.4826   25.3898 C   0  0  0  0  0  0  0  0  0  0  0  0
    6.0297  -13.7541   25.7768 C   0  0  0  0  0  0  0  0  0  0  0  0
    9.5011  -16.9488   26.7705 O   0  0  0  0  0  0  0  0  0  0  0  0
    9.6726  -18.2403   26.2771 O   0  0  0  0  0  0  0  0  0  0  0  0
  2  1  1  0
  3  2  1  0
  3  4  1  1
  5  3  1  0
  6  5  2  0
  7  8  1  0
  8  9  2  0
 10 11  1  0
 10  8  1  0
 12 11  1  0
 12 13  1  0
 14 13  1  6
 14 15  1  0
 15  5  1  0
 16 14  1  0
 17 16  2  0
 18 16  1  0
 19 20  1  6
 19 18  1  0
 20 21  1  0
 21 22  2  0
 22 23  1  0
 24 23  2  0
 25 24  1  0
 26 21  1  0
 26 25  2  0
 27 28  1  0
 27 19  1  0
 29 27  2  0
M  END
$$$$
