SRF.pdb
     RDKit          3D

 29 29  0  0  1  0  0  0  0  0999 V2000
    6.0191  -18.3495   23.7932 O   0  0  0  0  0  0  0  0  0  0  0  0
    6.0916  -19.2503   22.7227 C   0  0  0  0  0  0  0  0  0  0  0  0
    6.2604  -18.5178   21.3957 C   0  0  2  0  0  0  0  0  0  0  0  0
    6.4342  -19.5117   20.3802 N   0  0  0  0  0  0  0  0  0  0  0  0
    7.5002  -17.6754   21.5335 C   0  0  0  0  0  0  0  0  0  0  0  0
    8.6184  -18.2107   21.3391 O   0  0  0  0  0  0  0  0  0  0  0  0
    9.7274  -14.2490   17.7929 N   0  0  0  0  0  0  0  0  0  0  0  0
    8.7012  -13.5536   17.1183 C   0  0  0  0  0  0  0  0  0  0  0  0
    8.5400  -13.6724   15.8287 N   0  0  0  0  0  0  0  0  0  0  0  0
    7.8373  -12.7112   17.8857 N   0  0  0  0  0  0  0  0  0  0  0  0
    7.9646  -12.7416   19.3214 C   0  0  0  0  0  0  0  0  0  0  0  0
    8.2813  -14.1722   19.8032 C   0  0  0  0  0  0  0  0  0  0  0  0
    8.3271  -14.2225   21.2765 C   0  0  0  0  0  0  0  0  0  0  0  0
    8.6627  -15.4967   21.9451 C   0  0  2  0  0  0  0  0  0  0  0  0
    7.4472  -16.3135   21.8716 N   0  0  0  0  0  0  0  0  0  0  0  0
    9.1805  -15.4330   23.3112 C   0  0  0  0  0  0  0  0  0  0  0  0
   10.2738  -14.9063   23.6518 O   0  0  0  0  0  0  0  0  0  0  0  0
    7.7654  -13.1990   15.3518 N   0  0  0  0  0  0  0  0  0  0  0  0
    8.4256  -15.9914   24.3717 C   0  0  1  0  0  0  0  0  0  0  0  0
    8.9202  -15.9977   25.7498 C   0  0  0  0  0  0  0  0  0  0  0  0
    7.7514  -15.7412   26.6764 C   0  0  0  0  0  0  0  0  0  0  0  0
    7.2307  -14.3680   26.6103 C   0  0  0  0  0  0  0  0  0  0  0  0
    8.0747  -13.2670   26.7954 C   0  0  0  0  0  0  0  0  0  0  0  0
    7.5703  -11.9926   26.7242 C   0  0  0  0  0  0  0  0  0  0  0  0
    6.2373  -11.7642   26.4719 C   0  0  0  0  0  0  0  0  0  0  0  0
    5.3762  -12.8372   26.2841 C   0  0  0  0  0  0  0  0  0  0  0  0
    5.8977  -14.1203   26.3584 C   0  0  0  0  0  0  0  0  0  0  0  0
    9.6796  -17.2102   26.0558 O   0  0  0  0  0  0  0  0  0  0  0  0
    9.9670  -18.2103   25.1295 O   0  0  0  0  0  0  0  0  0  0  0  0
  2  1  1  0
  3  2  1  0
  3  4  1  6
  5  3  1  0
  6  5  2  0
  7  8  1  0
  8  9  2  0
 10 11  1  0
 10  8  1  0
 12 11  1  0
 12 13  1  0
 14 13  1  1
 14 15  1  0
 15  5  1  0
 16 14  1  0
 17 16  2  0
 18 16  1  0
 19 20  1  1
 19 18  1  0
 20 21  1  0
 21 22  2  0
 22 23  1  0
 24 23  2  0
 25 24  1  0
 26 21  1  0
 26 25  2  0
 27 28  1  0
 27 19  1  0
 29 27  2  0
M  END
$$$$
