SRF.pdb
     RDKit          3D

 29 29  0  0  1  0  0  0  0  0999 V2000
    8.4138  -12.2575   20.5129 O   0  0  0  0  0  0  0  0  0  0  0  0
    8.8486  -12.8296   19.3103 C   0  0  0  0  0  0  0  0  0  0  0  0
    8.0820  -14.1109   18.9998 C   0  0  2  0  0  0  0  0  0  0  0  0
    6.6881  -13.7853   19.0078 N   0  0  0  0  0  0  0  0  0  0  0  0
    8.4091  -15.0771   20.1066 C   0  0  0  0  0  0  0  0  0  0  0  0
    7.5308  -15.3299   20.9664 O   0  0  0  0  0  0  0  0  0  0  0  0
    9.8231  -21.2146   20.2824 N   0  0  0  0  0  0  0  0  0  0  0  0
   11.0367  -21.7123   20.8029 C   0  0  0  0  0  0  0  0  0  0  0  0
   11.0921  -22.8756   21.3918 N   0  0  0  0  0  0  0  0  0  0  0  0
   12.2109  -20.9071   20.6692 N   0  0  0  0  0  0  0  0  0  0  0  0
   12.0468  -19.5373   20.2508 C   0  0  0  0  0  0  0  0  0  0  0  0
   11.3725  -18.7116   21.3656 C   0  0  0  0  0  0  0  0  0  0  0  0
   11.2070  -17.3089   20.9408 C   0  0  0  0  0  0  0  0  0  0  0  0
    9.9916  -16.5714   21.3437 C   0  0  2  0  0  0  0  0  0  0  0  0
    9.6618  -15.7036   20.2088 N   0  0  0  0  0  0  0  0  0  0  0  0
   10.0365  -15.8175   22.5959 C   0  0  0  0  0  0  0  0  0  0  0  0
   10.7048  -14.7665   22.7896 O   0  0  0  0  0  0  0  0  0  0  0  0
   11.9829  -23.2435   21.7422 N   0  0  0  0  0  0  0  0  0  0  0  0
    9.2812  -16.2636   23.7080 C   0  0  2  0  0  0  0  0  0  0  0  0
    8.9750  -15.3812   24.8356 C   0  0  0  0  0  0  0  0  0  0  0  0
    7.9456  -14.3687   24.3822 C   0  0  0  0  0  0  0  0  0  0  0  0
    7.5233  -13.4368   25.4379 C   0  0  0  0  0  0  0  0  0  0  0  0
    8.3755  -12.4214   25.8867 C   0  0  0  0  0  0  0  0  0  0  0  0
    7.9605  -11.5578   26.8693 C   0  0  0  0  0  0  0  0  0  0  0  0
    6.7105  -11.6645   27.4338 C   0  0  0  0  0  0  0  0  0  0  0  0
    5.8434  -12.6622   27.0084 C   0  0  0  0  0  0  0  0  0  0  0  0
    6.2742  -13.5288   26.0148 C   0  0  0  0  0  0  0  0  0  0  0  0
    8.5984  -16.1312   26.0340 O   0  0  0  0  0  0  0  0  0  0  0  0
    9.0018  -15.8000   27.3256 O   0  0  0  0  0  0  0  0  0  0  0  0
  2  1  1  0
  3  2  1  0
  3  4  1  1
  5  3  1  0
  6  5  2  0
  7  8  1  0
  8  9  2  0
 10 11  1  0
 10  8  1  0
 12 11  1  0
 12 13  1  0
 14 13  1  6
 14 15  1  0
 15  5  1  0
 16 14  1  0
 17 16  2  0
 18 16  1  0
 19 20  1  6
 19 18  1  0
 20 21  1  0
 21 22  2  0
 22 23  1  0
 24 23  2  0
 25 24  1  0
 26 21  1  0
 26 25  2  0
 27 28  1  0
 27 19  1  0
 29 27  2  0
M  END
$$$$
