SRF.pdb
     RDKit          3D

 29 29  0  0  1  0  0  0  0  0999 V2000
    7.6968  -19.5402   25.4499 O   0  0  0  0  0  0  0  0  0  0  0  0
    6.4264  -19.3679   24.8850 C   0  0  0  0  0  0  0  0  0  0  0  0
    6.4808  -19.4652   23.3641 C   0  0  2  0  0  0  0  0  0  0  0  0
    6.9346  -20.7832   23.0380 N   0  0  0  0  0  0  0  0  0  0  0  0
    7.4771  -18.4321   22.9105 C   0  0  0  0  0  0  0  0  0  0  0  0
    8.6379  -18.8033   22.6114 O   0  0  0  0  0  0  0  0  0  0  0  0
    9.0902  -14.9000   17.8747 N   0  0  0  0  0  0  0  0  0  0  0  0
    8.1927  -13.8266   18.0579 C   0  0  0  0  0  0  0  0  0  0  0  0
    8.1935  -12.8006   17.2513 N   0  0  0  0  0  0  0  0  0  0  0  0
    7.2771  -13.8900   19.1545 N   0  0  0  0  0  0  0  0  0  0  0  0
    7.5190  -13.0317   20.2872 C   0  0  0  0  0  0  0  0  0  0  0  0
    8.2796  -13.7970   21.3894 C   0  0  0  0  0  0  0  0  0  0  0  0
    7.4960  -14.9608   21.8445 C   0  0  0  0  0  0  0  0  0  0  0  0
    8.1802  -16.0542   22.5653 C   0  0  2  0  0  0  0  0  0  0  0  0
    7.1514  -17.0697   22.8111 N   0  0  0  0  0  0  0  0  0  0  0  0
    8.8988  -15.7152   23.7930 C   0  0  0  0  0  0  0  0  0  0  0  0
    9.9403  -15.0080   23.8555 O   0  0  0  0  0  0  0  0  0  0  0  0
    7.6874  -11.9426   17.4946 N   0  0  0  0  0  0  0  0  0  0  0  0
    8.4213  -16.1943   25.0375 C   0  0  1  0  0  0  0  0  0  0  0  0
    9.1427  -15.9457   26.2872 C   0  0  0  0  0  0  0  0  0  0  0  0
    8.1972  -15.2698   27.2565 C   0  0  0  0  0  0  0  0  0  0  0  0
    7.8593  -13.8866   26.8906 C   0  0  0  0  0  0  0  0  0  0  0  0
    8.8211  -12.8713   26.9431 C   0  0  0  0  0  0  0  0  0  0  0  0
    8.4872  -11.5872   26.5919 C   0  0  0  0  0  0  0  0  0  0  0  0
    7.2135  -11.2659   26.1834 C   0  0  0  0  0  0  0  0  0  0  0  0
    6.2385  -12.2526   26.1215 C   0  0  0  0  0  0  0  0  0  0  0  0
    6.5879  -13.5465   26.4789 C   0  0  0  0  0  0  0  0  0  0  0  0
    9.7765  -17.1577   26.8065 O   0  0  0  0  0  0  0  0  0  0  0  0
   10.5041  -17.2156   27.9931 O   0  0  0  0  0  0  0  0  0  0  0  0
  2  1  1  0
  3  2  1  0
  3  4  1  1
  5  3  1  0
  6  5  2  0
  7  8  1  0
  8  9  2  0
 10 11  1  0
 10  8  1  0
 12 11  1  0
 12 13  1  0
 14 13  1  1
 14 15  1  0
 15  5  1  0
 16 14  1  0
 17 16  2  0
 18 16  1  0
 19 20  1  1
 19 18  1  0
 20 21  1  0
 21 22  2  0
 22 23  1  0
 24 23  2  0
 25 24  1  0
 26 21  1  0
 26 25  2  0
 27 28  1  0
 27 19  1  0
 29 27  2  0
M  END
$$$$
