SRF.pdb
     RDKit          3D

 29 29  0  0  1  0  0  0  0  0999 V2000
    7.4288  -19.4715   26.2402 O   0  0  0  0  0  0  0  0  0  0  0  0
    6.1138  -19.5541   25.7642 C   0  0  0  0  0  0  0  0  0  0  0  0
    6.0861  -19.7864   24.2571 C   0  0  2  0  0  0  0  0  0  0  0  0
    6.5800  -21.1091   24.0213 N   0  0  0  0  0  0  0  0  0  0  0  0
    7.0069  -18.7593   23.6549 C   0  0  0  0  0  0  0  0  0  0  0  0
    8.1925  -19.0848   23.4038 O   0  0  0  0  0  0  0  0  0  0  0  0
    8.2513  -13.2490   16.9361 N   0  0  0  0  0  0  0  0  0  0  0  0
    8.5459  -13.1081   18.3090 C   0  0  0  0  0  0  0  0  0  0  0  0
    8.6158  -11.9305   18.8671 N   0  0  0  0  0  0  0  0  0  0  0  0
    8.7673  -14.2930   19.0784 N   0  0  0  0  0  0  0  0  0  0  0  0
    7.6299  -14.9048   19.7191 C   0  0  0  0  0  0  0  0  0  0  0  0
    7.6155  -14.5691   21.2245 C   0  0  0  0  0  0  0  0  0  0  0  0
    6.8495  -15.5836   21.9724 C   0  0  0  0  0  0  0  0  0  0  0  0
    7.5400  -16.4060   22.9874 C   0  0  2  0  0  0  0  0  0  0  0  0
    6.5843  -17.4518   23.3653 N   0  0  0  0  0  0  0  0  0  0  0  0
    8.0782  -15.7250   24.1642 C   0  0  0  0  0  0  0  0  0  0  0  0
    7.7930  -14.5496   24.5194 O   0  0  0  0  0  0  0  0  0  0  0  0
    8.8457  -11.8351   19.8620 N   0  0  0  0  0  0  0  0  0  0  0  0
    8.9945  -16.4021   25.0057 C   0  0  1  0  0  0  0  0  0  0  0  0
    9.4594  -15.8190   26.2659 C   0  0  0  0  0  0  0  0  0  0  0  0
    8.2496  -15.4958   27.1160 C   0  0  0  0  0  0  0  0  0  0  0  0
    7.6168  -14.2108   26.7852 C   0  0  0  0  0  0  0  0  0  0  0  0
    8.3470  -13.0173   26.8199 C   0  0  0  0  0  0  0  0  0  0  0  0
    7.7394  -11.8285   26.5020 C   0  0  0  0  0  0  0  0  0  0  0  0
    6.4118  -11.7770   26.1448 C   0  0  0  0  0  0  0  0  0  0  0  0
    5.6624  -12.9452   26.1017 C   0  0  0  0  0  0  0  0  0  0  0  0
    6.2875  -14.1404   26.4250 C   0  0  0  0  0  0  0  0  0  0  0  0
   10.4553  -16.6623   26.9273 O   0  0  0  0  0  0  0  0  0  0  0  0
   10.9299  -17.8666   26.4122 O   0  0  0  0  0  0  0  0  0  0  0  0
  2  1  1  0
  3  2  1  0
  3  4  1  1
  5  3  1  0
  6  5  2  0
  7  8  1  0
  8  9  2  0
 10 11  1  0
 10  8  1  0
 12 11  1  0
 12 13  1  0
 14 13  1  6
 14 15  1  0
 15  5  1  0
 16 14  1  0
 17 16  2  0
 18 16  1  0
 19 20  1  1
 19 18  1  0
 20 21  1  0
 21 22  2  0
 22 23  1  0
 24 23  2  0
 25 24  1  0
 26 21  1  0
 26 25  2  0
 27 28  1  0
 27 19  1  0
 29 27  2  0
M  END
$$$$
