SRF.pdb
     RDKit          3D

 29 29  0  0  1  0  0  0  0  0999 V2000
    9.1324  -12.2291   19.6646 O   0  0  0  0  0  0  0  0  0  0  0  0
    9.5675  -13.0144   18.5892 C   0  0  0  0  0  0  0  0  0  0  0  0
    8.4960  -14.0140   18.1666 C   0  0  2  0  0  0  0  0  0  0  0  0
    7.3146  -13.2666   17.8587 N   0  0  0  0  0  0  0  0  0  0  0  0
    8.2642  -14.9108   19.3530 C   0  0  0  0  0  0  0  0  0  0  0  0
    7.2301  -14.7427   20.0438 O   0  0  0  0  0  0  0  0  0  0  0  0
   10.4940  -22.4313   18.5549 N   0  0  0  0  0  0  0  0  0  0  0  0
   10.9473  -21.8738   19.7695 C   0  0  0  0  0  0  0  0  0  0  0  0
   11.9674  -22.3811   20.4060 N   0  0  0  0  0  0  0  0  0  0  0  0
   10.2585  -20.7334   20.2891 N   0  0  0  0  0  0  0  0  0  0  0  0
   10.8088  -20.0839   21.4525 C   0  0  0  0  0  0  0  0  0  0  0  0
    9.9289  -18.8868   21.8670 C   0  0  0  0  0  0  0  0  0  0  0  0
    9.7930  -17.9344   20.7489 C   0  0  0  0  0  0  0  0  0  0  0  0
    8.9797  -16.7149   20.9345 C   0  0  2  0  0  0  0  0  0  0  0  0
    9.1646  -15.9270   19.7118 N   0  0  0  0  0  0  0  0  0  0  0  0
    9.2240  -15.9090   22.1301 C   0  0  0  0  0  0  0  0  0  0  0  0
   10.3202  -15.3633   22.4289 O   0  0  0  0  0  0  0  0  0  0  0  0
   12.3559  -21.9122   21.2312 N   0  0  0  0  0  0  0  0  0  0  0  0
    8.1728  -15.6931   23.0544 C   0  0  2  0  0  0  0  0  0  0  0  0
    8.3587  -14.8778   24.2564 C   0  0  0  0  0  0  0  0  0  0  0  0
    7.0331  -14.2369   24.6068 C   0  0  0  0  0  0  0  0  0  0  0  0
    7.0967  -13.3358   25.7666 C   0  0  0  0  0  0  0  0  0  0  0  0
    7.5245  -13.7982   27.0165 C   0  0  0  0  0  0  0  0  0  0  0  0
    7.5824  -12.9397   28.0857 C   0  0  0  0  0  0  0  0  0  0  0  0
    7.2260  -11.6168   27.9607 C   0  0  0  0  0  0  0  0  0  0  0  0
    6.7978  -11.1300   26.7328 C   0  0  0  0  0  0  0  0  0  0  0  0
    6.7435  -12.0071   25.6597 C   0  0  0  0  0  0  0  0  0  0  0  0
    8.9699  -15.6378   25.3469 O   0  0  0  0  0  0  0  0  0  0  0  0
    8.5506  -16.9029   25.7525 O   0  0  0  0  0  0  0  0  0  0  0  0
  2  1  1  0
  3  2  1  0
  3  4  1  1
  5  3  1  0
  6  5  2  0
  7  8  1  0
  8  9  2  0
 10 11  1  0
 10  8  1  0
 12 11  1  0
 12 13  1  0
 14 13  1  6
 14 15  1  0
 15  5  1  0
 16 14  1  0
 17 16  2  0
 18 16  1  0
 19 20  1  1
 19 18  1  0
 20 21  1  0
 21 22  2  0
 22 23  1  0
 24 23  2  0
 25 24  1  0
 26 21  1  0
 26 25  2  0
 27 28  1  0
 27 19  1  0
 29 27  2  0
M  END
$$$$
