SRF.pdb
     RDKit          3D

 29 29  0  0  1  0  0  0  0  0999 V2000
    7.3297  -19.3084   25.2187 O   0  0  0  0  0  0  0  0  0  0  0  0
    6.0387  -19.1852   24.6888 C   0  0  0  0  0  0  0  0  0  0  0  0
    6.0567  -19.2704   23.1662 C   0  0  2  0  0  0  0  0  0  0  0  0
    6.3462  -20.6287   22.8195 N   0  0  0  0  0  0  0  0  0  0  0  0
    7.1607  -18.3568   22.7055 C   0  0  0  0  0  0  0  0  0  0  0  0
    8.2643  -18.8589   22.3820 O   0  0  0  0  0  0  0  0  0  0  0  0
    8.0749  -13.2683   16.4343 N   0  0  0  0  0  0  0  0  0  0  0  0
    8.5252  -13.5258   17.7467 C   0  0  0  0  0  0  0  0  0  0  0  0
    9.2024  -14.6052   18.0284 N   0  0  0  0  0  0  0  0  0  0  0  0
    8.2201  -12.5707   18.7663 N   0  0  0  0  0  0  0  0  0  0  0  0
    7.5172  -13.0332   19.9369 C   0  0  0  0  0  0  0  0  0  0  0  0
    8.3633  -14.0764   20.6952 C   0  0  0  0  0  0  0  0  0  0  0  0
    7.4929  -14.9946   21.4533 C   0  0  0  0  0  0  0  0  0  0  0  0
    8.1054  -16.0857   22.2391 C   0  0  2  0  0  0  0  0  0  0  0  0
    6.9971  -16.9643   22.6258 N   0  0  0  0  0  0  0  0  0  0  0  0
    8.9217  -15.7169   23.3950 C   0  0  0  0  0  0  0  0  0  0  0  0
    9.9272  -14.9573   23.3639 O   0  0  0  0  0  0  0  0  0  0  0  0
    9.4926  -14.8052   18.9915 N   0  0  0  0  0  0  0  0  0  0  0  0
    8.5923  -16.2267   24.6747 C   0  0  1  0  0  0  0  0  0  0  0  0
    9.3764  -15.8888   25.8642 C   0  0  0  0  0  0  0  0  0  0  0  0
    8.4201  -15.4923   26.9682 C   0  0  0  0  0  0  0  0  0  0  0  0
    7.7332  -14.2147   26.7292 C   0  0  0  0  0  0  0  0  0  0  0  0
    8.4310  -13.0022   26.7693 C   0  0  0  0  0  0  0  0  0  0  0  0
    7.7726  -11.8205   26.5378 C   0  0  0  0  0  0  0  0  0  0  0  0
    6.4249  -11.7947   26.2631 C   0  0  0  0  0  0  0  0  0  0  0  0
    5.7066  -12.9822   26.2168 C   0  0  0  0  0  0  0  0  0  0  0  0
    6.3830  -14.1700   26.4525 C   0  0  0  0  0  0  0  0  0  0  0  0
   10.3110  -16.9542   26.2275 O   0  0  0  0  0  0  0  0  0  0  0  0
   10.4349  -18.1579   25.5372 O   0  0  0  0  0  0  0  0  0  0  0  0
  2  1  1  0
  3  2  1  0
  3  4  1  1
  5  3  1  0
  6  5  2  0
  7  8  1  0
  8  9  2  0
 10 11  1  0
 10  8  1  0
 12 11  1  0
 12 13  1  0
 14 13  1  1
 14 15  1  0
 15  5  1  0
 16 14  1  0
 17 16  2  0
 18 16  1  0
 19 20  1  1
 19 18  1  0
 20 21  1  0
 21 22  2  0
 22 23  1  0
 24 23  2  0
 25 24  1  0
 26 21  1  0
 26 25  2  0
 27 28  1  0
 27 19  1  0
 29 27  2  0
M  END
$$$$
