SRF.pdb
     RDKit          3D

 29 29  0  0  1  0  0  0  0  0999 V2000
   10.7206  -13.8771   17.4804 O   0  0  0  0  0  0  0  0  0  0  0  0
    9.8806  -14.0716   18.5846 C   0  0  0  0  0  0  0  0  0  0  0  0
    8.6049  -14.8056   18.1851 C   0  0  2  0  0  0  0  0  0  0  0  0
    7.7680  -13.8646   17.5045 N   0  0  0  0  0  0  0  0  0  0  0  0
    7.9608  -15.2607   19.4671 C   0  0  0  0  0  0  0  0  0  0  0  0
    7.2500  -14.4484   20.1071 O   0  0  0  0  0  0  0  0  0  0  0  0
    8.5237  -21.1430   24.2786 N   0  0  0  0  0  0  0  0  0  0  0  0
    7.2316  -21.7102   24.2610 C   0  0  0  0  0  0  0  0  0  0  0  0
    6.7929  -22.4214   25.2634 N   0  0  0  0  0  0  0  0  0  0  0  0
    6.4099  -21.4858   23.1124 N   0  0  0  0  0  0  0  0  0  0  0  0
    6.9764  -20.7499   22.0098 C   0  0  0  0  0  0  0  0  0  0  0  0
    6.9631  -19.2369   22.3095 C   0  0  0  0  0  0  0  0  0  0  0  0
    7.4634  -18.4763   21.1490 C   0  0  0  0  0  0  0  0  0  0  0  0
    7.4538  -16.9995   21.1955 C   0  0  2  0  0  0  0  0  0  0  0  0
    8.1284  -16.5613   19.9696 N   0  0  0  0  0  0  0  0  0  0  0  0
    8.0217  -16.3518   22.3773 C   0  0  0  0  0  0  0  0  0  0  0  0
    9.2464  -16.1172   22.5612 O   0  0  0  0  0  0  0  0  0  0  0  0
    5.8582  -22.8426   25.2375 N   0  0  0  0  0  0  0  0  0  0  0  0
    7.1650  -15.9331   23.4246 C   0  0  2  0  0  0  0  0  0  0  0  0
    7.6344  -15.0590   24.5014 C   0  0  0  0  0  0  0  0  0  0  0  0
    6.5050  -14.1273   24.8849 C   0  0  0  0  0  0  0  0  0  0  0  0
    6.8059  -13.2741   26.0437 C   0  0  0  0  0  0  0  0  0  0  0  0
    7.4984  -13.7787   27.1503 C   0  0  0  0  0  0  0  0  0  0  0  0
    7.7747  -12.9644   28.2200 C   0  0  0  0  0  0  0  0  0  0  0  0
    7.3834  -11.6456   28.2345 C   0  0  0  0  0  0  0  0  0  0  0  0
    6.6948  -11.1175   27.1506 C   0  0  0  0  0  0  0  0  0  0  0  0
    6.4215  -11.9501   26.0755 C   0  0  0  0  0  0  0  0  0  0  0  0
    8.1987  -15.8170   25.6183 O   0  0  0  0  0  0  0  0  0  0  0  0
    7.6310  -16.9742   26.1470 O   0  0  0  0  0  0  0  0  0  0  0  0
  2  1  1  0
  3  2  1  0
  3  4  1  1
  5  3  1  0
  6  5  2  0
  7  8  1  0
  8  9  2  0
 10 11  1  0
 10  8  1  0
 12 11  1  0
 12 13  1  0
 14 13  1  1
 14 15  1  0
 15  5  1  0
 16 14  1  0
 17 16  2  0
 18 16  1  0
 19 20  1  6
 19 18  1  0
 20 21  1  0
 21 22  2  0
 22 23  1  0
 24 23  2  0
 25 24  1  0
 26 21  1  0
 26 25  2  0
 27 28  1  0
 27 19  1  0
 29 27  2  0
M  END
$$$$
