GES.pdb
     RDKit          3D

 20 19  0  0  1  0  0  0  0  0999 V2000
   19.4652  -12.7273  -17.1613 N   0  0  0  0  0  0  0  0  0  0  0  0
   19.7397  -11.5307  -17.9181 C   0  0  0  0  0  0  0  0  0  0  0  0
   20.7330  -10.7071  -17.1425 C   0  0  0  0  0  0  0  0  0  0  0  0
   20.9119  -11.0440  -15.9574 O   0  0  0  0  0  0  0  0  0  0  0  0
   21.3972   -9.6347  -17.7481 N   0  0  0  0  0  0  0  0  0  0  0  0
   22.3633   -8.8027  -17.1174 C   0  0  1  0  0  0  0  0  0  0  0  0
   23.5504   -8.4721  -17.9847 C   0  0  0  0  0  0  0  0  0  0  0  0
   24.6428   -7.7022  -17.3473 C   0  0  0  0  0  0  0  0  0  0  0  0
   25.7432   -7.3409  -18.2871 C   0  0  0  0  0  0  0  0  0  0  0  0
   25.8084   -7.8124  -19.4224 O   0  0  0  0  0  0  0  0  0  0  0  0
   21.7789   -7.5431  -16.5894 C   0  0  0  0  0  0  0  0  0  0  0  0
   21.0660   -6.8283  -17.3797 O   0  0  0  0  0  0  0  0  0  0  0  0
   26.7449   -6.4438  -17.8981 O   0  0  0  0  0  0  0  0  0  0  0  0
   21.5733   -6.5407  -12.5632 O   0  0  0  0  0  0  0  0  0  0  0  0
   20.6451   -6.0304  -13.4777 C   0  0  0  0  0  0  0  0  0  0  0  0
   21.3163   -5.8978  -14.8213 C   0  0  2  0  0  0  0  0  0  0  0  0
   21.9669   -7.0893  -15.2592 N   0  0  0  0  0  0  0  0  0  0  0  0
   22.3275   -4.8038  -14.6935 C   0  0  0  0  0  0  0  0  0  0  0  0
   23.5377   -5.0697  -14.8923 O   0  0  0  0  0  0  0  0  0  0  0  0
   21.9602   -3.5154  -14.3635 O   0  0  0  0  0  0  0  0  0  0  0  0
  2  1  1  0
  3  5  1  0
  3  2  1  0
  4  3  2  0
  6 11  1  0
  6  5  1  0
  6  7  1  6
  8  7  1  0
  9  8  1  0
 10  9  2  0
 11 12  2  0
 13  9  1  0
 14 15  1  0
 16 15  1  1
 17 11  1  0
 17 16  1  0
 18 16  1  0
 18 20  1  0
 19 18  2  0
M  END
$$$$
