GES.pdb
     RDKit          3D

 20 19  0  0  1  0  0  0  0  0999 V2000
   24.3227  -21.4072   -8.6236 N   0  0  0  0  0  0  0  0  0  0  0  0
   24.1315  -20.2642   -9.4821 C   0  0  0  0  0  0  0  0  0  0  0  0
   23.9774  -20.7635  -10.8941 C   0  0  0  0  0  0  0  0  0  0  0  0
   24.1995  -21.9758  -11.0700 O   0  0  0  0  0  0  0  0  0  0  0  0
   23.6059  -19.8903  -11.9225 N   0  0  0  0  0  0  0  0  0  0  0  0
   23.3295  -20.2699  -13.2652 C   0  0  1  0  0  0  0  0  0  0  0  0
   22.0908  -19.6342  -13.8414 C   0  0  0  0  0  0  0  0  0  0  0  0
   20.7957  -20.0698  -13.2709 C   0  0  0  0  0  0  0  0  0  0  0  0
   20.3606  -21.4164  -13.7420 C   0  0  0  0  0  0  0  0  0  0  0  0
   20.3041  -22.3832  -12.9819 O   0  0  0  0  0  0  0  0  0  0  0  0
   24.4747  -20.0233  -14.1786 C   0  0  0  0  0  0  0  0  0  0  0  0
   24.9948  -18.8517  -14.1951 O   0  0  0  0  0  0  0  0  0  0  0  0
   20.0000  -21.6199  -15.0792 O   0  0  0  0  0  0  0  0  0  0  0  0
   27.4459  -22.4371  -14.8245 O   0  0  0  0  0  0  0  0  0  0  0  0
   27.0740  -21.8964  -16.0604 C   0  0  0  0  0  0  0  0  0  0  0  0
   26.1759  -20.7102  -15.8160 C   0  0  2  0  0  0  0  0  0  0  0  0
   25.0230  -21.0135  -15.0327 N   0  0  0  0  0  0  0  0  0  0  0  0
   25.7420  -20.2126  -17.1576 C   0  0  0  0  0  0  0  0  0  0  0  0
   26.6161  -19.8543  -17.9838 O   0  0  0  0  0  0  0  0  0  0  0  0
   24.4086  -20.1394  -17.5045 O   0  0  0  0  0  0  0  0  0  0  0  0
  2  1  1  0
  3  5  1  0
  3  2  1  0
  4  3  2  0
  6 11  1  0
  6  5  1  0
  6  7  1  6
  8  7  1  0
  9  8  1  0
 10  9  2  0
 11 12  2  0
 13  9  1  0
 14 15  1  0
 16 15  1  6
 17 11  1  0
 17 16  1  0
 18 16  1  0
 18 20  1  0
 19 18  2  0
M  END
$$$$
