GES.pdb
     RDKit          3D

 20 19  0  0  1  0  0  0  0  0999 V2000
   27.6216  -11.4530  -16.5078 N   0  0  0  0  0  0  0  0  0  0  0  0
   26.4700  -11.3957  -15.6415 C   0  0  0  0  0  0  0  0  0  0  0  0
   25.5235  -10.3632  -16.1935 C   0  0  0  0  0  0  0  0  0  0  0  0
   25.9069   -9.7645  -17.2156 O   0  0  0  0  0  0  0  0  0  0  0  0
   24.2951  -10.1165  -15.5705 N   0  0  0  0  0  0  0  0  0  0  0  0
   23.3017   -9.2121  -16.0380 C   0  0  1  0  0  0  0  0  0  0  0  0
   21.9035   -9.7738  -16.0251 C   0  0  0  0  0  0  0  0  0  0  0  0
   20.8382   -8.9126  -16.5869 C   0  0  0  0  0  0  0  0  0  0  0  0
   19.4715   -9.4961  -16.4585 C   0  0  0  0  0  0  0  0  0  0  0  0
   18.4782   -8.9296  -16.9144 O   0  0  0  0  0  0  0  0  0  0  0  0
   23.3146   -7.9182  -15.3083 C   0  0  0  0  0  0  0  0  0  0  0  0
   23.5786   -7.9330  -14.0538 O   0  0  0  0  0  0  0  0  0  0  0  0
   19.2791  -10.7201  -15.8072 O   0  0  0  0  0  0  0  0  0  0  0  0
   24.6531   -4.3754  -16.6757 O   0  0  0  0  0  0  0  0  0  0  0  0
   23.4242   -4.2409  -16.0200 C   0  0  0  0  0  0  0  0  0  0  0  0
   23.1953   -5.4659  -15.1711 C   0  0  2  0  0  0  0  0  0  0  0  0
   23.0507   -6.6686  -15.9243 N   0  0  0  0  0  0  0  0  0  0  0  0
   21.9447   -5.2222  -14.3885 C   0  0  0  0  0  0  0  0  0  0  0  0
   20.8405   -5.5356  -14.8959 O   0  0  0  0  0  0  0  0  0  0  0  0
   21.9789   -4.6631  -13.1276 O   0  0  0  0  0  0  0  0  0  0  0  0
  2  1  1  0
  3  5  1  0
  3  2  1  0
  4  3  2  0
  6 11  1  0
  6  5  1  0
  6  7  1  1
  8  7  1  0
  9  8  1  0
 10  9  2  0
 11 12  2  0
 13  9  1  0
 14 15  1  0
 16 15  1  6
 17 11  1  0
 17 16  1  0
 18 16  1  0
 18 20  1  0
 19 18  2  0
M  END
$$$$
