GES.pdb
     RDKit          3D

 20 19  0  0  1  0  0  0  0  0999 V2000
   31.1725  -21.5586  -10.6098 N   0  0  0  0  0  0  0  0  0  0  0  0
   30.9441  -21.7366  -12.0226 C   0  0  0  0  0  0  0  0  0  0  0  0
   29.6635  -21.0300  -12.3795 C   0  0  0  0  0  0  0  0  0  0  0  0
   29.3130  -20.1166  -11.6096 O   0  0  0  0  0  0  0  0  0  0  0  0
   28.9362  -21.4028  -13.5153 N   0  0  0  0  0  0  0  0  0  0  0  0
   27.7219  -20.8022  -13.9492 C   0  0  1  0  0  0  0  0  0  0  0  0
   27.5455  -20.7834  -15.4455 C   0  0  0  0  0  0  0  0  0  0  0  0
   28.4330  -19.8744  -16.2061 C   0  0  0  0  0  0  0  0  0  0  0  0
   28.0231  -18.4423  -16.1315 C   0  0  0  0  0  0  0  0  0  0  0  0
   28.8492  -17.5296  -16.1322 O   0  0  0  0  0  0  0  0  0  0  0  0
   26.5225  -21.4164  -13.3240 C   0  0  0  0  0  0  0  0  0  0  0  0
   26.3683  -22.6850  -13.4271 O   0  0  0  0  0  0  0  0  0  0  0  0
   26.6696  -18.0928  -16.0579 O   0  0  0  0  0  0  0  0  0  0  0  0
   24.6392  -19.7521  -10.2213 O   0  0  0  0  0  0  0  0  0  0  0  0
   24.4650  -21.1209  -10.4545 C   0  0  0  0  0  0  0  0  0  0  0  0
   24.4888  -21.3623  -11.9427 C   0  0  2  0  0  0  0  0  0  0  0  0
   25.5396  -20.6755  -12.6199 N   0  0  0  0  0  0  0  0  0  0  0  0
   23.1723  -20.8968  -12.4773 C   0  0  0  0  0  0  0  0  0  0  0  0
   23.1540  -19.9668  -13.3197 O   0  0  0  0  0  0  0  0  0  0  0  0
   21.9839  -21.4648  -12.0664 O   0  0  0  0  0  0  0  0  0  0  0  0
  2  1  1  0
  3  5  1  0
  3  2  1  0
  4  3  2  0
  6 11  1  0
  6  5  1  0
  6  7  1  6
  8  7  1  0
  9  8  1  0
 10  9  2  0
 11 12  2  0
 13  9  1  0
 14 15  1  0
 16 15  1  1
 17 11  1  0
 17 16  1  0
 18 16  1  0
 18 20  1  0
 19 18  2  0
M  END
$$$$
