GES.pdb
     RDKit          3D

 20 19  0  0  1  0  0  0  0  0999 V2000
   20.4708  -13.8630  -16.4613 N   0  0  0  0  0  0  0  0  0  0  0  0
   19.6423  -13.0226  -15.6324 C   0  0  0  0  0  0  0  0  0  0  0  0
   19.4983  -11.6899  -16.3180 C   0  0  0  0  0  0  0  0  0  0  0  0
   20.0126  -11.6009  -17.4483 O   0  0  0  0  0  0  0  0  0  0  0  0
   18.8212  -10.6365  -15.6937 N   0  0  0  0  0  0  0  0  0  0  0  0
   18.5421   -9.3726  -16.2836 C   0  0  1  0  0  0  0  0  0  0  0  0
   17.1041   -8.9400  -16.1596 C   0  0  0  0  0  0  0  0  0  0  0  0
   16.1007   -9.7626  -16.8730 C   0  0  0  0  0  0  0  0  0  0  0  0
   14.7088   -9.2401  -16.7533 C   0  0  0  0  0  0  0  0  0  0  0  0
   14.1684   -8.6170  -17.6671 O   0  0  0  0  0  0  0  0  0  0  0  0
   19.4228   -8.2923  -15.7697 C   0  0  0  0  0  0  0  0  0  0  0  0
   19.7048   -8.2845  -14.5190 O   0  0  0  0  0  0  0  0  0  0  0  0
   13.9697   -9.4472  -15.5827 O   0  0  0  0  0  0  0  0  0  0  0  0
   22.5205   -6.5549  -17.7680 O   0  0  0  0  0  0  0  0  0  0  0  0
   21.7291   -5.6278  -17.0807 C   0  0  0  0  0  0  0  0  0  0  0  0
   20.9220   -6.3620  -16.0400 C   0  0  2  0  0  0  0  0  0  0  0  0
   19.9680   -7.2702  -16.5874 N   0  0  0  0  0  0  0  0  0  0  0  0
   20.2075   -5.3239  -15.2352 C   0  0  0  0  0  0  0  0  0  0  0  0
   18.9753   -5.1626  -15.4098 O   0  0  0  0  0  0  0  0  0  0  0  0
   20.8706   -4.5440  -14.3101 O   0  0  0  0  0  0  0  0  0  0  0  0
  2  1  1  0
  3  5  1  0
  3  2  1  0
  4  3  2  0
  6 11  1  0
  6  5  1  0
  6  7  1  1
  8  7  1  0
  9  8  1  0
 10  9  2  0
 11 12  2  0
 13  9  1  0
 14 15  1  0
 16 15  1  6
 17 11  1  0
 17 16  1  0
 18 16  1  0
 18 20  1  0
 19 18  2  0
M  END
$$$$
