GES.pdb
     RDKit          3D

 20 19  0  0  1  0  0  0  0  0999 V2000
   24.9483  -11.4720  -15.7991 N   0  0  0  0  0  0  0  0  0  0  0  0
   23.9443  -10.9692  -14.8940 C   0  0  0  0  0  0  0  0  0  0  0  0
   23.2787   -9.7874  -15.5474 C   0  0  0  0  0  0  0  0  0  0  0  0
   23.6836   -9.4968  -16.6883 O   0  0  0  0  0  0  0  0  0  0  0  0
   22.2695   -9.0808  -14.8840 N   0  0  0  0  0  0  0  0  0  0  0  0
   21.4955   -8.0281  -15.4462 C   0  0  1  0  0  0  0  0  0  0  0  0
   20.0104   -8.1789  -15.2403 C   0  0  0  0  0  0  0  0  0  0  0  0
   19.1437   -7.1851  -15.9138 C   0  0  0  0  0  0  0  0  0  0  0  0
   17.6891   -7.3941  -15.6588 C   0  0  0  0  0  0  0  0  0  0  0  0
   16.9516   -6.4714  -15.3122 O   0  0  0  0  0  0  0  0  0  0  0  0
   21.9203   -6.6864  -14.9707 C   0  0  0  0  0  0  0  0  0  0  0  0
   22.1471   -6.5315  -13.7184 O   0  0  0  0  0  0  0  0  0  0  0  0
   17.1157   -8.6623  -15.8087 O   0  0  0  0  0  0  0  0  0  0  0  0
   24.4722   -4.3866  -16.8350 O   0  0  0  0  0  0  0  0  0  0  0  0
   23.4401   -3.5810  -16.3410 C   0  0  0  0  0  0  0  0  0  0  0  0
   22.6643   -4.3681  -15.3153 C   0  0  2  0  0  0  0  0  0  0  0  0
   22.0884   -5.5686  -15.8268 N   0  0  0  0  0  0  0  0  0  0  0  0
   21.5748   -3.4733  -14.8172 C   0  0  0  0  0  0  0  0  0  0  0  0
   21.8849   -2.4174  -14.2141 O   0  0  0  0  0  0  0  0  0  0  0  0
   20.2433   -3.7824  -15.0054 O   0  0  0  0  0  0  0  0  0  0  0  0
  2  1  1  0
  3  5  1  0
  3  2  1  0
  4  3  2  0
  6 11  1  0
  6  5  1  0
  6  7  1  1
  8  7  1  0
  9  8  1  0
 10  9  2  0
 11 12  2  0
 13  9  1  0
 14 15  1  0
 16 15  1  6
 17 11  1  0
 17 16  1  0
 18 16  1  0
 18 20  1  0
 19 18  2  0
M  END
$$$$
