GES.pdb
     RDKit          3D

 20 19  0  0  1  0  0  0  0  0999 V2000
   17.2998  -12.1676  -15.4223 N   0  0  0  0  0  0  0  0  0  0  0  0
   16.8354  -11.1709  -16.3555 C   0  0  0  0  0  0  0  0  0  0  0  0
   17.8828  -10.0931  -16.4448 C   0  0  0  0  0  0  0  0  0  0  0  0
   19.0651  -10.4829  -16.4566 O   0  0  0  0  0  0  0  0  0  0  0  0
   17.5146   -8.7447  -16.5090 N   0  0  0  0  0  0  0  0  0  0  0  0
   18.4122   -7.6529  -16.6692 C   0  0  1  0  0  0  0  0  0  0  0  0
   17.7838   -6.4236  -17.2731 C   0  0  0  0  0  0  0  0  0  0  0  0
   18.6841   -5.2757  -17.5266 C   0  0  0  0  0  0  0  0  0  0  0  0
   17.9925   -4.0980  -18.1259 C   0  0  0  0  0  0  0  0  0  0  0  0
   18.5960   -3.0603  -18.3989 O   0  0  0  0  0  0  0  0  0  0  0  0
   19.0946   -7.2805  -15.4033 C   0  0  0  0  0  0  0  0  0  0  0  0
   18.3870   -7.1891  -14.3381 O   0  0  0  0  0  0  0  0  0  0  0  0
   16.6200   -4.1416  -18.3979 O   0  0  0  0  0  0  0  0  0  0  0  0
   22.8858   -8.2030  -14.5596 O   0  0  0  0  0  0  0  0  0  0  0  0
   21.9614   -7.9024  -13.5529 C   0  0  0  0  0  0  0  0  0  0  0  0
   21.0746   -6.7814  -14.0331 C   0  0  2  0  0  0  0  0  0  0  0  0
   20.4855   -7.0209  -15.3099 N   0  0  0  0  0  0  0  0  0  0  0  0
   21.9284   -5.5562  -14.1073 C   0  0  0  0  0  0  0  0  0  0  0  0
   22.0701   -4.9813  -15.2139 O   0  0  0  0  0  0  0  0  0  0  0  0
   22.5601   -5.0470  -12.9913 O   0  0  0  0  0  0  0  0  0  0  0  0
  2  1  1  0
  3  5  1  0
  3  2  1  0
  4  3  2  0
  6 11  1  0
  6  5  1  0
  6  7  1  1
  8  7  1  0
  9  8  1  0
 10  9  2  0
 11 12  2  0
 13  9  1  0
 14 15  1  0
 16 15  1  6
 17 11  1  0
 17 16  1  0
 18 16  1  0
 18 20  1  0
 19 18  2  0
M  END
$$$$
