GES.pdb
     RDKit          3D

 20 19  0  0  1  0  0  0  0  0999 V2000
   17.8396  -12.1197  -16.3570 N   0  0  0  0  0  0  0  0  0  0  0  0
   17.3576  -11.0345  -15.5385 C   0  0  0  0  0  0  0  0  0  0  0  0
   18.1691   -9.8092  -15.8653 C   0  0  0  0  0  0  0  0  0  0  0  0
   19.2324  -10.0090  -16.4813 O   0  0  0  0  0  0  0  0  0  0  0  0
   17.7255   -8.5379  -15.4847 N   0  0  0  0  0  0  0  0  0  0  0  0
   18.3654   -7.3104  -15.8120 C   0  0  1  0  0  0  0  0  0  0  0  0
   17.4308   -6.1309  -15.8884 C   0  0  0  0  0  0  0  0  0  0  0  0
   16.4074   -6.1644  -16.9579 C   0  0  0  0  0  0  0  0  0  0  0  0
   15.4765   -4.9995  -16.9278 C   0  0  0  0  0  0  0  0  0  0  0  0
   15.1741   -4.3835  -17.9498 O   0  0  0  0  0  0  0  0  0  0  0  0
   19.4873   -6.9855  -14.8942 C   0  0  0  0  0  0  0  0  0  0  0  0
   19.3076   -7.1512  -13.6356 O   0  0  0  0  0  0  0  0  0  0  0  0
   14.9142   -4.5695  -15.7202 O   0  0  0  0  0  0  0  0  0  0  0  0
   23.2338   -5.7861  -16.1925 O   0  0  0  0  0  0  0  0  0  0  0  0
   23.1779   -6.4838  -14.9808 C   0  0  0  0  0  0  0  0  0  0  0  0
   21.7997   -6.3164  -14.3923 C   0  0  2  0  0  0  0  0  0  0  0  0
   20.7455   -6.5024  -15.3349 N   0  0  0  0  0  0  0  0  0  0  0  0
   21.7297   -4.9272  -13.8436 C   0  0  0  0  0  0  0  0  0  0  0  0
   20.9386   -4.1065  -14.3687 O   0  0  0  0  0  0  0  0  0  0  0  0
   22.5119   -4.5308  -12.7784 O   0  0  0  0  0  0  0  0  0  0  0  0
  2  1  1  0
  3  5  1  0
  3  2  1  0
  4  3  2  0
  6 11  1  0
  6  5  1  0
  6  7  1  1
  8  7  1  0
  9  8  1  0
 10  9  2  0
 11 12  2  0
 13  9  1  0
 14 15  1  0
 16 15  1  6
 17 11  1  0
 17 16  1  0
 18 16  1  0
 18 20  1  0
 19 18  2  0
M  END
$$$$
