GES.pdb
     RDKit          3D

 20 19  0  0  1  0  0  0  0  0999 V2000
   17.3820  -12.0299  -14.4367 N   0  0  0  0  0  0  0  0  0  0  0  0
   16.9271  -10.6700  -14.5903 C   0  0  0  0  0  0  0  0  0  0  0  0
   17.4144   -9.8797  -13.4051 C   0  0  0  0  0  0  0  0  0  0  0  0
   17.2423  -10.4077  -12.2909 O   0  0  0  0  0  0  0  0  0  0  0  0
   18.0197   -8.6305  -13.5814 N   0  0  0  0  0  0  0  0  0  0  0  0
   18.4670   -7.7773  -12.5348 C   0  0  1  0  0  0  0  0  0  0  0  0
   19.6533   -6.9238  -12.9017 C   0  0  0  0  0  0  0  0  0  0  0  0
   20.2501   -6.1158  -11.8139 C   0  0  0  0  0  0  0  0  0  0  0  0
   21.4507   -5.3395  -12.2390 C   0  0  0  0  0  0  0  0  0  0  0  0
   22.5726   -5.8451  -12.2716 O   0  0  0  0  0  0  0  0  0  0  0  0
   17.3867   -6.9082  -12.0016 C   0  0  0  0  0  0  0  0  0  0  0  0
   16.6627   -6.2599  -12.8378 O   0  0  0  0  0  0  0  0  0  0  0  0
   21.3322   -3.9971  -12.6174 O   0  0  0  0  0  0  0  0  0  0  0  0
   16.2048   -6.8773   -8.0564 O   0  0  0  0  0  0  0  0  0  0  0  0
   15.2931   -6.4010   -9.0053 C   0  0  0  0  0  0  0  0  0  0  0  0
   16.0622   -5.8898  -10.1972 C   0  0  2  0  0  0  0  0  0  0  0  0
   17.1134   -6.7572  -10.6184 N   0  0  0  0  0  0  0  0  0  0  0  0
   16.6422   -4.5691   -9.8036 C   0  0  0  0  0  0  0  0  0  0  0  0
   17.8833   -4.4026   -9.8857 O   0  0  0  0  0  0  0  0  0  0  0  0
   15.8462   -3.5354   -9.3546 O   0  0  0  0  0  0  0  0  0  0  0  0
  2  1  1  0
  3  5  1  0
  3  2  1  0
  4  3  2  0
  6 11  1  0
  6  5  1  0
  6  7  1  6
  8  7  1  0
  9  8  1  0
 10  9  2  0
 11 12  2  0
 13  9  1  0
 14 15  1  0
 16 15  1  1
 17 11  1  0
 17 16  1  0
 18 16  1  0
 18 20  1  0
 19 18  2  0
M  END
$$$$
