NWN.pdb
     RDKit          3D

 31 32  0  0  1  0  0  0  0  0999 V2000
   26.8031  -25.6768  -18.5795 N   0  0  0  0  0  0  0  0  0  0  0  0
   26.3443  -26.3031  -17.3892 C   0  0  0  0  0  0  0  0  0  0  0  0
   26.4396  -27.5712  -17.3589 O   0  0  0  0  0  0  0  0  0  0  0  0
   25.7851  -25.5605  -16.2367 C   0  0  0  0  0  0  0  0  0  0  0  0
   25.8451  -24.0764  -16.5411 C   0  0  2  0  0  0  0  0  0  0  0  0
   27.2461  -23.6697  -16.5793 N   0  0  0  0  0  0  0  0  0  0  0  0
   25.1139  -23.2849  -15.5187 C   0  0  0  0  0  0  0  0  0  0  0  0
   24.9925  -23.7999  -14.3776 O   0  0  0  0  0  0  0  0  0  0  0  0
   24.5673  -22.0044  -15.7879 N   0  0  0  0  0  0  0  0  0  0  0  0
   23.9757  -21.1687  -14.7476 C   0  0  1  0  0  0  0  0  0  0  0  0
   24.5687  -19.8001  -14.7429 C   0  0  0  0  0  0  0  0  0  0  0  0
   26.0353  -19.7329  -14.6760 C   0  0  0  0  0  0  0  0  0  0  0  0
   26.7850  -20.1585  -13.5737 C   0  0  0  0  0  0  0  0  0  0  0  0
   28.0864  -20.0007  -13.8092 N   0  0  0  0  0  0  0  0  0  0  0  0
   28.2344  -19.4753  -15.0514 C   0  0  0  0  0  0  0  0  0  0  0  0
   29.3744  -19.1285  -15.7453 C   0  0  0  0  0  0  0  0  0  0  0  0
   29.2917  -18.5984  -17.0080 C   0  0  0  0  0  0  0  0  0  0  0  0
   28.0349  -18.4305  -17.5438 C   0  0  0  0  0  0  0  0  0  0  0  0
   26.8861  -18.7719  -16.8638 C   0  0  0  0  0  0  0  0  0  0  0  0
   26.9541  -19.3060  -15.5958 C   0  0  0  0  0  0  0  0  0  0  0  0
   22.5155  -21.2292  -14.6917 C   0  0  0  0  0  0  0  0  0  0  0  0
   21.8484  -21.3696  -15.7473 O   0  0  0  0  0  0  0  0  0  0  0  0
   17.5000  -22.9025  -11.9313 N   0  0  0  0  0  0  0  0  0  0  0  0
   18.3186  -22.5191  -13.0162 C   0  0  0  0  0  0  0  0  0  0  0  0
   17.7963  -22.2331  -14.1080 O   0  0  0  0  0  0  0  0  0  0  0  0
   19.7772  -22.4615  -12.8464 C   0  0  0  0  0  0  0  0  0  0  0  0
   20.3326  -21.2135  -13.4436 C   0  0  2  0  0  0  0  0  0  0  0  0
   21.7693  -21.1366  -13.4780 N   0  0  0  0  0  0  0  0  0  0  0  0
   19.8255  -20.0479  -12.6521 C   0  0  0  0  0  0  0  0  0  0  0  0
   18.4896  -19.6490  -12.6919 O   0  0  0  0  0  0  0  0  0  0  0  0
   20.5873  -19.3702  -11.9098 O   0  0  0  0  0  0  0  0  0  0  0  0
  2  1  1  0
  2  3  2  0
  4  2  1  0
  5  4  1  0
  5  6  1  1
  7  5  1  0
  7  8  2  0
  9  7  1  0
 10  9  1  0
 10 11  1  6
 12 11  1  0
 12 13  2  0
 14 13  1  0
 15 20  2  0
 15 14  1  0
 16 15  1  0
 17 16  2  0
 18 17  1  0
 18 19  2  0
 19 20  1  0
 20 12  1  0
 21 28  1  0
 21 10  1  0
 22 21  2  0
 23 24  1  0
 24 26  1  0
 25 24  2  0
 27 26  1  1
 27 28  1  0
 27 29  1  0
 29 31  2  0
 29 30  1  0
M  END
$$$$
