NWN.pdb
     RDKit          3D

 31 32  0  0  1  0  0  0  0  0999 V2000
   29.1738  -21.6614  -18.5491 N   0  0  0  0  0  0  0  0  0  0  0  0
   27.8482  -22.1686  -18.6216 C   0  0  0  0  0  0  0  0  0  0  0  0
   27.3974  -22.3738  -19.7932 O   0  0  0  0  0  0  0  0  0  0  0  0
   27.0142  -22.4526  -17.4315 C   0  0  0  0  0  0  0  0  0  0  0  0
   27.7778  -22.0284  -16.1922 C   0  0  2  0  0  0  0  0  0  0  0  0
   28.8519  -22.9889  -15.9609 N   0  0  0  0  0  0  0  0  0  0  0  0
   26.8881  -21.9653  -15.0043 C   0  0  0  0  0  0  0  0  0  0  0  0
   26.1955  -22.9852  -14.7551 O   0  0  0  0  0  0  0  0  0  0  0  0
   26.8029  -20.8212  -14.1709 N   0  0  0  0  0  0  0  0  0  0  0  0
   25.9356  -20.7669  -12.9981 C   0  0  1  0  0  0  0  0  0  0  0  0
   26.4336  -19.7814  -11.9953 C   0  0  0  0  0  0  0  0  0  0  0  0
   27.5052  -20.2515  -11.1062 C   0  0  0  0  0  0  0  0  0  0  0  0
   28.7336  -20.7448  -11.5600 C   0  0  0  0  0  0  0  0  0  0  0  0
   29.5122  -21.0696  -10.5293 N   0  0  0  0  0  0  0  0  0  0  0  0
   28.8349  -20.8063   -9.3836 C   0  0  0  0  0  0  0  0  0  0  0  0
   29.2070  -20.9743   -8.0665 C   0  0  0  0  0  0  0  0  0  0  0  0
   28.3489  -20.6432   -7.0485 C   0  0  0  0  0  0  0  0  0  0  0  0
   27.1150  -20.1423   -7.3974 C   0  0  0  0  0  0  0  0  0  0  0  0
   26.7280  -19.9682   -8.7083 C   0  0  0  0  0  0  0  0  0  0  0  0
   27.5796  -20.2954   -9.7405 C   0  0  0  0  0  0  0  0  0  0  0  0
   24.5096  -20.6881  -13.3133 C   0  0  0  0  0  0  0  0  0  0  0  0
   24.0958  -19.8615  -14.1644 O   0  0  0  0  0  0  0  0  0  0  0  0
   19.0451  -23.5608  -13.0775 N   0  0  0  0  0  0  0  0  0  0  0  0
   19.9056  -22.4413  -13.0596 C   0  0  0  0  0  0  0  0  0  0  0  0
   19.4771  -21.3322  -13.4239 O   0  0  0  0  0  0  0  0  0  0  0  0
   21.2967  -22.5960  -12.6118 C   0  0  0  0  0  0  0  0  0  0  0  0
   22.1230  -21.4287  -13.0326 C   0  0  2  0  0  0  0  0  0  0  0  0
   23.5205  -21.5145  -12.6992 N   0  0  0  0  0  0  0  0  0  0  0  0
   21.5666  -20.2002  -12.3820 C   0  0  0  0  0  0  0  0  0  0  0  0
   20.6918  -19.3406  -13.0462 O   0  0  0  0  0  0  0  0  0  0  0  0
   21.8651  -19.8852  -11.1978 O   0  0  0  0  0  0  0  0  0  0  0  0
  2  1  1  0
  2  3  2  0
  4  2  1  0
  5  4  1  0
  5  6  1  1
  7  5  1  0
  7  8  2  0
  9  7  1  0
 10  9  1  0
 10 11  1  6
 12 11  1  0
 12 13  2  0
 14 13  1  0
 15 20  2  0
 15 14  1  0
 16 15  1  0
 17 16  2  0
 18 17  1  0
 18 19  2  0
 19 20  1  0
 20 12  1  0
 21 28  1  0
 21 10  1  0
 22 21  2  0
 23 24  1  0
 24 26  1  0
 25 24  2  0
 27 26  1  1
 27 28  1  0
 27 29  1  0
 29 31  2  0
 29 30  1  0
M  END
$$$$
