NWN.pdb
     RDKit          3D

 31 32  0  0  1  0  0  0  0  0999 V2000
   29.2659  -23.6304  -18.6407 N   0  0  0  0  0  0  0  0  0  0  0  0
   29.2751  -24.3846  -17.4362 C   0  0  0  0  0  0  0  0  0  0  0  0
   29.9655  -25.4527  -17.4572 O   0  0  0  0  0  0  0  0  0  0  0  0
   28.5406  -23.9846  -16.2143 C   0  0  0  0  0  0  0  0  0  0  0  0
   27.7968  -22.6938  -16.4967 C   0  0  2  0  0  0  0  0  0  0  0  0
   28.7752  -21.6223  -16.6526 N   0  0  0  0  0  0  0  0  0  0  0  0
   26.8518  -22.3634  -15.3992 C   0  0  0  0  0  0  0  0  0  0  0  0
   26.0003  -23.2382  -15.0964 O   0  0  0  0  0  0  0  0  0  0  0  0
   26.8848  -21.1267  -14.7062 N   0  0  0  0  0  0  0  0  0  0  0  0
   25.9651  -20.8120  -13.6173 C   0  0  1  0  0  0  0  0  0  0  0  0
   26.5504  -19.8103  -12.6798 C   0  0  0  0  0  0  0  0  0  0  0  0
   27.4919  -20.3350  -11.6809 C   0  0  0  0  0  0  0  0  0  0  0  0
   28.8082  -20.7101  -11.9725 C   0  0  0  0  0  0  0  0  0  0  0  0
   29.4285  -21.1220  -10.8682 N   0  0  0  0  0  0  0  0  0  0  0  0
   28.5574  -21.0341   -9.8317 C   0  0  0  0  0  0  0  0  0  0  0  0
   28.7204  -21.3451   -8.4982 C   0  0  0  0  0  0  0  0  0  0  0  0
   27.6876  -21.1827   -7.6099 C   0  0  0  0  0  0  0  0  0  0  0  0
   26.4963  -20.7016   -8.1040 C   0  0  0  0  0  0  0  0  0  0  0  0
   26.3172  -20.3860   -9.4333 C   0  0  0  0  0  0  0  0  0  0  0  0
   27.3457  -20.5431  -10.3363 C   0  0  0  0  0  0  0  0  0  0  0  0
   24.5931  -20.5510  -14.0513 C   0  0  0  0  0  0  0  0  0  0  0  0
   24.3506  -19.6082  -14.8459 O   0  0  0  0  0  0  0  0  0  0  0  0
   22.4131  -23.6160  -13.3849 N   0  0  0  0  0  0  0  0  0  0  0  0
   21.6707  -23.3212  -14.5495 C   0  0  0  0  0  0  0  0  0  0  0  0
   21.1841  -24.2498  -15.2184 O   0  0  0  0  0  0  0  0  0  0  0  0
   21.4800  -21.9231  -14.9601 C   0  0  0  0  0  0  0  0  0  0  0  0
   22.1183  -20.9919  -13.9865 C   0  0  2  0  0  0  0  0  0  0  0  0
   23.4706  -21.3204  -13.6196 N   0  0  0  0  0  0  0  0  0  0  0  0
   21.2908  -20.9773  -12.7385 C   0  0  0  0  0  0  0  0  0  0  0  0
   19.9408  -20.6269  -12.7477 O   0  0  0  0  0  0  0  0  0  0  0  0
   21.7793  -21.2827  -11.6166 O   0  0  0  0  0  0  0  0  0  0  0  0
  2  1  1  0
  2  3  2  0
  4  2  1  0
  5  4  1  0
  5  6  1  1
  7  5  1  0
  7  8  2  0
  9  7  1  0
 10  9  1  0
 10 11  1  6
 12 11  1  0
 12 13  2  0
 14 13  1  0
 15 20  2  0
 15 14  1  0
 16 15  1  0
 17 16  2  0
 18 17  1  0
 18 19  2  0
 19 20  1  0
 20 12  1  0
 21 28  1  0
 21 10  1  0
 22 21  2  0
 23 24  1  0
 24 26  1  0
 25 24  2  0
 27 26  1  6
 27 28  1  0
 27 29  1  0
 29 31  2  0
 29 30  1  0
M  END
$$$$
