NWN.pdb
     RDKit          3D

 31 32  0  0  1  0  0  0  0  0999 V2000
   21.8732  -13.6112  -20.2985 N   0  0  0  0  0  0  0  0  0  0  0  0
   22.3313  -14.0700  -19.0338 C   0  0  0  0  0  0  0  0  0  0  0  0
   22.2641  -15.3259  -18.8432 O   0  0  0  0  0  0  0  0  0  0  0  0
   22.8598  -13.1739  -17.9802 C   0  0  0  0  0  0  0  0  0  0  0  0
   22.8571  -11.7521  -18.5071 C   0  0  2  0  0  0  0  0  0  0  0  0
   23.9186  -11.6264  -19.5006 N   0  0  0  0  0  0  0  0  0  0  0  0
   23.0665  -10.7698  -17.4127 C   0  0  0  0  0  0  0  0  0  0  0  0
   22.2217  -10.7648  -16.4808 O   0  0  0  0  0  0  0  0  0  0  0  0
   24.1597   -9.8669  -17.3924 N   0  0  0  0  0  0  0  0  0  0  0  0
   24.3745   -8.9182  -16.3041 C   0  0  1  0  0  0  0  0  0  0  0  0
   25.7910   -8.9335  -15.8372 C   0  0  0  0  0  0  0  0  0  0  0  0
   26.3978  -10.2604  -15.6614 C   0  0  0  0  0  0  0  0  0  0  0  0
   25.7762  -11.3182  -14.9886 C   0  0  0  0  0  0  0  0  0  0  0  0
   26.5513  -12.4012  -15.0108 N   0  0  0  0  0  0  0  0  0  0  0  0
   27.6883  -12.0981  -15.6861 C   0  0  0  0  0  0  0  0  0  0  0  0
   28.7917  -12.8740  -15.9726 C   0  0  0  0  0  0  0  0  0  0  0  0
   29.8499  -12.3548  -16.6746 C   0  0  0  0  0  0  0  0  0  0  0  0
   29.7614  -11.0407  -17.0747 C   0  0  0  0  0  0  0  0  0  0  0  0
   28.6661  -10.2521  -16.7968 C   0  0  0  0  0  0  0  0  0  0  0  0
   27.5960  -10.7605  -16.0937 C   0  0  0  0  0  0  0  0  0  0  0  0
   23.7978   -7.5955  -16.5426 C   0  0  0  0  0  0  0  0  0  0  0  0
   24.3020   -6.8329  -17.4048 O   0  0  0  0  0  0  0  0  0  0  0  0
   19.6783   -7.2648  -18.2790 N   0  0  0  0  0  0  0  0  0  0  0  0
   20.6043   -6.2516  -17.9468 C   0  0  0  0  0  0  0  0  0  0  0  0
   21.3342   -5.7731  -18.8327 O   0  0  0  0  0  0  0  0  0  0  0  0
   20.6974   -5.7727  -16.5606 C   0  0  0  0  0  0  0  0  0  0  0  0
   22.1111   -5.7868  -16.0877 C   0  0  2  0  0  0  0  0  0  0  0  0
   22.6617   -7.0931  -15.8390 N   0  0  0  0  0  0  0  0  0  0  0  0
   22.1887   -5.0019  -14.8148 C   0  0  0  0  0  0  0  0  0  0  0  0
   21.8766   -3.6436  -14.7608 O   0  0  0  0  0  0  0  0  0  0  0  0
   22.5416   -5.5359  -13.7282 O   0  0  0  0  0  0  0  0  0  0  0  0
  2  1  1  0
  2  3  2  0
  4  2  1  0
  5  4  1  0
  5  6  1  6
  7  5  1  0
  7  8  2  0
  9  7  1  0
 10  9  1  0
 10 11  1  6
 12 11  1  0
 12 13  2  0
 14 13  1  0
 15 20  2  0
 15 14  1  0
 16 15  1  0
 17 16  2  0
 18 17  1  0
 18 19  2  0
 19 20  1  0
 20 12  1  0
 21 28  1  0
 21 10  1  0
 22 21  2  0
 23 24  1  0
 24 26  1  0
 25 24  2  0
 27 26  1  1
 27 28  1  0
 27 29  1  0
 29 31  2  0
 29 30  1  0
M  END
$$$$
