NWN.pdb
     RDKit          3D

 31 32  0  0  1  0  0  0  0  0999 V2000
   27.2048  -18.8140  -17.2733 N   0  0  0  0  0  0  0  0  0  0  0  0
   27.5883  -18.7667  -15.9056 C   0  0  0  0  0  0  0  0  0  0  0  0
   28.7165  -18.2307  -15.6655 O   0  0  0  0  0  0  0  0  0  0  0  0
   26.7546  -19.2971  -14.8029 C   0  0  0  0  0  0  0  0  0  0  0  0
   27.4444  -20.5127  -14.2152 C   0  0  2  0  0  0  0  0  0  0  0  0
   27.3587  -21.6035  -15.1808 N   0  0  0  0  0  0  0  0  0  0  0  0
   26.8194  -20.9206  -12.9309 C   0  0  0  0  0  0  0  0  0  0  0  0
   25.7023  -21.4949  -12.9968 O   0  0  0  0  0  0  0  0  0  0  0  0
   27.4308  -20.6869  -11.6730 N   0  0  0  0  0  0  0  0  0  0  0  0
   26.7290  -20.8887  -10.4092 C   0  0  1  0  0  0  0  0  0  0  0  0
   27.6563  -20.7812   -9.2458 C   0  0  0  0  0  0  0  0  0  0  0  0
   27.0246  -20.7339   -7.9198 C   0  0  0  0  0  0  0  0  0  0  0  0
   25.7818  -21.3071   -7.6281 C   0  0  0  0  0  0  0  0  0  0  0  0
   25.4790  -21.1287   -6.3434 N   0  0  0  0  0  0  0  0  0  0  0  0
   26.4933  -20.4445   -5.7571 C   0  0  0  0  0  0  0  0  0  0  0  0
   26.6482  -20.0170   -4.4553 C   0  0  0  0  0  0  0  0  0  0  0  0
   27.7691  -19.3238   -4.0744 C   0  0  0  0  0  0  0  0  0  0  0  0
   28.7201  -19.0773   -5.0387 C   0  0  0  0  0  0  0  0  0  0  0  0
   28.5807  -19.4977   -6.3434 C   0  0  0  0  0  0  0  0  0  0  0  0
   27.4610  -20.1955   -6.7398 C   0  0  0  0  0  0  0  0  0  0  0  0
   25.4770  -20.1415  -10.2955 C   0  0  0  0  0  0  0  0  0  0  0  0
   25.4380  -18.9240  -10.6040 O   0  0  0  0  0  0  0  0  0  0  0  0
   20.6152  -19.1578  -11.0712 N   0  0  0  0  0  0  0  0  0  0  0  0
   21.3250  -19.9043  -12.0371 C   0  0  0  0  0  0  0  0  0  0  0  0
   20.8482  -20.0430  -13.1773 O   0  0  0  0  0  0  0  0  0  0  0  0
   22.6178  -20.5096  -11.6877 C   0  0  0  0  0  0  0  0  0  0  0  0
   22.9644  -20.2365  -10.2637 C   0  0  2  0  0  0  0  0  0  0  0  0
   24.2529  -20.7200   -9.8425 N   0  0  0  0  0  0  0  0  0  0  0  0
   21.9242  -20.8750   -9.3961 C   0  0  0  0  0  0  0  0  0  0  0  0
   22.2406  -21.8625   -8.4634 O   0  0  0  0  0  0  0  0  0  0  0  0
   20.7086  -20.5474   -9.4698 O   0  0  0  0  0  0  0  0  0  0  0  0
  2  1  1  0
  2  3  2  0
  4  2  1  0
  5  4  1  0
  5  6  1  6
  7  5  1  0
  7  8  2  0
  9  7  1  0
 10  9  1  0
 10 11  1  1
 12 11  1  0
 12 13  2  0
 14 13  1  0
 15 20  2  0
 15 14  1  0
 16 15  1  0
 17 16  2  0
 18 17  1  0
 18 19  2  0
 19 20  1  0
 20 12  1  0
 21 28  1  0
 21 10  1  0
 22 21  2  0
 23 24  1  0
 24 26  1  0
 25 24  2  0
 27 26  1  6
 27 28  1  0
 27 29  1  0
 29 31  2  0
 29 30  1  0
M  END
$$$$
