NWN.pdb
     RDKit          3D

 31 32  0  0  1  0  0  0  0  0999 V2000
   20.5557  -22.4002  -11.3509 N   0  0  0  0  0  0  0  0  0  0  0  0
   21.1532  -21.8014  -12.4929 C   0  0  0  0  0  0  0  0  0  0  0  0
   20.5059  -21.9184  -13.5816 O   0  0  0  0  0  0  0  0  0  0  0  0
   22.4453  -21.0792  -12.4569 C   0  0  0  0  0  0  0  0  0  0  0  0
   23.0528  -21.2411  -11.0772 C   0  0  2  0  0  0  0  0  0  0  0  0
   22.2075  -20.5403  -10.1159 N   0  0  0  0  0  0  0  0  0  0  0  0
   24.4350  -20.6992  -11.0282 C   0  0  0  0  0  0  0  0  0  0  0  0
   24.5849  -19.4888  -11.3358 O   0  0  0  0  0  0  0  0  0  0  0  0
   25.5537  -21.4866  -10.6550 N   0  0  0  0  0  0  0  0  0  0  0  0
   26.9250  -20.9942  -10.7430 C   0  0  1  0  0  0  0  0  0  0  0  0
   27.7196  -21.3713   -9.5384 C   0  0  0  0  0  0  0  0  0  0  0  0
   27.4506  -20.5956   -8.3195 C   0  0  0  0  0  0  0  0  0  0  0  0
   26.3837  -19.6999   -8.1858 C   0  0  0  0  0  0  0  0  0  0  0  0
   26.3776  -19.1649   -6.9661 N   0  0  0  0  0  0  0  0  0  0  0  0
   27.4211  -19.6804   -6.2689 C   0  0  0  0  0  0  0  0  0  0  0  0
   27.8389  -19.4403   -4.9769 C   0  0  0  0  0  0  0  0  0  0  0  0
   28.9426  -20.0767   -4.4680 C   0  0  0  0  0  0  0  0  0  0  0  0
   29.6058  -20.9545   -5.2953 C   0  0  0  0  0  0  0  0  0  0  0  0
   29.2013  -21.2057   -6.5883 C   0  0  0  0  0  0  0  0  0  0  0  0
   28.0944  -20.5747   -7.1122 C   0  0  0  0  0  0  0  0  0  0  0  0
   27.5676  -21.2446  -12.0327 C   0  0  0  0  0  0  0  0  0  0  0  0
   28.1202  -22.3503  -12.2587 O   0  0  0  0  0  0  0  0  0  0  0  0
   28.1088  -22.7364  -16.8108 N   0  0  0  0  0  0  0  0  0  0  0  0
   27.0406  -21.8960  -16.4274 C   0  0  0  0  0  0  0  0  0  0  0  0
   26.3140  -21.3901  -17.3007 O   0  0  0  0  0  0  0  0  0  0  0  0
   26.7975  -21.6269  -15.0032 C   0  0  0  0  0  0  0  0  0  0  0  0
   27.7971  -20.6593  -14.4674 C   0  0  2  0  0  0  0  0  0  0  0  0
   27.6121  -20.2860  -13.0898 N   0  0  0  0  0  0  0  0  0  0  0  0
   27.7367  -19.4139  -15.2965 C   0  0  0  0  0  0  0  0  0  0  0  0
   28.5661  -19.2166  -16.4003 O   0  0  0  0  0  0  0  0  0  0  0  0
   26.9289  -18.4818  -15.0331 O   0  0  0  0  0  0  0  0  0  0  0  0
  2  1  1  0
  2  3  2  0
  4  2  1  0
  5  4  1  0
  5  6  1  1
  7  5  1  0
  7  8  2  0
  9  7  1  0
 10  9  1  0
 10 11  1  1
 12 11  1  0
 12 13  2  0
 14 13  1  0
 15 20  2  0
 15 14  1  0
 16 15  1  0
 17 16  2  0
 18 17  1  0
 18 19  2  0
 19 20  1  0
 20 12  1  0
 21 28  1  0
 21 10  1  0
 22 21  2  0
 23 24  1  0
 24 26  1  0
 25 24  2  0
 27 26  1  6
 27 28  1  0
 27 29  1  0
 29 31  2  0
 29 30  1  0
M  END
$$$$
