NWN.pdb
     RDKit          3D

 31 32  0  0  1  0  0  0  0  0999 V2000
   27.2617  -26.2241  -18.7212 N   0  0  0  0  0  0  0  0  0  0  0  0
   26.7791  -24.9271  -18.3979 C   0  0  0  0  0  0  0  0  0  0  0  0
   26.9633  -24.0317  -19.2824 O   0  0  0  0  0  0  0  0  0  0  0  0
   26.1001  -24.6006  -17.1232 C   0  0  0  0  0  0  0  0  0  0  0  0
   26.8596  -23.4782  -16.4432 C   0  0  2  0  0  0  0  0  0  0  0  0
   28.2041  -23.9531  -16.1325 N   0  0  0  0  0  0  0  0  0  0  0  0
   26.1759  -23.0388  -15.1998 C   0  0  0  0  0  0  0  0  0  0  0  0
   25.9060  -23.9279  -14.3520 O   0  0  0  0  0  0  0  0  0  0  0  0
   25.8313  -21.6857  -14.9523 N   0  0  0  0  0  0  0  0  0  0  0  0
   25.1998  -21.2508  -13.7103 C   0  0  1  0  0  0  0  0  0  0  0  0
   25.9271  -20.0999  -13.1011 C   0  0  0  0  0  0  0  0  0  0  0  0
   27.0034  -20.4420  -12.1606 C   0  0  0  0  0  0  0  0  0  0  0  0
   28.3198  -20.7149  -12.5491 C   0  0  0  0  0  0  0  0  0  0  0  0
   29.0756  -20.9663  -11.4816 N   0  0  0  0  0  0  0  0  0  0  0  0
   28.2965  -20.8696  -10.3750 C   0  0  0  0  0  0  0  0  0  0  0  0
   28.6093  -21.0438   -9.0434 C   0  0  0  0  0  0  0  0  0  0  0  0
   27.6491  -20.9018   -8.0739 C   0  0  0  0  0  0  0  0  0  0  0  0
   26.3752  -20.5818   -8.4857 C   0  0  0  0  0  0  0  0  0  0  0  0
   26.0462  -20.4041   -9.8119 C   0  0  0  0  0  0  0  0  0  0  0  0
   27.0003  -20.5425  -10.7959 C   0  0  0  0  0  0  0  0  0  0  0  0
   23.7465  -21.1108  -13.7966 C   0  0  0  0  0  0  0  0  0  0  0  0
   23.2090  -20.7593  -14.8766 O   0  0  0  0  0  0  0  0  0  0  0  0
   18.5164  -22.7020  -12.5449 N   0  0  0  0  0  0  0  0  0  0  0  0
   19.2160  -21.6616  -11.8951 C   0  0  0  0  0  0  0  0  0  0  0  0
   18.6009  -20.6459  -11.5255 O   0  0  0  0  0  0  0  0  0  0  0  0
   20.6615  -21.7876  -11.6617 C   0  0  0  0  0  0  0  0  0  0  0  0
   21.4348  -21.2487  -12.8167 C   0  0  2  0  0  0  0  0  0  0  0  0
   22.8654  -21.3546  -12.6999 N   0  0  0  0  0  0  0  0  0  0  0  0
   21.0897  -19.8005  -12.9785 C   0  0  0  0  0  0  0  0  0  0  0  0
   20.1349  -19.3637  -13.8966 O   0  0  0  0  0  0  0  0  0  0  0  0
   21.6495  -18.9055  -12.2885 O   0  0  0  0  0  0  0  0  0  0  0  0
  2  1  1  0
  2  3  2  0
  4  2  1  0
  5  4  1  0
  5  6  1  1
  7  5  1  0
  7  8  2  0
  9  7  1  0
 10  9  1  0
 10 11  1  6
 12 11  1  0
 12 13  2  0
 14 13  1  0
 15 20  2  0
 15 14  1  0
 16 15  1  0
 17 16  2  0
 18 17  1  0
 18 19  2  0
 19 20  1  0
 20 12  1  0
 21 28  1  0
 21 10  1  0
 22 21  2  0
 23 24  1  0
 24 26  1  0
 25 24  2  0
 27 26  1  1
 27 28  1  0
 27 29  1  0
 29 31  2  0
 29 30  1  0
M  END
$$$$
