NWN.pdb
     RDKit          3D

 31 32  0  0  1  0  0  0  0  0999 V2000
   28.7668  -25.9826  -17.2290 N   0  0  0  0  0  0  0  0  0  0  0  0
   27.9531  -24.8262  -17.0864 C   0  0  0  0  0  0  0  0  0  0  0  0
   27.8152  -24.1142  -18.1314 O   0  0  0  0  0  0  0  0  0  0  0  0
   27.2913  -24.4421  -15.8187 C   0  0  0  0  0  0  0  0  0  0  0  0
   26.6060  -23.1041  -16.0157 C   0  0  2  0  0  0  0  0  0  0  0  0
   27.6282  -22.0967  -16.2804 N   0  0  0  0  0  0  0  0  0  0  0  0
   25.8133  -22.7214  -14.8191 C   0  0  0  0  0  0  0  0  0  0  0  0
   25.0335  -23.5895  -14.3495 O   0  0  0  0  0  0  0  0  0  0  0  0
   25.9107  -21.4436  -14.2122 N   0  0  0  0  0  0  0  0  0  0  0  0
   25.1621  -21.0855  -13.0114 C   0  0  1  0  0  0  0  0  0  0  0  0
   25.8703  -20.0402  -12.2173 C   0  0  0  0  0  0  0  0  0  0  0  0
   27.0138  -20.5018  -11.4179 C   0  0  0  0  0  0  0  0  0  0  0  0
   28.2213  -20.9450  -11.9691 C   0  0  0  0  0  0  0  0  0  0  0  0
   29.0783  -21.2742  -11.0042 N   0  0  0  0  0  0  0  0  0  0  0  0
   28.4749  -21.0632   -9.8075 C   0  0  0  0  0  0  0  0  0  0  0  0
   28.9420  -21.2559   -8.5244 C   0  0  0  0  0  0  0  0  0  0  0  0
   28.1474  -20.9790   -7.4408 C   0  0  0  0  0  0  0  0  0  0  0  0
   26.8787  -20.5063   -7.6894 C   0  0  0  0  0  0  0  0  0  0  0  0
   26.3970  -20.3081   -8.9651 C   0  0  0  0  0  0  0  0  0  0  0  0
   27.1839  -20.5809  -10.0624 C   0  0  0  0  0  0  0  0  0  0  0  0
   23.7373  -20.8512  -13.2437 C   0  0  0  0  0  0  0  0  0  0  0  0
   23.3672  -19.9831  -14.0733 O   0  0  0  0  0  0  0  0  0  0  0  0
   18.5627  -22.5631  -14.2049 N   0  0  0  0  0  0  0  0  0  0  0  0
   19.0373  -22.2888  -12.9036 C   0  0  0  0  0  0  0  0  0  0  0  0
   18.2626  -21.8117  -12.0558 O   0  0  0  0  0  0  0  0  0  0  0  0
   20.4393  -22.5684  -12.5630 C   0  0  0  0  0  0  0  0  0  0  0  0
   21.3091  -21.4044  -12.8961 C   0  0  2  0  0  0  0  0  0  0  0  0
   22.7014  -21.5658  -12.5694 N   0  0  0  0  0  0  0  0  0  0  0  0
   20.7959  -20.2077  -12.1566 C   0  0  0  0  0  0  0  0  0  0  0  0
   21.5448  -19.5691  -11.1683 O   0  0  0  0  0  0  0  0  0  0  0  0
   19.6574  -19.7202  -12.3949 O   0  0  0  0  0  0  0  0  0  0  0  0
  2  1  1  0
  2  3  2  0
  4  2  1  0
  5  4  1  0
  5  6  1  1
  7  5  1  0
  7  8  2  0
  9  7  1  0
 10  9  1  0
 10 11  1  6
 12 11  1  0
 12 13  2  0
 14 13  1  0
 15 20  2  0
 15 14  1  0
 16 15  1  0
 17 16  2  0
 18 17  1  0
 18 19  2  0
 19 20  1  0
 20 12  1  0
 21 28  1  0
 21 10  1  0
 22 21  2  0
 23 24  1  0
 24 26  1  0
 25 24  2  0
 27 26  1  1
 27 28  1  0
 27 29  1  0
 29 31  2  0
 29 30  1  0
M  END
$$$$
