NWN.pdb
     RDKit          3D

 31 32  0  0  1  0  0  0  0  0999 V2000
   26.3700  -25.3942  -18.9018 N   0  0  0  0  0  0  0  0  0  0  0  0
   25.4849  -26.0261  -17.9869 C   0  0  0  0  0  0  0  0  0  0  0  0
   24.9878  -27.1319  -18.3718 O   0  0  0  0  0  0  0  0  0  0  0  0
   25.1393  -25.4640  -16.6614 C   0  0  0  0  0  0  0  0  0  0  0  0
   25.9629  -24.2110  -16.4367 C   0  0  2  0  0  0  0  0  0  0  0  0
   27.3565  -24.6022  -16.2504 N   0  0  0  0  0  0  0  0  0  0  0  0
   25.4844  -23.4551  -15.2508 C   0  0  0  0  0  0  0  0  0  0  0  0
   25.4901  -24.0600  -14.1480 O   0  0  0  0  0  0  0  0  0  0  0  0
   25.0363  -22.1120  -15.3281 N   0  0  0  0  0  0  0  0  0  0  0  0
   24.5786  -21.3684  -14.1584 C   0  0  1  0  0  0  0  0  0  0  0  0
   25.3353  -20.0941  -13.9903 C   0  0  0  0  0  0  0  0  0  0  0  0
   26.7214  -20.2243  -13.5195 C   0  0  0  0  0  0  0  0  0  0  0  0
   27.8408  -19.8996  -14.2939 C   0  0  0  0  0  0  0  0  0  0  0  0
   28.9590  -20.0944  -13.5970 N   0  0  0  0  0  0  0  0  0  0  0  0
   28.6196  -20.5460  -12.3635 C   0  0  0  0  0  0  0  0  0  0  0  0
   29.4117  -20.8939  -11.2897 C   0  0  0  0  0  0  0  0  0  0  0  0
   28.8497  -21.3395  -10.1201 C   0  0  0  0  0  0  0  0  0  0  0  0
   27.4767  -21.4227  -10.0680 C   0  0  0  0  0  0  0  0  0  0  0  0
   26.6712  -21.0788  -11.1318 C   0  0  0  0  0  0  0  0  0  0  0  0
   27.2216  -20.6289  -12.3118 C   0  0  0  0  0  0  0  0  0  0  0  0
   23.1239  -21.2633  -14.0494 C   0  0  0  0  0  0  0  0  0  0  0  0
   22.4187  -21.1630  -15.0846 O   0  0  0  0  0  0  0  0  0  0  0  0
   18.2873  -21.3674  -12.6758 N   0  0  0  0  0  0  0  0  0  0  0  0
   18.9500  -21.6195  -11.4545 C   0  0  0  0  0  0  0  0  0  0  0  0
   18.2860  -21.9195  -10.4467 O   0  0  0  0  0  0  0  0  0  0  0  0
   20.4149  -21.5252  -11.3850 C   0  0  0  0  0  0  0  0  0  0  0  0
   20.9900  -21.1978  -12.7208 C   0  0  2  0  0  0  0  0  0  0  0  0
   22.4251  -21.2669  -12.8044 N   0  0  0  0  0  0  0  0  0  0  0  0
   20.5717  -19.8067  -13.0843 C   0  0  0  0  0  0  0  0  0  0  0  0
   21.4983  -18.7914  -13.3207 O   0  0  0  0  0  0  0  0  0  0  0  0
   19.3563  -19.4881  -13.1937 O   0  0  0  0  0  0  0  0  0  0  0  0
  2  1  1  0
  2  3  2  0
  4  2  1  0
  5  4  1  0
  5  6  1  1
  7  5  1  0
  7  8  2  0
  9  7  1  0
 10  9  1  0
 10 11  1  6
 12 11  1  0
 12 13  2  0
 14 13  1  0
 15 20  2  0
 15 14  1  0
 16 15  1  0
 17 16  2  0
 18 17  1  0
 18 19  2  0
 19 20  1  0
 20 12  1  0
 21 28  1  0
 21 10  1  0
 22 21  2  0
 23 24  1  0
 24 26  1  0
 25 24  2  0
 27 26  1  1
 27 28  1  0
 27 29  1  0
 29 31  2  0
 29 30  1  0
M  END
$$$$
