ILF.pdb
     RDKit          3D

 28 28  0  0  1  0  0  0  0  0999 V2000
   10.5552  -22.0599   19.1071 C   0  0  0  0  0  0  0  0  0  0  0  0
   10.2070  -20.6665   18.6934 C   0  0  0  0  0  0  0  0  0  0  0  0
   10.3665  -19.6627   19.8054 C   0  0  2  0  0  0  0  0  0  0  0  0
    9.4522  -20.1355   20.9229 C   0  0  0  0  0  0  0  0  0  0  0  0
   10.0217  -18.3093   19.3135 C   0  0  2  0  0  0  0  0  0  0  0  0
   10.7981  -17.9708   18.1487 N   0  0  0  0  0  0  0  0  0  0  0  0
   10.1281  -17.2484   20.3455 C   0  0  0  0  0  0  0  0  0  0  0  0
   11.2246  -16.8275   20.7806 O   0  0  0  0  0  0  0  0  0  0  0  0
    6.5283  -13.2582   20.1160 C   0  0  0  0  0  0  0  0  0  0  0  0
    7.8923  -14.0128   20.1592 C   0  0  1  0  0  0  0  0  0  0  0  0
    8.9134  -12.9357   19.9541 C   0  0  0  0  0  0  0  0  0  0  0  0
    7.9108  -14.6960   21.4683 C   0  0  0  0  0  0  0  0  0  0  0  0
    9.0594  -15.5625   21.8542 C   0  0  2  0  0  0  0  0  0  0  0  0
    8.9451  -16.6912   20.8574 N   0  0  0  0  0  0  0  0  0  0  0  0
    8.9653  -16.1802   23.1722 C   0  0  0  0  0  0  0  0  0  0  0  0
    7.7965  -16.2566   23.6948 O   0  0  0  0  0  0  0  0  0  0  0  0
   10.0139  -16.7239   23.9534 N   0  0  0  0  0  0  0  0  0  0  0  0
   10.2485  -16.2073   25.2664 C   0  0  1  0  0  0  0  0  0  0  0  0
   10.3093  -14.6810   25.1142 C   0  0  0  0  0  0  0  0  0  0  0  0
    9.7035  -14.0383   26.2945 C   0  0  0  0  0  0  0  0  0  0  0  0
    8.4282  -13.5131   26.2946 C   0  0  0  0  0  0  0  0  0  0  0  0
    7.9345  -12.9279   27.4411 C   0  0  0  0  0  0  0  0  0  0  0  0
    8.6907  -12.8571   28.5883 C   0  0  0  0  0  0  0  0  0  0  0  0
    9.9595  -13.3826   28.5796 C   0  0  0  0  0  0  0  0  0  0  0  0
   10.4702  -13.9707   27.4452 C   0  0  0  0  0  0  0  0  0  0  0  0
    9.2183  -16.5601   26.2472 C   0  0  0  0  0  0  0  0  0  0  0  0
    7.9118  -16.8714   25.9397 O   0  0  0  0  0  0  0  0  0  0  0  0
    9.5082  -16.5930   27.4857 O   0  0  0  0  0  0  0  0  0  0  0  0
  2  1  1  0
  3  2  1  0
  3  4  1  1
  5  6  1  6
  5  3  1  0
  7  5  1  0
  8  7  2  0
 10  9  1  1
 10 12  1  0
 11 10  1  0
 13 12  1  6
 13 14  1  0
 14  7  1  0
 15 13  1  0
 15 17  1  0
 16 15  2  0
 18 26  1  0
 18 19  1  6
 18 17  1  0
 20 19  1  0
 20 25  2  0
 21 20  1  0
 22 21  2  0
 22 23  1  0
 23 24  2  0
 24 25  1  0
 26 27  1  0
 28 26  2  0
M  END
$$$$
