ILF.pdb
     RDKit          3D

 28 28  0  0  1  0  0  0  0  0999 V2000
    6.3852  -20.9736   27.5071 C   0  0  0  0  0  0  0  0  0  0  0  0
    5.9737  -20.6373   26.1102 C   0  0  0  0  0  0  0  0  0  0  0  0
    6.9304  -19.6987   25.4221 C   0  0  2  0  0  0  0  0  0  0  0  0
    6.9464  -18.4344   26.2646 C   0  0  0  0  0  0  0  0  0  0  0  0
    6.4843  -19.4575   24.0310 C   0  0  2  0  0  0  0  0  0  0  0  0
    6.2523  -20.7004   23.3413 N   0  0  0  0  0  0  0  0  0  0  0  0
    7.3932  -18.5823   23.2503 C   0  0  0  0  0  0  0  0  0  0  0  0
    8.4251  -19.0057   22.6803 O   0  0  0  0  0  0  0  0  0  0  0  0
    8.0496  -14.2000   20.1652 C   0  0  0  0  0  0  0  0  0  0  0  0
    7.8654  -13.8580   21.6754 C   0  0  1  0  0  0  0  0  0  0  0  0
    7.0202  -12.6209   21.6703 C   0  0  0  0  0  0  0  0  0  0  0  0
    7.2595  -15.0661   22.2706 C   0  0  0  0  0  0  0  0  0  0  0  0
    8.0576  -16.3139   22.4294 C   0  0  2  0  0  0  0  0  0  0  0  0
    7.0821  -17.2169   23.1462 N   0  0  0  0  0  0  0  0  0  0  0  0
    9.2217  -16.2082   23.3016 C   0  0  0  0  0  0  0  0  0  0  0  0
   10.3242  -15.8447   22.7561 O   0  0  0  0  0  0  0  0  0  0  0  0
    9.2871  -16.4482   24.6958 N   0  0  0  0  0  0  0  0  0  0  0  0
   10.5114  -16.1990   25.3921 C   0  0  1  0  0  0  0  0  0  0  0  0
   10.7251  -14.6797   25.3383 C   0  0  0  0  0  0  0  0  0  0  0  0
    9.6634  -14.0002   26.1027 C   0  0  0  0  0  0  0  0  0  0  0  0
    8.3858  -13.8160   25.6168 C   0  0  0  0  0  0  0  0  0  0  0  0
    7.4495  -13.1696   26.3954 C   0  0  0  0  0  0  0  0  0  0  0  0
    7.7649  -12.7033   27.6507 C   0  0  0  0  0  0  0  0  0  0  0  0
    9.0395  -12.8909   28.1268 C   0  0  0  0  0  0  0  0  0  0  0  0
    9.9881  -13.5336   27.3650 C   0  0  0  0  0  0  0  0  0  0  0  0
   10.5134  -16.6438   26.7884 C   0  0  0  0  0  0  0  0  0  0  0  0
    9.4892  -17.3375   27.3955 O   0  0  0  0  0  0  0  0  0  0  0  0
   11.5148  -16.3915   27.5317 O   0  0  0  0  0  0  0  0  0  0  0  0
  2  1  1  0
  3  2  1  0
  3  4  1  1
  5  6  1  6
  5  3  1  0
  7  5  1  0
  8  7  2  0
 10  9  1  6
 10 12  1  0
 11 10  1  0
 13 12  1  1
 13 14  1  0
 14  7  1  0
 15 13  1  0
 15 17  1  0
 16 15  2  0
 18 26  1  0
 18 19  1  1
 18 17  1  0
 20 19  1  0
 20 25  2  0
 21 20  1  0
 22 21  2  0
 22 23  1  0
 23 24  2  0
 24 25  1  0
 26 27  1  0
 28 26  2  0
M  END
$$$$
