ILF.pdb
     RDKit          3D

 28 28  0  0  1  0  0  0  0  0999 V2000
    9.3659  -19.1026   17.4808 C   0  0  0  0  0  0  0  0  0  0  0  0
    8.4238  -18.7325   18.5806 C   0  0  0  0  0  0  0  0  0  0  0  0
    9.1087  -18.0693   19.7471 C   0  0  2  0  0  0  0  0  0  0  0  0
    8.8288  -18.9557   20.9488 C   0  0  0  0  0  0  0  0  0  0  0  0
    8.5926  -16.6917   19.9155 C   0  0  2  0  0  0  0  0  0  0  0  0
    8.8389  -15.9013   18.7371 N   0  0  0  0  0  0  0  0  0  0  0  0
    9.0990  -16.0031   21.1284 C   0  0  0  0  0  0  0  0  0  0  0  0
   10.2795  -15.6000   21.2413 O   0  0  0  0  0  0  0  0  0  0  0  0
    8.1629  -12.6119   25.1193 C   0  0  0  0  0  0  0  0  0  0  0  0
    7.5520  -14.0123   25.4316 C   0  0  1  0  0  0  0  0  0  0  0  0
    6.2363  -13.7020   26.0776 C   0  0  0  0  0  0  0  0  0  0  0  0
    7.4979  -14.7057   24.1288 C   0  0  0  0  0  0  0  0  0  0  0  0
    8.7500  -15.1486   23.4541 C   0  0  2  0  0  0  0  0  0  0  0  0
    8.2140  -15.7943   22.1985 N   0  0  0  0  0  0  0  0  0  0  0  0
    9.5043  -16.1862   24.1482 C   0  0  0  0  0  0  0  0  0  0  0  0
   10.4143  -16.7899   23.4755 O   0  0  0  0  0  0  0  0  0  0  0  0
    9.3650  -16.6091   25.4925 N   0  0  0  0  0  0  0  0  0  0  0  0
   10.4280  -17.3404   26.1097 C   0  0  1  0  0  0  0  0  0  0  0  0
   11.4701  -16.2948   26.5309 C   0  0  0  0  0  0  0  0  0  0  0  0
   10.8738  -15.3614   27.5036 C   0  0  0  0  0  0  0  0  0  0  0  0
   10.5131  -14.0691   27.1838 C   0  0  0  0  0  0  0  0  0  0  0  0
    9.9607  -13.2585   28.1525 C   0  0  0  0  0  0  0  0  0  0  0  0
    9.7615  -13.7140   29.4353 C   0  0  0  0  0  0  0  0  0  0  0  0
   10.1235  -15.0020   29.7453 C   0  0  0  0  0  0  0  0  0  0  0  0
   10.6763  -15.8266   28.7925 C   0  0  0  0  0  0  0  0  0  0  0  0
   10.0220  -18.1247   27.2792 C   0  0  0  0  0  0  0  0  0  0  0  0
   10.8689  -18.9022   28.0387 O   0  0  0  0  0  0  0  0  0  0  0  0
    8.8067  -18.1163   27.6561 O   0  0  0  0  0  0  0  0  0  0  0  0
  2  1  1  0
  3  2  1  0
  3  4  1  1
  5  6  1  6
  5  3  1  0
  7  5  1  0
  8  7  2  0
 10  9  1  6
 10 12  1  0
 11 10  1  0
 13 12  1  1
 13 14  1  0
 14  7  1  0
 15 13  1  0
 15 17  1  0
 16 15  2  0
 18 26  1  0
 18 19  1  1
 18 17  1  0
 20 19  1  0
 20 25  2  0
 21 20  1  0
 22 21  2  0
 22 23  1  0
 23 24  2  0
 24 25  1  0
 26 27  1  0
 28 26  2  0
M  END
$$$$
