TML.pdb
     RDKit          3D

 24 23  0  0  1  0  0  0  0  0999 V2000
   20.1097   -9.8281  -19.0084 C   0  0  0  0  0  0  0  0  0  0  0  0
   19.5722  -11.1525  -18.5622 C   0  0  1  0  0  0  0  0  0  0  0  0
   18.6763  -11.6678  -19.4875 O   0  0  0  0  0  0  0  0  0  0  0  0
   20.7158  -12.1317  -18.2873 C   0  0  2  0  0  0  0  0  0  0  0  0
   20.1571  -13.4056  -17.8563 N   0  0  0  0  0  0  0  0  0  0  0  0
   21.4826  -11.5612  -17.1512 C   0  0  0  0  0  0  0  0  0  0  0  0
   21.0130  -11.6269  -15.9862 O   0  0  0  0  0  0  0  0  0  0  0  0
   27.4715  -12.5271  -15.0668 C   0  0  0  0  0  0  0  0  0  0  0  0
   27.4809  -10.7377  -15.3832 S   0  0  0  0  0  0  0  0  0  0  0  0
   25.7875  -10.0539  -15.2798 C   0  0  0  0  0  0  0  0  0  0  0  0
   24.8775  -10.6880  -16.2553 C   0  0  0  0  0  0  0  0  0  0  0  0
   23.4430  -10.2711  -16.2187 C   0  0  2  0  0  0  0  0  0  0  0  0
   22.7270  -10.9418  -17.3164 N   0  0  0  0  0  0  0  0  0  0  0  0
   23.2185   -8.8150  -16.3992 C   0  0  0  0  0  0  0  0  0  0  0  0
   23.4002   -8.3022  -17.5636 O   0  0  0  0  0  0  0  0  0  0  0  0
   21.5752   -4.5511  -17.8172 C   0  0  0  0  0  0  0  0  0  0  0  0
   20.7457   -5.0238  -16.6410 C   0  0  1  0  0  0  0  0  0  0  0  0
   19.2511   -4.9245  -16.9914 C   0  0  0  0  0  0  0  0  0  0  0  0
   21.1177   -6.4428  -16.3296 C   0  0  0  0  0  0  0  0  0  0  0  0
   22.4720   -6.5254  -15.7208 C   0  0  2  0  0  0  0  0  0  0  0  0
   22.8134   -7.9151  -15.4006 N   0  0  0  0  0  0  0  0  0  0  0  0
   22.5599   -5.7185  -14.4981 C   0  0  0  0  0  0  0  0  0  0  0  0
   22.5288   -6.1694  -13.3428 O   0  0  0  0  0  0  0  0  0  0  0  0
   22.6914   -4.3143  -14.5849 O   0  0  0  0  0  0  0  0  0  0  0  0
  2  1  1  6
  3  2  1  0
  4  2  1  0
  4  5  1  1
  6  4  1  0
  7  6  2  0
  8  9  1  0
  9 10  1  0
 11 10  1  0
 12 11  1  6
 12 13  1  0
 13  6  1  0
 14 12  1  0
 14 15  2  0
 17 16  1  6
 17 18  1  0
 20 19  1  1
 19 17  1  0
 20 21  1  0
 21 14  1  0
 22 20  1  0
 23 22  2  0
 24 22  1  0
M  END
$$$$
