TML.pdb
     RDKit          3D

 24 23  0  0  1  0  0  0  0  0999 V2000
   23.3694  -19.0648  -13.5638 C   0  0  0  0  0  0  0  0  0  0  0  0
   23.9630  -19.9389  -12.5028 C   0  0  1  0  0  0  0  0  0  0  0  0
   22.9829  -20.6736  -11.8519 O   0  0  0  0  0  0  0  0  0  0  0  0
   25.0406  -20.8488  -13.0969 C   0  0  2  0  0  0  0  0  0  0  0  0
   24.3984  -21.9142  -13.8539 N   0  0  0  0  0  0  0  0  0  0  0  0
   25.7407  -21.4664  -11.9424 C   0  0  0  0  0  0  0  0  0  0  0  0
   25.3476  -22.5742  -11.4946 O   0  0  0  0  0  0  0  0  0  0  0  0
   31.7923  -21.5488  -11.7557 C   0  0  0  0  0  0  0  0  0  0  0  0
   31.6754  -21.9080   -9.9782 S   0  0  0  0  0  0  0  0  0  0  0  0
   29.9267  -21.9776   -9.4462 C   0  0  0  0  0  0  0  0  0  0  0  0
   29.0066  -21.5630  -10.5248 C   0  0  0  0  0  0  0  0  0  0  0  0
   27.5539  -21.4778  -10.1848 C   0  0  2  0  0  0  0  0  0  0  0  0
   26.8383  -20.8647  -11.3159 N   0  0  0  0  0  0  0  0  0  0  0  0
   27.2463  -20.6473   -8.9937 C   0  0  0  0  0  0  0  0  0  0  0  0
   27.0085  -19.3951   -9.1592 O   0  0  0  0  0  0  0  0  0  0  0  0
   26.6920  -19.7279   -3.4000 C   0  0  0  0  0  0  0  0  0  0  0  0
   27.9753  -19.9902   -4.1613 C   0  0  1  0  0  0  0  0  0  0  0  0
   29.0195  -20.6058   -3.2143 C   0  0  0  0  0  0  0  0  0  0  0  0
   27.6791  -20.9265   -5.2947 C   0  0  0  0  0  0  0  0  0  0  0  0
   27.3435  -20.1819   -6.5374 C   0  0  2  0  0  0  0  0  0  0  0  0
   27.1834  -21.1028   -7.6672 N   0  0  0  0  0  0  0  0  0  0  0  0
   28.3797  -19.1966   -6.8680 C   0  0  0  0  0  0  0  0  0  0  0  0
   29.4496  -19.4525   -7.4412 O   0  0  0  0  0  0  0  0  0  0  0  0
   28.1963  -17.8367   -6.5307 O   0  0  0  0  0  0  0  0  0  0  0  0
  2  1  1  6
  3  2  1  0
  4  2  1  0
  4  5  1  6
  6  4  1  0
  7  6  2  0
  8  9  1  0
  9 10  1  0
 11 10  1  0
 12 11  1  6
 12 13  1  0
 13  6  1  0
 14 12  1  0
 14 15  2  0
 17 16  1  1
 17 18  1  0
 20 19  1  1
 19 17  1  0
 20 21  1  0
 21 14  1  0
 22 20  1  0
 23 22  2  0
 24 22  1  0
M  END
$$$$
