TML.pdb
     RDKit          3D

 24 23  0  0  1  0  0  0  0  0999 V2000
   19.2165  -10.0231  -20.7847 C   0  0  0  0  0  0  0  0  0  0  0  0
   19.4195   -9.5859  -19.3671 C   0  0  1  0  0  0  0  0  0  0  0  0
   18.2067   -9.3557  -18.7344 O   0  0  0  0  0  0  0  0  0  0  0  0
   20.2616  -10.6109  -18.6039 C   0  0  2  0  0  0  0  0  0  0  0  0
   19.4935  -11.8388  -18.4530 N   0  0  0  0  0  0  0  0  0  0  0  0
   20.4801  -10.0394  -17.2511 C   0  0  0  0  0  0  0  0  0  0  0  0
   19.7291  -10.3801  -16.3013 O   0  0  0  0  0  0  0  0  0  0  0  0
   26.1689  -10.3446  -14.5427 C   0  0  0  0  0  0  0  0  0  0  0  0
   24.7511  -11.2455  -15.2359 S   0  0  0  0  0  0  0  0  0  0  0  0
   23.1771  -10.4695  -14.7200 C   0  0  0  0  0  0  0  0  0  0  0  0
   23.0871   -9.0624  -15.1602 C   0  0  0  0  0  0  0  0  0  0  0  0
   21.7530   -8.5803  -15.6301 C   0  0  2  0  0  0  0  0  0  0  0  0
   21.5010   -9.1222  -16.9756 N   0  0  0  0  0  0  0  0  0  0  0  0
   21.6344   -7.1050  -15.7428 C   0  0  0  0  0  0  0  0  0  0  0  0
   22.0684   -6.5305  -16.8075 O   0  0  0  0  0  0  0  0  0  0  0  0
   17.4183   -4.1424  -15.4387 C   0  0  0  0  0  0  0  0  0  0  0  0
   18.8050   -4.6324  -15.8023 C   0  0  1  0  0  0  0  0  0  0  0  0
   19.2208   -4.0412  -17.1602 C   0  0  0  0  0  0  0  0  0  0  0  0
   19.7623   -4.2058  -14.7297 C   0  0  0  0  0  0  0  0  0  0  0  0
   21.1119   -4.7919  -14.9453 C   0  0  2  0  0  0  0  0  0  0  0  0
   21.0778   -6.2485  -14.7797 N   0  0  0  0  0  0  0  0  0  0  0  0
   22.0958   -4.2285  -14.0134 C   0  0  0  0  0  0  0  0  0  0  0  0
   22.6188   -4.8433  -13.0715 O   0  0  0  0  0  0  0  0  0  0  0  0
   22.5161   -2.8868  -14.1540 O   0  0  0  0  0  0  0  0  0  0  0  0
  2  1  1  6
  3  2  1  0
  4  2  1  0
  4  5  1  1
  6  4  1  0
  7  6  2  0
  8  9  1  0
  9 10  1  0
 11 10  1  0
 12 11  1  6
 12 13  1  0
 13  6  1  0
 14 12  1  0
 14 15  2  0
 17 16  1  1
 17 18  1  0
 20 19  1  1
 19 17  1  0
 20 21  1  0
 21 14  1  0
 22 20  1  0
 23 22  2  0
 24 22  1  0
M  END
$$$$
