TML.pdb
     RDKit          3D

 24 23  0  0  1  0  0  0  0  0999 V2000
   26.7846  -18.3204  -11.2886 C   0  0  0  0  0  0  0  0  0  0  0  0
   25.6141  -19.2530  -11.3354 C   0  0  1  0  0  0  0  0  0  0  0  0
   24.5879  -18.7317  -12.1095 O   0  0  0  0  0  0  0  0  0  0  0  0
   26.0462  -20.6329  -11.8370 C   0  0  2  0  0  0  0  0  0  0  0  0
   24.8647  -21.4660  -12.0121 N   0  0  0  0  0  0  0  0  0  0  0  0
   26.8677  -21.2270  -10.7524 C   0  0  0  0  0  0  0  0  0  0  0  0
   26.3033  -21.7932   -9.7813 O   0  0  0  0  0  0  0  0  0  0  0  0
   34.3577  -23.3384   -8.9339 C   0  0  0  0  0  0  0  0  0  0  0  0
   33.1549  -22.6104  -10.0852 S   0  0  0  0  0  0  0  0  0  0  0  0
   31.4772  -22.6156   -9.3564 C   0  0  0  0  0  0  0  0  0  0  0  0
   30.4900  -21.9672  -10.2434 C   0  0  0  0  0  0  0  0  0  0  0  0
   29.0935  -21.8374   -9.7276 C   0  0  2  0  0  0  0  0  0  0  0  0
   28.2669  -21.1872  -10.7578 N   0  0  0  0  0  0  0  0  0  0  0  0
   28.9626  -21.0113   -8.5014 C   0  0  0  0  0  0  0  0  0  0  0  0
   29.0114  -19.7317   -8.6113 O   0  0  0  0  0  0  0  0  0  0  0  0
   26.4361  -18.0226   -5.3482 C   0  0  0  0  0  0  0  0  0  0  0  0
   27.6847  -18.6180   -5.9660 C   0  0  1  0  0  0  0  0  0  0  0  0
   28.9137  -17.7997   -5.5343 C   0  0  0  0  0  0  0  0  0  0  0  0
   27.8156  -20.0405   -5.5097 C   0  0  0  0  0  0  0  0  0  0  0  0
   29.0644  -20.6611   -6.0262 C   0  0  2  0  0  0  0  0  0  0  0  0
   28.7825  -21.4980   -7.1969 N   0  0  0  0  0  0  0  0  0  0  0  0
   29.7194  -21.4809   -5.0002 C   0  0  0  0  0  0  0  0  0  0  0  0
   29.9497  -22.6959   -5.0985 O   0  0  0  0  0  0  0  0  0  0  0  0
   30.1411  -20.8921   -3.7869 O   0  0  0  0  0  0  0  0  0  0  0  0
  2  1  1  6
  3  2  1  0
  4  2  1  0
  4  5  1  1
  6  4  1  0
  7  6  2  0
  8  9  1  0
  9 10  1  0
 11 10  1  0
 12 11  1  6
 12 13  1  0
 13  6  1  0
 14 12  1  0
 14 15  2  0
 17 16  1  1
 17 18  1  0
 20 19  1  1
 19 17  1  0
 20 21  1  0
 21 14  1  0
 22 20  1  0
 23 22  2  0
 24 22  1  0
M  END
$$$$
