TML.pdb
     RDKit          3D

 24 23  0  0  1  0  0  0  0  0999 V2000
   28.5899  -18.3487  -16.0438 C   0  0  0  0  0  0  0  0  0  0  0  0
   27.5644  -19.1410  -15.2936 C   0  0  1  0  0  0  0  0  0  0  0  0
   26.4870  -19.4634  -16.1056 O   0  0  0  0  0  0  0  0  0  0  0  0
   28.1956  -20.3931  -14.6804 C   0  0  2  0  0  0  0  0  0  0  0  0
   28.4217  -21.3747  -15.7319 N   0  0  0  0  0  0  0  0  0  0  0  0
   27.1844  -20.9488  -13.7460 C   0  0  0  0  0  0  0  0  0  0  0  0
   26.4537  -21.9043  -14.1140 O   0  0  0  0  0  0  0  0  0  0  0  0
   27.6455  -20.0178   -7.3415 C   0  0  0  0  0  0  0  0  0  0  0  0
   25.8391  -20.1792   -7.4557 S   0  0  0  0  0  0  0  0  0  0  0  0
   25.3538  -20.8840   -9.0724 C   0  0  0  0  0  0  0  0  0  0  0  0
   26.2832  -20.4836  -10.1484 C   0  0  0  0  0  0  0  0  0  0  0  0
   25.9783  -20.9715  -11.5275 C   0  0  2  0  0  0  0  0  0  0  0  0
   27.0011  -20.4520  -12.4503 N   0  0  0  0  0  0  0  0  0  0  0  0
   24.6665  -20.5291  -12.0629 C   0  0  0  0  0  0  0  0  0  0  0  0
   24.5212  -19.2975  -12.4002 O   0  0  0  0  0  0  0  0  0  0  0  0
   22.5482  -22.1446  -16.2384 C   0  0  0  0  0  0  0  0  0  0  0  0
   22.8252  -21.1815  -15.1022 C   0  0  1  0  0  0  0  0  0  0  0  0
   22.6789  -19.7353  -15.6053 C   0  0  0  0  0  0  0  0  0  0  0  0
   21.8513  -21.4521  -13.9944 C   0  0  0  0  0  0  0  0  0  0  0  0
   22.2695  -20.7861  -12.7323 C   0  0  2  0  0  0  0  0  0  0  0  0
   23.5367  -21.3420  -12.2471 N   0  0  0  0  0  0  0  0  0  0  0  0
   21.2516  -20.9341  -11.6855 C   0  0  0  0  0  0  0  0  0  0  0  0
   21.3893  -21.5969  -10.6460 O   0  0  0  0  0  0  0  0  0  0  0  0
   19.9994  -20.2934  -11.8206 O   0  0  0  0  0  0  0  0  0  0  0  0
  2  1  1  6
  3  2  1  0
  4  2  1  0
  4  5  1  6
  6  4  1  0
  7  6  2  0
  8  9  1  0
  9 10  1  0
 11 10  1  0
 12 11  1  1
 12 13  1  0
 13  6  1  0
 14 12  1  0
 14 15  2  0
 17 16  1  6
 17 18  1  0
 20 19  1  6
 19 17  1  0
 20 21  1  0
 21 14  1  0
 22 20  1  0
 23 22  2  0
 24 22  1  0
M  END
$$$$
