TML.pdb
     RDKit          3D

 24 23  0  0  1  0  0  0  0  0999 V2000
   20.0232  -12.6474  -21.9722 C   0  0  0  0  0  0  0  0  0  0  0  0
   20.2202  -11.9063  -20.6860 C   0  0  1  0  0  0  0  0  0  0  0  0
   19.0071  -11.4967  -20.1522 O   0  0  0  0  0  0  0  0  0  0  0  0
   21.0090  -12.7592  -19.6897 C   0  0  2  0  0  0  0  0  0  0  0  0
   20.1974  -13.9023  -19.2961 N   0  0  0  0  0  0  0  0  0  0  0  0
   21.2128  -11.9086  -18.4900 C   0  0  0  0  0  0  0  0  0  0  0  0
   20.5003  -12.0890  -17.4693 O   0  0  0  0  0  0  0  0  0  0  0  0
   26.4133  -10.8783  -14.6310 C   0  0  0  0  0  0  0  0  0  0  0  0
   26.1058   -9.3258  -15.5239 S   0  0  0  0  0  0  0  0  0  0  0  0
   24.3224   -9.1263  -15.8786 C   0  0  0  0  0  0  0  0  0  0  0  0
   23.8681  -10.0407  -16.9459 C   0  0  0  0  0  0  0  0  0  0  0  0
   22.4044  -10.0617  -17.2467 C   0  0  2  0  0  0  0  0  0  0  0  0
   22.1780  -10.8962  -18.4382 N   0  0  0  0  0  0  0  0  0  0  0  0
   21.8169   -8.7322  -17.5476 C   0  0  0  0  0  0  0  0  0  0  0  0
   22.0439   -8.2029  -18.6966 O   0  0  0  0  0  0  0  0  0  0  0  0
   18.7235   -4.7714  -18.5839 C   0  0  0  0  0  0  0  0  0  0  0  0
   18.6253   -5.0984  -17.1079 C   0  0  1  0  0  0  0  0  0  0  0  0
   17.1701   -4.9302  -16.6385 C   0  0  0  0  0  0  0  0  0  0  0  0
   19.0842   -6.5103  -16.8967 C   0  0  0  0  0  0  0  0  0  0  0  0
   20.5589   -6.6279  -17.0488 C   0  0  2  0  0  0  0  0  0  0  0  0
   21.0129   -7.9732  -16.6824 N   0  0  0  0  0  0  0  0  0  0  0  0
   21.2633   -5.6439  -16.2186 C   0  0  0  0  0  0  0  0  0  0  0  0
   21.5390   -4.4853  -16.5658 O   0  0  0  0  0  0  0  0  0  0  0  0
   21.6827   -5.9894  -14.9142 O   0  0  0  0  0  0  0  0  0  0  0  0
  2  1  1  6
  3  2  1  0
  4  2  1  0
  4  5  1  1
  6  4  1  0
  7  6  2  0
  8  9  1  0
  9 10  1  0
 11 10  1  0
 12 11  1  6
 12 13  1  0
 13  6  1  0
 14 12  1  0
 14 15  2  0
 17 16  1  6
 17 18  1  0
 20 19  1  1
 19 17  1  0
 20 21  1  0
 21 14  1  0
 22 20  1  0
 23 22  2  0
 24 22  1  0
M  END
$$$$
