TML.pdb
     RDKit          3D

 24 23  0  0  1  0  0  0  0  0999 V2000
   28.8332  -21.1740  -15.1504 C   0  0  0  0  0  0  0  0  0  0  0  0
   29.8176  -22.2516  -14.8157 C   0  0  1  0  0  0  0  0  0  0  0  0
   30.7138  -22.4529  -15.8551 O   0  0  0  0  0  0  0  0  0  0  0  0
   30.5433  -21.9290  -13.5074 C   0  0  2  0  0  0  0  0  0  0  0  0
   31.5664  -22.9378  -13.2705 N   0  0  0  0  0  0  0  0  0  0  0  0
   29.5265  -22.0479  -12.4321 C   0  0  0  0  0  0  0  0  0  0  0  0
   29.3639  -23.1492  -11.8465 O   0  0  0  0  0  0  0  0  0  0  0  0
   27.2566  -18.8622   -6.9817 C   0  0  0  0  0  0  0  0  0  0  0  0
   28.1655  -20.4223   -7.1870 S   0  0  0  0  0  0  0  0  0  0  0  0
   28.9309  -20.5112   -8.8460 C   0  0  0  0  0  0  0  0  0  0  0  0
   27.9932  -20.0925   -9.9077 C   0  0  0  0  0  0  0  0  0  0  0  0
   27.6953  -21.0861  -10.9834 C   0  0  2  0  0  0  0  0  0  0  0  0
   28.7246  -20.9734  -12.0300 N   0  0  0  0  0  0  0  0  0  0  0  0
   26.3876  -20.8921  -11.6582 C   0  0  0  0  0  0  0  0  0  0  0  0
   26.2322  -19.8689  -12.4203 O   0  0  0  0  0  0  0  0  0  0  0  0
   21.5935  -22.3978  -13.6417 C   0  0  0  0  0  0  0  0  0  0  0  0
   21.5702  -21.8869  -12.2157 C   0  0  1  0  0  0  0  0  0  0  0  0
   20.4200  -22.5587  -11.4464 C   0  0  0  0  0  0  0  0  0  0  0  0
   22.8868  -22.2021  -11.5705 C   0  0  0  0  0  0  0  0  0  0  0  0
   23.9821  -21.3771  -12.1460 C   0  0  2  0  0  0  0  0  0  0  0  0
   25.2720  -21.7374  -11.5488 N   0  0  0  0  0  0  0  0  0  0  0  0
   23.7418  -19.9449  -11.9346 C   0  0  0  0  0  0  0  0  0  0  0  0
   23.8238  -19.3619  -10.8427 O   0  0  0  0  0  0  0  0  0  0  0  0
   23.3870  -19.1186  -13.0246 O   0  0  0  0  0  0  0  0  0  0  0  0
  2  1  1  6
  3  2  1  0
  4  2  1  0
  4  5  1  1
  6  4  1  0
  7  6  2  0
  8  9  1  0
  9 10  1  0
 11 10  1  0
 12 11  1  1
 12 13  1  0
 13  6  1  0
 14 12  1  0
 14 15  2  0
 17 16  1  6
 17 18  1  0
 20 19  1  1
 19 17  1  0
 20 21  1  0
 21 14  1  0
 22 20  1  0
 23 22  2  0
 24 22  1  0
M  END
$$$$
