TML.pdb
     RDKit          3D

 24 23  0  0  1  0  0  0  0  0999 V2000
   20.2674  -10.8325  -19.9246 C   0  0  0  0  0  0  0  0  0  0  0  0
   19.9311  -12.1325  -19.2621 C   0  0  1  0  0  0  0  0  0  0  0  0
   19.4521  -13.0547  -20.1809 O   0  0  0  0  0  0  0  0  0  0  0  0
   21.1430  -12.6782  -18.5032 C   0  0  2  0  0  0  0  0  0  0  0  0
   20.7843  -13.9469  -17.8849 N   0  0  0  0  0  0  0  0  0  0  0  0
   21.4228  -11.7040  -17.4184 C   0  0  0  0  0  0  0  0  0  0  0  0
   20.6630  -11.6500  -16.4174 O   0  0  0  0  0  0  0  0  0  0  0  0
   27.2470   -9.0925  -16.2961 C   0  0  0  0  0  0  0  0  0  0  0  0
   26.7580  -10.5766  -15.3683 S   0  0  0  0  0  0  0  0  0  0  0  0
   24.9456  -10.8143  -15.4373 C   0  0  0  0  0  0  0  0  0  0  0  0
   24.2806   -9.7511  -16.2177 C   0  0  0  0  0  0  0  0  0  0  0  0
   22.7994   -9.8557  -16.3861 C   0  0  2  0  0  0  0  0  0  0  0  0
   22.5120  -10.8257  -17.4557 N   0  0  0  0  0  0  0  0  0  0  0  0
   22.1316   -8.5892  -16.7775 C   0  0  0  0  0  0  0  0  0  0  0  0
   22.3333   -8.1246  -17.9587 O   0  0  0  0  0  0  0  0  0  0  0  0
   18.9968   -5.2217  -18.6482 C   0  0  0  0  0  0  0  0  0  0  0  0
   18.6123   -5.4701  -17.2041 C   0  0  1  0  0  0  0  0  0  0  0  0
   17.0807   -5.5493  -17.0849 C   0  0  0  0  0  0  0  0  0  0  0  0
   19.2402   -6.7553  -16.7536 C   0  0  0  0  0  0  0  0  0  0  0  0
   20.6849   -6.5742  -16.4512 C   0  0  2  0  0  0  0  0  0  0  0  0
   21.2751   -7.8265  -15.9677 N   0  0  0  0  0  0  0  0  0  0  0  0
   20.8945   -5.5277  -15.4439 C   0  0  0  0  0  0  0  0  0  0  0  0
   20.6035   -4.3306  -15.5886 O   0  0  0  0  0  0  0  0  0  0  0  0
   21.4685   -5.8532  -14.1944 O   0  0  0  0  0  0  0  0  0  0  0  0
  2  1  1  6
  3  2  1  0
  4  2  1  0
  4  5  1  1
  6  4  1  0
  7  6  2  0
  8  9  1  0
  9 10  1  0
 11 10  1  0
 12 11  1  6
 12 13  1  0
 13  6  1  0
 14 12  1  0
 14 15  2  0
 17 16  1  6
 17 18  1  0
 20 19  1  1
 19 17  1  0
 20 21  1  0
 21 14  1  0
 22 20  1  0
 23 22  2  0
 24 22  1  0
M  END
$$$$
