TML.pdb
     RDKit          3D

 24 23  0  0  1  0  0  0  0  0999 V2000
   28.2783  -17.8978  -15.8666 C   0  0  0  0  0  0  0  0  0  0  0  0
   27.2918  -18.7893  -15.1780 C   0  0  1  0  0  0  0  0  0  0  0  0
   26.2240  -19.0928  -16.0098 O   0  0  0  0  0  0  0  0  0  0  0  0
   27.9791  -20.0576  -14.6667 C   0  0  2  0  0  0  0  0  0  0  0  0
   28.2723  -20.9276  -15.7970 N   0  0  0  0  0  0  0  0  0  0  0  0
   26.9851  -20.7463  -13.8055 C   0  0  0  0  0  0  0  0  0  0  0  0
   26.3673  -21.7497  -14.2458 O   0  0  0  0  0  0  0  0  0  0  0  0
   27.2092  -20.2534   -7.3588 C   0  0  0  0  0  0  0  0  0  0  0  0
   25.4208  -20.5255   -7.5314 S   0  0  0  0  0  0  0  0  0  0  0  0
   25.0182  -21.1331   -9.2092 C   0  0  0  0  0  0  0  0  0  0  0  0
   25.9228  -20.5677  -10.2308 C   0  0  0  0  0  0  0  0  0  0  0  0
   25.6961  -20.9865  -11.6473 C   0  0  2  0  0  0  0  0  0  0  0  0
   26.6961  -20.3257  -12.5021 N   0  0  0  0  0  0  0  0  0  0  0  0
   24.3667  -20.6179  -12.1948 C   0  0  0  0  0  0  0  0  0  0  0  0
   24.1195  -19.3796  -12.4341 O   0  0  0  0  0  0  0  0  0  0  0  0
   22.1945  -22.8292  -16.3636 C   0  0  0  0  0  0  0  0  0  0  0  0
   22.5721  -21.7901  -15.3279 C   0  0  1  0  0  0  0  0  0  0  0  0
   22.5121  -20.3884  -15.9586 C   0  0  0  0  0  0  0  0  0  0  0  0
   21.6155  -21.8885  -14.1772 C   0  0  0  0  0  0  0  0  0  0  0  0
   22.0488  -21.0344  -13.0395 C   0  0  2  0  0  0  0  0  0  0  0  0
   23.3226  -21.5090  -12.4897 N   0  0  0  0  0  0  0  0  0  0  0  0
   21.0442  -21.0168  -11.9698 C   0  0  0  0  0  0  0  0  0  0  0  0
   19.9772  -20.3851  -12.0044 O   0  0  0  0  0  0  0  0  0  0  0  0
   21.2576  -21.7591  -10.7865 O   0  0  0  0  0  0  0  0  0  0  0  0
  2  1  1  6
  3  2  1  0
  4  2  1  0
  4  5  1  6
  6  4  1  0
  7  6  2  0
  8  9  1  0
  9 10  1  0
 11 10  1  0
 12 11  1  1
 12 13  1  0
 13  6  1  0
 14 12  1  0
 14 15  2  0
 17 16  1  6
 17 18  1  0
 20 19  1  6
 19 17  1  0
 20 21  1  0
 21 14  1  0
 22 20  1  0
 23 22  2  0
 24 22  1  0
M  END
$$$$
