TML.pdb
     RDKit          3D

 24 23  0  0  1  0  0  0  0  0999 V2000
   16.2427  -10.8760  -16.6063 C   0  0  0  0  0  0  0  0  0  0  0  0
   16.5149  -11.8780  -15.5273 C   0  0  1  0  0  0  0  0  0  0  0  0
   16.9839  -13.0710  -16.0572 O   0  0  0  0  0  0  0  0  0  0  0  0
   17.4883  -11.3048  -14.4948 C   0  0  2  0  0  0  0  0  0  0  0  0
   17.7763  -12.3246  -13.4961 N   0  0  0  0  0  0  0  0  0  0  0  0
   16.7678  -10.1954  -13.8206 C   0  0  0  0  0  0  0  0  0  0  0  0
   16.3513   -9.2201  -14.4971 O   0  0  0  0  0  0  0  0  0  0  0  0
   11.7187   -8.4803   -8.0740 C   0  0  0  0  0  0  0  0  0  0  0  0
   12.6952   -9.6524   -9.0612 S   0  0  0  0  0  0  0  0  0  0  0  0
   13.9228   -8.7669  -10.0884 C   0  0  0  0  0  0  0  0  0  0  0  0
   14.7573   -9.6986  -10.8741 C   0  0  0  0  0  0  0  0  0  0  0  0
   15.7945   -9.0966  -11.7658 C   0  0  2  0  0  0  0  0  0  0  0  0
   16.5245  -10.1815  -12.4422 N   0  0  0  0  0  0  0  0  0  0  0  0
   16.8144   -8.2794  -11.0623 C   0  0  0  0  0  0  0  0  0  0  0  0
   17.5478   -8.8424  -10.1695 O   0  0  0  0  0  0  0  0  0  0  0  0
   21.0245   -6.1227  -12.7104 C   0  0  0  0  0  0  0  0  0  0  0  0
   19.9442   -6.7356  -11.8431 C   0  0  1  0  0  0  0  0  0  0  0  0
   20.5916   -7.5956  -10.7443 C   0  0  0  0  0  0  0  0  0  0  0  0
   19.1322   -5.6315  -11.2344 C   0  0  0  0  0  0  0  0  0  0  0  0
   18.0034   -6.1707  -10.4303 C   0  0  2  0  0  0  0  0  0  0  0  0
   17.0699   -6.9162  -11.2806 N   0  0  0  0  0  0  0  0  0  0  0  0
   17.2727   -5.0979   -9.7457 C   0  0  0  0  0  0  0  0  0  0  0  0
   16.1318   -4.7111  -10.0416 O   0  0  0  0  0  0  0  0  0  0  0  0
   17.8672   -4.4190   -8.6583 O   0  0  0  0  0  0  0  0  0  0  0  0
  2  1  1  6
  3  2  1  0
  4  2  1  0
  4  5  1  1
  6  4  1  0
  7  6  2  0
  8  9  1  0
  9 10  1  0
 11 10  1  0
 12 11  1  1
 12 13  1  0
 13  6  1  0
 14 12  1  0
 14 15  2  0
 17 16  1  6
 17 18  1  0
 20 19  1  6
 19 17  1  0
 20 21  1  0
 21 14  1  0
 22 20  1  0
 23 22  2  0
 24 22  1  0
M  END
$$$$
