AAA.pdb
     RDKit          3D

 16 15  0  0  1  0  0  0  0  0999 V2000
   18.0131  -11.9158  -17.2992 C   0  0  0  0  0  0  0  0  0  0  0  0
   18.7671  -10.6386  -17.5473 C   0  0  2  0  0  0  0  0  0  0  0  0
   19.8116  -10.9166  -18.5157 N   0  0  0  0  0  0  0  0  0  0  0  0
   19.3962  -10.0900  -16.3237 C   0  0  0  0  0  0  0  0  0  0  0  0
   18.7057   -9.7943  -15.3101 O   0  0  0  0  0  0  0  0  0  0  0  0
   22.8278   -9.7063  -14.9707 C   0  0  0  0  0  0  0  0  0  0  0  0
   21.3750   -9.2378  -15.0367 C   0  0  2  0  0  0  0  0  0  0  0  0
   20.7995   -9.8632  -16.2112 N   0  0  0  0  0  0  0  0  0  0  0  0
   21.2952   -7.7569  -15.1023 C   0  0  0  0  0  0  0  0  0  0  0  0
   21.6030   -7.1801  -16.1770 O   0  0  0  0  0  0  0  0  0  0  0  0
   19.5447   -4.9587  -13.5028 C   0  0  0  0  0  0  0  0  0  0  0  0
   20.8111   -5.4974  -14.0789 C   0  0  2  0  0  0  0  0  0  0  0  0
   20.8908   -6.9428  -14.0216 N   0  0  0  0  0  0  0  0  0  0  0  0
   21.9590   -4.8522  -13.3927 C   0  0  0  0  0  0  0  0  0  0  0  0
   22.3049   -3.6583  -13.5936 O   0  0  0  0  0  0  0  0  0  0  0  0
   22.6856   -5.5889  -12.4914 O   0  0  0  0  0  0  0  0  0  0  0  0
  2  1  1  1
  2  3  1  0
  4  8  1  0
  4  2  1  0
  5  4  2  0
  7  6  1  6
  7  8  1  0
  9  7  1  0
  9 13  1  0
 10  9  2  0
 12 13  1  0
 12 11  1  1
 14 12  1  0
 15 14  2  0
 16 14  1  0
M  END
$$$$
