AAA.pdb
     RDKit          3D

 16 15  0  0  1  0  0  0  0  0999 V2000
   26.4720  -12.7710  -21.2056 C   0  0  0  0  0  0  0  0  0  0  0  0
   26.1712  -13.4741  -19.9109 C   0  0  2  0  0  0  0  0  0  0  0  0
   24.8054  -13.9607  -19.9728 N   0  0  0  0  0  0  0  0  0  0  0  0
   26.3013  -12.5917  -18.7284 C   0  0  0  0  0  0  0  0  0  0  0  0
   25.5434  -11.5956  -18.5697 O   0  0  0  0  0  0  0  0  0  0  0  0
   27.8742  -12.8051  -15.4021 C   0  0  0  0  0  0  0  0  0  0  0  0
   27.3621  -11.9368  -16.5504 C   0  0  2  0  0  0  0  0  0  0  0  0
   27.2744  -12.8048  -17.7082 N   0  0  0  0  0  0  0  0  0  0  0  0
   28.2653  -10.7833  -16.7898 C   0  0  0  0  0  0  0  0  0  0  0  0
   28.2917   -9.8488  -15.9481 O   0  0  0  0  0  0  0  0  0  0  0  0
   31.1608   -9.8424  -18.9783 C   0  0  0  0  0  0  0  0  0  0  0  0
   29.9355   -9.5093  -18.1951 C   0  0  2  0  0  0  0  0  0  0  0  0
   29.1082  -10.6656  -17.9167 N   0  0  0  0  0  0  0  0  0  0  0  0
   29.1828   -8.4509  -18.9150 C   0  0  0  0  0  0  0  0  0  0  0  0
   28.0998   -8.6611  -19.5219 O   0  0  0  0  0  0  0  0  0  0  0  0
   29.6874   -7.1748  -18.9239 O   0  0  0  0  0  0  0  0  0  0  0  0
  2  1  1  6
  2  3  1  0
  4  8  1  0
  4  2  1  0
  5  4  2  0
  7  6  1  1
  7  8  1  0
  9  7  1  0
  9 13  1  0
 10  9  2  0
 12 13  1  0
 12 11  1  6
 14 12  1  0
 15 14  2  0
 16 14  1  0
M  END
$$$$
