AAA.pdb
     RDKit          3D

 16 15  0  0  1  0  0  0  0  0999 V2000
   23.5974  -12.3084  -13.4381 C   0  0  0  0  0  0  0  0  0  0  0  0
   23.7715  -12.2004  -14.9279 C   0  0  2  0  0  0  0  0  0  0  0  0
   22.6281  -11.4830  -15.4610 N   0  0  0  0  0  0  0  0  0  0  0  0
   23.8524  -13.5184  -15.5988 C   0  0  0  0  0  0  0  0  0  0  0  0
   22.8112  -14.1685  -15.8903 O   0  0  0  0  0  0  0  0  0  0  0  0
   26.5965  -15.6811  -16.9563 C   0  0  0  0  0  0  0  0  0  0  0  0
   25.1401  -15.4474  -16.5576 C   0  0  2  0  0  0  0  0  0  0  0  0
   25.0905  -14.1301  -15.9542 N   0  0  0  0  0  0  0  0  0  0  0  0
   24.6670  -16.5018  -15.6259 C   0  0  0  0  0  0  0  0  0  0  0  0
   25.1222  -16.5236  -14.4534 O   0  0  0  0  0  0  0  0  0  0  0  0
   21.8613  -18.9510  -15.3268 C   0  0  0  0  0  0  0  0  0  0  0  0
   23.2724  -18.5364  -15.0761 C   0  0  2  0  0  0  0  0  0  0  0  0
   23.7262  -17.4953  -15.9754 N   0  0  0  0  0  0  0  0  0  0  0  0
   24.1407  -19.7393  -15.1390 C   0  0  0  0  0  0  0  0  0  0  0  0
   24.9492  -19.9624  -16.0782 O   0  0  0  0  0  0  0  0  0  0  0  0
   24.0639  -20.6603  -14.1247 O   0  0  0  0  0  0  0  0  0  0  0  0
  2  1  1  1
  2  3  1  0
  4  8  1  0
  4  2  1  0
  5  4  2  0
  7  6  1  1
  7  8  1  0
  9  7  1  0
  9 13  1  0
 10  9  2  0
 12 13  1  0
 12 11  1  6
 14 12  1  0
 15 14  2  0
 16 14  1  0
M  END
$$$$
