AAA.pdb
     RDKit          3D

 16 15  0  0  1  0  0  0  0  0999 V2000
   15.7267  -12.9491  -13.5239 C   0  0  0  0  0  0  0  0  0  0  0  0
   15.7332  -12.9725  -15.0275 C   0  0  2  0  0  0  0  0  0  0  0  0
   15.8867  -14.3515  -15.4528 N   0  0  0  0  0  0  0  0  0  0  0  0
   16.8348  -12.1754  -15.6146 C   0  0  0  0  0  0  0  0  0  0  0  0
   17.9618  -12.6915  -15.8495 O   0  0  0  0  0  0  0  0  0  0  0  0
   17.1566   -8.8460  -17.2388 C   0  0  0  0  0  0  0  0  0  0  0  0
   17.7905  -10.0456  -16.5360 C   0  0  2  0  0  0  0  0  0  0  0  0
   16.6981  -10.7956  -15.9479 N   0  0  0  0  0  0  0  0  0  0  0  0
   18.7739   -9.6060  -15.5146 C   0  0  0  0  0  0  0  0  0  0  0  0
   18.3691   -9.3615  -14.3489 O   0  0  0  0  0  0  0  0  0  0  0  0
   22.5255   -9.1104  -15.2420 C   0  0  0  0  0  0  0  0  0  0  0  0
   21.1104   -8.9706  -14.7906 C   0  0  2  0  0  0  0  0  0  0  0  0
   20.1531   -9.4425  -15.7702 N   0  0  0  0  0  0  0  0  0  0  0  0
   20.8672   -7.5542  -14.4169 C   0  0  0  0  0  0  0  0  0  0  0  0
   20.3124   -6.7210  -15.1809 O   0  0  0  0  0  0  0  0  0  0  0  0
   21.2648   -7.1232  -13.1763 O   0  0  0  0  0  0  0  0  0  0  0  0
  2  1  1  1
  2  3  1  0
  4  8  1  0
  4  2  1  0
  5  4  2  0
  7  6  1  1
  7  8  1  0
  9  7  1  0
  9 13  1  0
 10  9  2  0
 12 13  1  0
 12 11  1  6
 14 12  1  0
 15 14  2  0
 16 14  1  0
M  END
$$$$
