AAA.pdb
     RDKit          3D

 16 15  0  0  1  0  0  0  0  0999 V2000
   19.6058  -18.5009   10.5993 C   0  0  0  0  0  0  0  0  0  0  0  0
   20.3592  -17.6752    9.5934 C   0  0  2  0  0  0  0  0  0  0  0  0
   19.8130  -17.9623    8.2799 N   0  0  0  0  0  0  0  0  0  0  0  0
   21.8105  -17.9700    9.5722 C   0  0  0  0  0  0  0  0  0  0  0  0
   22.2676  -18.9579    8.9344 O   0  0  0  0  0  0  0  0  0  0  0  0
   24.9320  -16.2183   10.5790 C   0  0  0  0  0  0  0  0  0  0  0  0
   24.1815  -17.5089   10.2537 C   0  0  2  0  0  0  0  0  0  0  0  0
   22.7716  -17.1712   10.2590 N   0  0  0  0  0  0  0  0  0  0  0  0
   24.5000  -18.5731   11.2385 C   0  0  0  0  0  0  0  0  0  0  0  0
   23.8199  -18.6453   12.2944 O   0  0  0  0  0  0  0  0  0  0  0  0
   26.8292  -21.5557   11.5089 C   0  0  0  0  0  0  0  0  0  0  0  0
   25.8658  -20.5449   12.0344 C   0  0  2  0  0  0  0  0  0  0  0  0
   25.5309  -19.5223   11.0643 N   0  0  0  0  0  0  0  0  0  0  0  0
   26.4196  -19.9629   13.2831 C   0  0  0  0  0  0  0  0  0  0  0  0
   26.6619  -20.6410   14.3162 O   0  0  0  0  0  0  0  0  0  0  0  0
   26.6837  -18.6169   13.3213 O   0  0  0  0  0  0  0  0  0  0  0  0
  2  1  1  1
  2  3  1  0
  4  8  1  0
  4  2  1  0
  5  4  2  0
  7  6  1  1
  7  8  1  0
  9  7  1  0
  9 13  1  0
 10  9  2  0
 12 13  1  0
 12 11  1  6
 14 12  1  0
 15 14  2  0
 16 14  1  0
M  END
$$$$
