AAA.pdb
     RDKit          3D

 16 15  0  0  1  0  0  0  0  0999 V2000
   18.2397  -12.7335  -18.8631 C   0  0  0  0  0  0  0  0  0  0  0  0
   18.8876  -13.2114  -17.5930 C   0  0  2  0  0  0  0  0  0  0  0  0
   18.1362  -14.3553  -17.1104 N   0  0  0  0  0  0  0  0  0  0  0  0
   18.9073  -12.1809  -16.5292 C   0  0  0  0  0  0  0  0  0  0  0  0
   17.8422  -11.7918  -15.9763 O   0  0  0  0  0  0  0  0  0  0  0  0
   21.5374  -10.4687  -14.5089 C   0  0  0  0  0  0  0  0  0  0  0  0
   20.0988  -10.5751  -15.0127 C   0  0  2  0  0  0  0  0  0  0  0  0
   20.1101  -11.5703  -16.0668 N   0  0  0  0  0  0  0  0  0  0  0  0
   19.6053   -9.2613  -15.4965 C   0  0  0  0  0  0  0  0  0  0  0  0
   19.9529   -8.8663  -16.6392 O   0  0  0  0  0  0  0  0  0  0  0  0
   16.9469   -6.7669  -14.6153 C   0  0  0  0  0  0  0  0  0  0  0  0
   18.2582   -7.1408  -15.2209 C   0  0  2  0  0  0  0  0  0  0  0  0
   18.7595   -8.4146  -14.7468 N   0  0  0  0  0  0  0  0  0  0  0  0
   19.2257   -6.0407  -14.9790 C   0  0  0  0  0  0  0  0  0  0  0  0
   20.2479   -6.1633  -14.2539 O   0  0  0  0  0  0  0  0  0  0  0  0
   19.0012   -4.8242  -15.5729 O   0  0  0  0  0  0  0  0  0  0  0  0
  2  1  1  6
  2  3  1  0
  4  8  1  0
  4  2  1  0
  5  4  2  0
  7  6  1  6
  7  8  1  0
  9  7  1  0
  9 13  1  0
 10  9  2  0
 12 13  1  0
 12 11  1  1
 14 12  1  0
 15 14  2  0
 16 14  1  0
M  END
$$$$
