AAA.pdb
     RDKit          3D

 16 15  0  0  1  0  0  0  0  0999 V2000
   18.7298  -26.5725   -9.8528 C   0  0  0  0  0  0  0  0  0  0  0  0
   18.0840  -25.2547   -9.5245 C   0  0  2  0  0  0  0  0  0  0  0  0
   18.8833  -24.2029  -10.1251 N   0  0  0  0  0  0  0  0  0  0  0  0
   17.9932  -25.0009   -8.0681 C   0  0  0  0  0  0  0  0  0  0  0  0
   18.9946  -24.6068   -7.4096 O   0  0  0  0  0  0  0  0  0  0  0  0
   15.2709  -24.5266   -5.6100 C   0  0  0  0  0  0  0  0  0  0  0  0
   16.7238  -24.8961   -5.9057 C   0  0  2  0  0  0  0  0  0  0  0  0
   16.7892  -25.1816   -7.3256 N   0  0  0  0  0  0  0  0  0  0  0  0
   17.1556  -26.0566   -5.0869 C   0  0  0  0  0  0  0  0  0  0  0  0
   16.9666  -27.2175   -5.5331 O   0  0  0  0  0  0  0  0  0  0  0  0
   18.9897  -26.6552   -1.8157 C   0  0  0  0  0  0  0  0  0  0  0  0
   18.2477  -27.0655   -3.0432 C   0  0  2  0  0  0  0  0  0  0  0  0
   17.7732  -25.9400   -3.8223 N   0  0  0  0  0  0  0  0  0  0  0  0
   17.1397  -27.9723   -2.6495 C   0  0  0  0  0  0  0  0  0  0  0  0
   15.9382  -27.6044   -2.5686 O   0  0  0  0  0  0  0  0  0  0  0  0
   17.4324  -29.2807   -2.3570 O   0  0  0  0  0  0  0  0  0  0  0  0
  2  1  1  1
  2  3  1  0
  4  8  1  0
  4  2  1  0
  5  4  2  0
  7  6  1  1
  7  8  1  0
  9  7  1  0
  9 13  1  0
 10  9  2  0
 12 13  1  0
 12 11  1  1
 14 12  1  0
 15 14  2  0
 16 14  1  0
M  END
$$$$
