AAA.pdb
     RDKit          3D

 16 15  0  0  1  0  0  0  0  0999 V2000
   19.9538  -12.9212  -18.2995 C   0  0  0  0  0  0  0  0  0  0  0  0
   20.6915  -12.1469  -17.2422 C   0  0  2  0  0  0  0  0  0  0  0  0
   20.2724  -12.6482  -15.9464 N   0  0  0  0  0  0  0  0  0  0  0  0
   20.4182  -10.6921  -17.2928 C   0  0  0  0  0  0  0  0  0  0  0  0
   20.8873   -9.9706  -18.2153 O   0  0  0  0  0  0  0  0  0  0  0  0
   18.0889   -8.2849  -15.7567 C   0  0  0  0  0  0  0  0  0  0  0  0
   19.4790   -8.5783  -16.3192 C   0  0  2  0  0  0  0  0  0  0  0  0
   19.6208  -10.0211  -16.3195 N   0  0  0  0  0  0  0  0  0  0  0  0
   20.5322   -7.9182  -15.5076 C   0  0  0  0  0  0  0  0  0  0  0  0
   20.9047   -8.4647  -14.4374 O   0  0  0  0  0  0  0  0  0  0  0  0
   23.0324   -5.1294  -15.9753 C   0  0  0  0  0  0  0  0  0  0  0  0
   22.2792   -6.1256  -15.1591 C   0  0  2  0  0  0  0  0  0  0  0  0
   21.1513   -6.7001  -15.8639 N   0  0  0  0  0  0  0  0  0  0  0  0
   21.8670   -5.4837  -13.8852 C   0  0  0  0  0  0  0  0  0  0  0  0
   20.6944   -5.0854  -13.6571 O   0  0  0  0  0  0  0  0  0  0  0  0
   22.8070   -5.3122  -12.9003 O   0  0  0  0  0  0  0  0  0  0  0  0
  2  1  1  6
  2  3  1  0
  4  8  1  0
  4  2  1  0
  5  4  2  0
  7  6  1  1
  7  8  1  0
  9  7  1  0
  9 13  1  0
 10  9  2  0
 12 13  1  0
 12 11  1  6
 14 12  1  0
 15 14  2  0
 16 14  1  0
M  END
$$$$
