AAA.pdb
     RDKit          3D

 16 15  0  0  1  0  0  0  0  0999 V2000
   26.0388  -35.8161  -11.3010 C   0  0  0  0  0  0  0  0  0  0  0  0
   25.9122  -34.3179  -11.3294 C   0  0  2  0  0  0  0  0  0  0  0  0
   26.7480  -33.8187  -12.4056 N   0  0  0  0  0  0  0  0  0  0  0  0
   26.3419  -33.6760  -10.0657 C   0  0  0  0  0  0  0  0  0  0  0  0
   27.5624  -33.4772   -9.8157 O   0  0  0  0  0  0  0  0  0  0  0  0
   24.6660  -32.0355   -7.1570 C   0  0  0  0  0  0  0  0  0  0  0  0
   25.8755  -32.7192   -7.7930 C   0  0  2  0  0  0  0  0  0  0  0  0
   25.4215  -33.2473   -9.0645 N   0  0  0  0  0  0  0  0  0  0  0  0
   26.4103  -33.7855   -6.9094 C   0  0  0  0  0  0  0  0  0  0  0  0
   25.9065  -34.9364   -6.9746 O   0  0  0  0  0  0  0  0  0  0  0  0
   29.1992  -34.2570   -4.3898 C   0  0  0  0  0  0  0  0  0  0  0  0
   27.8788  -34.5719   -5.0088 C   0  0  2  0  0  0  0  0  0  0  0  0
   27.4622  -33.5888   -5.9880 N   0  0  0  0  0  0  0  0  0  0  0  0
   26.8734  -34.7373   -3.9286 C   0  0  0  0  0  0  0  0  0  0  0  0
   25.9533  -33.9074   -3.7048 O   0  0  0  0  0  0  0  0  0  0  0  0
   26.9442  -35.8498   -3.1283 O   0  0  0  0  0  0  0  0  0  0  0  0
  2  1  1  1
  2  3  1  0
  4  8  1  0
  4  2  1  0
  5  4  2  0
  7  6  1  1
  7  8  1  0
  9  7  1  0
  9 13  1  0
 10  9  2  0
 12 13  1  0
 12 11  1  1
 14 12  1  0
 15 14  2  0
 16 14  1  0
M  END
$$$$
