AAA.pdb
     RDKit          3D

 16 15  0  0  1  0  0  0  0  0999 V2000
   15.9584  -10.1871  -17.4037 C   0  0  0  0  0  0  0  0  0  0  0  0
   17.0171   -9.1695  -17.7276 C   0  0  2  0  0  0  0  0  0  0  0  0
   17.9383   -9.7685  -18.6756 N   0  0  0  0  0  0  0  0  0  0  0  0
   17.7855   -8.7342  -16.5384 C   0  0  0  0  0  0  0  0  0  0  0  0
   17.2151   -8.1823  -15.5578 O   0  0  0  0  0  0  0  0  0  0  0  0
   21.0817   -9.4869  -15.0875 C   0  0  0  0  0  0  0  0  0  0  0  0
   19.9144   -8.5110  -15.2285 C   0  0  2  0  0  0  0  0  0  0  0  0
   19.1964   -8.9066  -16.4242 N   0  0  0  0  0  0  0  0  0  0  0  0
   20.3984   -7.1100  -15.3110 C   0  0  0  0  0  0  0  0  0  0  0  0
   20.9815   -6.7306  -16.3591 O   0  0  0  0  0  0  0  0  0  0  0  0
   19.8349   -3.8085  -13.7207 C   0  0  0  0  0  0  0  0  0  0  0  0
   20.7590   -4.8096  -14.3285 C   0  0  2  0  0  0  0  0  0  0  0  0
   20.2444   -6.1628  -14.2750 N   0  0  0  0  0  0  0  0  0  0  0  0
   22.0850   -4.6955  -13.6699 C   0  0  0  0  0  0  0  0  0  0  0  0
   22.5159   -5.5287  -12.8298 O   0  0  0  0  0  0  0  0  0  0  0  0
   22.8883   -3.6294  -13.9880 O   0  0  0  0  0  0  0  0  0  0  0  0
  2  1  1  1
  2  3  1  0
  4  8  1  0
  4  2  1  0
  5  4  2  0
  7  6  1  6
  7  8  1  0
  9  7  1  0
  9 13  1  0
 10  9  2  0
 12 13  1  0
 12 11  1  1
 14 12  1  0
 15 14  2  0
 16 14  1  0
M  END
$$$$
