AAA.pdb
     RDKit          3D

 16 15  0  0  1  0  0  0  0  0999 V2000
   18.8274  -11.4804  -18.4119 C   0  0  0  0  0  0  0  0  0  0  0  0
   19.9139  -10.4440  -18.3281 C   0  0  2  0  0  0  0  0  0  0  0  0
   21.1665  -11.0784  -18.6949 N   0  0  0  0  0  0  0  0  0  0  0  0
   20.0603   -9.8664  -16.9721 C   0  0  0  0  0  0  0  0  0  0  0  0
   19.0961   -9.2873  -16.4007 O   0  0  0  0  0  0  0  0  0  0  0  0
   22.6321   -9.9108  -14.2730 C   0  0  0  0  0  0  0  0  0  0  0  0
   21.4196   -9.2714  -14.9481 C   0  0  2  0  0  0  0  0  0  0  0  0
   21.2793   -9.9250  -16.2345 N   0  0  0  0  0  0  0  0  0  0  0  0
   21.5999   -7.8047  -15.0886 C   0  0  0  0  0  0  0  0  0  0  0  0
   22.3883   -7.3722  -15.9682 O   0  0  0  0  0  0  0  0  0  0  0  0
   19.8623   -4.6485  -14.1509 C   0  0  0  0  0  0  0  0  0  0  0  0
   21.1129   -5.4184  -14.4136 C   0  0  2  0  0  0  0  0  0  0  0  0
   20.9346   -6.8506  -14.2878 N   0  0  0  0  0  0  0  0  0  0  0  0
   22.1814   -4.9128  -13.5148 C   0  0  0  0  0  0  0  0  0  0  0  0
   22.5234   -5.4918  -12.4502 O   0  0  0  0  0  0  0  0  0  0  0  0
   22.8346   -3.7550  -13.8552 O   0  0  0  0  0  0  0  0  0  0  0  0
  2  1  1  1
  2  3  1  0
  4  8  1  0
  4  2  1  0
  5  4  2  0
  7  6  1  6
  7  8  1  0
  9  7  1  0
  9 13  1  0
 10  9  2  0
 12 13  1  0
 12 11  1  1
 14 12  1  0
 15 14  2  0
 16 14  1  0
M  END
$$$$
