AAA.pdb
     RDKit          3D

 16 15  0  0  1  0  0  0  0  0999 V2000
   27.0266  -11.1576  -15.5955 C   0  0  0  0  0  0  0  0  0  0  0  0
   25.8074  -11.7884  -16.2094 C   0  0  2  0  0  0  0  0  0  0  0  0
   26.2010  -12.3878  -17.4711 N   0  0  0  0  0  0  0  0  0  0  0  0
   24.7213  -10.8160  -16.4711 C   0  0  0  0  0  0  0  0  0  0  0  0
   24.7964   -9.9931  -17.4245 O   0  0  0  0  0  0  0  0  0  0  0  0
   21.2358  -10.3041  -15.2547 C   0  0  0  0  0  0  0  0  0  0  0  0
   22.4868   -9.7910  -15.9663 C   0  0  2  0  0  0  0  0  0  0  0  0
   23.5388  -10.7456  -15.6772 N   0  0  0  0  0  0  0  0  0  0  0  0
   22.8379   -8.4237  -15.5071 C   0  0  0  0  0  0  0  0  0  0  0  0
   23.5536   -8.2938  -14.4807 O   0  0  0  0  0  0  0  0  0  0  0  0
   22.3676   -4.8509  -16.6969 C   0  0  0  0  0  0  0  0  0  0  0  0
   22.7604   -5.9065  -15.7184 C   0  0  2  0  0  0  0  0  0  0  0  0
   22.4147   -7.2433  -16.1567 N   0  0  0  0  0  0  0  0  0  0  0  0
   22.1572   -5.5829  -14.4007 C   0  0  0  0  0  0  0  0  0  0  0  0
   21.0892   -6.1014  -13.9810 O   0  0  0  0  0  0  0  0  0  0  0  0
   22.7905   -4.6724  -13.5927 O   0  0  0  0  0  0  0  0  0  0  0  0
  2  1  1  6
  2  3  1  0
  4  8  1  0
  4  2  1  0
  5  4  2  0
  7  6  1  1
  7  8  1  0
  9  7  1  0
  9 13  1  0
 10  9  2  0
 12 13  1  0
 12 11  1  6
 14 12  1  0
 15 14  2  0
 16 14  1  0
M  END
$$$$
