AAA.pdb
     RDKit          3D

 16 15  0  0  1  0  0  0  0  0999 V2000
   19.7947  -10.5763  -20.6419 C   0  0  0  0  0  0  0  0  0  0  0  0
   20.1292  -10.4480  -19.1814 C   0  0  2  0  0  0  0  0  0  0  0  0
   19.0257  -11.0027  -18.4193 N   0  0  0  0  0  0  0  0  0  0  0  0
   20.3347   -9.0445  -18.7551 C   0  0  0  0  0  0  0  0  0  0  0  0
   21.3049   -8.3650  -19.1892 O   0  0  0  0  0  0  0  0  0  0  0  0
   18.1944   -6.4761  -17.1770 C   0  0  0  0  0  0  0  0  0  0  0  0
   19.5883   -6.9593  -17.5749 C   0  0  2  0  0  0  0  0  0  0  0  0
   19.4652   -8.3789  -17.8416 N   0  0  0  0  0  0  0  0  0  0  0  0
   20.5751   -6.6808  -16.5015 C   0  0  0  0  0  0  0  0  0  0  0  0
   20.6403   -7.4644  -15.5195 O   0  0  0  0  0  0  0  0  0  0  0  0
   23.5563   -4.4201  -15.9904 C   0  0  0  0  0  0  0  0  0  0  0  0
   22.4947   -5.3590  -15.5242 C   0  0  2  0  0  0  0  0  0  0  0  0
   21.4576   -5.5783  -16.5116 N   0  0  0  0  0  0  0  0  0  0  0  0
   21.9406   -4.8533  -14.2427 C   0  0  0  0  0  0  0  0  0  0  0  0
   20.7919   -4.3490  -14.1350 O   0  0  0  0  0  0  0  0  0  0  0  0
   22.7147   -4.9363  -13.1127 O   0  0  0  0  0  0  0  0  0  0  0  0
  2  1  1  6
  2  3  1  0
  4  8  1  0
  4  2  1  0
  5  4  2  0
  7  6  1  1
  7  8  1  0
  9  7  1  0
  9 13  1  0
 10  9  2  0
 12 13  1  0
 12 11  1  6
 14 12  1  0
 15 14  2  0
 16 14  1  0
M  END
$$$$
