HFR.pdb
     RDKit          3D

 33 34  0  0  1  0  0  0  0  0999 V2000
   10.2171  -12.8845   19.1743 N   0  0  0  0  0  0  0  0  0  0  0  0
    9.1043  -13.6678   19.6438 C   0  0  1  0  0  0  0  0  0  0  0  0
    9.0748  -14.9998   18.9348 C   0  0  0  0  0  0  0  0  0  0  0  0
    8.6886  -14.7621   17.5235 C   0  0  0  0  0  0  0  0  0  0  0  0
    8.2245  -13.5972   16.9551 C   0  0  0  0  0  0  0  0  0  0  0  0
    8.0011  -13.8309   15.6483 N   0  0  0  0  0  0  0  0  0  0  0  0
    8.3111  -15.1101   15.3773 C   0  0  0  0  0  0  0  0  0  0  0  0
    8.7304  -15.6683   16.5328 N   0  0  0  0  0  0  0  0  0  0  0  0
    9.1411  -13.8144   21.1200 C   0  0  0  0  0  0  0  0  0  0  0  0
   10.2259  -14.0339   21.7409 O   0  0  0  0  0  0  0  0  0  0  0  0
    8.0109  -13.7285   21.9548 N   0  0  0  0  0  0  0  0  0  0  0  0
    8.0051  -13.7931   23.3721 C   0  0  1  0  0  0  0  0  0  0  0  0
    6.8852  -13.1756   24.1019 C   0  0  0  0  0  0  0  0  0  0  0  0
    7.0332  -13.3184   25.5680 C   0  0  0  0  0  0  0  0  0  0  0  0
    6.4330  -14.3421   26.2720 C   0  0  0  0  0  0  0  0  0  0  0  0
    6.5471  -14.4939   27.6214 C   0  0  0  0  0  0  0  0  0  0  0  0
    7.2950  -13.5918   28.3504 C   0  0  0  0  0  0  0  0  0  0  0  0
    7.9116  -12.5538   27.6865 C   0  0  0  0  0  0  0  0  0  0  0  0
    7.7785  -12.4215   26.2996 C   0  0  0  0  0  0  0  0  0  0  0  0
    8.3367  -15.1822   23.7786 C   0  0  0  0  0  0  0  0  0  0  0  0
    7.6934  -16.1651   23.3275 O   0  0  0  0  0  0  0  0  0  0  0  0
   11.1388  -16.7133   19.3321 N   0  0  0  0  0  0  0  0  0  0  0  0
   12.4177  -16.4711   19.8929 C   0  0  0  0  0  0  0  0  0  0  0  0
   13.2747  -15.6480   19.4465 N   0  0  0  0  0  0  0  0  0  0  0  0
   12.8135  -17.2121   21.0716 N   0  0  0  0  0  0  0  0  0  0  0  0
   11.7253  -17.8670   21.8371 C   0  0  0  0  0  0  0  0  0  0  0  0
   11.3676  -17.0287   23.0210 C   0  0  0  0  0  0  0  0  0  0  0  0
   10.2618  -17.4961   23.8364 C   0  0  0  0  0  0  0  0  0  0  0  0
    9.7373  -16.8890   25.0617 C   0  0  2  0  0  0  0  0  0  0  0  0
    9.3836  -15.4592   24.6835 N   0  0  0  0  0  0  0  0  0  0  0  0
   10.5407  -16.7736   26.2640 C   0  0  0  0  0  0  0  0  0  0  0  0
   10.8839  -17.9283   26.9956 O   0  0  0  0  0  0  0  0  0  0  0  0
   10.9694  -15.7104   26.7245 O   0  0  0  0  0  0  0  0  0  0  0  0
  2  1  1  6
  2  3  1  0
  4  3  1  0
  5  4  2  0
  6  5  1  0
  7  6  1  0
  7  8  2  0
  8  4  1  0
  9  2  1  0
 10  9  2  0
 11  9  1  0
 12 13  1  6
 12 11  1  0
 13 14  1  0
 14 15  2  0
 15 16  1  0
 17 16  2  0
 18 17  1  0
 19 18  2  0
 19 14  1  0
 20 12  1  0
 21 20  2  0
 23 24  2  0
 23 22  1  0
 25 23  1  0
 26 25  1  0
 27 26  1  0
 28 27  1  0
 29 28  1  6
 29 30  1  0
 30 20  1  0
 31 29  1  0
 31 32  1  0
 33 31  2  0
M  END
$$$$
