HFR.pdb
     RDKit          3D

 33 34  0  0  1  0  0  0  0  0999 V2000
   10.4237  -16.5110   19.3789 N   0  0  0  0  0  0  0  0  0  0  0  0
    9.5269  -16.9613   20.4110 C   0  0  1  0  0  0  0  0  0  0  0  0
    9.9134  -18.3488   20.8616 C   0  0  0  0  0  0  0  0  0  0  0  0
    9.4869  -19.3086   19.8155 C   0  0  0  0  0  0  0  0  0  0  0  0
    8.2954  -19.3389   19.1264 C   0  0  0  0  0  0  0  0  0  0  0  0
    8.3353  -20.3768   18.2699 N   0  0  0  0  0  0  0  0  0  0  0  0
    9.5180  -21.0014   18.4002 C   0  0  0  0  0  0  0  0  0  0  0  0
   10.2129  -20.3377   19.3485 N   0  0  0  0  0  0  0  0  0  0  0  0
    9.4808  -15.9944   21.5358 C   0  0  0  0  0  0  0  0  0  0  0  0
   10.4969  -15.3114   21.8694 O   0  0  0  0  0  0  0  0  0  0  0  0
    8.3403  -15.7460   22.3227 N   0  0  0  0  0  0  0  0  0  0  0  0
    8.2392  -14.8119   23.3859 C   0  0  1  0  0  0  0  0  0  0  0  0
    6.9851  -14.0568   23.5446 C   0  0  0  0  0  0  0  0  0  0  0  0
    7.0134  -13.1795   24.7368 C   0  0  0  0  0  0  0  0  0  0  0  0
    6.4558  -13.5564   25.9414 C   0  0  0  0  0  0  0  0  0  0  0  0
    6.4621  -12.7669   27.0521 C   0  0  0  0  0  0  0  0  0  0  0  0
    7.0488  -11.5188   27.0009 C   0  0  0  0  0  0  0  0  0  0  0  0
    7.6177  -11.1028   25.8169 C   0  0  0  0  0  0  0  0  0  0  0  0
    7.5978  -11.9339   24.6910 C   0  0  0  0  0  0  0  0  0  0  0  0
    8.7533  -15.4529   24.6226 C   0  0  0  0  0  0  0  0  0  0  0  0
    8.7310  -14.8507   25.7272 O   0  0  0  0  0  0  0  0  0  0  0  0
   10.9313  -23.4728   23.5501 N   0  0  0  0  0  0  0  0  0  0  0  0
   11.3584  -22.3526   22.7942 C   0  0  0  0  0  0  0  0  0  0  0  0
   12.1417  -22.3919   21.7960 N   0  0  0  0  0  0  0  0  0  0  0  0
   10.8841  -21.0374   23.1685 N   0  0  0  0  0  0  0  0  0  0  0  0
    9.9001  -20.9801   24.2765 C   0  0  0  0  0  0  0  0  0  0  0  0
    9.4221  -19.5755   24.4531 C   0  0  0  0  0  0  0  0  0  0  0  0
   10.0166  -18.8200   25.5402 C   0  0  0  0  0  0  0  0  0  0  0  0
    9.7687  -17.4206   25.8947 C   0  0  2  0  0  0  0  0  0  0  0  0
    9.2857  -16.7598   24.6131 N   0  0  0  0  0  0  0  0  0  0  0  0
   10.8241  -16.5574   26.3898 C   0  0  0  0  0  0  0  0  0  0  0  0
   11.3263  -16.7358   27.6946 O   0  0  0  0  0  0  0  0  0  0  0  0
   11.3446  -15.6413   25.7449 O   0  0  0  0  0  0  0  0  0  0  0  0
  2  1  1  6
  2  3  1  0
  4  3  1  0
  5  4  2  0
  6  5  1  0
  7  6  1  0
  7  8  2  0
  8  4  1  0
  9  2  1  0
 10  9  2  0
 11  9  1  0
 12 13  1  1
 12 11  1  0
 13 14  1  0
 14 15  2  0
 15 16  1  0
 17 16  2  0
 18 17  1  0
 19 18  2  0
 19 14  1  0
 20 12  1  0
 21 20  2  0
 23 24  2  0
 23 22  1  0
 25 23  1  0
 26 25  1  0
 27 26  1  0
 28 27  1  0
 29 28  1  6
 29 30  1  0
 30 20  1  0
 31 29  1  0
 31 32  1  0
 33 31  2  0
M  END
$$$$
