HFR.pdb
     RDKit          3D

 33 34  0  0  1  0  0  0  0  0999 V2000
   10.9336  -15.9362   19.3033 N   0  0  0  0  0  0  0  0  0  0  0  0
    9.6367  -16.2170   19.8613 C   0  0  1  0  0  0  0  0  0  0  0  0
    9.3538  -17.6978   19.7906 C   0  0  0  0  0  0  0  0  0  0  0  0
    9.2644  -18.0822   18.3618 C   0  0  0  0  0  0  0  0  0  0  0  0
   10.0717  -18.9528   17.6649 C   0  0  0  0  0  0  0  0  0  0  0  0
    9.6288  -19.0065   16.3948 N   0  0  0  0  0  0  0  0  0  0  0  0
    8.5655  -18.1940   16.2716 C   0  0  0  0  0  0  0  0  0  0  0  0
    8.3531  -17.6350   17.4820 N   0  0  0  0  0  0  0  0  0  0  0  0
    9.5246  -15.6859   21.2424 C   0  0  0  0  0  0  0  0  0  0  0  0
   10.4496  -15.8484   22.0959 O   0  0  0  0  0  0  0  0  0  0  0  0
    8.4144  -14.9710   21.7303 N   0  0  0  0  0  0  0  0  0  0  0  0
    8.2648  -14.4390   23.0371 C   0  0  1  0  0  0  0  0  0  0  0  0
    7.2174  -13.4312   23.2728 C   0  0  0  0  0  0  0  0  0  0  0  0
    7.1672  -13.0049   24.6896 C   0  0  0  0  0  0  0  0  0  0  0  0
    6.2864  -13.5607   25.5947 C   0  0  0  0  0  0  0  0  0  0  0  0
    6.2144  -13.1833   26.9021 C   0  0  0  0  0  0  0  0  0  0  0  0
    7.0531  -12.1951   27.3760 C   0  0  0  0  0  0  0  0  0  0  0  0
    7.9486  -11.6131   26.5054 C   0  0  0  0  0  0  0  0  0  0  0  0
    8.0021  -12.0199   25.1673 C   0  0  0  0  0  0  0  0  0  0  0  0
    8.2909  -15.5637   24.0061 C   0  0  0  0  0  0  0  0  0  0  0  0
    7.4641  -16.5093   23.9304 O   0  0  0  0  0  0  0  0  0  0  0  0
   13.4224  -21.9574   25.6264 N   0  0  0  0  0  0  0  0  0  0  0  0
   12.5178  -22.0146   24.5367 C   0  0  0  0  0  0  0  0  0  0  0  0
   12.5388  -22.8771   23.6056 N   0  0  0  0  0  0  0  0  0  0  0  0
   11.4731  -21.0171   24.4452 N   0  0  0  0  0  0  0  0  0  0  0  0
   11.8091  -19.6604   24.9408 C   0  0  0  0  0  0  0  0  0  0  0  0
   10.6415  -19.0906   25.6787 C   0  0  0  0  0  0  0  0  0  0  0  0
   10.1365  -17.8143   25.2073 C   0  0  0  0  0  0  0  0  0  0  0  0
    9.3395  -16.8388   25.9544 C   0  0  2  0  0  0  0  0  0  0  0  0
    9.2403  -15.6213   25.0486 N   0  0  0  0  0  0  0  0  0  0  0  0
    9.7708  -16.3197   27.2384 C   0  0  0  0  0  0  0  0  0  0  0  0
   10.1766  -14.9749   27.3544 O   0  0  0  0  0  0  0  0  0  0  0  0
    9.8171  -16.9766   28.2836 O   0  0  0  0  0  0  0  0  0  0  0  0
  2  1  1  1
  2  3  1  0
  4  3  1  0
  5  4  2  0
  6  5  1  0
  7  6  1  0
  7  8  2  0
  8  4  1  0
  9  2  1  0
 10  9  2  0
 11  9  1  0
 12 13  1  6
 12 11  1  0
 13 14  1  0
 14 15  2  0
 15 16  1  0
 17 16  2  0
 18 17  1  0
 19 18  2  0
 19 14  1  0
 20 12  1  0
 21 20  2  0
 23 24  2  0
 23 22  1  0
 25 23  1  0
 26 25  1  0
 27 26  1  0
 28 27  1  0
 29 28  1  6
 29 30  1  0
 30 20  1  0
 31 29  1  0
 31 32  1  0
 33 31  2  0
M  END
$$$$
