HFR.pdb
     RDKit          3D

 33 34  0  0  1  0  0  0  0  0999 V2000
   10.1493  -16.3289   19.1133 N   0  0  0  0  0  0  0  0  0  0  0  0
    8.9080  -16.5005   19.8218 C   0  0  1  0  0  0  0  0  0  0  0  0
    8.5103  -17.9564   19.8216 C   0  0  0  0  0  0  0  0  0  0  0  0
    8.2068  -18.3509   18.4253 C   0  0  0  0  0  0  0  0  0  0  0  0
    9.0652  -18.8765   17.4861 C   0  0  0  0  0  0  0  0  0  0  0  0
    8.3667  -19.0884   16.3549 N   0  0  0  0  0  0  0  0  0  0  0  0
    7.0926  -18.7110   16.5549 C   0  0  0  0  0  0  0  0  0  0  0  0
    7.0083  -18.2621   17.8253 N   0  0  0  0  0  0  0  0  0  0  0  0
    8.9950  -15.9389   21.1927 C   0  0  0  0  0  0  0  0  0  0  0  0
    9.9255  -16.2688   21.9900 O   0  0  0  0  0  0  0  0  0  0  0  0
    8.0813  -15.0129   21.7306 N   0  0  0  0  0  0  0  0  0  0  0  0
    8.1145  -14.4606   23.0371 C   0  0  1  0  0  0  0  0  0  0  0  0
    7.1550  -13.3970   23.3779 C   0  0  0  0  0  0  0  0  0  0  0  0
    7.2633  -12.9864   24.7962 C   0  0  0  0  0  0  0  0  0  0  0  0
    6.2978  -13.3026   25.7298 C   0  0  0  0  0  0  0  0  0  0  0  0
    6.3689  -12.9325   27.0393 C   0  0  0  0  0  0  0  0  0  0  0  0
    7.4509  -12.2015   27.4858 C   0  0  0  0  0  0  0  0  0  0  0  0
    8.4385  -11.8641   26.5861 C   0  0  0  0  0  0  0  0  0  0  0  0
    8.3409  -12.2575   25.2466 C   0  0  0  0  0  0  0  0  0  0  0  0
    8.1978  -15.5753   24.0145 C   0  0  0  0  0  0  0  0  0  0  0  0
    7.3434  -16.4992   24.0246 O   0  0  0  0  0  0  0  0  0  0  0  0
   14.0889  -20.9363   23.8954 N   0  0  0  0  0  0  0  0  0  0  0  0
   13.3354  -21.6202   24.8821 C   0  0  0  0  0  0  0  0  0  0  0  0
   13.5595  -22.7994   25.2951 N   0  0  0  0  0  0  0  0  0  0  0  0
   12.2051  -20.9475   25.4861 N   0  0  0  0  0  0  0  0  0  0  0  0
   11.8631  -19.6110   24.9421 C   0  0  0  0  0  0  0  0  0  0  0  0
   10.5311  -19.1806   25.4646 C   0  0  0  0  0  0  0  0  0  0  0  0
   10.0641  -17.8707   25.0498 C   0  0  0  0  0  0  0  0  0  0  0  0
    9.3894  -16.8625   25.8704 C   0  0  2  0  0  0  0  0  0  0  0  0
    9.2344  -15.6474   24.9692 N   0  0  0  0  0  0  0  0  0  0  0  0
    9.9776  -16.3521   27.0942 C   0  0  0  0  0  0  0  0  0  0  0  0
   10.6555  -15.1164   27.0882 O   0  0  0  0  0  0  0  0  0  0  0  0
    9.9370  -16.9262   28.1874 O   0  0  0  0  0  0  0  0  0  0  0  0
  2  1  1  1
  2  3  1  0
  4  3  1  0
  5  4  2  0
  6  5  1  0
  7  6  1  0
  7  8  2  0
  8  4  1  0
  9  2  1  0
 10  9  2  0
 11  9  1  0
 12 13  1  1
 12 11  1  0
 13 14  1  0
 14 15  2  0
 15 16  1  0
 17 16  2  0
 18 17  1  0
 19 18  2  0
 19 14  1  0
 20 12  1  0
 21 20  2  0
 23 24  2  0
 23 22  1  0
 25 23  1  0
 26 25  1  0
 27 26  1  0
 28 27  1  0
 29 28  1  6
 29 30  1  0
 30 20  1  0
 31 29  1  0
 31 32  1  0
 33 31  2  0
M  END
$$$$
