HFR.pdb
     RDKit          3D

 33 34  0  0  1  0  0  0  0  0999 V2000
   10.7338  -14.7165   19.5395 N   0  0  0  0  0  0  0  0  0  0  0  0
    9.3430  -14.5941   19.8902 C   0  0  1  0  0  0  0  0  0  0  0  0
    8.5403  -15.6712   19.2021 C   0  0  0  0  0  0  0  0  0  0  0  0
    8.5331  -15.3826   17.7482 C   0  0  0  0  0  0  0  0  0  0  0  0
    8.3851  -14.1638   17.1254 C   0  0  0  0  0  0  0  0  0  0  0  0
    8.4430  -14.3651   15.7956 N   0  0  0  0  0  0  0  0  0  0  0  0
    8.6231  -15.6763   15.5629 C   0  0  0  0  0  0  0  0  0  0  0  0
    8.6766  -16.2873   16.7656 N   0  0  0  0  0  0  0  0  0  0  0  0
    9.1617  -14.6084   21.3630 C   0  0  0  0  0  0  0  0  0  0  0  0
    9.9224  -15.2840   22.1214 O   0  0  0  0  0  0  0  0  0  0  0  0
    8.1577  -13.8963   22.0461 N   0  0  0  0  0  0  0  0  0  0  0  0
    8.0096  -13.7924   23.4533 C   0  0  1  0  0  0  0  0  0  0  0  0
    7.0517  -12.8122   23.9914 C   0  0  0  0  0  0  0  0  0  0  0  0
    7.0110  -12.8316   25.4711 C   0  0  0  0  0  0  0  0  0  0  0  0
    7.9229  -12.1399   26.2417 C   0  0  0  0  0  0  0  0  0  0  0  0
    7.9127  -12.1453   27.6044 C   0  0  0  0  0  0  0  0  0  0  0  0
    6.9524  -12.8721   28.2783 C   0  0  0  0  0  0  0  0  0  0  0  0
    6.0219  -13.5779   27.5471 C   0  0  0  0  0  0  0  0  0  0  0  0
    6.0549  -13.5548   26.1481 C   0  0  0  0  0  0  0  0  0  0  0  0
    7.8961  -15.1625   24.0144 C   0  0  0  0  0  0  0  0  0  0  0  0
    7.0202  -15.9661   23.6013 O   0  0  0  0  0  0  0  0  0  0  0  0
   10.3891  -18.5533   19.9611 N   0  0  0  0  0  0  0  0  0  0  0  0
   11.5170  -18.9432   20.7257 C   0  0  0  0  0  0  0  0  0  0  0  0
   12.7262  -18.8682   20.3467 N   0  0  0  0  0  0  0  0  0  0  0  0
   11.3072  -19.4812   22.0528 N   0  0  0  0  0  0  0  0  0  0  0  0
    9.9662  -19.2668   22.6488 C   0  0  0  0  0  0  0  0  0  0  0  0
   10.0695  -18.3054   23.7879 C   0  0  0  0  0  0  0  0  0  0  0  0
    8.8240  -17.9159   24.4227 C   0  0  0  0  0  0  0  0  0  0  0  0
    8.6493  -17.0346   25.5794 C   0  0  2  0  0  0  0  0  0  0  0  0
    8.7623  -15.6212   25.0297 N   0  0  0  0  0  0  0  0  0  0  0  0
    9.5524  -17.0715   26.7139 C   0  0  0  0  0  0  0  0  0  0  0  0
   10.3214  -15.9361   27.0396 O   0  0  0  0  0  0  0  0  0  0  0  0
    9.7160  -18.0488   27.4518 O   0  0  0  0  0  0  0  0  0  0  0  0
  2  1  1  1
  2  3  1  0
  4  3  1  0
  5  4  2  0
  6  5  1  0
  7  6  1  0
  7  8  2  0
  8  4  1  0
  9  2  1  0
 10  9  2  0
 11  9  1  0
 12 13  1  6
 12 11  1  0
 13 14  1  0
 14 15  2  0
 15 16  1  0
 17 16  2  0
 18 17  1  0
 19 18  2  0
 19 14  1  0
 20 12  1  0
 21 20  2  0
 23 24  2  0
 23 22  1  0
 25 23  1  0
 26 25  1  0
 27 26  1  0
 28 27  1  0
 29 28  1  6
 29 30  1  0
 30 20  1  0
 31 29  1  0
 31 32  1  0
 33 31  2  0
M  END
$$$$
