HFR.pdb
     RDKit          3D

 33 34  0  0  1  0  0  0  0  0999 V2000
    8.0603  -16.6739   19.2145 N   0  0  0  0  0  0  0  0  0  0  0  0
    9.0079  -15.6010   19.3677 C   0  0  1  0  0  0  0  0  0  0  0  0
    8.8060  -14.5746   18.2798 C   0  0  0  0  0  0  0  0  0  0  0  0
    8.8025  -15.2797   16.9759 C   0  0  0  0  0  0  0  0  0  0  0  0
    7.8676  -15.1968   15.9686 C   0  0  0  0  0  0  0  0  0  0  0  0
    8.2627  -16.0031   14.9656 N   0  0  0  0  0  0  0  0  0  0  0  0
    9.4198  -16.5919   15.3125 C   0  0  0  0  0  0  0  0  0  0  0  0
    9.7389  -16.1406   16.5443 N   0  0  0  0  0  0  0  0  0  0  0  0
    8.9265  -15.0082   20.7257 C   0  0  0  0  0  0  0  0  0  0  0  0
    9.7239  -14.0963   21.1035 O   0  0  0  0  0  0  0  0  0  0  0  0
    7.9858  -15.3871   21.7021 N   0  0  0  0  0  0  0  0  0  0  0  0
    7.9212  -14.9110   23.0371 C   0  0  1  0  0  0  0  0  0  0  0  0
    6.6131  -14.5072   23.5795 C   0  0  0  0  0  0  0  0  0  0  0  0
    6.7382  -13.8647   24.9073 C   0  0  0  0  0  0  0  0  0  0  0  0
    6.8241  -12.4958   25.0575 C   0  0  0  0  0  0  0  0  0  0  0  0
    6.9461  -11.8785   26.2662 C   0  0  0  0  0  0  0  0  0  0  0  0
    6.9895  -12.6353   27.4195 C   0  0  0  0  0  0  0  0  0  0  0  0
    6.9068  -14.0067   27.3148 C   0  0  0  0  0  0  0  0  0  0  0  0
    6.7815  -14.6151   26.0607 C   0  0  0  0  0  0  0  0  0  0  0  0
    8.7086  -15.8279   23.8996 C   0  0  0  0  0  0  0  0  0  0  0  0
    8.3558  -17.0232   24.0741 O   0  0  0  0  0  0  0  0  0  0  0  0
   16.7693  -15.9828   23.7253 N   0  0  0  0  0  0  0  0  0  0  0  0
   16.7549  -17.2001   24.4512 C   0  0  0  0  0  0  0  0  0  0  0  0
   17.7735  -17.7800   24.9387 N   0  0  0  0  0  0  0  0  0  0  0  0
   15.4889  -17.8671   24.6683 N   0  0  0  0  0  0  0  0  0  0  0  0
   14.2953  -17.2360   24.0548 C   0  0  0  0  0  0  0  0  0  0  0  0
   13.3958  -16.7122   25.1266 C   0  0  0  0  0  0  0  0  0  0  0  0
   12.1338  -16.1419   24.6929 C   0  0  0  0  0  0  0  0  0  0  0  0
   10.8021  -16.3961   25.2472 C   0  0  2  0  0  0  0  0  0  0  0  0
    9.8820  -15.4011   24.5572 N   0  0  0  0  0  0  0  0  0  0  0  0
   10.5211  -16.2509   26.6629 C   0  0  0  0  0  0  0  0  0  0  0  0
   10.7873  -17.3158   27.5469 O   0  0  0  0  0  0  0  0  0  0  0  0
   10.0496  -15.2360   27.1864 O   0  0  0  0  0  0  0  0  0  0  0  0
  2  1  1  1
  2  3  1  0
  4  3  1  0
  5  4  2  0
  6  5  1  0
  7  6  1  0
  7  8  2  0
  8  4  1  0
  9  2  1  0
 10  9  2  0
 11  9  1  0
 12 13  1  1
 12 11  1  0
 13 14  1  0
 14 15  2  0
 15 16  1  0
 17 16  2  0
 18 17  1  0
 19 18  2  0
 19 14  1  0
 20 12  1  0
 21 20  2  0
 23 24  2  0
 23 22  1  0
 25 23  1  0
 26 25  1  0
 27 26  1  0
 28 27  1  0
 29 28  1  1
 29 30  1  0
 30 20  1  0
 31 29  1  0
 31 32  1  0
 33 31  2  0
M  END
$$$$
