HFR.pdb
     RDKit          3D

 33 34  0  0  1  0  0  0  0  0999 V2000
    9.5526  -13.0673   20.5072 N   0  0  0  0  0  0  0  0  0  0  0  0
    8.5041  -13.9321   20.9815 C   0  0  1  0  0  0  0  0  0  0  0  0
    8.2322  -15.0176   19.9687 C   0  0  0  0  0  0  0  0  0  0  0  0
    7.8406  -14.3705   18.6938 C   0  0  0  0  0  0  0  0  0  0  0  0
    7.8066  -13.0260   18.3997 C   0  0  0  0  0  0  0  0  0  0  0  0
    7.3943  -12.8881   17.1256 N   0  0  0  0  0  0  0  0  0  0  0  0
    7.1673  -14.1077   16.6087 C   0  0  0  0  0  0  0  0  0  0  0  0
    7.4443  -15.0054   17.5783 N   0  0  0  0  0  0  0  0  0  0  0  0
    8.8302  -14.4791   22.3219 C   0  0  0  0  0  0  0  0  0  0  0  0
   10.0294  -14.6753   22.6877 O   0  0  0  0  0  0  0  0  0  0  0  0
    7.8713  -14.8259   23.2925 N   0  0  0  0  0  0  0  0  0  0  0  0
    8.1351  -15.2851   24.6087 C   0  0  1  0  0  0  0  0  0  0  0  0
    7.0949  -15.1147   25.6370 C   0  0  0  0  0  0  0  0  0  0  0  0
    6.8714  -13.6893   25.9683 C   0  0  0  0  0  0  0  0  0  0  0  0
    7.8585  -12.8982   26.5196 C   0  0  0  0  0  0  0  0  0  0  0  0
    7.6785  -11.5860   26.8400 C   0  0  0  0  0  0  0  0  0  0  0  0
    6.4553  -10.9883   26.6139 C   0  0  0  0  0  0  0  0  0  0  0  0
    5.4414  -11.7424   26.0646 C   0  0  0  0  0  0  0  0  0  0  0  0
    5.6533  -13.0882   25.7443 C   0  0  0  0  0  0  0  0  0  0  0  0
    8.7216  -16.6464   24.5208 C   0  0  0  0  0  0  0  0  0  0  0  0
    8.0665  -17.6094   24.0443 O   0  0  0  0  0  0  0  0  0  0  0  0
   16.2759  -18.9398   23.3432 N   0  0  0  0  0  0  0  0  0  0  0  0
   15.8429  -20.1987   22.8568 C   0  0  0  0  0  0  0  0  0  0  0  0
   16.5702  -21.2319   22.7349 N   0  0  0  0  0  0  0  0  0  0  0  0
   14.4620  -20.3516   22.4512 N   0  0  0  0  0  0  0  0  0  0  0  0
   13.5898  -19.1632   22.6133 C   0  0  0  0  0  0  0  0  0  0  0  0
   12.6147  -19.4016   23.7200 C   0  0  0  0  0  0  0  0  0  0  0  0
   11.6548  -18.3442   23.9777 C   0  0  0  0  0  0  0  0  0  0  0  0
   10.5817  -18.3362   24.9745 C   0  0  2  0  0  0  0  0  0  0  0  0
   10.0334  -16.9178   24.9647 N   0  0  0  0  0  0  0  0  0  0  0  0
   10.8320  -18.6344   26.3718 C   0  0  0  0  0  0  0  0  0  0  0  0
   10.8380  -17.5951   27.3239 O   0  0  0  0  0  0  0  0  0  0  0  0
   11.0498  -19.7638   26.8224 O   0  0  0  0  0  0  0  0  0  0  0  0
  2  1  1  6
  2  3  1  0
  4  3  1  0
  5  4  2  0
  6  5  1  0
  7  6  1  0
  7  8  2  0
  8  4  1  0
  9  2  1  0
 10  9  2  0
 11  9  1  0
 12 13  1  1
 12 11  1  0
 13 14  1  0
 14 15  2  0
 15 16  1  0
 17 16  2  0
 18 17  1  0
 19 18  2  0
 19 14  1  0
 20 12  1  0
 21 20  2  0
 23 24  2  0
 23 22  1  0
 25 23  1  0
 26 25  1  0
 27 26  1  0
 28 27  1  0
 29 28  1  6
 29 30  1  0
 30 20  1  0
 31 29  1  0
 31 32  1  0
 33 31  2  0
M  END
$$$$
