WYY.pdb
     RDKit          3D

 39 42  0  0  1  0  0  0  0  0999 V2000
    6.2085  -18.7550   24.8590 N   0  0  0  0  0  0  0  0  0  0  0  0
    6.6072  -17.3604   24.7154 C   0  0  1  0  0  0  0  0  0  0  0  0
    7.6863  -16.9920   25.7445 C   0  0  0  0  0  0  0  0  0  0  0  0
    7.1721  -15.8521   26.5147 C   0  0  0  0  0  0  0  0  0  0  0  0
    6.2406  -15.9036   27.5220 C   0  0  0  0  0  0  0  0  0  0  0  0
    6.0508  -14.6295   27.9631 N   0  0  0  0  0  0  0  0  0  0  0  0
    6.8311  -13.7763   27.2679 C   0  0  0  0  0  0  0  0  0  0  0  0
    7.0513  -12.4179   27.2750 C   0  0  0  0  0  0  0  0  0  0  0  0
    7.9386  -11.8242   26.4136 C   0  0  0  0  0  0  0  0  0  0  0  0
    8.6387  -12.5865   25.5091 C   0  0  0  0  0  0  0  0  0  0  0  0
    8.4421  -13.9457   25.4762 C   0  0  0  0  0  0  0  0  0  0  0  0
    7.5326  -14.5387   26.3623 C   0  0  0  0  0  0  0  0  0  0  0  0
    7.1811  -17.1758   23.3819 C   0  0  0  0  0  0  0  0  0  0  0  0
    7.7673  -18.1062   22.7887 O   0  0  0  0  0  0  0  0  0  0  0  0
    8.6939  -13.9056   15.4212 O   0  0  0  0  0  0  0  0  0  0  0  0
    8.3022  -14.0275   16.7542 C   0  0  0  0  0  0  0  0  0  0  0  0
    7.7374  -15.2214   17.1530 C   0  0  0  0  0  0  0  0  0  0  0  0
    7.3539  -15.3369   18.4610 C   0  0  0  0  0  0  0  0  0  0  0  0
    7.5120  -14.3044   19.3895 C   0  0  0  0  0  0  0  0  0  0  0  0
    7.0692  -14.5025   20.7870 C   0  0  0  0  0  0  0  0  0  0  0  0
    7.6242  -15.7558   21.4132 C   0  0  2  0  0  0  0  0  0  0  0  0
    7.0805  -15.9050   22.7242 N   0  0  0  0  0  0  0  0  0  0  0  0
    9.1112  -15.6270   21.4308 C   0  0  0  0  0  0  0  0  0  0  0  0
    9.8267  -15.6677   20.3954 O   0  0  0  0  0  0  0  0  0  0  0  0
    8.0790  -13.1386   18.9399 C   0  0  0  0  0  0  0  0  0  0  0  0
    8.4837  -12.9683   17.6331 C   0  0  0  0  0  0  0  0  0  0  0  0
    9.6368  -16.7384   28.8970 O   0  0  0  0  0  0  0  0  0  0  0  0
   10.0877  -16.1934   27.7125 C   0  0  0  0  0  0  0  0  0  0  0  0
   11.1344  -16.7205   26.9892 C   0  0  0  0  0  0  0  0  0  0  0  0
   11.5645  -16.1544   25.8066 C   0  0  0  0  0  0  0  0  0  0  0  0
   10.9591  -15.0339   25.3026 C   0  0  0  0  0  0  0  0  0  0  0  0
   11.3376  -14.3561   24.0652 C   0  0  0  0  0  0  0  0  0  0  0  0
   11.1728  -15.1465   22.8084 C   0  0  2  0  0  0  0  0  0  0  0  0
    9.7378  -15.4496   22.6908 N   0  0  0  0  0  0  0  0  0  0  0  0
   11.8683  -16.4516   22.9352 C   0  0  0  0  0  0  0  0  0  0  0  0
   11.2330  -17.5537   23.0397 O   0  0  0  0  0  0  0  0  0  0  0  0
    9.8987  -14.5064   26.0432 C   0  0  0  0  0  0  0  0  0  0  0  0
    9.4646  -15.0668   27.2237 C   0  0  0  0  0  0  0  0  0  0  0  0
   13.2657  -16.5698   22.9491 O   0  0  0  0  0  0  0  0  0  0  0  0
  2  3  1  0
  2  1  1  1
  4  5  2  0
  4  3  1  0
  6  5  1  0
  7 12  2  0
  7  6  1  0
  8  7  1  0
  9 10  1  0
  9  8  2  0
 10 11  2  0
 11 12  1  0
 12  4  1  0
 13  2  1  0
 14 13  2  0
 16 15  1  0
 17 16  2  0
 18 17  1  0
 19 18  2  0
 19 25  1  0
 20 19  1  0
 21 20  1  1
 21 22  1  0
 22 13  1  0
 23 21  1  0
 23 34  1  0
 24 23  2  0
 25 26  2  0
 26 16  1  0
 28 38  2  0
 28 27  1  0
 29 28  1  0
 30 31  1  0
 30 29  2  0
 31 37  2  0
 32 31  1  0
 33 34  1  0
 33 32  1  1
 35 33  1  0
 36 35  2  0
 37 38  1  0
 39 35  1  0
M  END
$$$$
