WYY.pdb
     RDKit          3D

 39 42  0  0  1  0  0  0  0  0999 V2000
    5.7116  -16.9582   22.1510 N   0  0  0  0  0  0  0  0  0  0  0  0
    6.9383  -16.1730   22.0918 C   0  0  1  0  0  0  0  0  0  0  0  0
    7.6861  -16.2262   23.4324 C   0  0  0  0  0  0  0  0  0  0  0  0
    6.8762  -15.4802   24.4043 C   0  0  0  0  0  0  0  0  0  0  0  0
    6.0393  -16.0181   25.3506 C   0  0  0  0  0  0  0  0  0  0  0  0
    5.4863  -14.9810   26.0381 N   0  0  0  0  0  0  0  0  0  0  0  0
    5.9460  -13.8073   25.5572 C   0  0  0  0  0  0  0  0  0  0  0  0
    5.7429  -12.4782   25.8500 C   0  0  0  0  0  0  0  0  0  0  0  0
    6.3777  -11.4792   25.1565 C   0  0  0  0  0  0  0  0  0  0  0  0
    7.2451  -11.7899   24.1364 C   0  0  0  0  0  0  0  0  0  0  0  0
    7.4701  -13.1074   23.8190 C   0  0  0  0  0  0  0  0  0  0  0  0
    6.8148  -14.1174   24.5361 C   0  0  0  0  0  0  0  0  0  0  0  0
    7.8120  -16.7518   21.0704 C   0  0  0  0  0  0  0  0  0  0  0  0
    7.3776  -17.0684   19.9425 O   0  0  0  0  0  0  0  0  0  0  0  0
    7.1909  -14.0198   15.8217 O   0  0  0  0  0  0  0  0  0  0  0  0
    7.7379  -14.1874   17.0936 C   0  0  0  0  0  0  0  0  0  0  0  0
    7.2933  -13.3558   18.1007 C   0  0  0  0  0  0  0  0  0  0  0  0
    7.8326  -13.5229   19.3467 C   0  0  0  0  0  0  0  0  0  0  0  0
    8.8014  -14.4901   19.6280 C   0  0  0  0  0  0  0  0  0  0  0  0
    9.3408  -14.6084   21.0004 C   0  0  0  0  0  0  0  0  0  0  0  0
   10.1156  -15.8813   21.2256 C   0  0  2  0  0  0  0  0  0  0  0  0
    9.2016  -16.9702   21.3512 N   0  0  0  0  0  0  0  0  0  0  0  0
   10.9397  -15.6922   22.4556 C   0  0  0  0  0  0  0  0  0  0  0  0
   12.0478  -15.0939   22.4672 O   0  0  0  0  0  0  0  0  0  0  0  0
    9.2079  -15.2904   18.5902 C   0  0  0  0  0  0  0  0  0  0  0  0
    8.6978  -15.1655   17.3156 C   0  0  0  0  0  0  0  0  0  0  0  0
   11.8439  -15.5669   31.3456 O   0  0  0  0  0  0  0  0  0  0  0  0
   11.4094  -15.7146   30.0445 C   0  0  0  0  0  0  0  0  0  0  0  0
   11.2427  -16.9401   29.4389 C   0  0  0  0  0  0  0  0  0  0  0  0
   10.8061  -17.0583   28.1353 C   0  0  0  0  0  0  0  0  0  0  0  0
   10.5193  -15.9478   27.3866 C   0  0  0  0  0  0  0  0  0  0  0  0
   10.0556  -15.9623   26.0015 C   0  0  0  0  0  0  0  0  0  0  0  0
   11.1201  -16.0111   24.9546 C   0  0  2  0  0  0  0  0  0  0  0  0
   10.4334  -16.2211   23.6703 N   0  0  0  0  0  0  0  0  0  0  0  0
   11.9858  -17.1980   25.1666 C   0  0  0  0  0  0  0  0  0  0  0  0
   11.7734  -18.3093   24.5758 O   0  0  0  0  0  0  0  0  0  0  0  0
   10.6916  -14.7093   28.0093 C   0  0  0  0  0  0  0  0  0  0  0  0
   11.1266  -14.5848   29.3098 C   0  0  0  0  0  0  0  0  0  0  0  0
   13.0942  -17.1863   26.0256 O   0  0  0  0  0  0  0  0  0  0  0  0
  2  3  1  0
  2  1  1  1
  4  5  2  0
  4  3  1  0
  6  5  1  0
  7 12  2  0
  7  6  1  0
  8  7  1  0
  9 10  1  0
  9  8  2  0
 10 11  2  0
 11 12  1  0
 12  4  1  0
 13  2  1  0
 14 13  2  0
 16 15  1  0
 17 16  2  0
 18 17  1  0
 19 18  2  0
 19 25  1  0
 20 19  1  0
 21 20  1  1
 21 22  1  0
 22 13  1  0
 23 21  1  0
 23 34  1  0
 24 23  2  0
 25 26  2  0
 26 16  1  0
 28 38  2  0
 28 27  1  0
 29 28  1  0
 30 31  1  0
 30 29  2  0
 31 37  2  0
 32 31  1  0
 33 34  1  0
 33 32  1  1
 35 33  1  0
 36 35  2  0
 37 38  1  0
 39 35  1  0
M  END
$$$$
