WYY.pdb
     RDKit          3D

 39 42  0  0  1  0  0  0  0  0999 V2000
    6.0955  -18.1664   26.1866 N   0  0  0  0  0  0  0  0  0  0  0  0
    6.5905  -16.8554   25.7856 C   0  0  1  0  0  0  0  0  0  0  0  0
    7.8140  -16.4539   26.6229 C   0  0  0  0  0  0  0  0  0  0  0  0
    7.4203  -15.2878   27.4243 C   0  0  0  0  0  0  0  0  0  0  0  0
    7.1718  -15.2738   28.7745 C   0  0  0  0  0  0  0  0  0  0  0  0
    6.8394  -13.9971   29.1116 N   0  0  0  0  0  0  0  0  0  0  0  0
    6.8698  -13.2056   28.0194 C   0  0  0  0  0  0  0  0  0  0  0  0
    6.6322  -11.8745   27.7635 C   0  0  0  0  0  0  0  0  0  0  0  0
    6.7484  -11.3482   26.5021 C   0  0  0  0  0  0  0  0  0  0  0  0
    7.1107  -12.1531   25.4484 C   0  0  0  0  0  0  0  0  0  0  0  0
    7.3551  -13.4866   25.6701 C   0  0  0  0  0  0  0  0  0  0  0  0
    7.2327  -14.0105   26.9641 C   0  0  0  0  0  0  0  0  0  0  0  0
    7.0117  -16.9256   24.3858 C   0  0  0  0  0  0  0  0  0  0  0  0
    7.6886  -17.8833   23.9548 O   0  0  0  0  0  0  0  0  0  0  0  0
    9.1345  -14.0704   16.3695 O   0  0  0  0  0  0  0  0  0  0  0  0
    8.5886  -14.1587   17.6499 C   0  0  0  0  0  0  0  0  0  0  0  0
    7.8164  -15.2630   17.9461 C   0  0  0  0  0  0  0  0  0  0  0  0
    7.2823  -15.3457   19.2027 C   0  0  0  0  0  0  0  0  0  0  0  0
    7.4889  -14.3666   20.1784 C   0  0  0  0  0  0  0  0  0  0  0  0
    6.8748  -14.5240   21.5149 C   0  0  0  0  0  0  0  0  0  0  0  0
    7.4207  -15.6994   22.2840 C   0  0  2  0  0  0  0  0  0  0  0  0
    6.6508  -15.8805   23.4720 N   0  0  0  0  0  0  0  0  0  0  0  0
    8.8554  -15.4134   22.5802 C   0  0  0  0  0  0  0  0  0  0  0  0
    9.2453  -14.4141   23.2400 O   0  0  0  0  0  0  0  0  0  0  0  0
    8.2647  -13.2896   19.8309 C   0  0  0  0  0  0  0  0  0  0  0  0
    8.8276  -13.1558   18.5796 C   0  0  0  0  0  0  0  0  0  0  0  0
   10.9507  -14.8989   28.5787 O   0  0  0  0  0  0  0  0  0  0  0  0
   11.1468  -15.3287   27.2824 C   0  0  0  0  0  0  0  0  0  0  0  0
   11.1732  -14.4770   26.2006 C   0  0  0  0  0  0  0  0  0  0  0  0
   11.3716  -14.9347   24.9141 C   0  0  0  0  0  0  0  0  0  0  0  0
   11.5516  -16.2690   24.6627 C   0  0  0  0  0  0  0  0  0  0  0  0
   11.7653  -16.8562   23.3424 C   0  0  0  0  0  0  0  0  0  0  0  0
   11.2644  -16.0596   22.1821 C   0  0  2  0  0  0  0  0  0  0  0  0
    9.8207  -16.3266   22.0844 N   0  0  0  0  0  0  0  0  0  0  0  0
   11.8701  -16.5613   20.9233 C   0  0  0  0  0  0  0  0  0  0  0  0
   11.1848  -17.1660   20.0324 O   0  0  0  0  0  0  0  0  0  0  0  0
   11.5231  -17.1251   25.7661 C   0  0  0  0  0  0  0  0  0  0  0  0
   11.3258  -16.6745   27.0522 C   0  0  0  0  0  0  0  0  0  0  0  0
   13.2310  -16.4085   20.6213 O   0  0  0  0  0  0  0  0  0  0  0  0
  2  3  1  0
  2  1  1  1
  4  5  2  0
  4  3  1  0
  6  5  1  0
  7 12  2  0
  7  6  1  0
  8  7  1  0
  9 10  1  0
  9  8  2  0
 10 11  2  0
 11 12  1  0
 12  4  1  0
 13  2  1  0
 14 13  2  0
 16 15  1  0
 17 16  2  0
 18 17  1  0
 19 18  2  0
 19 25  1  0
 20 19  1  0
 21 20  1  1
 21 22  1  0
 22 13  1  0
 23 21  1  0
 23 34  1  0
 24 23  2  0
 25 26  2  0
 26 16  1  0
 28 38  2  0
 28 27  1  0
 29 28  1  0
 30 31  1  0
 30 29  2  0
 31 37  2  0
 32 31  1  0
 33 34  1  0
 33 32  1  1
 35 33  1  0
 36 35  2  0
 37 38  1  0
 39 35  1  0
M  END
$$$$
