WYY.pdb
     RDKit          3D

 39 42  0  0  1  0  0  0  0  0999 V2000
    6.4002  -18.2194   25.8035 N   0  0  0  0  0  0  0  0  0  0  0  0
    6.7939  -16.8875   25.3611 C   0  0  1  0  0  0  0  0  0  0  0  0
    8.0778  -16.4333   26.0714 C   0  0  0  0  0  0  0  0  0  0  0  0
    7.6934  -15.3769   27.0165 C   0  0  0  0  0  0  0  0  0  0  0  0
    7.4146  -15.5399   28.3510 C   0  0  0  0  0  0  0  0  0  0  0  0
    7.1046  -14.3125   28.8524 N   0  0  0  0  0  0  0  0  0  0  0  0
    7.1783  -13.3811   27.8792 C   0  0  0  0  0  0  0  0  0  0  0  0
    6.9779  -12.0218   27.8026 C   0  0  0  0  0  0  0  0  0  0  0  0
    7.1351  -11.3322   26.6272 C   0  0  0  0  0  0  0  0  0  0  0  0
    7.5024  -11.9958   25.4808 C   0  0  0  0  0  0  0  0  0  0  0  0
    7.7103  -13.3531   25.5233 C   0  0  0  0  0  0  0  0  0  0  0  0
    7.5463  -14.0445   26.7312 C   0  0  0  0  0  0  0  0  0  0  0  0
    7.0724  -16.9378   23.9253 C   0  0  0  0  0  0  0  0  0  0  0  0
    7.6233  -17.9293   23.4013 O   0  0  0  0  0  0  0  0  0  0  0  0
    8.9080  -13.5997   15.9679 O   0  0  0  0  0  0  0  0  0  0  0  0
    8.3941  -13.8286   17.2442 C   0  0  0  0  0  0  0  0  0  0  0  0
    8.4797  -12.8057   18.1660 C   0  0  0  0  0  0  0  0  0  0  0  0
    7.9751  -13.0341   19.4167 C   0  0  0  0  0  0  0  0  0  0  0  0
    7.3869  -14.2472   19.7851 C   0  0  0  0  0  0  0  0  0  0  0  0
    6.8666  -14.4212   21.1588 C   0  0  0  0  0  0  0  0  0  0  0  0
    7.3945  -15.6570   21.8411 C   0  0  2  0  0  0  0  0  0  0  0  0
    6.7141  -15.8333   23.0831 N   0  0  0  0  0  0  0  0  0  0  0  0
    8.8644  -15.4740   22.0245 C   0  0  0  0  0  0  0  0  0  0  0  0
    9.3707  -14.5633   22.7318 O   0  0  0  0  0  0  0  0  0  0  0  0
    7.3277  -15.2305   18.8299 C   0  0  0  0  0  0  0  0  0  0  0  0
    7.8202  -15.0540   17.5545 C   0  0  0  0  0  0  0  0  0  0  0  0
   10.7607  -17.3374   27.7672 O   0  0  0  0  0  0  0  0  0  0  0  0
   10.9441  -17.4053   26.4014 C   0  0  0  0  0  0  0  0  0  0  0  0
   10.2112  -18.2344   25.5817 C   0  0  0  0  0  0  0  0  0  0  0  0
   10.4160  -18.2817   24.2179 C   0  0  0  0  0  0  0  0  0  0  0  0
   11.3672  -17.4966   23.6223 C   0  0  0  0  0  0  0  0  0  0  0  0
   11.6652  -17.4728   22.1925 C   0  0  0  0  0  0  0  0  0  0  0  0
   11.1898  -16.2705   21.4440 C   0  0  2  0  0  0  0  0  0  0  0  0
    9.7252  -16.3838   21.3590 N   0  0  0  0  0  0  0  0  0  0  0  0
   11.6953  -16.3091   20.0490 C   0  0  0  0  0  0  0  0  0  0  0  0
   12.9302  -16.1498   19.7682 O   0  0  0  0  0  0  0  0  0  0  0  0
   12.1056  -16.6592   24.4618 C   0  0  0  0  0  0  0  0  0  0  0  0
   11.9059  -16.6072   25.8232 C   0  0  0  0  0  0  0  0  0  0  0  0
   10.8593  -16.5225   18.9434 O   0  0  0  0  0  0  0  0  0  0  0  0
  2  3  1  0
  2  1  1  1
  4  5  2  0
  4  3  1  0
  6  5  1  0
  7 12  2  0
  7  6  1  0
  8  7  1  0
  9 10  1  0
  9  8  2  0
 10 11  2  0
 11 12  1  0
 12  4  1  0
 13  2  1  0
 14 13  2  0
 16 15  1  0
 17 16  2  0
 18 17  1  0
 19 18  2  0
 19 25  1  0
 20 19  1  0
 21 20  1  1
 21 22  1  0
 22 13  1  0
 23 21  1  0
 23 34  1  0
 24 23  2  0
 25 26  2  0
 26 16  1  0
 28 38  2  0
 28 27  1  0
 29 28  1  0
 30 31  1  0
 30 29  2  0
 31 37  2  0
 32 31  1  0
 33 34  1  0
 33 32  1  1
 35 33  1  0
 36 35  2  0
 37 38  1  0
 39 35  1  0
M  END
$$$$
