WYY.pdb
     RDKit          3D

 39 42  0  0  1  0  0  0  0  0999 V2000
    5.6785  -19.3320   24.6688 N   0  0  0  0  0  0  0  0  0  0  0  0
    5.9180  -17.8946   24.7037 C   0  0  1  0  0  0  0  0  0  0  0  0
    6.7210  -17.5049   25.9537 C   0  0  0  0  0  0  0  0  0  0  0  0
    6.6012  -16.0487   26.1026 C   0  0  0  0  0  0  0  0  0  0  0  0
    5.5288  -15.2772   25.7286 C   0  0  0  0  0  0  0  0  0  0  0  0
    5.8292  -13.9870   26.0434 N   0  0  0  0  0  0  0  0  0  0  0  0
    7.0549  -13.9188   26.6031 C   0  0  0  0  0  0  0  0  0  0  0  0
    7.8537  -12.9146   27.1003 C   0  0  0  0  0  0  0  0  0  0  0  0
    9.0968  -13.1698   27.6214 C   0  0  0  0  0  0  0  0  0  0  0  0
    9.5795  -14.4563   27.6585 C   0  0  0  0  0  0  0  0  0  0  0  0
    8.8068  -15.4819   27.1702 C   0  0  0  0  0  0  0  0  0  0  0  0
    7.5388  -15.2064   26.6410 C   0  0  0  0  0  0  0  0  0  0  0  0
    6.7122  -17.5270   23.5308 C   0  0  0  0  0  0  0  0  0  0  0  0
    7.5084  -18.3322   23.0028 O   0  0  0  0  0  0  0  0  0  0  0  0
    9.6164  -13.0774   16.5588 O   0  0  0  0  0  0  0  0  0  0  0  0
    8.9695  -13.4108   17.7486 C   0  0  0  0  0  0  0  0  0  0  0  0
    8.2533  -14.5894   17.7840 C   0  0  0  0  0  0  0  0  0  0  0  0
    7.6198  -14.9126   18.9525 C   0  0  0  0  0  0  0  0  0  0  0  0
    7.6728  -14.1032   20.0905 C   0  0  0  0  0  0  0  0  0  0  0  0
    6.9580  -14.5177   21.3176 C   0  0  0  0  0  0  0  0  0  0  0  0
    7.3526  -15.8901   21.7991 C   0  0  2  0  0  0  0  0  0  0  0  0
    6.5896  -16.2167   22.9600 N   0  0  0  0  0  0  0  0  0  0  0  0
    8.8188  -15.8626   22.0774 C   0  0  0  0  0  0  0  0  0  0  0  0
    9.6856  -15.5503   21.2189 O   0  0  0  0  0  0  0  0  0  0  0  0
    8.3989  -12.9424   20.0007 C   0  0  0  0  0  0  0  0  0  0  0  0
    9.0569  -12.5683   18.8486 C   0  0  0  0  0  0  0  0  0  0  0  0
   13.8359  -16.2004   29.4691 O   0  0  0  0  0  0  0  0  0  0  0  0
   13.0296  -15.9061   28.3890 C   0  0  0  0  0  0  0  0  0  0  0  0
   13.4800  -15.2429   27.2692 C   0  0  0  0  0  0  0  0  0  0  0  0
   12.6508  -14.9618   26.2027 C   0  0  0  0  0  0  0  0  0  0  0  0
   11.3335  -15.3364   26.2187 C   0  0  0  0  0  0  0  0  0  0  0  0
   10.3732  -15.0855   25.1470 C   0  0  0  0  0  0  0  0  0  0  0  0
   10.5817  -15.8590   23.8861 C   0  0  2  0  0  0  0  0  0  0  0  0
    9.2433  -16.2099   23.3854 N   0  0  0  0  0  0  0  0  0  0  0  0
   11.2672  -17.1411   24.1852 C   0  0  0  0  0  0  0  0  0  0  0  0
   10.6272  -18.2343   24.3423 O   0  0  0  0  0  0  0  0  0  0  0  0
   10.8858  -16.0083   27.3586 C   0  0  0  0  0  0  0  0  0  0  0  0
   11.7082  -16.2920   28.4259 C   0  0  0  0  0  0  0  0  0  0  0  0
   12.6595  -17.2458   24.3160 O   0  0  0  0  0  0  0  0  0  0  0  0
  2  3  1  0
  2  1  1  1
  4  5  2  0
  4  3  1  0
  6  5  1  0
  7 12  2  0
  7  6  1  0
  8  7  1  0
  9 10  1  0
  9  8  2  0
 10 11  2  0
 11 12  1  0
 12  4  1  0
 13  2  1  0
 14 13  2  0
 16 15  1  0
 17 16  2  0
 18 17  1  0
 19 18  2  0
 19 25  1  0
 20 19  1  0
 21 20  1  1
 21 22  1  0
 22 13  1  0
 23 21  1  0
 23 34  1  0
 24 23  2  0
 25 26  2  0
 26 16  1  0
 28 38  2  0
 28 27  1  0
 29 28  1  0
 30 31  1  0
 30 29  2  0
 31 37  2  0
 32 31  1  0
 33 34  1  0
 33 32  1  1
 35 33  1  0
 36 35  2  0
 37 38  1  0
 39 35  1  0
M  END
$$$$
