WYY.pdb
     RDKit          3D

 39 42  0  0  1  0  0  0  0  0999 V2000
    6.4649  -17.6502   23.2561 N   0  0  0  0  0  0  0  0  0  0  0  0
    7.1472  -16.3699   23.3975 C   0  0  1  0  0  0  0  0  0  0  0  0
    7.5034  -16.1001   24.8670 C   0  0  0  0  0  0  0  0  0  0  0  0
    6.5266  -15.1268   25.3725 C   0  0  0  0  0  0  0  0  0  0  0  0
    5.3490  -15.4145   26.0173 C   0  0  0  0  0  0  0  0  0  0  0  0
    4.7497  -14.2283   26.3136 N   0  0  0  0  0  0  0  0  0  0  0  0
    5.5095  -13.2024   25.8773 C   0  0  0  0  0  0  0  0  0  0  0  0
    5.4118  -11.8298   25.8958 C   0  0  0  0  0  0  0  0  0  0  0  0
    6.3816  -11.0279   25.3497 C   0  0  0  0  0  0  0  0  0  0  0  0
    7.4908  -11.5879   24.7620 C   0  0  0  0  0  0  0  0  0  0  0  0
    7.6189  -12.9552   24.7269 C   0  0  0  0  0  0  0  0  0  0  0  0
    6.6204  -13.7621   25.2890 C   0  0  0  0  0  0  0  0  0  0  0  0
    8.3971  -16.4227   22.6381 C   0  0  0  0  0  0  0  0  0  0  0  0
    8.9842  -17.5041   22.4211 O   0  0  0  0  0  0  0  0  0  0  0  0
    6.2850  -14.9110   16.3524 O   0  0  0  0  0  0  0  0  0  0  0  0
    7.2419  -14.7071   17.3464 C   0  0  0  0  0  0  0  0  0  0  0  0
    8.2343  -15.6548   17.4892 C   0  0  0  0  0  0  0  0  0  0  0  0
    9.1706  -15.4516   18.4655 C   0  0  0  0  0  0  0  0  0  0  0  0
    9.1553  -14.3365   19.3077 C   0  0  0  0  0  0  0  0  0  0  0  0
   10.2005  -14.1874   20.3439 C   0  0  0  0  0  0  0  0  0  0  0  0
   10.1853  -15.2950   21.3657 C   0  0  2  0  0  0  0  0  0  0  0  0
    8.9787  -15.2165   22.1239 N   0  0  0  0  0  0  0  0  0  0  0  0
   11.3990  -15.1334   22.2194 C   0  0  0  0  0  0  0  0  0  0  0  0
   11.9490  -14.0235   22.4463 O   0  0  0  0  0  0  0  0  0  0  0  0
    8.1465  -13.4251   19.1227 C   0  0  0  0  0  0  0  0  0  0  0  0
    7.1776  -13.5801   18.1544 C   0  0  0  0  0  0  0  0  0  0  0  0
   10.6622  -16.4410   30.5206 O   0  0  0  0  0  0  0  0  0  0  0  0
   10.6854  -16.4566   29.1412 C   0  0  0  0  0  0  0  0  0  0  0  0
   10.5078  -17.6012   28.3962 C   0  0  0  0  0  0  0  0  0  0  0  0
   10.5356  -17.5875   27.0167 C   0  0  0  0  0  0  0  0  0  0  0  0
   10.7435  -16.4212   26.3294 C   0  0  0  0  0  0  0  0  0  0  0  0
   10.7943  -16.2982   24.8747 C   0  0  0  0  0  0  0  0  0  0  0  0
   12.1458  -16.4324   24.2526 C   0  0  2  0  0  0  0  0  0  0  0  0
   11.9514  -16.3037   22.7998 N   0  0  0  0  0  0  0  0  0  0  0  0
   12.6778  -17.7984   24.4854 C   0  0  0  0  0  0  0  0  0  0  0  0
   13.7008  -18.0145   25.2175 O   0  0  0  0  0  0  0  0  0  0  0  0
   10.9227  -15.2657   27.0935 C   0  0  0  0  0  0  0  0  0  0  0  0
   10.8958  -15.2727   28.4702 C   0  0  0  0  0  0  0  0  0  0  0  0
   12.0994  -18.9452   23.9225 O   0  0  0  0  0  0  0  0  0  0  0  0
  2  3  1  0
  2  1  1  1
  4  5  2  0
  4  3  1  0
  6  5  1  0
  7 12  2  0
  7  6  1  0
  8  7  1  0
  9 10  1  0
  9  8  2  0
 10 11  2  0
 11 12  1  0
 12  4  1  0
 13  2  1  0
 14 13  2  0
 16 15  1  0
 17 16  2  0
 18 17  1  0
 19 18  2  0
 19 25  1  0
 20 19  1  0
 21 20  1  6
 21 22  1  0
 22 13  1  0
 23 21  1  0
 23 34  1  0
 24 23  2  0
 25 26  2  0
 26 16  1  0
 28 38  2  0
 28 27  1  0
 29 28  1  0
 30 31  1  0
 30 29  2  0
 31 37  2  0
 32 31  1  0
 33 34  1  0
 33 32  1  1
 35 33  1  0
 36 35  2  0
 37 38  1  0
 39 35  1  0
M  END
$$$$
