HIK.pdb
     RDKit          3D

 28 28  0  0  1  0  0  0  0  0999 V2000
   28.2924  -21.5834  -16.0240 N   0  0  0  0  0  0  0  0  0  0  0  0
   27.6439  -20.4850  -15.3435 C   0  0  1  0  0  0  0  0  0  0  0  0
   27.0897  -19.4629  -16.3134 C   0  0  0  0  0  0  0  0  0  0  0  0
   28.1255  -18.7842  -17.1038 C   0  0  0  0  0  0  0  0  0  0  0  0
   29.1735  -18.0427  -16.6002 C   0  0  0  0  0  0  0  0  0  0  0  0
   29.9261  -17.5669  -17.6215 N   0  0  0  0  0  0  0  0  0  0  0  0
   29.3361  -18.0186  -18.7362 C   0  0  0  0  0  0  0  0  0  0  0  0
   28.2496  -18.7536  -18.4377 N   0  0  0  0  0  0  0  0  0  0  0  0
   26.5920  -21.0310  -14.4619 C   0  0  0  0  0  0  0  0  0  0  0  0
   25.8341  -21.9291  -14.8964 O   0  0  0  0  0  0  0  0  0  0  0  0
   27.4645  -20.9384   -9.1315 C   0  0  0  0  0  0  0  0  0  0  0  0
   27.1044  -21.4250  -10.5430 C   0  0  0  0  0  0  0  0  0  0  0  0
   25.7713  -20.8644  -10.8737 C   0  0  2  0  0  0  0  0  0  0  0  0
   24.7435  -21.2508   -9.8525 C   0  0  0  0  0  0  0  0  0  0  0  0
   25.2875  -21.1383  -12.2902 C   0  0  2  0  0  0  0  0  0  0  0  0
   26.3853  -20.5911  -13.1290 N   0  0  0  0  0  0  0  0  0  0  0  0
   24.0426  -20.4251  -12.5289 C   0  0  0  0  0  0  0  0  0  0  0  0
   23.9291  -19.2325  -12.1262 O   0  0  0  0  0  0  0  0  0  0  0  0
   22.9644  -21.0070  -13.1918 N   0  0  0  0  0  0  0  0  0  0  0  0
   21.7045  -20.3052  -13.4466 C   0  0  1  0  0  0  0  0  0  0  0  0
   21.2981  -20.7055  -14.8691 C   0  0  0  0  0  0  0  0  0  0  0  0
   20.0233  -19.9627  -15.1965 C   0  0  0  0  0  0  0  0  0  0  0  0
   19.5415  -20.2800  -16.5931 C   0  0  0  0  0  0  0  0  0  0  0  0
   18.3366  -19.4675  -16.9683 C   0  0  0  0  0  0  0  0  0  0  0  0
   17.9603  -19.8385  -18.3273 N   0  0  0  0  0  0  0  0  0  0  0  0
   20.6353  -20.7730  -12.5497 C   0  0  0  0  0  0  0  0  0  0  0  0
   19.6723  -20.0881  -12.1421 O   0  0  0  0  0  0  0  0  0  0  0  0
   20.6738  -22.0963  -12.0975 O   0  0  0  0  0  0  0  0  0  0  0  0
  2  1  1  6
  3  2  1  0
  4  3  1  0
  4  5  2  0
  6  5  1  0
  7  8  2  0
  7  6  1  0
  8  4  1  0
  9  2  1  0
 10  9  2  0
 12 11  1  0
 13 15  1  0
 13 12  1  0
 13 14  1  1
 15 16  1  6
 16  9  1  0
 17 15  1  0
 18 17  2  0
 19 17  1  0
 20 26  1  0
 20 19  1  0
 21 22  1  0
 20 21  1  6
 23 24  1  0
 23 22  1  0
 24 25  1  0
 26 28  1  0
 27 26  2  0
M  END
$$$$
