HIK.pdb
     RDKit          3D

 28 28  0  0  1  0  0  0  0  0999 V2000
   23.3114  -15.4293  -18.7234 N   0  0  0  0  0  0  0  0  0  0  0  0
   23.5543  -14.0737  -19.1628 C   0  0  1  0  0  0  0  0  0  0  0  0
   22.5717  -13.6367  -20.2288 C   0  0  0  0  0  0  0  0  0  0  0  0
   22.6616  -14.4241  -21.4659 C   0  0  0  0  0  0  0  0  0  0  0  0
   23.4040  -14.0987  -22.5815 C   0  0  0  0  0  0  0  0  0  0  0  0
   23.2454  -15.0550  -23.5282 N   0  0  0  0  0  0  0  0  0  0  0  0
   22.4116  -15.9534  -22.9874 C   0  0  0  0  0  0  0  0  0  0  0  0
   22.0525  -15.5846  -21.7444 N   0  0  0  0  0  0  0  0  0  0  0  0
   23.5184  -13.1822  -17.9856 C   0  0  0  0  0  0  0  0  0  0  0  0
   22.5871  -13.3007  -17.1559 O   0  0  0  0  0  0  0  0  0  0  0  0
   28.0749  -12.3011  -15.6102 C   0  0  0  0  0  0  0  0  0  0  0  0
   26.5783  -12.5765  -15.8174 C   0  0  0  0  0  0  0  0  0  0  0  0
   25.9282  -11.2744  -16.1050 C   0  0  2  0  0  0  0  0  0  0  0  0
   26.1495  -10.2920  -14.9940 C   0  0  0  0  0  0  0  0  0  0  0  0
   24.4607  -11.3570  -16.4988 C   0  0  2  0  0  0  0  0  0  0  0  0
   24.4930  -12.1823  -17.7341 N   0  0  0  0  0  0  0  0  0  0  0  0
   23.9520  -10.0228  -16.7751 C   0  0  0  0  0  0  0  0  0  0  0  0
   24.5060   -9.3261  -17.6724 O   0  0  0  0  0  0  0  0  0  0  0  0
   22.8685   -9.4800  -16.0880 N   0  0  0  0  0  0  0  0  0  0  0  0
   22.3068   -8.1610  -16.3872 C   0  0  1  0  0  0  0  0  0  0  0  0
   20.8509   -8.4220  -16.7887 C   0  0  0  0  0  0  0  0  0  0  0  0
   20.2796   -7.1116  -17.2791 C   0  0  0  0  0  0  0  0  0  0  0  0
   18.8154   -7.2429  -17.6286 C   0  0  0  0  0  0  0  0  0  0  0  0
   18.2717   -5.9870  -18.2448 C   0  0  0  0  0  0  0  0  0  0  0  0
   16.8367   -6.1708  -18.4270 N   0  0  0  0  0  0  0  0  0  0  0  0
   22.2725   -7.3050  -15.1903 C   0  0  0  0  0  0  0  0  0  0  0  0
   22.1268   -7.7007  -14.0136 O   0  0  0  0  0  0  0  0  0  0  0  0
   22.4131   -5.9227  -15.3533 O   0  0  0  0  0  0  0  0  0  0  0  0
  2  1  1  1
  3  2  1  0
  4  3  1  0
  4  5  2  0
  6  5  1  0
  7  8  2  0
  7  6  1  0
  8  4  1  0
  9  2  1  0
 10  9  2  0
 12 11  1  0
 13 15  1  0
 13 12  1  0
 13 14  1  1
 15 16  1  6
 16  9  1  0
 17 15  1  0
 18 17  2  0
 19 17  1  0
 20 26  1  0
 20 19  1  0
 21 22  1  0
 20 21  1  1
 23 24  1  0
 23 22  1  0
 24 25  1  0
 26 28  1  0
 27 26  2  0
M  END
$$$$
