HIK.pdb
     RDKit          3D

 28 28  0  0  1  0  0  0  0  0999 V2000
   28.2255  -21.3604  -15.5616 N   0  0  0  0  0  0  0  0  0  0  0  0
   27.5270  -20.3272  -14.8304 C   0  0  1  0  0  0  0  0  0  0  0  0
   26.9095  -19.2967  -15.7520 C   0  0  0  0  0  0  0  0  0  0  0  0
   27.9012  -18.4865  -16.4721 C   0  0  0  0  0  0  0  0  0  0  0  0
   29.2700  -18.5581  -16.3210 C   0  0  0  0  0  0  0  0  0  0  0  0
   29.8660  -17.6627  -17.1451 N   0  0  0  0  0  0  0  0  0  0  0  0
   28.8627  -17.0534  -17.7906 C   0  0  0  0  0  0  0  0  0  0  0  0
   27.6732  -17.5410  -17.3938 N   0  0  0  0  0  0  0  0  0  0  0  0
   26.5145  -20.9644  -13.9639 C   0  0  0  0  0  0  0  0  0  0  0  0
   25.9311  -21.9991  -14.3626 O   0  0  0  0  0  0  0  0  0  0  0  0
   26.9002  -20.5044   -8.5564 C   0  0  0  0  0  0  0  0  0  0  0  0
   26.6983  -21.1415   -9.9391 C   0  0  0  0  0  0  0  0  0  0  0  0
   25.4008  -20.6494  -10.4638 C   0  0  2  0  0  0  0  0  0  0  0  0
   24.2767  -20.9457   -9.5166 C   0  0  0  0  0  0  0  0  0  0  0  0
   25.0698  -21.0854  -11.8836 C   0  0  2  0  0  0  0  0  0  0  0  0
   26.1572  -20.4658  -12.6846 N   0  0  0  0  0  0  0  0  0  0  0  0
   23.7709  -20.5558  -12.2682 C   0  0  0  0  0  0  0  0  0  0  0  0
   23.5567  -19.3146  -12.1645 O   0  0  0  0  0  0  0  0  0  0  0  0
   22.7480  -21.3675  -12.7533 N   0  0  0  0  0  0  0  0  0  0  0  0
   21.4188  -20.8617  -13.1031 C   0  0  1  0  0  0  0  0  0  0  0  0
   20.6440  -22.0801  -13.6173 C   0  0  0  0  0  0  0  0  0  0  0  0
   19.2563  -21.6064  -13.9836 C   0  0  0  0  0  0  0  0  0  0  0  0
   18.4081  -22.7383  -14.5152 C   0  0  0  0  0  0  0  0  0  0  0  0
   17.0616  -22.2609  -14.9756 C   0  0  0  0  0  0  0  0  0  0  0  0
   16.3295  -23.4197  -15.4730 N   0  0  0  0  0  0  0  0  0  0  0  0
   20.7000  -20.3682  -11.9173 C   0  0  0  0  0  0  0  0  0  0  0  0
   20.6790  -20.9180  -10.7949 O   0  0  0  0  0  0  0  0  0  0  0  0
   19.9672  -19.1815  -12.0260 O   0  0  0  0  0  0  0  0  0  0  0  0
  2  1  1  6
  3  2  1  0
  4  3  1  0
  4  5  2  0
  6  5  1  0
  7  8  2  0
  7  6  1  0
  8  4  1  0
  9  2  1  0
 10  9  2  0
 12 11  1  0
 13 15  1  0
 13 12  1  0
 13 14  1  1
 15 16  1  6
 16  9  1  0
 17 15  1  0
 18 17  2  0
 19 17  1  0
 20 26  1  0
 20 19  1  0
 21 22  1  0
 20 21  1  1
 23 24  1  0
 23 22  1  0
 24 25  1  0
 26 28  1  0
 27 26  2  0
M  END
$$$$
