HIK.pdb
     RDKit          3D

 28 28  0  0  1  0  0  0  0  0999 V2000
   43.6591  -10.9470   -7.2604 N   0  0  0  0  0  0  0  0  0  0  0  0
   42.5938  -10.3130   -6.5166 C   0  0  1  0  0  0  0  0  0  0  0  0
   43.0648   -9.0650   -5.8004 C   0  0  0  0  0  0  0  0  0  0  0  0
   44.1068   -9.3236   -4.7976 C   0  0  0  0  0  0  0  0  0  0  0  0
   45.3702   -8.7712   -4.7807 C   0  0  0  0  0  0  0  0  0  0  0  0
   46.0569   -9.2390   -3.7104 N   0  0  0  0  0  0  0  0  0  0  0  0
   45.2128  -10.0696   -3.0840 C   0  0  0  0  0  0  0  0  0  0  0  0
   44.0340  -10.1293   -3.7294 N   0  0  0  0  0  0  0  0  0  0  0  0
   41.4781  -10.0264   -7.4414 C   0  0  0  0  0  0  0  0  0  0  0  0
   41.7257   -9.8042   -8.6493 O   0  0  0  0  0  0  0  0  0  0  0  0
   36.6914  -12.2145   -6.6461 C   0  0  0  0  0  0  0  0  0  0  0  0
   37.9146  -11.6880   -7.4110 C   0  0  0  0  0  0  0  0  0  0  0  0
   37.8112  -10.2083   -7.4391 C   0  0  2  0  0  0  0  0  0  0  0  0
   36.5768   -9.7570   -8.1611 C   0  0  0  0  0  0  0  0  0  0  0  0
   39.0519   -9.4824   -7.9383 C   0  0  2  0  0  0  0  0  0  0  0  0
   40.1191   -9.9872   -7.0360 N   0  0  0  0  0  0  0  0  0  0  0  0
   38.8742   -8.0469   -7.7852 C   0  0  0  0  0  0  0  0  0  0  0  0
   38.4488   -7.5930   -6.6850 O   0  0  0  0  0  0  0  0  0  0  0  0
   39.1600   -7.1462   -8.8087 N   0  0  0  0  0  0  0  0  0  0  0  0
   38.9913   -5.6977   -8.6741 C   0  0  1  0  0  0  0  0  0  0  0  0
   40.4102   -5.1193   -8.7114 C   0  0  0  0  0  0  0  0  0  0  0  0
   40.2954   -3.6341   -8.4562 C   0  0  0  0  0  0  0  0  0  0  0  0
   41.6551   -2.9795   -8.3794 C   0  0  0  0  0  0  0  0  0  0  0  0
   41.5531   -1.5048   -8.1195 C   0  0  0  0  0  0  0  0  0  0  0  0
   42.9076   -0.9921   -7.9508 N   0  0  0  0  0  0  0  0  0  0  0  0
   38.2686   -5.1294   -9.8235 C   0  0  0  0  0  0  0  0  0  0  0  0
   37.7762   -3.9820   -9.8816 O   0  0  0  0  0  0  0  0  0  0  0  0
   38.1027   -5.9200  -10.9656 O   0  0  0  0  0  0  0  0  0  0  0  0
  2  1  1  6
  3  2  1  0
  4  3  1  0
  4  5  2  0
  6  5  1  0
  7  8  2  0
  7  6  1  0
  8  4  1  0
  9  2  1  0
 10  9  2  0
 12 11  1  0
 13 15  1  0
 13 12  1  0
 13 14  1  6
 15 16  1  1
 16  9  1  0
 17 15  1  0
 18 17  2  0
 19 17  1  0
 20 26  1  0
 20 19  1  0
 21 22  1  0
 20 21  1  6
 23 24  1  0
 23 22  1  0
 24 25  1  0
 26 28  1  0
 27 26  2  0
M  END
$$$$
