HIK.pdb
     RDKit          3D

 28 28  0  0  1  0  0  0  0  0999 V2000
   25.7111  -34.7233  -13.5289 N   0  0  0  0  0  0  0  0  0  0  0  0
   25.6751  -35.3747  -12.2389 C   0  0  1  0  0  0  0  0  0  0  0  0
   26.3759  -36.7167  -12.2597 C   0  0  0  0  0  0  0  0  0  0  0  0
   25.6662  -37.7356  -13.0448 C   0  0  0  0  0  0  0  0  0  0  0  0
   24.7280  -38.6231  -12.5614 C   0  0  0  0  0  0  0  0  0  0  0  0
   24.2881  -39.4140  -13.5698 N   0  0  0  0  0  0  0  0  0  0  0  0
   24.9569  -39.0065  -14.6567 C   0  0  0  0  0  0  0  0  0  0  0  0
   25.7908  -37.9953  -14.3534 N   0  0  0  0  0  0  0  0  0  0  0  0
   26.2623  -34.4650  -11.2341 C   0  0  0  0  0  0  0  0  0  0  0  0
   27.2906  -33.8116  -11.5265 O   0  0  0  0  0  0  0  0  0  0  0  0
   23.2106  -31.0403   -8.9642 C   0  0  0  0  0  0  0  0  0  0  0  0
   24.4251  -31.7332   -9.5995 C   0  0  0  0  0  0  0  0  0  0  0  0
   25.1019  -32.5031   -8.5270 C   0  0  2  0  0  0  0  0  0  0  0  0
   25.4237  -31.6357   -7.3469 C   0  0  0  0  0  0  0  0  0  0  0  0
   26.3093  -33.3133   -8.9756 C   0  0  2  0  0  0  0  0  0  0  0  0
   25.7216  -34.2840   -9.9350 N   0  0  0  0  0  0  0  0  0  0  0  0
   26.8925  -33.9970   -7.8320 C   0  0  0  0  0  0  0  0  0  0  0  0
   26.1647  -34.7573   -7.1323 O   0  0  0  0  0  0  0  0  0  0  0  0
   28.2315  -33.8491   -7.4773 N   0  0  0  0  0  0  0  0  0  0  0  0
   28.8416  -34.5391   -6.3387 C   0  0  1  0  0  0  0  0  0  0  0  0
   30.3096  -34.0985   -6.3371 C   0  0  0  0  0  0  0  0  0  0  0  0
   31.0117  -34.8834   -5.2530 C   0  0  0  0  0  0  0  0  0  0  0  0
   32.4970  -34.6060   -5.2431 C   0  0  0  0  0  0  0  0  0  0  0  0
   33.1855  -35.2818   -4.0934 C   0  0  0  0  0  0  0  0  0  0  0  0
   34.5882  -34.8849   -4.1246 N   0  0  0  0  0  0  0  0  0  0  0  0
   28.2605  -34.0921   -5.0623 C   0  0  0  0  0  0  0  0  0  0  0  0
   27.9003  -32.9259   -4.7928 O   0  0  0  0  0  0  0  0  0  0  0  0
   28.0839  -35.0333   -4.0426 O   0  0  0  0  0  0  0  0  0  0  0  0
  2  1  1  6
  3  2  1  0
  4  3  1  0
  4  5  2  0
  6  5  1  0
  7  8  2  0
  7  6  1  0
  8  4  1  0
  9  2  1  0
 10  9  2  0
 12 11  1  0
 13 15  1  0
 13 12  1  0
 13 14  1  1
 15 16  1  6
 16  9  1  0
 17 15  1  0
 18 17  2  0
 19 17  1  0
 20 26  1  0
 20 19  1  0
 21 22  1  0
 20 21  1  1
 23 24  1  0
 23 22  1  0
 24 25  1  0
 26 28  1  0
 27 26  2  0
M  END
$$$$
