HIK.pdb
     RDKit          3D

 28 28  0  0  1  0  0  0  0  0999 V2000
   28.3048  -20.3272  -16.8675 N   0  0  0  0  0  0  0  0  0  0  0  0
   27.2729  -19.5579  -16.2093 C   0  0  1  0  0  0  0  0  0  0  0  0
   26.3978  -18.8170  -17.1981 C   0  0  0  0  0  0  0  0  0  0  0  0
   27.0938  -17.7253  -17.8924 C   0  0  0  0  0  0  0  0  0  0  0  0
   26.9788  -16.3808  -17.6085 C   0  0  0  0  0  0  0  0  0  0  0  0
   27.7647  -15.6690  -18.4520 N   0  0  0  0  0  0  0  0  0  0  0  0
   28.3515  -16.5785  -19.2413 C   0  0  0  0  0  0  0  0  0  0  0  0
   27.9554  -17.8219  -18.9141 N   0  0  0  0  0  0  0  0  0  0  0  0
   26.4837  -20.4643  -15.3505 C   0  0  0  0  0  0  0  0  0  0  0  0
   26.1321  -21.5804  -15.7983 O   0  0  0  0  0  0  0  0  0  0  0  0
   25.8959  -21.2592   -9.4005 C   0  0  0  0  0  0  0  0  0  0  0  0
   25.2721  -21.7001  -10.7328 C   0  0  0  0  0  0  0  0  0  0  0  0
   25.7992  -20.7963  -11.7846 C   0  0  2  0  0  0  0  0  0  0  0  0
   25.6119  -19.3551  -11.4156 C   0  0  0  0  0  0  0  0  0  0  0  0
   25.3032  -21.0852  -13.1939 C   0  0  2  0  0  0  0  0  0  0  0  0
   26.0933  -20.1405  -14.0255 N   0  0  0  0  0  0  0  0  0  0  0  0
   23.8808  -20.7945  -13.2817 C   0  0  0  0  0  0  0  0  0  0  0  0
   23.4972  -19.5903  -13.2810 O   0  0  0  0  0  0  0  0  0  0  0  0
   22.9183  -21.7976  -13.3709 N   0  0  0  0  0  0  0  0  0  0  0  0
   21.4810  -21.5269  -13.4474 C   0  0  1  0  0  0  0  0  0  0  0  0
   20.8028  -22.8932  -13.2977 C   0  0  0  0  0  0  0  0  0  0  0  0
   19.3136  -22.6707  -13.4270 C   0  0  0  0  0  0  0  0  0  0  0  0
   18.5422  -23.9522  -13.2128 C   0  0  0  0  0  0  0  0  0  0  0  0
   17.0606  -23.7397  -13.3241 C   0  0  0  0  0  0  0  0  0  0  0  0
   16.4092  -25.0077  -13.0180 N   0  0  0  0  0  0  0  0  0  0  0  0
   21.0270  -20.6992  -12.3181 C   0  0  0  0  0  0  0  0  0  0  0  0
   21.3273  -20.8743  -11.1174 O   0  0  0  0  0  0  0  0  0  0  0  0
   20.1844  -19.6140  -12.5814 O   0  0  0  0  0  0  0  0  0  0  0  0
  2  1  1  6
  3  2  1  0
  4  3  1  0
  4  5  2  0
  6  5  1  0
  7  8  2  0
  7  6  1  0
  8  4  1  0
  9  2  1  0
 10  9  2  0
 12 11  1  0
 13 15  1  0
 13 12  1  0
 13 14  1  1
 15 16  1  6
 16  9  1  0
 17 15  1  0
 18 17  2  0
 19 17  1  0
 20 26  1  0
 20 19  1  0
 21 22  1  0
 20 21  1  1
 23 24  1  0
 23 22  1  0
 24 25  1  0
 26 28  1  0
 27 26  2  0
M  END
$$$$
