HIK.pdb
     RDKit          3D

 28 28  0  0  1  0  0  0  0  0999 V2000
   21.8504  -14.2502  -16.3448 N   0  0  0  0  0  0  0  0  0  0  0  0
   21.7334  -12.9446  -16.9543 C   0  0  1  0  0  0  0  0  0  0  0  0
   20.2894  -12.5537  -17.1886 C   0  0  0  0  0  0  0  0  0  0  0  0
   19.6041  -13.4061  -18.1695 C   0  0  0  0  0  0  0  0  0  0  0  0
   19.0784  -14.6579  -17.9283 C   0  0  0  0  0  0  0  0  0  0  0  0
   18.5235  -15.1448  -19.0644 N   0  0  0  0  0  0  0  0  0  0  0  0
   18.7130  -14.1924  -19.9872 C   0  0  0  0  0  0  0  0  0  0  0  0
   19.3633  -13.1390  -19.4603 N   0  0  0  0  0  0  0  0  0  0  0  0
   22.4363  -11.9621  -16.1044 C   0  0  0  0  0  0  0  0  0  0  0  0
   22.2141  -11.9491  -14.8714 O   0  0  0  0  0  0  0  0  0  0  0  0
   26.3995  -11.6853  -14.7706 C   0  0  0  0  0  0  0  0  0  0  0  0
   26.0852  -11.2912  -16.2213 C   0  0  0  0  0  0  0  0  0  0  0  0
   25.4253   -9.9631  -16.1821 C   0  0  2  0  0  0  0  0  0  0  0  0
   26.2341   -8.9700  -15.4023 C   0  0  0  0  0  0  0  0  0  0  0  0
   23.9701   -9.9765  -15.7375 C   0  0  2  0  0  0  0  0  0  0  0  0
   23.3645  -11.0157  -16.6100 N   0  0  0  0  0  0  0  0  0  0  0  0
   23.3710   -8.6742  -15.9831 C   0  0  0  0  0  0  0  0  0  0  0  0
   23.5646   -8.1073  -17.0960 O   0  0  0  0  0  0  0  0  0  0  0  0
   22.5836   -8.0242  -15.0354 N   0  0  0  0  0  0  0  0  0  0  0  0
   22.0356   -6.6803  -15.2318 C   0  0  1  0  0  0  0  0  0  0  0  0
   20.5223   -6.8274  -15.0384 C   0  0  0  0  0  0  0  0  0  0  0  0
   19.8625   -6.4067  -16.3314 C   0  0  0  0  0  0  0  0  0  0  0  0
   18.3563   -6.4111  -16.2105 C   0  0  0  0  0  0  0  0  0  0  0  0
   17.6879   -6.1387  -17.5265 C   0  0  0  0  0  0  0  0  0  0  0  0
   16.2508   -6.2883  -17.3303 N   0  0  0  0  0  0  0  0  0  0  0  0
   22.5095   -5.7477  -14.1963 C   0  0  0  0  0  0  0  0  0  0  0  0
   22.7124   -6.0313  -12.9959 O   0  0  0  0  0  0  0  0  0  0  0  0
   22.7636   -4.4205  -14.5581 O   0  0  0  0  0  0  0  0  0  0  0  0
  2  1  1  1
  3  2  1  0
  4  3  1  0
  4  5  2  0
  6  5  1  0
  7  8  2  0
  7  6  1  0
  8  4  1  0
  9  2  1  0
 10  9  2  0
 12 11  1  0
 13 15  1  0
 13 12  1  0
 13 14  1  1
 15 16  1  6
 16  9  1  0
 17 15  1  0
 18 17  2  0
 19 17  1  0
 20 26  1  0
 20 19  1  0
 21 22  1  0
 20 21  1  1
 23 24  1  0
 23 22  1  0
 24 25  1  0
 26 28  1  0
 27 26  2  0
M  END
$$$$
