GHS.pdb
     RDKit          3D

 21 21  0  0  1  0  0  0  0  0999 V2000
    5.6697  -18.7210   19.6148 N   0  0  0  0  0  0  0  0  0  0  0  0
    5.3809  -17.6965   20.5709 C   0  0  0  0  0  0  0  0  0  0  0  0
    6.6321  -17.0552   21.0976 C   0  0  0  0  0  0  0  0  0  0  0  0
    7.6710  -17.7487   21.1904 O   0  0  0  0  0  0  0  0  0  0  0  0
    6.6575  -15.7081   21.4830 N   0  0  0  0  0  0  0  0  0  0  0  0
    7.7989  -15.0022   21.9758 C   0  0  1  0  0  0  0  0  0  0  0  0
    7.9310  -13.5778   21.4551 C   0  0  0  0  0  0  0  0  0  0  0  0
    8.0942  -13.5516   19.9788 C   0  0  0  0  0  0  0  0  0  0  0  0
    7.3904  -12.8421   19.0369 C   0  0  0  0  0  0  0  0  0  0  0  0
    7.8722  -13.1001   17.8013 N   0  0  0  0  0  0  0  0  0  0  0  0
    8.8734  -13.9687   17.9817 C   0  0  0  0  0  0  0  0  0  0  0  0
    9.0305  -14.2574   19.2689 N   0  0  0  0  0  0  0  0  0  0  0  0
    7.8974  -15.1063   23.4353 C   0  0  0  0  0  0  0  0  0  0  0  0
    7.8662  -14.0847   24.1995 O   0  0  0  0  0  0  0  0  0  0  0  0
    5.9648  -17.3367   25.5352 O   0  0  0  0  0  0  0  0  0  0  0  0
    7.2240  -17.5095   26.0692 C   0  0  0  0  0  0  0  0  0  0  0  0
    8.1832  -16.4659   25.5273 C   0  0  2  0  0  0  0  0  0  0  0  0
    8.0347  -16.3627   24.0888 N   0  0  0  0  0  0  0  0  0  0  0  0
    9.5770  -16.9186   25.8741 C   0  0  0  0  0  0  0  0  0  0  0  0
   10.3952  -17.1902   24.9610 O   0  0  0  0  0  0  0  0  0  0  0  0
    9.9891  -17.0461   27.1717 O   0  0  0  0  0  0  0  0  0  0  0  0
  2  1  1  0
  3  4  2  0
  3  2  1  0
  5  3  1  0
  6  5  1  0
  7  8  1  0
  6  7  1  1
  8 12  1  0
  9  8  2  0
  9 10  1  0
 10 11  1  0
 12 11  2  0
 13 18  1  0
 13  6  1  0
 14 13  2  0
 15 16  1  0
 17 16  1  6
 17 19  1  0
 17 18  1  0
 19 21  1  0
 20 19  2  0
M  END
$$$$
