GHS.pdb
     RDKit          3D

 21 21  0  0  1  0  0  0  0  0999 V2000
    8.8282  -19.3034   11.8118 N   0  0  0  0  0  0  0  0  0  0  0  0
    9.7033  -19.2341   12.9416 C   0  0  0  0  0  0  0  0  0  0  0  0
    9.4701  -20.3667   13.8991 C   0  0  0  0  0  0  0  0  0  0  0  0
    8.3291  -20.5104   14.3953 O   0  0  0  0  0  0  0  0  0  0  0  0
   10.4963  -21.2567   14.2437 N   0  0  0  0  0  0  0  0  0  0  0  0
   10.3724  -22.3703   15.1316 C   0  0  1  0  0  0  0  0  0  0  0  0
   10.8502  -23.6941   14.5513 C   0  0  0  0  0  0  0  0  0  0  0  0
    9.9996  -24.1272   13.4131 C   0  0  0  0  0  0  0  0  0  0  0  0
   10.2349  -24.0310   12.0635 C   0  0  0  0  0  0  0  0  0  0  0  0
    9.2031  -24.5602   11.3704 N   0  0  0  0  0  0  0  0  0  0  0  0
    8.3315  -24.9831   12.2930 C   0  0  0  0  0  0  0  0  0  0  0  0
    8.7778  -24.7392   13.5203 N   0  0  0  0  0  0  0  0  0  0  0  0
   10.9429  -22.0651   16.4478 C   0  0  0  0  0  0  0  0  0  0  0  0
   12.1235  -21.6030   16.5933 O   0  0  0  0  0  0  0  0  0  0  0  0
    8.5071  -22.1334   19.7654 O   0  0  0  0  0  0  0  0  0  0  0  0
    9.6117  -21.3091   19.7977 C   0  0  0  0  0  0  0  0  0  0  0  0
   10.7292  -21.8778   18.9430 C   0  0  2  0  0  0  0  0  0  0  0  0
   10.2067  -22.2685   17.6483 N   0  0  0  0  0  0  0  0  0  0  0  0
   11.2761  -23.0802   19.6663 C   0  0  0  0  0  0  0  0  0  0  0  0
   11.0723  -24.2332   19.2126 O   0  0  0  0  0  0  0  0  0  0  0  0
   11.9994  -22.9570   20.8202 O   0  0  0  0  0  0  0  0  0  0  0  0
  2  1  1  0
  3  4  2  0
  3  2  1  0
  5  3  1  0
  6  5  1  0
  7  8  1  0
  6  7  1  6
  8 12  1  0
  9  8  2  0
  9 10  1  0
 10 11  1  0
 12 11  2  0
 13 18  1  0
 13  6  1  0
 14 13  2  0
 15 16  1  0
 17 16  1  1
 17 19  1  0
 17 18  1  0
 19 21  1  0
 20 19  2  0
M  END
$$$$
