GHS.pdb
     RDKit          3D

 21 21  0  0  1  0  0  0  0  0999 V2000
    7.0132  -20.4616   16.9397 N   0  0  0  0  0  0  0  0  0  0  0  0
    6.9477  -20.4294   18.3687 C   0  0  0  0  0  0  0  0  0  0  0  0
    7.7246  -19.2774   18.9375 C   0  0  0  0  0  0  0  0  0  0  0  0
    8.9738  -19.2905   18.8473 O   0  0  0  0  0  0  0  0  0  0  0  0
    7.0829  -18.1990   19.5612 N   0  0  0  0  0  0  0  0  0  0  0  0
    7.7293  -17.0538   20.1220 C   0  0  1  0  0  0  0  0  0  0  0  0
    6.8177  -15.8511   20.3213 C   0  0  0  0  0  0  0  0  0  0  0  0
    7.5946  -14.5876   20.4023 C   0  0  0  0  0  0  0  0  0  0  0  0
    8.9450  -14.3842   20.2569 C   0  0  0  0  0  0  0  0  0  0  0  0
    9.2375  -13.0725   20.3951 N   0  0  0  0  0  0  0  0  0  0  0  0
    8.0671  -12.4671   20.6256 C   0  0  0  0  0  0  0  0  0  0  0  0
    7.0688  -13.3434   20.6359 N   0  0  0  0  0  0  0  0  0  0  0  0
    8.5000  -17.4120   21.3172 C   0  0  0  0  0  0  0  0  0  0  0  0
    8.0182  -18.1332   22.2534 O   0  0  0  0  0  0  0  0  0  0  0  0
   12.4995  -16.3735   21.5741 O   0  0  0  0  0  0  0  0  0  0  0  0
   12.0867  -17.4946   22.2621 C   0  0  0  0  0  0  0  0  0  0  0  0
   10.6256  -17.3744   22.6540 C   0  0  2  0  0  0  0  0  0  0  0  0
    9.8403  -16.9725   21.5035 N   0  0  0  0  0  0  0  0  0  0  0  0
   10.5380  -16.3280   23.7334 C   0  0  0  0  0  0  0  0  0  0  0  0
    9.9189  -15.2562   23.5213 O   0  0  0  0  0  0  0  0  0  0  0  0
   11.1198  -16.5081   24.9577 O   0  0  0  0  0  0  0  0  0  0  0  0
  2  1  1  0
  3  4  2  0
  3  2  1  0
  5  3  1  0
  6  5  1  0
  7  8  1  0
  6  7  1  1
  8 12  1  0
  9  8  2  0
  9 10  1  0
 10 11  1  0
 12 11  2  0
 13 18  1  0
 13  6  1  0
 14 13  2  0
 15 16  1  0
 17 16  1  6
 17 19  1  0
 17 18  1  0
 19 21  1  0
 20 19  2  0
M  END
$$$$
