GHS.pdb
     RDKit          3D

 21 21  0  0  1  0  0  0  0  0999 V2000
    7.5937  -19.4600   18.3359 N   0  0  0  0  0  0  0  0  0  0  0  0
    7.2397  -18.8559   19.5836 C   0  0  0  0  0  0  0  0  0  0  0  0
    8.1733  -17.7380   19.9478 C   0  0  0  0  0  0  0  0  0  0  0  0
    9.4058  -17.9143   19.8118 O   0  0  0  0  0  0  0  0  0  0  0  0
    7.6944  -16.5132   20.4321 N   0  0  0  0  0  0  0  0  0  0  0  0
    8.4999  -15.4151   20.8670 C   0  0  1  0  0  0  0  0  0  0  0  0
    7.8781  -14.0458   20.6303 C   0  0  0  0  0  0  0  0  0  0  0  0
    7.7686  -13.7419   19.1804 C   0  0  0  0  0  0  0  0  0  0  0  0
    8.4820  -12.8469   18.4214 C   0  0  0  0  0  0  0  0  0  0  0  0
    8.0715  -12.8935   17.1351 N   0  0  0  0  0  0  0  0  0  0  0  0
    7.1050  -13.8178   17.1011 C   0  0  0  0  0  0  0  0  0  0  0  0
    6.9012  -14.3417   18.3047 N   0  0  0  0  0  0  0  0  0  0  0  0
    8.9739  -15.6162   22.2402 C   0  0  0  0  0  0  0  0  0  0  0  0
    8.1914  -15.5831   23.2478 O   0  0  0  0  0  0  0  0  0  0  0  0
   10.7571  -18.4611   23.3531 O   0  0  0  0  0  0  0  0  0  0  0  0
   10.3721  -17.5302   24.2942 C   0  0  0  0  0  0  0  0  0  0  0  0
   10.8055  -16.1369   23.8776 C   0  0  2  0  0  0  0  0  0  0  0  0
   10.3450  -15.8618   22.5307 N   0  0  0  0  0  0  0  0  0  0  0  0
   12.3102  -16.1040   23.9284 C   0  0  0  0  0  0  0  0  0  0  0  0
   12.9726  -15.9836   22.8684 O   0  0  0  0  0  0  0  0  0  0  0  0
   12.9916  -16.2027   25.1099 O   0  0  0  0  0  0  0  0  0  0  0  0
  2  1  1  0
  3  4  2  0
  3  2  1  0
  5  3  1  0
  6  5  1  0
  7  8  1  0
  6  7  1  1
  8 12  1  0
  9  8  2  0
  9 10  1  0
 10 11  1  0
 12 11  2  0
 13 18  1  0
 13  6  1  0
 14 13  2  0
 15 16  1  0
 17 16  1  6
 17 19  1  0
 17 18  1  0
 19 21  1  0
 20 19  2  0
M  END
$$$$
