GHS.pdb
     RDKit          3D

 21 21  0  0  1  0  0  0  0  0999 V2000
    6.8617  -18.3843   17.7268 N   0  0  0  0  0  0  0  0  0  0  0  0
    6.9817  -18.6027   19.1358 C   0  0  0  0  0  0  0  0  0  0  0  0
    8.0314  -17.7225   19.7500 C   0  0  0  0  0  0  0  0  0  0  0  0
    9.2338  -17.9347   19.4709 O   0  0  0  0  0  0  0  0  0  0  0  0
    7.6927  -16.6784   20.6212 N   0  0  0  0  0  0  0  0  0  0  0  0
    8.6137  -15.7844   21.2507 C   0  0  1  0  0  0  0  0  0  0  0  0
    8.1418  -14.3385   21.3170 C   0  0  0  0  0  0  0  0  0  0  0  0
    7.9753  -13.7582   19.9598 C   0  0  0  0  0  0  0  0  0  0  0  0
    8.8098  -12.9195   19.2624 C   0  0  0  0  0  0  0  0  0  0  0  0
    8.2833  -12.6385   18.0503 N   0  0  0  0  0  0  0  0  0  0  0  0
    7.1242  -13.3044   18.0004 C   0  0  0  0  0  0  0  0  0  0  0  0
    6.9124  -13.9814   19.1236 N   0  0  0  0  0  0  0  0  0  0  0  0
    9.0697  -16.3138   22.5401 C   0  0  0  0  0  0  0  0  0  0  0  0
    8.2870  -16.4589   23.5376 O   0  0  0  0  0  0  0  0  0  0  0  0
   10.5770  -19.4749   23.0933 O   0  0  0  0  0  0  0  0  0  0  0  0
   11.4758  -18.6529   23.7391 C   0  0  0  0  0  0  0  0  0  0  0  0
   10.8613  -17.2909   24.0037 C   0  0  2  0  0  0  0  0  0  0  0  0
   10.4223  -16.6995   22.7549 N   0  0  0  0  0  0  0  0  0  0  0  0
   11.9275  -16.4360   24.6364 C   0  0  0  0  0  0  0  0  0  0  0  0
   12.4463  -15.4948   23.9868 O   0  0  0  0  0  0  0  0  0  0  0  0
   12.3573  -16.6534   25.9162 O   0  0  0  0  0  0  0  0  0  0  0  0
  2  1  1  0
  3  4  2  0
  3  2  1  0
  5  3  1  0
  6  5  1  0
  7  8  1  0
  6  7  1  1
  8 12  1  0
  9  8  2  0
  9 10  1  0
 10 11  1  0
 12 11  2  0
 13 18  1  0
 13  6  1  0
 14 13  2  0
 15 16  1  0
 17 16  1  6
 17 19  1  0
 17 18  1  0
 19 21  1  0
 20 19  2  0
M  END
$$$$
