GHS.pdb
     RDKit          3D

 21 21  0  0  1  0  0  0  0  0999 V2000
   10.3437  -17.8983   16.8551 N   0  0  0  0  0  0  0  0  0  0  0  0
    9.4792  -18.0229   17.9883 C   0  0  0  0  0  0  0  0  0  0  0  0
    9.9500  -17.1889   19.1444 C   0  0  0  0  0  0  0  0  0  0  0  0
   11.1333  -16.7785   19.1484 O   0  0  0  0  0  0  0  0  0  0  0  0
    9.0971  -16.8649   20.2082 N   0  0  0  0  0  0  0  0  0  0  0  0
    9.4261  -16.0220   21.3150 C   0  0  1  0  0  0  0  0  0  0  0  0
    8.4986  -14.8283   21.4946 C   0  0  0  0  0  0  0  0  0  0  0  0
    8.3889  -14.0324   20.2452 C   0  0  0  0  0  0  0  0  0  0  0  0
    9.0443  -12.8803   19.8856 C   0  0  0  0  0  0  0  0  0  0  0  0
    8.6585  -12.4891   18.6513 N   0  0  0  0  0  0  0  0  0  0  0  0
    7.7653  -13.4004   18.2498 C   0  0  0  0  0  0  0  0  0  0  0  0
    7.5831  -14.3332   19.1779 N   0  0  0  0  0  0  0  0  0  0  0  0
    9.6195  -16.8058   22.5394 C   0  0  0  0  0  0  0  0  0  0  0  0
    8.7196  -17.5801   23.0076 O   0  0  0  0  0  0  0  0  0  0  0  0
   13.2267  -18.2070   23.4436 O   0  0  0  0  0  0  0  0  0  0  0  0
   12.6020  -17.7695   24.5921 C   0  0  0  0  0  0  0  0  0  0  0  0
   11.1039  -17.6576   24.3773 C   0  0  2  0  0  0  0  0  0  0  0  0
   10.8318  -16.7475   23.2821 N   0  0  0  0  0  0  0  0  0  0  0  0
   10.5088  -17.1257   25.6543 C   0  0  0  0  0  0  0  0  0  0  0  0
    9.9724  -15.9904   25.6728 O   0  0  0  0  0  0  0  0  0  0  0  0
   10.5331  -17.8493   26.8143 O   0  0  0  0  0  0  0  0  0  0  0  0
  2  1  1  0
  3  4  2  0
  3  2  1  0
  5  3  1  0
  6  5  1  0
  7  8  1  0
  6  7  1  1
  8 12  1  0
  9  8  2  0
  9 10  1  0
 10 11  1  0
 12 11  2  0
 13 18  1  0
 13  6  1  0
 14 13  2  0
 15 16  1  0
 17 16  1  1
 17 19  1  0
 17 18  1  0
 19 21  1  0
 20 19  2  0
M  END
$$$$
