GHS.pdb
     RDKit          3D

 21 21  0  0  1  0  0  0  0  0999 V2000
   10.4998  -16.8289   14.0732 N   0  0  0  0  0  0  0  0  0  0  0  0
   10.1966  -17.0759   15.4495 C   0  0  0  0  0  0  0  0  0  0  0  0
   10.9605  -16.1611   16.3626 C   0  0  0  0  0  0  0  0  0  0  0  0
   11.9277  -15.5158   15.8970 O   0  0  0  0  0  0  0  0  0  0  0  0
   10.6136  -16.0183   17.7129 N   0  0  0  0  0  0  0  0  0  0  0  0
   11.2628  -15.1616   18.6554 C   0  0  1  0  0  0  0  0  0  0  0  0
   10.3832  -14.7246   19.8186 C   0  0  0  0  0  0  0  0  0  0  0  0
    9.2106  -13.9426   19.3495 C   0  0  0  0  0  0  0  0  0  0  0  0
    8.9261  -13.4680   18.0926 C   0  0  0  0  0  0  0  0  0  0  0  0
    7.7444  -12.8130   18.0968 N   0  0  0  0  0  0  0  0  0  0  0  0
    7.3003  -12.8840   19.3567 C   0  0  0  0  0  0  0  0  0  0  0  0
    8.1521  -13.5512   20.1276 N   0  0  0  0  0  0  0  0  0  0  0  0
   12.5561  -15.7140   19.0713 C   0  0  0  0  0  0  0  0  0  0  0  0
   12.6758  -16.8869   19.5598 O   0  0  0  0  0  0  0  0  0  0  0  0
   15.9750  -13.5083   18.4379 O   0  0  0  0  0  0  0  0  0  0  0  0
   16.1286  -14.8783   18.4198 C   0  0  0  0  0  0  0  0  0  0  0  0
   15.0550  -15.5485   19.2571 C   0  0  2  0  0  0  0  0  0  0  0  0
   13.7618  -14.9679   18.9533 N   0  0  0  0  0  0  0  0  0  0  0  0
   15.4039  -15.3111   20.7027 C   0  0  0  0  0  0  0  0  0  0  0  0
   14.6172  -14.6700   21.4422 O   0  0  0  0  0  0  0  0  0  0  0  0
   16.5683  -15.7780   21.2469 O   0  0  0  0  0  0  0  0  0  0  0  0
  2  1  1  0
  3  4  2  0
  3  2  1  0
  5  3  1  0
  6  5  1  0
  7  8  1  0
  6  7  1  1
  8 12  1  0
  9  8  2  0
  9 10  1  0
 10 11  1  0
 12 11  2  0
 13 18  1  0
 13  6  1  0
 14 13  2  0
 15 16  1  0
 17 16  1  6
 17 19  1  0
 17 18  1  0
 19 21  1  0
 20 19  2  0
M  END
$$$$
