GHS.pdb
     RDKit          3D

 21 21  0  0  1  0  0  0  0  0999 V2000
    7.0835  -19.4577   19.1865 N   0  0  0  0  0  0  0  0  0  0  0  0
    6.6937  -18.5713   20.2399 C   0  0  0  0  0  0  0  0  0  0  0  0
    7.7316  -17.5171   20.4956 C   0  0  0  0  0  0  0  0  0  0  0  0
    8.8918  -17.6960   20.0591 O   0  0  0  0  0  0  0  0  0  0  0  0
    7.4278  -16.3485   21.2070 N   0  0  0  0  0  0  0  0  0  0  0  0
    8.3495  -15.3047   21.5304 C   0  0  1  0  0  0  0  0  0  0  0  0
    7.8461  -13.9019   21.2199 C   0  0  0  0  0  0  0  0  0  0  0  0
    7.7349  -13.6760   19.7560 C   0  0  0  0  0  0  0  0  0  0  0  0
    8.4373  -12.8123   18.9517 C   0  0  0  0  0  0  0  0  0  0  0  0
    8.0296  -12.9320   17.6693 N   0  0  0  0  0  0  0  0  0  0  0  0
    7.0758  -13.8698   17.6829 C   0  0  0  0  0  0  0  0  0  0  0  0
    6.8771  -14.3326   18.9121 N   0  0  0  0  0  0  0  0  0  0  0  0
    8.8645  -15.4559   22.8953 C   0  0  0  0  0  0  0  0  0  0  0  0
    8.1241  -15.3241   23.9263 O   0  0  0  0  0  0  0  0  0  0  0  0
   10.4803  -18.3853   24.0398 O   0  0  0  0  0  0  0  0  0  0  0  0
   10.1662  -17.3944   24.9454 C   0  0  0  0  0  0  0  0  0  0  0  0
   10.7133  -16.0558   24.4855 C   0  0  2  0  0  0  0  0  0  0  0  0
   10.2306  -15.7608   23.1506 N   0  0  0  0  0  0  0  0  0  0  0  0
   12.2152  -16.1654   24.4819 C   0  0  0  0  0  0  0  0  0  0  0  0
   12.8448  -16.1412   23.3956 O   0  0  0  0  0  0  0  0  0  0  0  0
   12.9292  -16.2925   25.6412 O   0  0  0  0  0  0  0  0  0  0  0  0
  2  1  1  0
  3  4  2  0
  3  2  1  0
  5  3  1  0
  6  5  1  0
  7  8  1  0
  6  7  1  1
  8 12  1  0
  9  8  2  0
  9 10  1  0
 10 11  1  0
 12 11  2  0
 13 18  1  0
 13  6  1  0
 14 13  2  0
 15 16  1  0
 17 16  1  6
 17 19  1  0
 17 18  1  0
 19 21  1  0
 20 19  2  0
M  END
$$$$
