GHS.pdb
     RDKit          3D

 21 21  0  0  1  0  0  0  0  0999 V2000
   14.4662  -14.2267   18.1927 N   0  0  0  0  0  0  0  0  0  0  0  0
   13.3804  -15.1529   18.2949 C   0  0  0  0  0  0  0  0  0  0  0  0
   12.4918  -14.8449   19.4652 C   0  0  0  0  0  0  0  0  0  0  0  0
   12.8696  -13.9907   20.2997 O   0  0  0  0  0  0  0  0  0  0  0  0
   11.2598  -15.4900   19.6383 N   0  0  0  0  0  0  0  0  0  0  0  0
   10.3313  -15.2459   20.6975 C   0  0  1  0  0  0  0  0  0  0  0  0
    8.8716  -15.4427   20.3127 C   0  0  0  0  0  0  0  0  0  0  0  0
    8.5025  -14.6122   19.1377 C   0  0  0  0  0  0  0  0  0  0  0  0
    8.0148  -13.3290   19.0962 C   0  0  0  0  0  0  0  0  0  0  0  0
    7.8223  -12.9435   17.8158 N   0  0  0  0  0  0  0  0  0  0  0  0
    8.1916  -13.9892   17.0677 C   0  0  0  0  0  0  0  0  0  0  0  0
    8.6019  -14.9995   17.8265 N   0  0  0  0  0  0  0  0  0  0  0  0
   10.7191  -15.9607   21.9180 C   0  0  0  0  0  0  0  0  0  0  0  0
   11.4414  -17.0126   21.8967 O   0  0  0  0  0  0  0  0  0  0  0  0
    8.8865  -15.1041   25.4765 O   0  0  0  0  0  0  0  0  0  0  0  0
   10.2128  -15.4466   25.6317 C   0  0  0  0  0  0  0  0  0  0  0  0
   10.7155  -16.2053   24.4174 C   0  0  2  0  0  0  0  0  0  0  0  0
   10.3089  -15.5189   23.2068 N   0  0  0  0  0  0  0  0  0  0  0  0
   10.1026  -17.5800   24.4654 C   0  0  0  0  0  0  0  0  0  0  0  0
    9.2181  -17.9034   23.6347 O   0  0  0  0  0  0  0  0  0  0  0  0
   10.4830  -18.5042   25.3987 O   0  0  0  0  0  0  0  0  0  0  0  0
  2  1  1  0
  3  4  2  0
  3  2  1  0
  5  3  1  0
  6  5  1  0
  7  8  1  0
  6  7  1  6
  8 12  1  0
  9  8  2  0
  9 10  1  0
 10 11  1  0
 12 11  2  0
 13 18  1  0
 13  6  1  0
 14 13  2  0
 15 16  1  0
 17 16  1  1
 17 19  1  0
 17 18  1  0
 19 21  1  0
 20 19  2  0
M  END
$$$$
