WSI.pdb
     RDKit          3D

 29 30  0  0  1  0  0  0  0  0999 V2000
    6.4769  -17.0833   24.2207 N   0  0  0  0  0  0  0  0  0  0  0  0
    7.6887  -16.2282   24.1337 C   0  0  1  0  0  0  0  0  0  0  0  0
    7.7727  -15.5534   25.4542 C   0  0  0  0  0  0  0  0  0  0  0  0
    6.7349  -14.5524   25.6918 C   0  0  0  0  0  0  0  0  0  0  0  0
    5.5471  -14.8529   26.3514 C   0  0  0  0  0  0  0  0  0  0  0  0
    4.8014  -13.7604   26.3901 N   0  0  0  0  0  0  0  0  0  0  0  0
    5.4288  -12.7352   25.7888 C   0  0  0  0  0  0  0  0  0  0  0  0
    5.0856  -11.4080   25.5794 C   0  0  0  0  0  0  0  0  0  0  0  0
    5.9706  -10.5828   24.9276 C   0  0  0  0  0  0  0  0  0  0  0  0
    7.1722  -11.0875   24.4985 C   0  0  0  0  0  0  0  0  0  0  0  0
    7.5381  -12.3869   24.6887 C   0  0  0  0  0  0  0  0  0  0  0  0
    6.6485  -13.2285   25.3467 C   0  0  0  0  0  0  0  0  0  0  0  0
    8.7797  -17.1404   23.7723 C   0  0  0  0  0  0  0  0  0  0  0  0
    8.7340  -18.3263   24.1777 O   0  0  0  0  0  0  0  0  0  0  0  0
   12.0005  -15.4796   21.9317 O   0  0  0  0  0  0  0  0  0  0  0  0
   12.1678  -16.8188   22.1987 C   0  0  0  0  0  0  0  0  0  0  0  0
   11.2274  -17.3559   23.2553 C   0  0  2  0  0  0  0  0  0  0  0  0
    9.9089  -16.7830   22.9835 N   0  0  0  0  0  0  0  0  0  0  0  0
   11.7367  -16.8942   24.5764 C   0  0  0  0  0  0  0  0  0  0  0  0
   12.2852  -15.7653   24.6294 O   0  0  0  0  0  0  0  0  0  0  0  0
   10.1316  -13.9734   28.0130 C   0  0  0  0  0  0  0  0  0  0  0  0
   11.2373  -14.8283   27.4349 C   0  0  0  0  0  0  0  0  0  0  0  0
   10.9102  -16.2981   27.6854 C   0  0  2  0  0  0  0  0  0  0  0  0
   10.9644  -16.5091   29.1831 C   0  0  0  0  0  0  0  0  0  0  0  0
   12.0075  -17.1476   27.0735 C   0  0  2  0  0  0  0  0  0  0  0  0
   11.6403  -17.6459   25.7693 N   0  0  0  0  0  0  0  0  0  0  0  0
   12.2330  -18.2980   27.9711 C   0  0  0  0  0  0  0  0  0  0  0  0
   12.8003  -18.1444   29.0735 O   0  0  0  0  0  0  0  0  0  0  0  0
   11.8034  -19.5498   27.5666 O   0  0  0  0  0  0  0  0  0  0  0  0
  2  1  1  1
  2 13  1  0
  3  2  1  0
  4  3  1  0
  4 12  1  0
  5  6  1  0
  5  4  2  0
  6  7  1  0
  7  8  1  0
  7 12  2  0
  8  9  2  0
  9 10  1  0
 11 10  2  0
 12 11  1  0
 13 14  2  0
 15 16  1  0
 17 16  1  6
 18 13  1  0
 18 17  1  0
 19 17  1  0
 19 20  2  0
 21 22  1  0
 23 22  1  0
 23 25  1  0
 23 24  1  1
 25 26  1  6
 26 19  1  0
 27 25  1  0
 28 27  2  0
 29 27  1  0
M  END
$$$$
