WSI.pdb
     RDKit          3D

 29 30  0  0  1  0  0  0  0  0999 V2000
    6.3143  -18.5462   23.1916 N   0  0  0  0  0  0  0  0  0  0  0  0
    7.1363  -17.4002   23.6584 C   0  0  1  0  0  0  0  0  0  0  0  0
    6.6217  -17.0924   25.0173 C   0  0  0  0  0  0  0  0  0  0  0  0
    6.4791  -15.6666   25.3042 C   0  0  0  0  0  0  0  0  0  0  0  0
    5.6778  -15.1912   26.3378 C   0  0  0  0  0  0  0  0  0  0  0  0
    5.7280  -13.8688   26.3324 N   0  0  0  0  0  0  0  0  0  0  0  0
    6.5257  -13.4276   25.3449 C   0  0  0  0  0  0  0  0  0  0  0  0
    6.9101  -12.1599   24.9346 C   0  0  0  0  0  0  0  0  0  0  0  0
    7.7728  -12.0333   23.8722 C   0  0  0  0  0  0  0  0  0  0  0  0
    8.2346  -13.1605   23.2407 C   0  0  0  0  0  0  0  0  0  0  0  0
    7.8750  -14.4197   23.6198 C   0  0  0  0  0  0  0  0  0  0  0  0
    7.0023  -14.5565   24.6933 C   0  0  0  0  0  0  0  0  0  0  0  0
    8.5275  -17.8540   23.5513 C   0  0  0  0  0  0  0  0  0  0  0  0
    8.7879  -19.0600   23.7763 O   0  0  0  0  0  0  0  0  0  0  0  0
   11.8102  -15.5352   22.3041 O   0  0  0  0  0  0  0  0  0  0  0  0
   11.9698  -16.8239   22.7586 C   0  0  0  0  0  0  0  0  0  0  0  0
   10.9497  -17.2392   23.7961 C   0  0  2  0  0  0  0  0  0  0  0  0
    9.6287  -17.0213   23.2063 N   0  0  0  0  0  0  0  0  0  0  0  0
   11.1444  -16.3616   24.9834 C   0  0  0  0  0  0  0  0  0  0  0  0
   10.3884  -15.3656   25.1043 O   0  0  0  0  0  0  0  0  0  0  0  0
    9.0058  -14.0026   28.1900 C   0  0  0  0  0  0  0  0  0  0  0  0
    9.7350  -15.2972   27.9075 C   0  0  0  0  0  0  0  0  0  0  0  0
   11.1965  -14.9854   27.5960 C   0  0  2  0  0  0  0  0  0  0  0  0
   11.2135  -14.2406   26.2786 C   0  0  0  0  0  0  0  0  0  0  0  0
   11.9334  -16.2933   27.3805 C   0  0  2  0  0  0  0  0  0  0  0  0
   12.1236  -16.5809   25.9786 N   0  0  0  0  0  0  0  0  0  0  0  0
   11.1152  -17.3688   27.9754 C   0  0  0  0  0  0  0  0  0  0  0  0
   10.5375  -18.2054   27.2495 O   0  0  0  0  0  0  0  0  0  0  0  0
   11.0013  -17.4313   29.3532 O   0  0  0  0  0  0  0  0  0  0  0  0
  2  1  1  1
  2 13  1  0
  3  2  1  0
  4  3  1  0
  4 12  1  0
  5  6  1  0
  5  4  2  0
  6  7  1  0
  7  8  1  0
  7 12  2  0
  8  9  2  0
  9 10  1  0
 11 10  2  0
 12 11  1  0
 13 14  2  0
 15 16  1  0
 17 16  1  6
 18 13  1  0
 18 17  1  0
 19 17  1  0
 19 20  2  0
 21 22  1  0
 23 22  1  0
 23 25  1  0
 23 24  1  6
 25 26  1  6
 26 19  1  0
 27 25  1  0
 28 27  2  0
 29 27  1  0
M  END
$$$$
