WSI.pdb
     RDKit          3D

 29 30  0  0  1  0  0  0  0  0999 V2000
    6.4131  -18.6755   24.1336 N   0  0  0  0  0  0  0  0  0  0  0  0
    7.1814  -17.4121   24.2771 C   0  0  1  0  0  0  0  0  0  0  0  0
    6.7970  -16.8833   25.6108 C   0  0  0  0  0  0  0  0  0  0  0  0
    6.4589  -15.4617   25.6260 C   0  0  0  0  0  0  0  0  0  0  0  0
    5.4742  -14.9390   26.4587 C   0  0  0  0  0  0  0  0  0  0  0  0
    5.3778  -13.6393   26.2290 N   0  0  0  0  0  0  0  0  0  0  0  0
    6.2510  -13.2583   25.2811 C   0  0  0  0  0  0  0  0  0  0  0  0
    6.5458  -12.0319   24.7046 C   0  0  0  0  0  0  0  0  0  0  0  0
    7.5283  -11.9620   23.7461 C   0  0  0  0  0  0  0  0  0  0  0  0
    8.1953  -13.1037   23.3798 C   0  0  0  0  0  0  0  0  0  0  0  0
    7.9283  -14.3233   23.9272 C   0  0  0  0  0  0  0  0  0  0  0  0
    6.9356  -14.4029   24.8973 C   0  0  0  0  0  0  0  0  0  0  0  0
    8.5856  -17.7899   24.0809 C   0  0  0  0  0  0  0  0  0  0  0  0
    9.0002  -18.8578   24.5913 O   0  0  0  0  0  0  0  0  0  0  0  0
   11.4449  -15.0332   22.7577 O   0  0  0  0  0  0  0  0  0  0  0  0
   11.6729  -16.3653   22.5003 C   0  0  0  0  0  0  0  0  0  0  0  0
   10.9683  -17.3040   23.4551 C   0  0  2  0  0  0  0  0  0  0  0  0
    9.5357  -17.0286   23.3442 N   0  0  0  0  0  0  0  0  0  0  0  0
   11.4574  -16.9892   24.8260 C   0  0  0  0  0  0  0  0  0  0  0  0
   12.6994  -16.9716   25.0139 O   0  0  0  0  0  0  0  0  0  0  0  0
    8.5552  -13.5120   27.8670 C   0  0  0  0  0  0  0  0  0  0  0  0
    9.7331  -14.2066   27.2207 C   0  0  0  0  0  0  0  0  0  0  0  0
   10.0206  -15.5016   27.9761 C   0  0  2  0  0  0  0  0  0  0  0  0
   10.6210  -15.1068   29.3081 C   0  0  0  0  0  0  0  0  0  0  0  0
   11.0818  -16.2764   27.2186 C   0  0  2  0  0  0  0  0  0  0  0  0
   10.6124  -16.7096   25.9238 N   0  0  0  0  0  0  0  0  0  0  0  0
   11.4199  -17.4691   28.0205 C   0  0  0  0  0  0  0  0  0  0  0  0
   12.1527  -17.3728   29.0277 O   0  0  0  0  0  0  0  0  0  0  0  0
   10.9088  -18.6956   27.6339 O   0  0  0  0  0  0  0  0  0  0  0  0
  2  1  1  1
  2 13  1  0
  3  2  1  0
  4  3  1  0
  4 12  1  0
  5  6  1  0
  5  4  2  0
  6  7  1  0
  7  8  1  0
  7 12  2  0
  8  9  2  0
  9 10  1  0
 11 10  2  0
 12 11  1  0
 13 14  2  0
 15 16  1  0
 17 16  1  6
 18 13  1  0
 18 17  1  0
 19 17  1  0
 19 20  2  0
 21 22  1  0
 23 22  1  0
 23 25  1  0
 23 24  1  1
 25 26  1  6
 26 19  1  0
 27 25  1  0
 28 27  2  0
 29 27  1  0
M  END
$$$$
