WSI.pdb
     RDKit          3D

 29 30  0  0  1  0  0  0  0  0999 V2000
    6.0908  -17.9599   24.4227 N   0  0  0  0  0  0  0  0  0  0  0  0
    7.0263  -16.8102   24.3221 C   0  0  1  0  0  0  0  0  0  0  0  0
    7.1063  -16.2638   25.7009 C   0  0  0  0  0  0  0  0  0  0  0  0
    6.3787  -15.0125   25.9014 C   0  0  0  0  0  0  0  0  0  0  0  0
    5.0579  -14.9805   26.3384 C   0  0  0  0  0  0  0  0  0  0  0  0
    4.6667  -13.7177   26.3976 N   0  0  0  0  0  0  0  0  0  0  0  0
    5.6603  -12.8943   26.0222 C   0  0  0  0  0  0  0  0  0  0  0  0
    5.7596  -11.5145   25.9251 C   0  0  0  0  0  0  0  0  0  0  0  0
    6.9464  -10.9563   25.5141 C   0  0  0  0  0  0  0  0  0  0  0  0
    8.0057  -11.7731   25.2091 C   0  0  0  0  0  0  0  0  0  0  0  0
    7.9394  -13.1321   25.2940 C   0  0  0  0  0  0  0  0  0  0  0  0
    6.7423  -13.7049   25.7084 C   0  0  0  0  0  0  0  0  0  0  0  0
    8.2563  -17.3629   23.7437 C   0  0  0  0  0  0  0  0  0  0  0  0
    8.6349  -18.5021   24.1065 O   0  0  0  0  0  0  0  0  0  0  0  0
   10.6065  -15.1951   21.0762 O   0  0  0  0  0  0  0  0  0  0  0  0
   10.9163  -16.5211   21.2726 C   0  0  0  0  0  0  0  0  0  0  0  0
   10.4800  -17.0603   22.6173 C   0  0  2  0  0  0  0  0  0  0  0  0
    9.0723  -16.6991   22.7852 N   0  0  0  0  0  0  0  0  0  0  0  0
   11.3183  -16.3956   23.6532 C   0  0  0  0  0  0  0  0  0  0  0  0
   11.3360  -15.1397   23.6734 O   0  0  0  0  0  0  0  0  0  0  0  0
   10.3032  -15.0980   28.0980 C   0  0  0  0  0  0  0  0  0  0  0  0
   11.0734  -15.2202   26.8021 C   0  0  0  0  0  0  0  0  0  0  0  0
   12.1113  -16.3304   26.9448 C   0  0  2  0  0  0  0  0  0  0  0  0
   13.0961  -15.8753   28.0000 C   0  0  0  0  0  0  0  0  0  0  0  0
   12.8753  -16.4471   25.6398 C   0  0  2  0  0  0  0  0  0  0  0  0
   12.0916  -17.0893   24.6114 N   0  0  0  0  0  0  0  0  0  0  0  0
   14.0758  -17.2668   25.8984 C   0  0  0  0  0  0  0  0  0  0  0  0
   15.1323  -16.7387   26.3052 O   0  0  0  0  0  0  0  0  0  0  0  0
   14.0070  -18.6317   25.6810 O   0  0  0  0  0  0  0  0  0  0  0  0
  2  1  1  1
  2 13  1  0
  3  2  1  0
  4  3  1  0
  4 12  1  0
  5  6  1  0
  5  4  2  0
  6  7  1  0
  7  8  1  0
  7 12  2  0
  8  9  2  0
  9 10  1  0
 11 10  2  0
 12 11  1  0
 13 14  2  0
 15 16  1  0
 17 16  1  6
 18 13  1  0
 18 17  1  0
 19 17  1  0
 19 20  2  0
 21 22  1  0
 23 22  1  0
 23 25  1  0
 23 24  1  1
 25 26  1  6
 26 19  1  0
 27 25  1  0
 28 27  2  0
 29 27  1  0
M  END
$$$$
