WSI.pdb
     RDKit          3D

 29 30  0  0  1  0  0  0  0  0999 V2000
    6.3185  -17.3809   24.8837 N   0  0  0  0  0  0  0  0  0  0  0  0
    7.4489  -16.5366   24.4185 C   0  0  1  0  0  0  0  0  0  0  0  0
    7.8077  -15.7015   25.5933 C   0  0  0  0  0  0  0  0  0  0  0  0
    6.8592  -14.6298   25.8889 C   0  0  0  0  0  0  0  0  0  0  0  0
    5.6434  -14.8651   26.5238 C   0  0  0  0  0  0  0  0  0  0  0  0
    4.9958  -13.7157   26.6278 N   0  0  0  0  0  0  0  0  0  0  0  0
    5.7162  -12.7145   26.0943 C   0  0  0  0  0  0  0  0  0  0  0  0
    5.4924  -11.3518   25.9669 C   0  0  0  0  0  0  0  0  0  0  0  0
    6.4523  -10.5688   25.3716 C   0  0  0  0  0  0  0  0  0  0  0  0
    7.6091  -11.1495   24.9165 C   0  0  0  0  0  0  0  0  0  0  0  0
    7.8582  -12.4853   25.0264 C   0  0  0  0  0  0  0  0  0  0  0  0
    6.8921  -13.2846   25.6270 C   0  0  0  0  0  0  0  0  0  0  0  0
    8.4598  -17.4806   23.9286 C   0  0  0  0  0  0  0  0  0  0  0  0
    8.6390  -18.5520   24.5555 O   0  0  0  0  0  0  0  0  0  0  0  0
   10.7891  -16.2244   20.8256 O   0  0  0  0  0  0  0  0  0  0  0  0
   11.2031  -17.4158   21.3749 C   0  0  0  0  0  0  0  0  0  0  0  0
   10.6826  -17.6597   22.7745 C   0  0  2  0  0  0  0  0  0  0  0  0
    9.2707  -17.2766   22.7772 N   0  0  0  0  0  0  0  0  0  0  0  0
   11.4636  -16.7875   23.6949 C   0  0  0  0  0  0  0  0  0  0  0  0
   11.9004  -15.7009   23.2403 O   0  0  0  0  0  0  0  0  0  0  0  0
   10.3016  -15.9493   28.8557 C   0  0  0  0  0  0  0  0  0  0  0  0
   11.0000  -16.6423   27.7070 C   0  0  0  0  0  0  0  0  0  0  0  0
   11.9111  -15.6399   27.0032 C   0  0  2  0  0  0  0  0  0  0  0  0
   11.0108  -14.6080   26.3590 C   0  0  0  0  0  0  0  0  0  0  0  0
   12.6434  -16.3562   25.8847 C   0  0  2  0  0  0  0  0  0  0  0  0
   11.7416  -17.1066   25.0433 N   0  0  0  0  0  0  0  0  0  0  0  0
   13.5982  -17.2949   26.5070 C   0  0  0  0  0  0  0  0  0  0  0  0
   13.4157  -18.5288   26.4373 O   0  0  0  0  0  0  0  0  0  0  0  0
   14.6991  -16.7803   27.1690 O   0  0  0  0  0  0  0  0  0  0  0  0
  2  1  1  1
  2 13  1  0
  3  2  1  0
  4  3  1  0
  4 12  1  0
  5  6  1  0
  5  4  2  0
  6  7  1  0
  7  8  1  0
  7 12  2  0
  8  9  2  0
  9 10  1  0
 11 10  2  0
 12 11  1  0
 13 14  2  0
 15 16  1  0
 17 16  1  6
 18 13  1  0
 18 17  1  0
 19 17  1  0
 19 20  2  0
 21 22  1  0
 23 22  1  0
 23 25  1  0
 23 24  1  6
 25 26  1  6
 26 19  1  0
 27 25  1  0
 28 27  2  0
 29 27  1  0
M  END
$$$$
