WSI.pdb
     RDKit          3D

 29 30  0  0  1  0  0  0  0  0999 V2000
    6.5999  -17.4723   24.4715 N   0  0  0  0  0  0  0  0  0  0  0  0
    7.6733  -16.4857   24.1861 C   0  0  1  0  0  0  0  0  0  0  0  0
    7.7654  -15.6584   25.4163 C   0  0  0  0  0  0  0  0  0  0  0  0
    6.7371  -14.6266   25.5326 C   0  0  0  0  0  0  0  0  0  0  0  0
    5.4855  -14.8811   26.0850 C   0  0  0  0  0  0  0  0  0  0  0  0
    4.7690  -13.7699   26.0287 N   0  0  0  0  0  0  0  0  0  0  0  0
    5.4768  -12.7761   25.4651 C   0  0  0  0  0  0  0  0  0  0  0  0
    5.1902  -11.4466   25.1939 C   0  0  0  0  0  0  0  0  0  0  0  0
    6.1536  -10.6603   24.6089 C   0  0  0  0  0  0  0  0  0  0  0  0
    7.3759  -11.2050   24.3058 C   0  0  0  0  0  0  0  0  0  0  0  0
    7.6877  -12.5077   24.5593 C   0  0  0  0  0  0  0  0  0  0  0  0
    6.7186  -13.3102   25.1505 C   0  0  0  0  0  0  0  0  0  0  0  0
    8.8476  -17.2871   23.8233 C   0  0  0  0  0  0  0  0  0  0  0  0
    8.9346  -18.4608   24.2564 O   0  0  0  0  0  0  0  0  0  0  0  0
   11.9937  -15.2632   22.1452 O   0  0  0  0  0  0  0  0  0  0  0  0
   12.1574  -16.6286   22.1878 C   0  0  0  0  0  0  0  0  0  0  0  0
   11.2825  -17.3197   23.2106 C   0  0  2  0  0  0  0  0  0  0  0  0
    9.9185  -16.8328   23.0036 N   0  0  0  0  0  0  0  0  0  0  0  0
   11.7806  -16.9250   24.5574 C   0  0  0  0  0  0  0  0  0  0  0  0
   12.7209  -16.0938   24.6124 O   0  0  0  0  0  0  0  0  0  0  0  0
    9.6974  -13.9971   28.1083 C   0  0  0  0  0  0  0  0  0  0  0  0
   10.7568  -14.7915   27.3775 C   0  0  0  0  0  0  0  0  0  0  0  0
   10.7006  -16.2428   27.8474 C   0  0  2  0  0  0  0  0  0  0  0  0
   11.1203  -16.2482   29.3015 C   0  0  0  0  0  0  0  0  0  0  0  0
   11.7378  -17.0391   27.0790 C   0  0  2  0  0  0  0  0  0  0  0  0
   11.2613  -17.4265   25.7724 N   0  0  0  0  0  0  0  0  0  0  0  0
   12.0271  -18.2607   27.8563 C   0  0  0  0  0  0  0  0  0  0  0  0
   12.8031  -18.2244   28.8346 O   0  0  0  0  0  0  0  0  0  0  0  0
   11.4212  -19.4464   27.4793 O   0  0  0  0  0  0  0  0  0  0  0  0
  2  1  1  1
  2 13  1  0
  3  2  1  0
  4  3  1  0
  4 12  1  0
  5  6  1  0
  5  4  2  0
  6  7  1  0
  7  8  1  0
  7 12  2  0
  8  9  2  0
  9 10  1  0
 11 10  2  0
 12 11  1  0
 13 14  2  0
 15 16  1  0
 17 16  1  6
 18 13  1  0
 18 17  1  0
 19 17  1  0
 19 20  2  0
 21 22  1  0
 23 22  1  0
 23 25  1  0
 23 24  1  1
 25 26  1  6
 26 19  1  0
 27 25  1  0
 28 27  2  0
 29 27  1  0
M  END
$$$$
