WSI.pdb
     RDKit          3D

 29 30  0  0  1  0  0  0  0  0999 V2000
    7.9439  -17.4082   20.8254 N   0  0  0  0  0  0  0  0  0  0  0  0
    8.5379  -16.5046   21.8440 C   0  0  1  0  0  0  0  0  0  0  0  0
    7.5476  -15.4091   22.0035 C   0  0  0  0  0  0  0  0  0  0  0  0
    7.4340  -14.5202   20.8492 C   0  0  0  0  0  0  0  0  0  0  0  0
    6.2173  -14.2602   20.2259 C   0  0  0  0  0  0  0  0  0  0  0  0
    6.4352  -13.4484   19.2038 N   0  0  0  0  0  0  0  0  0  0  0  0
    7.7412  -13.1466   19.1067 C   0  0  0  0  0  0  0  0  0  0  0  0
    8.4648  -12.3457   18.2360 C   0  0  0  0  0  0  0  0  0  0  0  0
    9.8225  -12.2239   18.4105 C   0  0  0  0  0  0  0  0  0  0  0  0
   10.4330  -12.8954   19.4395 C   0  0  0  0  0  0  0  0  0  0  0  0
    9.7498  -13.6903   20.3113 C   0  0  0  0  0  0  0  0  0  0  0  0
    8.3760  -13.8193   20.1416 C   0  0  0  0  0  0  0  0  0  0  0  0
    8.7958  -17.3553   23.0113 C   0  0  0  0  0  0  0  0  0  0  0  0
    7.8219  -17.7610   23.6894 O   0  0  0  0  0  0  0  0  0  0  0  0
   12.5874  -18.6440   24.1189 O   0  0  0  0  0  0  0  0  0  0  0  0
   11.4998  -19.1466   24.7952 C   0  0  0  0  0  0  0  0  0  0  0  0
   10.3091  -18.2135   24.8220 C   0  0  2  0  0  0  0  0  0  0  0  0
   10.0867  -17.7664   23.4468 N   0  0  0  0  0  0  0  0  0  0  0  0
   10.6694  -17.0621   25.6950 C   0  0  0  0  0  0  0  0  0  0  0  0
   11.5013  -16.2310   25.2529 O   0  0  0  0  0  0  0  0  0  0  0  0
    7.7797  -13.3554   27.1016 C   0  0  0  0  0  0  0  0  0  0  0  0
    9.0785  -14.1005   26.8888 C   0  0  0  0  0  0  0  0  0  0  0  0
    9.4574  -14.8161   28.1828 C   0  0  2  0  0  0  0  0  0  0  0  0
   10.0308  -13.7672   29.1109 C   0  0  0  0  0  0  0  0  0  0  0  0
   10.5691  -15.8027   27.8807 C   0  0  2  0  0  0  0  0  0  0  0  0
   10.1340  -16.8483   26.9853 N   0  0  0  0  0  0  0  0  0  0  0  0
   10.9786  -16.4173   29.1592 C   0  0  0  0  0  0  0  0  0  0  0  0
   11.6116  -15.7567   30.0098 O   0  0  0  0  0  0  0  0  0  0  0  0
   10.6472  -17.7399   29.3961 O   0  0  0  0  0  0  0  0  0  0  0  0
  2  1  1  6
  2 13  1  0
  3  2  1  0
  4  3  1  0
  4 12  1  0
  5  6  1  0
  5  4  2  0
  6  7  1  0
  7  8  1  0
  7 12  2  0
  8  9  2  0
  9 10  1  0
 11 10  2  0
 12 11  1  0
 13 14  2  0
 15 16  1  0
 17 16  1  6
 18 13  1  0
 18 17  1  0
 19 17  1  0
 19 20  2  0
 21 22  1  0
 23 22  1  0
 23 25  1  0
 23 24  1  1
 25 26  1  6
 26 19  1  0
 27 25  1  0
 28 27  2  0
 29 27  1  0
M  END
$$$$
