SWQ.pdb
     RDKit          3D

 30 31  0  0  1  0  0  0  0  0999 V2000
   27.0266  -19.4385  -15.3807 O   0  0  0  0  0  0  0  0  0  0  0  0
   28.3146  -19.4803  -14.8296 C   0  0  0  0  0  0  0  0  0  0  0  0
   28.5699  -20.9371  -14.4531 C   0  0  2  0  0  0  0  0  0  0  0  0
   28.4283  -21.7800  -15.5991 N   0  0  0  0  0  0  0  0  0  0  0  0
   27.6573  -21.3398  -13.3273 C   0  0  0  0  0  0  0  0  0  0  0  0
   26.7430  -22.1781  -13.4966 O   0  0  0  0  0  0  0  0  0  0  0  0
   27.8486  -20.7511  -12.0598 N   0  0  0  0  0  0  0  0  0  0  0  0
   27.0133  -21.0046  -10.9156 C   0  0  1  0  0  0  0  0  0  0  0  0
   27.6054  -20.2007   -9.7494 C   0  0  0  0  0  0  0  0  0  0  0  0
   26.8213  -20.3413   -8.5180 C   0  0  0  0  0  0  0  0  0  0  0  0
   25.5125  -20.7513   -8.3827 C   0  0  0  0  0  0  0  0  0  0  0  0
   25.1709  -20.7422   -7.0753 N   0  0  0  0  0  0  0  0  0  0  0  0
   26.2225  -20.3355   -6.3387 C   0  0  0  0  0  0  0  0  0  0  0  0
   26.4087  -20.1521   -4.9863 C   0  0  0  0  0  0  0  0  0  0  0  0
   27.6136  -19.7155   -4.4613 C   0  0  0  0  0  0  0  0  0  0  0  0
   28.6344  -19.4665   -5.3422 C   0  0  0  0  0  0  0  0  0  0  0  0
   28.4543  -19.6490   -6.7058 C   0  0  0  0  0  0  0  0  0  0  0  0
   27.2561  -20.0838   -7.2352 C   0  0  0  0  0  0  0  0  0  0  0  0
   25.6737  -20.4198  -11.1640 C   0  0  0  0  0  0  0  0  0  0  0  0
   25.6303  -19.2106  -11.5327 O   0  0  0  0  0  0  0  0  0  0  0  0
   21.0985  -20.2988  -14.8573 N   0  0  0  0  0  0  0  0  0  0  0  0
   22.4620  -20.0073  -14.9619 C   0  0  0  0  0  0  0  0  0  0  0  0
   22.9241  -19.4757  -15.9942 O   0  0  0  0  0  0  0  0  0  0  0  0
   23.4242  -20.3157  -13.8519 C   0  0  0  0  0  0  0  0  0  0  0  0
   22.7372  -20.9754  -12.7085 C   0  0  0  0  0  0  0  0  0  0  0  0
   23.2182  -20.4805  -11.3904 C   0  0  2  0  0  0  0  0  0  0  0  0
   24.4729  -21.1467  -11.0075 N   0  0  0  0  0  0  0  0  0  0  0  0
   22.2200  -20.7271  -10.3280 C   0  0  0  0  0  0  0  0  0  0  0  0
   22.3506  -21.5313   -9.3814 O   0  0  0  0  0  0  0  0  0  0  0  0
   20.9924  -20.0240  -10.3280 O   0  0  0  0  0  0  0  0  0  0  0  0
  2  1  1  0
  3  2  1  0
  3  4  1  6
  5  3  1  0
  5  6  2  0
  7  5  1  0
  8  7  1  0
  9 10  1  0
  8  9  1  1
 10 18  1  0
 11 10  2  0
 11 12  1  0
 12 13  1  0
 13 14  1  0
 14 15  2  0
 16 15  1  0
 17 16  2  0
 18 13  2  0
 18 17  1  0
 19  8  1  0
 19 27  1  0
 20 19  2  0
 21 22  1  0
 22 23  2  0
 22 24  1  0
 24 25  1  0
 26 25  1  6
 26 27  1  0
 26 28  1  0
 28 29  2  0
 28 30  1  0
M  END
$$$$
