SWQ.pdb
     RDKit          3D

 30 31  0  0  1  0  0  0  0  0999 V2000
   27.5504  -10.0059  -19.2819 O   0  0  0  0  0  0  0  0  0  0  0  0
   26.1748   -9.9264  -19.0254 C   0  0  0  0  0  0  0  0  0  0  0  0
   25.8671  -11.0215  -18.0079 C   0  0  2  0  0  0  0  0  0  0  0  0
   26.2248  -12.3028  -18.5315 N   0  0  0  0  0  0  0  0  0  0  0  0
   24.4200  -10.9494  -17.6038 C   0  0  0  0  0  0  0  0  0  0  0  0
   23.5170  -11.4346  -18.3225 O   0  0  0  0  0  0  0  0  0  0  0  0
   24.0898  -10.3183  -16.3863 N   0  0  0  0  0  0  0  0  0  0  0  0
   22.7452  -10.1445  -15.9038 C   0  0  1  0  0  0  0  0  0  0  0  0
   22.6693  -10.8503  -14.5426 C   0  0  0  0  0  0  0  0  0  0  0  0
   22.5535  -12.3064  -14.6731 C   0  0  0  0  0  0  0  0  0  0  0  0
   23.4122  -13.2757  -14.2013 C   0  0  0  0  0  0  0  0  0  0  0  0
   22.9394  -14.4968  -14.5350 N   0  0  0  0  0  0  0  0  0  0  0  0
   21.7863  -14.3614  -15.2176 C   0  0  0  0  0  0  0  0  0  0  0  0
   20.9127  -15.2675  -15.7771 C   0  0  0  0  0  0  0  0  0  0  0  0
   19.7663  -14.8695  -16.4446 C   0  0  0  0  0  0  0  0  0  0  0  0
   19.5214  -13.5234  -16.5342 C   0  0  0  0  0  0  0  0  0  0  0  0
   20.3968  -12.6048  -15.9730 C   0  0  0  0  0  0  0  0  0  0  0  0
   21.5408  -12.9950  -15.3066 C   0  0  0  0  0  0  0  0  0  0  0  0
   22.5222   -8.7063  -15.6206 C   0  0  0  0  0  0  0  0  0  0  0  0
   23.3158   -8.1471  -14.8097 O   0  0  0  0  0  0  0  0  0  0  0  0
   21.0549   -4.6645  -20.3612 N   0  0  0  0  0  0  0  0  0  0  0  0
   21.0126   -5.7561  -19.4885 C   0  0  0  0  0  0  0  0  0  0  0  0
   20.3247   -6.7638  -19.7590 O   0  0  0  0  0  0  0  0  0  0  0  0
   21.7826   -5.7691  -18.2001 C   0  0  0  0  0  0  0  0  0  0  0  0
   20.8703   -5.7427  -17.0247 C   0  0  0  0  0  0  0  0  0  0  0  0
   21.3976   -6.5256  -15.8746 C   0  0  2  0  0  0  0  0  0  0  0  0
   21.4805   -7.9559  -16.2093 N   0  0  0  0  0  0  0  0  0  0  0  0
   20.5335   -6.3780  -14.6840 C   0  0  0  0  0  0  0  0  0  0  0  0
   19.7706   -7.2550  -14.2271 O   0  0  0  0  0  0  0  0  0  0  0  0
   20.5249   -5.1643  -13.9572 O   0  0  0  0  0  0  0  0  0  0  0  0
  2  1  1  0
  3  2  1  0
  3  4  1  6
  5  3  1  0
  5  6  2  0
  7  5  1  0
  8  7  1  0
  9 10  1  0
  8  9  1  1
 10 18  1  0
 11 10  2  0
 11 12  1  0
 12 13  1  0
 13 14  1  0
 14 15  2  0
 16 15  1  0
 17 16  2  0
 18 13  2  0
 18 17  1  0
 19  8  1  0
 19 27  1  0
 20 19  2  0
 21 22  1  0
 22 23  2  0
 22 24  1  0
 24 25  1  0
 26 25  1  6
 26 27  1  0
 26 28  1  0
 28 29  2  0
 28 30  1  0
M  END
$$$$
