SWQ.pdb
     RDKit          3D

 30 31  0  0  1  0  0  0  0  0999 V2000
   13.3361  -21.4430    3.1039 O   0  0  0  0  0  0  0  0  0  0  0  0
   14.0775  -20.2965    3.4208 C   0  0  0  0  0  0  0  0  0  0  0  0
   15.0766  -20.1071    2.2828 C   0  0  2  0  0  0  0  0  0  0  0  0
   15.0131  -21.2100    1.3753 N   0  0  0  0  0  0  0  0  0  0  0  0
   16.4569  -19.9044    2.8451 C   0  0  0  0  0  0  0  0  0  0  0  0
   17.4293  -20.5861    2.4491 O   0  0  0  0  0  0  0  0  0  0  0  0
   16.6430  -18.9212    3.8394 N   0  0  0  0  0  0  0  0  0  0  0  0
   17.9143  -18.6017    4.4333 C   0  0  1  0  0  0  0  0  0  0  0  0
   17.8321  -17.1395    4.8936 C   0  0  0  0  0  0  0  0  0  0  0  0
   18.2027  -16.1973    3.8326 C   0  0  0  0  0  0  0  0  0  0  0  0
   17.5106  -15.0876    3.3977 C   0  0  0  0  0  0  0  0  0  0  0  0
   18.1983  -14.4912    2.3991 N   0  0  0  0  0  0  0  0  0  0  0  0
   19.3314  -15.1788    2.1602 C   0  0  0  0  0  0  0  0  0  0  0  0
   20.3661  -15.0056    1.2677 C   0  0  0  0  0  0  0  0  0  0  0  0
   21.4467  -15.8704    1.2162 C   0  0  0  0  0  0  0  0  0  0  0  0
   21.4573  -16.9229    2.0949 C   0  0  0  0  0  0  0  0  0  0  0  0
   20.4185  -17.1038    2.9968 C   0  0  0  0  0  0  0  0  0  0  0  0
   19.3390  -16.2456    3.0531 C   0  0  0  0  0  0  0  0  0  0  0  0
   18.0769  -19.4013    5.6712 C   0  0  0  0  0  0  0  0  0  0  0  0
   17.0944  -20.1102    6.0346 O   0  0  0  0  0  0  0  0  0  0  0  0
   19.1400  -24.3950    5.9200 N   0  0  0  0  0  0  0  0  0  0  0  0
   19.3524  -24.2269    7.2918 C   0  0  0  0  0  0  0  0  0  0  0  0
   19.4917  -25.2163    8.0424 O   0  0  0  0  0  0  0  0  0  0  0  0
   19.4225  -22.8657    7.9204 C   0  0  0  0  0  0  0  0  0  0  0  0
   19.2489  -21.7917    6.9051 C   0  0  0  0  0  0  0  0  0  0  0  0
   19.3969  -20.4290    7.4840 C   0  0  2  0  0  0  0  0  0  0  0  0
   19.2610  -19.4000    6.4412 N   0  0  0  0  0  0  0  0  0  0  0  0
   20.7156  -20.2613    8.1311 C   0  0  0  0  0  0  0  0  0  0  0  0
   21.6901  -19.6492    7.6457 O   0  0  0  0  0  0  0  0  0  0  0  0
   20.9571  -20.8183    9.4089 O   0  0  0  0  0  0  0  0  0  0  0  0
  2  1  1  0
  3  2  1  0
  3  4  1  6
  5  3  1  0
  5  6  2  0
  7  5  1  0
  8  7  1  0
  9 10  1  0
  8  9  1  1
 10 18  1  0
 11 10  2  0
 11 12  1  0
 12 13  1  0
 13 14  1  0
 14 15  2  0
 16 15  1  0
 17 16  2  0
 18 13  2  0
 18 17  1  0
 19  8  1  0
 19 27  1  0
 20 19  2  0
 21 22  1  0
 22 23  2  0
 22 24  1  0
 24 25  1  0
 26 25  1  6
 26 27  1  0
 26 28  1  0
 28 29  2  0
 28 30  1  0
M  END
$$$$
