SWQ.pdb
     RDKit          3D

 30 31  0  0  1  0  0  0  0  0999 V2000
   27.2920  -18.8731  -14.8113 O   0  0  0  0  0  0  0  0  0  0  0  0
   28.3448  -18.6228  -13.9206 C   0  0  0  0  0  0  0  0  0  0  0  0
   28.8518  -19.9885  -13.4655 C   0  0  2  0  0  0  0  0  0  0  0  0
   29.3215  -20.7438  -14.5848 N   0  0  0  0  0  0  0  0  0  0  0  0
   27.7717  -20.7043  -12.7018 C   0  0  0  0  0  0  0  0  0  0  0  0
   27.1871  -21.7029  -13.1795 O   0  0  0  0  0  0  0  0  0  0  0  0
   27.4214  -20.2278  -11.4211 N   0  0  0  0  0  0  0  0  0  0  0  0
   26.3895  -20.8018  -10.5986 C   0  0  1  0  0  0  0  0  0  0  0  0
   26.4806  -20.1126   -9.2299 C   0  0  0  0  0  0  0  0  0  0  0  0
   27.6344  -20.5702   -8.4487 C   0  0  0  0  0  0  0  0  0  0  0  0
   28.6262  -21.4489   -8.8276 C   0  0  0  0  0  0  0  0  0  0  0  0
   29.5039  -21.6021   -7.8117 N   0  0  0  0  0  0  0  0  0  0  0  0
   29.1183  -20.8455   -6.7664 C   0  0  0  0  0  0  0  0  0  0  0  0
   29.6447  -20.6383   -5.5106 C   0  0  0  0  0  0  0  0  0  0  0  0
   29.0478  -19.7903   -4.5925 C   0  0  0  0  0  0  0  0  0  0  0  0
   27.8970  -19.1514   -4.9765 C   0  0  0  0  0  0  0  0  0  0  0  0
   27.3608  -19.3551   -6.2399 C   0  0  0  0  0  0  0  0  0  0  0  0
   27.9509  -20.1987   -7.1592 C   0  0  0  0  0  0  0  0  0  0  0  0
   25.0690  -20.4170  -11.1521 C   0  0  0  0  0  0  0  0  0  0  0  0
   24.9001  -19.1996  -11.4508 O   0  0  0  0  0  0  0  0  0  0  0  0
   24.3201  -23.9391  -14.7529 N   0  0  0  0  0  0  0  0  0  0  0  0
   23.2020  -24.2455  -13.9714 C   0  0  0  0  0  0  0  0  0  0  0  0
   22.8190  -25.4278  -13.8403 O   0  0  0  0  0  0  0  0  0  0  0  0
   22.4177  -23.1810  -13.2610 C   0  0  0  0  0  0  0  0  0  0  0  0
   22.9924  -21.8307  -13.5075 C   0  0  0  0  0  0  0  0  0  0  0  0
   22.9545  -20.9642  -12.2985 C   0  0  2  0  0  0  0  0  0  0  0  0
   24.0178  -21.3386  -11.3530 N   0  0  0  0  0  0  0  0  0  0  0  0
   21.6553  -21.0727  -11.6013 C   0  0  0  0  0  0  0  0  0  0  0  0
   21.4847  -21.5253  -10.4498 O   0  0  0  0  0  0  0  0  0  0  0  0
   20.4675  -20.6446  -12.2393 O   0  0  0  0  0  0  0  0  0  0  0  0
  2  1  1  0
  3  2  1  0
  3  4  1  6
  5  3  1  0
  5  6  2  0
  7  5  1  0
  8  7  1  0
  9 10  1  0
  8  9  1  1
 10 18  1  0
 11 10  2  0
 11 12  1  0
 12 13  1  0
 13 14  1  0
 14 15  2  0
 16 15  1  0
 17 16  2  0
 18 13  2  0
 18 17  1  0
 19  8  1  0
 19 27  1  0
 20 19  2  0
 21 22  1  0
 22 23  2  0
 22 24  1  0
 24 25  1  0
 26 25  1  6
 26 27  1  0
 26 28  1  0
 28 29  2  0
 28 30  1  0
M  END
$$$$
