SWQ.pdb
     RDKit          3D

 30 31  0  0  1  0  0  0  0  0999 V2000
   27.0084  -19.0185  -14.9879 O   0  0  0  0  0  0  0  0  0  0  0  0
   28.3810  -19.2518  -14.8269 C   0  0  0  0  0  0  0  0  0  0  0  0
   28.5347  -20.7539  -14.6048 C   0  0  2  0  0  0  0  0  0  0  0  0
   28.3028  -21.4640  -15.8237 N   0  0  0  0  0  0  0  0  0  0  0  0
   27.6215  -21.2011  -13.4965 C   0  0  0  0  0  0  0  0  0  0  0  0
   26.6350  -21.9383  -13.7214 O   0  0  0  0  0  0  0  0  0  0  0  0
   27.8959  -20.7720  -12.1811 N   0  0  0  0  0  0  0  0  0  0  0  0
   27.1294  -21.1606  -11.0268 C   0  0  1  0  0  0  0  0  0  0  0  0
   27.9932  -20.8478   -9.7968 C   0  0  0  0  0  0  0  0  0  0  0  0
   27.1925  -20.6727   -8.5807 C   0  0  0  0  0  0  0  0  0  0  0  0
   25.8421  -20.8893   -8.4104 C   0  0  0  0  0  0  0  0  0  0  0  0
   25.4988  -20.6088   -7.1339 N   0  0  0  0  0  0  0  0  0  0  0  0
   26.5899  -20.2109   -6.4519 C   0  0  0  0  0  0  0  0  0  0  0  0
   26.7917  -19.8169   -5.1476 C   0  0  0  0  0  0  0  0  0  0  0  0
   28.0396  -19.4456   -4.6752 C   0  0  0  0  0  0  0  0  0  0  0  0
   29.0872  -19.4821   -5.5590 C   0  0  0  0  0  0  0  0  0  0  0  0
   28.8916  -19.8780   -6.8744 C   0  0  0  0  0  0  0  0  0  0  0  0
   27.6506  -20.2491   -7.3512 C   0  0  0  0  0  0  0  0  0  0  0  0
   25.9460  -20.2739  -10.9193 C   0  0  0  0  0  0  0  0  0  0  0  0
   26.1369  -19.0336  -11.0779 O   0  0  0  0  0  0  0  0  0  0  0  0
   24.5091  -18.5246  -14.7631 N   0  0  0  0  0  0  0  0  0  0  0  0
   23.1692  -18.9209  -14.7131 C   0  0  0  0  0  0  0  0  0  0  0  0
   22.3119  -18.3666  -15.4338 O   0  0  0  0  0  0  0  0  0  0  0  0
   22.7025  -20.0184  -13.8016 C   0  0  0  0  0  0  0  0  0  0  0  0
   23.8052  -20.4994  -12.9257 C   0  0  0  0  0  0  0  0  0  0  0  0
   23.5452  -20.2378  -11.4842 C   0  0  2  0  0  0  0  0  0  0  0  0
   24.6443  -20.7526  -10.6526 N   0  0  0  0  0  0  0  0  0  0  0  0
   22.2891  -20.8793  -11.0407 C   0  0  0  0  0  0  0  0  0  0  0  0
   21.2727  -20.2799  -10.6314 O   0  0  0  0  0  0  0  0  0  0  0  0
   22.1653  -22.2884  -11.0575 O   0  0  0  0  0  0  0  0  0  0  0  0
  2  1  1  0
  3  2  1  0
  3  4  1  6
  5  3  1  0
  5  6  2  0
  7  5  1  0
  8  7  1  0
  9 10  1  0
  8  9  1  1
 10 18  1  0
 11 10  2  0
 11 12  1  0
 12 13  1  0
 13 14  1  0
 14 15  2  0
 16 15  1  0
 17 16  2  0
 18 13  2  0
 18 17  1  0
 19  8  1  0
 19 27  1  0
 20 19  2  0
 21 22  1  0
 22 23  2  0
 22 24  1  0
 24 25  1  0
 26 25  1  6
 26 27  1  0
 26 28  1  0
 28 29  2  0
 28 30  1  0
M  END
$$$$
