CCQ.pdb
     RDKit          3D

 22 21  0  0  1  0  0  0  0  0999 V2000
    6.7808  -19.2560   17.3995 N   0  0  0  0  0  0  0  0  0  0  0  0
    6.7561  -18.6623   18.6982 C   0  0  1  0  0  0  0  0  0  0  0  0
    7.0353  -19.7352   19.7286 C   0  0  0  0  0  0  0  0  0  0  0  0
    5.6049  -20.8535   19.8609 S   0  0  0  0  0  0  0  0  0  0  0  0
    7.8322  -17.6312   18.8643 C   0  0  0  0  0  0  0  0  0  0  0  0
    8.3026  -17.1399   17.8064 O   0  0  0  0  0  0  0  0  0  0  0  0
    8.2981  -17.2275   20.1291 N   0  0  0  0  0  0  0  0  0  0  0  0
    8.9482  -15.9219   20.2969 C   0  0  1  0  0  0  0  0  0  0  0  0
    7.8648  -14.9062   19.9542 C   0  0  0  0  0  0  0  0  0  0  0  0
    8.3351  -13.2166   20.3041 S   0  0  0  0  0  0  0  0  0  0  0  0
    9.3747  -15.7591   21.7210 C   0  0  0  0  0  0  0  0  0  0  0  0
    8.5443  -16.0396   22.6521 O   0  0  0  0  0  0  0  0  0  0  0  0
    9.7006  -19.4819   22.4874 N   0  0  0  0  0  0  0  0  0  0  0  0
   10.8551  -19.6486   23.2951 C   0  0  0  0  0  0  0  0  0  0  0  0
   10.9538  -20.6595   24.0190 O   0  0  0  0  0  0  0  0  0  0  0  0
   11.9049  -18.6270   23.2605 C   0  0  0  0  0  0  0  0  0  0  0  0
   11.5873  -17.4942   22.3578 C   0  0  0  0  0  0  0  0  0  0  0  0
   11.5206  -16.1404   22.9723 C   0  0  2  0  0  0  0  0  0  0  0  0
   10.6403  -15.3144   22.1373 N   0  0  0  0  0  0  0  0  0  0  0  0
   12.8251  -15.4797   23.1714 C   0  0  0  0  0  0  0  0  0  0  0  0
   13.3211  -14.7691   22.2661 O   0  0  0  0  0  0  0  0  0  0  0  0
   13.5652  -15.6054   24.3531 O   0  0  0  0  0  0  0  0  0  0  0  0
  2  1  1  6
  2  5  1  0
  2  3  1  0
  4  3  1  0
  5  6  2  0
  7  8  1  0
  7  5  1  0
  8 11  1  0
  9 10  1  0
  8  9  1  1
 11 12  2  0
 11 19  1  0
 13 14  1  0
 14 15  2  0
 16 17  1  0
 16 14  1  0
 18 20  1  0
 18 17  1  6
 19 18  1  0
 20 22  1  0
 21 20  2  0
M  END
$$$$
