CCQ.pdb
     RDKit          3D

 22 21  0  0  1  0  0  0  0  0999 V2000
    4.2578  -18.8148   23.0655 N   0  0  0  0  0  0  0  0  0  0  0  0
    4.9364  -19.0984   21.8413 C   0  0  1  0  0  0  0  0  0  0  0  0
    3.9282  -19.0862   20.7125 C   0  0  0  0  0  0  0  0  0  0  0  0
    2.2637  -18.7580   21.3727 S   0  0  0  0  0  0  0  0  0  0  0  0
    5.9530  -18.0479   21.5069 C   0  0  0  0  0  0  0  0  0  0  0  0
    6.6792  -18.2728   20.5051 O   0  0  0  0  0  0  0  0  0  0  0  0
    6.0957  -16.8712   22.2651 N   0  0  0  0  0  0  0  0  0  0  0  0
    7.2024  -15.9454   21.9945 C   0  0  1  0  0  0  0  0  0  0  0  0
    6.6145  -14.5610   22.2409 C   0  0  0  0  0  0  0  0  0  0  0  0
    7.8336  -13.2529   22.2105 S   0  0  0  0  0  0  0  0  0  0  0  0
    8.3172  -16.2099   22.9555 C   0  0  0  0  0  0  0  0  0  0  0  0
    8.0366  -16.6458   24.1246 O   0  0  0  0  0  0  0  0  0  0  0  0
    9.9984  -20.3989   25.5345 N   0  0  0  0  0  0  0  0  0  0  0  0
   11.0187  -19.4166   25.4490 C   0  0  0  0  0  0  0  0  0  0  0  0
   11.4940  -18.9363   26.4973 O   0  0  0  0  0  0  0  0  0  0  0  0
   11.4893  -18.9882   24.1291 C   0  0  0  0  0  0  0  0  0  0  0  0
   10.5145  -18.1314   23.4117 C   0  0  0  0  0  0  0  0  0  0  0  0
   10.7344  -16.6609   23.4748 C   0  0  2  0  0  0  0  0  0  0  0  0
    9.6811  -16.0178   22.6803 N   0  0  0  0  0  0  0  0  0  0  0  0
   12.0697  -16.2097   23.0375 C   0  0  0  0  0  0  0  0  0  0  0  0
   12.2711  -15.8883   21.8431 O   0  0  0  0  0  0  0  0  0  0  0  0
   13.1610  -16.1168   23.9096 O   0  0  0  0  0  0  0  0  0  0  0  0
  2  1  1  1
  2  5  1  0
  2  3  1  0
  4  3  1  0
  5  6  2  0
  7  8  1  0
  7  5  1  0
  8 11  1  0
  9 10  1  0
  8  9  1  1
 11 12  2  0
 11 19  1  0
 13 14  1  0
 14 15  2  0
 16 17  1  0
 16 14  1  0
 18 20  1  0
 18 17  1  6
 19 18  1  0
 20 22  1  0
 21 20  2  0
M  END
$$$$
