CCQ.pdb
     RDKit          3D

 22 21  0  0  1  0  0  0  0  0999 V2000
    7.8043  -15.9439   20.4074 N   0  0  0  0  0  0  0  0  0  0  0  0
    7.0295  -15.9395   21.6071 C   0  0  1  0  0  0  0  0  0  0  0  0
    6.6488  -17.3648   21.9452 C   0  0  0  0  0  0  0  0  0  0  0  0
    4.8376  -17.5120   22.0559 S   0  0  0  0  0  0  0  0  0  0  0  0
    7.8120  -15.4254   22.7784 C   0  0  0  0  0  0  0  0  0  0  0  0
    9.0330  -15.7252   22.8090 O   0  0  0  0  0  0  0  0  0  0  0  0
    7.2233  -14.6491   23.7937 N   0  0  0  0  0  0  0  0  0  0  0  0
    8.0126  -14.2325   24.9593 C   0  0  1  0  0  0  0  0  0  0  0  0
    7.2582  -13.0358   25.5265 C   0  0  0  0  0  0  0  0  0  0  0  0
    5.5459  -13.3864   25.9049 S   0  0  0  0  0  0  0  0  0  0  0  0
    8.0439  -15.3430   25.9604 C   0  0  0  0  0  0  0  0  0  0  0  0
    6.9513  -15.9341   26.2638 O   0  0  0  0  0  0  0  0  0  0  0  0
    7.7064  -21.6308   26.8279 N   0  0  0  0  0  0  0  0  0  0  0  0
    7.8813  -20.3696   26.2017 C   0  0  0  0  0  0  0  0  0  0  0  0
    7.0274  -19.9687   25.3858 O   0  0  0  0  0  0  0  0  0  0  0  0
    9.0634  -19.5677   26.5280 C   0  0  0  0  0  0  0  0  0  0  0  0
    8.9133  -18.1356   26.1735 C   0  0  0  0  0  0  0  0  0  0  0  0
    9.2649  -17.1406   27.2228 C   0  0  2  0  0  0  0  0  0  0  0  0
    9.1976  -15.8070   26.6134 N   0  0  0  0  0  0  0  0  0  0  0  0
   10.5724  -17.3540   27.8731 C   0  0  0  0  0  0  0  0  0  0  0  0
   10.7425  -18.3192   28.6542 O   0  0  0  0  0  0  0  0  0  0  0  0
   11.6705  -16.5120   27.6604 O   0  0  0  0  0  0  0  0  0  0  0  0
  2  1  1  6
  2  5  1  0
  2  3  1  0
  4  3  1  0
  5  6  2  0
  7  8  1  0
  7  5  1  0
  8 11  1  0
  9 10  1  0
  8  9  1  1
 11 12  2  0
 11 19  1  0
 13 14  1  0
 14 15  2  0
 16 17  1  0
 16 14  1  0
 18 20  1  0
 18 17  1  6
 19 18  1  0
 20 22  1  0
 21 20  2  0
M  END
$$$$
