CCQ.pdb
     RDKit          3D

 22 21  0  0  1  0  0  0  0  0999 V2000
    5.4363  -19.1176   22.1947 N   0  0  0  0  0  0  0  0  0  0  0  0
    5.7912  -17.8884   22.8294 C   0  0  1  0  0  0  0  0  0  0  0  0
    6.1251  -18.1683   24.2789 C   0  0  0  0  0  0  0  0  0  0  0  0
    6.4630  -16.6054   25.1491 S   0  0  0  0  0  0  0  0  0  0  0  0
    7.0215  -17.2799   22.2256 C   0  0  0  0  0  0  0  0  0  0  0  0
    7.9976  -18.0531   22.0491 O   0  0  0  0  0  0  0  0  0  0  0  0
    7.0918  -15.9198   21.8718 N   0  0  0  0  0  0  0  0  0  0  0  0
    8.3601  -15.3377   21.4158 C   0  0  1  0  0  0  0  0  0  0  0  0
    7.9859  -13.9498   20.9093 C   0  0  0  0  0  0  0  0  0  0  0  0
    6.9118  -13.9782   19.4797 S   0  0  0  0  0  0  0  0  0  0  0  0
    9.3003  -15.2272   22.5734 C   0  0  0  0  0  0  0  0  0  0  0  0
    8.8738  -14.7315   23.6724 O   0  0  0  0  0  0  0  0  0  0  0  0
    9.3227  -18.5588   26.2191 N   0  0  0  0  0  0  0  0  0  0  0  0
   10.6186  -18.1923   26.6658 C   0  0  0  0  0  0  0  0  0  0  0  0
   11.0546  -18.6685   27.7328 O   0  0  0  0  0  0  0  0  0  0  0  0
   11.4144  -17.2607   25.8622 C   0  0  0  0  0  0  0  0  0  0  0  0
   10.7063  -16.7839   24.6495 C   0  0  0  0  0  0  0  0  0  0  0  0
   11.4211  -15.7968   23.7955 C   0  0  2  0  0  0  0  0  0  0  0  0
   10.6454  -15.6310   22.5605 N   0  0  0  0  0  0  0  0  0  0  0  0
   12.8250  -16.1349   23.4910 C   0  0  0  0  0  0  0  0  0  0  0  0
   13.7580  -15.6335   24.1607 O   0  0  0  0  0  0  0  0  0  0  0  0
   13.1864  -17.0132   22.4624 O   0  0  0  0  0  0  0  0  0  0  0  0
  2  1  1  6
  2  5  1  0
  2  3  1  0
  4  3  1  0
  5  6  2  0
  7  8  1  0
  7  5  1  0
  8 11  1  0
  9 10  1  0
  8  9  1  1
 11 12  2  0
 11 19  1  0
 13 14  1  0
 14 15  2  0
 16 17  1  0
 16 14  1  0
 18 20  1  0
 18 17  1  1
 19 18  1  0
 20 22  1  0
 21 20  2  0
M  END
$$$$
