MAG.pdb
     RDKit          3D

 18 17  0  0  1  0  0  0  0  0999 V2000
    6.3326  -10.8428   26.4300 C   0  0  0  0  0  0  0  0  0  0  0  0
    6.4745  -12.1294   27.6758 S   0  0  0  0  0  0  0  0  0  0  0  0
    5.9066  -13.7390   27.0102 C   0  0  0  0  0  0  0  0  0  0  0  0
    6.9700  -14.2302   26.0845 C   0  0  0  0  0  0  0  0  0  0  0  0
    6.5988  -15.4550   25.2961 C   0  0  2  0  0  0  0  0  0  0  0  0
    6.5331  -16.5924   26.1908 N   0  0  0  0  0  0  0  0  0  0  0  0
    7.5027  -15.7765   24.1889 C   0  0  0  0  0  0  0  0  0  0  0  0
    8.4168  -16.6548   24.2452 O   0  0  0  0  0  0  0  0  0  0  0  0
    8.0450  -14.5500   20.6078 C   0  0  0  0  0  0  0  0  0  0  0  0
    8.3068  -15.3868   21.8351 C   0  0  2  0  0  0  0  0  0  0  0  0
    7.4197  -15.1040   22.9238 N   0  0  0  0  0  0  0  0  0  0  0  0
    9.6801  -15.0697   22.2790 C   0  0  0  0  0  0  0  0  0  0  0  0
    9.8730  -14.0384   22.9574 O   0  0  0  0  0  0  0  0  0  0  0  0
   10.7923  -15.9002   21.9598 N   0  0  0  0  0  0  0  0  0  0  0  0
   12.0995  -15.5973   22.4599 C   0  0  0  0  0  0  0  0  0  0  0  0
   13.0885  -16.5721   21.9449 C   0  0  0  0  0  0  0  0  0  0  0  0
   12.6401  -17.6689   21.4735 O   0  0  0  0  0  0  0  0  0  0  0  0
   14.4548  -16.3604   21.9472 O   0  0  0  0  0  0  0  0  0  0  0  0
  2  3  1  0
  2  1  1  0
  4  3  1  0
  5  4  1  0
  5  6  1  1
  7  5  1  0
  7 11  1  0
  8  7  2  0
 10  9  1  6
 10 11  1  0
 10 12  1  0
 12 14  1  0
 12 13  2  0
 14 15  1  0
 15 16  1  0
 16 18  1  0
 17 16  2  0
M  END
$$$$
