MAG.pdb
     RDKit          3D

 18 17  0  0  1  0  0  0  0  0999 V2000
    6.1191  -11.1169   27.9218 C   0  0  0  0  0  0  0  0  0  0  0  0
    7.2766  -12.1069   26.9692 S   0  0  0  0  0  0  0  0  0  0  0  0
    6.4552  -13.6062   26.3105 C   0  0  0  0  0  0  0  0  0  0  0  0
    7.4710  -14.3428   25.5015 C   0  0  0  0  0  0  0  0  0  0  0  0
    6.9655  -15.6028   24.8562 C   0  0  2  0  0  0  0  0  0  0  0  0
    6.6193  -16.5579   25.8888 N   0  0  0  0  0  0  0  0  0  0  0  0
    7.8975  -16.2362   23.9200 C   0  0  0  0  0  0  0  0  0  0  0  0
    8.6480  -17.2166   24.2129 O   0  0  0  0  0  0  0  0  0  0  0  0
    8.7560  -15.9484   20.2169 C   0  0  0  0  0  0  0  0  0  0  0  0
    8.9916  -16.3382   21.6548 C   0  0  2  0  0  0  0  0  0  0  0  0
    8.0350  -15.7831   22.5653 N   0  0  0  0  0  0  0  0  0  0  0  0
   10.3224  -15.8126   22.0237 C   0  0  0  0  0  0  0  0  0  0  0  0
   10.4024  -14.6759   22.5360 O   0  0  0  0  0  0  0  0  0  0  0  0
   11.5181  -16.5580   21.8152 N   0  0  0  0  0  0  0  0  0  0  0  0
   12.8011  -15.9556   22.0184 C   0  0  0  0  0  0  0  0  0  0  0  0
   13.3925  -16.4174   23.2953 C   0  0  0  0  0  0  0  0  0  0  0  0
   12.5963  -16.8841   24.1754 O   0  0  0  0  0  0  0  0  0  0  0  0
   14.7443  -16.3708   23.5818 O   0  0  0  0  0  0  0  0  0  0  0  0
  2  3  1  0
  2  1  1  0
  4  3  1  0
  5  4  1  0
  5  6  1  1
  7  5  1  0
  7 11  1  0
  8  7  2  0
 10  9  1  6
 10 11  1  0
 10 12  1  0
 12 14  1  0
 12 13  2  0
 14 15  1  0
 15 16  1  0
 16 18  1  0
 17 16  2  0
M  END
$$$$
