MAG.pdb
     RDKit          3D

 18 17  0  0  1  0  0  0  0  0999 V2000
    7.1116  -11.1079   27.7128 C   0  0  0  0  0  0  0  0  0  0  0  0
    5.7587  -12.0757   27.0343 S   0  0  0  0  0  0  0  0  0  0  0  0
    6.1273  -12.5842   25.3133 C   0  0  0  0  0  0  0  0  0  0  0  0
    6.8688  -13.8779   25.3878 C   0  0  0  0  0  0  0  0  0  0  0  0
    8.0929  -13.9504   24.5184 C   0  0  2  0  0  0  0  0  0  0  0  0
    7.7461  -13.5301   23.1762 N   0  0  0  0  0  0  0  0  0  0  0  0
    8.7278  -15.2691   24.4513 C   0  0  0  0  0  0  0  0  0  0  0  0
    9.1072  -15.9314   25.4650 O   0  0  0  0  0  0  0  0  0  0  0  0
    8.9522  -18.0745   21.9951 C   0  0  0  0  0  0  0  0  0  0  0  0
    9.5310  -17.2452   23.1140 C   0  0  2  0  0  0  0  0  0  0  0  0
    8.9749  -15.9279   23.2006 N   0  0  0  0  0  0  0  0  0  0  0  0
   10.9756  -17.1068   22.8354 C   0  0  0  0  0  0  0  0  0  0  0  0
   11.6434  -18.1323   22.5835 O   0  0  0  0  0  0  0  0  0  0  0  0
   11.6333  -15.8434   22.8440 N   0  0  0  0  0  0  0  0  0  0  0  0
   13.0190  -15.7372   22.4992 C   0  0  0  0  0  0  0  0  0  0  0  0
   13.8687  -16.0495   23.6713 C   0  0  0  0  0  0  0  0  0  0  0  0
   13.2937  -16.5411   24.6980 O   0  0  0  0  0  0  0  0  0  0  0  0
   15.2347  -15.8400   23.7128 O   0  0  0  0  0  0  0  0  0  0  0  0
  2  3  1  0
  2  1  1  0
  4  3  1  0
  5  4  1  0
  5  6  1  6
  7  5  1  0
  7 11  1  0
  8  7  2  0
 10  9  1  6
 10 11  1  0
 10 12  1  0
 12 14  1  0
 12 13  2  0
 14 15  1  0
 15 16  1  0
 16 18  1  0
 17 16  2  0
M  END
$$$$
