MAG.pdb
     RDKit          3D

 18 17  0  0  1  0  0  0  0  0999 V2000
    6.1592  -11.4801   26.3375 C   0  0  0  0  0  0  0  0  0  0  0  0
    7.3897  -12.3363   27.3275 S   0  0  0  0  0  0  0  0  0  0  0  0
    7.1309  -14.1485   27.2547 C   0  0  0  0  0  0  0  0  0  0  0  0
    7.7321  -14.6261   25.9743 C   0  0  0  0  0  0  0  0  0  0  0  0
    6.9721  -15.7330   25.2987 C   0  0  2  0  0  0  0  0  0  0  0  0
    7.0058  -16.9124   26.1391 N   0  0  0  0  0  0  0  0  0  0  0  0
    7.4556  -16.0908   23.9628 C   0  0  0  0  0  0  0  0  0  0  0  0
    8.0626  -17.1708   23.6886 O   0  0  0  0  0  0  0  0  0  0  0  0
    7.2389  -14.6101   20.4499 C   0  0  0  0  0  0  0  0  0  0  0  0
    7.7246  -15.5594   21.5166 C   0  0  2  0  0  0  0  0  0  0  0  0
    7.2740  -15.2232   22.8342 N   0  0  0  0  0  0  0  0  0  0  0  0
    9.2003  -15.4828   21.5120 C   0  0  0  0  0  0  0  0  0  0  0  0
    9.8172  -15.7739   20.4652 O   0  0  0  0  0  0  0  0  0  0  0  0
    9.9440  -15.0881   22.6608 N   0  0  0  0  0  0  0  0  0  0  0  0
   11.3683  -14.9529   22.5999 C   0  0  0  0  0  0  0  0  0  0  0  0
   12.0237  -16.2439   22.9118 C   0  0  0  0  0  0  0  0  0  0  0  0
   11.3022  -17.1568   23.4337 O   0  0  0  0  0  0  0  0  0  0  0  0
   13.3589  -16.5102   22.6710 O   0  0  0  0  0  0  0  0  0  0  0  0
  2  3  1  0
  2  1  1  0
  4  3  1  0
  5  4  1  0
  5  6  1  1
  7  5  1  0
  7 11  1  0
  8  7  2  0
 10  9  1  6
 10 11  1  0
 10 12  1  0
 12 14  1  0
 12 13  2  0
 14 15  1  0
 15 16  1  0
 16 18  1  0
 17 16  2  0
M  END
$$$$
