MAG.pdb
     RDKit          3D

 18 17  0  0  1  0  0  0  0  0999 V2000
    5.9074  -10.9477   27.6738 C   0  0  0  0  0  0  0  0  0  0  0  0
    7.1345  -12.1641   27.1821 S   0  0  0  0  0  0  0  0  0  0  0  0
    6.3483  -13.5402   26.2631 C   0  0  0  0  0  0  0  0  0  0  0  0
    7.4301  -14.5071   25.9116 C   0  0  0  0  0  0  0  0  0  0  0  0
    6.9690  -15.7106   25.1380 C   0  0  2  0  0  0  0  0  0  0  0  0
    6.6880  -16.7893   26.0632 N   0  0  0  0  0  0  0  0  0  0  0  0
    7.9092  -16.1918   24.1227 C   0  0  0  0  0  0  0  0  0  0  0  0
    8.7815  -17.0906   24.3260 O   0  0  0  0  0  0  0  0  0  0  0  0
    8.5638  -15.5617   20.4140 C   0  0  0  0  0  0  0  0  0  0  0  0
    8.8752  -16.0654   21.8012 C   0  0  2  0  0  0  0  0  0  0  0  0
    7.9139  -15.6686   22.7864 N   0  0  0  0  0  0  0  0  0  0  0  0
   10.1778  -15.4806   22.1818 C   0  0  0  0  0  0  0  0  0  0  0  0
   10.2144  -14.3001   22.5889 O   0  0  0  0  0  0  0  0  0  0  0  0
   11.3941  -16.2174   22.1002 N   0  0  0  0  0  0  0  0  0  0  0  0
   12.6348  -15.6294   22.5067 C   0  0  0  0  0  0  0  0  0  0  0  0
   13.7377  -16.6095   22.3787 C   0  0  0  0  0  0  0  0  0  0  0  0
   14.8021  -16.2214   21.7932 O   0  0  0  0  0  0  0  0  0  0  0  0
   13.6771  -17.9066   22.8535 O   0  0  0  0  0  0  0  0  0  0  0  0
  2  3  1  0
  2  1  1  0
  4  3  1  0
  5  4  1  0
  5  6  1  1
  7  5  1  0
  7 11  1  0
  8  7  2  0
 10  9  1  6
 10 11  1  0
 10 12  1  0
 12 14  1  0
 12 13  2  0
 14 15  1  0
 15 16  1  0
 16 18  1  0
 17 16  2  0
M  END
$$$$
