MAG.pdb
     RDKit          3D

 18 17  0  0  1  0  0  0  0  0999 V2000
    6.4144  -11.4117   27.8642 C   0  0  0  0  0  0  0  0  0  0  0  0
    7.5395  -12.4024   26.8743 S   0  0  0  0  0  0  0  0  0  0  0  0
    6.6587  -13.8204   26.1194 C   0  0  0  0  0  0  0  0  0  0  0  0
    7.6509  -14.5572   25.2819 C   0  0  0  0  0  0  0  0  0  0  0  0
    7.0947  -15.7475   24.5517 C   0  0  2  0  0  0  0  0  0  0  0  0
    6.6794  -16.7440   25.5176 N   0  0  0  0  0  0  0  0  0  0  0  0
    8.0118  -16.3710   23.5943 C   0  0  0  0  0  0  0  0  0  0  0  0
    8.2746  -17.6120   23.5613 O   0  0  0  0  0  0  0  0  0  0  0  0
    9.8230  -15.2539   20.4325 C   0  0  0  0  0  0  0  0  0  0  0  0
    9.4656  -16.2071   21.5454 C   0  0  2  0  0  0  0  0  0  0  0  0
    8.6999  -15.6042   22.5953 N   0  0  0  0  0  0  0  0  0  0  0  0
   10.7404  -16.6742   22.1288 C   0  0  0  0  0  0  0  0  0  0  0  0
   11.4726  -17.4294   21.4547 O   0  0  0  0  0  0  0  0  0  0  0  0
   11.1633  -16.2927   23.4343 N   0  0  0  0  0  0  0  0  0  0  0  0
   12.3701  -16.8201   23.9962 C   0  0  0  0  0  0  0  0  0  0  0  0
   13.5501  -16.1285   23.4281 C   0  0  0  0  0  0  0  0  0  0  0  0
   14.3310  -16.8131   22.6880 O   0  0  0  0  0  0  0  0  0  0  0  0
   13.8476  -14.7972   23.6536 O   0  0  0  0  0  0  0  0  0  0  0  0
  2  3  1  0
  2  1  1  0
  4  3  1  0
  5  4  1  0
  5  6  1  1
  7  5  1  0
  7 11  1  0
  8  7  2  0
 10  9  1  6
 10 11  1  0
 10 12  1  0
 12 14  1  0
 12 13  2  0
 14 15  1  0
 15 16  1  0
 16 18  1  0
 17 16  2  0
M  END
$$$$
