MAG.pdb
     RDKit          3D

 18 17  0  0  1  0  0  0  0  0999 V2000
    7.0282  -11.0005   26.1734 C   0  0  0  0  0  0  0  0  0  0  0  0
    7.1362  -12.2472   27.4624 S   0  0  0  0  0  0  0  0  0  0  0  0
    6.4083  -13.8294   26.8938 C   0  0  0  0  0  0  0  0  0  0  0  0
    7.3299  -14.3900   25.8616 C   0  0  0  0  0  0  0  0  0  0  0  0
    6.8260  -15.6300   25.1776 C   0  0  2  0  0  0  0  0  0  0  0  0
    6.7029  -16.6929   26.1542 N   0  0  0  0  0  0  0  0  0  0  0  0
    7.6537  -16.1038   24.0654 C   0  0  0  0  0  0  0  0  0  0  0  0
    8.0897  -17.2903   23.9547 O   0  0  0  0  0  0  0  0  0  0  0  0
    8.6344  -14.6712   20.6674 C   0  0  0  0  0  0  0  0  0  0  0  0
    8.5345  -15.7302   21.7367 C   0  0  2  0  0  0  0  0  0  0  0  0
    8.0436  -15.2382   22.9893 N   0  0  0  0  0  0  0  0  0  0  0  0
    9.9039  -16.2393   21.9581 C   0  0  0  0  0  0  0  0  0  0  0  0
   10.4727  -16.8636   21.0375 O   0  0  0  0  0  0  0  0  0  0  0  0
   10.5982  -16.0424   23.1861 N   0  0  0  0  0  0  0  0  0  0  0  0
   11.9040  -16.5952   23.3856 C   0  0  0  0  0  0  0  0  0  0  0  0
   12.9380  -15.6919   22.8304 C   0  0  0  0  0  0  0  0  0  0  0  0
   12.8797  -15.4301   21.5837 O   0  0  0  0  0  0  0  0  0  0  0  0
   13.9507  -15.1237   23.5809 O   0  0  0  0  0  0  0  0  0  0  0  0
  2  3  1  0
  2  1  1  0
  4  3  1  0
  5  4  1  0
  5  6  1  1
  7  5  1  0
  7 11  1  0
  8  7  2  0
 10  9  1  6
 10 11  1  0
 10 12  1  0
 12 14  1  0
 12 13  2  0
 14 15  1  0
 15 16  1  0
 16 18  1  0
 17 16  2  0
M  END
$$$$
