MAG.pdb
     RDKit          3D

 18 17  0  0  1  0  0  0  0  0999 V2000
    7.9490  -11.3419   26.5946 C   0  0  0  0  0  0  0  0  0  0  0  0
    6.6996  -12.6033   26.8688 S   0  0  0  0  0  0  0  0  0  0  0  0
    7.4725  -14.1681   27.4262 C   0  0  0  0  0  0  0  0  0  0  0  0
    8.0241  -14.8409   26.2130 C   0  0  0  0  0  0  0  0  0  0  0  0
    6.9938  -15.4933   25.3342 C   0  0  2  0  0  0  0  0  0  0  0  0
    6.4724  -16.6662   26.0060 N   0  0  0  0  0  0  0  0  0  0  0  0
    7.4706  -15.8831   24.0049 C   0  0  0  0  0  0  0  0  0  0  0  0
    7.8793  -17.0466   23.7056 O   0  0  0  0  0  0  0  0  0  0  0  0
    7.5921  -14.3361   20.5305 C   0  0  0  0  0  0  0  0  0  0  0  0
    7.9990  -15.3054   21.6122 C   0  0  2  0  0  0  0  0  0  0  0  0
    7.5123  -14.9533   22.9126 N   0  0  0  0  0  0  0  0  0  0  0  0
    9.4757  -15.2873   21.6637 C   0  0  0  0  0  0  0  0  0  0  0  0
   10.1198  -15.5535   20.6268 O   0  0  0  0  0  0  0  0  0  0  0  0
   10.1903  -14.9764   22.8559 N   0  0  0  0  0  0  0  0  0  0  0  0
   11.6194  -14.8851   22.8500 C   0  0  0  0  0  0  0  0  0  0  0  0
   12.2218  -16.1845   23.2268 C   0  0  0  0  0  0  0  0  0  0  0  0
   11.4399  -17.1872   23.3238 O   0  0  0  0  0  0  0  0  0  0  0  0
   13.5694  -16.3677   23.4761 O   0  0  0  0  0  0  0  0  0  0  0  0
  2  3  1  0
  2  1  1  0
  4  3  1  0
  5  4  1  0
  5  6  1  1
  7  5  1  0
  7 11  1  0
  8  7  2  0
 10  9  1  6
 10 11  1  0
 10 12  1  0
 12 14  1  0
 12 13  2  0
 14 15  1  0
 15 16  1  0
 16 18  1  0
 17 16  2  0
M  END
$$$$
