MAG.pdb
     RDKit          3D

 18 17  0  0  1  0  0  0  0  0999 V2000
    7.4857  -11.3409   26.1856 C   0  0  0  0  0  0  0  0  0  0  0  0
    6.2790  -12.3696   27.0300 S   0  0  0  0  0  0  0  0  0  0  0  0
    6.9848  -14.0179   27.4056 C   0  0  0  0  0  0  0  0  0  0  0  0
    7.7577  -14.4482   26.2030 C   0  0  0  0  0  0  0  0  0  0  0  0
    6.9828  -15.2883   25.2267 C   0  0  2  0  0  0  0  0  0  0  0  0
    7.0927  -16.6813   25.6089 N   0  0  0  0  0  0  0  0  0  0  0  0
    7.3930  -15.1486   23.8272 C   0  0  0  0  0  0  0  0  0  0  0  0
    7.7070  -14.0468   23.2815 O   0  0  0  0  0  0  0  0  0  0  0  0
    7.1149  -15.0690   20.8300 C   0  0  0  0  0  0  0  0  0  0  0  0
    7.8483  -16.1613   21.5676 C   0  0  2  0  0  0  0  0  0  0  0  0
    7.4724  -16.2777   22.9450 N   0  0  0  0  0  0  0  0  0  0  0  0
    9.2839  -15.8144   21.5202 C   0  0  0  0  0  0  0  0  0  0  0  0
    9.8539  -15.7507   20.4102 O   0  0  0  0  0  0  0  0  0  0  0  0
   10.0407  -15.5499   22.6975 N   0  0  0  0  0  0  0  0  0  0  0  0
   11.4398  -15.2555   22.6176 C   0  0  0  0  0  0  0  0  0  0  0  0
   12.2343  -16.5044   22.6675 C   0  0  0  0  0  0  0  0  0  0  0  0
   11.5959  -17.6008   22.7959 O   0  0  0  0  0  0  0  0  0  0  0  0
   13.6138  -16.5460   22.5834 O   0  0  0  0  0  0  0  0  0  0  0  0
  2  3  1  0
  2  1  1  0
  4  3  1  0
  5  4  1  0
  5  6  1  1
  7  5  1  0
  7 11  1  0
  8  7  2  0
 10  9  1  1
 10 11  1  0
 10 12  1  0
 12 14  1  0
 12 13  2  0
 14 15  1  0
 15 16  1  0
 16 18  1  0
 17 16  2  0
M  END
$$$$
