MAG.pdb
     RDKit          3D

 18 17  0  0  1  0  0  0  0  0999 V2000
    7.4232  -10.8546   25.9807 C   0  0  0  0  0  0  0  0  0  0  0  0
    6.5177  -12.1820   26.7841 S   0  0  0  0  0  0  0  0  0  0  0  0
    6.1138  -13.5068   25.5850 C   0  0  0  0  0  0  0  0  0  0  0  0
    7.1963  -14.5305   25.6817 C   0  0  0  0  0  0  0  0  0  0  0  0
    7.0389  -15.6999   24.7505 C   0  0  2  0  0  0  0  0  0  0  0  0
    5.7592  -16.3325   24.9966 N   0  0  0  0  0  0  0  0  0  0  0  0
    8.0928  -16.7132   24.8450 C   0  0  0  0  0  0  0  0  0  0  0  0
    8.4975  -17.2233   25.9341 O   0  0  0  0  0  0  0  0  0  0  0  0
   10.1670  -15.3299   22.9543 C   0  0  0  0  0  0  0  0  0  0  0  0
   10.0788  -16.7954   23.2998 C   0  0  2  0  0  0  0  0  0  0  0  0
    8.7644  -17.2181   23.6816 N   0  0  0  0  0  0  0  0  0  0  0  0
   10.9752  -17.0133   24.4542 C   0  0  0  0  0  0  0  0  0  0  0  0
   12.2068  -16.8732   24.2977 O   0  0  0  0  0  0  0  0  0  0  0  0
   10.4828  -17.3778   25.7400 N   0  0  0  0  0  0  0  0  0  0  0  0
   11.3770  -17.5444   26.8460 C   0  0  0  0  0  0  0  0  0  0  0  0
   11.3397  -18.9420   27.3348 C   0  0  0  0  0  0  0  0  0  0  0  0
   10.8468  -19.8228   26.5553 O   0  0  0  0  0  0  0  0  0  0  0  0
   11.8044  -19.3391   28.5749 O   0  0  0  0  0  0  0  0  0  0  0  0
  2  3  1  0
  2  1  1  0
  4  3  1  0
  5  4  1  0
  5  6  1  1
  7  5  1  0
  7 11  1  0
  8  7  2  0
 10  9  1  1
 10 11  1  0
 10 12  1  0
 12 14  1  0
 12 13  2  0
 14 15  1  0
 15 16  1  0
 16 18  1  0
 17 16  2  0
M  END
$$$$
