FQW.pdb
     RDKit          3D

 35 37  0  0  1  0  0  0  0  0999 V2000
   25.9261  -17.6292  -16.2063 N   0  0  0  0  0  0  0  0  0  0  0  0
   26.7554  -18.2393  -15.1730 C   0  0  1  0  0  0  0  0  0  0  0  0
   27.8960  -17.2444  -14.9210 C   0  0  0  0  0  0  0  0  0  0  0  0
   28.7953  -17.3431  -16.0860 C   0  0  0  0  0  0  0  0  0  0  0  0
   29.5173  -18.4803  -16.3521 C   0  0  0  0  0  0  0  0  0  0  0  0
   30.3628  -18.5519  -17.4628 C   0  0  0  0  0  0  0  0  0  0  0  0
   30.4875  -17.4796  -18.3137 C   0  0  0  0  0  0  0  0  0  0  0  0
   29.7646  -16.3387  -18.0493 C   0  0  0  0  0  0  0  0  0  0  0  0
   28.9225  -16.2725  -16.9391 C   0  0  0  0  0  0  0  0  0  0  0  0
   25.9591  -18.3089  -13.9258 C   0  0  0  0  0  0  0  0  0  0  0  0
   25.0468  -17.4541  -13.6982 O   0  0  0  0  0  0  0  0  0  0  0  0
   22.9806  -20.3671  -14.6041 N   0  0  0  0  0  0  0  0  0  0  0  0
   23.3918  -21.4699  -13.8378 C   0  0  0  0  0  0  0  0  0  0  0  0
   23.2507  -22.6236  -14.2837 O   0  0  0  0  0  0  0  0  0  0  0  0
   23.9888  -21.2570  -12.5082 C   0  0  0  0  0  0  0  0  0  0  0  0
   24.0423  -19.7758  -12.2308 C   0  0  0  0  0  0  0  0  0  0  0  0
   25.4639  -19.4596  -11.8132 C   0  0  2  0  0  0  0  0  0  0  0  0
   26.2458  -19.3463  -13.0091 N   0  0  0  0  0  0  0  0  0  0  0  0
   26.0490  -20.5011  -10.9512 C   0  0  0  0  0  0  0  0  0  0  0  0
   26.3988  -21.5817  -11.4817 O   0  0  0  0  0  0  0  0  0  0  0  0
   26.2213  -20.3119   -9.5657 N   0  0  0  0  0  0  0  0  0  0  0  0
   26.4016  -21.4754   -8.7027 C   0  0  1  0  0  0  0  0  0  0  0  0
   27.7465  -21.4126   -8.0325 C   0  0  0  0  0  0  0  0  0  0  0  0
   27.8462  -20.2970   -7.0840 C   0  0  0  0  0  0  0  0  0  0  0  0
   27.2515  -19.0357   -7.2198 C   0  0  0  0  0  0  0  0  0  0  0  0
   27.5851  -18.2594   -6.1826 N   0  0  0  0  0  0  0  0  0  0  0  0
   28.3795  -18.9254   -5.3399 C   0  0  0  0  0  0  0  0  0  0  0  0
   28.9667  -18.5711   -4.1352 C   0  0  0  0  0  0  0  0  0  0  0  0
   29.7256  -19.5307   -3.5029 C   0  0  0  0  0  0  0  0  0  0  0  0
   29.9122  -20.7954   -4.0182 C   0  0  0  0  0  0  0  0  0  0  0  0
   29.3223  -21.1211   -5.2102 C   0  0  0  0  0  0  0  0  0  0  0  0
   28.5537  -20.2026   -5.8871 C   0  0  0  0  0  0  0  0  0  0  0  0
   25.2454  -21.7247   -7.8554 C   0  0  0  0  0  0  0  0  0  0  0  0
   25.2363  -22.5529   -6.7447 O   0  0  0  0  0  0  0  0  0  0  0  0
   24.1089  -21.1714   -8.0999 O   0  0  0  0  0  0  0  0  0  0  0  0
  2  1  1  6
  2  3  1  0
  3  4  1  0
  4  9  1  0
  4  5  2  0
  5  6  1  0
  6  7  2  0
  8  7  1  0
  9  8  2  0
 10 18  1  0
 10  2  1  0
 11 10  2  0
 12 13  1  0
 13 14  2  0
 15 16  1  0
 15 13  1  0
 17 16  1  6
 17 18  1  0
 19 17  1  0
 19 20  2  0
 21 19  1  0
 22 21  1  0
 22 33  1  0
 22 23  1  1
 24 23  1  0
 25 24  2  0
 26 25  1  0
 27 26  1  0
 27 32  2  0
 28 27  1  0
 29 28  2  0
 29 30  1  0
 30 31  2  0
 31 32  1  0
 32 24  1  0
 33 34  1  0
 35 33  2  0
M  END
$$$$
