FQW.pdb
     RDKit          3D

 35 37  0  0  1  0  0  0  0  0999 V2000
   30.1807  -20.3144  -14.7759 N   0  0  0  0  0  0  0  0  0  0  0  0
   29.8537  -20.9731  -13.5163 C   0  0  1  0  0  0  0  0  0  0  0  0
   30.7506  -20.3116  -12.4617 C   0  0  0  0  0  0  0  0  0  0  0  0
   31.7880  -21.3034  -12.1207 C   0  0  0  0  0  0  0  0  0  0  0  0
   31.5783  -22.2788  -11.1775 C   0  0  0  0  0  0  0  0  0  0  0  0
   32.5756  -23.2091  -10.8711 C   0  0  0  0  0  0  0  0  0  0  0  0
   33.7908  -23.1643  -11.5121 C   0  0  0  0  0  0  0  0  0  0  0  0
   34.0032  -22.1876  -12.4581 C   0  0  0  0  0  0  0  0  0  0  0  0
   33.0045  -21.2615  -12.7598 C   0  0  0  0  0  0  0  0  0  0  0  0
   28.4545  -20.6325  -13.1689 C   0  0  0  0  0  0  0  0  0  0  0  0
   27.9972  -19.4722  -13.4117 O   0  0  0  0  0  0  0  0  0  0  0  0
   23.7509  -23.4588  -14.8633 N   0  0  0  0  0  0  0  0  0  0  0  0
   23.1579  -22.5911  -13.9316 C   0  0  0  0  0  0  0  0  0  0  0  0
   21.9190  -22.4761  -13.8907 O   0  0  0  0  0  0  0  0  0  0  0  0
   24.0050  -21.8196  -13.0060 C   0  0  0  0  0  0  0  0  0  0  0  0
   25.4490  -22.1715  -13.2604 C   0  0  0  0  0  0  0  0  0  0  0  0
   26.2767  -21.3528  -12.2909 C   0  0  2  0  0  0  0  0  0  0  0  0
   27.6558  -21.6308  -12.5652 N   0  0  0  0  0  0  0  0  0  0  0  0
   25.9901  -21.6772  -10.8828 C   0  0  0  0  0  0  0  0  0  0  0  0
   26.4709  -22.7331  -10.4083 O   0  0  0  0  0  0  0  0  0  0  0  0
   25.2000  -20.8396  -10.0709 N   0  0  0  0  0  0  0  0  0  0  0  0
   24.8132  -21.2940   -8.7387 C   0  0  1  0  0  0  0  0  0  0  0  0
   26.0407  -21.5523   -7.9090 C   0  0  0  0  0  0  0  0  0  0  0  0
   26.6293  -20.3151   -7.3826 C   0  0  0  0  0  0  0  0  0  0  0  0
   26.5437  -19.0425   -7.9622 C   0  0  0  0  0  0  0  0  0  0  0  0
   27.2279  -18.1588   -7.2269 N   0  0  0  0  0  0  0  0  0  0  0  0
   27.7792  -18.7614   -6.1697 C   0  0  0  0  0  0  0  0  0  0  0  0
   28.5524  -18.2844   -5.1226 C   0  0  0  0  0  0  0  0  0  0  0  0
   28.9434  -19.1962   -4.1676 C   0  0  0  0  0  0  0  0  0  0  0  0
   28.5982  -20.5295   -4.2213 C   0  0  0  0  0  0  0  0  0  0  0  0
   27.8343  -20.9766   -5.2660 C   0  0  0  0  0  0  0  0  0  0  0  0
   27.4152  -20.1112   -6.2500 C   0  0  0  0  0  0  0  0  0  0  0  0
   23.7716  -20.4669   -8.1489 C   0  0  0  0  0  0  0  0  0  0  0  0
   23.1729  -19.3805   -8.7661 O   0  0  0  0  0  0  0  0  0  0  0  0
   23.3272  -20.7004   -6.9633 O   0  0  0  0  0  0  0  0  0  0  0  0
  2  1  1  6
  2  3  1  0
  3  4  1  0
  4  9  1  0
  4  5  2  0
  5  6  1  0
  6  7  2  0
  8  7  1  0
  9  8  2  0
 10 18  1  0
 10  2  1  0
 11 10  2  0
 12 13  1  0
 13 14  2  0
 15 16  1  0
 15 13  1  0
 17 16  1  6
 17 18  1  0
 19 17  1  0
 19 20  2  0
 21 19  1  0
 22 21  1  0
 22 33  1  0
 22 23  1  1
 24 23  1  0
 25 24  2  0
 26 25  1  0
 27 26  1  0
 27 32  2  0
 28 27  1  0
 29 28  2  0
 29 30  1  0
 30 31  2  0
 31 32  1  0
 32 24  1  0
 33 34  1  0
 35 33  2  0
M  END
$$$$
