FQW.pdb
     RDKit          3D

 35 37  0  0  1  0  0  0  0  0999 V2000
   27.0917  -18.5966   -8.3018 N   0  0  0  0  0  0  0  0  0  0  0  0
   27.1813  -20.0286   -8.5643 C   0  0  1  0  0  0  0  0  0  0  0  0
   26.6066  -20.7119   -7.3164 C   0  0  0  0  0  0  0  0  0  0  0  0
   27.5543  -20.4351   -6.2204 C   0  0  0  0  0  0  0  0  0  0  0  0
   27.4485  -19.3144   -5.4343 C   0  0  0  0  0  0  0  0  0  0  0  0
   28.3575  -19.0729   -4.4003 C   0  0  0  0  0  0  0  0  0  0  0  0
   29.3792  -19.9578   -4.1500 C   0  0  0  0  0  0  0  0  0  0  0  0
   29.4871  -21.0820   -4.9364 C   0  0  0  0  0  0  0  0  0  0  0  0
   28.5773  -21.3180   -5.9673 C   0  0  0  0  0  0  0  0  0  0  0  0
   26.2720  -20.3477   -9.6893 C   0  0  0  0  0  0  0  0  0  0  0  0
   25.0739  -19.9243   -9.6862 O   0  0  0  0  0  0  0  0  0  0  0  0
   29.2879  -21.7269  -14.4855 N   0  0  0  0  0  0  0  0  0  0  0  0
   28.2280  -20.9733  -15.0158 C   0  0  0  0  0  0  0  0  0  0  0  0
   28.3795  -20.3551  -16.0857 O   0  0  0  0  0  0  0  0  0  0  0  0
   26.9401  -20.9170  -14.3031 C   0  0  0  0  0  0  0  0  0  0  0  0
   27.0494  -21.7280  -13.0366 C   0  0  0  0  0  0  0  0  0  0  0  0
   26.1190  -21.0892  -12.0259 C   0  0  2  0  0  0  0  0  0  0  0  0
   26.7771  -21.1301  -10.7532 N   0  0  0  0  0  0  0  0  0  0  0  0
   24.8255  -21.7864  -11.9226 C   0  0  0  0  0  0  0  0  0  0  0  0
   24.5226  -22.3141  -10.8266 O   0  0  0  0  0  0  0  0  0  0  0  0
   23.9356  -21.8714  -13.0116 N   0  0  0  0  0  0  0  0  0  0  0  0
   22.5038  -21.7077  -12.7787 C   0  0  1  0  0  0  0  0  0  0  0  0
   22.2603  -20.5035  -11.9112 C   0  0  0  0  0  0  0  0  0  0  0  0
   20.8409  -20.3318  -11.5800 C   0  0  0  0  0  0  0  0  0  0  0  0
   20.1834  -20.8422  -10.4529 C   0  0  0  0  0  0  0  0  0  0  0  0
   18.8860  -20.5184  -10.4954 N   0  0  0  0  0  0  0  0  0  0  0  0
   18.6195  -19.8097  -11.5961 C   0  0  0  0  0  0  0  0  0  0  0  0
   17.4518  -19.2379  -12.0769 C   0  0  0  0  0  0  0  0  0  0  0  0
   17.5382  -18.5400  -13.2609 C   0  0  0  0  0  0  0  0  0  0  0  0
   18.7173  -18.3979  -13.9604 C   0  0  0  0  0  0  0  0  0  0  0  0
   19.8573  -18.9726  -13.4653 C   0  0  0  0  0  0  0  0  0  0  0  0
   19.8308  -19.6824  -12.2871 C   0  0  0  0  0  0  0  0  0  0  0  0
   21.7246  -21.8163  -14.0026 C   0  0  0  0  0  0  0  0  0  0  0  0
   22.0664  -21.2439  -15.2172 O   0  0  0  0  0  0  0  0  0  0  0  0
   20.6187  -22.4748  -14.0318 O   0  0  0  0  0  0  0  0  0  0  0  0
  2  1  1  1
  2  3  1  0
  3  4  1  0
  4  9  1  0
  4  5  2  0
  5  6  1  0
  6  7  2  0
  8  7  1  0
  9  8  2  0
 10 18  1  0
 10  2  1  0
 11 10  2  0
 12 13  1  0
 13 14  2  0
 15 16  1  0
 15 13  1  0
 17 16  1  6
 17 18  1  0
 19 17  1  0
 19 20  2  0
 21 19  1  0
 22 21  1  0
 22 33  1  0
 22 23  1  6
 24 23  1  0
 25 24  2  0
 26 25  1  0
 27 26  1  0
 27 32  2  0
 28 27  1  0
 29 28  2  0
 29 30  1  0
 30 31  2  0
 31 32  1  0
 32 24  1  0
 33 34  1  0
 35 33  2  0
M  END
$$$$
