FQW.pdb
     RDKit          3D

 35 37  0  0  1  0  0  0  0  0999 V2000
   29.1179  -27.4765  -15.9715 N   0  0  0  0  0  0  0  0  0  0  0  0
   28.7647  -26.6441  -17.1159 C   0  0  1  0  0  0  0  0  0  0  0  0
   27.2561  -26.3930  -16.9915 C   0  0  0  0  0  0  0  0  0  0  0  0
   26.5941  -27.6517  -17.3830 C   0  0  0  0  0  0  0  0  0  0  0  0
   25.9927  -28.4731  -16.4617 C   0  0  0  0  0  0  0  0  0  0  0  0
   25.3702  -29.6610  -16.8556 C   0  0  0  0  0  0  0  0  0  0  0  0
   25.3484  -30.0305  -18.1794 C   0  0  0  0  0  0  0  0  0  0  0  0
   25.9504  -29.2086  -19.1047 C   0  0  0  0  0  0  0  0  0  0  0  0
   26.5706  -28.0244  -18.7061 C   0  0  0  0  0  0  0  0  0  0  0  0
   29.4357  -25.3332  -16.9556 C   0  0  0  0  0  0  0  0  0  0  0  0
   30.0497  -25.0539  -15.8788 O   0  0  0  0  0  0  0  0  0  0  0  0
   33.5133  -23.5532  -19.4619 N   0  0  0  0  0  0  0  0  0  0  0  0
   33.1825  -22.2212  -19.1641 C   0  0  0  0  0  0  0  0  0  0  0  0
   34.0845  -21.3819  -18.9859 O   0  0  0  0  0  0  0  0  0  0  0  0
   31.7682  -21.8220  -19.0632 C   0  0  0  0  0  0  0  0  0  0  0  0
   30.9046  -23.0480  -19.2212 C   0  0  0  0  0  0  0  0  0  0  0  0
   30.1015  -23.1855  -17.9439 C   0  0  2  0  0  0  0  0  0  0  0  0
   29.3700  -24.4152  -18.0289 N   0  0  0  0  0  0  0  0  0  0  0  0
   29.1553  -22.0743  -17.7441 C   0  0  0  0  0  0  0  0  0  0  0  0
   29.6199  -20.9192  -17.5985 O   0  0  0  0  0  0  0  0  0  0  0  0
   27.7615  -22.2785  -17.7137 N   0  0  0  0  0  0  0  0  0  0  0  0
   26.8721  -21.1244  -17.6246 C   0  0  1  0  0  0  0  0  0  0  0  0
   27.3023  -20.0691  -18.6061 C   0  0  0  0  0  0  0  0  0  0  0  0
   26.6641  -20.2329  -19.9175 C   0  0  0  0  0  0  0  0  0  0  0  0
   25.2895  -20.1845  -20.1841 C   0  0  0  0  0  0  0  0  0  0  0  0
   25.0682  -20.4096  -21.4841 N   0  0  0  0  0  0  0  0  0  0  0  0
   26.2234  -20.6097  -22.1246 C   0  0  0  0  0  0  0  0  0  0  0  0
   26.5207  -20.8598  -23.4553 C   0  0  0  0  0  0  0  0  0  0  0  0
   27.8509  -20.9959  -23.7844 C   0  0  0  0  0  0  0  0  0  0  0  0
   28.8648  -20.8937  -22.8563 C   0  0  0  0  0  0  0  0  0  0  0  0
   28.5456  -20.6469  -21.5478 C   0  0  0  0  0  0  0  0  0  0  0  0
   27.2334  -20.5025  -21.1606 C   0  0  0  0  0  0  0  0  0  0  0  0
   25.4672  -21.5028  -17.6255 C   0  0  0  0  0  0  0  0  0  0  0  0
   24.4549  -20.8063  -16.9854 O   0  0  0  0  0  0  0  0  0  0  0  0
   25.0619  -22.5572  -18.2433 O   0  0  0  0  0  0  0  0  0  0  0  0
  2  1  1  1
  2  3  1  0
  3  4  1  0
  4  9  1  0
  4  5  2  0
  5  6  1  0
  6  7  2  0
  8  7  1  0
  9  8  2  0
 10 18  1  0
 10  2  1  0
 11 10  2  0
 12 13  1  0
 13 14  2  0
 15 16  1  0
 15 13  1  0
 17 16  1  6
 17 18  1  0
 19 17  1  0
 19 20  2  0
 21 19  1  0
 22 21  1  0
 22 33  1  0
 22 23  1  6
 24 23  1  0
 25 24  2  0
 26 25  1  0
 27 26  1  0
 27 32  2  0
 28 27  1  0
 29 28  2  0
 29 30  1  0
 30 31  2  0
 31 32  1  0
 32 24  1  0
 33 34  1  0
 35 33  2  0
M  END
$$$$
