FQW.pdb
     RDKit          3D

 35 37  0  0  1  0  0  0  0  0999 V2000
   28.7268  -21.1840   -9.2032 N   0  0  0  0  0  0  0  0  0  0  0  0
   27.3100  -20.8846   -9.0281 C   0  0  1  0  0  0  0  0  0  0  0  0
   27.2624  -19.5624   -8.2510 C   0  0  0  0  0  0  0  0  0  0  0  0
   27.7879  -19.8555   -6.9042 C   0  0  0  0  0  0  0  0  0  0  0  0
   28.9905  -19.3560   -6.4691 C   0  0  0  0  0  0  0  0  0  0  0  0
   29.4686  -19.6460   -5.1881 C   0  0  0  0  0  0  0  0  0  0  0  0
   28.7395  -20.4407   -4.3358 C   0  0  0  0  0  0  0  0  0  0  0  0
   27.5336  -20.9424   -4.7695 C   0  0  0  0  0  0  0  0  0  0  0  0
   27.0614  -20.6500   -6.0492 C   0  0  0  0  0  0  0  0  0  0  0  0
   26.7269  -20.6219  -10.3642 C   0  0  0  0  0  0  0  0  0  0  0  0
   27.2441  -19.7497  -11.1300 O   0  0  0  0  0  0  0  0  0  0  0  0
   27.1020  -22.2503  -14.4820 N   0  0  0  0  0  0  0  0  0  0  0  0
   25.8115  -22.1830  -15.0321 C   0  0  0  0  0  0  0  0  0  0  0  0
   25.6655  -21.9693  -16.2498 O   0  0  0  0  0  0  0  0  0  0  0  0
   24.6346  -22.3654  -14.1653 C   0  0  0  0  0  0  0  0  0  0  0  0
   25.1026  -22.5647  -12.7458 C   0  0  0  0  0  0  0  0  0  0  0  0
   25.0670  -21.2052  -12.0780 C   0  0  2  0  0  0  0  0  0  0  0  0
   25.5892  -21.3658  -10.7529 N   0  0  0  0  0  0  0  0  0  0  0  0
   23.7063  -20.6468  -11.9958 C   0  0  0  0  0  0  0  0  0  0  0  0
   22.9579  -21.0435  -11.0718 O   0  0  0  0  0  0  0  0  0  0  0  0
   23.2356  -19.6917  -12.9184 N   0  0  0  0  0  0  0  0  0  0  0  0
   21.8644  -19.2041  -12.8051 C   0  0  1  0  0  0  0  0  0  0  0  0
   21.7612  -17.8239  -13.3935 C   0  0  0  0  0  0  0  0  0  0  0  0
   20.3963  -17.2886  -13.3259 C   0  0  0  0  0  0  0  0  0  0  0  0
   19.7965  -16.6811  -12.2149 C   0  0  0  0  0  0  0  0  0  0  0  0
   18.5338  -16.3466  -12.5036 N   0  0  0  0  0  0  0  0  0  0  0  0
   18.2362  -16.6936  -13.7589 C   0  0  0  0  0  0  0  0  0  0  0  0
   17.0859  -16.5482  -14.5188 C   0  0  0  0  0  0  0  0  0  0  0  0
   17.1306  -17.0086  -15.8159 C   0  0  0  0  0  0  0  0  0  0  0  0
   18.2526  -17.5923  -16.3637 C   0  0  0  0  0  0  0  0  0  0  0  0
   19.3763  -17.7253  -15.5926 C   0  0  0  0  0  0  0  0  0  0  0  0
   19.3896  -17.2843  -14.2895 C   0  0  0  0  0  0  0  0  0  0  0  0
   20.8855  -20.1890  -13.2394 C   0  0  0  0  0  0  0  0  0  0  0  0
   21.0446  -21.0491  -14.3140 O   0  0  0  0  0  0  0  0  0  0  0  0
   19.7601  -20.3235  -12.6289 O   0  0  0  0  0  0  0  0  0  0  0  0
  2  1  1  6
  2  3  1  0
  3  4  1  0
  4  9  1  0
  4  5  2  0
  5  6  1  0
  6  7  2  0
  8  7  1  0
  9  8  2  0
 10 18  1  0
 10  2  1  0
 11 10  2  0
 12 13  1  0
 13 14  2  0
 15 16  1  0
 15 13  1  0
 17 16  1  1
 17 18  1  0
 19 17  1  0
 19 20  2  0
 21 19  1  0
 22 21  1  0
 22 33  1  0
 22 23  1  6
 24 23  1  0
 25 24  2  0
 26 25  1  0
 27 26  1  0
 27 32  2  0
 28 27  1  0
 29 28  2  0
 29 30  1  0
 30 31  2  0
 31 32  1  0
 32 24  1  0
 33 34  1  0
 35 33  2  0
M  END
$$$$
