SIF.pdb
     RDKit          3D

 26 26  0  0  1  0  0  0  0  0999 V2000
    7.0922  -19.4637   22.2756 O   0  0  0  0  0  0  0  0  0  0  0  0
    6.3022  -19.1030   21.1759 C   0  0  0  0  0  0  0  0  0  0  0  0
    7.2674  -18.5404   20.1507 C   0  0  2  0  0  0  0  0  0  0  0  0
    8.0861  -19.6252   19.6974 N   0  0  0  0  0  0  0  0  0  0  0  0
    8.1160  -17.5104   20.8255 C   0  0  0  0  0  0  0  0  0  0  0  0
    9.2892  -17.7924   21.1619 O   0  0  0  0  0  0  0  0  0  0  0  0
    7.0947  -12.0304   19.9892 C   0  0  0  0  0  0  0  0  0  0  0  0
    7.8143  -13.3948   20.0148 C   0  0  0  0  0  0  0  0  0  0  0  0
    7.8893  -13.7695   21.4569 C   0  0  2  0  0  0  0  0  0  0  0  0
    8.7855  -12.7467   22.1704 C   0  0  0  0  0  0  0  0  0  0  0  0
    8.3420  -15.1658   21.7537 C   0  0  2  0  0  0  0  0  0  0  0  0
    7.6182  -16.2042   21.0999 N   0  0  0  0  0  0  0  0  0  0  0  0
    8.7295  -15.3821   23.1536 C   0  0  0  0  0  0  0  0  0  0  0  0
    9.7503  -14.7499   23.6356 O   0  0  0  0  0  0  0  0  0  0  0  0
    8.0991  -16.2432   24.0909 N   0  0  0  0  0  0  0  0  0  0  0  0
    8.5220  -16.2431   25.4921 C   0  0  1  0  0  0  0  0  0  0  0  0
    7.4885  -15.8714   26.4769 C   0  0  0  0  0  0  0  0  0  0  0  0
    7.1692  -14.4325   26.5476 C   0  0  0  0  0  0  0  0  0  0  0  0
    8.1100  -13.4713   26.8734 C   0  0  0  0  0  0  0  0  0  0  0  0
    7.7571  -12.1425   26.9033 C   0  0  0  0  0  0  0  0  0  0  0  0
    6.4959  -11.7291   26.6193 C   0  0  0  0  0  0  0  0  0  0  0  0
    5.5496  -12.6677   26.2939 C   0  0  0  0  0  0  0  0  0  0  0  0
    5.9023  -13.9915   26.2649 C   0  0  0  0  0  0  0  0  0  0  0  0
    9.0263  -17.6180   25.8205 C   0  0  0  0  0  0  0  0  0  0  0  0
    8.9121  -18.6094   24.8631 O   0  0  0  0  0  0  0  0  0  0  0  0
    9.5472  -17.9156   26.9204 O   0  0  0  0  0  0  0  0  0  0  0  0
  2  3  1  0
  2  1  1  0
  3  4  1  1
  5  3  1  0
  5  6  2  0
  8  9  1  0
  8  7  1  0
  9 11  1  0
  9 10  1  1
 11 13  1  0
 11 12  1  1
 12  5  1  0
 13 15  1  0
 14 13  2  0
 15 16  1  0
 16 24  1  0
 16 17  1  1
 18 17  1  0
 19 18  2  0
 20 19  1  0
 21 22  1  0
 21 20  2  0
 22 23  2  0
 23 18  1  0
 24 26  2  0
 24 25  1  0
M  END
$$$$
