SIF.pdb
     RDKit          3D

 26 26  0  0  1  0  0  0  0  0999 V2000
    6.1821  -19.1983   23.5756 O   0  0  0  0  0  0  0  0  0  0  0  0
    5.0650  -18.5871   22.9908 C   0  0  0  0  0  0  0  0  0  0  0  0
    5.4696  -18.2868   21.5606 C   0  0  2  0  0  0  0  0  0  0  0  0
    5.6938  -19.5431   20.9095 N   0  0  0  0  0  0  0  0  0  0  0  0
    6.7387  -17.4964   21.5914 C   0  0  0  0  0  0  0  0  0  0  0  0
    7.8345  -18.0686   21.3886 O   0  0  0  0  0  0  0  0  0  0  0  0
    7.1657  -12.1963   19.9958 C   0  0  0  0  0  0  0  0  0  0  0  0
    7.3125  -13.7201   20.1876 C   0  0  0  0  0  0  0  0  0  0  0  0
    7.8256  -13.8909   21.5779 C   0  0  2  0  0  0  0  0  0  0  0  0
    9.2054  -13.2219   21.6636 C   0  0  0  0  0  0  0  0  0  0  0  0
    7.8878  -15.2964   22.0910 C   0  0  2  0  0  0  0  0  0  0  0  0
    6.7332  -16.0956   21.8502 N   0  0  0  0  0  0  0  0  0  0  0  0
    8.5460  -15.4258   23.3974 C   0  0  0  0  0  0  0  0  0  0  0  0
    9.5683  -14.6813   23.6706 O   0  0  0  0  0  0  0  0  0  0  0  0
    8.1897  -16.3112   24.4492 N   0  0  0  0  0  0  0  0  0  0  0  0
    8.8362  -16.1993   25.7575 C   0  0  1  0  0  0  0  0  0  0  0  0
    7.9933  -15.6778   26.8501 C   0  0  0  0  0  0  0  0  0  0  0  0
    7.5489  -14.2793   26.6949 C   0  0  0  0  0  0  0  0  0  0  0  0
    6.2534  -13.9389   26.3469 C   0  0  0  0  0  0  0  0  0  0  0  0
    5.8931  -12.6164   26.2373 C   0  0  0  0  0  0  0  0  0  0  0  0
    6.7772  -11.6114   26.4623 C   0  0  0  0  0  0  0  0  0  0  0  0
    8.0661  -11.9295   26.8085 C   0  0  0  0  0  0  0  0  0  0  0  0
    8.4241  -13.2478   26.9170 C   0  0  0  0  0  0  0  0  0  0  0  0
    9.3337  -17.5619   26.1429 C   0  0  0  0  0  0  0  0  0  0  0  0
   10.0798  -17.6894   27.3003 O   0  0  0  0  0  0  0  0  0  0  0  0
    9.1077  -18.5932   25.4686 O   0  0  0  0  0  0  0  0  0  0  0  0
  2  3  1  0
  2  1  1  0
  3  4  1  6
  5  3  1  0
  5  6  2  0
  8  9  1  0
  8  7  1  0
  9 11  1  0
  9 10  1  6
 11 13  1  0
 11 12  1  1
 12  5  1  0
 13 15  1  0
 14 13  2  0
 15 16  1  0
 16 24  1  0
 16 17  1  1
 18 17  1  0
 19 18  2  0
 20 19  1  0
 21 22  1  0
 21 20  2  0
 22 23  2  0
 23 18  1  0
 24 26  2  0
 24 25  1  0
M  END
$$$$
