SIF.pdb
     RDKit          3D

 26 26  0  0  1  0  0  0  0  0999 V2000
    8.7345  -19.7472   22.3720 O   0  0  0  0  0  0  0  0  0  0  0  0
    7.7687  -19.6124   21.3657 C   0  0  0  0  0  0  0  0  0  0  0  0
    8.4477  -18.8370   20.2536 C   0  0  2  0  0  0  0  0  0  0  0  0
    9.5144  -19.6536   19.7558 N   0  0  0  0  0  0  0  0  0  0  0  0
    9.0018  -17.5758   20.8357 C   0  0  0  0  0  0  0  0  0  0  0  0
   10.2239  -17.4952   21.0990 O   0  0  0  0  0  0  0  0  0  0  0  0
    6.8583  -12.4730   19.8473 C   0  0  0  0  0  0  0  0  0  0  0  0
    7.7934  -13.6948   19.9605 C   0  0  0  0  0  0  0  0  0  0  0  0
    7.8363  -14.0200   21.4158 C   0  0  2  0  0  0  0  0  0  0  0  0
    8.4200  -12.8093   22.1589 C   0  0  0  0  0  0  0  0  0  0  0  0
    8.5667  -15.2722   21.7915 C   0  0  2  0  0  0  0  0  0  0  0  0
    8.1664  -16.4534   21.1028 N   0  0  0  0  0  0  0  0  0  0  0  0
    8.8575  -15.3852   23.2265 C   0  0  0  0  0  0  0  0  0  0  0  0
    9.5714  -14.4738   23.8042 O   0  0  0  0  0  0  0  0  0  0  0  0
    8.4390  -16.4211   24.1037 N   0  0  0  0  0  0  0  0  0  0  0  0
    8.5794  -16.2619   25.5518 C   0  0  1  0  0  0  0  0  0  0  0  0
    7.3754  -15.8015   26.2690 C   0  0  0  0  0  0  0  0  0  0  0  0
    7.2377  -14.3383   26.4013 C   0  0  0  0  0  0  0  0  0  0  0  0
    8.2929  -13.5152   26.7539 C   0  0  0  0  0  0  0  0  0  0  0  0
    8.1079  -12.1553   26.8414 C   0  0  0  0  0  0  0  0  0  0  0  0
    6.9058  -11.5776   26.5897 C   0  0  0  0  0  0  0  0  0  0  0  0
    5.8480  -12.3776   26.2385 C   0  0  0  0  0  0  0  0  0  0  0  0
    6.0334  -13.7326   26.1521 C   0  0  0  0  0  0  0  0  0  0  0  0
    9.0014  -17.5849   26.1212 C   0  0  0  0  0  0  0  0  0  0  0  0
    9.1203  -18.6646   25.2652 O   0  0  0  0  0  0  0  0  0  0  0  0
    9.2524  -17.7630   27.3357 O   0  0  0  0  0  0  0  0  0  0  0  0
  2  3  1  0
  2  1  1  0
  3  4  1  1
  5  3  1  0
  5  6  2  0
  8  9  1  0
  8  7  1  0
  9 11  1  0
  9 10  1  1
 11 13  1  0
 11 12  1  1
 12  5  1  0
 13 15  1  0
 14 13  2  0
 15 16  1  0
 16 24  1  0
 16 17  1  1
 18 17  1  0
 19 18  2  0
 20 19  1  0
 21 22  1  0
 21 20  2  0
 22 23  2  0
 23 18  1  0
 24 26  2  0
 24 25  1  0
M  END
$$$$
