SIF.pdb
     RDKit          3D

 26 26  0  0  1  0  0  0  0  0999 V2000
    7.5955  -19.5848   22.9002 O   0  0  0  0  0  0  0  0  0  0  0  0
    8.0072  -20.1514   21.6865 C   0  0  0  0  0  0  0  0  0  0  0  0
    7.5641  -19.1762   20.6132 C   0  0  2  0  0  0  0  0  0  0  0  0
    7.9056  -19.7533   19.3472 N   0  0  0  0  0  0  0  0  0  0  0  0
    8.3136  -17.8968   20.8077 C   0  0  0  0  0  0  0  0  0  0  0  0
    9.5403  -17.8490   20.5583 O   0  0  0  0  0  0  0  0  0  0  0  0
    7.6105  -11.9038   20.5699 C   0  0  0  0  0  0  0  0  0  0  0  0
    8.4803  -13.0041   21.2124 C   0  0  0  0  0  0  0  0  0  0  0  0
    7.6629  -14.2490   21.1244 C   0  0  2  0  0  0  0  0  0  0  0  0
    6.3322  -13.9990   21.8493 C   0  0  0  0  0  0  0  0  0  0  0  0
    8.3110  -15.5016   21.6278 C   0  0  2  0  0  0  0  0  0  0  0  0
    7.6617  -16.7199   21.2758 N   0  0  0  0  0  0  0  0  0  0  0  0
    8.8545  -15.3869   22.9873 C   0  0  0  0  0  0  0  0  0  0  0  0
    9.8058  -14.5421   23.2224 O   0  0  0  0  0  0  0  0  0  0  0  0
    8.4532  -16.1250   24.1325 N   0  0  0  0  0  0  0  0  0  0  0  0
    9.1805  -15.9806   25.3943 C   0  0  1  0  0  0  0  0  0  0  0  0
    8.3745  -15.5677   26.5588 C   0  0  0  0  0  0  0  0  0  0  0  0
    7.8435  -14.1919   26.5060 C   0  0  0  0  0  0  0  0  0  0  0  0
    8.6283  -13.0764   26.7402 C   0  0  0  0  0  0  0  0  0  0  0  0
    8.0809  -11.8177   26.6565 C   0  0  0  0  0  0  0  0  0  0  0  0
    6.7739  -11.6234   26.3462 C   0  0  0  0  0  0  0  0  0  0  0  0
    5.9804  -12.7175   26.1104 C   0  0  0  0  0  0  0  0  0  0  0  0
    6.5268  -13.9713   26.1946 C   0  0  0  0  0  0  0  0  0  0  0  0
    9.8318  -17.2971   25.7032 C   0  0  0  0  0  0  0  0  0  0  0  0
   10.6336  -17.3897   26.8262 O   0  0  0  0  0  0  0  0  0  0  0  0
    9.6866  -18.3199   24.9945 O   0  0  0  0  0  0  0  0  0  0  0  0
  2  3  1  0
  2  1  1  0
  3  4  1  6
  5  3  1  0
  5  6  2  0
  8  9  1  0
  8  7  1  0
  9 11  1  0
  9 10  1  1
 11 13  1  0
 11 12  1  1
 12  5  1  0
 13 15  1  0
 14 13  2  0
 15 16  1  0
 16 24  1  0
 16 17  1  1
 18 17  1  0
 19 18  2  0
 20 19  1  0
 21 22  1  0
 21 20  2  0
 22 23  2  0
 23 18  1  0
 24 26  2  0
 24 25  1  0
M  END
$$$$
