SIF.pdb
     RDKit          3D

 26 26  0  0  1  0  0  0  0  0999 V2000
    7.2660  -19.4034   22.5518 O   0  0  0  0  0  0  0  0  0  0  0  0
    7.8306  -19.9052   21.3715 C   0  0  0  0  0  0  0  0  0  0  0  0
    7.6826  -18.7962   20.3480 C   0  0  2  0  0  0  0  0  0  0  0  0
    8.2801  -19.2585   19.1308 N   0  0  0  0  0  0  0  0  0  0  0  0
    8.4183  -17.5958   20.8519 C   0  0  0  0  0  0  0  0  0  0  0  0
    9.6688  -17.5587   20.7875 O   0  0  0  0  0  0  0  0  0  0  0  0
    6.8558  -12.3968   19.9810 C   0  0  0  0  0  0  0  0  0  0  0  0
    7.5656  -13.7623   20.0902 C   0  0  0  0  0  0  0  0  0  0  0  0
    7.7090  -14.0116   21.5540 C   0  0  2  0  0  0  0  0  0  0  0  0
    8.4787  -12.8323   22.1665 C   0  0  0  0  0  0  0  0  0  0  0  0
    8.3397  -15.3128   21.9436 C   0  0  2  0  0  0  0  0  0  0  0  0
    7.7263  -16.4830   21.4105 N   0  0  0  0  0  0  0  0  0  0  0  0
    8.7993  -15.3590   23.3376 C   0  0  0  0  0  0  0  0  0  0  0  0
    9.2972  -14.2942   23.8784 O   0  0  0  0  0  0  0  0  0  0  0  0
    8.7708  -16.4798   24.2096 N   0  0  0  0  0  0  0  0  0  0  0  0
    8.8580  -16.2889   25.6580 C   0  0  1  0  0  0  0  0  0  0  0  0
    7.6093  -15.8839   26.3308 C   0  0  0  0  0  0  0  0  0  0  0  0
    7.3449  -14.4323   26.3551 C   0  0  0  0  0  0  0  0  0  0  0  0
    8.2810  -13.5072   26.7831 C   0  0  0  0  0  0  0  0  0  0  0  0
    7.9834  -12.1648   26.7635 C   0  0  0  0  0  0  0  0  0  0  0  0
    6.7826  -11.7029   26.3313 C   0  0  0  0  0  0  0  0  0  0  0  0
    5.8420  -12.6051   25.9030 C   0  0  0  0  0  0  0  0  0  0  0  0
    6.1394  -13.9426   25.9234 C   0  0  0  0  0  0  0  0  0  0  0  0
    9.3343  -17.5769   26.2639 C   0  0  0  0  0  0  0  0  0  0  0  0
    9.5103  -18.6707   25.4362 O   0  0  0  0  0  0  0  0  0  0  0  0
    9.5816  -17.7132   27.4845 O   0  0  0  0  0  0  0  0  0  0  0  0
  2  3  1  0
  2  1  1  0
  3  4  1  6
  5  3  1  0
  5  6  2  0
  8  9  1  0
  8  7  1  0
  9 11  1  0
  9 10  1  6
 11 13  1  0
 11 12  1  1
 12  5  1  0
 13 15  1  0
 14 13  2  0
 15 16  1  0
 16 24  1  0
 16 17  1  1
 18 17  1  0
 19 18  2  0
 20 19  1  0
 21 22  1  0
 21 20  2  0
 22 23  2  0
 23 18  1  0
 24 26  2  0
 24 25  1  0
M  END
$$$$
