SIF.pdb
     RDKit          3D

 26 26  0  0  1  0  0  0  0  0999 V2000
    6.6867  -19.4759   23.6193 O   0  0  0  0  0  0  0  0  0  0  0  0
    5.5561  -19.1460   22.8600 C   0  0  0  0  0  0  0  0  0  0  0  0
    6.0768  -18.8433   21.4684 C   0  0  2  0  0  0  0  0  0  0  0  0
    6.5431  -20.0780   20.9111 N   0  0  0  0  0  0  0  0  0  0  0  0
    7.2144  -17.8810   21.5955 C   0  0  0  0  0  0  0  0  0  0  0  0
    8.3937  -18.3024   21.5653 O   0  0  0  0  0  0  0  0  0  0  0  0
    7.0192  -12.5088   19.8741 C   0  0  0  0  0  0  0  0  0  0  0  0
    7.4933  -13.9648   20.0620 C   0  0  0  0  0  0  0  0  0  0  0  0
    7.6982  -14.1221   21.5313 C   0  0  2  0  0  0  0  0  0  0  0  0
    8.8046  -13.1499   21.9663 C   0  0  0  0  0  0  0  0  0  0  0  0
    7.9952  -15.5089   22.0120 C   0  0  2  0  0  0  0  0  0  0  0  0
    6.9886  -16.4833   21.7535 N   0  0  0  0  0  0  0  0  0  0  0  0
    8.6714  -15.5564   23.3148 C   0  0  0  0  0  0  0  0  0  0  0  0
    9.8519  -15.0412   23.4375 O   0  0  0  0  0  0  0  0  0  0  0  0
    8.1728  -16.1286   24.5154 N   0  0  0  0  0  0  0  0  0  0  0  0
    8.9384  -16.0179   25.7578 C   0  0  1  0  0  0  0  0  0  0  0  0
    8.2351  -15.3936   26.8944 C   0  0  0  0  0  0  0  0  0  0  0  0
    7.8073  -13.9970   26.6846 C   0  0  0  0  0  0  0  0  0  0  0  0
    8.6606  -12.9196   26.8462 C   0  0  0  0  0  0  0  0  0  0  0  0
    8.2092  -11.6411   26.6163 C   0  0  0  0  0  0  0  0  0  0  0  0
    6.9328  -11.3904   26.2286 C   0  0  0  0  0  0  0  0  0  0  0  0
    6.0723  -12.4460   26.0630 C   0  0  0  0  0  0  0  0  0  0  0  0
    6.5232  -13.7195   26.2929 C   0  0  0  0  0  0  0  0  0  0  0  0
    9.3674  -17.3993   26.1585 C   0  0  0  0  0  0  0  0  0  0  0  0
    8.9530  -18.4693   25.3867 O   0  0  0  0  0  0  0  0  0  0  0  0
   10.0838  -17.6344   27.1590 O   0  0  0  0  0  0  0  0  0  0  0  0
  2  3  1  0
  2  1  1  0
  3  4  1  1
  5  3  1  0
  5  6  2  0
  8  9  1  0
  8  7  1  0
  9 11  1  0
  9 10  1  6
 11 13  1  0
 11 12  1  1
 12  5  1  0
 13 15  1  0
 14 13  2  0
 15 16  1  0
 16 24  1  0
 16 17  1  1
 18 17  1  0
 19 18  2  0
 20 19  1  0
 21 22  1  0
 21 20  2  0
 22 23  2  0
 23 18  1  0
 24 26  2  0
 24 25  1  0
M  END
$$$$
