SIF.pdb
     RDKit          3D

 26 26  0  0  1  0  0  0  0  0999 V2000
   11.7584  -19.7260   19.2141 O   0  0  0  0  0  0  0  0  0  0  0  0
   11.1876  -18.9249   20.2121 C   0  0  0  0  0  0  0  0  0  0  0  0
   11.3471  -17.4973   19.7264 C   0  0  2  0  0  0  0  0  0  0  0  0
   12.7516  -17.2474   19.5948 N   0  0  0  0  0  0  0  0  0  0  0  0
   10.7629  -16.5860   20.7582 C   0  0  0  0  0  0  0  0  0  0  0  0
   11.4900  -16.1304   21.6709 O   0  0  0  0  0  0  0  0  0  0  0  0
    6.9394  -12.7940   19.5654 C   0  0  0  0  0  0  0  0  0  0  0  0
    8.2081  -13.4767   20.1173 C   0  0  0  0  0  0  0  0  0  0  0  0
    7.7171  -14.4402   21.1450 C   0  0  2  0  0  0  0  0  0  0  0  0
    7.0651  -13.6371   22.2801 C   0  0  0  0  0  0  0  0  0  0  0  0
    8.7313  -15.3974   21.6907 C   0  0  2  0  0  0  0  0  0  0  0  0
    9.3863  -16.2207   20.7301 N   0  0  0  0  0  0  0  0  0  0  0  0
    8.3436  -16.0141   22.9659 C   0  0  0  0  0  0  0  0  0  0  0  0
    7.6750  -17.1218   22.9589 O   0  0  0  0  0  0  0  0  0  0  0  0
    8.6175  -15.5231   24.2702 N   0  0  0  0  0  0  0  0  0  0  0  0
    8.3104  -16.3404   25.4448 C   0  0  1  0  0  0  0  0  0  0  0  0
    8.3147  -15.6342   26.7400 C   0  0  0  0  0  0  0  0  0  0  0  0
    7.6259  -14.3293   26.7523 C   0  0  0  0  0  0  0  0  0  0  0  0
    6.2557  -14.2066   26.9028 C   0  0  0  0  0  0  0  0  0  0  0  0
    5.6729  -12.9614   26.9269 C   0  0  0  0  0  0  0  0  0  0  0  0
    6.4049  -11.8247   26.8068 C   0  0  0  0  0  0  0  0  0  0  0  0
    7.7648  -11.9265   26.6570 C   0  0  0  0  0  0  0  0  0  0  0  0
    8.3445  -13.1680   26.6326 C   0  0  0  0  0  0  0  0  0  0  0  0
    6.9566  -16.9543   25.2369 C   0  0  0  0  0  0  0  0  0  0  0  0
    6.5646  -17.9863   26.0698 O   0  0  0  0  0  0  0  0  0  0  0  0
    6.1606  -16.5795   24.3450 O   0  0  0  0  0  0  0  0  0  0  0  0
  2  3  1  0
  2  1  1  0
  3  4  1  1
  5  3  1  0
  5  6  2  0
  8  9  1  0
  8  7  1  0
  9 11  1  0
  9 10  1  1
 11 13  1  0
 11 12  1  6
 12  5  1  0
 13 15  1  0
 14 13  2  0
 15 16  1  0
 16 24  1  0
 16 17  1  1
 18 17  1  0
 19 18  2  0
 20 19  1  0
 21 22  1  0
 21 20  2  0
 22 23  2  0
 23 18  1  0
 24 26  2  0
 24 25  1  0
M  END
$$$$
