SIF.pdb
     RDKit          3D

 26 26  0  0  1  0  0  0  0  0999 V2000
   10.6245  -19.9697   18.1233 O   0  0  0  0  0  0  0  0  0  0  0  0
   10.5428  -19.1683   19.2698 C   0  0  0  0  0  0  0  0  0  0  0  0
   10.8062  -17.7527   18.7944 C   0  0  2  0  0  0  0  0  0  0  0  0
   12.1626  -17.7037   18.3358 N   0  0  0  0  0  0  0  0  0  0  0  0
   10.6291  -16.8298   19.9577 C   0  0  0  0  0  0  0  0  0  0  0  0
   11.6258  -16.4725   20.6272 O   0  0  0  0  0  0  0  0  0  0  0  0
    6.7140  -12.8726   20.2053 C   0  0  0  0  0  0  0  0  0  0  0  0
    8.0778  -13.5911   20.2686 C   0  0  0  0  0  0  0  0  0  0  0  0
    7.9433  -14.5873   21.3709 C   0  0  2  0  0  0  0  0  0  0  0  0
    7.7504  -13.8201   22.6872 C   0  0  0  0  0  0  0  0  0  0  0  0
    9.0533  -15.5843   21.4990 C   0  0  2  0  0  0  0  0  0  0  0  0
    9.3426  -16.3434   20.3286 N   0  0  0  0  0  0  0  0  0  0  0  0
    9.0797  -16.2848   22.7895 C   0  0  0  0  0  0  0  0  0  0  0  0
    8.4391  -17.4012   22.9201 O   0  0  0  0  0  0  0  0  0  0  0  0
    9.7472  -15.8700   23.9727 N   0  0  0  0  0  0  0  0  0  0  0  0
   10.0673  -16.8433   25.0178 C   0  0  1  0  0  0  0  0  0  0  0  0
   10.9726  -16.3711   26.0825 C   0  0  0  0  0  0  0  0  0  0  0  0
   10.3884  -15.3976   27.0251 C   0  0  0  0  0  0  0  0  0  0  0  0
   10.5157  -15.5149   28.3981 C   0  0  0  0  0  0  0  0  0  0  0  0
    9.9662  -14.5641   29.2258 C   0  0  0  0  0  0  0  0  0  0  0  0
    9.2903  -13.4930   28.7378 C   0  0  0  0  0  0  0  0  0  0  0  0
    9.1541  -13.3597   27.3792 C   0  0  0  0  0  0  0  0  0  0  0  0
    9.7017  -14.3080   26.5554 C   0  0  0  0  0  0  0  0  0  0  0  0
    8.7775  -17.2858   25.6451 C   0  0  0  0  0  0  0  0  0  0  0  0
    8.8103  -18.3189   26.5638 O   0  0  0  0  0  0  0  0  0  0  0  0
    7.6690  -16.7663   25.3789 O   0  0  0  0  0  0  0  0  0  0  0  0
  2  3  1  0
  2  1  1  0
  3  4  1  1
  5  3  1  0
  5  6  2  0
  8  9  1  0
  8  7  1  0
  9 11  1  0
  9 10  1  1
 11 13  1  0
 11 12  1  6
 12  5  1  0
 13 15  1  0
 14 13  2  0
 15 16  1  0
 16 24  1  0
 16 17  1  1
 18 17  1  0
 19 18  2  0
 20 19  1  0
 21 22  1  0
 21 20  2  0
 22 23  2  0
 23 18  1  0
 24 26  2  0
 24 25  1  0
M  END
$$$$
