CQE.pdb
     RDKit          3D

 25 24  0  0  1  0  0  0  0  0999 V2000
    7.9176  -14.7336   17.8780 N   0  0  0  0  0  0  0  0  0  0  0  0
    8.8874  -14.0109   18.6399 C   0  0  1  0  0  0  0  0  0  0  0  0
    8.2967  -13.3716   19.8773 C   0  0  0  0  0  0  0  0  0  0  0  0
    7.2300  -12.0040   19.3678 S   0  0  0  0  0  0  0  0  0  0  0  0
   10.0050  -14.9224   18.9866 C   0  0  0  0  0  0  0  0  0  0  0  0
    9.8270  -16.1585   19.1587 O   0  0  0  0  0  0  0  0  0  0  0  0
   15.6083  -13.1259   17.4303 N   0  0  0  0  0  0  0  0  0  0  0  0
   16.0041  -14.2433   18.2073 C   0  0  0  0  0  0  0  0  0  0  0  0
   17.2207  -14.5278   18.3421 O   0  0  0  0  0  0  0  0  0  0  0  0
   14.9731  -15.0752   18.8595 C   0  0  0  0  0  0  0  0  0  0  0  0
   13.6098  -14.5237   18.7095 C   0  0  0  0  0  0  0  0  0  0  0  0
   12.4925  -15.2660   19.3744 C   0  0  2  0  0  0  0  0  0  0  0  0
   11.3001  -14.4249   19.1324 N   0  0  0  0  0  0  0  0  0  0  0  0
   12.6345  -15.3931   20.8421 C   0  0  0  0  0  0  0  0  0  0  0  0
   12.4456  -14.3704   21.5551 O   0  0  0  0  0  0  0  0  0  0  0  0
   12.9669  -16.5757   21.5360 N   0  0  0  0  0  0  0  0  0  0  0  0
   13.0981  -16.6189   23.0018 C   0  0  1  0  0  0  0  0  0  0  0  0
   12.4058  -17.7959   23.5765 C   0  0  0  0  0  0  0  0  0  0  0  0
   12.5414  -18.0728   25.0162 C   0  0  0  0  0  0  0  0  0  0  0  0
   11.8373  -19.1935   25.6089 C   0  0  0  0  0  0  0  0  0  0  0  0
   12.0449  -20.3732   25.3295 O   0  0  0  0  0  0  0  0  0  0  0  0
   14.4590  -16.3268   23.4504 C   0  0  0  0  0  0  0  0  0  0  0  0
   14.6896  -15.9014   24.6115 O   0  0  0  0  0  0  0  0  0  0  0  0
   10.8551  -18.9182   26.5632 O   0  0  0  0  0  0  0  0  0  0  0  0
   15.5852  -16.5030   22.6316 O   0  0  0  0  0  0  0  0  0  0  0  0
  2  1  1  1
  3  4  1  0
  3  2  1  0
  5  2  1  0
  5  6  2  0
  7  8  1  0
  8 10  1  0
  8  9  2  0
 10 11  1  0
 12 11  1  1
 12 13  1  0
 12 14  1  0
 13  5  1  0
 14 15  2  0
 14 16  1  0
 16 17  1  0
 17 22  1  0
 17 18  1  6
 19 18  1  0
 20 19  1  0
 20 21  2  0
 22 23  2  0
 22 25  1  0
 24 20  1  0
M  END
$$$$
