CQE.pdb
     RDKit          3D

 25 24  0  0  1  0  0  0  0  0999 V2000
    5.4335  -13.7670   26.2035 N   0  0  0  0  0  0  0  0  0  0  0  0
    6.5767  -13.1927   25.5658 C   0  0  1  0  0  0  0  0  0  0  0  0
    7.5169  -12.5266   26.5463 C   0  0  0  0  0  0  0  0  0  0  0  0
    6.7084  -11.0532   27.2120 S   0  0  0  0  0  0  0  0  0  0  0  0
    7.2715  -14.2441   24.7837 C   0  0  0  0  0  0  0  0  0  0  0  0
    7.4540  -15.4040   25.2425 O   0  0  0  0  0  0  0  0  0  0  0  0
    8.9616  -13.0038   18.9069 N   0  0  0  0  0  0  0  0  0  0  0  0
    7.6669  -13.5130   19.1775 C   0  0  0  0  0  0  0  0  0  0  0  0
    6.7468  -13.4004   18.3289 O   0  0  0  0  0  0  0  0  0  0  0  0
    7.4045  -14.1787   20.4692 C   0  0  0  0  0  0  0  0  0  0  0  0
    8.6032  -14.2538   21.3312 C   0  0  0  0  0  0  0  0  0  0  0  0
    8.4576  -14.9479   22.6497 C   0  0  2  0  0  0  0  0  0  0  0  0
    7.7467  -13.9694   23.5012 N   0  0  0  0  0  0  0  0  0  0  0  0
    9.7402  -15.2484   23.3244 C   0  0  0  0  0  0  0  0  0  0  0  0
   10.5173  -14.2920   23.5918 O   0  0  0  0  0  0  0  0  0  0  0  0
   10.1864  -16.5309   23.7071 N   0  0  0  0  0  0  0  0  0  0  0  0
   11.4984  -16.7534   24.3371 C   0  0  1  0  0  0  0  0  0  0  0  0
   11.3591  -17.2150   25.7379 C   0  0  0  0  0  0  0  0  0  0  0  0
   10.7531  -18.5309   26.0004 C   0  0  0  0  0  0  0  0  0  0  0  0
   10.7767  -19.0864   27.3398 C   0  0  0  0  0  0  0  0  0  0  0  0
   11.7802  -19.5385   27.8888 O   0  0  0  0  0  0  0  0  0  0  0  0
   12.4261  -17.4669   23.4602 C   0  0  0  0  0  0  0  0  0  0  0  0
   13.6286  -17.6450   23.7837 O   0  0  0  0  0  0  0  0  0  0  0  0
    9.5794  -19.1112   28.0589 O   0  0  0  0  0  0  0  0  0  0  0  0
   12.0443  -17.9988   22.2188 O   0  0  0  0  0  0  0  0  0  0  0  0
  2  1  1  1
  3  4  1  0
  3  2  1  0
  5  2  1  0
  5  6  2  0
  7  8  1  0
  8 10  1  0
  8  9  2  0
 10 11  1  0
 12 11  1  6
 12 13  1  0
 12 14  1  0
 13  5  1  0
 14 15  2  0
 14 16  1  0
 16 17  1  0
 17 22  1  0
 17 18  1  1
 19 18  1  0
 20 19  1  0
 20 21  2  0
 22 23  2  0
 22 25  1  0
 24 20  1  0
M  END
$$$$
