CQE.pdb
     RDKit          3D

 25 24  0  0  1  0  0  0  0  0999 V2000
    4.7916  -19.2809   19.6508 N   0  0  0  0  0  0  0  0  0  0  0  0
    4.9375  -18.4919   20.8338 C   0  0  1  0  0  0  0  0  0  0  0  0
    4.9303  -19.3274   22.0951 C   0  0  0  0  0  0  0  0  0  0  0  0
    4.9440  -18.2184   23.5227 S   0  0  0  0  0  0  0  0  0  0  0  0
    6.1798  -17.6888   20.7276 C   0  0  0  0  0  0  0  0  0  0  0  0
    7.2702  -18.1960   20.3494 O   0  0  0  0  0  0  0  0  0  0  0  0
    8.0770  -13.6525   18.4276 N   0  0  0  0  0  0  0  0  0  0  0  0
    8.5278  -12.8990   19.5402 C   0  0  0  0  0  0  0  0  0  0  0  0
    9.5571  -12.1834   19.4513 O   0  0  0  0  0  0  0  0  0  0  0  0
    7.7774  -12.9610   20.8104 C   0  0  0  0  0  0  0  0  0  0  0  0
    6.8105  -14.0784   20.8529 C   0  0  0  0  0  0  0  0  0  0  0  0
    7.3649  -15.4596   21.0151 C   0  0  2  0  0  0  0  0  0  0  0  0
    6.1703  -16.3313   21.0488 N   0  0  0  0  0  0  0  0  0  0  0  0
    8.0896  -15.6794   22.2868 C   0  0  0  0  0  0  0  0  0  0  0  0
    7.4544  -16.1569   23.2658 O   0  0  0  0  0  0  0  0  0  0  0  0
    9.4540  -15.4010   22.5135 N   0  0  0  0  0  0  0  0  0  0  0  0
   10.3096  -16.2715   23.3367 C   0  0  1  0  0  0  0  0  0  0  0  0
   10.0060  -17.7041   23.1122 C   0  0  0  0  0  0  0  0  0  0  0  0
   10.8081  -18.7230   23.8096 C   0  0  0  0  0  0  0  0  0  0  0  0
   10.5329  -20.1314   23.6004 C   0  0  0  0  0  0  0  0  0  0  0  0
   11.2907  -20.9114   23.0259 O   0  0  0  0  0  0  0  0  0  0  0  0
   11.7098  -15.8493   23.3283 C   0  0  0  0  0  0  0  0  0  0  0  0
   12.2736  -15.4687   22.2703 O   0  0  0  0  0  0  0  0  0  0  0  0
    9.3251  -20.6406   24.0832 O   0  0  0  0  0  0  0  0  0  0  0  0
   12.5078  -15.8347   24.4829 O   0  0  0  0  0  0  0  0  0  0  0  0
  2  1  1  6
  3  4  1  0
  3  2  1  0
  5  2  1  0
  5  6  2  0
  7  8  1  0
  8 10  1  0
  8  9  2  0
 10 11  1  0
 12 11  1  1
 12 13  1  0
 12 14  1  0
 13  5  1  0
 14 15  2  0
 14 16  1  0
 16 17  1  0
 17 22  1  0
 17 18  1  6
 19 18  1  0
 20 19  1  0
 20 21  2  0
 22 23  2  0
 22 25  1  0
 24 20  1  0
M  END
$$$$
