CQE.pdb
     RDKit          3D

 25 24  0  0  1  0  0  0  0  0999 V2000
    6.1323  -18.5389   25.0083 N   0  0  0  0  0  0  0  0  0  0  0  0
    6.4002  -17.1627   24.7295 C   0  0  1  0  0  0  0  0  0  0  0  0
    6.8547  -16.3986   25.9536 C   0  0  0  0  0  0  0  0  0  0  0  0
    8.0798  -17.3943   26.8343 S   0  0  0  0  0  0  0  0  0  0  0  0
    7.4024  -17.0778   23.6395 C   0  0  0  0  0  0  0  0  0  0  0  0
    8.1283  -18.0592   23.3245 O   0  0  0  0  0  0  0  0  0  0  0  0
    6.4243  -13.1363   19.1643 N   0  0  0  0  0  0  0  0  0  0  0  0
    7.7350  -13.5033   18.7691 C   0  0  0  0  0  0  0  0  0  0  0  0
    8.1996  -13.1199   17.6662 O   0  0  0  0  0  0  0  0  0  0  0  0
    8.5544  -14.3435   19.6652 C   0  0  0  0  0  0  0  0  0  0  0  0
    7.8465  -14.7195   20.9073 C   0  0  0  0  0  0  0  0  0  0  0  0
    8.5115  -15.7210   21.7996 C   0  0  2  0  0  0  0  0  0  0  0  0
    7.5677  -15.8906   22.9258 N   0  0  0  0  0  0  0  0  0  0  0  0
    9.7926  -15.2619   22.3817 C   0  0  0  0  0  0  0  0  0  0  0  0
    9.7628  -14.6066   23.4586 O   0  0  0  0  0  0  0  0  0  0  0  0
   11.0728  -15.4935   21.8360 N   0  0  0  0  0  0  0  0  0  0  0  0
   12.1999  -15.9794   22.6490 C   0  0  1  0  0  0  0  0  0  0  0  0
   11.7653  -17.0059   23.6249 C   0  0  0  0  0  0  0  0  0  0  0  0
   11.8188  -16.6937   25.0628 C   0  0  0  0  0  0  0  0  0  0  0  0
   11.4911  -17.7144   26.0396 C   0  0  0  0  0  0  0  0  0  0  0  0
   11.4966  -17.5407   27.2571 O   0  0  0  0  0  0  0  0  0  0  0  0
   13.3940  -16.2452   21.8477 C   0  0  0  0  0  0  0  0  0  0  0  0
   13.3181  -16.8026   20.7226 O   0  0  0  0  0  0  0  0  0  0  0  0
   11.1448  -18.9831   25.5689 O   0  0  0  0  0  0  0  0  0  0  0  0
   14.6869  -15.8978   22.2692 O   0  0  0  0  0  0  0  0  0  0  0  0
  2  1  1  1
  3  4  1  0
  3  2  1  0
  5  2  1  0
  5  6  2  0
  7  8  1  0
  8 10  1  0
  8  9  2  0
 10 11  1  0
 12 11  1  6
 12 13  1  0
 12 14  1  0
 13  5  1  0
 14 15  2  0
 14 16  1  0
 16 17  1  0
 17 22  1  0
 17 18  1  6
 19 18  1  0
 20 19  1  0
 20 21  2  0
 22 23  2  0
 22 25  1  0
 24 20  1  0
M  END
$$$$
