CQE.pdb
     RDKit          3D

 25 24  0  0  1  0  0  0  0  0999 V2000
    5.2659  -16.3780   21.3646 N   0  0  0  0  0  0  0  0  0  0  0  0
    6.4990  -16.2831   22.0814 C   0  0  1  0  0  0  0  0  0  0  0  0
    7.0142  -14.8632   22.1679 C   0  0  0  0  0  0  0  0  0  0  0  0
    7.4775  -14.3147   20.5089 S   0  0  0  0  0  0  0  0  0  0  0  0
    6.3194  -16.8733   23.4302 C   0  0  0  0  0  0  0  0  0  0  0  0
    5.3334  -16.5804   24.1591 O   0  0  0  0  0  0  0  0  0  0  0  0
    6.1848  -22.4617   24.2388 N   0  0  0  0  0  0  0  0  0  0  0  0
    6.3047  -22.1729   25.6212 C   0  0  0  0  0  0  0  0  0  0  0  0
    6.0669  -23.0582   26.4809 O   0  0  0  0  0  0  0  0  0  0  0  0
    6.7117  -20.8188   26.0467 C   0  0  0  0  0  0  0  0  0  0  0  0
    6.8189  -19.8695   24.9186 C   0  0  0  0  0  0  0  0  0  0  0  0
    7.1426  -18.4455   25.2486 C   0  0  2  0  0  0  0  0  0  0  0  0
    7.2524  -17.7811   23.9316 N   0  0  0  0  0  0  0  0  0  0  0  0
    8.4431  -18.2591   25.9304 C   0  0  0  0  0  0  0  0  0  0  0  0
    9.4395  -17.9120   25.2399 O   0  0  0  0  0  0  0  0  0  0  0  0
    8.6799  -18.4348   27.3100 N   0  0  0  0  0  0  0  0  0  0  0  0
    9.7568  -17.7262   28.0212 C   0  0  1  0  0  0  0  0  0  0  0  0
    9.4995  -16.2687   28.0870 C   0  0  0  0  0  0  0  0  0  0  0  0
   10.5923  -15.3345   27.7693 C   0  0  0  0  0  0  0  0  0  0  0  0
   10.3564  -13.9040   27.8021 C   0  0  0  0  0  0  0  0  0  0  0  0
   10.1828  -13.2500   28.8291 O   0  0  0  0  0  0  0  0  0  0  0  0
   10.1664  -18.4145   29.2448 C   0  0  0  0  0  0  0  0  0  0  0  0
    9.4473  -19.3034   29.7693 O   0  0  0  0  0  0  0  0  0  0  0  0
   10.3235  -13.2184   26.5855 O   0  0  0  0  0  0  0  0  0  0  0  0
   11.3736  -18.1394   29.9058 O   0  0  0  0  0  0  0  0  0  0  0  0
  2  1  1  1
  3  4  1  0
  3  2  1  0
  5  2  1  0
  5  6  2  0
  7  8  1  0
  8 10  1  0
  8  9  2  0
 10 11  1  0
 12 11  1  6
 12 13  1  0
 12 14  1  0
 13  5  1  0
 14 15  2  0
 14 16  1  0
 16 17  1  0
 17 22  1  0
 17 18  1  1
 19 18  1  0
 20 19  1  0
 20 21  2  0
 22 23  2  0
 22 25  1  0
 24 20  1  0
M  END
$$$$
