CQE.pdb
     RDKit          3D

 25 24  0  0  1  0  0  0  0  0999 V2000
   13.1880  -18.5365   16.2556 N   0  0  0  0  0  0  0  0  0  0  0  0
   13.0582  -19.1699   17.5305 C   0  0  1  0  0  0  0  0  0  0  0  0
   14.3911  -19.5890   18.1105 C   0  0  0  0  0  0  0  0  0  0  0  0
   15.3452  -18.1033   18.4982 S   0  0  0  0  0  0  0  0  0  0  0  0
   12.3338  -18.2590   18.4499 C   0  0  0  0  0  0  0  0  0  0  0  0
   12.3846  -17.0059   18.3224 O   0  0  0  0  0  0  0  0  0  0  0  0
    6.9783  -19.9718   20.0479 N   0  0  0  0  0  0  0  0  0  0  0  0
    7.2301  -18.9606   19.0871 C   0  0  0  0  0  0  0  0  0  0  0  0
    6.3695  -18.6803   18.2153 O   0  0  0  0  0  0  0  0  0  0  0  0
    8.5163  -18.2360   19.1167 C   0  0  0  0  0  0  0  0  0  0  0  0
    9.3572  -18.6043   20.2755 C   0  0  0  0  0  0  0  0  0  0  0  0
   10.7051  -17.9607   20.3772 C   0  0  2  0  0  0  0  0  0  0  0  0
   11.5670  -18.7763   19.4942 N   0  0  0  0  0  0  0  0  0  0  0  0
   11.3055  -18.0155   21.7289 C   0  0  0  0  0  0  0  0  0  0  0  0
   11.5492  -19.1453   22.2330 O   0  0  0  0  0  0  0  0  0  0  0  0
   11.6403  -16.8998   22.5249 N   0  0  0  0  0  0  0  0  0  0  0  0
   12.1735  -17.0375   23.8903 C   0  0  1  0  0  0  0  0  0  0  0  0
   13.6398  -16.8295   23.9265 C   0  0  0  0  0  0  0  0  0  0  0  0
   14.2333  -15.7742   23.0886 C   0  0  0  0  0  0  0  0  0  0  0  0
   15.6634  -15.5367   23.1257 C   0  0  0  0  0  0  0  0  0  0  0  0
   16.3195  -15.0876   22.1874 O   0  0  0  0  0  0  0  0  0  0  0  0
   11.3503  -16.3497   24.8843 C   0  0  0  0  0  0  0  0  0  0  0  0
   11.5893  -16.4483   26.1154 O   0  0  0  0  0  0  0  0  0  0  0  0
   16.3460  -15.8373   24.3067 O   0  0  0  0  0  0  0  0  0  0  0  0
   10.2567  -15.5404   24.5392 O   0  0  0  0  0  0  0  0  0  0  0  0
  2  1  1  6
  3  4  1  0
  3  2  1  0
  5  2  1  0
  5  6  2  0
  7  8  1  0
  8 10  1  0
  8  9  2  0
 10 11  1  0
 12 11  1  1
 12 13  1  0
 12 14  1  0
 13  5  1  0
 14 15  2  0
 14 16  1  0
 16 17  1  0
 17 22  1  0
 17 18  1  6
 19 18  1  0
 20 19  1  0
 20 21  2  0
 22 23  2  0
 22 25  1  0
 24 20  1  0
M  END
$$$$
