CQE.pdb
     RDKit          3D

 25 24  0  0  1  0  0  0  0  0999 V2000
    7.7049  -14.6912   18.6855 N   0  0  0  0  0  0  0  0  0  0  0  0
    8.4297  -14.2813   19.8474 C   0  0  1  0  0  0  0  0  0  0  0  0
    8.0084  -12.9159   20.3446 C   0  0  0  0  0  0  0  0  0  0  0  0
    8.5220  -11.6762   19.1333 S   0  0  0  0  0  0  0  0  0  0  0  0
    8.2707  -15.3108   20.9031 C   0  0  0  0  0  0  0  0  0  0  0  0
    7.1999  -15.9614   21.0427 O   0  0  0  0  0  0  0  0  0  0  0  0
   11.8024  -19.7687   21.7835 N   0  0  0  0  0  0  0  0  0  0  0  0
   12.4405  -18.5626   22.1672 C   0  0  0  0  0  0  0  0  0  0  0  0
   13.6941  -18.4749   22.1635 O   0  0  0  0  0  0  0  0  0  0  0  0
   11.6191  -17.4049   22.5739 C   0  0  0  0  0  0  0  0  0  0  0  0
   10.1675  -17.6667   22.4749 C   0  0  0  0  0  0  0  0  0  0  0  0
    9.2420  -16.5649   22.8881 C   0  0  2  0  0  0  0  0  0  0  0  0
    9.3194  -15.5878   21.7803 N   0  0  0  0  0  0  0  0  0  0  0  0
    9.6557  -15.8508   24.1167 C   0  0  0  0  0  0  0  0  0  0  0  0
   10.6540  -15.0827   24.0582 O   0  0  0  0  0  0  0  0  0  0  0  0
    9.0253  -15.9480   25.3751 N   0  0  0  0  0  0  0  0  0  0  0  0
    9.5123  -15.2203   26.5587 C   0  0  1  0  0  0  0  0  0  0  0  0
    8.6912  -14.0187   26.8359 C   0  0  0  0  0  0  0  0  0  0  0  0
    7.4693  -13.7900   26.0469 C   0  0  0  0  0  0  0  0  0  0  0  0
    6.6105  -12.6614   26.3501 C   0  0  0  0  0  0  0  0  0  0  0  0
    6.5833  -12.0779   27.4325 O   0  0  0  0  0  0  0  0  0  0  0  0
    9.8332  -16.1133   27.6715 C   0  0  0  0  0  0  0  0  0  0  0  0
   10.2711  -15.6689   28.7638 O   0  0  0  0  0  0  0  0  0  0  0  0
    5.7542  -12.2028   25.3464 O   0  0  0  0  0  0  0  0  0  0  0  0
    9.6725  -17.5059   27.6013 O   0  0  0  0  0  0  0  0  0  0  0  0
  2  1  1  6
  3  4  1  0
  3  2  1  0
  5  2  1  0
  5  6  2  0
  7  8  1  0
  8 10  1  0
  8  9  2  0
 10 11  1  0
 12 11  1  6
 12 13  1  0
 12 14  1  0
 13  5  1  0
 14 15  2  0
 14 16  1  0
 16 17  1  0
 17 22  1  0
 17 18  1  1
 19 18  1  0
 20 19  1  0
 20 21  2  0
 22 23  2  0
 22 25  1  0
 24 20  1  0
M  END
$$$$
