CQE.pdb
     RDKit          3D

 25 24  0  0  1  0  0  0  0  0999 V2000
   10.3429  -18.3014   15.6856 N   0  0  0  0  0  0  0  0  0  0  0  0
    9.3240  -18.0886   16.6654 C   0  0  1  0  0  0  0  0  0  0  0  0
    8.7030  -19.3806   17.1493 C   0  0  0  0  0  0  0  0  0  0  0  0
    7.6856  -20.0655   15.8213 S   0  0  0  0  0  0  0  0  0  0  0  0
    9.8937  -17.3104   17.7921 C   0  0  0  0  0  0  0  0  0  0  0  0
   11.1005  -17.4259   18.1381 O   0  0  0  0  0  0  0  0  0  0  0  0
    6.6073  -12.6026   20.0527 N   0  0  0  0  0  0  0  0  0  0  0  0
    7.5844  -12.6562   21.0780 C   0  0  0  0  0  0  0  0  0  0  0  0
    7.5747  -11.8168   22.0132 O   0  0  0  0  0  0  0  0  0  0  0  0
    8.6191  -13.7091   21.0398 C   0  0  0  0  0  0  0  0  0  0  0  0
    8.5013  -14.5882   19.8571 C   0  0  0  0  0  0  0  0  0  0  0  0
    9.5609  -15.6287   19.6676 C   0  0  2  0  0  0  0  0  0  0  0  0
    9.0944  -16.4180   18.5069 N   0  0  0  0  0  0  0  0  0  0  0  0
    9.6962  -16.5731   20.7993 C   0  0  0  0  0  0  0  0  0  0  0  0
    8.8528  -17.5041   20.9094 O   0  0  0  0  0  0  0  0  0  0  0  0
   10.7016  -16.5317   21.7881 N   0  0  0  0  0  0  0  0  0  0  0  0
   10.6751  -17.4013   22.9758 C   0  0  1  0  0  0  0  0  0  0  0  0
   11.6290  -18.5276   22.8481 C   0  0  0  0  0  0  0  0  0  0  0  0
   12.9593  -18.2760   22.2696 C   0  0  0  0  0  0  0  0  0  0  0  0
   13.8984  -19.3691   22.1071 C   0  0  0  0  0  0  0  0  0  0  0  0
   13.6998  -20.5208   22.4904 O   0  0  0  0  0  0  0  0  0  0  0  0
   10.6618  -16.6414   24.2253 C   0  0  0  0  0  0  0  0  0  0  0  0
   10.5366  -17.2127   25.3390 O   0  0  0  0  0  0  0  0  0  0  0  0
   15.1129  -19.0993   21.4720 O   0  0  0  0  0  0  0  0  0  0  0  0
   10.7911  -15.2445   24.2686 O   0  0  0  0  0  0  0  0  0  0  0  0
  2  1  1  6
  3  4  1  0
  3  2  1  0
  5  2  1  0
  5  6  2  0
  7  8  1  0
  8 10  1  0
  8  9  2  0
 10 11  1  0
 12 11  1  1
 12 13  1  0
 12 14  1  0
 13  5  1  0
 14 15  2  0
 14 16  1  0
 16 17  1  0
 17 22  1  0
 17 18  1  1
 19 18  1  0
 20 19  1  0
 20 21  2  0
 22 23  2  0
 22 25  1  0
 24 20  1  0
M  END
$$$$
