CQE.pdb
     RDKit          3D

 25 24  0  0  1  0  0  0  0  0999 V2000
    8.0683  -20.1792   19.3098 N   0  0  0  0  0  0  0  0  0  0  0  0
    9.4590  -19.9882   19.5798 C   0  0  1  0  0  0  0  0  0  0  0  0
    9.7896  -18.5582   19.9471 C   0  0  0  0  0  0  0  0  0  0  0  0
    9.3437  -17.4877   18.5604 S   0  0  0  0  0  0  0  0  0  0  0  0
    9.8762  -20.9283   20.6483 C   0  0  0  0  0  0  0  0  0  0  0  0
    9.0912  -21.2792   21.5703 O   0  0  0  0  0  0  0  0  0  0  0  0
   14.1563  -25.0595   19.5548 N   0  0  0  0  0  0  0  0  0  0  0  0
   14.2335  -25.1342   20.9681 C   0  0  0  0  0  0  0  0  0  0  0  0
   14.9799  -25.9798   21.5225 O   0  0  0  0  0  0  0  0  0  0  0  0
   13.4270  -24.2086   21.7886 C   0  0  0  0  0  0  0  0  0  0  0  0
   12.6046  -23.2875   20.9758 C   0  0  0  0  0  0  0  0  0  0  0  0
   11.6925  -22.3539   21.7091 C   0  0  2  0  0  0  0  0  0  0  0  0
   11.1680  -21.4549   20.6580 N   0  0  0  0  0  0  0  0  0  0  0  0
   12.3724  -21.4953   22.7048 C   0  0  0  0  0  0  0  0  0  0  0  0
   12.0460  -20.2792   22.7726 O   0  0  0  0  0  0  0  0  0  0  0  0
   13.3721  -21.9168   23.6067 N   0  0  0  0  0  0  0  0  0  0  0  0
   13.8930  -21.0424   24.6705 C   0  0  1  0  0  0  0  0  0  0  0  0
   12.7982  -20.3726   25.4104 C   0  0  0  0  0  0  0  0  0  0  0  0
   12.2313  -21.0308   26.5992 C   0  0  0  0  0  0  0  0  0  0  0  0
   11.2732  -20.3276   27.4303 C   0  0  0  0  0  0  0  0  0  0  0  0
   10.9477  -19.1517   27.2755 O   0  0  0  0  0  0  0  0  0  0  0  0
   14.9650  -21.6741   25.4389 C   0  0  0  0  0  0  0  0  0  0  0  0
   15.6824  -21.0110   26.2313 O   0  0  0  0  0  0  0  0  0  0  0  0
   10.6770  -21.0309   28.4796 O   0  0  0  0  0  0  0  0  0  0  0  0
   15.2600  -23.0435   25.3511 O   0  0  0  0  0  0  0  0  0  0  0  0
  2  1  1  1
  3  4  1  0
  3  2  1  0
  5  2  1  0
  5  6  2  0
  7  8  1  0
  8 10  1  0
  8  9  2  0
 10 11  1  0
 12 11  1  6
 12 13  1  0
 12 14  1  0
 13  5  1  0
 14 15  2  0
 14 16  1  0
 16 17  1  0
 17 22  1  0
 17 18  1  1
 19 18  1  0
 20 19  1  0
 20 21  2  0
 22 23  2  0
 22 25  1  0
 24 20  1  0
M  END
$$$$
