VNP.pdb
     RDKit          3D

 23 23  0  0  1  0  0  0  0  0999 V2000
    8.6093  -13.3300   18.2318 C   0  0  0  0  0  0  0  0  0  0  0  0
    7.9209  -13.5158   19.5475 C   0  0  2  0  0  0  0  0  0  0  0  0
    8.3736  -12.4733   20.5509 C   0  0  0  0  0  0  0  0  0  0  0  0
    8.1745  -14.8661   20.1659 C   0  0  2  0  0  0  0  0  0  0  0  0
    7.7315  -15.9174   19.2795 N   0  0  0  0  0  0  0  0  0  0  0  0
    7.4283  -15.0337   21.4516 C   0  0  0  0  0  0  0  0  0  0  0  0
    6.2110  -14.7899   21.5598 O   0  0  0  0  0  0  0  0  0  0  0  0
    6.6359  -18.2866   22.3636 N   0  0  0  0  0  0  0  0  0  0  0  0
    6.4298  -17.6775   23.6384 C   0  0  0  0  0  0  0  0  0  0  0  0
    5.2700  -17.7217   24.1017 O   0  0  0  0  0  0  0  0  0  0  0  0
    7.5820  -17.0483   24.3095 C   0  0  0  0  0  0  0  0  0  0  0  0
    7.6312  -15.5587   23.9232 C   0  0  2  0  0  0  0  0  0  0  0  0
    8.1896  -15.4927   22.5621 N   0  0  0  0  0  0  0  0  0  0  0  0
    8.5283  -14.8565   24.8661 C   0  0  0  0  0  0  0  0  0  0  0  0
    9.7511  -14.7874   24.5856 O   0  0  0  0  0  0  0  0  0  0  0  0
    8.0774  -14.2587   26.0642 N   0  0  0  0  0  0  0  0  0  0  0  0
    6.6847  -14.2349   26.5470 C   0  0  0  0  0  0  0  0  0  0  0  0
    6.5852  -12.9267   27.2803 C   0  0  0  0  0  0  0  0  0  0  0  0
    7.9539  -12.3163   27.2841 C   0  0  0  0  0  0  0  0  0  0  0  0
    8.8255  -13.5340   27.0639 C   0  0  1  0  0  0  0  0  0  0  0  0
    8.9488  -14.3544   28.3264 C   0  0  0  0  0  0  0  0  0  0  0  0
    9.8221  -13.9686   29.3217 O   0  0  0  0  0  0  0  0  0  0  0  0
    8.2760  -15.3843   28.5026 O   0  0  0  0  0  0  0  0  0  0  0  0
  2  1  1  6
  2  3  1  0
  4  2  1  0
  4  6  1  0
  4  5  1  6
  6  7  2  0
  8  9  1  0
  9 11  1  0
 10  9  2  0
 12 11  1  1
 12 14  1  0
 13  6  1  0
 13 12  1  0
 14 15  2  0
 16 14  1  0
 16 20  1  0
 17 16  1  0
 18 19  1  0
 18 17  1  0
 19 20  1  0
 20 21  1  1
 21 23  2  0
 21 22  1  0
M  END
$$$$
