VNP.pdb
     RDKit          3D

 23 23  0  0  1  0  0  0  0  0999 V2000
    7.4241  -12.4865   20.1859 C   0  0  0  0  0  0  0  0  0  0  0  0
    8.5196  -13.4726   19.9272 C   0  0  2  0  0  0  0  0  0  0  0  0
    8.9103  -13.4806   18.4623 C   0  0  0  0  0  0  0  0  0  0  0  0
    8.1470  -14.8854   20.2946 C   0  0  2  0  0  0  0  0  0  0  0  0
    7.0759  -15.3600   19.4492 N   0  0  0  0  0  0  0  0  0  0  0  0
    7.6645  -14.9799   21.7074 C   0  0  0  0  0  0  0  0  0  0  0  0
    6.5590  -14.5351   22.0721 O   0  0  0  0  0  0  0  0  0  0  0  0
    5.4860  -17.5817   24.2712 N   0  0  0  0  0  0  0  0  0  0  0  0
    6.7029  -17.7407   23.5415 C   0  0  0  0  0  0  0  0  0  0  0  0
    6.6077  -18.1983   22.3824 O   0  0  0  0  0  0  0  0  0  0  0  0
    7.9679  -17.3601   24.1960 C   0  0  0  0  0  0  0  0  0  0  0  0
    8.1753  -15.8429   24.0355 C   0  0  2  0  0  0  0  0  0  0  0  0
    8.5445  -15.6128   22.6287 N   0  0  0  0  0  0  0  0  0  0  0  0
    9.2845  -15.4226   24.9187 C   0  0  0  0  0  0  0  0  0  0  0  0
   10.4615  -15.5467   24.4968 O   0  0  0  0  0  0  0  0  0  0  0  0
    9.0851  -14.8873   26.2108 N   0  0  0  0  0  0  0  0  0  0  0  0
    7.7807  -14.6308   26.8479 C   0  0  0  0  0  0  0  0  0  0  0  0
    8.0361  -13.4245   27.7074 C   0  0  0  0  0  0  0  0  0  0  0  0
    9.4998  -13.1164   27.6140 C   0  0  0  0  0  0  0  0  0  0  0  0
   10.0606  -14.4548   27.1832 C   0  0  1  0  0  0  0  0  0  0  0  0
   10.1149  -15.4237   28.3411 C   0  0  0  0  0  0  0  0  0  0  0  0
   11.1147  -15.3204   29.2855 O   0  0  0  0  0  0  0  0  0  0  0  0
    9.2722  -16.3272   28.4747 O   0  0  0  0  0  0  0  0  0  0  0  0
  2  1  1  6
  2  3  1  0
  4  2  1  0
  4  6  1  0
  4  5  1  6
  6  7  2  0
  8  9  1  0
  9 11  1  0
 10  9  2  0
 12 11  1  6
 12 14  1  0
 13  6  1  0
 13 12  1  0
 14 15  2  0
 16 14  1  0
 16 20  1  0
 17 16  1  0
 18 19  1  0
 18 17  1  0
 19 20  1  0
 20 21  1  1
 21 23  2  0
 21 22  1  0
M  END
$$$$
