VNP.pdb
     RDKit          3D

 23 23  0  0  1  0  0  0  0  0999 V2000
    7.1885  -12.8095   20.0208 C   0  0  0  0  0  0  0  0  0  0  0  0
    8.4278  -13.6383   19.8921 C   0  0  2  0  0  0  0  0  0  0  0  0
    9.0025  -13.5448   18.4922 C   0  0  0  0  0  0  0  0  0  0  0  0
    8.1989  -15.0991   20.1808 C   0  0  2  0  0  0  0  0  0  0  0  0
    7.6445  -15.7609   19.0224 N   0  0  0  0  0  0  0  0  0  0  0  0
    7.2292  -15.2951   21.3030 C   0  0  0  0  0  0  0  0  0  0  0  0
    5.9950  -15.3078   21.1313 O   0  0  0  0  0  0  0  0  0  0  0  0
    8.5864  -17.2512   23.7773 N   0  0  0  0  0  0  0  0  0  0  0  0
    7.2717  -17.4488   24.2979 C   0  0  0  0  0  0  0  0  0  0  0  0
    6.9824  -18.6062   24.6701 O   0  0  0  0  0  0  0  0  0  0  0  0
    6.3606  -16.2914   24.3594 C   0  0  0  0  0  0  0  0  0  0  0  0
    7.0954  -15.0495   23.8223 C   0  0  2  0  0  0  0  0  0  0  0  0
    7.7951  -15.4691   22.5964 N   0  0  0  0  0  0  0  0  0  0  0  0
    8.0801  -14.6099   24.8344 C   0  0  0  0  0  0  0  0  0  0  0  0
    9.2975  -14.8318   24.6167 O   0  0  0  0  0  0  0  0  0  0  0  0
    7.7190  -13.9520   26.0313 N   0  0  0  0  0  0  0  0  0  0  0  0
    6.3564  -13.8519   26.5851 C   0  0  0  0  0  0  0  0  0  0  0  0
    6.3498  -12.5158   27.2734 C   0  0  0  0  0  0  0  0  0  0  0  0
    7.7405  -11.9646   27.1830 C   0  0  0  0  0  0  0  0  0  0  0  0
    8.5486  -13.2253   26.9629 C   0  0  1  0  0  0  0  0  0  0  0  0
    8.7061  -14.0056   28.2469 C   0  0  0  0  0  0  0  0  0  0  0  0
    7.9630  -15.1479   28.4598 O   0  0  0  0  0  0  0  0  0  0  0  0
    9.4986  -13.6470   29.1344 O   0  0  0  0  0  0  0  0  0  0  0  0
  2  1  1  6
  2  3  1  0
  4  2  1  0
  4  6  1  0
  4  5  1  6
  6  7  2  0
  8  9  1  0
  9 11  1  0
 10  9  2  0
 12 11  1  1
 12 14  1  0
 13  6  1  0
 13 12  1  0
 14 15  2  0
 16 14  1  0
 16 20  1  0
 17 16  1  0
 18 19  1  0
 18 17  1  0
 19 20  1  0
 20 21  1  1
 21 23  2  0
 21 22  1  0
M  END
$$$$
