VNP.pdb
     RDKit          3D

 23 23  0  0  1  0  0  0  0  0999 V2000
    7.3483  -12.6682   19.9018 C   0  0  0  0  0  0  0  0  0  0  0  0
    8.5539  -13.5540   19.9387 C   0  0  2  0  0  0  0  0  0  0  0  0
    9.2427  -13.5927   18.5886 C   0  0  0  0  0  0  0  0  0  0  0  0
    8.2345  -14.9776   20.3145 C   0  0  2  0  0  0  0  0  0  0  0  0
    7.4713  -15.6161   19.2670 N   0  0  0  0  0  0  0  0  0  0  0  0
    7.4112  -15.0483   21.5615 C   0  0  0  0  0  0  0  0  0  0  0  0
    6.2538  -14.5916   21.6304 O   0  0  0  0  0  0  0  0  0  0  0  0
    5.6903  -17.0526   22.6736 N   0  0  0  0  0  0  0  0  0  0  0  0
    6.3575  -17.7677   23.7137 C   0  0  0  0  0  0  0  0  0  0  0  0
    6.0635  -18.9754   23.8438 O   0  0  0  0  0  0  0  0  0  0  0  0
    7.3322  -17.0429   24.5493 C   0  0  0  0  0  0  0  0  0  0  0  0
    7.4502  -15.5961   24.0361 C   0  0  2  0  0  0  0  0  0  0  0  0
    8.0250  -15.6728   22.6826 N   0  0  0  0  0  0  0  0  0  0  0  0
    8.3671  -14.8530   24.9273 C   0  0  0  0  0  0  0  0  0  0  0  0
    9.5826  -14.7928   24.6149 O   0  0  0  0  0  0  0  0  0  0  0  0
    7.9429  -14.2070   26.1099 N   0  0  0  0  0  0  0  0  0  0  0  0
    6.5726  -14.2124   26.6535 C   0  0  0  0  0  0  0  0  0  0  0  0
    6.4484  -12.8698   27.3176 C   0  0  0  0  0  0  0  0  0  0  0  0
    7.7883  -12.2049   27.2256 C   0  0  0  0  0  0  0  0  0  0  0  0
    8.7014  -13.3968   27.0332 C   0  0  1  0  0  0  0  0  0  0  0  0
    8.9143  -14.1384   28.3321 C   0  0  0  0  0  0  0  0  0  0  0  0
    8.2764  -15.3404   28.5569 O   0  0  0  0  0  0  0  0  0  0  0  0
    9.6601  -13.6943   29.2214 O   0  0  0  0  0  0  0  0  0  0  0  0
  2  1  1  6
  2  3  1  0
  4  2  1  0
  4  6  1  0
  4  5  1  6
  6  7  2  0
  8  9  1  0
  9 11  1  0
 10  9  2  0
 12 11  1  1
 12 14  1  0
 13  6  1  0
 13 12  1  0
 14 15  2  0
 16 14  1  0
 16 20  1  0
 17 16  1  0
 18 19  1  0
 18 17  1  0
 19 20  1  0
 20 21  1  1
 21 23  2  0
 21 22  1  0
M  END
$$$$
