VNP.pdb
     RDKit          3D

 23 23  0  0  1  0  0  0  0  0999 V2000
    7.3320  -12.7629   19.4530 C   0  0  0  0  0  0  0  0  0  0  0  0
    8.6303  -13.4871   19.6237 C   0  0  2  0  0  0  0  0  0  0  0  0
    9.4052  -13.5302   18.3212 C   0  0  0  0  0  0  0  0  0  0  0  0
    8.4607  -14.9110   20.0860 C   0  0  2  0  0  0  0  0  0  0  0  0
    7.7567  -15.6840   19.0889 N   0  0  0  0  0  0  0  0  0  0  0  0
    7.6604  -14.9905   21.3474 C   0  0  0  0  0  0  0  0  0  0  0  0
    6.5221  -14.4948   21.4544 O   0  0  0  0  0  0  0  0  0  0  0  0
    6.6165  -18.4432   22.0415 N   0  0  0  0  0  0  0  0  0  0  0  0
    6.2732  -17.6461   23.1753 C   0  0  0  0  0  0  0  0  0  0  0  0
    5.0616  -17.3819   23.3306 O   0  0  0  0  0  0  0  0  0  0  0  0
    7.3552  -17.1970   24.0703 C   0  0  0  0  0  0  0  0  0  0  0  0
    7.6638  -15.7176   23.7757 C   0  0  2  0  0  0  0  0  0  0  0  0
    8.2731  -15.6711   22.4359 N   0  0  0  0  0  0  0  0  0  0  0  0
    8.6309  -15.2283   24.7819 C   0  0  0  0  0  0  0  0  0  0  0  0
    9.8571  -15.3740   24.5497 O   0  0  0  0  0  0  0  0  0  0  0  0
    8.2435  -14.6041   25.9887 N   0  0  0  0  0  0  0  0  0  0  0  0
    6.8586  -14.3359   26.4169 C   0  0  0  0  0  0  0  0  0  0  0  0
    6.9714  -13.0628   27.2078 C   0  0  0  0  0  0  0  0  0  0  0  0
    8.4285  -12.7236   27.2949 C   0  0  0  0  0  0  0  0  0  0  0  0
    9.0657  -14.0748   27.0508 C   0  0  1  0  0  0  0  0  0  0  0  0
    8.9723  -14.9534   28.2762 C   0  0  0  0  0  0  0  0  0  0  0  0
    9.8686  -14.7956   29.3126 O   0  0  0  0  0  0  0  0  0  0  0  0
    8.0977  -15.8295   28.3848 O   0  0  0  0  0  0  0  0  0  0  0  0
  2  1  1  6
  2  3  1  0
  4  2  1  0
  4  6  1  0
  4  5  1  6
  6  7  2  0
  8  9  1  0
  9 11  1  0
 10  9  2  0
 12 11  1  1
 12 14  1  0
 13  6  1  0
 13 12  1  0
 14 15  2  0
 16 14  1  0
 16 20  1  0
 17 16  1  0
 18 19  1  0
 18 17  1  0
 19 20  1  0
 20 21  1  1
 21 23  2  0
 21 22  1  0
M  END
$$$$
