VNP.pdb
     RDKit          3D

 23 23  0  0  1  0  0  0  0  0999 V2000
    7.2827  -12.6051   19.8145 C   0  0  0  0  0  0  0  0  0  0  0  0
    8.5078  -13.4575   19.7058 C   0  0  2  0  0  0  0  0  0  0  0  0
    9.1356  -13.3360   18.3311 C   0  0  0  0  0  0  0  0  0  0  0  0
    8.2370  -14.9207   19.9418 C   0  0  2  0  0  0  0  0  0  0  0  0
    7.4431  -15.4663   18.8650 N   0  0  0  0  0  0  0  0  0  0  0  0
    7.4709  -15.1436   21.2072 C   0  0  0  0  0  0  0  0  0  0  0  0
    6.2257  -15.1756   21.2432 O   0  0  0  0  0  0  0  0  0  0  0  0
    9.6691  -17.7324   24.7825 N   0  0  0  0  0  0  0  0  0  0  0  0
    8.7004  -17.6103   23.7407 C   0  0  0  0  0  0  0  0  0  0  0  0
    8.9915  -18.1243   22.6393 O   0  0  0  0  0  0  0  0  0  0  0  0
    7.4433  -16.8973   24.0321 C   0  0  0  0  0  0  0  0  0  0  0  0
    7.6359  -15.4012   23.7235 C   0  0  2  0  0  0  0  0  0  0  0  0
    8.2470  -15.3202   22.3862 N   0  0  0  0  0  0  0  0  0  0  0  0
    8.5557  -14.8270   24.7291 C   0  0  0  0  0  0  0  0  0  0  0  0
    9.7880  -14.8369   24.4837 O   0  0  0  0  0  0  0  0  0  0  0  0
    8.1166  -14.2669   25.9496 N   0  0  0  0  0  0  0  0  0  0  0  0
    6.7436  -14.3262   26.4830 C   0  0  0  0  0  0  0  0  0  0  0  0
    6.5980  -13.0327   27.2344 C   0  0  0  0  0  0  0  0  0  0  0  0
    7.9296  -12.3460   27.1953 C   0  0  0  0  0  0  0  0  0  0  0  0
    8.8594  -13.5105   26.9296 C   0  0  1  0  0  0  0  0  0  0  0  0
    9.0751  -14.3344   28.1774 C   0  0  0  0  0  0  0  0  0  0  0  0
    8.4555  -15.5589   28.3155 O   0  0  0  0  0  0  0  0  0  0  0  0
    9.8069  -13.9393   29.1007 O   0  0  0  0  0  0  0  0  0  0  0  0
  2  1  1  6
  2  3  1  0
  4  2  1  0
  4  6  1  0
  4  5  1  6
  6  7  2  0
  8  9  1  0
  9 11  1  0
 10  9  2  0
 12 11  1  1
 12 14  1  0
 13  6  1  0
 13 12  1  0
 14 15  2  0
 16 14  1  0
 16 20  1  0
 17 16  1  0
 18 19  1  0
 18 17  1  0
 19 20  1  0
 20 21  1  1
 21 23  2  0
 21 22  1  0
M  END
$$$$
