VNP.pdb
     RDKit          3D

 23 23  0  0  1  0  0  0  0  0999 V2000
    7.3693  -12.4383   19.8793 C   0  0  0  0  0  0  0  0  0  0  0  0
    8.5190  -13.3959   19.8589 C   0  0  2  0  0  0  0  0  0  0  0  0
    9.2583  -13.3311   18.5369 C   0  0  0  0  0  0  0  0  0  0  0  0
    8.1027  -14.8292   20.0644 C   0  0  2  0  0  0  0  0  0  0  0  0
    7.2100  -15.2509   19.0096 N   0  0  0  0  0  0  0  0  0  0  0  0
    7.3713  -15.0122   21.3564 C   0  0  0  0  0  0  0  0  0  0  0  0
    6.1402  -14.8498   21.4616 O   0  0  0  0  0  0  0  0  0  0  0  0
    6.4316  -18.3412   22.4122 N   0  0  0  0  0  0  0  0  0  0  0  0
    6.3700  -17.6332   23.6505 C   0  0  0  0  0  0  0  0  0  0  0  0
    5.2559  -17.5832   24.2148 O   0  0  0  0  0  0  0  0  0  0  0  0
    7.6059  -17.0196   24.1698 C   0  0  0  0  0  0  0  0  0  0  0  0
    7.5975  -15.5178   23.8301 C   0  0  2  0  0  0  0  0  0  0  0  0
    8.1636  -15.3869   22.4769 N   0  0  0  0  0  0  0  0  0  0  0  0
    8.4576  -14.8096   24.8025 C   0  0  0  0  0  0  0  0  0  0  0  0
    9.6744  -14.6628   24.5252 O   0  0  0  0  0  0  0  0  0  0  0  0
    7.9781  -14.2892   26.0252 N   0  0  0  0  0  0  0  0  0  0  0  0
    6.6262  -14.4890   26.5783 C   0  0  0  0  0  0  0  0  0  0  0  0
    6.3547  -13.2120   27.3230 C   0  0  0  0  0  0  0  0  0  0  0  0
    7.6055  -12.3889   27.2607 C   0  0  0  0  0  0  0  0  0  0  0  0
    8.6496  -13.4507   26.9897 C   0  0  1  0  0  0  0  0  0  0  0  0
    8.9677  -14.2372   28.2397 C   0  0  0  0  0  0  0  0  0  0  0  0
    8.5352  -15.5406   28.3679 O   0  0  0  0  0  0  0  0  0  0  0  0
    9.6197  -13.7405   29.1738 O   0  0  0  0  0  0  0  0  0  0  0  0
  2  1  1  6
  2  3  1  0
  4  2  1  0
  4  6  1  0
  4  5  1  6
  6  7  2  0
  8  9  1  0
  9 11  1  0
 10  9  2  0
 12 11  1  1
 12 14  1  0
 13  6  1  0
 13 12  1  0
 14 15  2  0
 16 14  1  0
 16 20  1  0
 17 16  1  0
 18 19  1  0
 18 17  1  0
 19 20  1  0
 20 21  1  1
 21 23  2  0
 21 22  1  0
M  END
$$$$
