AVD.pdb
     RDKit          3D

 21 20  0  0  1  0  0  0  0  0999 V2000
    9.7818  -17.5734   28.1867 C   0  0  0  0  0  0  0  0  0  0  0  0
    8.3132  -17.4189   28.5133 C   0  0  2  0  0  0  0  0  0  0  0  0
    7.6899  -18.6573   28.8551 N   0  0  0  0  0  0  0  0  0  0  0  0
    7.5691  -16.7853   27.4025 C   0  0  0  0  0  0  0  0  0  0  0  0
    6.9060  -17.4835   26.5997 O   0  0  0  0  0  0  0  0  0  0  0  0
    8.3799  -12.7239   26.8533 C   0  0  0  0  0  0  0  0  0  0  0  0
    7.0013  -13.2276   26.5417 C   0  0  1  0  0  0  0  0  0  0  0  0
    6.2374  -12.3209   25.6085 C   0  0  0  0  0  0  0  0  0  0  0  0
    6.9674  -14.6811   26.1540 C   0  0  2  0  0  0  0  0  0  0  0  0
    7.6103  -15.3975   27.2527 N   0  0  0  0  0  0  0  0  0  0  0  0
    7.6821  -15.0102   24.9083 C   0  0  0  0  0  0  0  0  0  0  0  0
    7.2403  -14.5764   23.8070 O   0  0  0  0  0  0  0  0  0  0  0  0
    8.8637  -15.7972   24.8442 N   0  0  0  0  0  0  0  0  0  0  0  0
    9.5994  -16.0980   23.6303 C   0  0  1  0  0  0  0  0  0  0  0  0
    9.8072  -14.9173   22.7620 C   0  0  0  0  0  0  0  0  0  0  0  0
   10.5232  -15.3014   21.5302 C   0  0  0  0  0  0  0  0  0  0  0  0
   10.4983  -14.6471   20.4467 O   0  0  0  0  0  0  0  0  0  0  0  0
   10.8647  -16.8002   23.9036 C   0  0  0  0  0  0  0  0  0  0  0  0
   11.2361  -16.9557   25.0892 O   0  0  0  0  0  0  0  0  0  0  0  0
   11.3106  -16.4673   21.4794 O   0  0  0  0  0  0  0  0  0  0  0  0
   11.6654  -17.3006   22.9020 O   0  0  0  0  0  0  0  0  0  0  0  0
  2  1  1  6
  2  3  1  0
  4  2  1  0
  5  4  2  0
  7  6  1  6
  7  9  1  0
  8  7  1  0
  9 11  1  0
  9 10  1  1
 10  4  1  0
 11 13  1  0
 12 11  2  0
 13 14  1  0
 14 15  1  1
 14 18  1  0
 16 20  1  0
 16 15  1  0
 17 16  2  0
 18 19  2  0
 18 21  1  0
M  END
$$$$
