AVD.pdb
     RDKit          3D

 21 20  0  0  1  0  0  0  0  0999 V2000
    6.3664  -15.6539   21.0107 C   0  0  0  0  0  0  0  0  0  0  0  0
    7.0362  -14.3023   21.1194 C   0  0  2  0  0  0  0  0  0  0  0  0
    7.8429  -13.9924   19.9827 N   0  0  0  0  0  0  0  0  0  0  0  0
    7.8557  -14.1946   22.3466 C   0  0  0  0  0  0  0  0  0  0  0  0
    9.0706  -14.5037   22.3308 O   0  0  0  0  0  0  0  0  0  0  0  0
    5.7255  -13.3002   25.8665 C   0  0  0  0  0  0  0  0  0  0  0  0
    7.1128  -12.7620   25.6730 C   0  0  1  0  0  0  0  0  0  0  0  0
    7.7681  -12.3384   26.9643 C   0  0  0  0  0  0  0  0  0  0  0  0
    7.9765  -13.6310   24.7994 C   0  0  2  0  0  0  0  0  0  0  0  0
    7.2645  -13.7444   23.5290 N   0  0  0  0  0  0  0  0  0  0  0  0
    8.2171  -14.9896   25.3160 C   0  0  0  0  0  0  0  0  0  0  0  0
    7.3162  -15.8672   25.1958 O   0  0  0  0  0  0  0  0  0  0  0  0
    9.4165  -15.4051   25.9552 N   0  0  0  0  0  0  0  0  0  0  0  0
    9.7181  -16.7664   26.3565 C   0  0  1  0  0  0  0  0  0  0  0  0
   10.7125  -17.4292   25.4829 C   0  0  0  0  0  0  0  0  0  0  0  0
   10.9929  -18.7959   25.9635 C   0  0  0  0  0  0  0  0  0  0  0  0
   10.1097  -19.6398   26.2961 O   0  0  0  0  0  0  0  0  0  0  0  0
   10.0961  -16.8593   27.7768 C   0  0  0  0  0  0  0  0  0  0  0  0
   10.4627  -15.8267   28.3826 O   0  0  0  0  0  0  0  0  0  0  0  0
   12.3136  -19.2670   26.0886 O   0  0  0  0  0  0  0  0  0  0  0  0
   10.0621  -18.0443   28.4764 O   0  0  0  0  0  0  0  0  0  0  0  0
  2  1  1  6
  2  3  1  0
  4  2  1  0
  5  4  2  0
  7  6  1  1
  7  9  1  0
  8  7  1  0
  9 11  1  0
  9 10  1  6
 10  4  1  0
 11 13  1  0
 12 11  2  0
 13 14  1  0
 14 15  1  6
 14 18  1  0
 16 20  1  0
 16 15  1  0
 17 16  2  0
 18 19  2  0
 18 21  1  0
M  END
$$$$
