AVD.pdb
     RDKit          3D

 21 20  0  0  1  0  0  0  0  0999 V2000
    6.7850  -16.5551   22.1846 C   0  0  0  0  0  0  0  0  0  0  0  0
    7.0247  -15.0647   22.0912 C   0  0  2  0  0  0  0  0  0  0  0  0
    7.5320  -14.6655   20.8175 N   0  0  0  0  0  0  0  0  0  0  0  0
    7.9377  -14.5894   23.1538 C   0  0  0  0  0  0  0  0  0  0  0  0
    9.1763  -14.5567   22.9623 O   0  0  0  0  0  0  0  0  0  0  0  0
    6.9487  -11.5026   25.5137 C   0  0  0  0  0  0  0  0  0  0  0  0
    7.3192  -12.7499   26.2610 C   0  0  1  0  0  0  0  0  0  0  0  0
    6.1326  -13.4354   26.8924 C   0  0  0  0  0  0  0  0  0  0  0  0
    8.2204  -13.6698   25.4826 C   0  0  2  0  0  0  0  0  0  0  0  0
    7.4089  -14.1753   24.3782 N   0  0  0  0  0  0  0  0  0  0  0  0
    8.7377  -14.8227   26.2400 C   0  0  0  0  0  0  0  0  0  0  0  0
    7.9717  -15.7969   26.4864 O   0  0  0  0  0  0  0  0  0  0  0  0
   10.0680  -14.9315   26.7281 N   0  0  0  0  0  0  0  0  0  0  0  0
   10.6050  -16.0796   27.4343 C   0  0  1  0  0  0  0  0  0  0  0  0
   11.9609  -16.4651   26.9826 C   0  0  0  0  0  0  0  0  0  0  0  0
   12.0017  -16.5826   25.5121 C   0  0  0  0  0  0  0  0  0  0  0  0
   11.2201  -17.3020   24.8233 O   0  0  0  0  0  0  0  0  0  0  0  0
   10.5468  -15.9133   28.8964 C   0  0  0  0  0  0  0  0  0  0  0  0
   10.2822  -14.7872   29.3755 O   0  0  0  0  0  0  0  0  0  0  0  0
   12.9510  -15.8744   24.7513 O   0  0  0  0  0  0  0  0  0  0  0  0
   10.7712  -16.9534   29.7697 O   0  0  0  0  0  0  0  0  0  0  0  0
  2  1  1  6
  2  3  1  0
  4  2  1  0
  5  4  2  0
  7  6  1  6
  7  9  1  0
  8  7  1  0
  9 11  1  0
  9 10  1  6
 10  4  1  0
 11 13  1  0
 12 11  2  0
 13 14  1  0
 14 15  1  6
 14 18  1  0
 16 20  1  0
 16 15  1  0
 17 16  2  0
 18 19  2  0
 18 21  1  0
M  END
$$$$
