AVD.pdb
     RDKit          3D

 21 20  0  0  1  0  0  0  0  0999 V2000
    6.7731  -14.1612   20.2800 C   0  0  0  0  0  0  0  0  0  0  0  0
    6.8184  -15.1158   21.4523 C   0  0  2  0  0  0  0  0  0  0  0  0
    5.5288  -15.3638   22.0129 N   0  0  0  0  0  0  0  0  0  0  0  0
    7.7309  -14.6364   22.5136 C   0  0  0  0  0  0  0  0  0  0  0  0
    8.9163  -14.3300   22.2444 O   0  0  0  0  0  0  0  0  0  0  0  0
    5.8118  -13.5573   25.9470 C   0  0  0  0  0  0  0  0  0  0  0  0
    7.1858  -13.0313   25.6524 C   0  0  1  0  0  0  0  0  0  0  0  0
    7.8377  -12.3786   26.8463 C   0  0  0  0  0  0  0  0  0  0  0  0
    8.0645  -14.0190   24.9336 C   0  0  2  0  0  0  0  0  0  0  0  0
    7.2613  -14.5270   23.8243 N   0  0  0  0  0  0  0  0  0  0  0  0
    8.5065  -15.1658   25.7459 C   0  0  0  0  0  0  0  0  0  0  0  0
    7.6640  -16.0408   26.0935 O   0  0  0  0  0  0  0  0  0  0  0  0
    9.8434  -15.3743   26.1809 N   0  0  0  0  0  0  0  0  0  0  0  0
   10.4079  -16.6581   26.5524 C   0  0  1  0  0  0  0  0  0  0  0  0
   11.7722  -16.8754   26.0208 C   0  0  0  0  0  0  0  0  0  0  0  0
   12.2503  -18.2291   26.3622 C   0  0  0  0  0  0  0  0  0  0  0  0
   12.8047  -18.5447   27.4557 O   0  0  0  0  0  0  0  0  0  0  0  0
   10.3469  -16.8961   28.0045 C   0  0  0  0  0  0  0  0  0  0  0  0
   10.3469  -18.0724   28.4336 O   0  0  0  0  0  0  0  0  0  0  0  0
   12.1155  -19.2986   25.4567 O   0  0  0  0  0  0  0  0  0  0  0  0
   10.2911  -15.8709   28.9213 O   0  0  0  0  0  0  0  0  0  0  0  0
  2  1  1  6
  2  3  1  0
  4  2  1  0
  5  4  2  0
  7  6  1  1
  7  9  1  0
  8  7  1  0
  9 11  1  0
  9 10  1  6
 10  4  1  0
 11 13  1  0
 12 11  2  0
 13 14  1  0
 14 15  1  1
 14 18  1  0
 16 20  1  0
 16 15  1  0
 17 16  2  0
 18 19  2  0
 18 21  1  0
M  END
$$$$
