AVD.pdb
     RDKit          3D

 21 20  0  0  1  0  0  0  0  0999 V2000
    6.3704  -16.0018   21.7996 C   0  0  0  0  0  0  0  0  0  0  0  0
    6.8523  -14.5685   21.8255 C   0  0  2  0  0  0  0  0  0  0  0  0
    7.4209  -14.1542   20.5830 N   0  0  0  0  0  0  0  0  0  0  0  0
    7.8291  -14.3390   22.9128 C   0  0  0  0  0  0  0  0  0  0  0  0
    9.0600  -14.4314   22.6936 O   0  0  0  0  0  0  0  0  0  0  0  0
    7.3802  -11.4516   25.6704 C   0  0  0  0  0  0  0  0  0  0  0  0
    7.5038  -12.8366   26.2343 C   0  0  1  0  0  0  0  0  0  0  0  0
    6.1981  -13.3794   26.7607 C   0  0  0  0  0  0  0  0  0  0  0  0
    8.2483  -13.7859   25.3350 C   0  0  2  0  0  0  0  0  0  0  0  0
    7.3692  -14.0171   24.1916 N   0  0  0  0  0  0  0  0  0  0  0  0
    8.5728  -15.0902   25.9383 C   0  0  0  0  0  0  0  0  0  0  0  0
    7.6541  -15.9408   26.1078 O   0  0  0  0  0  0  0  0  0  0  0  0
    9.8742  -15.4809   26.3551 N   0  0  0  0  0  0  0  0  0  0  0  0
   10.2213  -16.7839   26.8905 C   0  0  1  0  0  0  0  0  0  0  0  0
   11.5623  -17.2517   26.4734 C   0  0  0  0  0  0  0  0  0  0  0  0
   11.6239  -17.4024   25.0067 C   0  0  0  0  0  0  0  0  0  0  0  0
   10.6279  -17.6435   24.2632 O   0  0  0  0  0  0  0  0  0  0  0  0
   10.0538  -16.8498   28.3522 C   0  0  0  0  0  0  0  0  0  0  0  0
    9.9115  -15.7887   29.0016 O   0  0  0  0  0  0  0  0  0  0  0  0
   12.8432  -17.2839   24.3133 O   0  0  0  0  0  0  0  0  0  0  0  0
   10.0449  -18.0399   29.0438 O   0  0  0  0  0  0  0  0  0  0  0  0
  2  1  1  6
  2  3  1  0
  4  2  1  0
  5  4  2  0
  7  6  1  6
  7  9  1  0
  8  7  1  0
  9 11  1  0
  9 10  1  6
 10  4  1  0
 11 13  1  0
 12 11  2  0
 13 14  1  0
 14 15  1  1
 14 18  1  0
 16 20  1  0
 16 15  1  0
 17 16  2  0
 18 19  2  0
 18 21  1  0
M  END
$$$$
