AVD.pdb
     RDKit          3D

 21 20  0  0  1  0  0  0  0  0999 V2000
    7.9670  -18.0492   17.1531 C   0  0  0  0  0  0  0  0  0  0  0  0
    8.0840  -16.5553   16.9480 C   0  0  2  0  0  0  0  0  0  0  0  0
    8.6395  -16.2138   15.6777 N   0  0  0  0  0  0  0  0  0  0  0  0
    8.8797  -15.9164   18.0193 C   0  0  0  0  0  0  0  0  0  0  0  0
   10.1216  -15.7907   17.9020 O   0  0  0  0  0  0  0  0  0  0  0  0
    7.5315  -12.6811   19.7233 C   0  0  0  0  0  0  0  0  0  0  0  0
    7.9057  -13.7188   20.7405 C   0  0  1  0  0  0  0  0  0  0  0  0
    6.7099  -14.3359   21.4231 C   0  0  0  0  0  0  0  0  0  0  0  0
    8.9110  -14.7181   20.2355 C   0  0  2  0  0  0  0  0  0  0  0  0
    8.2358  -15.4518   19.1681 N   0  0  0  0  0  0  0  0  0  0  0  0
    9.3803  -15.6904   21.2380 C   0  0  0  0  0  0  0  0  0  0  0  0
    8.7180  -16.7484   21.4331 O   0  0  0  0  0  0  0  0  0  0  0  0
   10.5532  -15.5304   22.0245 N   0  0  0  0  0  0  0  0  0  0  0  0
   10.9652  -16.4176   23.0959 C   0  0  1  0  0  0  0  0  0  0  0  0
   12.4185  -16.3686   23.3727 C   0  0  0  0  0  0  0  0  0  0  0  0
   13.1881  -16.6349   22.1420 C   0  0  0  0  0  0  0  0  0  0  0  0
   13.0134  -17.6330   21.3830 O   0  0  0  0  0  0  0  0  0  0  0  0
   10.1724  -16.2195   24.3211 C   0  0  0  0  0  0  0  0  0  0  0  0
    9.4279  -15.2170   24.4144 O   0  0  0  0  0  0  0  0  0  0  0  0
   14.2070  -15.7614   21.7172 O   0  0  0  0  0  0  0  0  0  0  0  0
   10.2126  -17.0984   25.3796 O   0  0  0  0  0  0  0  0  0  0  0  0
  2  1  1  1
  2  3  1  0
  4  2  1  0
  5  4  2  0
  7  6  1  6
  7  9  1  0
  8  7  1  0
  9 11  1  0
  9 10  1  6
 10  4  1  0
 11 13  1  0
 12 11  2  0
 13 14  1  0
 14 15  1  1
 14 18  1  0
 16 20  1  0
 16 15  1  0
 17 16  2  0
 18 19  2  0
 18 21  1  0
M  END
$$$$
