AVD.pdb
     RDKit          3D

 21 20  0  0  1  0  0  0  0  0999 V2000
    6.3439  -16.2002   21.9416 C   0  0  0  0  0  0  0  0  0  0  0  0
    6.6255  -14.7144   21.9647 C   0  0  2  0  0  0  0  0  0  0  0  0
    7.0599  -14.2147   20.6996 N   0  0  0  0  0  0  0  0  0  0  0  0
    7.6223  -14.3622   22.9998 C   0  0  0  0  0  0  0  0  0  0  0  0
    8.8460  -14.3494   22.7278 O   0  0  0  0  0  0  0  0  0  0  0  0
    6.8953  -11.3662   25.4661 C   0  0  0  0  0  0  0  0  0  0  0  0
    7.2580  -12.6330   26.1840 C   0  0  1  0  0  0  0  0  0  0  0  0
    6.0825  -13.2778   26.8760 C   0  0  0  0  0  0  0  0  0  0  0  0
    8.0786  -13.5801   25.3511 C   0  0  2  0  0  0  0  0  0  0  0  0
    7.1894  -14.0425   24.2885 N   0  0  0  0  0  0  0  0  0  0  0  0
    8.5896  -14.7597   26.0707 C   0  0  0  0  0  0  0  0  0  0  0  0
    7.8050  -15.7154   26.3305 O   0  0  0  0  0  0  0  0  0  0  0  0
    9.9332  -14.9147   26.5070 N   0  0  0  0  0  0  0  0  0  0  0  0
   10.4477  -16.0637   27.2282 C   0  0  1  0  0  0  0  0  0  0  0  0
   11.8639  -16.3644   26.9199 C   0  0  0  0  0  0  0  0  0  0  0  0
   12.0437  -16.5754   25.4705 C   0  0  0  0  0  0  0  0  0  0  0  0
   11.2774  -17.2714   24.7416 O   0  0  0  0  0  0  0  0  0  0  0  0
   10.2180  -15.9612   28.6793 C   0  0  0  0  0  0  0  0  0  0  0  0
    9.8084  -14.8802   29.1604 O   0  0  0  0  0  0  0  0  0  0  0  0
   13.1225  -15.9934   24.7784 O   0  0  0  0  0  0  0  0  0  0  0  0
   10.4343  -17.0136   29.5396 O   0  0  0  0  0  0  0  0  0  0  0  0
  2  1  1  6
  2  3  1  0
  4  2  1  0
  5  4  2  0
  7  6  1  6
  7  9  1  0
  8  7  1  0
  9 11  1  0
  9 10  1  6
 10  4  1  0
 11 13  1  0
 12 11  2  0
 13 14  1  0
 14 15  1  1
 14 18  1  0
 16 20  1  0
 16 15  1  0
 17 16  2  0
 18 19  2  0
 18 21  1  0
M  END
$$$$
