AVD.pdb
     RDKit          3D

 21 20  0  0  1  0  0  0  0  0999 V2000
    6.9417  -17.2514   22.4209 C   0  0  0  0  0  0  0  0  0  0  0  0
    7.1915  -15.8005   22.0746 C   0  0  2  0  0  0  0  0  0  0  0  0
    7.8378  -15.6373   20.8119 N   0  0  0  0  0  0  0  0  0  0  0  0
    7.9809  -15.1159   23.1219 C   0  0  0  0  0  0  0  0  0  0  0  0
    9.2319  -15.0733   23.0514 O   0  0  0  0  0  0  0  0  0  0  0  0
    5.7485  -13.6035   26.3591 C   0  0  0  0  0  0  0  0  0  0  0  0
    6.9708  -12.8836   25.8697 C   0  0  1  0  0  0  0  0  0  0  0  0
    7.5221  -11.9033   26.8756 C   0  0  0  0  0  0  0  0  0  0  0  0
    8.0044  -13.7973   25.2689 C   0  0  2  0  0  0  0  0  0  0  0  0
    7.3207  -14.5142   24.1955 N   0  0  0  0  0  0  0  0  0  0  0  0
    8.5731  -14.7900   26.1972 C   0  0  0  0  0  0  0  0  0  0  0  0
    7.8938  -15.8091   26.5076 O   0  0  0  0  0  0  0  0  0  0  0  0
    9.8624  -14.6918   26.7870 N   0  0  0  0  0  0  0  0  0  0  0  0
   10.4157  -15.6339   27.7416 C   0  0  1  0  0  0  0  0  0  0  0  0
   11.7989  -16.0516   27.4199 C   0  0  0  0  0  0  0  0  0  0  0  0
   11.7992  -17.0319   26.3168 C   0  0  0  0  0  0  0  0  0  0  0  0
   10.7618  -17.4599   25.7308 O   0  0  0  0  0  0  0  0  0  0  0  0
   10.3024  -15.1544   29.1295 C   0  0  0  0  0  0  0  0  0  0  0  0
   10.5418  -15.9430   30.0722 O   0  0  0  0  0  0  0  0  0  0  0  0
   13.0016  -17.5759   25.8268 O   0  0  0  0  0  0  0  0  0  0  0  0
    9.9428  -13.8625   29.4398 O   0  0  0  0  0  0  0  0  0  0  0  0
  2  1  1  1
  2  3  1  0
  4  2  1  0
  5  4  2  0
  7  6  1  1
  7  9  1  0
  8  7  1  0
  9 11  1  0
  9 10  1  6
 10  4  1  0
 11 13  1  0
 12 11  2  0
 13 14  1  0
 14 15  1  6
 14 18  1  0
 16 20  1  0
 16 15  1  0
 17 16  2  0
 18 19  2  0
 18 21  1  0
M  END
$$$$
