AVD.pdb
     RDKit          3D

 21 20  0  0  1  0  0  0  0  0999 V2000
    7.3057  -18.4151   17.9939 C   0  0  0  0  0  0  0  0  0  0  0  0
    7.5871  -17.0218   17.4773 C   0  0  2  0  0  0  0  0  0  0  0  0
    8.1147  -17.0206   16.1505 N   0  0  0  0  0  0  0  0  0  0  0  0
    8.5051  -16.2817   18.3709 C   0  0  0  0  0  0  0  0  0  0  0  0
    9.7456  -16.3375   18.1979 O   0  0  0  0  0  0  0  0  0  0  0  0
    7.7004  -12.6249   19.7003 C   0  0  0  0  0  0  0  0  0  0  0  0
    7.9644  -13.6060   20.8046 C   0  0  1  0  0  0  0  0  0  0  0  0
    6.7214  -13.9779   21.5748 C   0  0  0  0  0  0  0  0  0  0  0  0
    8.7983  -14.7824   20.3746 C   0  0  2  0  0  0  0  0  0  0  0  0
    7.9787  -15.5167   19.4140 N   0  0  0  0  0  0  0  0  0  0  0  0
    9.1778  -15.7060   21.4579 C   0  0  0  0  0  0  0  0  0  0  0  0
    8.3957  -16.6470   21.7729 O   0  0  0  0  0  0  0  0  0  0  0  0
   10.3887  -15.6226   22.1972 N   0  0  0  0  0  0  0  0  0  0  0  0
   10.7983  -16.5526   23.2327 C   0  0  1  0  0  0  0  0  0  0  0  0
   12.2675  -16.6565   23.3808 C   0  0  0  0  0  0  0  0  0  0  0  0
   12.9048  -16.8762   22.0681 C   0  0  0  0  0  0  0  0  0  0  0  0
   12.5674  -17.7752   21.2430 O   0  0  0  0  0  0  0  0  0  0  0  0
   10.1409  -16.2782   24.5218 C   0  0  0  0  0  0  0  0  0  0  0  0
    9.5105  -15.2070   24.6728 O   0  0  0  0  0  0  0  0  0  0  0  0
   13.9720  -16.0679   21.6326 O   0  0  0  0  0  0  0  0  0  0  0  0
   10.1879  -17.1581   25.5792 O   0  0  0  0  0  0  0  0  0  0  0  0
  2  1  1  1
  2  3  1  0
  4  2  1  0
  5  4  2  0
  7  6  1  6
  7  9  1  0
  8  7  1  0
  9 11  1  0
  9 10  1  6
 10  4  1  0
 11 13  1  0
 12 11  2  0
 13 14  1  0
 14 15  1  1
 14 18  1  0
 16 20  1  0
 16 15  1  0
 17 16  2  0
 18 19  2  0
 18 21  1  0
M  END
$$$$
