AVD.pdb
     RDKit          3D

 21 20  0  0  1  0  0  0  0  0999 V2000
    7.2821  -18.5032   18.1519 C   0  0  0  0  0  0  0  0  0  0  0  0
    7.6851  -17.1506   17.6083 C   0  0  2  0  0  0  0  0  0  0  0  0
    8.2929  -17.2322   16.3188 N   0  0  0  0  0  0  0  0  0  0  0  0
    8.5921  -16.4368   18.5339 C   0  0  0  0  0  0  0  0  0  0  0  0
    9.8355  -16.5129   18.3928 O   0  0  0  0  0  0  0  0  0  0  0  0
    7.7611  -12.7740   19.6822 C   0  0  0  0  0  0  0  0  0  0  0  0
    8.0144  -13.6850   20.8473 C   0  0  1  0  0  0  0  0  0  0  0  0
    6.7634  -14.0128   21.6245 C   0  0  0  0  0  0  0  0  0  0  0  0
    8.8560  -14.8829   20.4998 C   0  0  2  0  0  0  0  0  0  0  0  0
    8.0520  -15.6737   19.5714 N   0  0  0  0  0  0  0  0  0  0  0  0
    9.2198  -15.7408   21.6410 C   0  0  0  0  0  0  0  0  0  0  0  0
    8.4320  -16.6605   22.0011 O   0  0  0  0  0  0  0  0  0  0  0  0
   10.4212  -15.6148   22.3896 N   0  0  0  0  0  0  0  0  0  0  0  0
   10.7976  -16.4578   23.5088 C   0  0  1  0  0  0  0  0  0  0  0  0
   12.2531  -16.4599   23.7787 C   0  0  0  0  0  0  0  0  0  0  0  0
   13.0007  -16.8789   22.5774 C   0  0  0  0  0  0  0  0  0  0  0  0
   12.7837  -17.9428   21.9264 O   0  0  0  0  0  0  0  0  0  0  0  0
   10.0209  -16.1543   24.7228 C   0  0  0  0  0  0  0  0  0  0  0  0
    9.3632  -15.0903   24.7798 O   0  0  0  0  0  0  0  0  0  0  0  0
   14.0454  -16.0908   22.0585 O   0  0  0  0  0  0  0  0  0  0  0  0
    9.9841  -16.9989   25.8090 O   0  0  0  0  0  0  0  0  0  0  0  0
  2  1  1  1
  2  3  1  0
  4  2  1  0
  5  4  2  0
  7  6  1  6
  7  9  1  0
  8  7  1  0
  9 11  1  0
  9 10  1  6
 10  4  1  0
 11 13  1  0
 12 11  2  0
 13 14  1  0
 14 15  1  1
 14 18  1  0
 16 20  1  0
 16 15  1  0
 17 16  2  0
 18 19  2  0
 18 21  1  0
M  END
$$$$
