VAW.pdb
     RDKit          3D

 27 28  0  0  1  0  0  0  0  0999 V2000
   16.5996   -9.0931  -16.3751 C   0  0  0  0  0  0  0  0  0  0  0  0
   16.5223  -10.4799  -15.8288 C   0  0  1  0  0  0  0  0  0  0  0  0
   15.4558  -11.2271  -16.6030 C   0  0  0  0  0  0  0  0  0  0  0  0
   17.8308  -11.2304  -15.9450 C   0  0  2  0  0  0  0  0  0  0  0  0
   17.6551  -12.5832  -15.4583 N   0  0  0  0  0  0  0  0  0  0  0  0
   18.9120  -10.5846  -15.1785 C   0  0  0  0  0  0  0  0  0  0  0  0
   18.8196  -10.4884  -13.9048 O   0  0  0  0  0  0  0  0  0  0  0  0
   22.3692   -9.4527  -15.7716 C   0  0  0  0  0  0  0  0  0  0  0  0
   21.0008   -9.3093  -15.0885 C   0  0  2  0  0  0  0  0  0  0  0  0
   20.0483  -10.0732  -15.8541 N   0  0  0  0  0  0  0  0  0  0  0  0
   20.6961   -7.8594  -15.0966 C   0  0  0  0  0  0  0  0  0  0  0  0
   20.1003   -7.3916  -16.1001 O   0  0  0  0  0  0  0  0  0  0  0  0
   21.0303   -6.9759  -14.0556 N   0  0  0  0  0  0  0  0  0  0  0  0
   20.7351   -5.5571  -14.0652 C   0  0  1  0  0  0  0  0  0  0  0  0
   19.2566   -5.4376  -13.6673 C   0  0  0  0  0  0  0  0  0  0  0  0
   19.0632   -5.9785  -12.2853 C   0  0  0  0  0  0  0  0  0  0  0  0
   19.6584   -5.6305  -11.1104 C   0  0  0  0  0  0  0  0  0  0  0  0
   19.1309   -6.4255  -10.1475 N   0  0  0  0  0  0  0  0  0  0  0  0
   18.2211   -7.2654  -10.6758 C   0  0  0  0  0  0  0  0  0  0  0  0
   17.4062   -8.2583  -10.1601 C   0  0  0  0  0  0  0  0  0  0  0  0
   16.5535   -8.9659  -10.9839 C   0  0  0  0  0  0  0  0  0  0  0  0
   16.4742   -8.7216  -12.3375 C   0  0  0  0  0  0  0  0  0  0  0  0
   17.3002   -7.7213  -12.8358 C   0  0  0  0  0  0  0  0  0  0  0  0
   18.1588   -7.0049  -12.0219 C   0  0  0  0  0  0  0  0  0  0  0  0
   21.5453   -4.8116  -13.0837 C   0  0  0  0  0  0  0  0  0  0  0  0
   21.5588   -3.4435  -12.9725 O   0  0  0  0  0  0  0  0  0  0  0  0
   22.2915   -5.4568  -12.2729 O   0  0  0  0  0  0  0  0  0  0  0  0
  2  1  1  6
  3  2  1  0
  4  2  1  0
  4  5  1  1
  6  7  2  0
  6  4  1  0
  9  8  1  6
  9 10  1  0
 10  6  1  0
 11  9  1  0
 11 13  1  0
 12 11  2  0
 14 13  1  0
 14 25  1  0
 14 15  1  1
 16 15  1  0
 17 16  2  0
 18 17  1  0
 19 18  1  0
 19 24  2  0
 20 19  1  0
 21 20  2  0
 21 22  1  0
 22 23  2  0
 23 24  1  0
 24 16  1  0
 25 27  2  0
 25 26  1  0
M  END
$$$$
