VAW.pdb
     RDKit          3D

 27 28  0  0  1  0  0  0  0  0999 V2000
   25.4444  -25.6186  -17.3508 C   0  0  0  0  0  0  0  0  0  0  0  0
   25.9180  -24.5770  -16.3925 C   0  0  1  0  0  0  0  0  0  0  0  0
   27.2963  -24.9797  -15.9097 C   0  0  0  0  0  0  0  0  0  0  0  0
   25.9978  -23.2001  -17.0145 C   0  0  2  0  0  0  0  0  0  0  0  0
   26.8314  -23.2536  -18.1977 N   0  0  0  0  0  0  0  0  0  0  0  0
   26.5544  -22.2012  -16.0839 C   0  0  0  0  0  0  0  0  0  0  0  0
   27.5223  -21.4514  -16.4591 O   0  0  0  0  0  0  0  0  0  0  0  0
   25.7133  -19.6942  -14.6473 C   0  0  0  0  0  0  0  0  0  0  0  0
   26.3865  -20.9168  -14.0056 C   0  0  2  0  0  0  0  0  0  0  0  0
   26.0161  -22.0752  -14.7787 N   0  0  0  0  0  0  0  0  0  0  0  0
   25.8718  -20.9782  -12.6176 C   0  0  0  0  0  0  0  0  0  0  0  0
   24.6391  -21.1669  -12.4578 O   0  0  0  0  0  0  0  0  0  0  0  0
   26.6728  -20.8393  -11.4709 N   0  0  0  0  0  0  0  0  0  0  0  0
   26.1808  -20.9653  -10.1135 C   0  0  1  0  0  0  0  0  0  0  0  0
   27.3249  -20.4817   -9.2103 C   0  0  0  0  0  0  0  0  0  0  0  0
   26.8716  -20.4785   -7.7840 C   0  0  0  0  0  0  0  0  0  0  0  0
   25.7210  -20.9445   -7.2230 C   0  0  0  0  0  0  0  0  0  0  0  0
   25.8009  -20.6996   -5.8921 N   0  0  0  0  0  0  0  0  0  0  0  0
   26.9652  -20.0935   -5.5934 C   0  0  0  0  0  0  0  0  0  0  0  0
   27.5444  -19.6331   -4.4236 C   0  0  0  0  0  0  0  0  0  0  0  0
   28.7899  -19.0373   -4.4434 C   0  0  0  0  0  0  0  0  0  0  0  0
   29.5045  -18.8749   -5.6100 C   0  0  0  0  0  0  0  0  0  0  0  0
   28.9059  -19.3435   -6.7733 C   0  0  0  0  0  0  0  0  0  0  0  0
   27.6592  -19.9422   -6.7678 C   0  0  0  0  0  0  0  0  0  0  0  0
   24.9997  -20.1170   -9.8669 C   0  0  0  0  0  0  0  0  0  0  0  0
   24.8873  -18.8111  -10.2745 O   0  0  0  0  0  0  0  0  0  0  0  0
   24.0028  -20.6048   -9.2354 O   0  0  0  0  0  0  0  0  0  0  0  0
  2  1  1  6
  3  2  1  0
  4  2  1  0
  4  5  1  6
  6  7  2  0
  6  4  1  0
  9  8  1  6
  9 10  1  0
 10  6  1  0
 11  9  1  0
 11 13  1  0
 12 11  2  0
 14 13  1  0
 14 25  1  0
 14 15  1  1
 16 15  1  0
 17 16  2  0
 18 17  1  0
 19 18  1  0
 19 24  2  0
 20 19  1  0
 21 20  2  0
 21 22  1  0
 22 23  2  0
 23 24  1  0
 24 16  1  0
 25 27  2  0
 25 26  1  0
M  END
$$$$
