VAW.pdb
     RDKit          3D

 27 28  0  0  1  0  0  0  0  0999 V2000
   29.8199  -22.5200  -18.3159 C   0  0  0  0  0  0  0  0  0  0  0  0
   29.1086  -21.5424  -17.4406 C   0  0  1  0  0  0  0  0  0  0  0  0
   28.2072  -20.6997  -18.3195 C   0  0  0  0  0  0  0  0  0  0  0  0
   28.2695  -22.2116  -16.3742 C   0  0  2  0  0  0  0  0  0  0  0  0
   27.1827  -22.9359  -17.0004 N   0  0  0  0  0  0  0  0  0  0  0  0
   27.7069  -21.2400  -15.4186 C   0  0  0  0  0  0  0  0  0  0  0  0
   28.4882  -20.5773  -14.6503 O   0  0  0  0  0  0  0  0  0  0  0  0
   24.6835  -19.2924  -15.0664 C   0  0  0  0  0  0  0  0  0  0  0  0
   25.7991  -20.1018  -14.3881 C   0  0  2  0  0  0  0  0  0  0  0  0
   26.3046  -21.0438  -15.3545 N   0  0  0  0  0  0  0  0  0  0  0  0
   25.1640  -20.7708  -13.2288 C   0  0  0  0  0  0  0  0  0  0  0  0
   24.5320  -21.8368  -13.4415 O   0  0  0  0  0  0  0  0  0  0  0  0
   25.2233  -20.2903  -11.9091 N   0  0  0  0  0  0  0  0  0  0  0  0
   24.6520  -20.9749  -10.7666 C   0  0  1  0  0  0  0  0  0  0  0  0
   25.2478  -20.2870   -9.5295 C   0  0  0  0  0  0  0  0  0  0  0  0
   26.7040  -20.6165   -9.4243 C   0  0  0  0  0  0  0  0  0  0  0  0
   27.4910  -21.3981  -10.2151 C   0  0  0  0  0  0  0  0  0  0  0  0
   28.7388  -21.3683   -9.6863 N   0  0  0  0  0  0  0  0  0  0  0  0
   28.7662  -20.5929   -8.5862 C   0  0  0  0  0  0  0  0  0  0  0  0
   29.7508  -20.2256   -7.6853 C   0  0  0  0  0  0  0  0  0  0  0  0
   29.4574  -19.3902   -6.6258 C   0  0  0  0  0  0  0  0  0  0  0  0
   28.1907  -18.8900   -6.4177 C   0  0  0  0  0  0  0  0  0  0  0  0
   27.2165  -19.2704   -7.3329 C   0  0  0  0  0  0  0  0  0  0  0  0
   27.4967  -20.1065   -8.3985 C   0  0  0  0  0  0  0  0  0  0  0  0
   23.1839  -20.8431  -10.7135 C   0  0  0  0  0  0  0  0  0  0  0  0
   22.3596  -21.6676   -9.9890 O   0  0  0  0  0  0  0  0  0  0  0  0
   22.6175  -19.9095  -11.3752 O   0  0  0  0  0  0  0  0  0  0  0  0
  2  1  1  6
  3  2  1  0
  4  2  1  0
  4  5  1  6
  6  7  2  0
  6  4  1  0
  9  8  1  6
  9 10  1  0
 10  6  1  0
 11  9  1  0
 11 13  1  0
 12 11  2  0
 14 13  1  0
 14 25  1  0
 14 15  1  1
 16 15  1  0
 17 16  2  0
 18 17  1  0
 19 18  1  0
 19 24  2  0
 20 19  1  0
 21 20  2  0
 21 22  1  0
 22 23  2  0
 23 24  1  0
 24 16  1  0
 25 27  2  0
 25 26  1  0
M  END
$$$$
