VAW.pdb
     RDKit          3D

 27 28  0  0  1  0  0  0  0  0999 V2000
   29.7809  -21.0463  -15.0439 C   0  0  0  0  0  0  0  0  0  0  0  0
   28.6557  -20.8772  -14.0781 C   0  0  1  0  0  0  0  0  0  0  0  0
   29.2257  -20.3136  -12.7924 C   0  0  0  0  0  0  0  0  0  0  0  0
   27.5789  -19.9451  -14.5887 C   0  0  2  0  0  0  0  0  0  0  0  0
   28.1813  -18.6951  -15.0044 N   0  0  0  0  0  0  0  0  0  0  0  0
   26.5558  -19.6641  -13.5651 C   0  0  0  0  0  0  0  0  0  0  0  0
   26.7442  -18.7221  -12.7183 O   0  0  0  0  0  0  0  0  0  0  0  0
   23.0951  -20.8288  -12.8472 C   0  0  0  0  0  0  0  0  0  0  0  0
   24.4300  -20.1741  -12.4612 C   0  0  2  0  0  0  0  0  0  0  0  0
   25.3686  -20.4375  -13.5227 N   0  0  0  0  0  0  0  0  0  0  0  0
   24.8340  -20.8054  -11.1832 C   0  0  0  0  0  0  0  0  0  0  0  0
   25.8441  -21.5540  -11.1931 O   0  0  0  0  0  0  0  0  0  0  0  0
   24.1608  -20.6206   -9.9631 N   0  0  0  0  0  0  0  0  0  0  0  0
   24.6090  -21.1616   -8.6955 C   0  0  1  0  0  0  0  0  0  0  0  0
   25.8973  -20.4000   -8.3508 C   0  0  0  0  0  0  0  0  0  0  0  0
   26.3901  -20.8303   -7.0047 C   0  0  0  0  0  0  0  0  0  0  0  0
   26.0430  -21.9025   -6.2395 C   0  0  0  0  0  0  0  0  0  0  0  0
   26.7825  -21.8367   -5.1054 N   0  0  0  0  0  0  0  0  0  0  0  0
   27.5862  -20.7570   -5.1287 C   0  0  0  0  0  0  0  0  0  0  0  0
   28.5192  -20.2260   -4.2550 C   0  0  0  0  0  0  0  0  0  0  0  0
   29.2017  -19.0688   -4.5739 C   0  0  0  0  0  0  0  0  0  0  0  0
   28.9900  -18.3977   -5.7583 C   0  0  0  0  0  0  0  0  0  0  0  0
   28.0496  -18.9467   -6.6217 C   0  0  0  0  0  0  0  0  0  0  0  0
   27.3590  -20.1050   -6.3148 C   0  0  0  0  0  0  0  0  0  0  0  0
   23.6299  -20.9376   -7.6154 C   0  0  0  0  0  0  0  0  0  0  0  0
   23.4382  -21.7902   -6.5569 O   0  0  0  0  0  0  0  0  0  0  0  0
   22.9005  -19.8899   -7.6427 O   0  0  0  0  0  0  0  0  0  0  0  0
  2  1  1  6
  3  2  1  0
  4  2  1  0
  4  5  1  1
  6  7  2  0
  6  4  1  0
  9  8  1  6
  9 10  1  0
 10  6  1  0
 11  9  1  0
 11 13  1  0
 12 11  2  0
 14 13  1  0
 14 25  1  0
 14 15  1  1
 16 15  1  0
 17 16  2  0
 18 17  1  0
 19 18  1  0
 19 24  2  0
 20 19  1  0
 21 20  2  0
 21 22  1  0
 22 23  2  0
 23 24  1  0
 24 16  1  0
 25 27  2  0
 25 26  1  0
M  END
$$$$
