VAW.pdb
     RDKit          3D

 27 28  0  0  1  0  0  0  0  0999 V2000
   29.1548  -17.5837  -16.8291 C   0  0  0  0  0  0  0  0  0  0  0  0
   28.0068  -17.6304  -15.8765 C   0  0  1  0  0  0  0  0  0  0  0  0
   26.7646  -17.9999  -16.6612 C   0  0  0  0  0  0  0  0  0  0  0  0
   28.2055  -18.6394  -14.7668 C   0  0  2  0  0  0  0  0  0  0  0  0
   28.3589  -19.9610  -15.3392 N   0  0  0  0  0  0  0  0  0  0  0  0
   27.0735  -18.6572  -13.8224 C   0  0  0  0  0  0  0  0  0  0  0  0
   26.8252  -17.6247  -13.1068 O   0  0  0  0  0  0  0  0  0  0  0  0
   24.0159  -20.5838  -13.3513 C   0  0  0  0  0  0  0  0  0  0  0  0
   25.1920  -19.7999  -12.7493 C   0  0  2  0  0  0  0  0  0  0  0  0
   26.2655  -19.8165  -13.7107 N   0  0  0  0  0  0  0  0  0  0  0  0
   25.5476  -20.5057  -11.4962 C   0  0  0  0  0  0  0  0  0  0  0  0
   26.6628  -21.0843  -11.4460 O   0  0  0  0  0  0  0  0  0  0  0  0
   24.7190  -20.5692  -10.3625 N   0  0  0  0  0  0  0  0  0  0  0  0
   25.1110  -21.1614   -9.0992 C   0  0  1  0  0  0  0  0  0  0  0  0
   26.2835  -20.3114   -8.5880 C   0  0  0  0  0  0  0  0  0  0  0  0
   26.7305  -20.8229   -7.2544 C   0  0  0  0  0  0  0  0  0  0  0  0
   26.4041  -21.9691   -6.5945 C   0  0  0  0  0  0  0  0  0  0  0  0
   27.0808  -21.9573   -5.4201 N   0  0  0  0  0  0  0  0  0  0  0  0
   27.8249  -20.8403   -5.3159 C   0  0  0  0  0  0  0  0  0  0  0  0
   28.6824  -20.3348   -4.3542 C   0  0  0  0  0  0  0  0  0  0  0  0
   29.3162  -19.1230   -4.5449 C   0  0  0  0  0  0  0  0  0  0  0  0
   29.1283  -18.3706   -5.6836 C   0  0  0  0  0  0  0  0  0  0  0  0
   28.2638  -18.8952   -6.6369 C   0  0  0  0  0  0  0  0  0  0  0  0
   27.6226  -20.1076   -6.4586 C   0  0  0  0  0  0  0  0  0  0  0  0
   24.0274  -21.1129   -8.0997 C   0  0  0  0  0  0  0  0  0  0  0  0
   23.8226  -22.0676   -7.1349 O   0  0  0  0  0  0  0  0  0  0  0  0
   23.2130  -20.1296   -8.1105 O   0  0  0  0  0  0  0  0  0  0  0  0
  2  1  1  6
  3  2  1  0
  4  2  1  0
  4  5  1  6
  6  7  2  0
  6  4  1  0
  9  8  1  6
  9 10  1  0
 10  6  1  0
 11  9  1  0
 11 13  1  0
 12 11  2  0
 14 13  1  0
 14 25  1  0
 14 15  1  1
 16 15  1  0
 17 16  2  0
 18 17  1  0
 19 18  1  0
 19 24  2  0
 20 19  1  0
 21 20  2  0
 21 22  1  0
 22 23  2  0
 23 24  1  0
 24 16  1  0
 25 27  2  0
 25 26  1  0
M  END
$$$$
