VAW.pdb
     RDKit          3D

 27 28  0  0  1  0  0  0  0  0999 V2000
   26.2585  -22.8724  -17.6595 C   0  0  0  0  0  0  0  0  0  0  0  0
   27.6900  -23.2023  -17.9230 C   0  0  1  0  0  0  0  0  0  0  0  0
   27.8038  -23.6702  -19.3595 C   0  0  0  0  0  0  0  0  0  0  0  0
   28.6124  -22.0210  -17.7163 C   0  0  2  0  0  0  0  0  0  0  0  0
   29.9715  -22.4101  -18.0312 N   0  0  0  0  0  0  0  0  0  0  0  0
   28.5692  -21.5178  -16.3312 C   0  0  0  0  0  0  0  0  0  0  0  0
   28.9636  -22.2659  -15.3696 O   0  0  0  0  0  0  0  0  0  0  0  0
   27.6046  -18.3058  -14.6848 C   0  0  0  0  0  0  0  0  0  0  0  0
   27.9695  -19.7980  -14.6942 C   0  0  2  0  0  0  0  0  0  0  0  0
   28.0916  -20.2090  -16.0701 N   0  0  0  0  0  0  0  0  0  0  0  0
   26.8599  -20.4887  -13.9967 C   0  0  0  0  0  0  0  0  0  0  0  0
   25.8265  -20.7560  -14.6611 O   0  0  0  0  0  0  0  0  0  0  0  0
   26.8894  -20.8634  -12.6422 N   0  0  0  0  0  0  0  0  0  0  0  0
   25.8029  -21.5371  -11.9596 C   0  0  1  0  0  0  0  0  0  0  0  0
   26.4023  -22.0709  -10.6502 C   0  0  0  0  0  0  0  0  0  0  0  0
   26.4123  -20.9831   -9.6223 C   0  0  0  0  0  0  0  0  0  0  0  0
   25.4650  -20.0552   -9.3107 C   0  0  0  0  0  0  0  0  0  0  0  0
   25.9666  -19.2987   -8.3038 N   0  0  0  0  0  0  0  0  0  0  0  0
   27.2010  -19.7185   -7.9687 C   0  0  0  0  0  0  0  0  0  0  0  0
   28.1403  -19.3152   -7.0355 C   0  0  0  0  0  0  0  0  0  0  0  0
   29.3529  -19.9674   -6.9319 C   0  0  0  0  0  0  0  0  0  0  0  0
   29.6809  -21.0341   -7.7398 C   0  0  0  0  0  0  0  0  0  0  0  0
   28.7248  -21.4236   -8.6701 C   0  0  0  0  0  0  0  0  0  0  0  0
   27.5064  -20.7792   -8.7844 C   0  0  0  0  0  0  0  0  0  0  0  0
   24.6974  -20.6189  -11.6277 C   0  0  0  0  0  0  0  0  0  0  0  0
   23.4008  -21.0157  -11.4141 O   0  0  0  0  0  0  0  0  0  0  0  0
   24.9348  -19.3684  -11.5263 O   0  0  0  0  0  0  0  0  0  0  0  0
  2  1  1  6
  3  2  1  0
  4  2  1  0
  4  5  1  1
  6  7  2  0
  6  4  1  0
  9  8  1  6
  9 10  1  0
 10  6  1  0
 11  9  1  0
 11 13  1  0
 12 11  2  0
 14 13  1  0
 14 25  1  0
 14 15  1  1
 16 15  1  0
 17 16  2  0
 18 17  1  0
 19 18  1  0
 19 24  2  0
 20 19  1  0
 21 20  2  0
 21 22  1  0
 22 23  2  0
 23 24  1  0
 24 16  1  0
 25 27  2  0
 25 26  1  0
M  END
$$$$
