GLR.pdb
     RDKit          3D

 24 23  0  0  1  0  0  0  0  0999 V2000
   29.5824  -23.7105  -16.6521 N   0  0  0  0  0  0  0  0  0  0  0  0
   28.8508  -22.6538  -17.2772 C   0  0  0  0  0  0  0  0  0  0  0  0
   28.1344  -21.7789  -16.2832 C   0  0  0  0  0  0  0  0  0  0  0  0
   28.2438  -22.0965  -15.0855 O   0  0  0  0  0  0  0  0  0  0  0  0
   25.9465  -16.0618  -15.7933 C   0  0  0  0  0  0  0  0  0  0  0  0
   26.7418  -17.2845  -15.4069 C   0  0  1  0  0  0  0  0  0  0  0  0
   26.4850  -17.7869  -14.0254 C   0  0  0  0  0  0  0  0  0  0  0  0
   26.6439  -18.3918  -16.4112 C   0  0  0  0  0  0  0  0  0  0  0  0
   26.7361  -19.7689  -15.8800 C   0  0  2  0  0  0  0  0  0  0  0  0
   27.3970  -20.6715  -16.7754 N   0  0  0  0  0  0  0  0  0  0  0  0
   25.4114  -20.3481  -15.5119 C   0  0  0  0  0  0  0  0  0  0  0  0
   24.5430  -20.5277  -16.3999 O   0  0  0  0  0  0  0  0  0  0  0  0
   23.0497  -25.6651  -17.2505 N   0  0  0  0  0  0  0  0  0  0  0  0
   23.1665  -26.4512  -16.0792 C   0  0  0  0  0  0  0  0  0  0  0  0
   22.9680  -27.7003  -16.1314 N   0  0  0  0  0  0  0  0  0  0  0  0
   23.5032  -25.8378  -14.8523 N   0  0  0  0  0  0  0  0  0  0  0  0
   23.7703  -24.3706  -14.8916 C   0  0  0  0  0  0  0  0  0  0  0  0
   24.0488  -23.9935  -13.4907 C   0  0  0  0  0  0  0  0  0  0  0  0
   24.3064  -22.6176  -13.1301 C   0  0  0  0  0  0  0  0  0  0  0  0
   23.8047  -21.4754  -13.9333 C   0  0  2  0  0  0  0  0  0  0  0  0
   25.0812  -20.7082  -14.2047 N   0  0  0  0  0  0  0  0  0  0  0  0
   22.9395  -20.4919  -13.2793 C   0  0  0  0  0  0  0  0  0  0  0  0
   23.3302  -19.5509  -12.5358 O   0  0  0  0  0  0  0  0  0  0  0  0
   21.5387  -20.5931  -13.4920 O   0  0  0  0  0  0  0  0  0  0  0  0
  1  2  1  0
  3  2  1  0
  3  4  2  0
  6  5  1  6
  6  8  1  0
  7  6  1  0
  9  8  1  6
  9 10  1  0
 10  3  1  0
 11  9  1  0
 12 11  2  0
 13 14  1  0
 14 15  2  0
 16 14  1  0
 16 17  1  0
 17 18  1  0
 20 19  1  1
 19 18  1  0
 20 21  1  0
 21 11  1  0
 22 20  1  0
 23 22  2  0
 24 22  1  0
M  END
$$$$
