GLR.pdb
     RDKit          3D

 24 23  0  0  1  0  0  0  0  0999 V2000
   22.0360  -16.3894  -17.2222 N   0  0  0  0  0  0  0  0  0  0  0  0
   22.5167  -15.1492  -17.7452 C   0  0  0  0  0  0  0  0  0  0  0  0
   22.9598  -14.1985  -16.6651 C   0  0  0  0  0  0  0  0  0  0  0  0
   22.2288  -14.1202  -15.6616 O   0  0  0  0  0  0  0  0  0  0  0  0
   28.3351  -12.8546  -16.0017 C   0  0  0  0  0  0  0  0  0  0  0  0
   26.8865  -13.2011  -15.7601 C   0  0  1  0  0  0  0  0  0  0  0  0
   26.6043  -13.8187  -14.4312 C   0  0  0  0  0  0  0  0  0  0  0  0
   25.9548  -12.0606  -16.0343 C   0  0  0  0  0  0  0  0  0  0  0  0
   24.5097  -12.3742  -16.0115 C   0  0  2  0  0  0  0  0  0  0  0  0
   24.1609  -13.4708  -16.8652 N   0  0  0  0  0  0  0  0  0  0  0  0
   23.6483  -11.2069  -16.3596 C   0  0  0  0  0  0  0  0  0  0  0  0
   23.3566  -10.9856  -17.5600 O   0  0  0  0  0  0  0  0  0  0  0  0
   15.9327  -11.1356  -17.3073 N   0  0  0  0  0  0  0  0  0  0  0  0
   16.0837   -9.7491  -17.0654 C   0  0  0  0  0  0  0  0  0  0  0  0
   15.0933   -8.9714  -17.1939 N   0  0  0  0  0  0  0  0  0  0  0  0
   17.3426   -9.2361  -16.6823 N   0  0  0  0  0  0  0  0  0  0  0  0
   18.4758  -10.2057  -16.6491 C   0  0  0  0  0  0  0  0  0  0  0  0
   19.6631   -9.3970  -16.3050 C   0  0  0  0  0  0  0  0  0  0  0  0
   20.9598  -10.0148  -16.1428 C   0  0  0  0  0  0  0  0  0  0  0  0
   22.1787   -9.2358  -15.8125 C   0  0  2  0  0  0  0  0  0  0  0  0
   23.1392  -10.3307  -15.4001 N   0  0  0  0  0  0  0  0  0  0  0  0
   22.1426   -8.3476  -14.6493 C   0  0  0  0  0  0  0  0  0  0  0  0
   22.4440   -8.6730  -13.4685 O   0  0  0  0  0  0  0  0  0  0  0  0
   21.7364   -7.0017  -14.8526 O   0  0  0  0  0  0  0  0  0  0  0  0
  1  2  1  0
  3  2  1  0
  3  4  2  0
  6  5  1  1
  6  8  1  0
  7  6  1  0
  9  8  1  6
  9 10  1  0
 10  3  1  0
 11  9  1  0
 12 11  2  0
 13 14  1  0
 14 15  2  0
 16 14  1  0
 16 17  1  0
 17 18  1  0
 20 19  1  1
 19 18  1  0
 20 21  1  0
 21 11  1  0
 22 20  1  0
 23 22  2  0
 24 22  1  0
M  END
$$$$
