GLR.pdb
     RDKit          3D

 24 23  0  0  1  0  0  0  0  0999 V2000
   28.4630  -19.2549  -15.1690 N   0  0  0  0  0  0  0  0  0  0  0  0
   27.7663  -18.9147  -13.9684 C   0  0  0  0  0  0  0  0  0  0  0  0
   27.3190  -20.1268  -13.1955 C   0  0  0  0  0  0  0  0  0  0  0  0
   27.4981  -21.2298  -13.7421 O   0  0  0  0  0  0  0  0  0  0  0  0
   27.0338  -19.2953   -7.8153 C   0  0  0  0  0  0  0  0  0  0  0  0
   27.3688  -20.0349   -9.0872 C   0  0  1  0  0  0  0  0  0  0  0  0
   28.5404  -20.9537   -8.9866 C   0  0  0  0  0  0  0  0  0  0  0  0
   26.1878  -20.7300   -9.6923 C   0  0  0  0  0  0  0  0  0  0  0  0
   26.2769  -21.0381  -11.1360 C   0  0  2  0  0  0  0  0  0  0  0  0
   26.7341  -19.9282  -11.9184 N   0  0  0  0  0  0  0  0  0  0  0  0
   24.9926  -21.5309  -11.7133 C   0  0  0  0  0  0  0  0  0  0  0  0
   24.3477  -22.4287  -11.1191 O   0  0  0  0  0  0  0  0  0  0  0  0
   17.6466  -22.3256  -12.8450 N   0  0  0  0  0  0  0  0  0  0  0  0
   17.8214  -22.2261  -11.4439 C   0  0  0  0  0  0  0  0  0  0  0  0
   16.9812  -22.7580  -10.6607 N   0  0  0  0  0  0  0  0  0  0  0  0
   18.9345  -21.5303  -10.9226 N   0  0  0  0  0  0  0  0  0  0  0  0
   19.7200  -20.7092  -11.8892 C   0  0  0  0  0  0  0  0  0  0  0  0
   20.8765  -21.5514  -12.2572 C   0  0  0  0  0  0  0  0  0  0  0  0
   22.1672  -20.9606  -12.5305 C   0  0  0  0  0  0  0  0  0  0  0  0
   23.1573  -21.5921  -13.4374 C   0  0  2  0  0  0  0  0  0  0  0  0
   24.4598  -21.0348  -12.9039 N   0  0  0  0  0  0  0  0  0  0  0  0
   23.1607  -21.1969  -14.8471 C   0  0  0  0  0  0  0  0  0  0  0  0
   23.8445  -20.2612  -15.3448 O   0  0  0  0  0  0  0  0  0  0  0  0
   22.3284  -21.9204  -15.7425 O   0  0  0  0  0  0  0  0  0  0  0  0
  1  2  1  0
  3  2  1  0
  3  4  2  0
  6  5  1  1
  6  8  1  0
  7  6  1  0
  9  8  1  1
  9 10  1  0
 10  3  1  0
 11  9  1  0
 12 11  2  0
 13 14  1  0
 14 15  2  0
 16 14  1  0
 16 17  1  0
 17 18  1  0
 20 19  1  1
 19 18  1  0
 20 21  1  0
 21 11  1  0
 22 20  1  0
 23 22  2  0
 24 22  1  0
M  END
$$$$
