GLR.pdb
     RDKit          3D

 24 23  0  0  1  0  0  0  0  0999 V2000
   22.2787  -20.4918   -8.5855 N   0  0  0  0  0  0  0  0  0  0  0  0
   23.5311  -21.0912   -8.9241 C   0  0  0  0  0  0  0  0  0  0  0  0
   24.1197  -20.5267  -10.1897 C   0  0  0  0  0  0  0  0  0  0  0  0
   23.4721  -19.6223  -10.7467 O   0  0  0  0  0  0  0  0  0  0  0  0
   27.9164  -19.0469  -13.5321 C   0  0  0  0  0  0  0  0  0  0  0  0
   28.0946  -20.5107  -13.2121 C   0  0  1  0  0  0  0  0  0  0  0  0
   29.5091  -20.9862  -13.2250 C   0  0  0  0  0  0  0  0  0  0  0  0
   27.3963  -20.9274  -11.9540 C   0  0  0  0  0  0  0  0  0  0  0  0
   25.9667  -20.5642  -11.8465 C   0  0  2  0  0  0  0  0  0  0  0  0
   25.3518  -21.0579  -10.6501 N   0  0  0  0  0  0  0  0  0  0  0  0
   25.1563  -21.0097  -13.0172 C   0  0  0  0  0  0  0  0  0  0  0  0
   24.8855  -22.2269  -13.1589 O   0  0  0  0  0  0  0  0  0  0  0  0
   18.4931  -22.2401  -15.6350 N   0  0  0  0  0  0  0  0  0  0  0  0
   18.6254  -21.8194  -14.2899 C   0  0  0  0  0  0  0  0  0  0  0  0
   18.0366  -22.4538  -13.3663 N   0  0  0  0  0  0  0  0  0  0  0  0
   19.4143  -20.6891  -13.9819 N   0  0  0  0  0  0  0  0  0  0  0  0
   19.9798  -19.9354  -15.1385 C   0  0  0  0  0  0  0  0  0  0  0  0
   21.2799  -20.5790  -15.4174 C   0  0  0  0  0  0  0  0  0  0  0  0
   22.4903  -20.1131  -14.7793 C   0  0  0  0  0  0  0  0  0  0  0  0
   23.8310  -20.6447  -15.1278 C   0  0  2  0  0  0  0  0  0  0  0  0
   24.6734  -20.1251  -13.9824 N   0  0  0  0  0  0  0  0  0  0  0  0
   24.4999  -20.1184  -16.3190 C   0  0  0  0  0  0  0  0  0  0  0  0
   24.7160  -20.7607  -17.3828 O   0  0  0  0  0  0  0  0  0  0  0  0
   24.9484  -18.7709  -16.2890 O   0  0  0  0  0  0  0  0  0  0  0  0
  1  2  1  0
  3  2  1  0
  3  4  2  0
  6  5  1  1
  6  8  1  0
  7  6  1  0
  9  8  1  6
  9 10  1  0
 10  3  1  0
 11  9  1  0
 12 11  2  0
 13 14  1  0
 14 15  2  0
 16 14  1  0
 16 17  1  0
 17 18  1  0
 20 19  1  1
 19 18  1  0
 20 21  1  0
 21 11  1  0
 22 20  1  0
 23 22  2  0
 24 22  1  0
M  END
$$$$
