GLR.pdb
     RDKit          3D

 24 23  0  0  1  0  0  0  0  0999 V2000
   14.5179  -15.7077    4.5256 N   0  0  0  0  0  0  0  0  0  0  0  0
   15.2491  -16.7476    3.8726 C   0  0  0  0  0  0  0  0  0  0  0  0
   16.0141  -17.6120    4.8391 C   0  0  0  0  0  0  0  0  0  0  0  0
   15.9503  -17.2917    6.0394 O   0  0  0  0  0  0  0  0  0  0  0  0
   17.0869  -23.0903    3.8159 C   0  0  0  0  0  0  0  0  0  0  0  0
   16.7373  -21.8095    4.5329 C   0  0  1  0  0  0  0  0  0  0  0  0
   16.1109  -21.9947    5.8747 C   0  0  0  0  0  0  0  0  0  0  0  0
   17.8786  -20.8415    4.5987 C   0  0  0  0  0  0  0  0  0  0  0  0
   17.5777  -19.5105    5.1690 C   0  0  2  0  0  0  0  0  0  0  0  0
   16.7423  -18.7134    4.3205 N   0  0  0  0  0  0  0  0  0  0  0  0
   18.7999  -18.7250    5.5078 C   0  0  0  0  0  0  0  0  0  0  0  0
   19.3735  -18.0525    4.6168 O   0  0  0  0  0  0  0  0  0  0  0  0
   20.2199  -11.1217    6.8802 N   0  0  0  0  0  0  0  0  0  0  0  0
   19.9297  -12.1605    5.9636 C   0  0  0  0  0  0  0  0  0  0  0  0
   19.1963  -11.9320    4.9576 N   0  0  0  0  0  0  0  0  0  0  0  0
   20.4593  -13.4526    6.1757 N   0  0  0  0  0  0  0  0  0  0  0  0
   20.3035  -14.0203    7.5465 C   0  0  0  0  0  0  0  0  0  0  0  0
   20.8851  -15.3760    7.4689 C   0  0  0  0  0  0  0  0  0  0  0  0
   20.0745  -16.5102    7.0867 C   0  0  0  0  0  0  0  0  0  0  0  0
   20.6051  -17.8955    7.0562 C   0  0  2  0  0  0  0  0  0  0  0  0
   19.3495  -18.6982    6.7902 N   0  0  0  0  0  0  0  0  0  0  0  0
   21.1278  -18.4677    8.2982 C   0  0  0  0  0  0  0  0  0  0  0  0
   20.5366  -19.3158    9.0208 O   0  0  0  0  0  0  0  0  0  0  0  0
   22.4093  -18.0417    8.7389 O   0  0  0  0  0  0  0  0  0  0  0  0
  1  2  1  0
  3  2  1  0
  3  4  2  0
  6  5  1  1
  6  8  1  0
  7  6  1  0
  9  8  1  6
  9 10  1  0
 10  3  1  0
 11  9  1  0
 12 11  2  0
 13 14  1  0
 14 15  2  0
 16 14  1  0
 16 17  1  0
 17 18  1  0
 20 19  1  1
 19 18  1  0
 20 21  1  0
 21 11  1  0
 22 20  1  0
 23 22  2  0
 24 22  1  0
M  END
$$$$
