GLR.pdb
     RDKit          3D

 24 23  0  0  1  0  0  0  0  0999 V2000
   28.6845  -21.4283  -15.3285 N   0  0  0  0  0  0  0  0  0  0  0  0
   27.9248  -20.4085  -14.6764 C   0  0  0  0  0  0  0  0  0  0  0  0
   26.8118  -20.9675  -13.8304 C   0  0  0  0  0  0  0  0  0  0  0  0
   26.3329  -22.0565  -14.1938 O   0  0  0  0  0  0  0  0  0  0  0  0
   26.4592  -19.7256   -8.3692 C   0  0  0  0  0  0  0  0  0  0  0  0
   26.3704  -20.5283   -9.6439 C   0  0  1  0  0  0  0  0  0  0  0  0
   26.3311  -22.0074   -9.4502 C   0  0  0  0  0  0  0  0  0  0  0  0
   25.2683  -20.0728  -10.5505 C   0  0  0  0  0  0  0  0  0  0  0  0
   25.2667  -20.6393  -11.9166 C   0  0  2  0  0  0  0  0  0  0  0  0
   26.3948  -20.2241  -12.6965 N   0  0  0  0  0  0  0  0  0  0  0  0
   24.0217  -20.3333  -12.6795 C   0  0  0  0  0  0  0  0  0  0  0  0
   23.9107  -19.2329  -13.2727 O   0  0  0  0  0  0  0  0  0  0  0  0
   17.2742  -24.5915  -13.3821 N   0  0  0  0  0  0  0  0  0  0  0  0
   17.4068  -24.4550  -14.7847 C   0  0  0  0  0  0  0  0  0  0  0  0
   16.5720  -25.0100  -15.5575 N   0  0  0  0  0  0  0  0  0  0  0  0
   18.4739  -23.6995  -15.3190 N   0  0  0  0  0  0  0  0  0  0  0  0
   19.3539  -23.0015  -14.3373 C   0  0  0  0  0  0  0  0  0  0  0  0
   20.3956  -22.3457  -15.1540 C   0  0  0  0  0  0  0  0  0  0  0  0
   21.6416  -21.9152  -14.5609 C   0  0  0  0  0  0  0  0  0  0  0  0
   21.7100  -20.8378  -13.5431 C   0  0  2  0  0  0  0  0  0  0  0  0
   22.9525  -21.2254  -12.7701 N   0  0  0  0  0  0  0  0  0  0  0  0
   20.6657  -20.7813  -12.5186 C   0  0  0  0  0  0  0  0  0  0  0  0
   20.6650  -21.4280  -11.4357 O   0  0  0  0  0  0  0  0  0  0  0  0
   19.5529  -19.9291  -12.7496 O   0  0  0  0  0  0  0  0  0  0  0  0
  1  2  1  0
  3  2  1  0
  3  4  2  0
  6  5  1  1
  6  8  1  0
  7  6  1  0
  9  8  1  1
  9 10  1  0
 10  3  1  0
 11  9  1  0
 12 11  2  0
 13 14  1  0
 14 15  2  0
 16 14  1  0
 16 17  1  0
 17 18  1  0
 20 19  1  6
 19 18  1  0
 20 21  1  0
 21 11  1  0
 22 20  1  0
 23 22  2  0
 24 22  1  0
M  END
$$$$
