GLR.pdb
     RDKit          3D

 24 23  0  0  1  0  0  0  0  0999 V2000
   29.6209  -23.2710  -16.9194 N   0  0  0  0  0  0  0  0  0  0  0  0
   29.7896  -22.3828  -18.0263 C   0  0  0  0  0  0  0  0  0  0  0  0
   29.3802  -20.9706  -17.7027 C   0  0  0  0  0  0  0  0  0  0  0  0
   28.6823  -20.8153  -16.6847 O   0  0  0  0  0  0  0  0  0  0  0  0
   32.6598  -16.7377  -19.1852 C   0  0  0  0  0  0  0  0  0  0  0  0
   31.6914  -17.5579  -18.3688 C   0  0  1  0  0  0  0  0  0  0  0  0
   31.6579  -17.2221  -16.9151 C   0  0  0  0  0  0  0  0  0  0  0  0
   30.3104  -17.5869  -18.9484 C   0  0  0  0  0  0  0  0  0  0  0  0
   29.3788  -18.5815  -18.3737 C   0  0  2  0  0  0  0  0  0  0  0  0
   29.8126  -19.9332  -18.5683 N   0  0  0  0  0  0  0  0  0  0  0  0
   27.9851  -18.4498  -18.8895 C   0  0  0  0  0  0  0  0  0  0  0  0
   27.6723  -18.9868  -19.9799 O   0  0  0  0  0  0  0  0  0  0  0  0
   20.5980  -18.8557  -14.6063 N   0  0  0  0  0  0  0  0  0  0  0  0
   20.1793  -18.7168  -15.9513 C   0  0  0  0  0  0  0  0  0  0  0  0
   18.9484  -18.6044  -16.2239 N   0  0  0  0  0  0  0  0  0  0  0  0
   21.1386  -18.7059  -16.9879 N   0  0  0  0  0  0  0  0  0  0  0  0
   22.5677  -18.8197  -16.5751 C   0  0  0  0  0  0  0  0  0  0  0  0
   23.3378  -18.2387  -17.6939 C   0  0  0  0  0  0  0  0  0  0  0  0
   24.7832  -18.2490  -17.6837 C   0  0  0  0  0  0  0  0  0  0  0  0
   25.5926  -17.6693  -18.7838 C   0  0  2  0  0  0  0  0  0  0  0  0
   26.9908  -17.7464  -18.2085 N   0  0  0  0  0  0  0  0  0  0  0  0
   25.4232  -16.2495  -19.0986 C   0  0  0  0  0  0  0  0  0  0  0  0
   26.0326  -15.2968  -18.5402 O   0  0  0  0  0  0  0  0  0  0  0  0
   24.4978  -15.9003  -20.1182 O   0  0  0  0  0  0  0  0  0  0  0  0
  1  2  1  0
  3  2  1  0
  3  4  2  0
  6  5  1  6
  6  8  1  0
  7  6  1  0
  9  8  1  6
  9 10  1  0
 10  3  1  0
 11  9  1  0
 12 11  2  0
 13 14  1  0
 14 15  2  0
 16 14  1  0
 16 17  1  0
 17 18  1  0
 20 19  1  1
 19 18  1  0
 20 21  1  0
 21 11  1  0
 22 20  1  0
 23 22  2  0
 24 22  1  0
M  END
$$$$
