GLR.pdb
     RDKit          3D

 24 23  0  0  1  0  0  0  0  0999 V2000
   28.5881  -22.1414  -16.6259 N   0  0  0  0  0  0  0  0  0  0  0  0
   27.9838  -21.0603  -15.9127 C   0  0  0  0  0  0  0  0  0  0  0  0
   27.0629  -21.5316  -14.8188 C   0  0  0  0  0  0  0  0  0  0  0  0
   26.5253  -22.6408  -14.9864 O   0  0  0  0  0  0  0  0  0  0  0  0
   25.2565  -22.2302   -9.9474 C   0  0  0  0  0  0  0  0  0  0  0  0
   25.3868  -20.7489  -10.2034 C   0  0  1  0  0  0  0  0  0  0  0  0
   25.7258  -19.9336   -9.0004 C   0  0  0  0  0  0  0  0  0  0  0  0
   26.2982  -20.4275  -11.3480 C   0  0  0  0  0  0  0  0  0  0  0  0
   25.9624  -21.0477  -12.6479 C   0  0  2  0  0  0  0  0  0  0  0  0
   26.8765  -20.6903  -13.6919 N   0  0  0  0  0  0  0  0  0  0  0  0
   24.5752  -20.7433  -13.1047 C   0  0  0  0  0  0  0  0  0  0  0  0
   24.2854  -19.5817  -13.4810 O   0  0  0  0  0  0  0  0  0  0  0  0
   18.7642  -23.6521  -17.4159 N   0  0  0  0  0  0  0  0  0  0  0  0
   20.0361  -24.2700  -17.3533 C   0  0  0  0  0  0  0  0  0  0  0  0
   20.6257  -24.6169  -18.4183 N   0  0  0  0  0  0  0  0  0  0  0  0
   20.6442  -24.5000  -16.0995 N   0  0  0  0  0  0  0  0  0  0  0  0
   19.8195  -24.1995  -14.8932 C   0  0  0  0  0  0  0  0  0  0  0  0
   20.2866  -22.8774  -14.4284 C   0  0  0  0  0  0  0  0  0  0  0  0
   21.6791  -22.6513  -14.1134 C   0  0  0  0  0  0  0  0  0  0  0  0
   22.1904  -21.3346  -13.6592 C   0  0  2  0  0  0  0  0  0  0  0  0
   23.5625  -21.7029  -13.1364 N   0  0  0  0  0  0  0  0  0  0  0  0
   21.5416  -20.6938  -12.5139 C   0  0  0  0  0  0  0  0  0  0  0  0
   21.7679  -20.9566  -11.3012 O   0  0  0  0  0  0  0  0  0  0  0  0
   20.5732  -19.6878  -12.7753 O   0  0  0  0  0  0  0  0  0  0  0  0
  1  2  1  0
  3  2  1  0
  3  4  2  0
  6  5  1  1
  6  8  1  0
  7  6  1  0
  9  8  1  1
  9 10  1  0
 10  3  1  0
 11  9  1  0
 12 11  2  0
 13 14  1  0
 14 15  2  0
 16 14  1  0
 16 17  1  0
 17 18  1  0
 20 19  1  1
 19 18  1  0
 20 21  1  0
 21 11  1  0
 22 20  1  0
 23 22  2  0
 24 22  1  0
M  END
$$$$
