GLR.pdb
     RDKit          3D

 24 23  0  0  1  0  0  0  0  0999 V2000
   17.2023  -27.5789   -1.4950 N   0  0  0  0  0  0  0  0  0  0  0  0
   17.3302  -26.2278   -1.0471 C   0  0  0  0  0  0  0  0  0  0  0  0
   17.2225  -26.1014    0.4493 C   0  0  0  0  0  0  0  0  0  0  0  0
   16.3139  -26.7514    0.9964 O   0  0  0  0  0  0  0  0  0  0  0  0
   21.8728  -25.1454    3.4282 C   0  0  0  0  0  0  0  0  0  0  0  0
   20.5432  -25.6940    2.9722 C   0  0  1  0  0  0  0  0  0  0  0  0
   20.1773  -27.0161    3.5597 C   0  0  0  0  0  0  0  0  0  0  0  0
   19.4214  -24.7113    3.1132 C   0  0  0  0  0  0  0  0  0  0  0  0
   18.1183  -25.1174    2.5438 C   0  0  2  0  0  0  0  0  0  0  0  0
   18.1506  -25.2630    1.1187 N   0  0  0  0  0  0  0  0  0  0  0  0
   17.0047  -24.1919    2.9029 C   0  0  0  0  0  0  0  0  0  0  0  0
   16.8546  -23.1223    2.2637 O   0  0  0  0  0  0  0  0  0  0  0  0
    9.3807  -26.8350    4.6157 N   0  0  0  0  0  0  0  0  0  0  0  0
   10.1898  -26.5332    3.4942 C   0  0  0  0  0  0  0  0  0  0  0  0
    9.9964  -27.1287    2.3941 N   0  0  0  0  0  0  0  0  0  0  0  0
   11.2142  -25.5675    3.6067 N   0  0  0  0  0  0  0  0  0  0  0  0
   11.4033  -24.9495    4.9513 C   0  0  0  0  0  0  0  0  0  0  0  0
   12.5093  -23.9855    4.7787 C   0  0  0  0  0  0  0  0  0  0  0  0
   13.8144  -24.4249    4.3390 C   0  0  0  0  0  0  0  0  0  0  0  0
   14.9658  -23.4982    4.2091 C   0  0  2  0  0  0  0  0  0  0  0  0
   16.1025  -24.4593    3.9333 N   0  0  0  0  0  0  0  0  0  0  0  0
   15.4082  -22.7674    5.3981 C   0  0  0  0  0  0  0  0  0  0  0  0
   14.8660  -21.7283    5.8642 O   0  0  0  0  0  0  0  0  0  0  0  0
   16.5428  -23.2593    6.0970 O   0  0  0  0  0  0  0  0  0  0  0  0
  1  2  1  0
  3  2  1  0
  3  4  2  0
  6  5  1  1
  6  8  1  0
  7  6  1  0
  9  8  1  6
  9 10  1  0
 10  3  1  0
 11  9  1  0
 12 11  2  0
 13 14  1  0
 14 15  2  0
 16 14  1  0
 16 17  1  0
 17 18  1  0
 20 19  1  1
 19 18  1  0
 20 21  1  0
 21 11  1  0
 22 20  1  0
 23 22  2  0
 24 22  1  0
M  END
$$$$
