GLR.pdb
     RDKit          3D

 24 23  0  0  1  0  0  0  0  0999 V2000
   23.5520  -21.0906   -7.8740 N   0  0  0  0  0  0  0  0  0  0  0  0
   24.6615  -21.3877   -8.7246 C   0  0  0  0  0  0  0  0  0  0  0  0
   24.5950  -20.6566  -10.0391 C   0  0  0  0  0  0  0  0  0  0  0  0
   23.6655  -19.8409  -10.1731 O   0  0  0  0  0  0  0  0  0  0  0  0
   27.0121  -18.0678  -14.1451 C   0  0  0  0  0  0  0  0  0  0  0  0
   27.0390  -19.5736  -14.2389 C   0  0  1  0  0  0  0  0  0  0  0  0
   28.1678  -20.1303  -15.0407 C   0  0  0  0  0  0  0  0  0  0  0  0
   26.9397  -20.2482  -12.9051 C   0  0  0  0  0  0  0  0  0  0  0  0
   25.6043  -20.2509  -12.2694 C   0  0  2  0  0  0  0  0  0  0  0  0
   25.5819  -20.9454  -11.0163 N   0  0  0  0  0  0  0  0  0  0  0  0
   24.5363  -20.8145  -13.1454 C   0  0  0  0  0  0  0  0  0  0  0  0
   24.5052  -22.0484  -13.3725 O   0  0  0  0  0  0  0  0  0  0  0  0
   17.5634  -20.7748  -15.5993 N   0  0  0  0  0  0  0  0  0  0  0  0
   17.0998  -21.3894  -14.4116 C   0  0  0  0  0  0  0  0  0  0  0  0
   16.1418  -22.2155  -14.4573 N   0  0  0  0  0  0  0  0  0  0  0  0
   17.7078  -21.0770  -13.1756 N   0  0  0  0  0  0  0  0  0  0  0  0
   18.7820  -20.0422  -13.2036 C   0  0  0  0  0  0  0  0  0  0  0  0
   19.9662  -20.7329  -13.7538 C   0  0  0  0  0  0  0  0  0  0  0  0
   21.2305  -20.0451  -13.8875 C   0  0  0  0  0  0  0  0  0  0  0  0
   22.4212  -20.6781  -14.5064 C   0  0  2  0  0  0  0  0  0  0  0  0
   23.5496  -20.0248  -13.7372 N   0  0  0  0  0  0  0  0  0  0  0  0
   22.7267  -20.3676  -15.9041 C   0  0  0  0  0  0  0  0  0  0  0  0
   23.4358  -19.4038  -16.3032 O   0  0  0  0  0  0  0  0  0  0  0  0
   22.1862  -21.2159  -16.9072 O   0  0  0  0  0  0  0  0  0  0  0  0
  1  2  1  0
  3  2  1  0
  3  4  2  0
  6  5  1  1
  6  8  1  0
  7  6  1  0
  9  8  1  6
  9 10  1  0
 10  3  1  0
 11  9  1  0
 12 11  2  0
 13 14  1  0
 14 15  2  0
 16 14  1  0
 16 17  1  0
 17 18  1  0
 20 19  1  1
 19 18  1  0
 20 21  1  0
 21 11  1  0
 22 20  1  0
 23 22  2  0
 24 22  1  0
M  END
$$$$
