SPT.pdb
     RDKit          3D

 21 21  0  0  1  0  0  0  0  0999 V2000
   23.0303  -22.3904  -18.1120 O   0  0  0  0  0  0  0  0  0  0  0  0
   24.1015  -23.0530  -17.4846 C   0  0  0  0  0  0  0  0  0  0  0  0
   24.6241  -22.1618  -16.3632 C   0  0  2  0  0  0  0  0  0  0  0  0
   25.7625  -22.9024  -15.7645 N   0  0  0  0  0  0  0  0  0  0  0  0
   23.6142  -21.9647  -15.2978 C   0  0  0  0  0  0  0  0  0  0  0  0
   23.4316  -22.9565  -14.5122 O   0  0  0  0  0  0  0  0  0  0  0  0
   22.8798  -20.7663  -15.1298 N   0  0  0  0  0  0  0  0  0  0  0  0
   23.1193  -19.5800  -15.9081 C   0  0  0  0  0  0  0  0  0  0  0  0
   21.9141  -18.7316  -15.7294 C   0  0  0  0  0  0  0  0  0  0  0  0
   21.5806  -19.0036  -14.2613 C   0  0  0  0  0  0  0  0  0  0  0  0
   21.8329  -20.5125  -14.2047 C   0  0  1  0  0  0  0  0  0  0  0  0
   20.5780  -21.2519  -14.5076 C   0  0  0  0  0  0  0  0  0  0  0  0
   20.1668  -21.2447  -15.6966 O   0  0  0  0  0  0  0  0  0  0  0  0
   19.6769  -24.9202  -13.1673 C   0  0  0  0  0  0  0  0  0  0  0  0
   18.5563  -23.9281  -12.9364 C   0  0  1  0  0  0  0  0  0  0  0  0
   18.5335  -23.5335  -11.6208 O   0  0  0  0  0  0  0  0  0  0  0  0
   18.6465  -22.7587  -13.8956 C   0  0  2  0  0  0  0  0  0  0  0  0
   19.8095  -21.9662  -13.5568 N   0  0  0  0  0  0  0  0  0  0  0  0
   17.3887  -21.9957  -13.7801 C   0  0  0  0  0  0  0  0  0  0  0  0
   16.2232  -22.5948  -14.2337 O   0  0  0  0  0  0  0  0  0  0  0  0
   17.3036  -20.8377  -13.2975 O   0  0  0  0  0  0  0  0  0  0  0  0
  2  1  1  0
  3  2  1  0
  3  4  1  1
  3  5  1  0
  5  6  2  0
  7  5  1  0
  7 11  1  0
  8  7  1  0
  9  8  1  0
  9 10  1  0
 10 11  1  0
 11 12  1  6
 12 18  1  0
 12 13  2  0
 15 14  1  1
 15 17  1  0
 16 15  1  0
 17 19  1  0
 17 18  1  1
 19 20  1  0
 21 19  2  0
M  END
$$$$
