SPT.pdb
     RDKit          3D

 21 21  0  0  1  0  0  0  0  0999 V2000
   13.7862  -12.1174  -14.7167 O   0  0  0  0  0  0  0  0  0  0  0  0
   14.0164  -11.2745  -13.6139 C   0  0  0  0  0  0  0  0  0  0  0  0
   15.1923  -11.8347  -12.8210 C   0  0  2  0  0  0  0  0  0  0  0  0
   14.6633  -13.0287  -12.1157 N   0  0  0  0  0  0  0  0  0  0  0  0
   15.6659  -10.8839  -11.7889 C   0  0  0  0  0  0  0  0  0  0  0  0
   15.0319  -10.9041  -10.6790 O   0  0  0  0  0  0  0  0  0  0  0  0
   16.7503   -9.9951  -11.9843 N   0  0  0  0  0  0  0  0  0  0  0  0
   17.5164   -9.9429  -13.2012 C   0  0  0  0  0  0  0  0  0  0  0  0
   18.2456   -8.6503  -13.1621 C   0  0  0  0  0  0  0  0  0  0  0  0
   18.5860   -8.5518  -11.6739 C   0  0  0  0  0  0  0  0  0  0  0  0
   17.2710   -9.0461  -11.0654 C   0  0  1  0  0  0  0  0  0  0  0  0
   16.3600   -7.8969  -10.8156 C   0  0  0  0  0  0  0  0  0  0  0  0
   15.7366   -7.4196  -11.7986 O   0  0  0  0  0  0  0  0  0  0  0  0
   13.9834   -7.4415   -7.4781 C   0  0  0  0  0  0  0  0  0  0  0  0
   14.8106   -6.2288   -7.8502 C   0  0  1  0  0  0  0  0  0  0  0  0
   15.9080   -6.1313   -7.0297 O   0  0  0  0  0  0  0  0  0  0  0  0
   15.1791   -6.2404   -9.3198 C   0  0  2  0  0  0  0  0  0  0  0  0
   16.1397   -7.2982   -9.5514 N   0  0  0  0  0  0  0  0  0  0  0  0
   15.7161   -4.9062   -9.6502 C   0  0  0  0  0  0  0  0  0  0  0  0
   14.8373   -3.8335   -9.6420 O   0  0  0  0  0  0  0  0  0  0  0  0
   16.9183   -4.6772   -9.9389 O   0  0  0  0  0  0  0  0  0  0  0  0
  2  1  1  0
  3  2  1  0
  3  4  1  1
  3  5  1  0
  5  6  2  0
  7  5  1  0
  7 11  1  0
  8  7  1  0
  9  8  1  0
  9 10  1  0
 10 11  1  0
 11 12  1  6
 12 18  1  0
 12 13  2  0
 15 14  1  1
 15 17  1  0
 16 15  1  0
 17 19  1  0
 17 18  1  1
 19 20  1  0
 21 19  2  0
M  END
$$$$
