SPT.pdb
     RDKit          3D

 21 21  0  0  1  0  0  0  0  0999 V2000
   28.3235  -17.2958  -17.3050 O   0  0  0  0  0  0  0  0  0  0  0  0
   27.6607  -18.1259  -16.3823 C   0  0  0  0  0  0  0  0  0  0  0  0
   28.3791  -19.4704  -16.3466 C   0  0  2  0  0  0  0  0  0  0  0  0
   28.0084  -20.1529  -17.6115 N   0  0  0  0  0  0  0  0  0  0  0  0
   27.9063  -20.3202  -15.2295 C   0  0  0  0  0  0  0  0  0  0  0  0
   26.7803  -20.8989  -15.4068 O   0  0  0  0  0  0  0  0  0  0  0  0
   28.6304  -20.5037  -14.0271 N   0  0  0  0  0  0  0  0  0  0  0  0
   29.9479  -19.9671  -13.8113 C   0  0  0  0  0  0  0  0  0  0  0  0
   30.1665  -20.0155  -12.3436 C   0  0  0  0  0  0  0  0  0  0  0  0
   29.4714  -21.3310  -11.9881 C   0  0  0  0  0  0  0  0  0  0  0  0
   28.2258  -21.2229  -12.8715 C   0  0  1  0  0  0  0  0  0  0  0  0
   27.1214  -20.5690  -12.1193 C   0  0  0  0  0  0  0  0  0  0  0  0
   27.1784  -19.3220  -11.9618 O   0  0  0  0  0  0  0  0  0  0  0  0
   22.4827  -20.4665  -10.5060 C   0  0  0  0  0  0  0  0  0  0  0  0
   23.6187  -21.0878  -11.2915 C   0  0  1  0  0  0  0  0  0  0  0  0
   23.4326  -20.8864  -12.6375 O   0  0  0  0  0  0  0  0  0  0  0  0
   24.9644  -20.5884  -10.8066 C   0  0  2  0  0  0  0  0  0  0  0  0
   26.0070  -21.2452  -11.5664 N   0  0  0  0  0  0  0  0  0  0  0  0
   25.0483  -20.8790   -9.3623 C   0  0  0  0  0  0  0  0  0  0  0  0
   24.5134  -19.9505   -8.4821 O   0  0  0  0  0  0  0  0  0  0  0  0
   25.5730  -21.9133   -8.8764 O   0  0  0  0  0  0  0  0  0  0  0  0
  2  1  1  0
  3  2  1  0
  3  4  1  6
  3  5  1  0
  5  6  2  0
  7  5  1  0
  7 11  1  0
  8  7  1  0
  9  8  1  0
  9 10  1  0
 10 11  1  0
 11 12  1  1
 12 18  1  0
 12 13  2  0
 15 14  1  1
 15 17  1  0
 16 15  1  0
 17 19  1  0
 17 18  1  6
 19 20  1  0
 21 19  2  0
M  END
$$$$
