SPT.pdb
     RDKit          3D

 21 21  0  0  1  0  0  0  0  0999 V2000
   19.5805  -11.7343  -19.4943 O   0  0  0  0  0  0  0  0  0  0  0  0
   19.6031  -10.8442  -18.4047 C   0  0  0  0  0  0  0  0  0  0  0  0
   19.8524  -11.6499  -17.1343 C   0  0  2  0  0  0  0  0  0  0  0  0
   18.5559  -12.2971  -16.8132 N   0  0  0  0  0  0  0  0  0  0  0  0
   20.2092  -10.7803  -15.9896 C   0  0  0  0  0  0  0  0  0  0  0  0
   19.2357  -10.1731  -15.4259 O   0  0  0  0  0  0  0  0  0  0  0  0
   21.5342  -10.6099  -15.5215 N   0  0  0  0  0  0  0  0  0  0  0  0
   22.6560  -11.3406  -16.0487 C   0  0  0  0  0  0  0  0  0  0  0  0
   23.8631  -10.5962  -15.6096 C   0  0  0  0  0  0  0  0  0  0  0  0
   23.4362  -10.1463  -14.2111 C   0  0  0  0  0  0  0  0  0  0  0  0
   21.9858   -9.7440  -14.4906 C   0  0  1  0  0  0  0  0  0  0  0  0
   21.9160   -8.3023  -14.8506 C   0  0  0  0  0  0  0  0  0  0  0  0
   22.2892   -7.9683  -16.0048 O   0  0  0  0  0  0  0  0  0  0  0  0
   19.8616   -3.8886  -14.3617 C   0  0  0  0  0  0  0  0  0  0  0  0
   20.0250   -5.3386  -13.9564 C   0  0  1  0  0  0  0  0  0  0  0  0
   18.9794   -6.0882  -14.4380 O   0  0  0  0  0  0  0  0  0  0  0  0
   21.3755   -5.8816  -14.3770 C   0  0  2  0  0  0  0  0  0  0  0  0
   21.4590   -7.2742  -13.9908 N   0  0  0  0  0  0  0  0  0  0  0  0
   22.4069   -5.0511  -13.7259 C   0  0  0  0  0  0  0  0  0  0  0  0
   22.9481   -4.0015  -14.4529 O   0  0  0  0  0  0  0  0  0  0  0  0
   22.8279   -5.2320  -12.5549 O   0  0  0  0  0  0  0  0  0  0  0  0
  2  1  1  0
  3  2  1  0
  3  4  1  1
  3  5  1  0
  5  6  2  0
  7  5  1  0
  7 11  1  0
  8  7  1  0
  9  8  1  0
  9 10  1  0
 10 11  1  0
 11 12  1  6
 12 18  1  0
 12 13  2  0
 15 14  1  6
 15 17  1  0
 16 15  1  0
 17 19  1  0
 17 18  1  1
 19 20  1  0
 21 19  2  0
M  END
$$$$
