SPT.pdb
     RDKit          3D

 21 21  0  0  1  0  0  0  0  0999 V2000
   19.7894  -12.1204  -19.2066 O   0  0  0  0  0  0  0  0  0  0  0  0
   19.7914  -11.0651  -18.2758 C   0  0  0  0  0  0  0  0  0  0  0  0
   19.7888  -11.6643  -16.8736 C   0  0  2  0  0  0  0  0  0  0  0  0
   18.3871  -12.0831  -16.6229 N   0  0  0  0  0  0  0  0  0  0  0  0
   20.1426  -10.6608  -15.8433 C   0  0  0  0  0  0  0  0  0  0  0  0
   19.1960   -9.8867  -15.4704 O   0  0  0  0  0  0  0  0  0  0  0  0
   21.4371  -10.5391  -15.2835 N   0  0  0  0  0  0  0  0  0  0  0  0
   22.5267  -11.4161  -15.6209 C   0  0  0  0  0  0  0  0  0  0  0  0
   23.7577  -10.7209  -15.1674 C   0  0  0  0  0  0  0  0  0  0  0  0
   23.2651  -10.0686  -13.8742 C   0  0  0  0  0  0  0  0  0  0  0  0
   21.8826   -9.5905  -14.3255 C   0  0  1  0  0  0  0  0  0  0  0  0
   21.9700   -8.2036  -14.8565 C   0  0  0  0  0  0  0  0  0  0  0  0
   22.5592   -8.0334  -15.9550 O   0  0  0  0  0  0  0  0  0  0  0  0
   19.3250   -6.0414  -16.0712 C   0  0  0  0  0  0  0  0  0  0  0  0
   20.0312   -5.2577  -14.9847 C   0  0  1  0  0  0  0  0  0  0  0  0
   19.3043   -5.2979  -13.8198 O   0  0  0  0  0  0  0  0  0  0  0  0
   21.4583   -5.7316  -14.7995 C   0  0  2  0  0  0  0  0  0  0  0  0
   21.4378   -7.0571  -14.2182 N   0  0  0  0  0  0  0  0  0  0  0  0
   22.1417   -4.7468  -13.9387 C   0  0  0  0  0  0  0  0  0  0  0  0
   22.4487   -5.1237  -12.6400 O   0  0  0  0  0  0  0  0  0  0  0  0
   22.4643   -3.5880  -14.3049 O   0  0  0  0  0  0  0  0  0  0  0  0
  2  1  1  0
  3  2  1  0
  3  4  1  1
  3  5  1  0
  5  6  2  0
  7  5  1  0
  7 11  1  0
  8  7  1  0
  9  8  1  0
  9 10  1  0
 10 11  1  0
 11 12  1  6
 12 18  1  0
 12 13  2  0
 15 14  1  6
 15 17  1  0
 16 15  1  0
 17 19  1  0
 17 18  1  1
 19 20  1  0
 21 19  2  0
M  END
$$$$
