SPT.pdb
     RDKit          3D

 21 21  0  0  1  0  0  0  0  0999 V2000
   19.2903  -12.1995  -19.2470 O   0  0  0  0  0  0  0  0  0  0  0  0
   19.4250  -11.2010  -18.2648 C   0  0  0  0  0  0  0  0  0  0  0  0
   19.7359  -11.8778  -16.9343 C   0  0  2  0  0  0  0  0  0  0  0  0
   18.4375  -12.4018  -16.4419 N   0  0  0  0  0  0  0  0  0  0  0  0
   20.2354  -10.9135  -15.9271 C   0  0  0  0  0  0  0  0  0  0  0  0
   19.3555  -10.1481  -15.4036 O   0  0  0  0  0  0  0  0  0  0  0  0
   21.5946  -10.8187  -15.5433 N   0  0  0  0  0  0  0  0  0  0  0  0
   22.6220  -11.6812  -16.0638 C   0  0  0  0  0  0  0  0  0  0  0  0
   23.9081  -11.0086  -15.7512 C   0  0  0  0  0  0  0  0  0  0  0  0
   23.6001  -10.4143  -14.3756 C   0  0  0  0  0  0  0  0  0  0  0  0
   22.1728   -9.9146  -14.6135 C   0  0  1  0  0  0  0  0  0  0  0  0
   22.1977   -8.5054  -15.0896 C   0  0  0  0  0  0  0  0  0  0  0  0
   22.7083   -8.2772  -16.2166 O   0  0  0  0  0  0  0  0  0  0  0  0
   19.5521   -6.4127  -16.1990 C   0  0  0  0  0  0  0  0  0  0  0  0
   20.2083   -5.6340  -15.0781 C   0  0  1  0  0  0  0  0  0  0  0  0
   19.4702   -5.7463  -13.9250 O   0  0  0  0  0  0  0  0  0  0  0  0
   21.6535   -6.0478  -14.8894 C   0  0  2  0  0  0  0  0  0  0  0  0
   21.6878   -7.3982  -14.3691 N   0  0  0  0  0  0  0  0  0  0  0  0
   22.2754   -5.0725  -13.9731 C   0  0  0  0  0  0  0  0  0  0  0  0
   22.5319   -3.7991  -14.4587 O   0  0  0  0  0  0  0  0  0  0  0  0
   22.5882   -5.3194  -12.7806 O   0  0  0  0  0  0  0  0  0  0  0  0
  2  1  1  0
  3  2  1  0
  3  4  1  1
  3  5  1  0
  5  6  2  0
  7  5  1  0
  7 11  1  0
  8  7  1  0
  9  8  1  0
  9 10  1  0
 10 11  1  0
 11 12  1  6
 12 18  1  0
 12 13  2  0
 15 14  1  6
 15 17  1  0
 16 15  1  0
 17 19  1  0
 17 18  1  1
 19 20  1  0
 21 19  2  0
M  END
$$$$
