GTA.pdb
     RDKit          3D

 17 16  0  0  1  0  0  0  0  0999 V2000
   26.3582  -16.7634  -18.4439 N   0  0  0  0  0  0  0  0  0  0  0  0
   25.7113  -16.1341  -17.3378 C   0  0  0  0  0  0  0  0  0  0  0  0
   25.3446  -14.7499  -17.7092 C   0  0  0  0  0  0  0  0  0  0  0  0
   25.8724  -14.1513  -18.6911 O   0  0  0  0  0  0  0  0  0  0  0  0
   22.0756  -13.7084  -18.7491 C   0  0  0  0  0  0  0  0  0  0  0  0
   22.4150  -12.7971  -17.6011 C   0  0  1  0  0  0  0  0  0  0  0  0
   21.7766  -13.2454  -16.4740 O   0  0  0  0  0  0  0  0  0  0  0  0
   23.9159  -12.7554  -17.4060 C   0  0  2  0  0  0  0  0  0  0  0  0
   24.3811  -14.0602  -16.9601 N   0  0  0  0  0  0  0  0  0  0  0  0
   24.2105  -11.7571  -16.3259 C   0  0  0  0  0  0  0  0  0  0  0  0
   24.8938  -12.1673  -15.3482 O   0  0  0  0  0  0  0  0  0  0  0  0
   25.4975   -9.2311  -15.1359 C   0  0  0  0  0  0  0  0  0  0  0  0
   24.0483   -9.4112  -15.4068 C   0  0  2  0  0  0  0  0  0  0  0  0
   23.7576  -10.4156  -16.3770 N   0  0  0  0  0  0  0  0  0  0  0  0
   23.3173   -8.1272  -15.6721 C   0  0  0  0  0  0  0  0  0  0  0  0
   22.8600   -7.9051  -16.8445 O   0  0  0  0  0  0  0  0  0  0  0  0
   23.0871   -7.1347  -14.7517 O   0  0  0  0  0  0  0  0  0  0  0  0
  2  1  1  0
  3  2  1  0
  4  3  2  0
  6  5  1  6
  6  8  1  0
  7  6  1  0
  8  9  1  1
  9  3  1  0
 10  8  1  0
 10 14  1  0
 11 10  2  0
 13 12  1  6
 13 14  1  0
 13 15  1  0
 15 17  1  0
 16 15  2  0
M  END
$$$$
