GTA.pdb
     RDKit          3D

 17 16  0  0  1  0  0  0  0  0999 V2000
   25.1418  -32.0448   -8.8321 N   0  0  0  0  0  0  0  0  0  0  0  0
   26.1510  -32.1202   -7.8253 C   0  0  0  0  0  0  0  0  0  0  0  0
   26.1120  -33.4572   -7.1935 C   0  0  0  0  0  0  0  0  0  0  0  0
   25.2604  -34.3344   -7.5201 O   0  0  0  0  0  0  0  0  0  0  0  0
   28.6874  -35.9079   -7.3477 C   0  0  0  0  0  0  0  0  0  0  0  0
   28.4427  -35.7342   -5.8735 C   0  0  1  0  0  0  0  0  0  0  0  0
   29.4300  -34.9406   -5.3496 O   0  0  0  0  0  0  0  0  0  0  0  0
   27.0721  -35.1314   -5.6487 C   0  0  2  0  0  0  0  0  0  0  0  0
   27.0419  -33.7835   -6.1965 N   0  0  0  0  0  0  0  0  0  0  0  0
   26.8474  -35.0422   -4.1683 C   0  0  0  0  0  0  0  0  0  0  0  0
   27.2720  -34.0026   -3.5939 O   0  0  0  0  0  0  0  0  0  0  0  0
   25.1412  -37.1626   -1.5200 C   0  0  0  0  0  0  0  0  0  0  0  0
   25.9807  -36.0434   -2.0188 C   0  0  2  0  0  0  0  0  0  0  0  0
   26.1935  -36.0587   -3.4292 N   0  0  0  0  0  0  0  0  0  0  0  0
   27.2539  -35.8506   -1.2475 C   0  0  0  0  0  0  0  0  0  0  0  0
   27.2146  -35.2291   -0.1316 O   0  0  0  0  0  0  0  0  0  0  0  0
   28.4966  -36.2867   -1.6360 O   0  0  0  0  0  0  0  0  0  0  0  0
  2  1  1  0
  3  2  1  0
  4  3  2  0
  6  5  1  6
  6  8  1  0
  7  6  1  0
  8  9  1  1
  9  3  1  0
 10  8  1  0
 10 14  1  0
 11 10  2  0
 13 12  1  1
 13 14  1  0
 13 15  1  0
 15 17  1  0
 16 15  2  0
M  END
$$$$
