GTA.pdb
     RDKit          3D

 17 16  0  0  1  0  0  0  0  0999 V2000
   24.6333  -11.8144  -15.6228 N   0  0  0  0  0  0  0  0  0  0  0  0
   24.1956  -10.7635  -14.7615 C   0  0  0  0  0  0  0  0  0  0  0  0
   23.5376   -9.7126  -15.5684 C   0  0  0  0  0  0  0  0  0  0  0  0
   23.5268   -9.7394  -16.8335 O   0  0  0  0  0  0  0  0  0  0  0  0
   20.4801   -9.1931  -16.5245 C   0  0  0  0  0  0  0  0  0  0  0  0
   20.7308   -7.9303  -15.7460 C   0  0  1  0  0  0  0  0  0  0  0  0
   20.2294   -8.0822  -14.4793 O   0  0  0  0  0  0  0  0  0  0  0  0
   22.2146   -7.6298  -15.7203 C   0  0  2  0  0  0  0  0  0  0  0  0
   22.8983   -8.6416  -14.9286 N   0  0  0  0  0  0  0  0  0  0  0  0
   22.4020   -6.3017  -15.0487 C   0  0  0  0  0  0  0  0  0  0  0  0
   22.6512   -6.3237  -13.8124 O   0  0  0  0  0  0  0  0  0  0  0  0
   22.7057   -2.6996  -16.1825 C   0  0  0  0  0  0  0  0  0  0  0  0
   22.5619   -3.7854  -15.1793 C   0  0  2  0  0  0  0  0  0  0  0  0
   22.3105   -5.0709  -15.7443 N   0  0  0  0  0  0  0  0  0  0  0  0
   21.6179   -3.4550  -14.0600 C   0  0  0  0  0  0  0  0  0  0  0  0
   20.4184   -3.8929  -14.1110 O   0  0  0  0  0  0  0  0  0  0  0  0
   21.9241   -2.7023  -12.9532 O   0  0  0  0  0  0  0  0  0  0  0  0
  2  1  1  0
  3  2  1  0
  4  3  2  0
  6  5  1  6
  6  8  1  0
  7  6  1  0
  8  9  1  1
  9  3  1  0
 10  8  1  0
 10 14  1  0
 11 10  2  0
 13 12  1  6
 13 14  1  0
 13 15  1  0
 15 17  1  0
 16 15  2  0
M  END
$$$$
