GTA.pdb
     RDKit          3D

 17 16  0  0  1  0  0  0  0  0999 V2000
   19.2656  -13.2571  -16.7797 N   0  0  0  0  0  0  0  0  0  0  0  0
   20.1861  -12.3953  -16.1104 C   0  0  0  0  0  0  0  0  0  0  0  0
   19.9508  -10.9999  -16.5416 C   0  0  0  0  0  0  0  0  0  0  0  0
   19.8666  -10.6746  -17.7616 O   0  0  0  0  0  0  0  0  0  0  0  0
   17.2316   -8.7244  -16.3056 C   0  0  0  0  0  0  0  0  0  0  0  0
   18.3439   -8.0621  -15.5390 C   0  0  1  0  0  0  0  0  0  0  0  0
   18.1539   -8.2837  -14.1997 O   0  0  0  0  0  0  0  0  0  0  0  0
   19.6796   -8.6022  -16.0042 C   0  0  2  0  0  0  0  0  0  0  0  0
   19.8137   -9.9882  -15.5810 N   0  0  0  0  0  0  0  0  0  0  0  0
   20.7567   -7.8004  -15.3355 C   0  0  0  0  0  0  0  0  0  0  0  0
   21.1786   -8.2332  -14.2283 O   0  0  0  0  0  0  0  0  0  0  0  0
   22.9206   -4.8244  -16.2292 C   0  0  0  0  0  0  0  0  0  0  0  0
   22.3004   -5.8029  -15.2998 C   0  0  2  0  0  0  0  0  0  0  0  0
   21.2912   -6.6148  -15.8975 N   0  0  0  0  0  0  0  0  0  0  0  0
   21.8590   -5.2044  -13.9959 C   0  0  0  0  0  0  0  0  0  0  0  0
   22.7435   -4.8712  -13.1358 O   0  0  0  0  0  0  0  0  0  0  0  0
   20.5577   -4.9754  -13.6224 O   0  0  0  0  0  0  0  0  0  0  0  0
  2  1  1  0
  3  2  1  0
  4  3  2  0
  6  5  1  6
  6  8  1  0
  7  6  1  0
  8  9  1  1
  9  3  1  0
 10  8  1  0
 10 14  1  0
 11 10  2  0
 13 12  1  6
 13 14  1  0
 13 15  1  0
 15 17  1  0
 16 15  2  0
M  END
$$$$
