GTA.pdb
     RDKit          3D

 17 16  0  0  1  0  0  0  0  0999 V2000
   17.0370  -11.0355  -15.4818 N   0  0  0  0  0  0  0  0  0  0  0  0
   17.7744   -9.9979  -16.1279 C   0  0  0  0  0  0  0  0  0  0  0  0
   18.6514   -9.3334  -15.1390 C   0  0  0  0  0  0  0  0  0  0  0  0
   18.4005   -9.3432  -13.8988 O   0  0  0  0  0  0  0  0  0  0  0  0
   22.0585  -10.0095  -14.1786 C   0  0  0  0  0  0  0  0  0  0  0  0
   22.0628   -8.5957  -14.6927 C   0  0  1  0  0  0  0  0  0  0  0  0
   22.5191   -8.5941  -15.9853 O   0  0  0  0  0  0  0  0  0  0  0  0
   20.6692   -8.0115  -14.5983 C   0  0  2  0  0  0  0  0  0  0  0  0
   19.8053   -8.6644  -15.5705 N   0  0  0  0  0  0  0  0  0  0  0  0
   20.7570   -6.5560  -14.9503 C   0  0  0  0  0  0  0  0  0  0  0  0
   20.7710   -6.2716  -16.1791 O   0  0  0  0  0  0  0  0  0  0  0  0
   20.2451   -3.2542  -13.3039 C   0  0  0  0  0  0  0  0  0  0  0  0
   20.9744   -4.1413  -14.2459 C   0  0  2  0  0  0  0  0  0  0  0  0
   20.8209   -5.5329  -13.9724 N   0  0  0  0  0  0  0  0  0  0  0  0
   22.4085   -3.7520  -14.4576 C   0  0  0  0  0  0  0  0  0  0  0  0
   22.6715   -2.6892  -15.1168 O   0  0  0  0  0  0  0  0  0  0  0  0
   23.5006   -4.4483  -14.0018 O   0  0  0  0  0  0  0  0  0  0  0  0
  2  1  1  0
  3  2  1  0
  4  3  2  0
  6  5  1  6
  6  8  1  0
  7  6  1  0
  8  9  1  6
  9  3  1  0
 10  8  1  0
 10 14  1  0
 11 10  2  0
 13 12  1  1
 13 14  1  0
 13 15  1  0
 15 17  1  0
 16 15  2  0
M  END
$$$$
