GTA.pdb
     RDKit          3D

 17 16  0  0  1  0  0  0  0  0999 V2000
   16.7919  -19.3353  -13.9613 N   0  0  0  0  0  0  0  0  0  0  0  0
   16.0883  -18.1056  -14.1370 C   0  0  0  0  0  0  0  0  0  0  0  0
   16.8419  -17.2407  -15.0710 C   0  0  0  0  0  0  0  0  0  0  0  0
   17.9818  -17.5604  -15.5178 O   0  0  0  0  0  0  0  0  0  0  0  0
   16.2557  -16.2245  -18.4343 C   0  0  0  0  0  0  0  0  0  0  0  0
   16.2946  -14.9378  -17.6555 C   0  0  1  0  0  0  0  0  0  0  0  0
   15.0099  -14.5225  -17.4189 O   0  0  0  0  0  0  0  0  0  0  0  0
   17.0554  -15.1437  -16.3627 C   0  0  2  0  0  0  0  0  0  0  0  0
   16.2917  -16.0205  -15.4876 N   0  0  0  0  0  0  0  0  0  0  0  0
   17.1883  -13.8091  -15.6911 C   0  0  0  0  0  0  0  0  0  0  0  0
   16.3327  -13.5341  -14.8060 O   0  0  0  0  0  0  0  0  0  0  0  0
   19.7393  -11.0056  -15.6895 C   0  0  0  0  0  0  0  0  0  0  0  0
   18.4405  -11.6429  -15.3535 C   0  0  2  0  0  0  0  0  0  0  0  0
   18.2136  -12.8864  -16.0145 N   0  0  0  0  0  0  0  0  0  0  0  0
   17.2654  -10.7146  -15.4565 C   0  0  0  0  0  0  0  0  0  0  0  0
   16.5515  -10.7334  -16.5162 O   0  0  0  0  0  0  0  0  0  0  0  0
   16.8709   -9.8162  -14.4959 O   0  0  0  0  0  0  0  0  0  0  0  0
  2  1  1  0
  3  2  1  0
  4  3  2  0
  6  5  1  1
  6  8  1  0
  7  6  1  0
  8  9  1  1
  9  3  1  0
 10  8  1  0
 10 14  1  0
 11 10  2  0
 13 12  1  6
 13 14  1  0
 13 15  1  0
 15 17  1  0
 16 15  2  0
M  END
$$$$
