GTA.pdb
     RDKit          3D

 17 16  0  0  1  0  0  0  0  0999 V2000
   31.2640  -21.8807  -10.2859 N   0  0  0  0  0  0  0  0  0  0  0  0
   30.3619  -20.9053  -10.8081 C   0  0  0  0  0  0  0  0  0  0  0  0
   28.9794  -21.4254  -10.7266 C   0  0  0  0  0  0  0  0  0  0  0  0
   28.7240  -22.6136  -10.3742 O   0  0  0  0  0  0  0  0  0  0  0  0
   26.4981  -21.0853   -8.5100 C   0  0  0  0  0  0  0  0  0  0  0  0
   25.8516  -20.5406   -9.7545 C   0  0  1  0  0  0  0  0  0  0  0  0
   25.9189  -19.1718   -9.7277 O   0  0  0  0  0  0  0  0  0  0  0  0
   26.5414  -21.1036  -10.9792 C   0  0  2  0  0  0  0  0  0  0  0  0
   27.9009  -20.5890  -11.0467 N   0  0  0  0  0  0  0  0  0  0  0  0
   25.7957  -20.6214  -12.1880 C   0  0  0  0  0  0  0  0  0  0  0  0
   26.3531  -19.7216  -12.8742 O   0  0  0  0  0  0  0  0  0  0  0  0
   24.1036  -21.2280  -14.9675 C   0  0  0  0  0  0  0  0  0  0  0  0
   23.7358  -20.6552  -13.6474 C   0  0  2  0  0  0  0  0  0  0  0  0
   24.5294  -21.1341  -12.5632 N   0  0  0  0  0  0  0  0  0  0  0  0
   22.2652  -20.7104  -13.3515 C   0  0  0  0  0  0  0  0  0  0  0  0
   21.8624  -21.3660  -12.3312 O   0  0  0  0  0  0  0  0  0  0  0  0
   21.2783  -20.1101  -14.0938 O   0  0  0  0  0  0  0  0  0  0  0  0
  2  1  1  0
  3  2  1  0
  4  3  2  0
  6  5  1  1
  6  8  1  0
  7  6  1  0
  8  9  1  6
  9  3  1  0
 10  8  1  0
 10 14  1  0
 11 10  2  0
 13 12  1  6
 13 14  1  0
 13 15  1  0
 15 17  1  0
 16 15  2  0
M  END
$$$$
