VYQ.pdb
     RDKit          3D

 29 29  0  0  1  0  0  0  0  0999 V2000
   33.0293  -26.9689  -21.7251 C   0  0  0  0  0  0  0  0  0  0  0  0
   32.6660  -28.2989  -21.1570 C   0  0  2  0  0  0  0  0  0  0  0  0
   32.3517  -29.3351  -22.2158 C   0  0  0  0  0  0  0  0  0  0  0  0
   31.5661  -28.2359  -20.1256 C   0  0  2  0  0  0  0  0  0  0  0  0
   31.9976  -27.3994  -19.0378 N   0  0  0  0  0  0  0  0  0  0  0  0
   31.2586  -29.6272  -19.6342 C   0  0  0  0  0  0  0  0  0  0  0  0
   30.7878  -30.4962  -20.4024 O   0  0  0  0  0  0  0  0  0  0  0  0
   34.8775  -33.9496  -22.2955 O   0  0  0  0  0  0  0  0  0  0  0  0
   34.2791  -33.4996  -21.1132 C   0  0  0  0  0  0  0  0  0  0  0  0
   33.3789  -34.2725  -20.4019 C   0  0  0  0  0  0  0  0  0  0  0  0
   32.8154  -33.7894  -19.2446 C   0  0  0  0  0  0  0  0  0  0  0  0
   33.1219  -32.5234  -18.7485 C   0  0  0  0  0  0  0  0  0  0  0  0
   32.4394  -32.1016  -17.5104 C   0  0  0  0  0  0  0  0  0  0  0  0
   31.1952  -31.3476  -17.8501 C   0  0  2  0  0  0  0  0  0  0  0  0
   31.4926  -29.9901  -18.2946 N   0  0  0  0  0  0  0  0  0  0  0  0
   30.1914  -31.3266  -16.7518 C   0  0  0  0  0  0  0  0  0  0  0  0
   30.3363  -30.6304  -15.7218 O   0  0  0  0  0  0  0  0  0  0  0  0
   34.0189  -31.7522  -19.4566 C   0  0  0  0  0  0  0  0  0  0  0  0
   34.5739  -32.2511  -20.6132 C   0  0  0  0  0  0  0  0  0  0  0  0
   24.0916  -32.5857  -17.3631 N   0  0  0  0  0  0  0  0  0  0  0  0
   24.1716  -32.2809  -15.9803 C   0  0  0  0  0  0  0  0  0  0  0  0
   23.1405  -32.1709  -15.2939 O   0  0  0  0  0  0  0  0  0  0  0  0
   25.5104  -32.0952  -15.3655 C   0  0  0  0  0  0  0  0  0  0  0  0
   26.5988  -32.1901  -16.4273 C   0  0  0  0  0  0  0  0  0  0  0  0
   27.9681  -31.9915  -15.8142 C   0  0  2  0  0  0  0  0  0  0  0  0
   29.0032  -32.1060  -16.8187 N   0  0  0  0  0  0  0  0  0  0  0  0
   28.2201  -32.9388  -14.7088 C   0  0  0  0  0  0  0  0  0  0  0  0
   27.7584  -32.7172  -13.4270 O   0  0  0  0  0  0  0  0  0  0  0  0
   28.8760  -33.9804  -14.9425 O   0  0  0  0  0  0  0  0  0  0  0  0
  2  1  1  6
  3  2  1  0
  4  2  1  0
  4  5  1  1
  6  4  1  0
  6  7  2  0
  8  9  1  0
  9 19  2  0
  9 10  1  0
 10 11  2  0
 11 12  1  0
 12 13  1  0
 14 13  1  1
 14 15  1  0
 15  6  1  0
 16 14  1  0
 17 16  2  0
 18 12  2  0
 19 18  1  0
 20 21  1  0
 21 23  1  0
 22 21  2  0
 23 24  1  0
 25 24  1  6
 25 26  1  0
 25 27  1  0
 26 16  1  0
 27 28  1  0
 29 27  2  0
M  END
$$$$
