VYQ.pdb
     RDKit          3D

 29 29  0  0  1  0  0  0  0  0999 V2000
   19.2565  -13.5738  -17.0774 C   0  0  0  0  0  0  0  0  0  0  0  0
   20.2723  -13.2496  -18.1199 C   0  0  2  0  0  0  0  0  0  0  0  0
   20.9353  -14.4767  -18.7099 C   0  0  0  0  0  0  0  0  0  0  0  0
   21.3058  -12.2479  -17.6663 C   0  0  2  0  0  0  0  0  0  0  0  0
   22.1211  -12.8520  -16.6466 N   0  0  0  0  0  0  0  0  0  0  0  0
   20.6140  -11.0196  -17.1327 C   0  0  0  0  0  0  0  0  0  0  0  0
   19.8641  -10.3309  -17.8608 O   0  0  0  0  0  0  0  0  0  0  0  0
   14.4277  -11.9509  -16.3002 O   0  0  0  0  0  0  0  0  0  0  0  0
   15.5990  -11.3941  -15.7745 C   0  0  0  0  0  0  0  0  0  0  0  0
   15.8517  -10.0346  -15.8147 C   0  0  0  0  0  0  0  0  0  0  0  0
   17.0166   -9.5315  -15.2855 C   0  0  0  0  0  0  0  0  0  0  0  0
   17.9746  -10.3552  -14.6969 C   0  0  0  0  0  0  0  0  0  0  0  0
   19.1962   -9.7072  -14.1828 C   0  0  0  0  0  0  0  0  0  0  0  0
   20.1244   -9.4069  -15.3145 C   0  0  2  0  0  0  0  0  0  0  0  0
   20.7917  -10.6111  -15.7976 N   0  0  0  0  0  0  0  0  0  0  0  0
   21.1233   -8.3489  -15.0024 C   0  0  0  0  0  0  0  0  0  0  0  0
   22.1835   -8.5875  -14.3815 O   0  0  0  0  0  0  0  0  0  0  0  0
   17.7239  -11.7103  -14.6564 C   0  0  0  0  0  0  0  0  0  0  0  0
   16.5527  -12.1975  -15.1907 C   0  0  0  0  0  0  0  0  0  0  0  0
   21.3030   -2.6491  -17.6042 N   0  0  0  0  0  0  0  0  0  0  0  0
   21.5833   -3.8863  -18.2382 C   0  0  0  0  0  0  0  0  0  0  0  0
   21.6052   -3.9734  -19.4785 O   0  0  0  0  0  0  0  0  0  0  0  0
   21.8506   -5.0779  -17.3935 C   0  0  0  0  0  0  0  0  0  0  0  0
   21.6639   -4.7360  -15.9206 C   0  0  0  0  0  0  0  0  0  0  0  0
   21.8671   -5.9598  -15.0537 C   0  0  2  0  0  0  0  0  0  0  0  0
   20.9202   -6.9980  -15.3990 N   0  0  0  0  0  0  0  0  0  0  0  0
   21.7726   -5.6382  -13.6149 C   0  0  0  0  0  0  0  0  0  0  0  0
   22.7784   -4.9777  -12.9385 O   0  0  0  0  0  0  0  0  0  0  0  0
   20.7434   -5.9768  -12.9857 O   0  0  0  0  0  0  0  0  0  0  0  0
  2  1  1  1
  3  2  1  0
  4  2  1  0
  4  5  1  1
  6  4  1  0
  6  7  2  0
  8  9  1  0
  9 19  2  0
  9 10  1  0
 10 11  2  0
 11 12  1  0
 12 13  1  0
 14 13  1  1
 14 15  1  0
 15  6  1  0
 16 14  1  0
 17 16  2  0
 18 12  2  0
 19 18  1  0
 20 21  1  0
 21 23  1  0
 22 21  2  0
 23 24  1  0
 25 24  1  6
 25 26  1  0
 25 27  1  0
 26 16  1  0
 27 28  1  0
 29 27  2  0
M  END
$$$$
