VYQ.pdb
     RDKit          3D

 29 29  0  0  1  0  0  0  0  0999 V2000
   11.4365  -18.3444    3.3739 C   0  0  0  0  0  0  0  0  0  0  0  0
   12.0841  -17.9855    2.0796 C   0  0  2  0  0  0  0  0  0  0  0  0
   11.3632  -16.8796    1.3374 C   0  0  0  0  0  0  0  0  0  0  0  0
   12.3250  -19.1693    1.1752 C   0  0  2  0  0  0  0  0  0  0  0  0
   11.0617  -19.7886    0.8752 N   0  0  0  0  0  0  0  0  0  0  0  0
   13.2442  -20.1467    1.8619 C   0  0  0  0  0  0  0  0  0  0  0  0
   12.8095  -21.2192    2.3389 O   0  0  0  0  0  0  0  0  0  0  0  0
   14.9287  -24.9688   -2.1633 O   0  0  0  0  0  0  0  0  0  0  0  0
   15.3416  -24.0519   -1.1901 C   0  0  0  0  0  0  0  0  0  0  0  0
   15.5856  -22.7227   -1.4856 C   0  0  0  0  0  0  0  0  0  0  0  0
   15.9898  -21.8571   -0.4969 C   0  0  0  0  0  0  0  0  0  0  0  0
   16.1676  -22.2750    0.8209 C   0  0  0  0  0  0  0  0  0  0  0  0
   16.6257  -21.2636    1.7924 C   0  0  0  0  0  0  0  0  0  0  0  0
   15.4853  -20.8433    2.6613 C   0  0  2  0  0  0  0  0  0  0  0  0
   14.6207  -19.8808    1.9869 N   0  0  0  0  0  0  0  0  0  0  0  0
   15.9076  -20.3213    3.9893 C   0  0  0  0  0  0  0  0  0  0  0  0
   16.3850  -19.1742    4.1398 O   0  0  0  0  0  0  0  0  0  0  0  0
   15.9248  -23.5995    1.1165 C   0  0  0  0  0  0  0  0  0  0  0  0
   15.5206  -24.4528    0.1149 C   0  0  0  0  0  0  0  0  0  0  0  0
   14.8792  -21.6907   10.8867 N   0  0  0  0  0  0  0  0  0  0  0  0
   14.4768  -20.7721    9.8839 C   0  0  0  0  0  0  0  0  0  0  0  0
   13.3166  -20.3251    9.8613 O   0  0  0  0  0  0  0  0  0  0  0  0
   15.4669  -20.3528    8.8599 C   0  0  0  0  0  0  0  0  0  0  0  0
   15.1125  -20.9506    7.5041 C   0  0  0  0  0  0  0  0  0  0  0  0
   16.1515  -20.5851    6.4662 C   0  0  2  0  0  0  0  0  0  0  0  0
   15.7882  -21.1095    5.1675 N   0  0  0  0  0  0  0  0  0  0  0  0
   17.5003  -21.0518    6.8479 C   0  0  0  0  0  0  0  0  0  0  0  0
   18.1299  -22.0970    6.2026 O   0  0  0  0  0  0  0  0  0  0  0  0
   18.0942  -20.4789    7.7907 O   0  0  0  0  0  0  0  0  0  0  0  0
  2  1  1  1
  3  2  1  0
  4  2  1  0
  4  5  1  1
  6  4  1  0
  6  7  2  0
  8  9  1  0
  9 19  2  0
  9 10  1  0
 10 11  2  0
 11 12  1  0
 12 13  1  0
 14 13  1  6
 14 15  1  0
 15  6  1  0
 16 14  1  0
 17 16  2  0
 18 12  2  0
 19 18  1  0
 20 21  1  0
 21 23  1  0
 22 21  2  0
 23 24  1  0
 25 24  1  1
 25 26  1  0
 25 27  1  0
 26 16  1  0
 27 28  1  0
 29 27  2  0
M  END
$$$$
