VYQ.pdb
     RDKit          3D

 29 29  0  0  1  0  0  0  0  0999 V2000
   23.7273  -16.9495  -18.1382 C   0  0  0  0  0  0  0  0  0  0  0  0
   24.8436  -17.9334  -18.2361 C   0  0  2  0  0  0  0  0  0  0  0  0
   25.7034  -17.7406  -19.4679 C   0  0  0  0  0  0  0  0  0  0  0  0
   24.3963  -19.3695  -18.1142 C   0  0  2  0  0  0  0  0  0  0  0  0
   23.1413  -19.5243  -18.8001 N   0  0  0  0  0  0  0  0  0  0  0  0
   24.2515  -19.7281  -16.6574 C   0  0  0  0  0  0  0  0  0  0  0  0
   25.2376  -19.7168  -15.8865 O   0  0  0  0  0  0  0  0  0  0  0  0
   22.8915  -20.7810   -8.3786 O   0  0  0  0  0  0  0  0  0  0  0  0
   22.9934  -20.4028   -9.7221 C   0  0  0  0  0  0  0  0  0  0  0  0
   21.9862  -19.7126  -10.3723 C   0  0  0  0  0  0  0  0  0  0  0  0
   22.1298  -19.3614  -11.6937 C   0  0  0  0  0  0  0  0  0  0  0  0
   23.2756  -19.6802  -12.4206 C   0  0  0  0  0  0  0  0  0  0  0  0
   23.3095  -19.2723  -13.8380 C   0  0  0  0  0  0  0  0  0  0  0  0
   22.8884  -20.4149  -14.7038 C   0  0  2  0  0  0  0  0  0  0  0  0
   23.0007  -20.0866  -16.1209 N   0  0  0  0  0  0  0  0  0  0  0  0
   21.5256  -20.9268  -14.3953 C   0  0  0  0  0  0  0  0  0  0  0  0
   20.4871  -20.2913  -14.6854 O   0  0  0  0  0  0  0  0  0  0  0  0
   24.2800  -20.3681  -11.7737 C   0  0  0  0  0  0  0  0  0  0  0  0
   24.1202  -20.7121  -10.4505 C   0  0  0  0  0  0  0  0  0  0  0  0
   20.1510  -26.8549  -12.8718 N   0  0  0  0  0  0  0  0  0  0  0  0
   20.4537  -26.3984  -14.1801 C   0  0  0  0  0  0  0  0  0  0  0  0
   20.7451  -27.2036  -15.0817 O   0  0  0  0  0  0  0  0  0  0  0  0
   20.4164  -24.9396  -14.4545 C   0  0  0  0  0  0  0  0  0  0  0  0
   20.0454  -24.1722  -13.1918 C   0  0  0  0  0  0  0  0  0  0  0  0
   20.0083  -22.6828  -13.4580 C   0  0  2  0  0  0  0  0  0  0  0  0
   21.3334  -22.1787  -13.7476 N   0  0  0  0  0  0  0  0  0  0  0  0
   19.4110  -21.9360  -12.3320 C   0  0  0  0  0  0  0  0  0  0  0  0
   18.1251  -21.4360  -12.3772 O   0  0  0  0  0  0  0  0  0  0  0  0
   20.0952  -21.7494  -11.2991 O   0  0  0  0  0  0  0  0  0  0  0  0
  2  1  1  6
  3  2  1  0
  4  2  1  0
  4  5  1  6
  6  4  1  0
  6  7  2  0
  8  9  1  0
  9 19  2  0
  9 10  1  0
 10 11  2  0
 11 12  1  0
 12 13  1  0
 14 13  1  1
 14 15  1  0
 15  6  1  0
 16 14  1  0
 17 16  2  0
 18 12  2  0
 19 18  1  0
 20 21  1  0
 21 23  1  0
 22 21  2  0
 23 24  1  0
 25 24  1  1
 25 26  1  0
 25 27  1  0
 26 16  1  0
 27 28  1  0
 29 27  2  0
M  END
$$$$
