VYQ.pdb
     RDKit          3D

 29 29  0  0  1  0  0  0  0  0999 V2000
   24.6456  -18.3130  -17.5426 C   0  0  0  0  0  0  0  0  0  0  0  0
   25.3118  -19.6056  -17.8724 C   0  0  2  0  0  0  0  0  0  0  0  0
   25.8440  -19.6588  -19.2893 C   0  0  0  0  0  0  0  0  0  0  0  0
   24.4632  -20.8171  -17.5729 C   0  0  2  0  0  0  0  0  0  0  0  0
   23.2690  -20.7561  -18.3727 N   0  0  0  0  0  0  0  0  0  0  0  0
   24.1177  -20.8375  -16.1059 C   0  0  0  0  0  0  0  0  0  0  0  0
   25.0039  -20.9817  -15.2337 O   0  0  0  0  0  0  0  0  0  0  0  0
   18.8459  -16.0264  -16.2656 O   0  0  0  0  0  0  0  0  0  0  0  0
   19.7473  -16.8681  -15.6044 C   0  0  0  0  0  0  0  0  0  0  0  0
   21.0434  -17.0560  -16.0500 C   0  0  0  0  0  0  0  0  0  0  0  0
   21.8949  -17.8928  -15.3683 C   0  0  0  0  0  0  0  0  0  0  0  0
   21.4952  -18.5748  -14.2202 C   0  0  0  0  0  0  0  0  0  0  0  0
   22.4868  -19.4632  -13.5847 C   0  0  0  0  0  0  0  0  0  0  0  0
   22.4710  -20.7994  -14.2530 C   0  0  2  0  0  0  0  0  0  0  0  0
   22.7858  -20.6947  -15.6738 N   0  0  0  0  0  0  0  0  0  0  0  0
   21.2014  -21.5502  -14.0560 C   0  0  0  0  0  0  0  0  0  0  0  0
   20.3612  -21.7020  -14.9712 O   0  0  0  0  0  0  0  0  0  0  0  0
   20.2037  -18.3883  -13.7752 C   0  0  0  0  0  0  0  0  0  0  0  0
   19.3642  -17.5470  -14.4695 C   0  0  0  0  0  0  0  0  0  0  0  0
   19.6525  -25.2717   -9.1506 N   0  0  0  0  0  0  0  0  0  0  0  0
   18.4163  -25.1805   -9.8399 C   0  0  0  0  0  0  0  0  0  0  0  0
   17.4145  -25.7925   -9.4301 O   0  0  0  0  0  0  0  0  0  0  0  0
   18.3395  -24.3398  -11.0614 C   0  0  0  0  0  0  0  0  0  0  0  0
   19.6658  -23.6291  -11.2999 C   0  0  0  0  0  0  0  0  0  0  0  0
   19.6448  -22.8760  -12.6125 C   0  0  2  0  0  0  0  0  0  0  0  0
   20.8757  -22.1395  -12.8028 N   0  0  0  0  0  0  0  0  0  0  0  0
   18.4841  -21.9671  -12.7083 C   0  0  0  0  0  0  0  0  0  0  0  0
   18.4937  -20.6977  -12.1662 O   0  0  0  0  0  0  0  0  0  0  0  0
   17.4542  -22.3619  -13.3027 O   0  0  0  0  0  0  0  0  0  0  0  0
  2  1  1  6
  3  2  1  0
  4  2  1  0
  4  5  1  6
  6  4  1  0
  6  7  2  0
  8  9  1  0
  9 19  2  0
  9 10  1  0
 10 11  2  0
 11 12  1  0
 12 13  1  0
 14 13  1  6
 14 15  1  0
 15  6  1  0
 16 14  1  0
 17 16  2  0
 18 12  2  0
 19 18  1  0
 20 21  1  0
 21 23  1  0
 22 21  2  0
 23 24  1  0
 25 24  1  1
 25 26  1  0
 25 27  1  0
 26 16  1  0
 27 28  1  0
 29 27  2  0
M  END
$$$$
