VYQ.pdb
     RDKit          3D

 29 29  0  0  1  0  0  0  0  0999 V2000
   19.6987  -12.7196    6.9781 C   0  0  0  0  0  0  0  0  0  0  0  0
   19.8370  -12.8779    5.5018 C   0  0  2  0  0  0  0  0  0  0  0  0
   20.2879  -11.6112    4.8048 C   0  0  0  0  0  0  0  0  0  0  0  0
   18.6075  -13.4469    4.8369 C   0  0  2  0  0  0  0  0  0  0  0  0
   17.4922  -12.5782    5.1030 N   0  0  0  0  0  0  0  0  0  0  0  0
   18.3415  -14.8301    5.3734 C   0  0  0  0  0  0  0  0  0  0  0  0
   17.4059  -15.0442    6.1769 O   0  0  0  0  0  0  0  0  0  0  0  0
   14.1982  -17.7442    1.3359 O   0  0  0  0  0  0  0  0  0  0  0  0
   15.3515  -17.8888    2.1153 C   0  0  0  0  0  0  0  0  0  0  0  0
   15.3502  -18.5816    3.3127 C   0  0  0  0  0  0  0  0  0  0  0  0
   16.5074  -18.6983    4.0457 C   0  0  0  0  0  0  0  0  0  0  0  0
   17.7089  -18.1336    3.6209 C   0  0  0  0  0  0  0  0  0  0  0  0
   18.8813  -18.3037    4.5001 C   0  0  0  0  0  0  0  0  0  0  0  0
   18.8831  -17.2428    5.5521 C   0  0  2  0  0  0  0  0  0  0  0  0
   19.1391  -15.9229    4.9855 N   0  0  0  0  0  0  0  0  0  0  0  0
   19.8205  -17.5172    6.6748 C   0  0  0  0  0  0  0  0  0  0  0  0
   21.0637  -17.4546    6.5431 O   0  0  0  0  0  0  0  0  0  0  0  0
   17.7113  -17.4428    2.4278 C   0  0  0  0  0  0  0  0  0  0  0  0
   16.5440  -17.3355    1.7062 C   0  0  0  0  0  0  0  0  0  0  0  0
   20.0303  -16.1562   13.2360 N   0  0  0  0  0  0  0  0  0  0  0  0
   21.0513  -16.1898   12.2521 C   0  0  0  0  0  0  0  0  0  0  0  0
   21.9106  -15.2927   12.1982 O   0  0  0  0  0  0  0  0  0  0  0  0
   21.0760  -17.3172   11.2861 C   0  0  0  0  0  0  0  0  0  0  0  0
   20.1749  -17.0147   10.0954 C   0  0  0  0  0  0  0  0  0  0  0  0
   20.2551  -18.1199    9.0648 C   0  0  2  0  0  0  0  0  0  0  0  0
   19.3447  -17.8684    7.9686 N   0  0  0  0  0  0  0  0  0  0  0  0
   19.9891  -19.4469    9.6573 C   0  0  0  0  0  0  0  0  0  0  0  0
   20.9125  -20.1009   10.4477 O   0  0  0  0  0  0  0  0  0  0  0  0
   18.8864  -19.9986    9.4348 O   0  0  0  0  0  0  0  0  0  0  0  0
  2  1  1  1
  3  2  1  0
  4  2  1  0
  4  5  1  1
  6  4  1  0
  6  7  2  0
  8  9  1  0
  9 19  2  0
  9 10  1  0
 10 11  2  0
 11 12  1  0
 12 13  1  0
 14 13  1  6
 14 15  1  0
 15  6  1  0
 16 14  1  0
 17 16  2  0
 18 12  2  0
 19 18  1  0
 20 21  1  0
 21 23  1  0
 22 21  2  0
 23 24  1  0
 25 24  1  1
 25 26  1  0
 25 27  1  0
 26 16  1  0
 27 28  1  0
 29 27  2  0
M  END
$$$$
