VYQ.pdb
     RDKit          3D

 29 29  0  0  1  0  0  0  0  0999 V2000
   27.4307  -18.3983  -15.8458 C   0  0  0  0  0  0  0  0  0  0  0  0
   27.7094  -19.4091  -16.9062 C   0  0  2  0  0  0  0  0  0  0  0  0
   29.1728  -19.4858  -17.2884 C   0  0  0  0  0  0  0  0  0  0  0  0
   26.8427  -19.2543  -18.1319 C   0  0  2  0  0  0  0  0  0  0  0  0
   27.1946  -18.0282  -18.7970 N   0  0  0  0  0  0  0  0  0  0  0  0
   25.3923  -19.2374  -17.7222 C   0  0  0  0  0  0  0  0  0  0  0  0
   24.8090  -18.1641  -17.4491 O   0  0  0  0  0  0  0  0  0  0  0  0
   17.0998  -21.0725  -15.9062 O   0  0  0  0  0  0  0  0  0  0  0  0
   18.3807  -21.0251  -16.4678 C   0  0  0  0  0  0  0  0  0  0  0  0
   19.1816  -22.1481  -16.5732 C   0  0  0  0  0  0  0  0  0  0  0  0
   20.4341  -22.0546  -17.1325 C   0  0  0  0  0  0  0  0  0  0  0  0
   20.9402  -20.8462  -17.6083 C   0  0  0  0  0  0  0  0  0  0  0  0
   22.3054  -20.8611  -18.1675 C   0  0  0  0  0  0  0  0  0  0  0  0
   23.2802  -20.3955  -17.1354 C   0  0  2  0  0  0  0  0  0  0  0  0
   24.6507  -20.4304  -17.6347 N   0  0  0  0  0  0  0  0  0  0  0  0
   23.1785  -21.1287  -15.8446 C   0  0  0  0  0  0  0  0  0  0  0  0
   23.9704  -22.0446  -15.5274 O   0  0  0  0  0  0  0  0  0  0  0  0
   20.1429  -19.7264  -17.5037 C   0  0  0  0  0  0  0  0  0  0  0  0
   18.8916  -19.8374  -16.9412 C   0  0  0  0  0  0  0  0  0  0  0  0
   25.6827  -20.2424  -11.4416 N   0  0  0  0  0  0  0  0  0  0  0  0
   24.7250  -20.9939  -10.7141 C   0  0  0  0  0  0  0  0  0  0  0  0
   24.9370  -21.3179   -9.5324 O   0  0  0  0  0  0  0  0  0  0  0  0
   23.4625  -21.3875  -11.3893 C   0  0  0  0  0  0  0  0  0  0  0  0
   23.4707  -20.9234  -12.8404 C   0  0  0  0  0  0  0  0  0  0  0  0
   22.2043  -21.3515  -13.5499 C   0  0  2  0  0  0  0  0  0  0  0  0
   22.1641  -20.8215  -14.8957 N   0  0  0  0  0  0  0  0  0  0  0  0
   20.9927  -20.9510  -12.8054 C   0  0  0  0  0  0  0  0  0  0  0  0
   20.4252  -21.7507  -11.8339 O   0  0  0  0  0  0  0  0  0  0  0  0
   20.4610  -19.8465  -13.0644 O   0  0  0  0  0  0  0  0  0  0  0  0
  2  1  1  1
  3  2  1  0
  4  2  1  0
  4  5  1  1
  6  4  1  0
  6  7  2  0
  8  9  1  0
  9 19  2  0
  9 10  1  0
 10 11  2  0
 11 12  1  0
 12 13  1  0
 14 13  1  6
 14 15  1  0
 15  6  1  0
 16 14  1  0
 17 16  2  0
 18 12  2  0
 19 18  1  0
 20 21  1  0
 21 23  1  0
 22 21  2  0
 23 24  1  0
 25 24  1  1
 25 26  1  0
 25 27  1  0
 26 16  1  0
 27 28  1  0
 29 27  2  0
M  END
$$$$
