VYQ.pdb
     RDKit          3D

 29 29  0  0  1  0  0  0  0  0999 V2000
   44.0026   -9.8427  -10.7499 C   0  0  0  0  0  0  0  0  0  0  0  0
   44.6192   -9.3599   -9.4810 C   0  0  2  0  0  0  0  0  0  0  0  0
   46.0714   -9.7630   -9.3314 C   0  0  0  0  0  0  0  0  0  0  0  0
   43.8312   -9.7274   -8.2475 C   0  0  2  0  0  0  0  0  0  0  0  0
   43.8070  -11.1603   -8.1225 N   0  0  0  0  0  0  0  0  0  0  0  0
   42.4310   -9.1822   -8.3656 C   0  0  0  0  0  0  0  0  0  0  0  0
   41.4885   -9.8999   -8.7698 O   0  0  0  0  0  0  0  0  0  0  0  0
   35.1629   -4.3955   -7.9001 O   0  0  0  0  0  0  0  0  0  0  0  0
   36.4717   -4.8604   -7.7292 C   0  0  0  0  0  0  0  0  0  0  0  0
   36.7629   -5.9830   -6.9752 C   0  0  0  0  0  0  0  0  0  0  0  0
   38.0642   -6.4036   -6.8345 C   0  0  0  0  0  0  0  0  0  0  0  0
   39.1257   -5.7286   -7.4350 C   0  0  0  0  0  0  0  0  0  0  0  0
   40.4819   -6.2579   -7.1963 C   0  0  0  0  0  0  0  0  0  0  0  0
   40.7851   -7.3371   -8.1841 C   0  0  2  0  0  0  0  0  0  0  0  0
   42.1425   -7.8476   -8.0241 N   0  0  0  0  0  0  0  0  0  0  0  0
   40.5430   -6.9381   -9.5971 C   0  0  0  0  0  0  0  0  0  0  0  0
   41.4181   -6.3814  -10.2978 O   0  0  0  0  0  0  0  0  0  0  0  0
   38.8367   -4.6096   -8.1866 C   0  0  0  0  0  0  0  0  0  0  0  0
   37.5284   -4.2021   -8.3172 C   0  0  0  0  0  0  0  0  0  0  0  0
   36.1232   -7.8084  -15.5243 N   0  0  0  0  0  0  0  0  0  0  0  0
   36.5699   -8.0727  -14.2044 C   0  0  0  0  0  0  0  0  0  0  0  0
   36.0540   -8.9809  -13.5296 O   0  0  0  0  0  0  0  0  0  0  0  0
   37.6662   -7.2444  -13.6416 C   0  0  0  0  0  0  0  0  0  0  0  0
   38.0185   -7.7156  -12.2362 C   0  0  0  0  0  0  0  0  0  0  0  0
   39.0657   -6.8177  -11.6138 C   0  0  2  0  0  0  0  0  0  0  0  0
   39.2902   -7.1722  -10.2290 N   0  0  0  0  0  0  0  0  0  0  0  0
   38.7041   -5.3895  -11.7247 C   0  0  0  0  0  0  0  0  0  0  0  0
   37.5985   -4.8568  -11.0930 O   0  0  0  0  0  0  0  0  0  0  0  0
   39.4261   -4.6347  -12.4166 O   0  0  0  0  0  0  0  0  0  0  0  0
  2  1  1  6
  3  2  1  0
  4  2  1  0
  4  5  1  6
  6  4  1  0
  6  7  2  0
  8  9  1  0
  9 19  2  0
  9 10  1  0
 10 11  2  0
 11 12  1  0
 12 13  1  0
 14 13  1  1
 14 15  1  0
 15  6  1  0
 16 14  1  0
 17 16  2  0
 18 12  2  0
 19 18  1  0
 20 21  1  0
 21 23  1  0
 22 21  2  0
 23 24  1  0
 25 24  1  1
 25 26  1  0
 25 27  1  0
 26 16  1  0
 27 28  1  0
 29 27  2  0
M  END
$$$$
