VYQ.pdb
     RDKit          3D

 29 29  0  0  1  0  0  0  0  0999 V2000
   18.9842  -10.3677  -20.0087 C   0  0  0  0  0  0  0  0  0  0  0  0
   20.2596  -10.9083  -20.5606 C   0  0  2  0  0  0  0  0  0  0  0  0
   20.1532  -11.3238  -22.0132 C   0  0  0  0  0  0  0  0  0  0  0  0
   20.8570  -12.0166  -19.7286 C   0  0  2  0  0  0  0  0  0  0  0  0
   19.9771  -13.1539  -19.7704 N   0  0  0  0  0  0  0  0  0  0  0  0
   21.0373  -11.5383  -18.3107 C   0  0  0  0  0  0  0  0  0  0  0  0
   20.1567  -11.7363  -17.4434 O   0  0  0  0  0  0  0  0  0  0  0  0
   23.0821  -16.5748  -15.3318 O   0  0  0  0  0  0  0  0  0  0  0  0
   23.1963  -15.1875  -15.4750 C   0  0  0  0  0  0  0  0  0  0  0  0
   23.6510  -14.6017  -16.6428 C   0  0  0  0  0  0  0  0  0  0  0  0
   23.7469  -13.2336  -16.7387 C   0  0  0  0  0  0  0  0  0  0  0  0
   23.3963  -12.3945  -15.6824 C   0  0  0  0  0  0  0  0  0  0  0  0
   23.5618  -10.9434  -15.8912 C   0  0  0  0  0  0  0  0  0  0  0  0
   22.3409  -10.3838  -16.5459 C   0  0  2  0  0  0  0  0  0  0  0  0
   22.2035  -10.8537  -17.9203 N   0  0  0  0  0  0  0  0  0  0  0  0
   22.2636   -8.8987  -16.4942 C   0  0  0  0  0  0  0  0  0  0  0  0
   22.8069   -8.1670  -17.3521 O   0  0  0  0  0  0  0  0  0  0  0  0
   22.9430  -12.9772  -14.5181 C   0  0  0  0  0  0  0  0  0  0  0  0
   22.8530  -14.3484  -14.4388 C   0  0  0  0  0  0  0  0  0  0  0  0
   17.9380   -5.5501  -17.5504 N   0  0  0  0  0  0  0  0  0  0  0  0
   18.6320   -4.5436  -16.8315 C   0  0  0  0  0  0  0  0  0  0  0  0
   18.1939   -3.3808  -16.7844 O   0  0  0  0  0  0  0  0  0  0  0  0
   19.8929   -4.9035  -16.1348 C   0  0  0  0  0  0  0  0  0  0  0  0
   20.1368   -6.4048  -16.2223 C   0  0  0  0  0  0  0  0  0  0  0  0
   21.3881   -6.7922  -15.4644 C   0  0  2  0  0  0  0  0  0  0  0  0
   21.5600   -8.2289  -15.4550 N   0  0  0  0  0  0  0  0  0  0  0  0
   21.3806   -6.2683  -14.0830 C   0  0  0  0  0  0  0  0  0  0  0  0
   21.3048   -7.0950  -12.9803 O   0  0  0  0  0  0  0  0  0  0  0  0
   21.4453   -5.0297  -13.9055 O   0  0  0  0  0  0  0  0  0  0  0  0
  2  1  1  1
  3  2  1  0
  4  2  1  0
  4  5  1  1
  6  4  1  0
  6  7  2  0
  8  9  1  0
  9 19  2  0
  9 10  1  0
 10 11  2  0
 11 12  1  0
 12 13  1  0
 14 13  1  6
 14 15  1  0
 15  6  1  0
 16 14  1  0
 17 16  2  0
 18 12  2  0
 19 18  1  0
 20 21  1  0
 21 23  1  0
 22 21  2  0
 23 24  1  0
 25 24  1  1
 25 26  1  0
 25 27  1  0
 26 16  1  0
 27 28  1  0
 29 27  2  0
M  END
$$$$
