VYQ.pdb
     RDKit          3D

 29 29  0  0  1  0  0  0  0  0999 V2000
   25.5886  -14.3545  -17.5832 C   0  0  0  0  0  0  0  0  0  0  0  0
   24.4602  -13.3800  -17.6068 C   0  0  2  0  0  0  0  0  0  0  0  0
   24.0487  -12.9764  -19.0073 C   0  0  0  0  0  0  0  0  0  0  0  0
   24.6938  -12.1633  -16.7452 C   0  0  2  0  0  0  0  0  0  0  0  0
   25.0608  -12.5948  -15.4229 N   0  0  0  0  0  0  0  0  0  0  0  0
   23.4379  -11.3309  -16.7012 C   0  0  0  0  0  0  0  0  0  0  0  0
   22.9639  -10.8183  -17.7401 O   0  0  0  0  0  0  0  0  0  0  0  0
   18.2461  -15.7529  -16.8129 O   0  0  0  0  0  0  0  0  0  0  0  0
   18.8087  -14.5981  -16.2578 C   0  0  0  0  0  0  0  0  0  0  0  0
   19.8423  -14.6493  -15.3398 C   0  0  0  0  0  0  0  0  0  0  0  0
   20.3645  -13.4884  -14.8204 C   0  0  0  0  0  0  0  0  0  0  0  0
   19.8831  -12.2337  -15.1903 C   0  0  0  0  0  0  0  0  0  0  0  0
   20.5047  -11.0583  -14.5511 C   0  0  0  0  0  0  0  0  0  0  0  0
   21.4722  -10.4215  -15.4948 C   0  0  2  0  0  0  0  0  0  0  0  0
   22.7608  -11.1057  -15.4880 N   0  0  0  0  0  0  0  0  0  0  0  0
   21.6571   -8.9628  -15.2658 C   0  0  0  0  0  0  0  0  0  0  0  0
   22.4147   -8.5126  -14.3770 O   0  0  0  0  0  0  0  0  0  0  0  0
   18.8530  -12.1815  -16.1051 C   0  0  0  0  0  0  0  0  0  0  0  0
   18.3417  -13.3532  -16.6153 C   0  0  0  0  0  0  0  0  0  0  0  0
   20.5390   -4.3737  -19.4214 N   0  0  0  0  0  0  0  0  0  0  0  0
   20.8791   -3.6188  -18.2699 C   0  0  0  0  0  0  0  0  0  0  0  0
   20.9604   -2.3792  -18.3248 O   0  0  0  0  0  0  0  0  0  0  0  0
   21.1369   -4.3360  -16.9956 C   0  0  0  0  0  0  0  0  0  0  0  0
   20.9343   -5.8346  -17.1806 C   0  0  0  0  0  0  0  0  0  0  0  0
   21.2222   -6.5798  -15.8952 C   0  0  2  0  0  0  0  0  0  0  0  0
   20.9738   -7.9963  -16.0549 N   0  0  0  0  0  0  0  0  0  0  0  0
   20.4388   -6.0470  -14.7615 C   0  0  0  0  0  0  0  0  0  0  0  0
   19.1403   -6.4425  -14.5110 O   0  0  0  0  0  0  0  0  0  0  0  0
   20.9714   -5.2064  -14.0003 O   0  0  0  0  0  0  0  0  0  0  0  0
  2  1  1  6
  3  2  1  0
  4  2  1  0
  4  5  1  1
  6  4  1  0
  6  7  2  0
  8  9  1  0
  9 19  2  0
  9 10  1  0
 10 11  2  0
 11 12  1  0
 12 13  1  0
 14 13  1  1
 14 15  1  0
 15  6  1  0
 16 14  1  0
 17 16  2  0
 18 12  2  0
 19 18  1  0
 20 21  1  0
 21 23  1  0
 22 21  2  0
 23 24  1  0
 25 24  1  6
 25 26  1  0
 25 27  1  0
 26 16  1  0
 27 28  1  0
 29 27  2  0
M  END
$$$$
