VYQ.pdb
     RDKit          3D

 29 29  0  0  1  0  0  0  0  0999 V2000
   17.8465  -13.3995  -17.4851 C   0  0  0  0  0  0  0  0  0  0  0  0
   18.3202  -12.0164  -17.1912 C   0  0  2  0  0  0  0  0  0  0  0  0
   19.4530  -11.5691  -18.0914 C   0  0  0  0  0  0  0  0  0  0  0  0
   18.6682  -11.7919  -15.7400 C   0  0  2  0  0  0  0  0  0  0  0  0
   17.5280  -12.1322  -14.9316 N   0  0  0  0  0  0  0  0  0  0  0  0
   19.0524  -10.3492  -15.5335 C   0  0  0  0  0  0  0  0  0  0  0  0
   18.2152   -9.4294  -15.6746 O   0  0  0  0  0  0  0  0  0  0  0  0
   23.4056   -2.8793  -14.4903 O   0  0  0  0  0  0  0  0  0  0  0  0
   23.0397   -4.2282  -14.4214 C   0  0  0  0  0  0  0  0  0  0  0  0
   23.5940   -5.1860  -15.2513 C   0  0  0  0  0  0  0  0  0  0  0  0
   23.2042   -6.5004  -15.1481 C   0  0  0  0  0  0  0  0  0  0  0  0
   22.2512   -6.9155  -14.2196 C   0  0  0  0  0  0  0  0  0  0  0  0
   21.8943   -8.3470  -14.2145 C   0  0  0  0  0  0  0  0  0  0  0  0
   20.7544   -8.5878  -15.1498 C   0  0  2  0  0  0  0  0  0  0  0  0
   20.3663   -9.9940  -15.1751 N   0  0  0  0  0  0  0  0  0  0  0  0
   21.0006   -8.0917  -16.5310 C   0  0  0  0  0  0  0  0  0  0  0  0
   21.6097   -8.7686  -17.3898 O   0  0  0  0  0  0  0  0  0  0  0  0
   21.6979   -5.9618  -13.3919 C   0  0  0  0  0  0  0  0  0  0  0  0
   22.0994   -4.6504  -13.5084 C   0  0  0  0  0  0  0  0  0  0  0  0
   18.6424   -8.7414  -21.1035 N   0  0  0  0  0  0  0  0  0  0  0  0
   19.3801   -7.6545  -21.6383 C   0  0  0  0  0  0  0  0  0  0  0  0
   19.4096   -7.4496  -22.8644 O   0  0  0  0  0  0  0  0  0  0  0  0
   20.1176   -6.7641  -20.7067 C   0  0  0  0  0  0  0  0  0  0  0  0
   19.9679   -7.2565  -19.2728 C   0  0  0  0  0  0  0  0  0  0  0  0
   20.7178   -6.3577  -18.3136 C   0  0  2  0  0  0  0  0  0  0  0  0
   20.5508   -6.8085  -16.9488 N   0  0  0  0  0  0  0  0  0  0  0  0
   20.3019   -4.9459  -18.4412 C   0  0  0  0  0  0  0  0  0  0  0  0
   20.6242   -4.1780  -19.5420 O   0  0  0  0  0  0  0  0  0  0  0  0
   19.6329   -4.4265  -17.5179 O   0  0  0  0  0  0  0  0  0  0  0  0
  2  1  1  1
  3  2  1  0
  4  2  1  0
  4  5  1  1
  6  4  1  0
  6  7  2  0
  8  9  1  0
  9 19  2  0
  9 10  1  0
 10 11  2  0
 11 12  1  0
 12 13  1  0
 14 13  1  1
 14 15  1  0
 15  6  1  0
 16 14  1  0
 17 16  2  0
 18 12  2  0
 19 18  1  0
 20 21  1  0
 21 23  1  0
 22 21  2  0
 23 24  1  0
 25 24  1  6
 25 26  1  0
 25 27  1  0
 26 16  1  0
 27 28  1  0
 29 27  2  0
M  END
$$$$
