VYQ.pdb
     RDKit          3D

 29 29  0  0  1  0  0  0  0  0999 V2000
   28.6070  -32.0699  -16.8098 C   0  0  0  0  0  0  0  0  0  0  0  0
   27.9164  -32.1527  -15.4908 C   0  0  2  0  0  0  0  0  0  0  0  0
   28.7024  -32.9259  -14.4525 C   0  0  0  0  0  0  0  0  0  0  0  0
   26.4996  -32.6643  -15.5810 C   0  0  2  0  0  0  0  0  0  0  0  0
   26.5248  -34.0156  -16.0739 N   0  0  0  0  0  0  0  0  0  0  0  0
   25.7040  -31.7783  -16.5050 C   0  0  0  0  0  0  0  0  0  0  0  0
   25.4058  -32.1510  -17.6622 O   0  0  0  0  0  0  0  0  0  0  0  0
   19.1450  -32.8821  -15.9253 O   0  0  0  0  0  0  0  0  0  0  0  0
   20.1781  -31.9448  -16.0363 C   0  0  0  0  0  0  0  0  0  0  0  0
   20.7508  -31.3441  -14.9296 C   0  0  0  0  0  0  0  0  0  0  0  0
   21.7641  -30.4282  -15.0863 C   0  0  0  0  0  0  0  0  0  0  0  0
   22.2481  -30.0728  -16.3442 C   0  0  0  0  0  0  0  0  0  0  0  0
   23.3222  -29.0626  -16.3920 C   0  0  0  0  0  0  0  0  0  0  0  0
   24.5421  -29.6504  -17.0235 C   0  0  2  0  0  0  0  0  0  0  0  0
   25.2726  -30.5037  -16.0924 N   0  0  0  0  0  0  0  0  0  0  0  0
   25.4518  -28.6363  -17.6222 C   0  0  0  0  0  0  0  0  0  0  0  0
   26.3655  -28.0839  -16.9691 O   0  0  0  0  0  0  0  0  0  0  0  0
   21.6780  -30.6708  -17.4479 C   0  0  0  0  0  0  0  0  0  0  0  0
   20.6646  -31.5857  -17.2733 C   0  0  0  0  0  0  0  0  0  0  0  0
   28.6134  -28.5343  -23.0972 N   0  0  0  0  0  0  0  0  0  0  0  0
   28.3490  -27.2614  -22.5303 C   0  0  0  0  0  0  0  0  0  0  0  0
   28.1668  -26.2686  -23.2566 O   0  0  0  0  0  0  0  0  0  0  0  0
   28.2936  -27.1349  -21.0519 C   0  0  0  0  0  0  0  0  0  0  0  0
   27.2447  -28.0794  -20.4782 C   0  0  0  0  0  0  0  0  0  0  0  0
   26.2718  -27.3303  -19.5935 C   0  0  2  0  0  0  0  0  0  0  0  0
   25.3266  -28.2397  -18.9826 N   0  0  0  0  0  0  0  0  0  0  0  0
   25.5573  -26.2699  -20.3337 C   0  0  0  0  0  0  0  0  0  0  0  0
   26.0877  -25.0080  -20.5114 O   0  0  0  0  0  0  0  0  0  0  0  0
   24.4299  -26.5245  -20.8174 O   0  0  0  0  0  0  0  0  0  0  0  0
  2  1  1  6
  3  2  1  0
  4  2  1  0
  4  5  1  6
  6  4  1  0
  6  7  2  0
  8  9  1  0
  9 19  2  0
  9 10  1  0
 10 11  2  0
 11 12  1  0
 12 13  1  0
 14 13  1  1
 14 15  1  0
 15  6  1  0
 16 14  1  0
 17 16  2  0
 18 12  2  0
 19 18  1  0
 20 21  1  0
 21 23  1  0
 22 21  2  0
 23 24  1  0
 25 24  1  6
 25 26  1  0
 25 27  1  0
 26 16  1  0
 27 28  1  0
 29 27  2  0
M  END
$$$$
