RCY.pdb
     RDKit          3D

 30 30  0  0  1  0  0  0  0  0999 V2000
    7.3166  -12.1877   12.8942 N   0  0  0  0  0  0  0  0  0  0  0  0
    7.8004  -13.1815   13.7699 C   0  0  0  0  0  0  0  0  0  0  0  0
    8.6933  -14.0251   13.3491 N   0  0  0  0  0  0  0  0  0  0  0  0
    7.3344  -13.2849   15.1074 N   0  0  0  0  0  0  0  0  0  0  0  0
    7.7086  -14.4694   15.8636 C   0  0  0  0  0  0  0  0  0  0  0  0
    9.0329  -14.2508   16.5746 C   0  0  0  0  0  0  0  0  0  0  0  0
    8.7567  -14.0203   18.0334 C   0  0  0  0  0  0  0  0  0  0  0  0
    9.2174  -15.1830   18.8490 C   0  0  2  0  0  0  0  0  0  0  0  0
    8.7945  -16.4076   18.2230 N   0  0  0  0  0  0  0  0  0  0  0  0
    8.6485  -15.0964   20.2164 C   0  0  0  0  0  0  0  0  0  0  0  0
    8.8206  -14.0510   20.9316 O   0  0  0  0  0  0  0  0  0  0  0  0
    9.0930  -14.7556   13.9663 N   0  0  0  0  0  0  0  0  0  0  0  0
    7.8942  -16.1464   20.8023 C   0  0  1  0  0  0  0  0  0  0  0  0
    7.2851  -16.0778   22.0991 C   0  0  0  0  0  0  0  0  0  0  0  0
    5.9965  -16.8620   22.1814 S   0  0  0  0  0  0  0  0  0  0  0  0
    5.4636  -17.1854   23.8588 C   0  0  0  0  0  0  0  0  0  0  0  0
    8.2346  -16.4734   23.1855 O   0  0  0  0  0  0  0  0  0  0  0  0
    8.6031  -17.6741   23.3412 O   0  0  0  0  0  0  0  0  0  0  0  0
   11.4665  -15.8999   31.3149 C   0  0  0  0  0  0  0  0  0  0  0  0
   10.9717  -15.5889   30.0654 C   0  0  0  0  0  0  0  0  0  0  0  0
   11.7199  -15.8613   28.9455 C   0  0  0  0  0  0  0  0  0  0  0  0
   11.2610  -15.5669   27.6930 C   0  0  0  0  0  0  0  0  0  0  0  0
   10.0090  -14.9797   27.5673 C   0  0  0  0  0  0  0  0  0  0  0  0
    9.5221  -14.6393   26.2147 C   0  0  1  0  0  0  0  0  0  0  0  0
    9.3240  -15.8596   25.3772 N   0  0  0  0  0  0  0  0  0  0  0  0
    8.7437  -15.5043   24.0679 C   0  0  0  0  0  0  0  0  0  0  0  0
    8.3705  -16.7640   26.0373 O   0  0  0  0  0  0  0  0  0  0  0  0
    8.7942  -17.8470   26.5135 C   0  0  0  0  0  0  0  0  0  0  0  0
    9.2513  -14.7021   28.6798 C   0  0  0  0  0  0  0  0  0  0  0  0
    9.7331  -15.0070   29.9284 O   0  0  0  0  0  0  0  0  0  0  0  0
  2  1  1  0
  3  2  2  0
  4  2  1  0
  5  6  1  0
  5  4  1  0
  7  6  1  0
  7  8  1  0
  8 10  1  0
  8  9  1  6
 10 11  2  0
 12 10  1  0
 12 13  1  0
 13 14  1  1
 14 15  1  0
 16 17  2  0
 16 13  1  0
 18 19  1  0
 19 29  2  0
 20 19  1  0
 20 21  2  0
 21 22  1  0
 22 28  2  0
 22 23  1  0
 24 23  1  6
 24 26  1  0
 24 25  1  0
 25 16  1  0
 26 30  1  0
 27 26  2  0
 29 28  1  0
M  END
$$$$
