RCY.pdb
     RDKit          3D

 30 30  0  0  1  0  0  0  0  0999 V2000
    5.9340  -22.0551   18.4637 N   0  0  0  0  0  0  0  0  0  0  0  0
    5.6400  -21.6598   17.1424 C   0  0  0  0  0  0  0  0  0  0  0  0
    5.3460  -22.5615   16.2556 N   0  0  0  0  0  0  0  0  0  0  0  0
    5.6571  -20.2941   16.7536 N   0  0  0  0  0  0  0  0  0  0  0  0
    6.1170  -19.3194   17.7301 C   0  0  0  0  0  0  0  0  0  0  0  0
    7.4734  -19.7200   18.2840 C   0  0  0  0  0  0  0  0  0  0  0  0
    7.8840  -18.7066   19.3145 C   0  0  0  0  0  0  0  0  0  0  0  0
    8.7390  -17.6465   18.7025 C   0  0  2  0  0  0  0  0  0  0  0  0
    9.8839  -18.2534   18.0771 N   0  0  0  0  0  0  0  0  0  0  0  0
    9.1853  -16.6932   19.7480 C   0  0  0  0  0  0  0  0  0  0  0  0
   10.2671  -16.8947   20.3983 O   0  0  0  0  0  0  0  0  0  0  0  0
    5.1843  -22.3212   15.2604 N   0  0  0  0  0  0  0  0  0  0  0  0
    8.4541  -15.5238   20.0835 C   0  0  2  0  0  0  0  0  0  0  0  0
    8.8292  -14.6055   21.1196 C   0  0  0  0  0  0  0  0  0  0  0  0
    8.0733  -13.2996   21.0445 S   0  0  0  0  0  0  0  0  0  0  0  0
    8.1386  -12.5289   19.4308 C   0  0  0  0  0  0  0  0  0  0  0  0
    8.7216  -15.2205   22.4791 O   0  0  0  0  0  0  0  0  0  0  0  0
    7.8959  -16.1473   22.7256 O   0  0  0  0  0  0  0  0  0  0  0  0
    5.8081  -10.5534   27.1053 C   0  0  0  0  0  0  0  0  0  0  0  0
    6.3551  -11.7367   26.6541 C   0  0  0  0  0  0  0  0  0  0  0  0
    5.5359  -12.7320   26.1783 C   0  0  0  0  0  0  0  0  0  0  0  0
    6.0432  -13.9160   25.7237 C   0  0  0  0  0  0  0  0  0  0  0  0
    7.4192  -14.1008   25.7503 C   0  0  0  0  0  0  0  0  0  0  0  0
    7.9671  -15.3901   25.2810 C   0  0  2  0  0  0  0  0  0  0  0  0
    9.4079  -15.2727   24.9067 N   0  0  0  0  0  0  0  0  0  0  0  0
    9.5484  -14.7741   23.5251 C   0  0  0  0  0  0  0  0  0  0  0  0
   10.0405  -16.5998   24.9497 O   0  0  0  0  0  0  0  0  0  0  0  0
   10.5094  -17.0812   23.8878 C   0  0  0  0  0  0  0  0  0  0  0  0
    8.2490  -13.1129   26.2242 C   0  0  0  0  0  0  0  0  0  0  0  0
    7.7164  -11.9312   26.6758 O   0  0  0  0  0  0  0  0  0  0  0  0
  2  1  1  0
  3  2  2  0
  4  2  1  0
  5  6  1  0
  5  4  1  0
  7  6  1  0
  7  8  1  0
  8 10  1  0
  8  9  1  1
 10 11  2  0
 12 10  1  0
 12 13  1  0
 13 14  1  6
 14 15  1  0
 16 17  2  0
 16 13  1  0
 18 19  1  0
 19 29  2  0
 20 19  1  0
 20 21  2  0
 21 22  1  0
 22 28  2  0
 22 23  1  0
 24 23  1  1
 24 26  1  0
 24 25  1  0
 25 16  1  0
 26 30  1  0
 27 26  2  0
 29 28  1  0
M  END
$$$$
