RCY.pdb
     RDKit          3D

 30 30  0  0  1  0  0  0  0  0999 V2000
   10.2480  -18.6173   13.3429 N   0  0  0  0  0  0  0  0  0  0  0  0
   10.1480  -17.2112   13.3828 C   0  0  0  0  0  0  0  0  0  0  0  0
   11.1354  -16.4874   12.9502 N   0  0  0  0  0  0  0  0  0  0  0  0
    8.9897  -16.5622   13.8863 N   0  0  0  0  0  0  0  0  0  0  0  0
    8.2897  -17.1927   14.9942 C   0  0  0  0  0  0  0  0  0  0  0  0
    8.3341  -16.3052   16.2261 C   0  0  0  0  0  0  0  0  0  0  0  0
    7.5471  -16.9704   17.3196 C   0  0  0  0  0  0  0  0  0  0  0  0
    8.4546  -17.4750   18.3925 C   0  0  2  0  0  0  0  0  0  0  0  0
    8.6666  -18.8874   18.2185 N   0  0  0  0  0  0  0  0  0  0  0  0
    7.8523  -17.2186   19.7238 C   0  0  0  0  0  0  0  0  0  0  0  0
    7.5598  -16.0298   20.0915 O   0  0  0  0  0  0  0  0  0  0  0  0
   11.1607  -15.4593   13.0790 N   0  0  0  0  0  0  0  0  0  0  0  0
    7.5700  -18.2551   20.6515 C   0  0  1  0  0  0  0  0  0  0  0  0
    7.0121  -18.0426   21.9557 C   0  0  0  0  0  0  0  0  0  0  0  0
    6.2871  -19.2574   22.4859 S   0  0  0  0  0  0  0  0  0  0  0  0
    5.2074  -20.0255   21.2833 C   0  0  0  0  0  0  0  0  0  0  0  0
    8.0357  -17.5503   22.9294 O   0  0  0  0  0  0  0  0  0  0  0  0
    9.2650  -17.8186   22.7936 O   0  0  0  0  0  0  0  0  0  0  0  0
   11.2876  -14.0057   30.2990 C   0  0  0  0  0  0  0  0  0  0  0  0
   10.4698  -14.3588   29.2456 C   0  0  0  0  0  0  0  0  0  0  0  0
   10.1328  -13.4234   28.2971 C   0  0  0  0  0  0  0  0  0  0  0  0
    9.3256  -13.7383   27.2412 C   0  0  0  0  0  0  0  0  0  0  0  0
    8.8440  -15.0367   27.1396 C   0  0  0  0  0  0  0  0  0  0  0  0
    7.9517  -15.3720   26.0109 C   0  0  1  0  0  0  0  0  0  0  0  0
    8.6106  -16.3007   25.0449 N   0  0  0  0  0  0  0  0  0  0  0  0
    7.6459  -16.7681   24.0309 C   0  0  0  0  0  0  0  0  0  0  0  0
    9.0957  -17.4930   25.7564 O   0  0  0  0  0  0  0  0  0  0  0  0
    8.2702  -18.3857   26.0740 C   0  0  0  0  0  0  0  0  0  0  0  0
    9.1737  -15.9812   28.0821 C   0  0  0  0  0  0  0  0  0  0  0  0
    9.9866  -15.6416   29.1347 O   0  0  0  0  0  0  0  0  0  0  0  0
  2  1  1  0
  3  2  2  0
  4  2  1  0
  5  6  1  0
  5  4  1  0
  7  6  1  0
  7  8  1  0
  8 10  1  0
  8  9  1  6
 10 11  2  0
 12 10  1  0
 12 13  1  0
 13 14  1  1
 14 15  1  0
 16 17  2  0
 16 13  1  0
 18 19  1  0
 19 29  2  0
 20 19  1  0
 20 21  2  0
 21 22  1  0
 22 28  2  0
 22 23  1  0
 24 23  1  6
 24 26  1  0
 24 25  1  0
 25 16  1  0
 26 30  1  0
 27 26  2  0
 29 28  1  0
M  END
$$$$
