RCY.pdb
     RDKit          3D

 30 30  0  0  1  0  0  0  0  0999 V2000
   14.6119  -18.9629   15.2327 N   0  0  0  0  0  0  0  0  0  0  0  0
   14.7199  -19.9923   16.1905 C   0  0  0  0  0  0  0  0  0  0  0  0
   15.0823  -21.1808   15.8138 N   0  0  0  0  0  0  0  0  0  0  0  0
   14.4412  -19.7622   17.5638 N   0  0  0  0  0  0  0  0  0  0  0  0
   14.5333  -18.3955   18.0522 C   0  0  0  0  0  0  0  0  0  0  0  0
   13.2978  -17.6048   17.6579 C   0  0  0  0  0  0  0  0  0  0  0  0
   12.8251  -16.8326   18.8570 C   0  0  0  0  0  0  0  0  0  0  0  0
   11.8333  -17.6275   19.6406 C   0  0  2  0  0  0  0  0  0  0  0  0
   10.9989  -18.3778   18.7400 N   0  0  0  0  0  0  0  0  0  0  0  0
   10.9955  -16.7194   20.4616 C   0  0  0  0  0  0  0  0  0  0  0  0
   11.5318  -15.8371   21.2151 O   0  0  0  0  0  0  0  0  0  0  0  0
   15.1551  -21.9704   16.4812 N   0  0  0  0  0  0  0  0  0  0  0  0
    9.5771  -16.7731   20.4612 C   0  0  2  0  0  0  0  0  0  0  0  0
    8.7378  -15.9759   21.3082 C   0  0  0  0  0  0  0  0  0  0  0  0
    7.2745  -16.0826   20.9479 S   0  0  0  0  0  0  0  0  0  0  0  0
    6.1958  -15.2098   22.0778 C   0  0  0  0  0  0  0  0  0  0  0  0
    8.9653  -16.2684   22.7576 O   0  0  0  0  0  0  0  0  0  0  0  0
    9.0230  -17.4546   23.1948 O   0  0  0  0  0  0  0  0  0  0  0  0
   10.1527  -14.9805   31.3540 C   0  0  0  0  0  0  0  0  0  0  0  0
   10.0220  -14.7923   29.9937 C   0  0  0  0  0  0  0  0  0  0  0  0
    9.2781  -13.7402   29.5165 C   0  0  0  0  0  0  0  0  0  0  0  0
    9.1277  -13.5240   28.1762 C   0  0  0  0  0  0  0  0  0  0  0  0
    9.7469  -14.3962   27.2909 C   0  0  0  0  0  0  0  0  0  0  0  0
    9.5652  -14.1770   25.8412 C   0  0  2  0  0  0  0  0  0  0  0  0
    9.2439  -15.4489   25.1278 N   0  0  0  0  0  0  0  0  0  0  0  0
    9.1219  -15.2153   23.6759 C   0  0  0  0  0  0  0  0  0  0  0  0
    7.9452  -15.9616   25.5899 O   0  0  0  0  0  0  0  0  0  0  0  0
    7.9277  -16.9190   26.4037 C   0  0  0  0  0  0  0  0  0  0  0  0
   10.4933  -15.4524   27.7559 C   0  0  0  0  0  0  0  0  0  0  0  0
   10.6306  -15.6498   29.1073 O   0  0  0  0  0  0  0  0  0  0  0  0
  2  1  1  0
  3  2  2  0
  4  2  1  0
  5  6  1  0
  5  4  1  0
  7  6  1  0
  7  8  1  0
  8 10  1  0
  8  9  1  6
 10 11  2  0
 12 10  1  0
 12 13  1  0
 13 14  1  6
 14 15  1  0
 16 17  2  0
 16 13  1  0
 18 19  1  0
 19 29  2  0
 20 19  1  0
 20 21  2  0
 21 22  1  0
 22 28  2  0
 22 23  1  0
 24 23  1  6
 24 26  1  0
 24 25  1  0
 25 16  1  0
 26 30  1  0
 27 26  2  0
 29 28  1  0
M  END
$$$$
