RCY.pdb
     RDKit          3D

 30 30  0  0  1  0  0  0  0  0999 V2000
    9.1674  -13.6521   17.1951 N   0  0  0  0  0  0  0  0  0  0  0  0
    8.3320  -12.9154   18.0601 C   0  0  0  0  0  0  0  0  0  0  0  0
    8.6182  -11.6768   18.3242 N   0  0  0  0  0  0  0  0  0  0  0  0
    7.1795  -13.4956   18.6532 N   0  0  0  0  0  0  0  0  0  0  0  0
    7.1084  -14.9469   18.7131 C   0  0  0  0  0  0  0  0  0  0  0  0
    8.2089  -15.4975   19.6035 C   0  0  0  0  0  0  0  0  0  0  0  0
    8.0497  -16.9891   19.6886 C   0  0  0  0  0  0  0  0  0  0  0  0
    9.0858  -17.5813   20.5859 C   0  0  2  0  0  0  0  0  0  0  0  0
    8.9002  -19.0062   20.6604 N   0  0  0  0  0  0  0  0  0  0  0  0
    8.9758  -16.9897   21.9419 C   0  0  0  0  0  0  0  0  0  0  0  0
    9.1300  -15.7336   22.1221 O   0  0  0  0  0  0  0  0  0  0  0  0
    8.0665  -11.1176   19.0004 N   0  0  0  0  0  0  0  0  0  0  0  0
    8.6987  -17.7652   23.0980 C   0  0  1  0  0  0  0  0  0  0  0  0
    8.5587  -17.2248   24.4192 C   0  0  0  0  0  0  0  0  0  0  0  0
    7.2679  -17.6392   25.0861 S   0  0  0  0  0  0  0  0  0  0  0  0
    6.6701  -16.4517   26.2839 C   0  0  0  0  0  0  0  0  0  0  0  0
    9.7419  -17.5364   25.2801 O   0  0  0  0  0  0  0  0  0  0  0  0
   10.4749  -18.5447   25.0622 O   0  0  0  0  0  0  0  0  0  0  0  0
    7.4557  -11.9259   27.9142 C   0  0  0  0  0  0  0  0  0  0  0  0
    8.4311  -12.8998   27.9703 C   0  0  0  0  0  0  0  0  0  0  0  0
    8.8712  -13.3585   29.1885 C   0  0  0  0  0  0  0  0  0  0  0  0
    9.8352  -14.3218   29.2811 C   0  0  0  0  0  0  0  0  0  0  0  0
   10.3710  -14.8377   28.1086 C   0  0  0  0  0  0  0  0  0  0  0  0
   11.4304  -15.8626   28.2082 C   0  0  1  0  0  0  0  0  0  0  0  0
   11.1712  -17.0135   27.2927 N   0  0  0  0  0  0  0  0  0  0  0  0
   10.0673  -16.7025   26.3644 C   0  0  0  0  0  0  0  0  0  0  0  0
   10.7544  -18.1859   28.0768 O   0  0  0  0  0  0  0  0  0  0  0  0
   11.5751  -18.7021   28.8762 C   0  0  0  0  0  0  0  0  0  0  0  0
    9.9392  -14.3870   26.8841 C   0  0  0  0  0  0  0  0  0  0  0  0
    8.9692  -13.4182   26.8157 O   0  0  0  0  0  0  0  0  0  0  0  0
  2  1  1  0
  3  2  2  0
  4  2  1  0
  5  6  1  0
  5  4  1  0
  7  6  1  0
  7  8  1  0
  8 10  1  0
  8  9  1  1
 10 11  2  0
 12 10  1  0
 12 13  1  0
 13 14  1  1
 14 15  1  0
 16 17  2  0
 16 13  1  0
 18 19  1  0
 19 29  2  0
 20 19  1  0
 20 21  2  0
 21 22  1  0
 22 28  2  0
 22 23  1  0
 24 23  1  6
 24 26  1  0
 24 25  1  0
 25 16  1  0
 26 30  1  0
 27 26  2  0
 29 28  1  0
M  END
$$$$
