RCY.pdb
     RDKit          3D

 30 30  0  0  1  0  0  0  0  0999 V2000
   13.3386  -20.6525   14.1136 N   0  0  0  0  0  0  0  0  0  0  0  0
   13.5996  -19.7292   15.1470 C   0  0  0  0  0  0  0  0  0  0  0  0
   14.5238  -18.8318   14.9844 N   0  0  0  0  0  0  0  0  0  0  0  0
   12.8744  -19.7548   16.3677 N   0  0  0  0  0  0  0  0  0  0  0  0
   11.4221  -19.7471   16.2910 C   0  0  0  0  0  0  0  0  0  0  0  0
   10.8507  -18.6168   17.1295 C   0  0  0  0  0  0  0  0  0  0  0  0
   11.3516  -18.7696   18.5377 C   0  0  0  0  0  0  0  0  0  0  0  0
   10.2195  -19.0275   19.4766 C   0  0  2  0  0  0  0  0  0  0  0  0
    9.0483  -19.3983   18.7276 N   0  0  0  0  0  0  0  0  0  0  0  0
    9.9393  -17.8088   20.2748 C   0  0  0  0  0  0  0  0  0  0  0  0
   10.8897  -17.1528   20.8228 O   0  0  0  0  0  0  0  0  0  0  0  0
   14.7547  -18.1409   15.7218 N   0  0  0  0  0  0  0  0  0  0  0  0
    8.6268  -17.3070   20.4752 C   0  0  1  0  0  0  0  0  0  0  0  0
    8.3122  -16.1688   21.2894 C   0  0  0  0  0  0  0  0  0  0  0  0
    6.9163  -15.6445   21.0462 S   0  0  0  0  0  0  0  0  0  0  0  0
    6.4598  -14.2988   22.1338 C   0  0  0  0  0  0  0  0  0  0  0  0
    8.5487  -16.4369   22.7422 O   0  0  0  0  0  0  0  0  0  0  0  0
    8.2022  -17.5281   23.2814 O   0  0  0  0  0  0  0  0  0  0  0  0
   11.1029  -15.1233   31.0315 C   0  0  0  0  0  0  0  0  0  0  0  0
   10.7650  -14.9252   29.7088 C   0  0  0  0  0  0  0  0  0  0  0  0
   11.1038  -15.8670   28.7673 C   0  0  0  0  0  0  0  0  0  0  0  0
   10.7851  -15.7034   27.4492 C   0  0  0  0  0  0  0  0  0  0  0  0
   10.1037  -14.5545   27.0700 C   0  0  0  0  0  0  0  0  0  0  0  0
    9.7795  -14.3656   25.6411 C   0  0  2  0  0  0  0  0  0  0  0  0
    9.3286  -15.6394   25.0055 N   0  0  0  0  0  0  0  0  0  0  0  0
    9.1698  -15.4671   23.5487 C   0  0  0  0  0  0  0  0  0  0  0  0
    8.0115  -16.0197   25.5381 O   0  0  0  0  0  0  0  0  0  0  0  0
    7.9471  -16.9374   26.3941 C   0  0  0  0  0  0  0  0  0  0  0  0
    9.7595  -13.6051   28.0024 C   0  0  0  0  0  0  0  0  0  0  0  0
   10.0903  -13.7911   29.3214 O   0  0  0  0  0  0  0  0  0  0  0  0
  2  1  1  0
  3  2  2  0
  4  2  1  0
  5  6  1  0
  5  4  1  0
  7  6  1  0
  7  8  1  0
  8 10  1  0
  8  9  1  6
 10 11  2  0
 12 10  1  0
 12 13  1  0
 13 14  1  1
 14 15  1  0
 16 17  2  0
 16 13  1  0
 18 19  1  0
 19 29  2  0
 20 19  1  0
 20 21  2  0
 21 22  1  0
 22 28  2  0
 22 23  1  0
 24 23  1  6
 24 26  1  0
 24 25  1  0
 25 16  1  0
 26 30  1  0
 27 26  2  0
 29 28  1  0
M  END
$$$$
