DKA.pdb
     RDKit          3D

 23 22  0  0  1  0  0  0  0  0999 V2000
   16.8072  -11.7374  -16.9027 N   0  0  0  0  0  0  0  0  0  0  0  0
   17.6434  -11.2471  -15.8477 C   0  0  1  0  0  0  0  0  0  0  0  0
   18.8808  -12.1183  -15.7039 C   0  0  0  0  0  0  0  0  0  0  0  0
   18.5027  -13.4641  -15.2103 C   0  0  0  0  0  0  0  0  0  0  0  0
   17.3075  -13.7450  -14.9453 O   0  0  0  0  0  0  0  0  0  0  0  0
   17.9989   -9.8482  -16.1376 C   0  0  0  0  0  0  0  0  0  0  0  0
   18.3346   -9.4738  -17.3135 O   0  0  0  0  0  0  0  0  0  0  0  0
   19.4543  -14.4546  -15.0255 O   0  0  0  0  0  0  0  0  0  0  0  0
   17.9730   -8.8835  -15.0999 N   0  0  0  0  0  0  0  0  0  0  0  0
   18.3553   -7.5258  -15.3337 C   0  0  1  0  0  0  0  0  0  0  0  0
   17.2353   -6.6421  -14.7708 C   0  0  0  0  0  0  0  0  0  0  0  0
   16.1365   -6.5423  -15.8099 C   0  0  0  0  0  0  0  0  0  0  0  0
   15.0626   -5.6484  -15.2592 C   0  0  0  0  0  0  0  0  0  0  0  0
   13.9925   -5.5088  -16.3219 C   0  0  0  0  0  0  0  0  0  0  0  0
   13.0188   -4.5239  -15.9294 N   0  0  0  0  0  0  0  0  0  0  0  0
   19.5636   -7.2131  -14.5331 C   0  0  0  0  0  0  0  0  0  0  0  0
   19.5641   -7.3500  -13.2963 O   0  0  0  0  0  0  0  0  0  0  0  0
   23.0738   -6.3080  -15.4753 C   0  0  0  0  0  0  0  0  0  0  0  0
   21.9391   -6.3947  -14.4673 C   0  0  2  0  0  0  0  0  0  0  0  0
   20.7336   -6.7502  -15.2029 N   0  0  0  0  0  0  0  0  0  0  0  0
   21.7463   -5.0813  -13.8145 C   0  0  0  0  0  0  0  0  0  0  0  0
   20.6876   -4.2542  -14.1749 O   0  0  0  0  0  0  0  0  0  0  0  0
   22.5506   -4.7062  -12.9208 O   0  0  0  0  0  0  0  0  0  0  0  0
  2  1  1  6
  2  6  1  0
  3  2  1  0
  3  4  1  0
  4  8  1  0
  5  4  2  0
  6  7  2  0
  9 10  1  0
  9  6  1  0
 10 16  1  0
 10 11  1  1
 12 11  1  0
 12 13  1  0
 13 14  1  0
 14 15  1  0
 16 17  2  0
 16 20  1  0
 19 18  1  6
 19 21  1  0
 20 19  1  0
 21 23  2  0
 21 22  1  0
M  END
$$$$
