DKA.pdb
     RDKit          3D

 23 22  0  0  1  0  0  0  0  0999 V2000
   24.3176  -13.6158  -18.3050 N   0  0  0  0  0  0  0  0  0  0  0  0
   24.0604  -12.9584  -17.0583 C   0  0  1  0  0  0  0  0  0  0  0  0
   25.3543  -12.4293  -16.4612 C   0  0  0  0  0  0  0  0  0  0  0  0
   26.2449  -13.5561  -16.0934 C   0  0  0  0  0  0  0  0  0  0  0  0
   25.9440  -14.7408  -16.3826 O   0  0  0  0  0  0  0  0  0  0  0  0
   23.0888  -11.8761  -17.2861 C   0  0  0  0  0  0  0  0  0  0  0  0
   23.1976  -11.0785  -18.2799 O   0  0  0  0  0  0  0  0  0  0  0  0
   27.4363  -13.3392  -15.4197 O   0  0  0  0  0  0  0  0  0  0  0  0
   22.0032  -11.7021  -16.3921 N   0  0  0  0  0  0  0  0  0  0  0  0
   21.0356  -10.6675  -16.5860 C   0  0  1  0  0  0  0  0  0  0  0  0
   19.7572  -11.1090  -15.8628 C   0  0  0  0  0  0  0  0  0  0  0  0
   19.0671  -12.1598  -16.7094 C   0  0  0  0  0  0  0  0  0  0  0  0
   17.8070  -12.5665  -16.0008 C   0  0  0  0  0  0  0  0  0  0  0  0
   17.1214  -13.6164  -16.8504 C   0  0  0  0  0  0  0  0  0  0  0  0
   15.8432  -13.9639  -16.2870 N   0  0  0  0  0  0  0  0  0  0  0  0
   21.4907   -9.4365  -15.8957 C   0  0  0  0  0  0  0  0  0  0  0  0
   21.9310   -9.4812  -14.7328 O   0  0  0  0  0  0  0  0  0  0  0  0
   21.8012   -5.8653  -17.0183 C   0  0  0  0  0  0  0  0  0  0  0  0
   21.8141   -6.9446  -15.9477 C   0  0  2  0  0  0  0  0  0  0  0  0
   21.4170   -8.1916  -16.5862 N   0  0  0  0  0  0  0  0  0  0  0  0
   20.8435   -6.6073  -14.8835 C   0  0  0  0  0  0  0  0  0  0  0  0
   19.5932   -7.2154  -14.8395 O   0  0  0  0  0  0  0  0  0  0  0  0
   21.1523   -5.7588  -14.0054 O   0  0  0  0  0  0  0  0  0  0  0  0
  2  1  1  6
  2  6  1  0
  3  2  1  0
  3  4  1  0
  4  8  1  0
  5  4  2  0
  6  7  2  0
  9 10  1  0
  9  6  1  0
 10 16  1  0
 10 11  1  1
 12 11  1  0
 12 13  1  0
 13 14  1  0
 14 15  1  0
 16 17  2  0
 16 20  1  0
 19 18  1  6
 19 21  1  0
 20 19  1  0
 21 23  2  0
 21 22  1  0
M  END
$$$$
