DKA.pdb
     RDKit          3D

 23 22  0  0  1  0  0  0  0  0999 V2000
   24.6127  -12.2723  -17.9896 N   0  0  0  0  0  0  0  0  0  0  0  0
   24.6423  -11.5347  -16.7617 C   0  0  1  0  0  0  0  0  0  0  0  0
   26.0496  -11.0357  -16.4769 C   0  0  0  0  0  0  0  0  0  0  0  0
   26.9620  -12.1826  -16.2527 C   0  0  0  0  0  0  0  0  0  0  0  0
   26.5522  -13.3657  -16.3525 O   0  0  0  0  0  0  0  0  0  0  0  0
   23.6836  -10.4214  -16.8558 C   0  0  0  0  0  0  0  0  0  0  0  0
   23.5419   -9.7508  -17.9356 O   0  0  0  0  0  0  0  0  0  0  0  0
   28.2945  -11.9868  -15.9263 O   0  0  0  0  0  0  0  0  0  0  0  0
   22.8930  -10.0735  -15.7324 N   0  0  0  0  0  0  0  0  0  0  0  0
   21.9034   -9.0442  -15.8065 C   0  0  1  0  0  0  0  0  0  0  0  0
   20.6919   -9.5293  -15.0009 C   0  0  0  0  0  0  0  0  0  0  0  0
   19.9422  -10.5509  -15.8325 C   0  0  0  0  0  0  0  0  0  0  0  0
   18.7138  -10.9539  -15.0682 C   0  0  0  0  0  0  0  0  0  0  0  0
   17.9971  -12.0143  -15.8781 C   0  0  0  0  0  0  0  0  0  0  0  0
   16.8339  -12.4855  -15.1732 N   0  0  0  0  0  0  0  0  0  0  0  0
   22.4016   -7.8354  -15.1067 C   0  0  0  0  0  0  0  0  0  0  0  0
   22.9419   -7.9208  -13.9890 O   0  0  0  0  0  0  0  0  0  0  0  0
   22.6926   -4.2485  -16.1683 C   0  0  0  0  0  0  0  0  0  0  0  0
   22.7729   -5.3497  -15.1234 C   0  0  2  0  0  0  0  0  0  0  0  0
   22.2528   -6.5647  -15.7350 N   0  0  0  0  0  0  0  0  0  0  0  0
   21.9397   -4.9936  -13.9540 C   0  0  0  0  0  0  0  0  0  0  0  0
   20.6605   -5.5187  -13.8031 O   0  0  0  0  0  0  0  0  0  0  0  0
   22.3938   -4.2050  -13.0832 O   0  0  0  0  0  0  0  0  0  0  0  0
  2  1  1  6
  2  6  1  0
  3  2  1  0
  3  4  1  0
  4  8  1  0
  5  4  2  0
  6  7  2  0
  9 10  1  0
  9  6  1  0
 10 16  1  0
 10 11  1  1
 12 11  1  0
 12 13  1  0
 13 14  1  0
 14 15  1  0
 16 17  2  0
 16 20  1  0
 19 18  1  6
 19 21  1  0
 20 19  1  0
 21 23  2  0
 21 22  1  0
M  END
$$$$
