DKA.pdb
     RDKit          3D

 23 22  0  0  1  0  0  0  0  0999 V2000
   15.7578  -11.0293  -11.9856 N   0  0  0  0  0  0  0  0  0  0  0  0
   15.6350   -9.7058  -12.5202 C   0  0  1  0  0  0  0  0  0  0  0  0
   15.0960   -8.7552  -11.4635 C   0  0  0  0  0  0  0  0  0  0  0  0
   13.7272   -9.1603  -11.0632 C   0  0  0  0  0  0  0  0  0  0  0  0
   13.0620   -8.4765  -10.2461 O   0  0  0  0  0  0  0  0  0  0  0  0
   16.9517   -9.2720  -13.0155 C   0  0  0  0  0  0  0  0  0  0  0  0
   18.0356   -9.7812  -12.5666 O   0  0  0  0  0  0  0  0  0  0  0  0
   13.1381  -10.3047  -11.5768 O   0  0  0  0  0  0  0  0  0  0  0  0
   17.0355   -8.2681  -14.0122 N   0  0  0  0  0  0  0  0  0  0  0  0
   18.2871   -7.9006  -14.5975 C   0  0  1  0  0  0  0  0  0  0  0  0
   18.0047   -7.5209  -16.0563 C   0  0  0  0  0  0  0  0  0  0  0  0
   17.7973   -8.7948  -16.8508 C   0  0  0  0  0  0  0  0  0  0  0  0
   17.4632   -8.4070  -18.2627 C   0  0  0  0  0  0  0  0  0  0  0  0
   17.2686   -9.6832  -19.0550 C   0  0  0  0  0  0  0  0  0  0  0  0
   16.1116  -10.3974  -18.5826 N   0  0  0  0  0  0  0  0  0  0  0  0
   18.7891   -6.6675  -13.9445 C   0  0  0  0  0  0  0  0  0  0  0  0
   18.0224   -5.7205  -13.6914 O   0  0  0  0  0  0  0  0  0  0  0  0
   22.1462   -5.6903  -12.5806 C   0  0  0  0  0  0  0  0  0  0  0  0
   20.7436   -5.3565  -13.0625 C   0  0  2  0  0  0  0  0  0  0  0  0
   20.1713   -6.5795  -13.6076 N   0  0  0  0  0  0  0  0  0  0  0  0
   20.8092   -4.3293  -14.1250 C   0  0  0  0  0  0  0  0  0  0  0  0
   20.7604   -4.6881  -15.4680 O   0  0  0  0  0  0  0  0  0  0  0  0
   20.9106   -3.1139  -13.8105 O   0  0  0  0  0  0  0  0  0  0  0  0
  2  1  1  1
  2  6  1  0
  3  2  1  0
  3  4  1  0
  4  8  1  0
  5  4  2  0
  6  7  2  0
  9 10  1  0
  9  6  1  0
 10 16  1  0
 10 11  1  6
 12 11  1  0
 12 13  1  0
 13 14  1  0
 14 15  1  0
 16 17  2  0
 16 20  1  0
 19 18  1  6
 19 21  1  0
 20 19  1  0
 21 23  2  0
 21 22  1  0
M  END
$$$$
