DKA.pdb
     RDKit          3D

 23 22  0  0  1  0  0  0  0  0999 V2000
   14.9682  -12.6221  -14.6069 N   0  0  0  0  0  0  0  0  0  0  0  0
   15.8879  -11.6324  -14.1302 C   0  0  1  0  0  0  0  0  0  0  0  0
   17.0839  -11.5273  -15.0626 C   0  0  0  0  0  0  0  0  0  0  0  0
   17.8339  -12.8061  -15.0765 C   0  0  0  0  0  0  0  0  0  0  0  0
   18.1197  -13.4013  -14.0080 O   0  0  0  0  0  0  0  0  0  0  0  0
   15.1802  -10.3467  -14.0131 C   0  0  0  0  0  0  0  0  0  0  0  0
   14.2436  -10.0233  -14.8217 O   0  0  0  0  0  0  0  0  0  0  0  0
   18.2434  -13.3854  -16.2670 O   0  0  0  0  0  0  0  0  0  0  0  0
   15.5341   -9.4369  -12.9860 N   0  0  0  0  0  0  0  0  0  0  0  0
   14.9168   -8.1514  -12.8827 C   0  0  1  0  0  0  0  0  0  0  0  0
   14.4310   -8.0031  -11.4356 C   0  0  0  0  0  0  0  0  0  0  0  0
   13.0274   -8.5672  -11.3417 C   0  0  0  0  0  0  0  0  0  0  0  0
   12.6617   -8.6508   -9.8875 C   0  0  0  0  0  0  0  0  0  0  0  0
   11.2943   -9.2955   -9.7948 C   0  0  0  0  0  0  0  0  0  0  0  0
   10.9161   -9.4780   -8.4180 N   0  0  0  0  0  0  0  0  0  0  0  0
   15.9428   -7.0989  -13.0790 C   0  0  0  0  0  0  0  0  0  0  0  0
   16.9916   -7.0957  -12.4093 O   0  0  0  0  0  0  0  0  0  0  0  0
   16.5098   -4.6302  -15.7828 C   0  0  0  0  0  0  0  0  0  0  0  0
   16.7122   -5.0659  -14.3405 C   0  0  2  0  0  0  0  0  0  0  0  0
   15.7110   -6.0831  -14.0517 N   0  0  0  0  0  0  0  0  0  0  0  0
   16.5152   -3.9124  -13.4354 C   0  0  0  0  0  0  0  0  0  0  0  0
   17.5448   -3.0078  -13.1983 O   0  0  0  0  0  0  0  0  0  0  0  0
   15.4010   -3.7466  -12.8719 O   0  0  0  0  0  0  0  0  0  0  0  0
  2  1  1  6
  2  6  1  0
  3  2  1  0
  3  4  1  0
  4  8  1  0
  5  4  2  0
  6  7  2  0
  9 10  1  0
  9  6  1  0
 10 16  1  0
 10 11  1  1
 12 11  1  0
 12 13  1  0
 13 14  1  0
 14 15  1  0
 16 17  2  0
 16 20  1  0
 19 18  1  6
 19 21  1  0
 20 19  1  0
 21 23  2  0
 21 22  1  0
M  END
$$$$
