DKA.pdb
     RDKit          3D

 23 22  0  0  1  0  0  0  0  0999 V2000
   25.0852  -21.1733  -11.5886 N   0  0  0  0  0  0  0  0  0  0  0  0
   24.6131  -21.2112  -12.9407 C   0  0  1  0  0  0  0  0  0  0  0  0
   23.3442  -20.3863  -13.0825 C   0  0  0  0  0  0  0  0  0  0  0  0
   22.2522  -20.9879  -12.2802 C   0  0  0  0  0  0  0  0  0  0  0  0
   22.4628  -21.9814  -11.5411 O   0  0  0  0  0  0  0  0  0  0  0  0
   25.6795  -20.7179  -13.8278 C   0  0  0  0  0  0  0  0  0  0  0  0
   26.4648  -19.7747  -13.4684 O   0  0  0  0  0  0  0  0  0  0  0  0
   20.9656  -20.4744  -12.3197 O   0  0  0  0  0  0  0  0  0  0  0  0
   25.8515  -21.2919  -15.1120 N   0  0  0  0  0  0  0  0  0  0  0  0
   26.9120  -20.8791  -15.9776 C   0  0  1  0  0  0  0  0  0  0  0  0
   27.3399  -22.1134  -16.7812 C   0  0  0  0  0  0  0  0  0  0  0  0
   28.4767  -22.7934  -16.0448 C   0  0  0  0  0  0  0  0  0  0  0  0
   28.9265  -23.9629  -16.8727 C   0  0  0  0  0  0  0  0  0  0  0  0
   30.1081  -24.5963  -16.1680 C   0  0  0  0  0  0  0  0  0  0  0  0
   30.5272  -25.7873  -16.8593 N   0  0  0  0  0  0  0  0  0  0  0  0
   26.3855  -19.9093  -16.9681 C   0  0  0  0  0  0  0  0  0  0  0  0
   25.2121  -19.9848  -17.3754 O   0  0  0  0  0  0  0  0  0  0  0  0
   27.8103  -16.7604  -18.4155 C   0  0  0  0  0  0  0  0  0  0  0  0
   26.7723  -17.8706  -18.3863 C   0  0  2  0  0  0  0  0  0  0  0  0
   27.2467  -18.8816  -17.4518 N   0  0  0  0  0  0  0  0  0  0  0  0
   26.6404  -18.4700  -19.7323 C   0  0  0  0  0  0  0  0  0  0  0  0
   25.8018  -17.9032  -20.6865 O   0  0  0  0  0  0  0  0  0  0  0  0
   27.2955  -19.5069  -20.0190 O   0  0  0  0  0  0  0  0  0  0  0  0
  2  1  1  1
  2  6  1  0
  3  2  1  0
  3  4  1  0
  4  8  1  0
  5  4  2  0
  6  7  2  0
  9 10  1  0
  9  6  1  0
 10 16  1  0
 10 11  1  6
 12 11  1  0
 12 13  1  0
 13 14  1  0
 14 15  1  0
 16 17  2  0
 16 20  1  0
 19 18  1  6
 19 21  1  0
 20 19  1  0
 21 23  2  0
 21 22  1  0
M  END
$$$$
