DKA.pdb
     RDKit          3D

 23 22  0  0  1  0  0  0  0  0999 V2000
   22.6004  -15.6880  -18.1625 N   0  0  0  0  0  0  0  0  0  0  0  0
   23.5822  -15.1319  -17.2796 C   0  0  1  0  0  0  0  0  0  0  0  0
   23.0527  -13.8641  -16.6292 C   0  0  0  0  0  0  0  0  0  0  0  0
   23.0164  -12.7602  -17.6182 C   0  0  0  0  0  0  0  0  0  0  0  0
   22.2795  -12.8236  -18.6333 O   0  0  0  0  0  0  0  0  0  0  0  0
   23.9414  -16.1451  -16.2737 C   0  0  0  0  0  0  0  0  0  0  0  0
   24.7799  -15.8933  -15.3415 O   0  0  0  0  0  0  0  0  0  0  0  0
   23.7931  -11.6242  -17.4548 O   0  0  0  0  0  0  0  0  0  0  0  0
   23.3527  -17.4329  -16.3272 N   0  0  0  0  0  0  0  0  0  0  0  0
   23.5945  -18.4067  -15.3085 C   0  0  1  0  0  0  0  0  0  0  0  0
   22.4911  -19.4649  -15.4299 C   0  0  0  0  0  0  0  0  0  0  0  0
   22.5723  -20.3813  -14.2254 C   0  0  0  0  0  0  0  0  0  0  0  0
   21.5265  -21.4470  -14.3870 C   0  0  0  0  0  0  0  0  0  0  0  0
   21.5877  -22.3387  -13.1642 C   0  0  0  0  0  0  0  0  0  0  0  0
   20.5279  -23.3122  -13.1977 N   0  0  0  0  0  0  0  0  0  0  0  0
   24.8680  -19.1097  -15.5964 C   0  0  0  0  0  0  0  0  0  0  0  0
   25.0501  -19.6822  -16.6861 O   0  0  0  0  0  0  0  0  0  0  0  0
   28.0805  -19.4559  -13.6901 C   0  0  0  0  0  0  0  0  0  0  0  0
   27.1131  -19.8901  -14.7794 C   0  0  2  0  0  0  0  0  0  0  0  0
   25.8889  -19.1218  -14.6017 N   0  0  0  0  0  0  0  0  0  0  0  0
   26.8126  -21.3317  -14.6383 C   0  0  0  0  0  0  0  0  0  0  0  0
   25.5391  -21.7634  -14.2825 O   0  0  0  0  0  0  0  0  0  0  0  0
   27.7210  -22.1799  -14.8429 O   0  0  0  0  0  0  0  0  0  0  0  0
  2  1  1  6
  2  6  1  0
  3  2  1  0
  3  4  1  0
  4  8  1  0
  5  4  2  0
  6  7  2  0
  9 10  1  0
  9  6  1  0
 10 16  1  0
 10 11  1  6
 12 11  1  0
 12 13  1  0
 13 14  1  0
 14 15  1  0
 16 17  2  0
 16 20  1  0
 19 18  1  1
 19 21  1  0
 20 19  1  0
 21 23  2  0
 21 22  1  0
M  END
$$$$
