DKA.pdb
     RDKit          3D

 23 22  0  0  1  0  0  0  0  0999 V2000
   19.7659  -20.2397  -15.3315 N   0  0  0  0  0  0  0  0  0  0  0  0
   19.8318  -20.3523  -13.9048 C   0  0  1  0  0  0  0  0  0  0  0  0
   18.5691  -21.0046  -13.3656 C   0  0  0  0  0  0  0  0  0  0  0  0
   17.4086  -20.1011  -13.5519 C   0  0  0  0  0  0  0  0  0  0  0  0
   17.5339  -18.9979  -14.1392 O   0  0  0  0  0  0  0  0  0  0  0  0
   21.0333  -21.1240  -13.5464 C   0  0  0  0  0  0  0  0  0  0  0  0
   21.2993  -21.4205  -12.3311 O   0  0  0  0  0  0  0  0  0  0  0  0
   16.1496  -20.4438  -13.0849 O   0  0  0  0  0  0  0  0  0  0  0  0
   21.9244  -21.5547  -14.5606 N   0  0  0  0  0  0  0  0  0  0  0  0
   23.1281  -22.2593  -14.2461 C   0  0  1  0  0  0  0  0  0  0  0  0
   23.5037  -23.0794  -15.4865 C   0  0  0  0  0  0  0  0  0  0  0  0
   24.7821  -23.8376  -15.1898 C   0  0  0  0  0  0  0  0  0  0  0  0
   25.1733  -24.5838  -16.4330 C   0  0  0  0  0  0  0  0  0  0  0  0
   26.4435  -25.3500  -16.1273 C   0  0  0  0  0  0  0  0  0  0  0  0
   26.8245  -26.1624  -17.2529 N   0  0  0  0  0  0  0  0  0  0  0  0
   24.2289  -21.2848  -14.0522 C   0  0  0  0  0  0  0  0  0  0  0  0
   24.3859  -20.3329  -14.8381 O   0  0  0  0  0  0  0  0  0  0  0  0
   26.9432  -20.9941  -11.4691 C   0  0  0  0  0  0  0  0  0  0  0  0
   26.3340  -20.6712  -12.8240 C   0  0  2  0  0  0  0  0  0  0  0  0
   25.1118  -21.4533  -12.9459 N   0  0  0  0  0  0  0  0  0  0  0  0
   27.2725  -21.0562  -13.9008 C   0  0  0  0  0  0  0  0  0  0  0  0
   28.2031  -20.1479  -14.3945 O   0  0  0  0  0  0  0  0  0  0  0  0
   27.2290  -22.2213  -14.3773 O   0  0  0  0  0  0  0  0  0  0  0  0
  2  1  1  6
  2  6  1  0
  3  2  1  0
  3  4  1  0
  4  8  1  0
  5  4  2  0
  6  7  2  0
  9 10  1  0
  9  6  1  0
 10 16  1  0
 10 11  1  6
 12 11  1  0
 12 13  1  0
 13 14  1  0
 14 15  1  0
 16 17  2  0
 16 20  1  0
 19 18  1  1
 19 21  1  0
 20 19  1  0
 21 23  2  0
 21 22  1  0
M  END
$$$$
