DKA.pdb
     RDKit          3D

 23 22  0  0  1  0  0  0  0  0999 V2000
   14.8499   -8.4312   -8.8317 N   0  0  0  0  0  0  0  0  0  0  0  0
   15.3356   -7.2966   -9.5593 C   0  0  1  0  0  0  0  0  0  0  0  0
   15.7020   -6.1719   -8.6046 C   0  0  0  0  0  0  0  0  0  0  0  0
   14.4752   -5.5747   -8.0249 C   0  0  0  0  0  0  0  0  0  0  0  0
   14.2477   -5.6314   -6.7909 O   0  0  0  0  0  0  0  0  0  0  0  0
   16.4912   -7.7144  -10.3702 C   0  0  0  0  0  0  0  0  0  0  0  0
   17.4150   -8.4543   -9.8859 O   0  0  0  0  0  0  0  0  0  0  0  0
   13.5409   -4.9356   -8.8243 O   0  0  0  0  0  0  0  0  0  0  0  0
   16.5956   -7.2946  -11.7196 N   0  0  0  0  0  0  0  0  0  0  0  0
   17.7076   -7.6730  -12.5347 C   0  0  1  0  0  0  0  0  0  0  0  0
   17.1797   -7.8330  -13.9658 C   0  0  0  0  0  0  0  0  0  0  0  0
   16.4893   -9.1779  -14.0735 C   0  0  0  0  0  0  0  0  0  0  0  0
   15.9343   -9.2999  -15.4637 C   0  0  0  0  0  0  0  0  0  0  0  0
   15.1706  -10.6056  -15.5398 C   0  0  0  0  0  0  0  0  0  0  0  0
   14.4781  -10.7113  -16.7973 N   0  0  0  0  0  0  0  0  0  0  0  0
   18.6822   -6.5563  -12.5815 C   0  0  0  0  0  0  0  0  0  0  0  0
   18.2979   -5.3749  -12.6526 O   0  0  0  0  0  0  0  0  0  0  0  0
   22.4234   -6.4465  -12.2869 C   0  0  0  0  0  0  0  0  0  0  0  0
   21.0794   -5.8012  -12.5842 C   0  0  2  0  0  0  0  0  0  0  0  0
   20.0754   -6.8552  -12.5438 N   0  0  0  0  0  0  0  0  0  0  0  0
   21.1011   -5.1956  -13.9337 C   0  0  0  0  0  0  0  0  0  0  0  0
   21.5234   -3.8834  -14.1200 O   0  0  0  0  0  0  0  0  0  0  0  0
   20.7325   -5.8761  -14.9274 O   0  0  0  0  0  0  0  0  0  0  0  0
  2  1  1  1
  2  6  1  0
  3  2  1  0
  3  4  1  0
  4  8  1  0
  5  4  2  0
  6  7  2  0
  9 10  1  0
  9  6  1  0
 10 16  1  0
 10 11  1  6
 12 11  1  0
 12 13  1  0
 13 14  1  0
 14 15  1  0
 16 17  2  0
 16 20  1  0
 19 18  1  6
 19 21  1  0
 20 19  1  0
 21 23  2  0
 21 22  1  0
M  END
$$$$
