DKA.pdb
     RDKit          3D

 23 22  0  0  1  0  0  0  0  0999 V2000
   24.9609  -11.9098  -18.4678 N   0  0  0  0  0  0  0  0  0  0  0  0
   24.7627  -11.3284  -17.1734 C   0  0  1  0  0  0  0  0  0  0  0  0
   26.0860  -10.8485  -16.5996 C   0  0  0  0  0  0  0  0  0  0  0  0
   26.9912  -12.0003  -16.3719 C   0  0  0  0  0  0  0  0  0  0  0  0
   26.6522  -13.1651  -16.6976 O   0  0  0  0  0  0  0  0  0  0  0  0
   23.7948  -10.2257  -17.2937 C   0  0  0  0  0  0  0  0  0  0  0  0
   23.5455   -9.6751  -18.4207 O   0  0  0  0  0  0  0  0  0  0  0  0
   28.2388  -11.8296  -15.7932 O   0  0  0  0  0  0  0  0  0  0  0  0
   23.1163   -9.7531  -16.1428 N   0  0  0  0  0  0  0  0  0  0  0  0
   22.1078   -8.7436  -16.2333 C   0  0  1  0  0  0  0  0  0  0  0  0
   20.8661   -9.2857  -15.5146 C   0  0  0  0  0  0  0  0  0  0  0  0
   20.2924  -10.4198  -16.3401 C   0  0  0  0  0  0  0  0  0  0  0  0
   19.0605  -10.9197  -15.6415 C   0  0  0  0  0  0  0  0  0  0  0  0
   18.4749  -12.0332  -16.4848 C   0  0  0  0  0  0  0  0  0  0  0  0
   17.3342  -12.6156  -15.8278 N   0  0  0  0  0  0  0  0  0  0  0  0
   22.5380   -7.5520  -15.4627 C   0  0  0  0  0  0  0  0  0  0  0  0
   23.1370   -7.6736  -14.3788 O   0  0  0  0  0  0  0  0  0  0  0  0
   22.5297   -3.8964  -16.3072 C   0  0  0  0  0  0  0  0  0  0  0  0
   22.7822   -5.0529  -15.3534 C   0  0  2  0  0  0  0  0  0  0  0  0
   22.2548   -6.2554  -15.9829 N   0  0  0  0  0  0  0  0  0  0  0  0
   22.0723   -4.8152  -14.0775 C   0  0  0  0  0  0  0  0  0  0  0  0
   22.6415   -4.0305  -13.0799 O   0  0  0  0  0  0  0  0  0  0  0  0
   20.9378   -5.3296  -13.8911 O   0  0  0  0  0  0  0  0  0  0  0  0
  2  1  1  6
  2  6  1  0
  3  2  1  0
  3  4  1  0
  4  8  1  0
  5  4  2  0
  6  7  2  0
  9 10  1  0
  9  6  1  0
 10 16  1  0
 10 11  1  1
 12 11  1  0
 12 13  1  0
 13 14  1  0
 14 15  1  0
 16 17  2  0
 16 20  1  0
 19 18  1  6
 19 21  1  0
 20 19  1  0
 21 23  2  0
 21 22  1  0
M  END
$$$$
