DKA.pdb
     RDKit          3D

 23 22  0  0  1  0  0  0  0  0999 V2000
   17.5664  -11.8419  -17.1510 N   0  0  0  0  0  0  0  0  0  0  0  0
   17.2745  -10.9428  -16.0744 C   0  0  1  0  0  0  0  0  0  0  0  0
   17.5431  -11.6129  -14.7366 C   0  0  0  0  0  0  0  0  0  0  0  0
   16.5609  -12.6987  -14.5036 C   0  0  0  0  0  0  0  0  0  0  0  0
   15.5104  -12.7800  -15.1873 O   0  0  0  0  0  0  0  0  0  0  0  0
   18.0864   -9.7260  -16.2413 C   0  0  0  0  0  0  0  0  0  0  0  0
   19.2592   -9.7696  -16.7494 O   0  0  0  0  0  0  0  0  0  0  0  0
   16.7697  -13.6577  -13.5252 O   0  0  0  0  0  0  0  0  0  0  0  0
   17.5695   -8.4710  -15.8341 N   0  0  0  0  0  0  0  0  0  0  0  0
   18.3284   -7.2683  -15.9815 C   0  0  1  0  0  0  0  0  0  0  0  0
   17.3342   -6.1019  -15.9251 C   0  0  0  0  0  0  0  0  0  0  0  0
   18.0987   -4.8107  -16.1383 C   0  0  0  0  0  0  0  0  0  0  0  0
   17.1094   -3.6810  -16.1132 C   0  0  0  0  0  0  0  0  0  0  0  0
   17.8566   -2.4092  -16.4572 C   0  0  0  0  0  0  0  0  0  0  0  0
   18.4188   -2.4977  -17.7794 N   0  0  0  0  0  0  0  0  0  0  0  0
   19.2178   -7.1039  -14.8064 C   0  0  0  0  0  0  0  0  0  0  0  0
   18.7554   -7.0929  -13.6512 O   0  0  0  0  0  0  0  0  0  0  0  0
   22.7926   -7.6056  -14.2402 C   0  0  0  0  0  0  0  0  0  0  0  0
   21.5442   -6.8061  -13.9031 C   0  0  2  0  0  0  0  0  0  0  0  0
   20.6198   -6.9575  -15.0180 N   0  0  0  0  0  0  0  0  0  0  0  0
   21.8914   -5.3769  -13.7441 C   0  0  0  0  0  0  0  0  0  0  0  0
   22.4859   -4.9131  -12.5753 O   0  0  0  0  0  0  0  0  0  0  0  0
   21.6457   -4.5689  -14.6786 O   0  0  0  0  0  0  0  0  0  0  0  0
  2  1  1  6
  2  6  1  0
  3  2  1  0
  3  4  1  0
  4  8  1  0
  5  4  2  0
  6  7  2  0
  9 10  1  0
  9  6  1  0
 10 16  1  0
 10 11  1  1
 12 11  1  0
 12 13  1  0
 13 14  1  0
 14 15  1  0
 16 17  2  0
 16 20  1  0
 19 18  1  6
 19 21  1  0
 20 19  1  0
 21 23  2  0
 21 22  1  0
M  END
$$$$
