DKA.pdb
     RDKit          3D

 23 22  0  0  1  0  0  0  0  0999 V2000
   24.1187  -16.6118  -21.3196 N   0  0  0  0  0  0  0  0  0  0  0  0
   23.5618  -16.2921  -20.0389 C   0  0  1  0  0  0  0  0  0  0  0  0
   23.6406  -14.7954  -19.7852 C   0  0  0  0  0  0  0  0  0  0  0  0
   25.0572  -14.3623  -19.7235 C   0  0  0  0  0  0  0  0  0  0  0  0
   25.9937  -15.1865  -19.8691 O   0  0  0  0  0  0  0  0  0  0  0  0
   22.1716  -16.7747  -19.9940 C   0  0  0  0  0  0  0  0  0  0  0  0
   21.5623  -17.1567  -21.0515 O   0  0  0  0  0  0  0  0  0  0  0  0
   25.3935  -13.0360  -19.5035 O   0  0  0  0  0  0  0  0  0  0  0  0
   21.4803  -16.8224  -18.7579 N   0  0  0  0  0  0  0  0  0  0  0  0
   20.1502  -17.3389  -18.6665 C   0  0  1  0  0  0  0  0  0  0  0  0
   20.1801  -18.4719  -17.6332 C   0  0  0  0  0  0  0  0  0  0  0  0
   20.5879  -19.7508  -18.3370 C   0  0  0  0  0  0  0  0  0  0  0  0
   20.7210  -20.8258  -17.2968 C   0  0  0  0  0  0  0  0  0  0  0  0
   21.3553  -22.0304  -17.9607 C   0  0  0  0  0  0  0  0  0  0  0  0
   21.4339  -23.1312  -17.0366 N   0  0  0  0  0  0  0  0  0  0  0  0
   19.2583  -16.2964  -18.1036 C   0  0  0  0  0  0  0  0  0  0  0  0
   19.6116  -15.6127  -17.1258 O   0  0  0  0  0  0  0  0  0  0  0  0
   15.9144  -14.9766  -19.1944 C   0  0  0  0  0  0  0  0  0  0  0  0
   17.0821  -15.0449  -18.2233 C   0  0  2  0  0  0  0  0  0  0  0  0
   17.9815  -16.0856  -18.7012 N   0  0  0  0  0  0  0  0  0  0  0  0
   16.5923  -15.4013  -16.8737 C   0  0  0  0  0  0  0  0  0  0  0  0
   16.0487  -14.4348  -16.0339 O   0  0  0  0  0  0  0  0  0  0  0  0
   16.6680  -16.5950  -16.4791 O   0  0  0  0  0  0  0  0  0  0  0  0
  2  1  1  6
  2  6  1  0
  3  2  1  0
  3  4  1  0
  4  8  1  0
  5  4  2  0
  6  7  2  0
  9 10  1  0
  9  6  1  0
 10 16  1  0
 10 11  1  1
 12 11  1  0
 12 13  1  0
 13 14  1  0
 14 15  1  0
 16 17  2  0
 16 20  1  0
 19 18  1  6
 19 21  1  0
 20 19  1  0
 21 23  2  0
 21 22  1  0
M  END
$$$$
