PNW.pdb
     RDKit          3D

 30 32  0  0  1  0  0  0  0  0999 V2000
   31.7321  -23.3526  -11.6682 N   0  0  0  0  0  0  0  0  0  0  0  0
   32.6540  -22.8085  -12.6186 C   0  0  0  0  0  0  0  0  0  0  0  0
   33.6115  -21.9276  -11.8900 C   0  0  0  0  0  0  0  0  0  0  0  0
   33.0483  -21.8554  -10.5070 C   0  0  0  0  0  0  0  0  0  0  0  0
   31.6754  -22.4635  -10.5296 C   0  0  1  0  0  0  0  0  0  0  0  0
   30.5975  -21.4680  -10.6606 C   0  0  0  0  0  0  0  0  0  0  0  0
   30.5873  -20.4717   -9.9168 O   0  0  0  0  0  0  0  0  0  0  0  0
   27.6702  -18.0159  -14.1496 N   0  0  0  0  0  0  0  0  0  0  0  0
   27.4432  -19.2424  -13.4913 C   0  0  0  0  0  0  0  0  0  0  0  0
   26.2385  -19.4399  -13.1069 O   0  0  0  0  0  0  0  0  0  0  0  0
   28.4171  -20.2921  -13.2064 C   0  0  0  0  0  0  0  0  0  0  0  0
   28.4329  -20.7456  -11.7635 C   0  0  2  0  0  0  0  0  0  0  0  0
   29.5678  -21.6048  -11.6063 N   0  0  0  0  0  0  0  0  0  0  0  0
   27.1809  -21.2349  -11.2460 C   0  0  0  0  0  0  0  0  0  0  0  0
   26.7873  -22.3923  -11.4897 O   0  0  0  0  0  0  0  0  0  0  0  0
   26.3538  -20.4200  -10.4431 N   0  0  0  0  0  0  0  0  0  0  0  0
   25.4425  -20.9916   -9.4372 C   0  0  1  0  0  0  0  0  0  0  0  0
   26.3140  -21.4084   -8.2970 C   0  0  0  0  0  0  0  0  0  0  0  0
   26.8491  -20.2654   -7.5310 C   0  0  0  0  0  0  0  0  0  0  0  0
   26.7310  -18.9291   -7.9154 C   0  0  0  0  0  0  0  0  0  0  0  0
   27.2850  -18.1572   -6.9734 N   0  0  0  0  0  0  0  0  0  0  0  0
   27.7680  -18.9156   -5.9787 C   0  0  0  0  0  0  0  0  0  0  0  0
   28.4292  -18.6605   -4.7946 C   0  0  0  0  0  0  0  0  0  0  0  0
   28.8092  -19.7038   -3.9826 C   0  0  0  0  0  0  0  0  0  0  0  0
   28.5466  -21.0191   -4.3193 C   0  0  0  0  0  0  0  0  0  0  0  0
   27.8816  -21.2669   -5.5098 C   0  0  0  0  0  0  0  0  0  0  0  0
   27.4971  -20.2297   -6.3264 C   0  0  0  0  0  0  0  0  0  0  0  0
   24.3634  -20.0720   -9.1674 C   0  0  0  0  0  0  0  0  0  0  0  0
   24.3889  -18.8950   -9.6843 O   0  0  0  0  0  0  0  0  0  0  0  0
   23.2505  -20.3127   -8.3878 O   0  0  0  0  0  0  0  0  0  0  0  0
  1  5  1  0
  2  1  1  0
  2  3  1  0
  3  4  1  0
  5  4  1  0
  5  6  1  6
  6  7  2  0
  8  9  1  0
  9 10  2  0
  9 11  1  0
 12 11  1  6
 12 14  1  0
 12 13  1  0
 13  6  1  0
 14 16  1  0
 15 14  2  0
 16 17  1  0
 17 28  1  0
 18 19  1  0
 17 18  1  1
 19 27  1  0
 20 21  1  0
 20 19  2  0
 21 22  1  0
 22 27  2  0
 22 23  1  0
 23 24  2  0
 24 25  1  0
 26 25  2  0
 27 26  1  0
 28 29  2  0
 28 30  1  0
M  END
$$$$
