PNW.pdb
     RDKit          3D

 30 32  0  0  1  0  0  0  0  0999 V2000
   29.5672  -19.9862  -17.4809 N   0  0  0  0  0  0  0  0  0  0  0  0
   29.2779  -19.2261  -18.6589 C   0  0  0  0  0  0  0  0  0  0  0  0
   29.6556  -17.8063  -18.4041 C   0  0  0  0  0  0  0  0  0  0  0  0
   29.9878  -17.7816  -16.9467 C   0  0  0  0  0  0  0  0  0  0  0  0
   29.5563  -19.0892  -16.3472 C   0  0  1  0  0  0  0  0  0  0  0  0
   28.2320  -19.0286  -15.7049 C   0  0  0  0  0  0  0  0  0  0  0  0
   27.9446  -18.0607  -14.9791 O   0  0  0  0  0  0  0  0  0  0  0  0
   25.0967  -19.3580  -18.6543 N   0  0  0  0  0  0  0  0  0  0  0  0
   24.8297  -19.3088  -17.2703 C   0  0  0  0  0  0  0  0  0  0  0  0
   24.4219  -18.1770  -16.8336 O   0  0  0  0  0  0  0  0  0  0  0  0
   24.9660  -20.3908  -16.2995 C   0  0  0  0  0  0  0  0  0  0  0  0
   26.0011  -20.1326  -15.2272 C   0  0  2  0  0  0  0  0  0  0  0  0
   27.2703  -20.0367  -15.8838 N   0  0  0  0  0  0  0  0  0  0  0  0
   25.9384  -20.9938  -14.0744 C   0  0  0  0  0  0  0  0  0  0  0  0
   26.7222  -21.9536  -13.9395 O   0  0  0  0  0  0  0  0  0  0  0  0
   24.9855  -20.7813  -13.0547 N   0  0  0  0  0  0  0  0  0  0  0  0
   25.1866  -21.2882  -11.6867 C   0  0  1  0  0  0  0  0  0  0  0  0
   26.5283  -20.7829  -11.2648 C   0  0  0  0  0  0  0  0  0  0  0  0
   26.5929  -20.4449   -9.8291 C   0  0  0  0  0  0  0  0  0  0  0  0
   25.4852  -20.1457   -9.0348 C   0  0  0  0  0  0  0  0  0  0  0  0
   25.8973  -19.9333   -7.7798 N   0  0  0  0  0  0  0  0  0  0  0  0
   27.2280  -20.0759   -7.6993 C   0  0  0  0  0  0  0  0  0  0  0  0
   28.1581  -19.9658   -6.6857 C   0  0  0  0  0  0  0  0  0  0  0  0
   29.4919  -20.1695   -6.9536 C   0  0  0  0  0  0  0  0  0  0  0  0
   29.9376  -20.4853   -8.2240 C   0  0  0  0  0  0  0  0  0  0  0  0
   28.9972  -20.5946   -9.2362 C   0  0  0  0  0  0  0  0  0  0  0  0
   27.6619  -20.3940   -8.9766 C   0  0  0  0  0  0  0  0  0  0  0  0
   24.0469  -20.9598  -10.8644 C   0  0  0  0  0  0  0  0  0  0  0  0
   23.7637  -21.6967   -9.8495 O   0  0  0  0  0  0  0  0  0  0  0  0
   23.1828  -19.8982  -11.0389 O   0  0  0  0  0  0  0  0  0  0  0  0
  1  5  1  0
  2  1  1  0
  2  3  1  0
  3  4  1  0
  5  4  1  0
  5  6  1  6
  6  7  2  0
  8  9  1  0
  9 10  2  0
  9 11  1  0
 12 11  1  6
 12 14  1  0
 12 13  1  0
 13  6  1  0
 14 16  1  0
 15 14  2  0
 16 17  1  0
 17 28  1  0
 18 19  1  0
 17 18  1  1
 19 27  1  0
 20 21  1  0
 20 19  2  0
 21 22  1  0
 22 27  2  0
 22 23  1  0
 23 24  2  0
 24 25  1  0
 26 25  2  0
 27 26  1  0
 28 29  2  0
 28 30  1  0
M  END
$$$$
