PNW.pdb
     RDKit          3D

 30 32  0  0  1  0  0  0  0  0999 V2000
   28.7921  -18.6859  -17.9568 N   0  0  0  0  0  0  0  0  0  0  0  0
   28.7362  -17.3230  -18.3911 C   0  0  0  0  0  0  0  0  0  0  0  0
   29.7500  -16.5451  -17.6226 C   0  0  0  0  0  0  0  0  0  0  0  0
   30.2377  -17.5137  -16.5934 C   0  0  0  0  0  0  0  0  0  0  0  0
   29.3357  -18.7141  -16.6174 C   0  0  1  0  0  0  0  0  0  0  0  0
   28.2785  -18.6711  -15.5924 C   0  0  0  0  0  0  0  0  0  0  0  0
   28.5766  -18.4165  -14.4124 O   0  0  0  0  0  0  0  0  0  0  0  0
   24.8758  -16.5248  -17.5391 N   0  0  0  0  0  0  0  0  0  0  0  0
   24.8160  -16.9734  -16.2033 C   0  0  0  0  0  0  0  0  0  0  0  0
   24.9345  -16.0593  -15.3154 O   0  0  0  0  0  0  0  0  0  0  0  0
   24.6366  -18.3439  -15.7330 C   0  0  0  0  0  0  0  0  0  0  0  0
   25.8282  -18.9026  -14.9873 C   0  0  2  0  0  0  0  0  0  0  0  0
   26.9296  -18.9106  -15.9027 N   0  0  0  0  0  0  0  0  0  0  0  0
   25.5946  -20.1199  -14.2536 C   0  0  0  0  0  0  0  0  0  0  0  0
   25.6177  -21.2310  -14.8181 O   0  0  0  0  0  0  0  0  0  0  0  0
   25.3309  -20.0978  -12.8669 N   0  0  0  0  0  0  0  0  0  0  0  0
   25.0816  -21.3330  -12.1046 C   0  0  1  0  0  0  0  0  0  0  0  0
   26.3338  -21.5855  -11.3290 C   0  0  0  0  0  0  0  0  0  0  0  0
   26.3952  -20.8224  -10.0667 C   0  0  0  0  0  0  0  0  0  0  0  0
   25.3599  -20.0305   -9.5683 C   0  0  0  0  0  0  0  0  0  0  0  0
   25.7332  -19.5226   -8.3882 N   0  0  0  0  0  0  0  0  0  0  0  0
   26.9693  -19.9376   -8.0759 C   0  0  0  0  0  0  0  0  0  0  0  0
   27.8287  -19.7230   -7.0177 C   0  0  0  0  0  0  0  0  0  0  0  0
   29.0735  -20.3083   -7.0153 C   0  0  0  0  0  0  0  0  0  0  0  0
   29.4982  -21.1163   -8.0541 C   0  0  0  0  0  0  0  0  0  0  0  0
   28.6291  -21.3273   -9.1129 C   0  0  0  0  0  0  0  0  0  0  0  0
   27.3825  -20.7471   -9.1223 C   0  0  0  0  0  0  0  0  0  0  0  0
   23.8408  -21.2231  -11.3757 C   0  0  0  0  0  0  0  0  0  0  0  0
   23.2852  -20.0716  -11.2394 O   0  0  0  0  0  0  0  0  0  0  0  0
   23.1401  -22.2522  -10.7807 O   0  0  0  0  0  0  0  0  0  0  0  0
  1  5  1  0
  2  1  1  0
  2  3  1  0
  3  4  1  0
  5  4  1  0
  5  6  1  1
  6  7  2  0
  8  9  1  0
  9 10  2  0
  9 11  1  0
 12 11  1  6
 12 14  1  0
 12 13  1  0
 13  6  1  0
 14 16  1  0
 15 14  2  0
 16 17  1  0
 17 28  1  0
 18 19  1  0
 17 18  1  1
 19 27  1  0
 20 21  1  0
 20 19  2  0
 21 22  1  0
 22 27  2  0
 22 23  1  0
 23 24  2  0
 24 25  1  0
 26 25  2  0
 27 26  1  0
 28 29  2  0
 28 30  1  0
M  END
$$$$
