PNW.pdb
     RDKit          3D

 30 32  0  0  1  0  0  0  0  0999 V2000
   28.8704  -15.9841  -20.1738 N   0  0  0  0  0  0  0  0  0  0  0  0
   28.1016  -16.8821  -20.9812 C   0  0  0  0  0  0  0  0  0  0  0  0
   28.3935  -16.5897  -22.4140 C   0  0  0  0  0  0  0  0  0  0  0  0
   29.2190  -15.3442  -22.3628 C   0  0  0  0  0  0  0  0  0  0  0  0
   29.1700  -14.8088  -20.9606 C   0  0  1  0  0  0  0  0  0  0  0  0
   28.1633  -13.7495  -20.7745 C   0  0  0  0  0  0  0  0  0  0  0  0
   28.2113  -12.7255  -21.4782 O   0  0  0  0  0  0  0  0  0  0  0  0
   23.3275  -12.0593  -20.1577 N   0  0  0  0  0  0  0  0  0  0  0  0
   23.6270  -13.1198  -19.2774 C   0  0  0  0  0  0  0  0  0  0  0  0
   22.6150  -13.6571  -18.7071 O   0  0  0  0  0  0  0  0  0  0  0  0
   24.9435  -13.6609  -18.9526 C   0  0  0  0  0  0  0  0  0  0  0  0
   26.0943  -12.9050  -19.5789 C   0  0  2  0  0  0  0  0  0  0  0  0
   27.1388  -13.8548  -19.8193 N   0  0  0  0  0  0  0  0  0  0  0  0
   26.4769  -11.6841  -18.9172 C   0  0  0  0  0  0  0  0  0  0  0  0
   26.7308  -11.6608  -17.6970 O   0  0  0  0  0  0  0  0  0  0  0  0
   26.5781  -10.4686  -19.6281 N   0  0  0  0  0  0  0  0  0  0  0  0
   26.9191   -9.2030  -18.9566 C   0  0  1  0  0  0  0  0  0  0  0  0
   28.1976   -8.7484  -19.5828 C   0  0  0  0  0  0  0  0  0  0  0  0
   29.3935   -9.3321  -18.9435 C   0  0  0  0  0  0  0  0  0  0  0  0
   29.8574  -10.6293  -19.1657 C   0  0  0  0  0  0  0  0  0  0  0  0
   30.9825  -10.8125  -18.4653 N   0  0  0  0  0  0  0  0  0  0  0  0
   31.2910   -9.6987  -17.7855 C   0  0  0  0  0  0  0  0  0  0  0  0
   32.3039   -9.3363  -16.9211 C   0  0  0  0  0  0  0  0  0  0  0  0
   32.3167   -8.0764  -16.3692 C   0  0  0  0  0  0  0  0  0  0  0  0
   31.3331   -7.1476  -16.6562 C   0  0  0  0  0  0  0  0  0  0  0  0
   30.3197   -7.5192  -17.5256 C   0  0  0  0  0  0  0  0  0  0  0  0
   30.3003   -8.7761  -18.0827 C   0  0  0  0  0  0  0  0  0  0  0  0
   25.7894   -8.3054  -18.9888 C   0  0  0  0  0  0  0  0  0  0  0  0
   25.8841   -7.1468  -18.4393 O   0  0  0  0  0  0  0  0  0  0  0  0
   24.5606   -8.5470  -19.5682 O   0  0  0  0  0  0  0  0  0  0  0  0
  1  5  1  0
  2  1  1  0
  2  3  1  0
  3  4  1  0
  5  4  1  0
  5  6  1  6
  6  7  2  0
  8  9  1  0
  9 10  2  0
  9 11  1  0
 12 11  1  1
 12 14  1  0
 12 13  1  0
 13  6  1  0
 14 16  1  0
 15 14  2  0
 16 17  1  0
 17 28  1  0
 18 19  1  0
 17 18  1  6
 19 27  1  0
 20 21  1  0
 20 19  2  0
 21 22  1  0
 22 27  2  0
 22 23  1  0
 23 24  2  0
 24 25  1  0
 26 25  2  0
 27 26  1  0
 28 29  2  0
 28 30  1  0
M  END
$$$$
