TKW.pdb
     RDKit          3D

 31 32  0  0  1  0  0  0  0  0999 V2000
    9.1073  -14.0661   16.2934 C   0  0  0  0  0  0  0  0  0  0  0  0
    9.0448  -14.4048   17.7473 C   0  0  1  0  0  0  0  0  0  0  0  0
   10.1937  -13.9659   18.4051 O   0  0  0  0  0  0  0  0  0  0  0  0
    7.7908  -13.9945   18.4427 C   0  0  2  0  0  0  0  0  0  0  0  0
    7.5048  -12.6138   18.2434 N   0  0  0  0  0  0  0  0  0  0  0  0
    7.7321  -14.4175   19.8687 C   0  0  0  0  0  0  0  0  0  0  0  0
    8.0761  -13.6366   20.7918 O   0  0  0  0  0  0  0  0  0  0  0  0
    7.2879  -15.7157   20.2570 N   0  0  0  0  0  0  0  0  0  0  0  0
    7.3252  -16.2126   21.6019 C   0  0  1  0  0  0  0  0  0  0  0  0
    6.8013  -17.5914   21.7301 C   0  0  0  0  0  0  0  0  0  0  0  0
    7.5383  -18.5134   20.7988 C   0  0  0  0  0  0  0  0  0  0  0  0
    7.0470  -19.9208   20.8503 C   0  0  0  0  0  0  0  0  0  0  0  0
    7.7434  -20.8084   19.8298 C   0  0  0  0  0  0  0  0  0  0  0  0
    7.2241  -22.1489   20.0555 N   0  0  0  0  0  0  0  0  0  0  0  0
    8.7274  -16.0656   22.0952 C   0  0  0  0  0  0  0  0  0  0  0  0
    9.6736  -16.6721   21.5375 O   0  0  0  0  0  0  0  0  0  0  0  0
    9.0542  -15.2399   23.2080 N   0  0  0  0  0  0  0  0  0  0  0  0
    9.6491  -15.7244   24.4412 C   0  0  1  0  0  0  0  0  0  0  0  0
    8.6548  -16.2260   25.4032 C   0  0  0  0  0  0  0  0  0  0  0  0
    7.5632  -15.2809   25.6693 C   0  0  0  0  0  0  0  0  0  0  0  0
    6.1856  -15.4935   25.5189 C   0  0  0  0  0  0  0  0  0  0  0  0
    5.5128  -14.3743   25.8223 N   0  0  0  0  0  0  0  0  0  0  0  0
    6.3712  -13.4214   26.1699 C   0  0  0  0  0  0  0  0  0  0  0  0
    6.1756  -12.1003   26.5849 C   0  0  0  0  0  0  0  0  0  0  0  0
    7.2874  -11.3661   26.9013 C   0  0  0  0  0  0  0  0  0  0  0  0
    8.5658  -11.8589   26.8311 C   0  0  0  0  0  0  0  0  0  0  0  0
    8.7510  -13.1542   26.4226 C   0  0  0  0  0  0  0  0  0  0  0  0
    7.6551  -13.9498   26.0865 C   0  0  0  0  0  0  0  0  0  0  0  0
   10.8314  -16.5528   24.2808 C   0  0  0  0  0  0  0  0  0  0  0  0
   11.2259  -16.8860   22.9685 O   0  0  0  0  0  0  0  0  0  0  0  0
   11.5659  -17.0209   25.1753 O   0  0  0  0  0  0  0  0  0  0  0  0
  2  1  1  6
  3  2  1  0
  4  2  1  0
  4  5  1  1
  6  7  2  0
  6  4  1  0
  8  6  1  0
  9  8  1  0
  9 10  1  6
 11 10  1  0
 12 11  1  0
 13 12  1  0
 14 13  1  0
 15  9  1  0
 15 17  1  0
 16 15  2  0
 18 17  1  0
 18 29  1  0
 19 20  1  0
 18 19  1  6
 20 28  1  0
 21 20  2  0
 21 22  1  0
 22 23  1  0
 23 24  1  0
 24 25  2  0
 26 25  1  0
 27 26  2  0
 28 23  2  0
 28 27  1  0
 29 31  2  0
 29 30  1  0
M  END
$$$$
