TKW.pdb
     RDKit          3D

 31 32  0  0  1  0  0  0  0  0999 V2000
    5.1266  -16.2429   19.9250 C   0  0  0  0  0  0  0  0  0  0  0  0
    6.3572  -16.8978   20.4629 C   0  0  1  0  0  0  0  0  0  0  0  0
    7.0574  -17.5428   19.4435 O   0  0  0  0  0  0  0  0  0  0  0  0
    7.2305  -16.0229   21.2972 C   0  0  2  0  0  0  0  0  0  0  0  0
    7.6748  -14.8788   20.5751 N   0  0  0  0  0  0  0  0  0  0  0  0
    8.3261  -16.7564   21.9883 C   0  0  0  0  0  0  0  0  0  0  0  0
    8.0781  -17.7202   22.7562 O   0  0  0  0  0  0  0  0  0  0  0  0
    9.6982  -16.4073   21.8171 N   0  0  0  0  0  0  0  0  0  0  0  0
   10.7865  -17.0622   22.4830 C   0  0  1  0  0  0  0  0  0  0  0  0
   12.0601  -16.9893   21.7317 C   0  0  0  0  0  0  0  0  0  0  0  0
   12.0690  -18.0108   20.6286 C   0  0  0  0  0  0  0  0  0  0  0  0
   13.2899  -17.9464   19.7740 C   0  0  0  0  0  0  0  0  0  0  0  0
   13.2183  -18.9099   18.5990 C   0  0  0  0  0  0  0  0  0  0  0  0
   14.4210  -18.6660   17.8169 N   0  0  0  0  0  0  0  0  0  0  0  0
   10.8794  -16.4895   23.8595 C   0  0  0  0  0  0  0  0  0  0  0  0
   11.4495  -15.3905   24.0630 O   0  0  0  0  0  0  0  0  0  0  0  0
   10.3320  -17.1545   24.9931 N   0  0  0  0  0  0  0  0  0  0  0  0
   10.4021  -16.6487   26.3527 C   0  0  1  0  0  0  0  0  0  0  0  0
   10.0941  -15.2130   26.4508 C   0  0  0  0  0  0  0  0  0  0  0  0
    8.6801  -14.8960   26.2144 C   0  0  0  0  0  0  0  0  0  0  0  0
    7.6563  -15.7705   25.8235 C   0  0  0  0  0  0  0  0  0  0  0  0
    6.5091  -15.0940   25.6697 N   0  0  0  0  0  0  0  0  0  0  0  0
    6.7126  -13.8089   25.9392 C   0  0  0  0  0  0  0  0  0  0  0  0
    5.8458  -12.7114   25.9435 C   0  0  0  0  0  0  0  0  0  0  0  0
    6.3675  -11.4954   26.2963 C   0  0  0  0  0  0  0  0  0  0  0  0
    7.6818  -11.3062   26.6408 C   0  0  0  0  0  0  0  0  0  0  0  0
    8.5267  -12.3857   26.6338 C   0  0  0  0  0  0  0  0  0  0  0  0
    8.0511  -13.6494   26.2818 C   0  0  0  0  0  0  0  0  0  0  0  0
    9.7824  -17.4875   27.3638 C   0  0  0  0  0  0  0  0  0  0  0  0
    9.1877  -18.6942   26.9405 O   0  0  0  0  0  0  0  0  0  0  0  0
    9.7054  -17.2769   28.5919 O   0  0  0  0  0  0  0  0  0  0  0  0
  2  1  1  6
  3  2  1  0
  4  2  1  0
  4  5  1  6
  6  7  2  0
  6  4  1  0
  8  6  1  0
  9  8  1  0
  9 10  1  6
 11 10  1  0
 12 11  1  0
 13 12  1  0
 14 13  1  0
 15  9  1  0
 15 17  1  0
 16 15  2  0
 18 17  1  0
 18 29  1  0
 19 20  1  0
 18 19  1  6
 20 28  1  0
 21 20  2  0
 21 22  1  0
 22 23  1  0
 23 24  1  0
 24 25  2  0
 26 25  1  0
 27 26  2  0
 28 23  2  0
 28 27  1  0
 29 31  2  0
 29 30  1  0
M  END
$$$$
