TKW.pdb
     RDKit          3D

 31 32  0  0  1  0  0  0  0  0999 V2000
   11.1269  -14.2726   19.2407 C   0  0  0  0  0  0  0  0  0  0  0  0
   10.0771  -13.2904   18.8335 C   0  0  1  0  0  0  0  0  0  0  0  0
   10.4953  -12.5536   17.7255 O   0  0  0  0  0  0  0  0  0  0  0  0
    8.7076  -13.8563   18.6652 C   0  0  2  0  0  0  0  0  0  0  0  0
    7.7737  -12.8636   18.2528 N   0  0  0  0  0  0  0  0  0  0  0  0
    8.2473  -14.6640   19.8279 C   0  0  0  0  0  0  0  0  0  0  0  0
    7.8382  -14.1117   20.8804 O   0  0  0  0  0  0  0  0  0  0  0  0
    8.2469  -16.0899   19.8081 N   0  0  0  0  0  0  0  0  0  0  0  0
    7.8871  -16.9123   20.9267 C   0  0  1  0  0  0  0  0  0  0  0  0
    7.6551  -18.3279   20.5605 C   0  0  0  0  0  0  0  0  0  0  0  0
    7.3438  -19.1357   21.7898 C   0  0  0  0  0  0  0  0  0  0  0  0
    7.2310  -20.5988   21.5218 C   0  0  0  0  0  0  0  0  0  0  0  0
    6.9419  -21.3923   22.7871 C   0  0  0  0  0  0  0  0  0  0  0  0
    6.8285  -22.7798   22.3635 N   0  0  0  0  0  0  0  0  0  0  0  0
    8.9424  -16.7374   21.9693 C   0  0  0  0  0  0  0  0  0  0  0  0
   10.1546  -16.9077   21.6940 O   0  0  0  0  0  0  0  0  0  0  0  0
    8.6279  -16.3731   23.3091 N   0  0  0  0  0  0  0  0  0  0  0  0
    9.6131  -16.1811   24.3589 C   0  0  1  0  0  0  0  0  0  0  0  0
    9.4610  -14.8991   25.0653 C   0  0  0  0  0  0  0  0  0  0  0  0
    8.1077  -14.6706   25.5872 C   0  0  0  0  0  0  0  0  0  0  0  0
    7.0812  -15.6104   25.7568 C   0  0  0  0  0  0  0  0  0  0  0  0
    5.9779  -15.0060   26.2201 N   0  0  0  0  0  0  0  0  0  0  0  0
    6.2139  -13.7071   26.3706 C   0  0  0  0  0  0  0  0  0  0  0  0
    5.4070  -12.6633   26.8345 C   0  0  0  0  0  0  0  0  0  0  0  0
    5.9628  -11.4131   26.8936 C   0  0  0  0  0  0  0  0  0  0  0  0
    7.2556  -11.1407   26.5243 C   0  0  0  0  0  0  0  0  0  0  0  0
    8.0413  -12.1678   26.0695 C   0  0  0  0  0  0  0  0  0  0  0  0
    7.5283  -13.4628   25.9868 C   0  0  0  0  0  0  0  0  0  0  0  0
    9.8527  -17.3343   25.2090 C   0  0  0  0  0  0  0  0  0  0  0  0
   11.0112  -17.3271   26.0131 O   0  0  0  0  0  0  0  0  0  0  0  0
    9.1488  -18.3587   25.3265 O   0  0  0  0  0  0  0  0  0  0  0  0
  2  1  1  6
  3  2  1  0
  4  2  1  0
  4  5  1  1
  6  7  2  0
  6  4  1  0
  8  6  1  0
  9  8  1  0
  9 10  1  6
 11 10  1  0
 12 11  1  0
 13 12  1  0
 14 13  1  0
 15  9  1  0
 15 17  1  0
 16 15  2  0
 18 17  1  0
 18 29  1  0
 19 20  1  0
 18 19  1  1
 20 28  1  0
 21 20  2  0
 21 22  1  0
 22 23  1  0
 23 24  1  0
 24 25  2  0
 26 25  1  0
 27 26  2  0
 28 23  2  0
 28 27  1  0
 29 31  2  0
 29 30  1  0
M  END
$$$$
