TKW.pdb
     RDKit          3D

 31 32  0  0  1  0  0  0  0  0999 V2000
    6.1511  -22.3901   20.9450 C   0  0  0  0  0  0  0  0  0  0  0  0
    6.7258  -21.0360   20.6831 C   0  0  1  0  0  0  0  0  0  0  0  0
    6.2436  -20.5205   19.4801 O   0  0  0  0  0  0  0  0  0  0  0  0
    6.6116  -20.0674   21.8115 C   0  0  2  0  0  0  0  0  0  0  0  0
    5.2554  -19.8578   22.1914 N   0  0  0  0  0  0  0  0  0  0  0  0
    7.3742  -18.8070   21.5970 C   0  0  0  0  0  0  0  0  0  0  0  0
    8.5684  -18.8298   21.2054 O   0  0  0  0  0  0  0  0  0  0  0  0
    6.7959  -17.5231   21.8225 N   0  0  0  0  0  0  0  0  0  0  0  0
    7.4978  -16.2827   21.6625 C   0  0  1  0  0  0  0  0  0  0  0  0
    6.6673  -15.2149   21.0609 C   0  0  0  0  0  0  0  0  0  0  0  0
    7.5113  -14.0049   20.7708 C   0  0  0  0  0  0  0  0  0  0  0  0
    7.5852  -13.6709   19.3189 C   0  0  0  0  0  0  0  0  0  0  0  0
    8.4546  -12.4507   19.0553 C   0  0  0  0  0  0  0  0  0  0  0  0
    8.4177  -12.2456   17.6151 N   0  0  0  0  0  0  0  0  0  0  0  0
    8.0619  -15.9118   22.9950 C   0  0  0  0  0  0  0  0  0  0  0  0
    7.3329  -15.4164   23.8880 O   0  0  0  0  0  0  0  0  0  0  0  0
    9.4368  -16.1006   23.3125 N   0  0  0  0  0  0  0  0  0  0  0  0
   10.0511  -15.6982   24.5655 C   0  0  1  0  0  0  0  0  0  0  0  0
    9.2069  -15.9777   25.7380 C   0  0  0  0  0  0  0  0  0  0  0  0
    7.9811  -15.1711   25.7875 C   0  0  0  0  0  0  0  0  0  0  0  0
    6.6598  -15.6019   25.6025 C   0  0  0  0  0  0  0  0  0  0  0  0
    5.8217  -14.5586   25.6819 N   0  0  0  0  0  0  0  0  0  0  0  0
    6.5155  -13.4491   25.9122 C   0  0  0  0  0  0  0  0  0  0  0  0
    6.1133  -12.1219   26.0932 C   0  0  0  0  0  0  0  0  0  0  0  0
    7.0893  -11.1941   26.3420 C   0  0  0  0  0  0  0  0  0  0  0  0
    8.4240  -11.5012   26.4207 C   0  0  0  0  0  0  0  0  0  0  0  0
    8.8121  -12.8036   26.2414 C   0  0  0  0  0  0  0  0  0  0  0  0
    7.8615  -13.7922   25.9841 C   0  0  0  0  0  0  0  0  0  0  0  0
   11.4539  -16.0452   24.7130 C   0  0  0  0  0  0  0  0  0  0  0  0
   12.1053  -15.6531   25.9008 O   0  0  0  0  0  0  0  0  0  0  0  0
   12.1792  -16.6628   23.9061 O   0  0  0  0  0  0  0  0  0  0  0  0
  2  1  1  1
  3  2  1  0
  4  2  1  0
  4  5  1  6
  6  7  2  0
  6  4  1  0
  8  6  1  0
  9  8  1  0
  9 10  1  1
 11 10  1  0
 12 11  1  0
 13 12  1  0
 14 13  1  0
 15  9  1  0
 15 17  1  0
 16 15  2  0
 18 17  1  0
 18 29  1  0
 19 20  1  0
 18 19  1  1
 20 28  1  0
 21 20  2  0
 21 22  1  0
 22 23  1  0
 23 24  1  0
 24 25  2  0
 26 25  1  0
 27 26  2  0
 28 23  2  0
 28 27  1  0
 29 31  2  0
 29 30  1  0
M  END
$$$$
