TKW.pdb
     RDKit          3D

 31 32  0  0  1  0  0  0  0  0999 V2000
    4.5289  -18.2881   21.4869 C   0  0  0  0  0  0  0  0  0  0  0  0
    5.9031  -18.0523   22.0239 C   0  0  1  0  0  0  0  0  0  0  0  0
    6.0013  -18.5020   23.3405 O   0  0  0  0  0  0  0  0  0  0  0  0
    7.0161  -18.5456   21.1623 C   0  0  2  0  0  0  0  0  0  0  0  0
    6.8427  -19.9142   20.8091 N   0  0  0  0  0  0  0  0  0  0  0  0
    8.3698  -18.2329   21.6968 C   0  0  0  0  0  0  0  0  0  0  0  0
    9.1232  -19.1422   22.1277 O   0  0  0  0  0  0  0  0  0  0  0  0
    8.8760  -16.9007   21.7475 N   0  0  0  0  0  0  0  0  0  0  0  0
   10.2086  -16.5587   22.1526 C   0  0  1  0  0  0  0  0  0  0  0  0
   11.2160  -16.7744   21.0893 C   0  0  0  0  0  0  0  0  0  0  0  0
   12.5350  -16.1799   21.4983 C   0  0  0  0  0  0  0  0  0  0  0  0
   13.6649  -17.1519   21.4374 C   0  0  0  0  0  0  0  0  0  0  0  0
   14.7214  -16.7394   20.4235 C   0  0  0  0  0  0  0  0  0  0  0  0
   15.7437  -17.7736   20.4784 N   0  0  0  0  0  0  0  0  0  0  0  0
   10.1764  -15.1539   22.6593 C   0  0  0  0  0  0  0  0  0  0  0  0
   10.3502  -14.1845   21.8821 O   0  0  0  0  0  0  0  0  0  0  0  0
    9.9493  -14.8507   24.0316 N   0  0  0  0  0  0  0  0  0  0  0  0
   10.1478  -15.7894   25.1220 C   0  0  1  0  0  0  0  0  0  0  0  0
    8.9678  -16.6294   25.3822 C   0  0  0  0  0  0  0  0  0  0  0  0
    7.7177  -15.8686   25.5025 C   0  0  0  0  0  0  0  0  0  0  0  0
    6.4047  -16.3536   25.4228 C   0  0  0  0  0  0  0  0  0  0  0  0
    5.5338  -15.3411   25.5398 N   0  0  0  0  0  0  0  0  0  0  0  0
    6.1980  -14.2007   25.6949 C   0  0  0  0  0  0  0  0  0  0  0  0
    5.7576  -12.8856   25.8754 C   0  0  0  0  0  0  0  0  0  0  0  0
    6.7114  -11.9157   26.0326 C   0  0  0  0  0  0  0  0  0  0  0  0
    8.0595  -12.1701   26.0214 C   0  0  0  0  0  0  0  0  0  0  0  0
    8.4849  -13.4610   25.8430 C   0  0  0  0  0  0  0  0  0  0  0  0
    7.5581  -14.4908   25.6769 C   0  0  0  0  0  0  0  0  0  0  0  0
   11.4204  -16.4896   25.1193 C   0  0  0  0  0  0  0  0  0  0  0  0
   11.7756  -17.2094   26.2789 O   0  0  0  0  0  0  0  0  0  0  0  0
   12.2643  -16.5415   24.2007 O   0  0  0  0  0  0  0  0  0  0  0  0
  2  1  1  6
  3  2  1  0
  4  2  1  0
  4  5  1  1
  6  7  2  0
  6  4  1  0
  8  6  1  0
  9  8  1  0
  9 10  1  6
 11 10  1  0
 12 11  1  0
 13 12  1  0
 14 13  1  0
 15  9  1  0
 15 17  1  0
 16 15  2  0
 18 17  1  0
 18 29  1  0
 19 20  1  0
 18 19  1  6
 20 28  1  0
 21 20  2  0
 21 22  1  0
 22 23  1  0
 23 24  1  0
 24 25  2  0
 26 25  1  0
 27 26  2  0
 28 23  2  0
 28 27  1  0
 29 31  2  0
 29 30  1  0
M  END
$$$$
