TKW.pdb
     RDKit          3D

 31 32  0  0  1  0  0  0  0  0999 V2000
    7.8294  -12.2986   19.6393 C   0  0  0  0  0  0  0  0  0  0  0  0
    8.2529  -13.3563   20.6061 C   0  0  1  0  0  0  0  0  0  0  0  0
    8.0536  -12.9312   21.9195 O   0  0  0  0  0  0  0  0  0  0  0  0
    7.6926  -14.7143   20.3490 C   0  0  2  0  0  0  0  0  0  0  0  0
    6.2819  -14.6755   20.1588 N   0  0  0  0  0  0  0  0  0  0  0  0
    8.1353  -15.7399   21.3330 C   0  0  0  0  0  0  0  0  0  0  0  0
    7.3200  -16.2680   22.1309 O   0  0  0  0  0  0  0  0  0  0  0  0
    9.4917  -16.1712   21.4205 N   0  0  0  0  0  0  0  0  0  0  0  0
    9.9565  -17.1969   22.3086 C   0  0  1  0  0  0  0  0  0  0  0  0
   11.1418  -17.9208   21.7956 C   0  0  0  0  0  0  0  0  0  0  0  0
   10.8285  -18.5496   20.4664 C   0  0  0  0  0  0  0  0  0  0  0  0
   10.3740  -19.9661   20.5758 C   0  0  0  0  0  0  0  0  0  0  0  0
   10.0919  -20.5840   19.2146 C   0  0  0  0  0  0  0  0  0  0  0  0
    9.5147  -21.8915   19.4886 N   0  0  0  0  0  0  0  0  0  0  0  0
   10.1822  -16.5657   23.6434 C   0  0  0  0  0  0  0  0  0  0  0  0
   10.8625  -15.5173   23.7536 O   0  0  0  0  0  0  0  0  0  0  0  0
    9.6425  -17.1160   24.8404 N   0  0  0  0  0  0  0  0  0  0  0  0
    9.9495  -16.6333   26.1754 C   0  0  1  0  0  0  0  0  0  0  0  0
    8.7509  -16.4238   27.0030 C   0  0  0  0  0  0  0  0  0  0  0  0
    7.7043  -15.6387   26.3366 C   0  0  0  0  0  0  0  0  0  0  0  0
    6.6438  -16.1111   25.5505 C   0  0  0  0  0  0  0  0  0  0  0  0
    5.9253  -15.0806   25.0825 N   0  0  0  0  0  0  0  0  0  0  0  0
    6.4509  -13.9401   25.5166 C   0  0  0  0  0  0  0  0  0  0  0  0
    6.0675  -12.6084   25.3277 C   0  0  0  0  0  0  0  0  0  0  0  0
    6.8190  -11.6414   25.9404 C   0  0  0  0  0  0  0  0  0  0  0  0
    7.9147  -11.9139   26.7196 C   0  0  0  0  0  0  0  0  0  0  0  0
    8.2861  -13.2211   26.9002 C   0  0  0  0  0  0  0  0  0  0  0  0
    7.5582  -14.2489   26.2995 C   0  0  0  0  0  0  0  0  0  0  0  0
   11.0556  -17.2990   26.8410 C   0  0  0  0  0  0  0  0  0  0  0  0
   11.7009  -18.3468   26.1522 O   0  0  0  0  0  0  0  0  0  0  0  0
   11.5247  -17.0592   27.9729 O   0  0  0  0  0  0  0  0  0  0  0  0
  2  1  1  6
  3  2  1  0
  4  2  1  0
  4  5  1  1
  6  7  2  0
  6  4  1  0
  8  6  1  0
  9  8  1  0
  9 10  1  6
 11 10  1  0
 12 11  1  0
 13 12  1  0
 14 13  1  0
 15  9  1  0
 15 17  1  0
 16 15  2  0
 18 17  1  0
 18 29  1  0
 19 20  1  0
 18 19  1  1
 20 28  1  0
 21 20  2  0
 21 22  1  0
 22 23  1  0
 23 24  1  0
 24 25  2  0
 26 25  1  0
 27 26  2  0
 28 23  2  0
 28 27  1  0
 29 31  2  0
 29 30  1  0
M  END
$$$$
