TKW.pdb
     RDKit          3D

 31 32  0  0  1  0  0  0  0  0999 V2000
    5.8994  -20.7984   24.3109 C   0  0  0  0  0  0  0  0  0  0  0  0
    6.7708  -19.6672   23.8712 C   0  0  1  0  0  0  0  0  0  0  0  0
    7.9450  -19.6288   24.6231 O   0  0  0  0  0  0  0  0  0  0  0  0
    7.0244  -19.5929   22.4033 C   0  0  2  0  0  0  0  0  0  0  0  0
    7.4552  -20.8446   21.8786 N   0  0  0  0  0  0  0  0  0  0  0  0
    7.8870  -18.4478   22.0027 C   0  0  0  0  0  0  0  0  0  0  0  0
    9.0704  -18.6299   21.6196 O   0  0  0  0  0  0  0  0  0  0  0  0
    7.4211  -17.1004   22.0327 N   0  0  0  0  0  0  0  0  0  0  0  0
    8.2039  -15.9668   21.6339 C   0  0  1  0  0  0  0  0  0  0  0  0
    7.3846  -14.8298   21.1564 C   0  0  0  0  0  0  0  0  0  0  0  0
    8.2690  -13.7678   20.5644 C   0  0  0  0  0  0  0  0  0  0  0  0
    7.8247  -13.3144   19.2146 C   0  0  0  0  0  0  0  0  0  0  0  0
    8.7850  -12.3044   18.6047 C   0  0  0  0  0  0  0  0  0  0  0  0
    8.2203  -11.9581   17.3090 N   0  0  0  0  0  0  0  0  0  0  0  0
    9.0953  -15.6125   22.7789 C   0  0  0  0  0  0  0  0  0  0  0  0
    9.8523  -14.6137   22.7210 O   0  0  0  0  0  0  0  0  0  0  0  0
    9.1282  -16.3812   23.9768 N   0  0  0  0  0  0  0  0  0  0  0  0
    9.9799  -16.0872   25.1160 C   0  0  1  0  0  0  0  0  0  0  0  0
    9.2396  -16.0123   26.3856 C   0  0  0  0  0  0  0  0  0  0  0  0
    7.9512  -15.3167   26.2766 C   0  0  0  0  0  0  0  0  0  0  0  0
    6.6927  -15.8742   26.0097 C   0  0  0  0  0  0  0  0  0  0  0  0
    5.7665  -14.9070   25.9473 N   0  0  0  0  0  0  0  0  0  0  0  0
    6.3414  -13.7281   26.1601 C   0  0  0  0  0  0  0  0  0  0  0  0
    5.8148  -12.4337   26.2165 C   0  0  0  0  0  0  0  0  0  0  0  0
    6.6833  -11.4092   26.4839 C   0  0  0  0  0  0  0  0  0  0  0  0
    8.0265  -11.5907   26.6959 C   0  0  0  0  0  0  0  0  0  0  0  0
    8.5367  -12.8617   26.6384 C   0  0  0  0  0  0  0  0  0  0  0  0
    7.6993  -13.9447   26.3688 C   0  0  0  0  0  0  0  0  0  0  0  0
   11.2298  -16.8252   25.1681 C   0  0  0  0  0  0  0  0  0  0  0  0
   11.4590  -17.7983   24.1735 O   0  0  0  0  0  0  0  0  0  0  0  0
   12.1544  -16.7082   25.9989 O   0  0  0  0  0  0  0  0  0  0  0  0
  2  1  1  6
  3  2  1  0
  4  2  1  0
  4  5  1  1
  6  7  2  0
  6  4  1  0
  8  6  1  0
  9  8  1  0
  9 10  1  1
 11 10  1  0
 12 11  1  0
 13 12  1  0
 14 13  1  0
 15  9  1  0
 15 17  1  0
 16 15  2  0
 18 17  1  0
 18 29  1  0
 19 20  1  0
 18 19  1  1
 20 28  1  0
 21 20  2  0
 21 22  1  0
 22 23  1  0
 23 24  1  0
 24 25  2  0
 26 25  1  0
 27 26  2  0
 28 23  2  0
 28 27  1  0
 29 31  2  0
 29 30  1  0
M  END
$$$$
