TKW.pdb
     RDKit          3D

 31 32  0  0  1  0  0  0  0  0999 V2000
    9.2748  -13.1225   20.3095 C   0  0  0  0  0  0  0  0  0  0  0  0
    8.0731  -13.6302   19.5810 C   0  0  1  0  0  0  0  0  0  0  0  0
    7.8339  -12.8705   18.4360 O   0  0  0  0  0  0  0  0  0  0  0  0
    8.0657  -15.0970   19.3108 C   0  0  2  0  0  0  0  0  0  0  0  0
    6.9792  -15.4730   18.4707 N   0  0  0  0  0  0  0  0  0  0  0  0
    8.1898  -15.9315   20.5373 C   0  0  0  0  0  0  0  0  0  0  0  0
    7.2361  -16.0372   21.3494 O   0  0  0  0  0  0  0  0  0  0  0  0
    9.3835  -16.6458   20.8509 N   0  0  0  0  0  0  0  0  0  0  0  0
    9.5461  -17.4768   22.0085 C   0  0  1  0  0  0  0  0  0  0  0  0
   10.6370  -18.4678   21.8679 C   0  0  0  0  0  0  0  0  0  0  0  0
   10.6090  -19.4345   23.0190 C   0  0  0  0  0  0  0  0  0  0  0  0
   11.7291  -20.4192   22.9903 C   0  0  0  0  0  0  0  0  0  0  0  0
   11.6710  -21.3873   24.1624 C   0  0  0  0  0  0  0  0  0  0  0  0
   12.7972  -22.2910   23.9819 N   0  0  0  0  0  0  0  0  0  0  0  0
    9.7159  -16.5750   23.1872 C   0  0  0  0  0  0  0  0  0  0  0  0
    9.5857  -15.3325   23.0719 O   0  0  0  0  0  0  0  0  0  0  0  0
   10.0292  -17.0757   24.4826 N   0  0  0  0  0  0  0  0  0  0  0  0
    9.3591  -16.6649   25.7040 C   0  0  1  0  0  0  0  0  0  0  0  0
    7.8957  -16.5984   25.5648 C   0  0  0  0  0  0  0  0  0  0  0  0
    7.3867  -15.2409   25.3326 C   0  0  0  0  0  0  0  0  0  0  0  0
    6.6888  -14.7636   24.2142 C   0  0  0  0  0  0  0  0  0  0  0  0
    6.4324  -13.4555   24.3574 N   0  0  0  0  0  0  0  0  0  0  0  0
    6.9232  -13.0319   25.5172 C   0  0  0  0  0  0  0  0  0  0  0  0
    6.9019  -11.7762   26.1326 C   0  0  0  0  0  0  0  0  0  0  0  0
    7.4871  -11.6667   27.3657 C   0  0  0  0  0  0  0  0  0  0  0  0
    8.0849  -12.7161   28.0164 C   0  0  0  0  0  0  0  0  0  0  0  0
    8.1034  -13.9442   27.4077 C   0  0  0  0  0  0  0  0  0  0  0  0
    7.5231  -14.1153   26.1503 C   0  0  0  0  0  0  0  0  0  0  0  0
    9.8395  -17.2943   26.9217 C   0  0  0  0  0  0  0  0  0  0  0  0
    9.8133  -16.5324   28.1082 O   0  0  0  0  0  0  0  0  0  0  0  0
   10.2835  -18.4527   27.0616 O   0  0  0  0  0  0  0  0  0  0  0  0
  2  1  1  6
  3  2  1  0
  4  2  1  0
  4  5  1  1
  6  7  2  0
  6  4  1  0
  8  6  1  0
  9  8  1  0
  9 10  1  6
 11 10  1  0
 12 11  1  0
 13 12  1  0
 14 13  1  0
 15  9  1  0
 15 17  1  0
 16 15  2  0
 18 17  1  0
 18 29  1  0
 19 20  1  0
 18 19  1  6
 20 28  1  0
 21 20  2  0
 21 22  1  0
 22 23  1  0
 23 24  1  0
 24 25  2  0
 26 25  1  0
 27 26  2  0
 28 23  2  0
 28 27  1  0
 29 31  2  0
 29 30  1  0
M  END
$$$$
