SSG.pdb
     RDKit          3D

 17 16  0  0  1  0  0  0  0  0999 V2000
    8.4253  -19.9915   21.6679 O   0  0  0  0  0  0  0  0  0  0  0  0
    8.1126  -18.8476   20.9648 C   0  0  0  0  0  0  0  0  0  0  0  0
    9.3040  -17.9425   20.7663 C   0  0  2  0  0  0  0  0  0  0  0  0
   10.3346  -18.6132   20.0048 N   0  0  0  0  0  0  0  0  0  0  0  0
    9.8356  -17.4426   22.0701 C   0  0  0  0  0  0  0  0  0  0  0  0
   10.9502  -17.8170   22.5157 O   0  0  0  0  0  0  0  0  0  0  0  0
    7.6552  -14.6474   24.5154 O   0  0  0  0  0  0  0  0  0  0  0  0
    9.0298  -14.6602   24.4871 C   0  0  0  0  0  0  0  0  0  0  0  0
    9.5780  -16.0459   24.1496 C   0  0  2  0  0  0  0  0  0  0  0  0
    9.1065  -16.5129   22.8804 N   0  0  0  0  0  0  0  0  0  0  0  0
    9.2930  -16.9950   25.2541 C   0  0  0  0  0  0  0  0  0  0  0  0
    8.1819  -17.5784   25.3051 O   0  0  0  0  0  0  0  0  0  0  0  0
   10.2259  -17.2901   26.2828 N   0  0  0  0  0  0  0  0  0  0  0  0
    9.8770  -18.1970   27.3866 C   0  0  0  0  0  0  0  0  0  0  0  0
   11.0198  -18.3614   28.3074 C   0  0  0  0  0  0  0  0  0  0  0  0
   10.9127  -19.0657   29.4975 O   0  0  0  0  0  0  0  0  0  0  0  0
   12.1319  -17.8568   28.0252 O   0  0  0  0  0  0  0  0  0  0  0  0
  2  3  1  0
  2  1  1  0
  3  4  1  1
  5  6  2  0
  5  3  1  0
  7  8  1  0
  9  8  1  1
  9 11  1  0
  9 10  1  0
 10  5  1  0
 11 13  1  0
 12 11  2  0
 13 14  1  0
 14 15  1  0
 15 17  2  0
 15 16  1  0
M  END
$$$$
