SSG.pdb
     RDKit          3D

 17 16  0  0  1  0  0  0  0  0999 V2000
    7.5330  -19.0009   19.3334 O   0  0  0  0  0  0  0  0  0  0  0  0
    7.7383  -18.4745   18.0758 C   0  0  0  0  0  0  0  0  0  0  0  0
    7.5142  -16.9827   18.0256 C   0  0  2  0  0  0  0  0  0  0  0  0
    7.7754  -16.4708   16.6984 N   0  0  0  0  0  0  0  0  0  0  0  0
    8.3360  -16.2704   19.0501 C   0  0  0  0  0  0  0  0  0  0  0  0
    9.5653  -16.0649   18.8838 O   0  0  0  0  0  0  0  0  0  0  0  0
    6.7512  -15.1927   22.9081 O   0  0  0  0  0  0  0  0  0  0  0  0
    7.6902  -14.3971   22.2952 C   0  0  0  0  0  0  0  0  0  0  0  0
    8.5529  -15.1896   21.3143 C   0  0  2  0  0  0  0  0  0  0  0  0
    7.7697  -15.7846   20.2731 N   0  0  0  0  0  0  0  0  0  0  0  0
    9.3861  -16.1774   22.0436 C   0  0  0  0  0  0  0  0  0  0  0  0
    8.9003  -17.2916   22.3600 O   0  0  0  0  0  0  0  0  0  0  0  0
   10.7342  -15.9311   22.4144 N   0  0  0  0  0  0  0  0  0  0  0  0
   11.4795  -16.8877   23.2464 C   0  0  0  0  0  0  0  0  0  0  0  0
   12.8984  -16.4923   23.3517 C   0  0  0  0  0  0  0  0  0  0  0  0
   13.7830  -17.1385   24.2023 O   0  0  0  0  0  0  0  0  0  0  0  0
   13.3398  -15.5449   22.6597 O   0  0  0  0  0  0  0  0  0  0  0  0
  2  3  1  0
  2  1  1  0
  3  4  1  6
  5  6  2  0
  5  3  1  0
  7  8  1  0
  9  8  1  1
  9 11  1  0
  9 10  1  0
 10  5  1  0
 11 13  1  0
 12 11  2  0
 13 14  1  0
 14 15  1  0
 15 17  2  0
 15 16  1  0
M  END
$$$$
