SSG.pdb
     RDKit          3D

 17 16  0  0  1  0  0  0  0  0999 V2000
    8.4718  -16.1991   16.6024 O   0  0  0  0  0  0  0  0  0  0  0  0
    7.3536  -15.3967   16.6831 C   0  0  0  0  0  0  0  0  0  0  0  0
    7.6674  -14.0103   17.1908 C   0  0  2  0  0  0  0  0  0  0  0  0
    8.5164  -13.3039   16.2570 N   0  0  0  0  0  0  0  0  0  0  0  0
    8.2804  -14.0513   18.5528 C   0  0  0  0  0  0  0  0  0  0  0  0
    9.5270  -14.0755   18.7151 O   0  0  0  0  0  0  0  0  0  0  0  0
    7.5437  -14.0800   23.4031 O   0  0  0  0  0  0  0  0  0  0  0  0
    6.9881  -14.0366   22.1462 C   0  0  0  0  0  0  0  0  0  0  0  0
    8.0399  -14.2227   21.0536 C   0  0  2  0  0  0  0  0  0  0  0  0
    7.4835  -14.0652   19.7433 N   0  0  0  0  0  0  0  0  0  0  0  0
    8.7405  -15.5189   21.2294 C   0  0  0  0  0  0  0  0  0  0  0  0
    8.1829  -16.5843   20.8667 O   0  0  0  0  0  0  0  0  0  0  0  0
   10.0369  -15.6287   21.7976 N   0  0  0  0  0  0  0  0  0  0  0  0
   10.5776  -16.9331   22.2086 C   0  0  0  0  0  0  0  0  0  0  0  0
   11.9083  -16.7740   22.8288 C   0  0  0  0  0  0  0  0  0  0  0  0
   12.3253  -15.5724   23.3821 O   0  0  0  0  0  0  0  0  0  0  0  0
   12.7034  -17.7422   22.8677 O   0  0  0  0  0  0  0  0  0  0  0  0
  2  3  1  0
  2  1  1  0
  3  4  1  6
  5  6  2  0
  5  3  1  0
  7  8  1  0
  9  8  1  1
  9 11  1  0
  9 10  1  0
 10  5  1  0
 11 13  1  0
 12 11  2  0
 13 14  1  0
 14 15  1  0
 15 17  2  0
 15 16  1  0
M  END
$$$$
