SSG.pdb
     RDKit          3D

 17 16  0  0  1  0  0  0  0  0999 V2000
   10.9844  -20.1138   20.6366 O   0  0  0  0  0  0  0  0  0  0  0  0
    9.7464  -19.5233   20.7757 C   0  0  0  0  0  0  0  0  0  0  0  0
    9.7027  -18.1234   20.2133 C   0  0  2  0  0  0  0  0  0  0  0  0
   10.0782  -18.1216   18.8166 N   0  0  0  0  0  0  0  0  0  0  0  0
   10.5594  -17.1884   21.0035 C   0  0  0  0  0  0  0  0  0  0  0  0
   11.7103  -16.8616   20.6170 O   0  0  0  0  0  0  0  0  0  0  0  0
    9.3682  -15.8098   24.8638 O   0  0  0  0  0  0  0  0  0  0  0  0
   10.1183  -14.9778   24.0667 C   0  0  0  0  0  0  0  0  0  0  0  0
   10.9389  -15.7603   23.0426 C   0  0  2  0  0  0  0  0  0  0  0  0
   10.1171  -16.6159   22.2400 N   0  0  0  0  0  0  0  0  0  0  0  0
   12.0426  -16.4887   23.7158 C   0  0  0  0  0  0  0  0  0  0  0  0
   11.8031  -17.5602   24.3256 O   0  0  0  0  0  0  0  0  0  0  0  0
   13.3876  -16.0343   23.7110 N   0  0  0  0  0  0  0  0  0  0  0  0
   14.4603  -16.8314   24.3248 C   0  0  0  0  0  0  0  0  0  0  0  0
   15.7501  -16.1162   24.2490 C   0  0  0  0  0  0  0  0  0  0  0  0
   16.4949  -15.8166   25.3799 O   0  0  0  0  0  0  0  0  0  0  0  0
   16.2060  -15.7587   23.1374 O   0  0  0  0  0  0  0  0  0  0  0  0
  2  3  1  0
  2  1  1  0
  3  4  1  6
  5  6  2  0
  5  3  1  0
  7  8  1  0
  9  8  1  1
  9 11  1  0
  9 10  1  0
 10  5  1  0
 11 13  1  0
 12 11  2  0
 13 14  1  0
 14 15  1  0
 15 17  2  0
 15 16  1  0
M  END
$$$$
