SSG.pdb
     RDKit          3D

 17 16  0  0  1  0  0  0  0  0999 V2000
    8.3608  -19.0404   19.6459 O   0  0  0  0  0  0  0  0  0  0  0  0
    7.3526  -18.1193   19.4566 C   0  0  0  0  0  0  0  0  0  0  0  0
    7.8742  -16.7557   19.0737 C   0  0  2  0  0  0  0  0  0  0  0  0
    8.5467  -16.8063   17.7942 N   0  0  0  0  0  0  0  0  0  0  0  0
    8.7680  -16.1942   20.1311 C   0  0  0  0  0  0  0  0  0  0  0  0
   10.0121  -16.1121   19.9686 O   0  0  0  0  0  0  0  0  0  0  0  0
    7.2494  -14.9618   23.9459 O   0  0  0  0  0  0  0  0  0  0  0  0
    8.3216  -14.3069   23.3876 C   0  0  0  0  0  0  0  0  0  0  0  0
    9.0959  -15.2044   22.4234 C   0  0  2  0  0  0  0  0  0  0  0  0
    8.2575  -15.7205   21.3831 N   0  0  0  0  0  0  0  0  0  0  0  0
    9.8071  -16.2706   23.1714 C   0  0  0  0  0  0  0  0  0  0  0  0
    9.3127  -17.4232   23.2373 O   0  0  0  0  0  0  0  0  0  0  0  0
   11.0448  -16.0591   23.8338 N   0  0  0  0  0  0  0  0  0  0  0  0
   11.7520  -17.1674   24.4929 C   0  0  0  0  0  0  0  0  0  0  0  0
   11.7853  -16.9680   25.9558 C   0  0  0  0  0  0  0  0  0  0  0  0
   12.9636  -16.7018   26.6373 O   0  0  0  0  0  0  0  0  0  0  0  0
   10.7268  -17.0370   26.6237 O   0  0  0  0  0  0  0  0  0  0  0  0
  2  3  1  0
  2  1  1  0
  3  4  1  6
  5  6  2  0
  5  3  1  0
  7  8  1  0
  9  8  1  1
  9 11  1  0
  9 10  1  0
 10  5  1  0
 11 13  1  0
 12 11  2  0
 13 14  1  0
 14 15  1  0
 15 17  2  0
 15 16  1  0
M  END
$$$$
