SSG.pdb
     RDKit          3D

 17 16  0  0  1  0  0  0  0  0999 V2000
    9.2481  -17.5945   15.5497 O   0  0  0  0  0  0  0  0  0  0  0  0
    8.2636  -16.8459   14.9405 C   0  0  0  0  0  0  0  0  0  0  0  0
    8.6790  -15.4127   14.7131 C   0  0  2  0  0  0  0  0  0  0  0  0
    9.7234  -15.3352   13.7156 N   0  0  0  0  0  0  0  0  0  0  0  0
    9.0998  -14.7555   15.9872 C   0  0  0  0  0  0  0  0  0  0  0  0
   10.3126  -14.6070   16.2840 O   0  0  0  0  0  0  0  0  0  0  0  0
    6.2565  -13.6972   18.9726 O   0  0  0  0  0  0  0  0  0  0  0  0
    7.3610  -12.8935   18.8158 C   0  0  0  0  0  0  0  0  0  0  0  0
    8.5251  -13.6471   18.1741 C   0  0  2  0  0  0  0  0  0  0  0  0
    8.1475  -14.2606   16.9362 N   0  0  0  0  0  0  0  0  0  0  0  0
    9.1086  -14.6111   19.1396 C   0  0  0  0  0  0  0  0  0  0  0  0
    9.4808  -14.2135   20.2713 O   0  0  0  0  0  0  0  0  0  0  0  0
    9.2753  -15.9914   18.8522 N   0  0  0  0  0  0  0  0  0  0  0  0
    9.7734  -16.9247   19.8738 C   0  0  0  0  0  0  0  0  0  0  0  0
    9.9166  -18.2834   19.3133 C   0  0  0  0  0  0  0  0  0  0  0  0
   11.1571  -18.8646   19.0958 O   0  0  0  0  0  0  0  0  0  0  0  0
    8.8984  -18.9516   19.0171 O   0  0  0  0  0  0  0  0  0  0  0  0
  2  3  1  0
  2  1  1  0
  3  4  1  6
  5  6  2  0
  5  3  1  0
  7  8  1  0
  9  8  1  1
  9 11  1  0
  9 10  1  0
 10  5  1  0
 11 13  1  0
 12 11  2  0
 13 14  1  0
 14 15  1  0
 15 17  2  0
 15 16  1  0
M  END
$$$$
