FTE.pdb
     RDKit          3D

 28 28  0  0  1  0  0  0  0  0999 V2000
    5.7626  -17.5594   25.6107 N   0  0  0  0  0  0  0  0  0  0  0  0
    6.4260  -16.3279   25.2288 C   0  0  1  0  0  0  0  0  0  0  0  0
    7.1032  -15.7702   26.4736 C   0  0  0  0  0  0  0  0  0  0  0  0
    6.8037  -14.3314   26.5819 C   0  0  0  0  0  0  0  0  0  0  0  0
    7.8461  -13.4456   26.5698 C   0  0  0  0  0  0  0  0  0  0  0  0
    7.6201  -12.0989   26.6677 C   0  0  0  0  0  0  0  0  0  0  0  0
    6.3246  -11.6371   26.7796 C   0  0  0  0  0  0  0  0  0  0  0  0
    5.2755  -12.5140   26.7927 C   0  0  0  0  0  0  0  0  0  0  0  0
    5.5089  -13.8797   26.6931 C   0  0  0  0  0  0  0  0  0  0  0  0
    7.4856  -16.6123   24.2298 C   0  0  0  0  0  0  0  0  0  0  0  0
    8.1883  -17.6429   24.3637 O   0  0  0  0  0  0  0  0  0  0  0  0
    7.0893  -15.3848   20.5379 C   0  0  0  0  0  0  0  0  0  0  0  0
    8.5465  -15.2650   20.8793 C   0  0  1  0  0  0  0  0  0  0  0  0
    8.8064  -13.8992   21.0882 O   0  0  0  0  0  0  0  0  0  0  0  0
    8.7686  -16.0028   22.1941 C   0  0  2  0  0  0  0  0  0  0  0  0
    7.7081  -15.7384   23.1368 N   0  0  0  0  0  0  0  0  0  0  0  0
   10.0864  -15.6013   22.7363 C   0  0  0  0  0  0  0  0  0  0  0  0
   10.2352  -14.7380   23.6276 O   0  0  0  0  0  0  0  0  0  0  0  0
   11.2414  -16.2266   22.2200 N   0  0  0  0  0  0  0  0  0  0  0  0
   12.5745  -16.0144   22.7773 C   0  0  1  0  0  0  0  0  0  0  0  0
   12.4676  -16.4519   24.2175 C   0  0  0  0  0  0  0  0  0  0  0  0
   12.3548  -17.9286   24.3781 C   0  0  0  0  0  0  0  0  0  0  0  0
   12.4723  -18.2569   25.8335 C   0  0  0  0  0  0  0  0  0  0  0  0
   11.5018  -18.7102   26.4603 O   0  0  0  0  0  0  0  0  0  0  0  0
   13.6169  -16.6607   22.0019 C   0  0  0  0  0  0  0  0  0  0  0  0
   14.8217  -16.4717   22.2640 O   0  0  0  0  0  0  0  0  0  0  0  0
   13.6948  -18.0500   26.4983 O   0  0  0  0  0  0  0  0  0  0  0  0
   13.2956  -17.5030   20.9518 O   0  0  0  0  0  0  0  0  0  0  0  0
  2  1  1  1
  2  3  1  0
  3  4  1  0
  4  9  2  0
  5  6  2  0
  5  4  1  0
  6  7  1  0
  7  8  2  0
  9  8  1  0
 10  2  1  0
 10 16  1  0
 11 10  2  0
 13 15  1  0
 13 12  1  1
 14 13  1  0
 15 16  1  1
 17 15  1  0
 18 17  2  0
 19 17  1  0
 20 19  1  0
 20 25  1  0
 21 22  1  0
 20 21  1  1
 23 22  1  0
 24 23  2  0
 25 28  1  0
 26 25  2  0
 27 23  1  0
M  END
$$$$
