FTE.pdb
     RDKit          3D

 28 28  0  0  1  0  0  0  0  0999 V2000
    5.7555  -17.5694   25.4091 N   0  0  0  0  0  0  0  0  0  0  0  0
    6.3526  -16.3134   24.9982 C   0  0  1  0  0  0  0  0  0  0  0  0
    7.1074  -15.7540   26.1967 C   0  0  0  0  0  0  0  0  0  0  0  0
    6.7569  -14.3329   26.3670 C   0  0  0  0  0  0  0  0  0  0  0  0
    7.4013  -13.4052   25.5953 C   0  0  0  0  0  0  0  0  0  0  0  0
    7.1113  -12.0728   25.7159 C   0  0  0  0  0  0  0  0  0  0  0  0
    6.1576  -11.6681   26.6275 C   0  0  0  0  0  0  0  0  0  0  0  0
    5.5076  -12.5872   27.4036 C   0  0  0  0  0  0  0  0  0  0  0  0
    5.8047  -13.9383   27.2784 C   0  0  0  0  0  0  0  0  0  0  0  0
    7.3399  -16.5521   23.9166 C   0  0  0  0  0  0  0  0  0  0  0  0
    7.8389  -17.6960   23.7888 O   0  0  0  0  0  0  0  0  0  0  0  0
    8.8360  -15.6832   19.4771 C   0  0  0  0  0  0  0  0  0  0  0  0
    7.9859  -15.1987   20.6158 C   0  0  1  0  0  0  0  0  0  0  0  0
    6.7007  -15.7351   20.4235 O   0  0  0  0  0  0  0  0  0  0  0  0
    8.5642  -15.7852   21.8980 C   0  0  2  0  0  0  0  0  0  0  0  0
    7.7200  -15.5092   23.0358 N   0  0  0  0  0  0  0  0  0  0  0  0
    9.9254  -15.2351   22.0889 C   0  0  0  0  0  0  0  0  0  0  0  0
   10.1550  -14.1056   22.5720 O   0  0  0  0  0  0  0  0  0  0  0  0
   11.0278  -16.0281   21.7048 N   0  0  0  0  0  0  0  0  0  0  0  0
   12.1268  -16.3507   22.6108 C   0  0  1  0  0  0  0  0  0  0  0  0
   11.4591  -16.7730   23.8964 C   0  0  0  0  0  0  0  0  0  0  0  0
   12.4244  -17.1747   24.9576 C   0  0  0  0  0  0  0  0  0  0  0  0
   11.6571  -17.4731   26.2073 C   0  0  0  0  0  0  0  0  0  0  0  0
   10.5912  -18.1071   26.1593 O   0  0  0  0  0  0  0  0  0  0  0  0
   13.0587  -17.3082   22.0449 C   0  0  0  0  0  0  0  0  0  0  0  0
   12.6506  -18.3311   21.4591 O   0  0  0  0  0  0  0  0  0  0  0  0
   12.1483  -17.0309   27.4492 O   0  0  0  0  0  0  0  0  0  0  0  0
   14.4244  -17.1062   22.1432 O   0  0  0  0  0  0  0  0  0  0  0  0
  2  1  1  1
  2  3  1  0
  3  4  1  0
  4  9  2  0
  5  6  2  0
  5  4  1  0
  6  7  1  0
  7  8  2  0
  9  8  1  0
 10  2  1  0
 10 16  1  0
 11 10  2  0
 13 15  1  0
 13 12  1  6
 14 13  1  0
 15 16  1  1
 17 15  1  0
 18 17  2  0
 19 17  1  0
 20 19  1  0
 20 25  1  0
 21 22  1  0
 20 21  1  1
 23 22  1  0
 24 23  2  0
 25 28  1  0
 26 25  2  0
 27 23  1  0
M  END
$$$$
