FTE.pdb
     RDKit          3D

 28 28  0  0  1  0  0  0  0  0999 V2000
    9.3386  -17.2671   17.7758 N   0  0  0  0  0  0  0  0  0  0  0  0
    9.8567  -16.0537   18.3775 C   0  0  1  0  0  0  0  0  0  0  0  0
    9.0970  -15.8299   19.6783 C   0  0  0  0  0  0  0  0  0  0  0  0
    8.6915  -14.4157   19.7627 C   0  0  0  0  0  0  0  0  0  0  0  0
    7.7836  -13.9423   18.8554 C   0  0  0  0  0  0  0  0  0  0  0  0
    7.3749  -12.6362   18.8920 C   0  0  0  0  0  0  0  0  0  0  0  0
    7.8883  -11.7939   19.8569 C   0  0  0  0  0  0  0  0  0  0  0  0
    8.7962  -12.2570   20.7685 C   0  0  0  0  0  0  0  0  0  0  0  0
    9.2084  -13.5828   20.7281 C   0  0  0  0  0  0  0  0  0  0  0  0
   11.2899  -16.2298   18.7187 C   0  0  0  0  0  0  0  0  0  0  0  0
   11.6790  -17.3370   19.1625 O   0  0  0  0  0  0  0  0  0  0  0  0
   15.9102  -14.6305   18.6565 C   0  0  0  0  0  0  0  0  0  0  0  0
   14.5162  -14.4257   18.1378 C   0  0  1  0  0  0  0  0  0  0  0  0
   14.5088  -14.8635   16.8018 O   0  0  0  0  0  0  0  0  0  0  0  0
   13.5923  -15.3299   18.9448 C   0  0  2  0  0  0  0  0  0  0  0  0
   12.2136  -15.1687   18.5491 N   0  0  0  0  0  0  0  0  0  0  0  0
   13.7815  -15.0257   20.3812 C   0  0  0  0  0  0  0  0  0  0  0  0
   13.0131  -14.2941   21.0418 O   0  0  0  0  0  0  0  0  0  0  0  0
   14.8907  -15.5920   21.0450 N   0  0  0  0  0  0  0  0  0  0  0  0
   15.1429  -15.4030   22.4710 C   0  0  1  0  0  0  0  0  0  0  0  0
   13.9876  -16.0832   23.1633 C   0  0  0  0  0  0  0  0  0  0  0  0
   14.1098  -17.5676   23.1938 C   0  0  0  0  0  0  0  0  0  0  0  0
   13.0354  -18.1131   24.0813 C   0  0  0  0  0  0  0  0  0  0  0  0
   12.8688  -19.3378   24.1939 O   0  0  0  0  0  0  0  0  0  0  0  0
   16.4642  -15.8495   22.8717 C   0  0  0  0  0  0  0  0  0  0  0  0
   17.1206  -16.6331   22.1568 O   0  0  0  0  0  0  0  0  0  0  0  0
   12.2055  -17.2294   24.7952 O   0  0  0  0  0  0  0  0  0  0  0  0
   17.0259  -15.4140   24.0593 O   0  0  0  0  0  0  0  0  0  0  0  0
  2  1  1  1
  2  3  1  0
  3  4  1  0
  4  9  2  0
  5  6  2  0
  5  4  1  0
  6  7  1  0
  7  8  2  0
  9  8  1  0
 10  2  1  0
 10 16  1  0
 11 10  2  0
 13 15  1  0
 13 12  1  1
 14 13  1  0
 15 16  1  6
 17 15  1  0
 18 17  2  0
 19 17  1  0
 20 19  1  0
 20 25  1  0
 21 22  1  0
 20 21  1  1
 23 22  1  0
 24 23  2  0
 25 28  1  0
 26 25  2  0
 27 23  1  0
M  END
$$$$
