FTE.pdb
     RDKit          3D

 28 28  0  0  1  0  0  0  0  0999 V2000
    6.5990  -17.3767   26.4941 N   0  0  0  0  0  0  0  0  0  0  0  0
    6.1226  -16.6739   25.3186 C   0  0  1  0  0  0  0  0  0  0  0  0
    5.7937  -15.2486   25.7419 C   0  0  0  0  0  0  0  0  0  0  0  0
    6.9521  -14.6764   26.4505 C   0  0  0  0  0  0  0  0  0  0  0  0
    7.1304  -13.3204   26.4206 C   0  0  0  0  0  0  0  0  0  0  0  0
    8.1909  -12.7405   27.0632 C   0  0  0  0  0  0  0  0  0  0  0  0
    9.0859  -13.5382   27.7465 C   0  0  0  0  0  0  0  0  0  0  0  0
    8.9169  -14.8946   27.7827 C   0  0  0  0  0  0  0  0  0  0  0  0
    7.8396  -15.4793   27.1294 C   0  0  0  0  0  0  0  0  0  0  0  0
    7.1994  -16.6032   24.3000 C   0  0  0  0  0  0  0  0  0  0  0  0
    8.2183  -17.3217   24.4397 O   0  0  0  0  0  0  0  0  0  0  0  0
    7.7740  -13.5152   21.4405 C   0  0  0  0  0  0  0  0  0  0  0  0
    7.6256  -14.9201   20.9323 C   0  0  1  0  0  0  0  0  0  0  0  0
    8.5631  -15.0815   19.8971 O   0  0  0  0  0  0  0  0  0  0  0  0
    8.0020  -15.8592   22.0720 C   0  0  2  0  0  0  0  0  0  0  0  0
    7.0875  -15.7395   23.1822 N   0  0  0  0  0  0  0  0  0  0  0  0
    9.3925  -15.5593   22.4823 C   0  0  0  0  0  0  0  0  0  0  0  0
    9.7200  -14.5409   23.1285 O   0  0  0  0  0  0  0  0  0  0  0  0
   10.4075  -16.4725   22.1254 N   0  0  0  0  0  0  0  0  0  0  0  0
   11.8207  -16.2384   22.4097 C   0  0  1  0  0  0  0  0  0  0  0  0
   12.2862  -17.4863   23.1189 C   0  0  0  0  0  0  0  0  0  0  0  0
   11.6781  -17.6593   24.4678 C   0  0  0  0  0  0  0  0  0  0  0  0
   12.2106  -18.9221   25.0689 C   0  0  0  0  0  0  0  0  0  0  0  0
   11.5935  -19.9917   24.9440 O   0  0  0  0  0  0  0  0  0  0  0  0
   12.5779  -15.8701   21.2279 C   0  0  0  0  0  0  0  0  0  0  0  0
   12.1290  -16.0885   20.0848 O   0  0  0  0  0  0  0  0  0  0  0  0
   13.4227  -18.8974   25.7826 O   0  0  0  0  0  0  0  0  0  0  0  0
   13.8181  -15.2667   21.3443 O   0  0  0  0  0  0  0  0  0  0  0  0
  2  1  1  1
  2  3  1  0
  3  4  1  0
  4  9  2  0
  5  6  2  0
  5  4  1  0
  6  7  1  0
  7  8  2  0
  9  8  1  0
 10  2  1  0
 10 16  1  0
 11 10  2  0
 13 15  1  0
 13 12  1  1
 14 13  1  0
 15 16  1  1
 17 15  1  0
 18 17  2  0
 19 17  1  0
 20 19  1  0
 20 25  1  0
 21 22  1  0
 20 21  1  6
 23 22  1  0
 24 23  2  0
 25 28  1  0
 26 25  2  0
 27 23  1  0
M  END
$$$$
