FTE.pdb
     RDKit          3D

 28 28  0  0  1  0  0  0  0  0999 V2000
    6.0407  -17.4562   25.9701 N   0  0  0  0  0  0  0  0  0  0  0  0
    6.6602  -16.2463   25.4649 C   0  0  1  0  0  0  0  0  0  0  0  0
    7.3444  -15.5601   26.6397 C   0  0  0  0  0  0  0  0  0  0  0  0
    6.9774  -14.1329   26.6449 C   0  0  0  0  0  0  0  0  0  0  0  0
    7.9413  -13.2105   26.3424 C   0  0  0  0  0  0  0  0  0  0  0  0
    7.6505  -11.8728   26.3337 C   0  0  0  0  0  0  0  0  0  0  0  0
    6.3693  -11.4574   26.6343 C   0  0  0  0  0  0  0  0  0  0  0  0
    5.3984  -12.3712   26.9380 C   0  0  0  0  0  0  0  0  0  0  0  0
    5.6975  -13.7276   26.9457 C   0  0  0  0  0  0  0  0  0  0  0  0
    7.7084  -16.5906   24.4727 C   0  0  0  0  0  0  0  0  0  0  0  0
    8.4897  -17.5413   24.7169 O   0  0  0  0  0  0  0  0  0  0  0  0
    7.1583  -15.6805   20.6126 C   0  0  0  0  0  0  0  0  0  0  0  0
    8.6097  -15.5195   20.9611 C   0  0  1  0  0  0  0  0  0  0  0  0
    8.8369  -14.1438   21.1408 O   0  0  0  0  0  0  0  0  0  0  0  0
    8.8391  -16.2224   22.2938 C   0  0  2  0  0  0  0  0  0  0  0  0
    7.8330  -15.8618   23.2639 N   0  0  0  0  0  0  0  0  0  0  0  0
   10.1980  -15.8814   22.7720 C   0  0  0  0  0  0  0  0  0  0  0  0
   10.4939  -14.7858   23.2955 O   0  0  0  0  0  0  0  0  0  0  0  0
   11.2190  -16.8453   22.6305 N   0  0  0  0  0  0  0  0  0  0  0  0
   12.5895  -16.6212   23.0824 C   0  0  1  0  0  0  0  0  0  0  0  0
   12.9835  -17.9012   23.7776 C   0  0  0  0  0  0  0  0  0  0  0  0
   12.1958  -18.1672   25.0137 C   0  0  0  0  0  0  0  0  0  0  0  0
   12.7456  -19.3943   25.6707 C   0  0  0  0  0  0  0  0  0  0  0  0
   12.6276  -20.5067   25.1331 O   0  0  0  0  0  0  0  0  0  0  0  0
   13.4708  -16.1926   22.0123 C   0  0  0  0  0  0  0  0  0  0  0  0
   14.5061  -15.5409   22.2563 O   0  0  0  0  0  0  0  0  0  0  0  0
   13.4027  -19.2866   26.9099 O   0  0  0  0  0  0  0  0  0  0  0  0
   13.1806  -16.4986   20.6941 O   0  0  0  0  0  0  0  0  0  0  0  0
  2  1  1  1
  2  3  1  0
  3  4  1  0
  4  9  2  0
  5  6  2  0
  5  4  1  0
  6  7  1  0
  7  8  2  0
  9  8  1  0
 10  2  1  0
 10 16  1  0
 11 10  2  0
 13 15  1  0
 13 12  1  1
 14 13  1  0
 15 16  1  1
 17 15  1  0
 18 17  2  0
 19 17  1  0
 20 19  1  0
 20 25  1  0
 21 22  1  0
 20 21  1  6
 23 22  1  0
 24 23  2  0
 25 28  1  0
 26 25  2  0
 27 23  1  0
M  END
$$$$
