FTE.pdb
     RDKit          3D

 28 28  0  0  1  0  0  0  0  0999 V2000
    6.5501  -16.1764   25.9211 N   0  0  0  0  0  0  0  0  0  0  0  0
    6.9651  -15.2350   24.8992 C   0  0  1  0  0  0  0  0  0  0  0  0
    7.9737  -14.2875   25.5349 C   0  0  0  0  0  0  0  0  0  0  0  0
    7.2541  -13.2959   26.3537 C   0  0  0  0  0  0  0  0  0  0  0  0
    6.1283  -12.7163   25.8360 C   0  0  0  0  0  0  0  0  0  0  0  0
    5.4246  -11.7895   26.5571 C   0  0  0  0  0  0  0  0  0  0  0  0
    5.8611  -11.4410   27.8189 C   0  0  0  0  0  0  0  0  0  0  0  0
    6.9851  -12.0144   28.3457 C   0  0  0  0  0  0  0  0  0  0  0  0
    7.6964  -12.9543   27.6109 C   0  0  0  0  0  0  0  0  0  0  0  0
    7.6547  -15.9534   23.7991 C   0  0  0  0  0  0  0  0  0  0  0  0
    8.0573  -17.1253   23.9950 O   0  0  0  0  0  0  0  0  0  0  0  0
    6.7601  -14.8977   20.1587 C   0  0  0  0  0  0  0  0  0  0  0  0
    8.1682  -15.4162   20.1084 C   0  0  1  0  0  0  0  0  0  0  0  0
    9.0100  -14.2998   19.9623 O   0  0  0  0  0  0  0  0  0  0  0  0
    8.4626  -16.0669   21.4547 C   0  0  2  0  0  0  0  0  0  0  0  0
    7.8602  -15.3330   22.5418 N   0  0  0  0  0  0  0  0  0  0  0  0
    9.9313  -16.1615   21.6147 C   0  0  0  0  0  0  0  0  0  0  0  0
   10.6018  -15.3870   22.3307 O   0  0  0  0  0  0  0  0  0  0  0  0
   10.6159  -17.1824   20.9213 N   0  0  0  0  0  0  0  0  0  0  0  0
   12.0729  -17.2647   20.8669 C   0  0  1  0  0  0  0  0  0  0  0  0
   12.5018  -16.0487   20.0831 C   0  0  0  0  0  0  0  0  0  0  0  0
   13.9794  -15.8638   20.0435 C   0  0  0  0  0  0  0  0  0  0  0  0
   14.3108  -14.9394   18.9142 C   0  0  0  0  0  0  0  0  0  0  0  0
   15.3979  -14.3412   18.8843 O   0  0  0  0  0  0  0  0  0  0  0  0
   12.6768  -17.4098   22.1784 C   0  0  0  0  0  0  0  0  0  0  0  0
   13.8440  -17.8315   22.3039 O   0  0  0  0  0  0  0  0  0  0  0  0
   13.3815  -14.7461   17.8759 O   0  0  0  0  0  0  0  0  0  0  0  0
   11.9683  -17.0823   23.3213 O   0  0  0  0  0  0  0  0  0  0  0  0
  2  1  1  1
  2  3  1  0
  3  4  1  0
  4  9  2  0
  5  6  2  0
  5  4  1  0
  6  7  1  0
  7  8  2  0
  9  8  1  0
 10  2  1  0
 10 16  1  0
 11 10  2  0
 13 15  1  0
 13 12  1  1
 14 13  1  0
 15 16  1  1
 17 15  1  0
 18 17  2  0
 19 17  1  0
 20 19  1  0
 20 25  1  0
 21 22  1  0
 20 21  1  1
 23 22  1  0
 24 23  2  0
 25 28  1  0
 26 25  2  0
 27 23  1  0
M  END
$$$$
