FTE.pdb
     RDKit          3D

 28 28  0  0  1  0  0  0  0  0999 V2000
    6.5350  -17.2032   25.9020 N   0  0  0  0  0  0  0  0  0  0  0  0
    7.0258  -16.0871   25.1170 C   0  0  1  0  0  0  0  0  0  0  0  0
    8.0398  -15.3393   25.9724 C   0  0  0  0  0  0  0  0  0  0  0  0
    7.4471  -14.0670   26.4214 C   0  0  0  0  0  0  0  0  0  0  0  0
    6.2624  -13.6677   25.8661 C   0  0  0  0  0  0  0  0  0  0  0  0
    5.6713  -12.4939   26.2495 C   0  0  0  0  0  0  0  0  0  0  0  0
    6.2825  -11.7102   27.2068 C   0  0  0  0  0  0  0  0  0  0  0  0
    7.4668  -12.1002   27.7681 C   0  0  0  0  0  0  0  0  0  0  0  0
    8.0634  -13.2918   27.3764 C   0  0  0  0  0  0  0  0  0  0  0  0
    7.7350  -16.5876   23.9136 C   0  0  0  0  0  0  0  0  0  0  0  0
    7.9613  -17.8170   23.8071 O   0  0  0  0  0  0  0  0  0  0  0  0
    5.9433  -15.7982   21.1453 C   0  0  0  0  0  0  0  0  0  0  0  0
    7.3126  -15.5215   20.5953 C   0  0  1  0  0  0  0  0  0  0  0  0
    7.4953  -14.1281   20.6353 O   0  0  0  0  0  0  0  0  0  0  0  0
    8.3214  -16.1655   21.5388 C   0  0  2  0  0  0  0  0  0  0  0  0
    8.1545  -15.6976   22.8939 N   0  0  0  0  0  0  0  0  0  0  0  0
    9.6822  -15.8784   21.0315 C   0  0  0  0  0  0  0  0  0  0  0  0
   10.1432  -14.7244   20.8984 O   0  0  0  0  0  0  0  0  0  0  0  0
   10.5081  -16.9667   20.6774 N   0  0  0  0  0  0  0  0  0  0  0  0
   11.9610  -16.9397   20.8222 C   0  0  1  0  0  0  0  0  0  0  0  0
   12.2029  -16.4118   22.2149 C   0  0  0  0  0  0  0  0  0  0  0  0
   13.6387  -16.4310   22.6115 C   0  0  0  0  0  0  0  0  0  0  0  0
   13.7497  -15.9190   24.0133 C   0  0  0  0  0  0  0  0  0  0  0  0
   14.3457  -14.8574   24.2539 O   0  0  0  0  0  0  0  0  0  0  0  0
   12.5794  -18.2173   20.5202 C   0  0  0  0  0  0  0  0  0  0  0  0
   12.1009  -19.2815   20.9612 O   0  0  0  0  0  0  0  0  0  0  0  0
   13.1728  -16.6479   25.0694 O   0  0  0  0  0  0  0  0  0  0  0  0
   13.7166  -18.2823   19.7341 O   0  0  0  0  0  0  0  0  0  0  0  0
  2  1  1  1
  2  3  1  0
  3  4  1  0
  4  9  2  0
  5  6  2  0
  5  4  1  0
  6  7  1  0
  7  8  2  0
  9  8  1  0
 10  2  1  0
 10 16  1  0
 11 10  2  0
 13 15  1  0
 13 12  1  1
 14 13  1  0
 15 16  1  1
 17 15  1  0
 18 17  2  0
 19 17  1  0
 20 19  1  0
 20 25  1  0
 21 22  1  0
 20 21  1  1
 23 22  1  0
 24 23  2  0
 25 28  1  0
 26 25  2  0
 27 23  1  0
M  END
$$$$
