FTE.pdb
     RDKit          3D

 28 28  0  0  1  0  0  0  0  0999 V2000
    6.0173  -17.0064   25.9201 N   0  0  0  0  0  0  0  0  0  0  0  0
    6.6137  -15.9191   25.1686 C   0  0  1  0  0  0  0  0  0  0  0  0
    7.6789  -15.2846   26.0529 C   0  0  0  0  0  0  0  0  0  0  0  0
    7.2529  -13.9223   26.4192 C   0  0  0  0  0  0  0  0  0  0  0  0
    6.0038  -13.5073   26.0465 C   0  0  0  0  0  0  0  0  0  0  0  0
    5.5613  -12.2510   26.3628 C   0  0  0  0  0  0  0  0  0  0  0  0
    6.3894  -11.3994   27.0651 C   0  0  0  0  0  0  0  0  0  0  0  0
    7.6398  -11.8042   27.4424 C   0  0  0  0  0  0  0  0  0  0  0  0
    8.0851  -13.0797   27.1196 C   0  0  0  0  0  0  0  0  0  0  0  0
    7.2910  -16.4506   23.9601 C   0  0  0  0  0  0  0  0  0  0  0  0
    7.7181  -17.6302   23.9703 O   0  0  0  0  0  0  0  0  0  0  0  0
    6.4397  -15.2295   20.3517 C   0  0  0  0  0  0  0  0  0  0  0  0
    7.9334  -15.3668   20.4147 C   0  0  1  0  0  0  0  0  0  0  0  0
    8.4604  -14.0661   20.4987 O   0  0  0  0  0  0  0  0  0  0  0  0
    8.2691  -16.1053   21.7049 C   0  0  2  0  0  0  0  0  0  0  0  0
    7.4577  -15.6451   22.8063 N   0  0  0  0  0  0  0  0  0  0  0  0
    9.7117  -15.9237   21.9834 C   0  0  0  0  0  0  0  0  0  0  0  0
   10.1593  -15.1054   22.8154 O   0  0  0  0  0  0  0  0  0  0  0  0
   10.6361  -16.7174   21.2713 N   0  0  0  0  0  0  0  0  0  0  0  0
   11.9446  -17.0838   21.8065 C   0  0  1  0  0  0  0  0  0  0  0  0
   11.6480  -17.8005   23.1009 C   0  0  0  0  0  0  0  0  0  0  0  0
   12.8705  -18.2912   23.7964 C   0  0  0  0  0  0  0  0  0  0  0  0
   12.4728  -18.8131   25.1414 C   0  0  0  0  0  0  0  0  0  0  0  0
   13.2092  -19.5988   25.7585 O   0  0  0  0  0  0  0  0  0  0  0  0
   12.7549  -17.8201   20.8542 C   0  0  0  0  0  0  0  0  0  0  0  0
   13.9974  -17.7105   20.8495 O   0  0  0  0  0  0  0  0  0  0  0  0
   11.2521  -18.4096   25.7127 O   0  0  0  0  0  0  0  0  0  0  0  0
   12.1645  -18.6620   19.9278 O   0  0  0  0  0  0  0  0  0  0  0  0
  2  1  1  1
  2  3  1  0
  3  4  1  0
  4  9  2  0
  5  6  2  0
  5  4  1  0
  6  7  1  0
  7  8  2  0
  9  8  1  0
 10  2  1  0
 10 16  1  0
 11 10  2  0
 13 15  1  0
 13 12  1  1
 14 13  1  0
 15 16  1  1
 17 15  1  0
 18 17  2  0
 19 17  1  0
 20 19  1  0
 20 25  1  0
 21 22  1  0
 20 21  1  1
 23 22  1  0
 24 23  2  0
 25 28  1  0
 26 25  2  0
 27 23  1  0
M  END
$$$$
