YCF.pdb
     RDKit          3D

 30 31  0  0  1  0  0  0  0  0999 V2000
    5.2484  -26.0254   11.4413 O   0  0  0  0  0  0  0  0  0  0  0  0
    5.5859  -26.1327   12.8006 C   0  0  0  0  0  0  0  0  0  0  0  0
    6.7392  -26.7804   13.1931 C   0  0  0  0  0  0  0  0  0  0  0  0
    7.0540  -26.8742   14.5563 C   0  0  0  0  0  0  0  0  0  0  0  0
    6.2246  -26.3268   15.5078 C   0  0  0  0  0  0  0  0  0  0  0  0
    6.6048  -26.4548   16.9297 C   0  0  0  0  0  0  0  0  0  0  0  0
    6.0239  -27.7474   17.4355 C   0  0  2  0  0  0  0  0  0  0  0  0
    4.5947  -27.6518   17.3712 N   0  0  0  0  0  0  0  0  0  0  0  0
    6.5272  -28.1278   18.7705 C   0  0  0  0  0  0  0  0  0  0  0  0
    5.7340  -28.1449   19.7400 O   0  0  0  0  0  0  0  0  0  0  0  0
    5.0814  -25.6860   15.0994 C   0  0  0  0  0  0  0  0  0  0  0  0
    4.7494  -25.5817   13.7445 C   0  0  0  0  0  0  0  0  0  0  0  0
    7.8908  -28.4842   19.0274 N   0  0  0  0  0  0  0  0  0  0  0  0
    8.4188  -28.9553   20.2573 C   0  0  1  0  0  0  0  0  0  0  0  0
    7.8328  -30.2162   20.8023 C   0  0  0  0  0  0  0  0  0  0  0  0
    7.5608  -31.5201   19.6166 S   0  0  0  0  0  0  0  0  0  0  0  0
    9.9090  -28.9368   20.3567 C   0  0  0  0  0  0  0  0  0  0  0  0
   10.4868  -29.4776   19.3658 O   0  0  0  0  0  0  0  0  0  0  0  0
   10.6577  -28.4029   21.3957 N   0  0  0  0  0  0  0  0  0  0  0  0
   11.8273  -27.5505   21.2502 C   0  0  1  0  0  0  0  0  0  0  0  0
   12.0690  -27.1475   19.8489 C   0  0  0  0  0  0  0  0  0  0  0  0
   13.3574  -26.4657   19.6802 C   0  0  0  0  0  0  0  0  0  0  0  0
   14.1666  -26.2189   20.7818 C   0  0  0  0  0  0  0  0  0  0  0  0
   15.3806  -25.6061   20.5975 C   0  0  0  0  0  0  0  0  0  0  0  0
   15.8582  -25.2115   19.3614 C   0  0  0  0  0  0  0  0  0  0  0  0
   15.0318  -25.4699   18.2839 C   0  0  0  0  0  0  0  0  0  0  0  0
   13.8081  -26.0819   18.4269 C   0  0  0  0  0  0  0  0  0  0  0  0
   11.9235  -26.4913   22.2771 C   0  0  0  0  0  0  0  0  0  0  0  0
   10.8940  -25.5393   22.4224 O   0  0  0  0  0  0  0  0  0  0  0  0
   12.8720  -26.3273   23.0827 O   0  0  0  0  0  0  0  0  0  0  0  0
  1  2  1  0
  2 12  2  0
  3  4  2  0
  3  2  1  0
  4  5  1  0
  5  6  1  0
  5 11  2  0
  6  7  1  0
  7  9  1  0
  7  8  1  1
  9 13  1  0
 10  9  2  0
 12 11  1  0
 13 14  1  0
 14 17  1  0
 14 15  1  6
 15 16  1  0
 17 19  1  0
 18 17  2  0
 19 20  1  0
 20 28  1  0
 20 21  1  6
 22 21  1  0
 23 22  2  0
 24 23  1  0
 25 26  1  0
 25 24  2  0
 26 27  2  0
 27 22  1  0
 28 30  2  0
 28 29  1  0
M  END
$$$$
