YCF.pdb
     RDKit          3D

 30 31  0  0  1  0  0  0  0  0999 V2000
    8.3864  -12.3863   16.6465 O   0  0  0  0  0  0  0  0  0  0  0  0
    7.9870  -13.0974   17.7901 C   0  0  0  0  0  0  0  0  0  0  0  0
    8.3691  -12.6824   19.0492 C   0  0  0  0  0  0  0  0  0  0  0  0
    7.9574  -13.4095   20.1753 C   0  0  0  0  0  0  0  0  0  0  0  0
    7.1758  -14.5334   20.0383 C   0  0  0  0  0  0  0  0  0  0  0  0
    6.7707  -15.2613   21.2584 C   0  0  0  0  0  0  0  0  0  0  0  0
    7.6927  -16.4413   21.4045 C   0  0  2  0  0  0  0  0  0  0  0  0
    7.3208  -17.4240   20.4288 N   0  0  0  0  0  0  0  0  0  0  0  0
    7.7442  -16.9718   22.7815 C   0  0  0  0  0  0  0  0  0  0  0  0
    7.0417  -17.9653   23.0799 O   0  0  0  0  0  0  0  0  0  0  0  0
    6.8049  -14.9318   18.7781 C   0  0  0  0  0  0  0  0  0  0  0  0
    7.2051  -14.2203   17.6421 C   0  0  0  0  0  0  0  0  0  0  0  0
    8.5630  -16.4089   23.8136 N   0  0  0  0  0  0  0  0  0  0  0  0
    9.3054  -17.1300   24.7843 C   0  0  1  0  0  0  0  0  0  0  0  0
   10.1396  -18.2645   24.2871 C   0  0  0  0  0  0  0  0  0  0  0  0
   10.8433  -19.3174   25.5426 S   0  0  0  0  0  0  0  0  0  0  0  0
   10.0340  -16.2881   25.7801 C   0  0  0  0  0  0  0  0  0  0  0  0
   11.2854  -16.2409   25.5803 O   0  0  0  0  0  0  0  0  0  0  0  0
    9.4700  -15.5984   26.8437 N   0  0  0  0  0  0  0  0  0  0  0  0
   10.1936  -15.0462   27.9783 C   0  0  1  0  0  0  0  0  0  0  0  0
    9.4973  -13.8976   28.5950 C   0  0  0  0  0  0  0  0  0  0  0  0
    8.5429  -13.2665   27.6762 C   0  0  0  0  0  0  0  0  0  0  0  0
    7.1792  -13.4807   27.8303 C   0  0  0  0  0  0  0  0  0  0  0  0
    6.3026  -12.8574   26.9780 C   0  0  0  0  0  0  0  0  0  0  0  0
    6.6985  -12.0139   25.9564 C   0  0  0  0  0  0  0  0  0  0  0  0
    8.0610  -11.8196   25.8272 C   0  0  0  0  0  0  0  0  0  0  0  0
    8.9717  -12.4259   26.6611 C   0  0  0  0  0  0  0  0  0  0  0  0
   10.7347  -16.0716   28.8955 C   0  0  0  0  0  0  0  0  0  0  0  0
   11.5843  -15.7044   29.9588 O   0  0  0  0  0  0  0  0  0  0  0  0
   10.5161  -17.3061   28.8351 O   0  0  0  0  0  0  0  0  0  0  0  0
  1  2  1  0
  2 12  2  0
  3  4  2  0
  3  2  1  0
  4  5  1  0
  5  6  1  0
  5 11  2  0
  6  7  1  0
  7  9  1  0
  7  8  1  6
  9 13  1  0
 10  9  2  0
 12 11  1  0
 13 14  1  0
 14 17  1  0
 14 15  1  6
 15 16  1  0
 17 19  1  0
 18 17  2  0
 19 20  1  0
 20 28  1  0
 20 21  1  1
 22 21  1  0
 23 22  2  0
 24 23  1  0
 25 26  1  0
 25 24  2  0
 26 27  2  0
 27 22  1  0
 28 30  2  0
 28 29  1  0
M  END
$$$$
