YCF.pdb
     RDKit          3D

 30 31  0  0  1  0  0  0  0  0999 V2000
    8.4782  -12.5599   16.6640 O   0  0  0  0  0  0  0  0  0  0  0  0
    8.2297  -13.1287   17.9241 C   0  0  0  0  0  0  0  0  0  0  0  0
    7.0166  -12.9451   18.5551 C   0  0  0  0  0  0  0  0  0  0  0  0
    6.7930  -13.5234   19.8129 C   0  0  0  0  0  0  0  0  0  0  0  0
    7.7711  -14.2725   20.4253 C   0  0  0  0  0  0  0  0  0  0  0  0
    7.4819  -14.8585   21.7503 C   0  0  0  0  0  0  0  0  0  0  0  0
    7.5058  -16.3549   21.5947 C   0  0  2  0  0  0  0  0  0  0  0  0
    6.2672  -16.7631   20.9987 N   0  0  0  0  0  0  0  0  0  0  0  0
    7.8144  -17.0652   22.8518 C   0  0  0  0  0  0  0  0  0  0  0  0
    6.8930  -17.2829   23.6723 O   0  0  0  0  0  0  0  0  0  0  0  0
    8.9720  -14.4447   19.7830 C   0  0  0  0  0  0  0  0  0  0  0  0
    9.2148  -13.8763   18.5281 C   0  0  0  0  0  0  0  0  0  0  0  0
    9.1262  -17.5277   23.1950 N   0  0  0  0  0  0  0  0  0  0  0  0
    9.5142  -18.1165   24.4263 C   0  0  1  0  0  0  0  0  0  0  0  0
   10.0745  -19.4994   24.3640 C   0  0  0  0  0  0  0  0  0  0  0  0
   10.1632  -20.2271   22.7384 S   0  0  0  0  0  0  0  0  0  0  0  0
   10.3019  -17.2291   25.3336 C   0  0  0  0  0  0  0  0  0  0  0  0
   11.3593  -16.7749   24.8008 O   0  0  0  0  0  0  0  0  0  0  0  0
    9.9767  -16.8903   26.6392 N   0  0  0  0  0  0  0  0  0  0  0  0
   10.7564  -16.0278   27.5131 C   0  0  1  0  0  0  0  0  0  0  0  0
   10.7612  -14.6185   27.0678 C   0  0  0  0  0  0  0  0  0  0  0  0
    9.4158  -14.0327   27.0597 C   0  0  0  0  0  0  0  0  0  0  0  0
    8.5370  -14.3159   26.0219 C   0  0  0  0  0  0  0  0  0  0  0  0
    7.2735  -13.7809   26.0492 C   0  0  0  0  0  0  0  0  0  0  0  0
    6.8113  -12.9625   27.0632 C   0  0  0  0  0  0  0  0  0  0  0  0
    7.7074  -12.6982   28.0820 C   0  0  0  0  0  0  0  0  0  0  0  0
    8.9821  -13.2151   28.0915 C   0  0  0  0  0  0  0  0  0  0  0  0
   10.5259  -16.2739   28.9525 C   0  0  0  0  0  0  0  0  0  0  0  0
   11.2735  -15.5809   29.9261 O   0  0  0  0  0  0  0  0  0  0  0  0
    9.6943  -17.0775   29.4407 O   0  0  0  0  0  0  0  0  0  0  0  0
  1  2  1  0
  2 12  2  0
  3  4  2  0
  3  2  1  0
  4  5  1  0
  5  6  1  0
  5 11  2  0
  6  7  1  0
  7  9  1  0
  7  8  1  1
  9 13  1  0
 10  9  2  0
 12 11  1  0
 13 14  1  0
 14 17  1  0
 14 15  1  6
 15 16  1  0
 17 19  1  0
 18 17  2  0
 19 20  1  0
 20 28  1  0
 20 21  1  6
 22 21  1  0
 23 22  2  0
 24 23  1  0
 25 26  1  0
 25 24  2  0
 26 27  2  0
 27 22  1  0
 28 30  2  0
 28 29  1  0
M  END
$$$$
