YCF.pdb
     RDKit          3D

 30 31  0  0  1  0  0  0  0  0999 V2000
    3.0457  -24.0695   24.7490 O   0  0  0  0  0  0  0  0  0  0  0  0
    3.9264  -22.9821   24.6268 C   0  0  0  0  0  0  0  0  0  0  0  0
    3.5829  -21.8757   23.8773 C   0  0  0  0  0  0  0  0  0  0  0  0
    4.4795  -20.8028   23.7708 C   0  0  0  0  0  0  0  0  0  0  0  0
    5.6993  -20.8413   24.4060 C   0  0  0  0  0  0  0  0  0  0  0  0
    6.6052  -19.6835   24.2599 C   0  0  0  0  0  0  0  0  0  0  0  0
    7.0202  -19.6172   22.8152 C   0  0  2  0  0  0  0  0  0  0  0  0
    7.6743  -20.8483   22.4799 N   0  0  0  0  0  0  0  0  0  0  0  0
    7.8232  -18.4200   22.4954 C   0  0  0  0  0  0  0  0  0  0  0  0
    9.0614  -18.4470   22.6839 O   0  0  0  0  0  0  0  0  0  0  0  0
    6.0245  -21.9500   25.1474 C   0  0  0  0  0  0  0  0  0  0  0  0
    5.1441  -23.0305   25.2662 C   0  0  0  0  0  0  0  0  0  0  0  0
    7.2615  -17.2096   21.9739 N   0  0  0  0  0  0  0  0  0  0  0  0
    7.8133  -15.9078   22.0928 C   0  0  1  0  0  0  0  0  0  0  0  0
    7.1301  -14.8157   21.3373 C   0  0  0  0  0  0  0  0  0  0  0  0
    5.4883  -14.3979   21.8941 S   0  0  0  0  0  0  0  0  0  0  0  0
    8.1699  -15.4943   23.4831 C   0  0  0  0  0  0  0  0  0  0  0  0
    7.3617  -14.6538   23.9817 O   0  0  0  0  0  0  0  0  0  0  0  0
    9.2586  -15.9382   24.2198 N   0  0  0  0  0  0  0  0  0  0  0  0
    9.5931  -15.5270   25.5744 C   0  0  1  0  0  0  0  0  0  0  0  0
    8.4046  -15.4097   26.4451 C   0  0  0  0  0  0  0  0  0  0  0  0
    7.8362  -14.0569   26.4318 C   0  0  0  0  0  0  0  0  0  0  0  0
    8.5177  -13.0070   27.0341 C   0  0  0  0  0  0  0  0  0  0  0  0
    7.9821  -11.7445   26.9845 C   0  0  0  0  0  0  0  0  0  0  0  0
    6.7845  -11.4459   26.3613 C   0  0  0  0  0  0  0  0  0  0  0  0
    6.1288  -12.5100   25.7710 C   0  0  0  0  0  0  0  0  0  0  0  0
    6.6324  -13.7898   25.7987 C   0  0  0  0  0  0  0  0  0  0  0  0
   10.7675  -16.2275   26.1362 C   0  0  0  0  0  0  0  0  0  0  0  0
   11.2735  -15.8738   27.4036 O   0  0  0  0  0  0  0  0  0  0  0  0
   11.4085  -17.1548   25.5842 O   0  0  0  0  0  0  0  0  0  0  0  0
  1  2  1  0
  2 12  2  0
  3  4  2  0
  3  2  1  0
  4  5  1  0
  5  6  1  0
  5 11  2  0
  6  7  1  0
  7  9  1  0
  7  8  1  1
  9 13  1  0
 10  9  2  0
 12 11  1  0
 13 14  1  0
 14 17  1  0
 14 15  1  1
 15 16  1  0
 17 19  1  0
 18 17  2  0
 19 20  1  0
 20 28  1  0
 20 21  1  1
 22 21  1  0
 23 22  2  0
 24 23  1  0
 25 26  1  0
 25 24  2  0
 26 27  2  0
 27 22  1  0
 28 30  2  0
 28 29  1  0
M  END
$$$$
