YCF.pdb
     RDKit          3D

 30 31  0  0  1  0  0  0  0  0999 V2000
    8.8965  -11.8970   17.9164 O   0  0  0  0  0  0  0  0  0  0  0  0
    8.3224  -12.7881   18.8380 C   0  0  0  0  0  0  0  0  0  0  0  0
    8.9802  -13.1183   20.0050 C   0  0  0  0  0  0  0  0  0  0  0  0
    8.3860  -14.0104   20.9091 C   0  0  0  0  0  0  0  0  0  0  0  0
    7.1529  -14.5606   20.6450 C   0  0  0  0  0  0  0  0  0  0  0  0
    6.5735  -15.4946   21.6322 C   0  0  0  0  0  0  0  0  0  0  0  0
    7.1400  -16.8589   21.3464 C   0  0  2  0  0  0  0  0  0  0  0  0
    6.0761  -17.6957   20.8735 N   0  0  0  0  0  0  0  0  0  0  0  0
    7.8751  -17.4344   22.4903 C   0  0  0  0  0  0  0  0  0  0  0  0
    7.3328  -18.3323   23.1753 O   0  0  0  0  0  0  0  0  0  0  0  0
    6.5128  -14.2208   19.4791 C   0  0  0  0  0  0  0  0  0  0  0  0
    7.0885  -13.3329   18.5643 C   0  0  0  0  0  0  0  0  0  0  0  0
    9.1931  -17.0204   22.8699 N   0  0  0  0  0  0  0  0  0  0  0  0
    9.9722  -17.5607   23.9256 C   0  0  1  0  0  0  0  0  0  0  0  0
   11.0832  -18.4807   23.5393 C   0  0  0  0  0  0  0  0  0  0  0  0
   12.5352  -17.6998   22.8596 S   0  0  0  0  0  0  0  0  0  0  0  0
   10.3898  -16.5800   24.9720 C   0  0  0  0  0  0  0  0  0  0  0  0
   10.2156  -15.3718   24.6285 O   0  0  0  0  0  0  0  0  0  0  0  0
   10.9240  -16.8822   26.2164 N   0  0  0  0  0  0  0  0  0  0  0  0
   10.4716  -16.3433   27.4894 C   0  0  1  0  0  0  0  0  0  0  0  0
    9.0021  -16.3925   27.6401 C   0  0  0  0  0  0  0  0  0  0  0  0
    8.3667  -15.1085   27.3227 C   0  0  0  0  0  0  0  0  0  0  0  0
    7.7865  -14.9054   26.0771 C   0  0  0  0  0  0  0  0  0  0  0  0
    7.1720  -13.7074   25.8116 C   0  0  0  0  0  0  0  0  0  0  0  0
    7.0923  -12.6703   26.7226 C   0  0  0  0  0  0  0  0  0  0  0  0
    7.6782  -12.9009   27.9532 C   0  0  0  0  0  0  0  0  0  0  0  0
    8.3036  -14.0876   28.2581 C   0  0  0  0  0  0  0  0  0  0  0  0
   11.2780  -16.7898   28.6452 C   0  0  0  0  0  0  0  0  0  0  0  0
   12.1900  -17.8566   28.5127 O   0  0  0  0  0  0  0  0  0  0  0  0
   11.2434  -16.3038   29.8021 O   0  0  0  0  0  0  0  0  0  0  0  0
  1  2  1  0
  2 12  2  0
  3  4  2  0
  3  2  1  0
  4  5  1  0
  5  6  1  0
  5 11  2  0
  6  7  1  0
  7  9  1  0
  7  8  1  1
  9 13  1  0
 10  9  2  0
 12 11  1  0
 13 14  1  0
 14 17  1  0
 14 15  1  6
 15 16  1  0
 17 19  1  0
 18 17  2  0
 19 20  1  0
 20 28  1  0
 20 21  1  1
 22 21  1  0
 23 22  2  0
 24 23  1  0
 25 26  1  0
 25 24  2  0
 26 27  2  0
 27 22  1  0
 28 30  2  0
 28 29  1  0
M  END
$$$$
