YCF.pdb
     RDKit          3D

 30 31  0  0  1  0  0  0  0  0999 V2000
    8.7653  -13.6879   14.3441 O   0  0  0  0  0  0  0  0  0  0  0  0
    8.2992  -14.0324   15.6236 C   0  0  0  0  0  0  0  0  0  0  0  0
    7.8340  -15.3043   15.8872 C   0  0  0  0  0  0  0  0  0  0  0  0
    7.3740  -15.6235   17.1728 C   0  0  0  0  0  0  0  0  0  0  0  0
    7.3814  -14.6812   18.1753 C   0  0  0  0  0  0  0  0  0  0  0  0
    6.8853  -15.0715   19.5111 C   0  0  0  0  0  0  0  0  0  0  0  0
    8.0855  -15.2589   20.3990 C   0  0  2  0  0  0  0  0  0  0  0  0
    8.7409  -16.4753   20.0156 N   0  0  0  0  0  0  0  0  0  0  0  0
    7.7596  -15.1962   21.8378 C   0  0  0  0  0  0  0  0  0  0  0  0
    6.6580  -14.7177   22.1941 O   0  0  0  0  0  0  0  0  0  0  0  0
    7.8476  -13.4208   17.8952 C   0  0  0  0  0  0  0  0  0  0  0  0
    8.3108  -13.0824   16.6194 C   0  0  0  0  0  0  0  0  0  0  0  0
    8.6425  -15.6576   22.8674 N   0  0  0  0  0  0  0  0  0  0  0  0
    8.2790  -15.9956   24.1967 C   0  0  1  0  0  0  0  0  0  0  0  0
    7.1040  -16.9021   24.3632 C   0  0  0  0  0  0  0  0  0  0  0  0
    6.7767  -17.4486   26.0289 S   0  0  0  0  0  0  0  0  0  0  0  0
    9.4157  -16.3760   25.0880 C   0  0  0  0  0  0  0  0  0  0  0  0
    9.4189  -17.6041   25.4042 O   0  0  0  0  0  0  0  0  0  0  0  0
   10.4058  -15.5293   25.5655 N   0  0  0  0  0  0  0  0  0  0  0  0
   10.6756  -15.2413   26.9655 C   0  0  1  0  0  0  0  0  0  0  0  0
   10.5100  -13.8102   27.2959 C   0  0  0  0  0  0  0  0  0  0  0  0
    9.1353  -13.3446   27.0803 C   0  0  0  0  0  0  0  0  0  0  0  0
    8.6779  -13.0899   25.7937 C   0  0  0  0  0  0  0  0  0  0  0  0
    7.3797  -12.6833   25.6125 C   0  0  0  0  0  0  0  0  0  0  0  0
    6.4815  -12.5079   26.6490 C   0  0  0  0  0  0  0  0  0  0  0  0
    6.9646  -12.7686   27.9176 C   0  0  0  0  0  0  0  0  0  0  0  0
    8.2587  -13.1779   28.1410 C   0  0  0  0  0  0  0  0  0  0  0  0
   10.0767  -16.2174   27.9003 C   0  0  0  0  0  0  0  0  0  0  0  0
    9.1243  -17.1524   27.4463 O   0  0  0  0  0  0  0  0  0  0  0  0
   10.3289  -16.3174   29.1259 O   0  0  0  0  0  0  0  0  0  0  0  0
  1  2  1  0
  2 12  2  0
  3  4  2  0
  3  2  1  0
  4  5  1  0
  5  6  1  0
  5 11  2  0
  6  7  1  0
  7  9  1  0
  7  8  1  1
  9 13  1  0
 10  9  2  0
 12 11  1  0
 13 14  1  0
 14 17  1  0
 14 15  1  6
 15 16  1  0
 17 19  1  0
 18 17  2  0
 19 20  1  0
 20 28  1  0
 20 21  1  1
 22 21  1  0
 23 22  2  0
 24 23  1  0
 25 26  1  0
 25 24  2  0
 26 27  2  0
 27 22  1  0
 28 30  2  0
 28 29  1  0
M  END
$$$$
