YCF.pdb
     RDKit          3D

 30 31  0  0  1  0  0  0  0  0999 V2000
    8.0315  -11.9138   17.4380 O   0  0  0  0  0  0  0  0  0  0  0  0
    7.9965  -12.6989   18.6022 C   0  0  0  0  0  0  0  0  0  0  0  0
    9.1582  -13.2055   19.1478 C   0  0  0  0  0  0  0  0  0  0  0  0
    9.0969  -13.9866   20.3107 C   0  0  0  0  0  0  0  0  0  0  0  0
    7.8897  -14.2537   20.9144 C   0  0  0  0  0  0  0  0  0  0  0  0
    7.8832  -15.0821   22.1376 C   0  0  0  0  0  0  0  0  0  0  0  0
    7.9319  -16.5224   21.7051 C   0  0  2  0  0  0  0  0  0  0  0  0
    6.6035  -16.9289   21.3503 N   0  0  0  0  0  0  0  0  0  0  0  0
    8.5701  -17.4069   22.7004 C   0  0  0  0  0  0  0  0  0  0  0  0
    7.8773  -17.8781   23.6318 O   0  0  0  0  0  0  0  0  0  0  0  0
    6.7441  -13.7416   20.3579 C   0  0  0  0  0  0  0  0  0  0  0  0
    6.7839  -12.9603   19.1984 C   0  0  0  0  0  0  0  0  0  0  0  0
    9.9570  -17.7643   22.6638 N   0  0  0  0  0  0  0  0  0  0  0  0
   10.6252  -18.6320   23.5661 C   0  0  1  0  0  0  0  0  0  0  0  0
   11.0786  -19.9474   23.0236 C   0  0  0  0  0  0  0  0  0  0  0  0
   11.7052  -19.9228   21.3542 S   0  0  0  0  0  0  0  0  0  0  0  0
   11.6678  -17.9828   24.4161 C   0  0  0  0  0  0  0  0  0  0  0  0
   12.5062  -17.3010   23.7524 O   0  0  0  0  0  0  0  0  0  0  0  0
   11.7758  -18.0709   25.7966 N   0  0  0  0  0  0  0  0  0  0  0  0
   11.3210  -17.0714   26.7504 C   0  0  1  0  0  0  0  0  0  0  0  0
   10.2729  -16.1889   26.1962 C   0  0  0  0  0  0  0  0  0  0  0  0
    9.8848  -15.1288   27.1337 C   0  0  0  0  0  0  0  0  0  0  0  0
    8.7929  -14.3164   26.8561 C   0  0  0  0  0  0  0  0  0  0  0  0
    8.4296  -13.3503   27.7605 C   0  0  0  0  0  0  0  0  0  0  0  0
    9.0943  -13.1303   28.9529 C   0  0  0  0  0  0  0  0  0  0  0  0
   10.1765  -13.9535   29.2020 C   0  0  0  0  0  0  0  0  0  0  0  0
   10.5723  -14.9331   28.3212 C   0  0  0  0  0  0  0  0  0  0  0  0
   11.0956  -17.6055   28.1104 C   0  0  0  0  0  0  0  0  0  0  0  0
   10.0060  -18.4608   28.3723 O   0  0  0  0  0  0  0  0  0  0  0  0
   11.8008  -17.3718   29.1222 O   0  0  0  0  0  0  0  0  0  0  0  0
  1  2  1  0
  2 12  2  0
  3  4  2  0
  3  2  1  0
  4  5  1  0
  5  6  1  0
  5 11  2  0
  6  7  1  0
  7  9  1  0
  7  8  1  1
  9 13  1  0
 10  9  2  0
 12 11  1  0
 13 14  1  0
 14 17  1  0
 14 15  1  6
 15 16  1  0
 17 19  1  0
 18 17  2  0
 19 20  1  0
 20 28  1  0
 20 21  1  6
 22 21  1  0
 23 22  2  0
 24 23  1  0
 25 26  1  0
 25 24  2  0
 26 27  2  0
 27 22  1  0
 28 30  2  0
 28 29  1  0
M  END
$$$$
