YCF.pdb
     RDKit          3D

 30 31  0  0  1  0  0  0  0  0999 V2000
    5.9150  -24.2138   17.8140 O   0  0  0  0  0  0  0  0  0  0  0  0
    6.5247  -23.1837   18.5490 C   0  0  0  0  0  0  0  0  0  0  0  0
    5.7735  -22.1573   19.0836 C   0  0  0  0  0  0  0  0  0  0  0  0
    6.4058  -21.1406   19.8135 C   0  0  0  0  0  0  0  0  0  0  0  0
    7.7685  -21.1553   20.0027 C   0  0  0  0  0  0  0  0  0  0  0  0
    8.3825  -20.0590   20.7798 C   0  0  0  0  0  0  0  0  0  0  0  0
    8.3313  -18.8204   19.9272 C   0  0  2  0  0  0  0  0  0  0  0  0
    9.1540  -19.0367   18.7729 N   0  0  0  0  0  0  0  0  0  0  0  0
    8.6724  -17.5898   20.6687 C   0  0  0  0  0  0  0  0  0  0  0  0
    9.8730  -17.3498   20.9341 O   0  0  0  0  0  0  0  0  0  0  0  0
    8.5002  -22.1841   19.4637 C   0  0  0  0  0  0  0  0  0  0  0  0
    7.8885  -23.2077   18.7325 C   0  0  0  0  0  0  0  0  0  0  0  0
    7.6962  -16.6385   21.1098 N   0  0  0  0  0  0  0  0  0  0  0  0
    7.9460  -15.4755   21.8834 C   0  0  1  0  0  0  0  0  0  0  0  0
    7.0606  -14.2989   21.6347 C   0  0  0  0  0  0  0  0  0  0  0  0
    7.3295  -12.8892   22.6932 S   0  0  0  0  0  0  0  0  0  0  0  0
    8.1660  -15.7180   23.3407 C   0  0  0  0  0  0  0  0  0  0  0  0
    7.2427  -16.3969   23.8836 O   0  0  0  0  0  0  0  0  0  0  0  0
    9.2440  -15.2767   24.0947 N   0  0  0  0  0  0  0  0  0  0  0  0
    9.4526  -15.5333   25.5111 C   0  0  1  0  0  0  0  0  0  0  0  0
    8.2243  -15.3472   26.3118 C   0  0  0  0  0  0  0  0  0  0  0  0
    7.8033  -13.9426   26.3670 C   0  0  0  0  0  0  0  0  0  0  0  0
    8.7520  -12.9281   26.3537 C   0  0  0  0  0  0  0  0  0  0  0  0
    8.3351  -11.6208   26.3765 C   0  0  0  0  0  0  0  0  0  0  0  0
    7.0057  -11.2425   26.4126 C   0  0  0  0  0  0  0  0  0  0  0  0
    6.0845  -12.2731   26.4251 C   0  0  0  0  0  0  0  0  0  0  0  0
    6.4618  -13.5957   26.4031 C   0  0  0  0  0  0  0  0  0  0  0  0
   10.2523  -16.7462   25.7849 C   0  0  0  0  0  0  0  0  0  0  0  0
   10.5484  -17.1245   27.1103 O   0  0  0  0  0  0  0  0  0  0  0  0
   10.7304  -17.5256   24.9250 O   0  0  0  0  0  0  0  0  0  0  0  0
  1  2  1  0
  2 12  2  0
  3  4  2  0
  3  2  1  0
  4  5  1  0
  5  6  1  0
  5 11  2  0
  6  7  1  0
  7  9  1  0
  7  8  1  6
  9 13  1  0
 10  9  2  0
 12 11  1  0
 13 14  1  0
 14 17  1  0
 14 15  1  1
 15 16  1  0
 17 19  1  0
 18 17  2  0
 19 20  1  0
 20 28  1  0
 20 21  1  1
 22 21  1  0
 23 22  2  0
 24 23  1  0
 25 26  1  0
 25 24  2  0
 26 27  2  0
 27 22  1  0
 28 30  2  0
 28 29  1  0
M  END
$$$$
