YCF.pdb
     RDKit          3D

 30 31  0  0  1  0  0  0  0  0999 V2000
    9.4674  -12.2860   17.8851 O   0  0  0  0  0  0  0  0  0  0  0  0
    8.6411  -12.9964   18.7713 C   0  0  0  0  0  0  0  0  0  0  0  0
    7.4533  -13.5500   18.3396 C   0  0  0  0  0  0  0  0  0  0  0  0
    6.6458  -14.2547   19.2438 C   0  0  0  0  0  0  0  0  0  0  0  0
    7.0253  -14.4003   20.5583 C   0  0  0  0  0  0  0  0  0  0  0  0
    6.1366  -15.1524   21.4677 C   0  0  0  0  0  0  0  0  0  0  0  0
    6.6625  -16.5598   21.5477 C   0  0  2  0  0  0  0  0  0  0  0  0
    5.9220  -17.3681   20.6233 N   0  0  0  0  0  0  0  0  0  0  0  0
    6.6723  -17.0995   22.9220 C   0  0  0  0  0  0  0  0  0  0  0  0
    5.7545  -17.8729   23.2810 O   0  0  0  0  0  0  0  0  0  0  0  0
    8.2103  -13.8430   20.9704 C   0  0  0  0  0  0  0  0  0  0  0  0
    9.0299  -13.1364   20.0841 C   0  0  0  0  0  0  0  0  0  0  0  0
    7.6855  -16.7862   23.8853 N   0  0  0  0  0  0  0  0  0  0  0  0
    7.8909  -17.4355   25.1301 C   0  0  1  0  0  0  0  0  0  0  0  0
    7.9720  -18.9265   25.1061 C   0  0  0  0  0  0  0  0  0  0  0  0
    8.6765  -19.6877   26.5567 S   0  0  0  0  0  0  0  0  0  0  0  0
    8.9443  -16.8271   25.9969 C   0  0  0  0  0  0  0  0  0  0  0  0
   10.0555  -16.6720   25.4058 O   0  0  0  0  0  0  0  0  0  0  0  0
    8.7994  -16.4456   27.3230 N   0  0  0  0  0  0  0  0  0  0  0  0
    9.7949  -15.7460   28.1199 C   0  0  1  0  0  0  0  0  0  0  0  0
    9.2502  -14.5453   28.7879 C   0  0  0  0  0  0  0  0  0  0  0  0
    8.3415  -13.7889   27.9189 C   0  0  0  0  0  0  0  0  0  0  0  0
    6.9919  -14.1138   27.8681 C   0  0  0  0  0  0  0  0  0  0  0  0
    6.1545  -13.3745   27.0709 C   0  0  0  0  0  0  0  0  0  0  0  0
    6.5770  -12.3068   26.3006 C   0  0  0  0  0  0  0  0  0  0  0  0
    7.9245  -12.0068   26.3713 C   0  0  0  0  0  0  0  0  0  0  0  0
    8.7962  -12.7233   27.1580 C   0  0  0  0  0  0  0  0  0  0  0  0
   10.6391  -16.6419   28.9385 C   0  0  0  0  0  0  0  0  0  0  0  0
   11.7516  -16.1343   29.6400 O   0  0  0  0  0  0  0  0  0  0  0  0
   10.4745  -17.8770   29.0907 O   0  0  0  0  0  0  0  0  0  0  0  0
  1  2  1  0
  2 12  2  0
  3  4  2  0
  3  2  1  0
  4  5  1  0
  5  6  1  0
  5 11  2  0
  6  7  1  0
  7  9  1  0
  7  8  1  6
  9 13  1  0
 10  9  2  0
 12 11  1  0
 13 14  1  0
 14 17  1  0
 14 15  1  6
 15 16  1  0
 17 19  1  0
 18 17  2  0
 19 20  1  0
 20 28  1  0
 20 21  1  1
 22 21  1  0
 23 22  2  0
 24 23  1  0
 25 26  1  0
 25 24  2  0
 26 27  2  0
 27 22  1  0
 28 30  2  0
 28 29  1  0
M  END
$$$$
