YCF.pdb
     RDKit          3D

 30 31  0  0  1  0  0  0  0  0999 V2000
    4.9757  -24.1457   27.0653 O   0  0  0  0  0  0  0  0  0  0  0  0
    5.7139  -23.2688   26.2534 C   0  0  0  0  0  0  0  0  0  0  0  0
    6.9022  -23.6700   25.6785 C   0  0  0  0  0  0  0  0  0  0  0  0
    7.6207  -22.7759   24.8718 C   0  0  0  0  0  0  0  0  0  0  0  0
    7.1532  -21.5016   24.6470 C   0  0  0  0  0  0  0  0  0  0  0  0
    7.9504  -20.6012   23.7890 C   0  0  0  0  0  0  0  0  0  0  0  0
    7.0188  -20.0189   22.7609 C   0  0  2  0  0  0  0  0  0  0  0  0
    6.7943  -21.0086   21.7480 N   0  0  0  0  0  0  0  0  0  0  0  0
    7.4822  -18.7239   22.2237 C   0  0  0  0  0  0  0  0  0  0  0  0
    7.5518  -18.5674   20.9827 O   0  0  0  0  0  0  0  0  0  0  0  0
    5.9691  -21.1194   25.2270 C   0  0  0  0  0  0  0  0  0  0  0  0
    5.2375  -21.9962   26.0348 C   0  0  0  0  0  0  0  0  0  0  0  0
    7.8632  -17.6177   23.0506 N   0  0  0  0  0  0  0  0  0  0  0  0
    8.1835  -16.3085   22.6073 C   0  0  1  0  0  0  0  0  0  0  0  0
    7.1864  -15.6346   21.7230 C   0  0  0  0  0  0  0  0  0  0  0  0
    5.5154  -15.5763   22.3430 S   0  0  0  0  0  0  0  0  0  0  0  0
    8.7114  -15.3927   23.6626 C   0  0  0  0  0  0  0  0  0  0  0  0
    9.1682  -14.3031   23.2018 O   0  0  0  0  0  0  0  0  0  0  0  0
    8.7362  -15.6384   25.0279 N   0  0  0  0  0  0  0  0  0  0  0  0
    9.7898  -15.2339   25.9456 C   0  0  1  0  0  0  0  0  0  0  0  0
    9.2922  -14.3819   27.0460 C   0  0  0  0  0  0  0  0  0  0  0  0
    8.5223  -13.2329   26.5559 C   0  0  0  0  0  0  0  0  0  0  0  0
    7.1445  -13.3275   26.4076 C   0  0  0  0  0  0  0  0  0  0  0  0
    6.4404  -12.2316   25.9756 C   0  0  0  0  0  0  0  0  0  0  0  0
    7.0267  -11.0165   25.6730 C   0  0  0  0  0  0  0  0  0  0  0  0
    8.3986  -10.9520   25.8299 C   0  0  0  0  0  0  0  0  0  0  0  0
    9.1400  -12.0277   26.2604 C   0  0  0  0  0  0  0  0  0  0  0  0
   10.7128  -16.3290   26.3122 C   0  0  0  0  0  0  0  0  0  0  0  0
   11.8499  -16.0719   27.1048 O   0  0  0  0  0  0  0  0  0  0  0  0
   10.5988  -17.5339   25.9793 O   0  0  0  0  0  0  0  0  0  0  0  0
  1  2  1  0
  2 12  2  0
  3  4  2  0
  3  2  1  0
  4  5  1  0
  5  6  1  0
  5 11  2  0
  6  7  1  0
  7  9  1  0
  7  8  1  6
  9 13  1  0
 10  9  2  0
 12 11  1  0
 13 14  1  0
 14 17  1  0
 14 15  1  1
 15 16  1  0
 17 19  1  0
 18 17  2  0
 19 20  1  0
 20 28  1  0
 20 21  1  1
 22 21  1  0
 23 22  2  0
 24 23  1  0
 25 26  1  0
 25 24  2  0
 26 27  2  0
 27 22  1  0
 28 30  2  0
 28 29  1  0
M  END
$$$$
