YCF.pdb
     RDKit          3D

 30 31  0  0  1  0  0  0  0  0999 V2000
    5.8564  -23.8156   28.6908 O   0  0  0  0  0  0  0  0  0  0  0  0
    6.2488  -22.8401   27.7594 C   0  0  0  0  0  0  0  0  0  0  0  0
    7.5321  -22.3332   27.7657 C   0  0  0  0  0  0  0  0  0  0  0  0
    7.8994  -21.3599   26.8254 C   0  0  0  0  0  0  0  0  0  0  0  0
    6.9933  -20.9044   25.8957 C   0  0  0  0  0  0  0  0  0  0  0  0
    7.4337  -19.8782   24.9284 C   0  0  0  0  0  0  0  0  0  0  0  0
    7.1076  -20.3892   23.5514 C   0  0  2  0  0  0  0  0  0  0  0  0
    7.8703  -21.5819   23.3238 N   0  0  0  0  0  0  0  0  0  0  0  0
    7.2825  -19.3706   22.4968 C   0  0  0  0  0  0  0  0  0  0  0  0
    8.3591  -19.3322   21.8574 O   0  0  0  0  0  0  0  0  0  0  0  0
    5.7210  -21.4198   25.9040 C   0  0  0  0  0  0  0  0  0  0  0  0
    5.3348  -22.3912   26.8335 C   0  0  0  0  0  0  0  0  0  0  0  0
    6.2779  -18.4079   22.1556 N   0  0  0  0  0  0  0  0  0  0  0  0
    6.5017  -17.1175   21.6096 C   0  0  1  0  0  0  0  0  0  0  0  0
    5.3247  -16.4329   20.9963 C   0  0  0  0  0  0  0  0  0  0  0  0
    3.7257  -16.9950   21.5506 S   0  0  0  0  0  0  0  0  0  0  0  0
    7.3063  -16.1964   22.4671 C   0  0  0  0  0  0  0  0  0  0  0  0
    6.8368  -15.0197   22.5213 O   0  0  0  0  0  0  0  0  0  0  0  0
    8.4618  -16.5201   23.1637 N   0  0  0  0  0  0  0  0  0  0  0  0
    8.9987  -15.7938   24.3038 C   0  0  1  0  0  0  0  0  0  0  0  0
    7.9907  -15.5632   25.3598 C   0  0  0  0  0  0  0  0  0  0  0  0
    8.5547  -14.8761   26.5273 C   0  0  0  0  0  0  0  0  0  0  0  0
    8.3109  -13.5233   26.7268 C   0  0  0  0  0  0  0  0  0  0  0  0
    8.8237  -12.9072   27.8407 C   0  0  0  0  0  0  0  0  0  0  0  0
    9.5820  -13.5602   28.7948 C   0  0  0  0  0  0  0  0  0  0  0  0
    9.8082  -14.9052   28.5700 C   0  0  0  0  0  0  0  0  0  0  0  0
    9.3118  -15.5590   27.4662 C   0  0  0  0  0  0  0  0  0  0  0  0
   10.3283  -16.2703   24.7407 C   0  0  0  0  0  0  0  0  0  0  0  0
   11.4122  -15.3747   24.8418 O   0  0  0  0  0  0  0  0  0  0  0  0
   10.6256  -17.4502   25.0489 O   0  0  0  0  0  0  0  0  0  0  0  0
  1  2  1  0
  2 12  2  0
  3  4  2  0
  3  2  1  0
  4  5  1  0
  5  6  1  0
  5 11  2  0
  6  7  1  0
  7  9  1  0
  7  8  1  6
  9 13  1  0
 10  9  2  0
 12 11  1  0
 13 14  1  0
 14 17  1  0
 14 15  1  1
 15 16  1  0
 17 19  1  0
 18 17  2  0
 19 20  1  0
 20 28  1  0
 20 21  1  1
 22 21  1  0
 23 22  2  0
 24 23  1  0
 25 26  1  0
 25 24  2  0
 26 27  2  0
 27 22  1  0
 28 30  2  0
 28 29  1  0
M  END
$$$$
