YCF.pdb
     RDKit          3D

 30 31  0  0  1  0  0  0  0  0999 V2000
    7.3947  -12.1738   16.2398 O   0  0  0  0  0  0  0  0  0  0  0  0
    7.4790  -12.9669   17.3961 C   0  0  0  0  0  0  0  0  0  0  0  0
    6.6151  -14.0247   17.5917 C   0  0  0  0  0  0  0  0  0  0  0  0
    6.7196  -14.8015   18.7544 C   0  0  0  0  0  0  0  0  0  0  0  0
    7.6752  -14.5201   19.7034 C   0  0  0  0  0  0  0  0  0  0  0  0
    7.7407  -15.3710   20.9094 C   0  0  0  0  0  0  0  0  0  0  0  0
    8.7287  -16.4709   20.6302 C   0  0  2  0  0  0  0  0  0  0  0  0
    8.1431  -17.3679   19.6771 N   0  0  0  0  0  0  0  0  0  0  0  0
    9.2087  -17.1453   21.8529 C   0  0  0  0  0  0  0  0  0  0  0  0
    8.4139  -17.8566   22.5100 O   0  0  0  0  0  0  0  0  0  0  0  0
    8.5264  -13.4639   19.4924 C   0  0  0  0  0  0  0  0  0  0  0  0
    8.4385  -12.6770   18.3393 C   0  0  0  0  0  0  0  0  0  0  0  0
   10.5511  -17.0328   22.3405 N   0  0  0  0  0  0  0  0  0  0  0  0
   11.0138  -17.4201   23.6248 C   0  0  1  0  0  0  0  0  0  0  0  0
   12.4928  -17.5204   23.8053 C   0  0  0  0  0  0  0  0  0  0  0  0
   13.0422  -18.0690   25.4106 S   0  0  0  0  0  0  0  0  0  0  0  0
   10.3509  -16.7312   24.7724 C   0  0  0  0  0  0  0  0  0  0  0  0
   10.0112  -15.5368   24.5150 O   0  0  0  0  0  0  0  0  0  0  0  0
   10.0988  -17.2746   26.0239 N   0  0  0  0  0  0  0  0  0  0  0  0
    9.2481  -16.6902   27.0488 C   0  0  1  0  0  0  0  0  0  0  0  0
    7.9338  -16.2633   26.5245 C   0  0  0  0  0  0  0  0  0  0  0  0
    7.7200  -14.8187   26.6675 C   0  0  0  0  0  0  0  0  0  0  0  0
    8.7782  -13.9865   27.0096 C   0  0  0  0  0  0  0  0  0  0  0  0
    8.5625  -12.6349   27.1093 C   0  0  0  0  0  0  0  0  0  0  0  0
    7.3354  -12.0379   26.8866 C   0  0  0  0  0  0  0  0  0  0  0  0
    6.3014  -12.8905   26.5479 C   0  0  0  0  0  0  0  0  0  0  0  0
    6.4769  -14.2504   26.4378 C   0  0  0  0  0  0  0  0  0  0  0  0
    9.2485  -17.4412   28.3222 C   0  0  0  0  0  0  0  0  0  0  0  0
    9.3505  -16.7626   29.5537 O   0  0  0  0  0  0  0  0  0  0  0  0
    9.1662  -18.6877   28.4448 O   0  0  0  0  0  0  0  0  0  0  0  0
  1  2  1  0
  2 12  2  0
  3  4  2  0
  3  2  1  0
  4  5  1  0
  5  6  1  0
  5 11  2  0
  6  7  1  0
  7  9  1  0
  7  8  1  6
  9 13  1  0
 10  9  2  0
 12 11  1  0
 13 14  1  0
 14 17  1  0
 14 15  1  6
 15 16  1  0
 17 19  1  0
 18 17  2  0
 19 20  1  0
 20 28  1  0
 20 21  1  6
 22 21  1  0
 23 22  2  0
 24 23  1  0
 25 26  1  0
 25 24  2  0
 26 27  2  0
 27 22  1  0
 28 30  2  0
 28 29  1  0
M  END
$$$$
