AFA.pdb
     RDKit          3D

 22 22  0  0  1  0  0  0  0  0999 V2000
   10.4731  -16.7187   19.9464 C   0  0  0  0  0  0  0  0  0  0  0  0
   10.2021  -17.3916   21.2973 C   0  0  2  0  0  0  0  0  0  0  0  0
    9.0729  -18.2438   21.1403 N   0  0  0  0  0  0  0  0  0  0  0  0
    9.9878  -16.2952   22.2687 C   0  0  0  0  0  0  0  0  0  0  0  0
   10.9677  -15.5690   22.5748 O   0  0  0  0  0  0  0  0  0  0  0  0
    8.7445  -16.0152   22.8741 N   0  0  0  0  0  0  0  0  0  0  0  0
    8.5125  -15.0035   23.8567 C   0  0  1  0  0  0  0  0  0  0  0  0
    7.1314  -14.3868   23.7394 C   0  0  0  0  0  0  0  0  0  0  0  0
    6.9174  -13.3866   24.8315 C   0  0  0  0  0  0  0  0  0  0  0  0
    5.9823  -13.6199   25.8222 C   0  0  0  0  0  0  0  0  0  0  0  0
    5.7520  -12.7322   26.8425 C   0  0  0  0  0  0  0  0  0  0  0  0
    6.4613  -11.5500   26.9167 C   0  0  0  0  0  0  0  0  0  0  0  0
    7.4110  -11.3016   25.9200 C   0  0  0  0  0  0  0  0  0  0  0  0
    7.6289  -12.2064   24.9013 C   0  0  0  0  0  0  0  0  0  0  0  0
    8.5965  -15.6111   25.2096 C   0  0  0  0  0  0  0  0  0  0  0  0
    8.8059  -14.8700   26.2253 O   0  0  0  0  0  0  0  0  0  0  0  0
    7.6790  -18.9324   26.6359 C   0  0  0  0  0  0  0  0  0  0  0  0
    8.5215  -17.6523   26.7010 C   0  0  2  0  0  0  0  0  0  0  0  0
    8.4469  -17.0186   25.4008 N   0  0  0  0  0  0  0  0  0  0  0  0
    9.9375  -17.9885   26.9962 C   0  0  0  0  0  0  0  0  0  0  0  0
   10.3287  -18.4607   28.2413 O   0  0  0  0  0  0  0  0  0  0  0  0
   10.8147  -17.8539   26.1274 O   0  0  0  0  0  0  0  0  0  0  0  0
  2  1  1  6
  2  3  1  0
  4  6  1  0
  4  2  1  0
  5  4  2  0
  7  6  1  0
  7 15  1  0
  7  8  1  6
  9  8  1  0
  9 14  2  0
 10  9  1  0
 11 10  2  0
 11 12  1  0
 12 13  2  0
 13 14  1  0
 15 19  1  0
 16 15  2  0
 18 17  1  6
 18 20  1  0
 19 18  1  0
 20 21  1  0
 22 20  2  0
M  END
$$$$
