AFA.pdb
     RDKit          3D

 22 22  0  0  1  0  0  0  0  0999 V2000
    7.8310  -13.2913   18.4279 C   0  0  0  0  0  0  0  0  0  0  0  0
    8.4183  -14.5371   19.1020 C   0  0  2  0  0  0  0  0  0  0  0  0
    7.4961  -15.6060   18.9203 N   0  0  0  0  0  0  0  0  0  0  0  0
    8.6350  -14.1749   20.5210 C   0  0  0  0  0  0  0  0  0  0  0  0
    9.7226  -13.6291   20.8382 O   0  0  0  0  0  0  0  0  0  0  0  0
    7.6903  -14.4066   21.5430 N   0  0  0  0  0  0  0  0  0  0  0  0
    7.8875  -14.1257   22.9305 C   0  0  1  0  0  0  0  0  0  0  0  0
    6.6469  -13.5514   23.5881 C   0  0  0  0  0  0  0  0  0  0  0  0
    6.9294  -13.2128   25.0178 C   0  0  0  0  0  0  0  0  0  0  0  0
    6.2199  -13.8218   26.0357 C   0  0  0  0  0  0  0  0  0  0  0  0
    6.4442  -13.5430   27.3602 C   0  0  0  0  0  0  0  0  0  0  0  0
    7.4069  -12.6250   27.7300 C   0  0  0  0  0  0  0  0  0  0  0  0
    8.1323  -12.0013   26.7093 C   0  0  0  0  0  0  0  0  0  0  0  0
    7.8926  -12.2945   25.3826 C   0  0  0  0  0  0  0  0  0  0  0  0
    8.2030  -15.3905   23.6427 C   0  0  0  0  0  0  0  0  0  0  0  0
    7.3409  -16.3286   23.6805 O   0  0  0  0  0  0  0  0  0  0  0  0
   11.3075  -17.1198   24.3356 C   0  0  0  0  0  0  0  0  0  0  0  0
    9.8828  -16.8550   24.8384 C   0  0  2  0  0  0  0  0  0  0  0  0
    9.4609  -15.5819   24.2918 N   0  0  0  0  0  0  0  0  0  0  0  0
    9.8723  -16.7737   26.3211 C   0  0  0  0  0  0  0  0  0  0  0  0
   10.0562  -15.5688   26.9849 O   0  0  0  0  0  0  0  0  0  0  0  0
    9.6971  -17.7921   27.0099 O   0  0  0  0  0  0  0  0  0  0  0  0
  2  1  1  6
  2  3  1  0
  4  6  1  0
  4  2  1  0
  5  4  2  0
  7  6  1  0
  7 15  1  0
  7  8  1  1
  9  8  1  0
  9 14  2  0
 10  9  1  0
 11 10  2  0
 11 12  1  0
 12 13  2  0
 13 14  1  0
 15 19  1  0
 16 15  2  0
 18 17  1  6
 18 20  1  0
 19 18  1  0
 20 21  1  0
 22 20  2  0
M  END
$$$$
