AFA.pdb
     RDKit          3D

 22 22  0  0  1  0  0  0  0  0999 V2000
    9.0446  -18.3868   20.3350 C   0  0  0  0  0  0  0  0  0  0  0  0
    9.1880  -16.8984   19.9953 C   0  0  2  0  0  0  0  0  0  0  0  0
   10.3491  -16.7465   19.1861 N   0  0  0  0  0  0  0  0  0  0  0  0
    9.2696  -16.1857   21.2904 C   0  0  0  0  0  0  0  0  0  0  0  0
   10.4029  -16.0179   21.8087 O   0  0  0  0  0  0  0  0  0  0  0  0
    8.1472  -15.6815   21.9805 N   0  0  0  0  0  0  0  0  0  0  0  0
    8.1920  -14.9377   23.2003 C   0  0  1  0  0  0  0  0  0  0  0  0
    6.8891  -14.2156   23.4875 C   0  0  0  0  0  0  0  0  0  0  0  0
    6.9756  -13.4938   24.7953 C   0  0  0  0  0  0  0  0  0  0  0  0
    7.7260  -12.3387   24.9100 C   0  0  0  0  0  0  0  0  0  0  0  0
    7.8343  -11.6437   26.0879 C   0  0  0  0  0  0  0  0  0  0  0  0
    7.1837  -12.0833   27.2236 C   0  0  0  0  0  0  0  0  0  0  0  0
    6.4207  -13.2514   27.1210 C   0  0  0  0  0  0  0  0  0  0  0  0
    6.3235  -13.9370   25.9276 C   0  0  0  0  0  0  0  0  0  0  0  0
    8.4218  -15.8724   24.3317 C   0  0  0  0  0  0  0  0  0  0  0  0
    7.5558  -16.7686   24.5993 O   0  0  0  0  0  0  0  0  0  0  0  0
   11.4936  -17.1504   25.7196 C   0  0  0  0  0  0  0  0  0  0  0  0
   10.0227  -16.8462   26.0302 C   0  0  2  0  0  0  0  0  0  0  0  0
    9.6007  -15.7898   25.1338 N   0  0  0  0  0  0  0  0  0  0  0  0
    9.8843  -16.3768   27.4323 C   0  0  0  0  0  0  0  0  0  0  0  0
    9.4462  -15.0939   27.7300 O   0  0  0  0  0  0  0  0  0  0  0  0
   10.1600  -17.1283   28.3818 O   0  0  0  0  0  0  0  0  0  0  0  0
  2  1  1  1
  2  3  1  0
  4  6  1  0
  4  2  1  0
  5  4  2  0
  7  6  1  0
  7 15  1  0
  7  8  1  1
  9  8  1  0
  9 14  2  0
 10  9  1  0
 11 10  2  0
 11 12  1  0
 12 13  2  0
 13 14  1  0
 15 19  1  0
 16 15  2  0
 18 17  1  6
 18 20  1  0
 19 18  1  0
 20 21  1  0
 22 20  2  0
M  END
$$$$
