AFA.pdb
     RDKit          3D

 22 22  0  0  1  0  0  0  0  0999 V2000
    8.6914  -19.0235   20.6525 C   0  0  0  0  0  0  0  0  0  0  0  0
    8.7481  -17.5513   20.2276 C   0  0  2  0  0  0  0  0  0  0  0  0
    9.8112  -17.4090   19.2918 N   0  0  0  0  0  0  0  0  0  0  0  0
    8.9427  -16.7704   21.4702 C   0  0  0  0  0  0  0  0  0  0  0  0
   10.0850  -16.7603   21.9959 O   0  0  0  0  0  0  0  0  0  0  0  0
    7.9188  -16.0339   22.1025 N   0  0  0  0  0  0  0  0  0  0  0  0
    8.0744  -15.2522   23.2889 C   0  0  1  0  0  0  0  0  0  0  0  0
    6.9294  -14.2791   23.4967 C   0  0  0  0  0  0  0  0  0  0  0  0
    7.0938  -13.5574   24.7970 C   0  0  0  0  0  0  0  0  0  0  0  0
    8.0949  -12.6176   24.9554 C   0  0  0  0  0  0  0  0  0  0  0  0
    8.2834  -11.9316   26.1284 C   0  0  0  0  0  0  0  0  0  0  0  0
    7.4623  -12.1609   27.2144 C   0  0  0  0  0  0  0  0  0  0  0  0
    6.4449  -13.1098   27.0674 C   0  0  0  0  0  0  0  0  0  0  0  0
    6.2705  -13.7901   25.8797 C   0  0  0  0  0  0  0  0  0  0  0  0
    8.0880  -16.1554   24.4682 C   0  0  0  0  0  0  0  0  0  0  0  0
    7.0861  -16.9081   24.7015 O   0  0  0  0  0  0  0  0  0  0  0  0
   10.2390  -18.3071   25.8792 C   0  0  0  0  0  0  0  0  0  0  0  0
    9.3403  -17.1832   26.4102 C   0  0  2  0  0  0  0  0  0  0  0  0
    9.2071  -16.2006   25.3546 N   0  0  0  0  0  0  0  0  0  0  0  0
    9.9701  -16.5426   27.5926 C   0  0  0  0  0  0  0  0  0  0  0  0
   10.1119  -17.2181   28.7967 O   0  0  0  0  0  0  0  0  0  0  0  0
   10.3894  -15.3752   27.5320 O   0  0  0  0  0  0  0  0  0  0  0  0
  2  1  1  1
  2  3  1  0
  4  6  1  0
  4  2  1  0
  5  4  2  0
  7  6  1  0
  7 15  1  0
  7  8  1  1
  9  8  1  0
  9 14  2  0
 10  9  1  0
 11 10  2  0
 11 12  1  0
 12 13  2  0
 13 14  1  0
 15 19  1  0
 16 15  2  0
 18 17  1  6
 18 20  1  0
 19 18  1  0
 20 21  1  0
 22 20  2  0
M  END
$$$$
