AFA.pdb
     RDKit          3D

 22 22  0  0  1  0  0  0  0  0999 V2000
    8.1571  -17.2501   19.4914 C   0  0  0  0  0  0  0  0  0  0  0  0
    7.7303  -15.7837   19.6291 C   0  0  2  0  0  0  0  0  0  0  0  0
    8.3506  -15.0495   18.5793 N   0  0  0  0  0  0  0  0  0  0  0  0
    8.1527  -15.3565   20.9822 C   0  0  0  0  0  0  0  0  0  0  0  0
    9.2994  -14.8592   21.1202 O   0  0  0  0  0  0  0  0  0  0  0  0
    7.3420  -15.4744   22.1309 N   0  0  0  0  0  0  0  0  0  0  0  0
    7.7262  -15.1006   23.4559 C   0  0  1  0  0  0  0  0  0  0  0  0
    6.5327  -14.8014   24.3432 C   0  0  0  0  0  0  0  0  0  0  0  0
    6.9133  -13.8227   25.4091 C   0  0  0  0  0  0  0  0  0  0  0  0
    7.6234  -14.2373   26.5201 C   0  0  0  0  0  0  0  0  0  0  0  0
    7.9941  -13.3764   27.5218 C   0  0  0  0  0  0  0  0  0  0  0  0
    7.6637  -12.0375   27.4534 C   0  0  0  0  0  0  0  0  0  0  0  0
    6.9450  -11.6047   26.3339 C   0  0  0  0  0  0  0  0  0  0  0  0
    6.5809  -12.4855   25.3362 C   0  0  0  0  0  0  0  0  0  0  0  0
    8.4566  -16.2296   24.0872 C   0  0  0  0  0  0  0  0  0  0  0  0
    7.8897  -17.3652   24.2036 O   0  0  0  0  0  0  0  0  0  0  0  0
   12.0385  -16.9144   24.6943 C   0  0  0  0  0  0  0  0  0  0  0  0
   10.5791  -17.1691   25.0916 C   0  0  2  0  0  0  0  0  0  0  0  0
    9.7911  -16.0710   24.5713 N   0  0  0  0  0  0  0  0  0  0  0  0
   10.4513  -17.1997   26.5708 C   0  0  0  0  0  0  0  0  0  0  0  0
    9.6718  -16.2758   27.2528 O   0  0  0  0  0  0  0  0  0  0  0  0
   11.0448  -18.0612   27.2400 O   0  0  0  0  0  0  0  0  0  0  0  0
  2  1  1  6
  2  3  1  0
  4  6  1  0
  4  2  1  0
  5  4  2  0
  7  6  1  0
  7 15  1  0
  7  8  1  1
  9  8  1  0
  9 14  2  0
 10  9  1  0
 11 10  2  0
 11 12  1  0
 12 13  2  0
 13 14  1  0
 15 19  1  0
 16 15  2  0
 18 17  1  1
 18 20  1  0
 19 18  1  0
 20 21  1  0
 22 20  2  0
M  END
$$$$
