AFA.pdb
     RDKit          3D

 22 22  0  0  1  0  0  0  0  0999 V2000
    9.4153  -18.5155   20.4925 C   0  0  0  0  0  0  0  0  0  0  0  0
    9.3421  -17.0297   20.1206 C   0  0  2  0  0  0  0  0  0  0  0  0
   10.4270  -16.7466   19.2437 N   0  0  0  0  0  0  0  0  0  0  0  0
    9.3997  -16.2816   21.3968 C   0  0  0  0  0  0  0  0  0  0  0  0
   10.5215  -16.1133   21.9397 O   0  0  0  0  0  0  0  0  0  0  0  0
    8.2666  -15.7440   22.0430 N   0  0  0  0  0  0  0  0  0  0  0  0
    8.2901  -14.9641   23.2405 C   0  0  1  0  0  0  0  0  0  0  0  0
    6.9875  -14.2228   23.4755 C   0  0  0  0  0  0  0  0  0  0  0  0
    7.0390  -13.4870   24.7773 C   0  0  0  0  0  0  0  0  0  0  0  0
    7.7727  -12.3215   24.8950 C   0  0  0  0  0  0  0  0  0  0  0  0
    7.8490  -11.6135   26.0677 C   0  0  0  0  0  0  0  0  0  0  0  0
    7.1814  -12.0498   27.1947 C   0  0  0  0  0  0  0  0  0  0  0  0
    6.4351  -13.2284   27.0890 C   0  0  0  0  0  0  0  0  0  0  0  0
    6.3701  -13.9271   25.9010 C   0  0  0  0  0  0  0  0  0  0  0  0
    8.4853  -15.8660   24.4046 C   0  0  0  0  0  0  0  0  0  0  0  0
    7.6118  -16.7552   24.6710 O   0  0  0  0  0  0  0  0  0  0  0  0
   11.4839  -17.1608   25.8799 C   0  0  0  0  0  0  0  0  0  0  0  0
   10.0285  -16.7851   26.1851 C   0  0  2  0  0  0  0  0  0  0  0  0
    9.6391  -15.7593   25.2398 N   0  0  0  0  0  0  0  0  0  0  0  0
    9.9205  -16.2414   27.5627 C   0  0  0  0  0  0  0  0  0  0  0  0
    9.5355  -14.9289   27.7987 O   0  0  0  0  0  0  0  0  0  0  0  0
   10.1745  -16.9550   28.5469 O   0  0  0  0  0  0  0  0  0  0  0  0
  2  1  1  1
  2  3  1  0
  4  6  1  0
  4  2  1  0
  5  4  2  0
  7  6  1  0
  7 15  1  0
  7  8  1  1
  9  8  1  0
  9 14  2  0
 10  9  1  0
 11 10  2  0
 11 12  1  0
 12 13  2  0
 13 14  1  0
 15 19  1  0
 16 15  2  0
 18 17  1  6
 18 20  1  0
 19 18  1  0
 20 21  1  0
 22 20  2  0
M  END
$$$$
