AFA.pdb
     RDKit          3D

 22 22  0  0  1  0  0  0  0  0999 V2000
    7.2933  -16.6569   20.3089 C   0  0  0  0  0  0  0  0  0  0  0  0
    7.2272  -15.2166   20.8308 C   0  0  2  0  0  0  0  0  0  0  0  0
    7.7790  -14.3659   19.8318 N   0  0  0  0  0  0  0  0  0  0  0  0
    7.9821  -15.2041   22.1042 C   0  0  0  0  0  0  0  0  0  0  0  0
    9.2201  -14.9874   22.0618 O   0  0  0  0  0  0  0  0  0  0  0  0
    7.3932  -15.4216   23.3677 N   0  0  0  0  0  0  0  0  0  0  0  0
    8.0721  -15.3345   24.6224 C   0  0  1  0  0  0  0  0  0  0  0  0
    7.1206  -15.1097   25.7823 C   0  0  0  0  0  0  0  0  0  0  0  0
    6.9929  -13.6470   26.0703 C   0  0  0  0  0  0  0  0  0  0  0  0
    8.1186  -12.8733   26.2815 C   0  0  0  0  0  0  0  0  0  0  0  0
    8.0503  -11.5294   26.5484 C   0  0  0  0  0  0  0  0  0  0  0  0
    6.8288  -10.8895   26.6167 C   0  0  0  0  0  0  0  0  0  0  0  0
    5.6813  -11.6611   26.4049 C   0  0  0  0  0  0  0  0  0  0  0  0
    5.7698  -13.0119   26.1376 C   0  0  0  0  0  0  0  0  0  0  0  0
    8.7731  -16.6173   24.8862 C   0  0  0  0  0  0  0  0  0  0  0  0
    8.1126  -17.7072   24.9105 O   0  0  0  0  0  0  0  0  0  0  0  0
   12.3724  -17.5833   24.7602 C   0  0  0  0  0  0  0  0  0  0  0  0
   10.9346  -17.8936   25.1951 C   0  0  2  0  0  0  0  0  0  0  0  0
   10.1823  -16.6586   25.1154 N   0  0  0  0  0  0  0  0  0  0  0  0
   10.9201  -18.3807   26.5978 C   0  0  0  0  0  0  0  0  0  0  0  0
   10.3283  -17.6470   27.6166 O   0  0  0  0  0  0  0  0  0  0  0  0
   11.4425  -19.4671   26.8963 O   0  0  0  0  0  0  0  0  0  0  0  0
  2  1  1  6
  2  3  1  0
  4  6  1  0
  4  2  1  0
  5  4  2  0
  7  6  1  0
  7 15  1  0
  7  8  1  1
  9  8  1  0
  9 14  2  0
 10  9  1  0
 11 10  2  0
 11 12  1  0
 12 13  2  0
 13 14  1  0
 15 19  1  0
 16 15  2  0
 18 17  1  1
 18 20  1  0
 19 18  1  0
 20 21  1  0
 22 20  2  0
M  END
$$$$
