YQV.pdb
     RDKit          3D

 29 29  0  0  1  0  0  0  0  0999 V2000
    7.6428  -13.0222   15.8595 O   0  0  0  0  0  0  0  0  0  0  0  0
    7.7283  -13.4740   17.1642 C   0  0  0  0  0  0  0  0  0  0  0  0
    7.1530  -12.7362   18.2043 C   0  0  0  0  0  0  0  0  0  0  0  0
    7.2660  -13.2295   19.4859 C   0  0  0  0  0  0  0  0  0  0  0  0
    7.9211  -14.4083   19.7458 C   0  0  0  0  0  0  0  0  0  0  0  0
    8.0190  -14.8968   21.1172 C   0  0  0  0  0  0  0  0  0  0  0  0
    8.0596  -16.3943   21.2284 C   0  0  2  0  0  0  0  0  0  0  0  0
    6.7037  -16.8903   21.0271 N   0  0  0  0  0  0  0  0  0  0  0  0
    8.4654  -16.7413   22.6116 C   0  0  0  0  0  0  0  0  0  0  0  0
    7.5650  -16.9024   23.4704 O   0  0  0  0  0  0  0  0  0  0  0  0
    8.4771  -15.1119   18.7001 C   0  0  0  0  0  0  0  0  0  0  0  0
    8.3895  -14.6557   17.3921 C   0  0  0  0  0  0  0  0  0  0  0  0
   13.5279  -19.4591   23.5261 N   0  0  0  0  0  0  0  0  0  0  0  0
   12.3003  -20.0575   23.0848 C   0  0  0  0  0  0  0  0  0  0  0  0
   12.4108  -21.0559   22.3181 O   0  0  0  0  0  0  0  0  0  0  0  0
   10.9822  -19.5182   23.5166 C   0  0  0  0  0  0  0  0  0  0  0  0
   11.2508  -18.3005   24.3611 C   0  0  0  0  0  0  0  0  0  0  0  0
   10.1154  -17.3120   24.3475 C   0  0  2  0  0  0  0  0  0  0  0  0
    9.8165  -16.8990   23.0081 N   0  0  0  0  0  0  0  0  0  0  0  0
   10.3711  -16.1532   25.2503 C   0  0  0  0  0  0  0  0  0  0  0  0
   11.2472  -15.3348   24.9236 O   0  0  0  0  0  0  0  0  0  0  0  0
    8.1341  -13.4357   26.2983 C   0  0  0  0  0  0  0  0  0  0  0  0
    8.7168  -14.0010   27.5658 C   0  0  2  0  0  0  0  0  0  0  0  0
    9.1257  -12.8301   28.4347 C   0  0  0  0  0  0  0  0  0  0  0  0
    9.9213  -14.8608   27.3306 C   0  0  2  0  0  0  0  0  0  0  0  0
    9.6400  -15.9789   26.4531 N   0  0  0  0  0  0  0  0  0  0  0  0
   10.3773  -15.3915   28.6411 C   0  0  0  0  0  0  0  0  0  0  0  0
   10.3226  -16.7423   28.9547 O   0  0  0  0  0  0  0  0  0  0  0  0
   10.8377  -14.6239   29.5302 O   0  0  0  0  0  0  0  0  0  0  0  0
  2  1  1  0
  2  3  2  0
  4  3  1  0
  5  4  2  0
  6  5  1  0
  7  6  1  0
  7  8  1  1
  9  7  1  0
  9 10  2  0
 11 12  2  0
 11  5  1  0
 12  2  1  0
 14 16  1  0
 14 13  1  0
 15 14  2  0
 18 17  1  6
 17 16  1  0
 18 19  1  0
 19  9  1  0
 20 18  1  0
 21 20  2  0
 23 22  1  6
 23 25  1  0
 24 23  1  0
 25 26  1  6
 26 20  1  0
 27 25  1  0
 27 28  1  0
 29 27  2  0
M  END
$$$$
