YQV.pdb
     RDKit          3D

 29 29  0  0  1  0  0  0  0  0999 V2000
    9.3102  -12.1912   19.9623 O   0  0  0  0  0  0  0  0  0  0  0  0
    8.3797  -13.1706   20.2601 C   0  0  0  0  0  0  0  0  0  0  0  0
    7.9637  -14.0705   19.2730 C   0  0  0  0  0  0  0  0  0  0  0  0
    7.0349  -15.0271   19.6207 C   0  0  0  0  0  0  0  0  0  0  0  0
    6.5264  -15.1040   20.8942 C   0  0  0  0  0  0  0  0  0  0  0  0
    5.5442  -16.1320   21.2224 C   0  0  0  0  0  0  0  0  0  0  0  0
    6.1413  -17.4888   21.4648 C   0  0  2  0  0  0  0  0  0  0  0  0
    5.0444  -18.4435   21.5675 N   0  0  0  0  0  0  0  0  0  0  0  0
    6.8354  -17.4578   22.7746 C   0  0  0  0  0  0  0  0  0  0  0  0
    6.1485  -17.6137   23.8130 O   0  0  0  0  0  0  0  0  0  0  0  0
    6.9560  -14.2034   21.8440 C   0  0  0  0  0  0  0  0  0  0  0  0
    7.8898  -13.2220   21.5418 C   0  0  0  0  0  0  0  0  0  0  0  0
   12.6973  -19.3266   24.3540 N   0  0  0  0  0  0  0  0  0  0  0  0
   12.4887  -17.9806   23.9016 C   0  0  0  0  0  0  0  0  0  0  0  0
   13.4655  -17.1900   24.0349 O   0  0  0  0  0  0  0  0  0  0  0  0
   11.1889  -17.5594   23.3119 C   0  0  0  0  0  0  0  0  0  0  0  0
   10.0983  -18.2273   24.1072 C   0  0  0  0  0  0  0  0  0  0  0  0
    8.8438  -17.3999   24.1974 C   0  0  2  0  0  0  0  0  0  0  0  0
    8.2322  -17.2612   22.9088 N   0  0  0  0  0  0  0  0  0  0  0  0
    9.0883  -16.0816   24.8497 C   0  0  0  0  0  0  0  0  0  0  0  0
    9.6046  -15.1767   24.1724 O   0  0  0  0  0  0  0  0  0  0  0  0
    6.7295  -13.6294   25.9628 C   0  0  0  0  0  0  0  0  0  0  0  0
    7.6022  -13.9067   27.1575 C   0  0  2  0  0  0  0  0  0  0  0  0
    7.8822  -12.5783   27.8285 C   0  0  0  0  0  0  0  0  0  0  0  0
    8.9109  -14.5424   26.7989 C   0  0  2  0  0  0  0  0  0  0  0  0
    8.7448  -15.8542   26.2068 N   0  0  0  0  0  0  0  0  0  0  0  0
    9.7158  -14.6821   28.0396 C   0  0  0  0  0  0  0  0  0  0  0  0
   10.0797  -15.9191   28.5531 O   0  0  0  0  0  0  0  0  0  0  0  0
   10.1041  -13.6681   28.6819 O   0  0  0  0  0  0  0  0  0  0  0  0
  2  1  1  0
  2  3  2  0
  4  3  1  0
  5  4  2  0
  6  5  1  0
  7  6  1  0
  7  8  1  1
  9  7  1  0
  9 10  2  0
 11 12  2  0
 11  5  1  0
 12  2  1  0
 14 16  1  0
 14 13  1  0
 15 14  2  0
 18 17  1  6
 17 16  1  0
 18 19  1  0
 19  9  1  0
 20 18  1  0
 21 20  2  0
 23 22  1  6
 23 25  1  0
 24 23  1  0
 25 26  1  1
 26 20  1  0
 27 25  1  0
 27 28  1  0
 29 27  2  0
M  END
$$$$
