YQV.pdb
     RDKit          3D

 29 29  0  0  1  0  0  0  0  0999 V2000
    8.6361  -12.6187   16.5826 O   0  0  0  0  0  0  0  0  0  0  0  0
    8.1111  -13.1932   17.7263 C   0  0  0  0  0  0  0  0  0  0  0  0
    8.5734  -12.8015   18.9873 C   0  0  0  0  0  0  0  0  0  0  0  0
    8.0181  -13.4041   20.0950 C   0  0  0  0  0  0  0  0  0  0  0  0
    7.0400  -14.3610   19.9766 C   0  0  0  0  0  0  0  0  0  0  0  0
    6.4772  -14.9754   21.1744 C   0  0  0  0  0  0  0  0  0  0  0  0
    6.6967  -16.4590   21.2579 C   0  0  2  0  0  0  0  0  0  0  0  0
    5.5005  -17.1135   20.7424 N   0  0  0  0  0  0  0  0  0  0  0  0
    6.8286  -16.8240   22.6889 C   0  0  0  0  0  0  0  0  0  0  0  0
    5.8034  -16.7721   23.4104 O   0  0  0  0  0  0  0  0  0  0  0  0
    6.6058  -14.7252   18.7209 C   0  0  0  0  0  0  0  0  0  0  0  0
    7.1347  -14.1468   17.5754 C   0  0  0  0  0  0  0  0  0  0  0  0
    6.5894  -20.1690   26.1573 N   0  0  0  0  0  0  0  0  0  0  0  0
    7.6400  -19.6700   26.9981 C   0  0  0  0  0  0  0  0  0  0  0  0
    7.4305  -19.7234   28.2432 O   0  0  0  0  0  0  0  0  0  0  0  0
    8.8972  -19.1247   26.4177 C   0  0  0  0  0  0  0  0  0  0  0  0
    8.6413  -18.8668   24.9563 C   0  0  0  0  0  0  0  0  0  0  0  0
    8.1065  -17.4856   24.6865 C   0  0  2  0  0  0  0  0  0  0  0  0
    8.0526  -17.2271   23.2780 N   0  0  0  0  0  0  0  0  0  0  0  0
    8.8685  -16.4365   25.4228 C   0  0  0  0  0  0  0  0  0  0  0  0
   10.0643  -16.2647   25.1323 O   0  0  0  0  0  0  0  0  0  0  0  0
    7.4232  -12.7979   26.6561 C   0  0  0  0  0  0  0  0  0  0  0  0
    8.1642  -13.5662   27.7174 C   0  0  2  0  0  0  0  0  0  0  0  0
    9.0546  -12.5821   28.4467 C   0  0  0  0  0  0  0  0  0  0  0  0
    9.0226  -14.6621   27.1629 C   0  0  2  0  0  0  0  0  0  0  0  0
    8.2553  -15.6489   26.4304 N   0  0  0  0  0  0  0  0  0  0  0  0
    9.7032  -15.3389   28.2968 C   0  0  0  0  0  0  0  0  0  0  0  0
   10.8903  -14.8664   28.8389 O   0  0  0  0  0  0  0  0  0  0  0  0
    9.2215  -16.3826   28.8166 O   0  0  0  0  0  0  0  0  0  0  0  0
  2  1  1  0
  2  3  2  0
  4  3  1  0
  5  4  2  0
  6  5  1  0
  7  6  1  0
  7  8  1  1
  9  7  1  0
  9 10  2  0
 11 12  2  0
 11  5  1  0
 12  2  1  0
 14 16  1  0
 14 13  1  0
 15 14  2  0
 18 17  1  6
 17 16  1  0
 18 19  1  0
 19  9  1  0
 20 18  1  0
 21 20  2  0
 23 22  1  6
 23 25  1  0
 24 23  1  0
 25 26  1  1
 26 20  1  0
 27 25  1  0
 27 28  1  0
 29 27  2  0
M  END
$$$$
