YQV.pdb
     RDKit          3D

 29 29  0  0  1  0  0  0  0  0999 V2000
    7.6667  -12.6779   15.9201 O   0  0  0  0  0  0  0  0  0  0  0  0
    7.7377  -13.2073   17.1962 C   0  0  0  0  0  0  0  0  0  0  0  0
    8.8332  -13.9912   17.5738 C   0  0  0  0  0  0  0  0  0  0  0  0
    8.8560  -14.4949   18.8561 C   0  0  0  0  0  0  0  0  0  0  0  0
    7.8398  -14.2415   19.7447 C   0  0  0  0  0  0  0  0  0  0  0  0
    7.9015  -14.7935   21.0940 C   0  0  0  0  0  0  0  0  0  0  0  0
    8.1096  -16.2806   21.1343 C   0  0  2  0  0  0  0  0  0  0  0  0
    6.8996  -16.9113   20.6213 N   0  0  0  0  0  0  0  0  0  0  0  0
    8.2616  -16.6848   22.5527 C   0  0  0  0  0  0  0  0  0  0  0  0
    7.2321  -16.7342   23.2682 O   0  0  0  0  0  0  0  0  0  0  0  0
    6.7746  -13.4660   19.3428 C   0  0  0  0  0  0  0  0  0  0  0  0
    6.7066  -12.9364   18.0616 C   0  0  0  0  0  0  0  0  0  0  0  0
   12.3435  -20.1690   25.6676 N   0  0  0  0  0  0  0  0  0  0  0  0
   12.5426  -19.6123   24.3598 C   0  0  0  0  0  0  0  0  0  0  0  0
   13.6724  -19.8181   23.8324 O   0  0  0  0  0  0  0  0  0  0  0  0
   11.4675  -18.8398   23.6801 C   0  0  0  0  0  0  0  0  0  0  0  0
   10.3191  -18.7234   24.6472 C   0  0  0  0  0  0  0  0  0  0  0  0
    9.5594  -17.4312   24.5071 C   0  0  2  0  0  0  0  0  0  0  0  0
    9.5094  -17.0166   23.1362 N   0  0  0  0  0  0  0  0  0  0  0  0
   10.0993  -16.3649   25.3986 C   0  0  0  0  0  0  0  0  0  0  0  0
   10.9977  -15.6283   24.9578 O   0  0  0  0  0  0  0  0  0  0  0  0
    8.4575  -13.4031   26.7132 C   0  0  0  0  0  0  0  0  0  0  0  0
    9.0262  -14.1243   27.9057 C   0  0  2  0  0  0  0  0  0  0  0  0
    9.6203  -13.0771   28.8241 C   0  0  0  0  0  0  0  0  0  0  0  0
   10.1008  -15.1049   27.5463 C   0  0  2  0  0  0  0  0  0  0  0  0
    9.6082  -16.1861   26.7171 N   0  0  0  0  0  0  0  0  0  0  0  0
   10.6431  -15.6823   28.8030 C   0  0  0  0  0  0  0  0  0  0  0  0
   11.5028  -14.9771   29.6336 O   0  0  0  0  0  0  0  0  0  0  0  0
   10.3386  -16.8511   29.1676 O   0  0  0  0  0  0  0  0  0  0  0  0
  2  1  1  0
  2  3  2  0
  4  3  1  0
  5  4  2  0
  6  5  1  0
  7  6  1  0
  7  8  1  1
  9  7  1  0
  9 10  2  0
 11 12  2  0
 11  5  1  0
 12  2  1  0
 14 16  1  0
 14 13  1  0
 15 14  2  0
 18 17  1  6
 17 16  1  0
 18 19  1  0
 19  9  1  0
 20 18  1  0
 21 20  2  0
 23 22  1  6
 23 25  1  0
 24 23  1  0
 25 26  1  6
 26 20  1  0
 27 25  1  0
 27 28  1  0
 29 27  2  0
M  END
$$$$
