YQV.pdb
     RDKit          3D

 29 29  0  0  1  0  0  0  0  0999 V2000
    7.3706  -12.0373   16.5903 O   0  0  0  0  0  0  0  0  0  0  0  0
    7.5788  -12.7408   17.7631 C   0  0  0  0  0  0  0  0  0  0  0  0
    8.8793  -12.9753   18.2225 C   0  0  0  0  0  0  0  0  0  0  0  0
    9.0327  -13.6810   19.3959 C   0  0  0  0  0  0  0  0  0  0  0  0
    7.9493  -14.1448   20.1012 C   0  0  0  0  0  0  0  0  0  0  0  0
    8.1541  -14.8884   21.3398 C   0  0  0  0  0  0  0  0  0  0  0  0
    8.9319  -16.1613   21.1639 C   0  0  2  0  0  0  0  0  0  0  0  0
    8.1156  -17.0734   20.3722 N   0  0  0  0  0  0  0  0  0  0  0  0
    9.1214  -16.7722   22.5016 C   0  0  0  0  0  0  0  0  0  0  0  0
    8.1173  -17.2509   23.0819 O   0  0  0  0  0  0  0  0  0  0  0  0
    6.6813  -13.8978   19.6227 C   0  0  0  0  0  0  0  0  0  0  0  0
    6.4759  -13.1915   18.4456 C   0  0  0  0  0  0  0  0  0  0  0  0
   14.0201  -19.1073   23.1643 N   0  0  0  0  0  0  0  0  0  0  0  0
   12.7739  -18.8366   22.5057 C   0  0  0  0  0  0  0  0  0  0  0  0
   12.8472  -18.2164   21.4071 O   0  0  0  0  0  0  0  0  0  0  0  0
   11.4797  -19.2697   23.0989 C   0  0  0  0  0  0  0  0  0  0  0  0
   11.3689  -18.6230   24.4544 C   0  0  0  0  0  0  0  0  0  0  0  0
   10.4638  -17.4200   24.4611 C   0  0  2  0  0  0  0  0  0  0  0  0
   10.3778  -16.8408   23.1530 N   0  0  0  0  0  0  0  0  0  0  0  0
   10.8663  -16.4222   25.4934 C   0  0  0  0  0  0  0  0  0  0  0  0
   11.7644  -15.6117   25.2098 O   0  0  0  0  0  0  0  0  0  0  0  0
    8.6762  -13.8585   26.9981 C   0  0  0  0  0  0  0  0  0  0  0  0
    9.3588  -14.5632   28.1397 C   0  0  2  0  0  0  0  0  0  0  0  0
    9.7932  -13.5019   29.1287 C   0  0  0  0  0  0  0  0  0  0  0  0
   10.5679  -15.3406   27.7163 C   0  0  2  0  0  0  0  0  0  0  0  0
   10.2476  -16.3892   26.7692 N   0  0  0  0  0  0  0  0  0  0  0  0
   11.1682  -15.9621   28.9246 C   0  0  0  0  0  0  0  0  0  0  0  0
   11.9744  -15.2510   29.8025 O   0  0  0  0  0  0  0  0  0  0  0  0
   10.9651  -17.1758   29.2022 O   0  0  0  0  0  0  0  0  0  0  0  0
  2  1  1  0
  2  3  2  0
  4  3  1  0
  5  4  2  0
  6  5  1  0
  7  6  1  0
  7  8  1  6
  9  7  1  0
  9 10  2  0
 11 12  2  0
 11  5  1  0
 12  2  1  0
 14 16  1  0
 14 13  1  0
 15 14  2  0
 18 17  1  6
 17 16  1  0
 18 19  1  0
 19  9  1  0
 20 18  1  0
 21 20  2  0
 23 22  1  6
 23 25  1  0
 24 23  1  0
 25 26  1  6
 26 20  1  0
 27 25  1  0
 27 28  1  0
 29 27  2  0
M  END
$$$$
