YQV.pdb
     RDKit          3D

 29 29  0  0  1  0  0  0  0  0999 V2000
    7.9084  -12.0870   16.9484 O   0  0  0  0  0  0  0  0  0  0  0  0
    8.0064  -12.8457   18.1010 C   0  0  0  0  0  0  0  0  0  0  0  0
    9.2594  -13.2518   18.5727 C   0  0  0  0  0  0  0  0  0  0  0  0
    9.3027  -14.0060   19.7250 C   0  0  0  0  0  0  0  0  0  0  0  0
    8.1572  -14.3543   20.3980 C   0  0  0  0  0  0  0  0  0  0  0  0
    8.2456  -15.1543   21.6151 C   0  0  0  0  0  0  0  0  0  0  0  0
    8.8772  -16.5021   21.4129 C   0  0  2  0  0  0  0  0  0  0  0  0
    8.0008  -17.2759   20.5423 N   0  0  0  0  0  0  0  0  0  0  0  0
    8.9269  -17.1877   22.7266 C   0  0  0  0  0  0  0  0  0  0  0  0
    8.1444  -18.1486   22.9232 O   0  0  0  0  0  0  0  0  0  0  0  0
    6.9384  -13.9391   19.9082 C   0  0  0  0  0  0  0  0  0  0  0  0
    6.8437  -13.1779   18.7514 C   0  0  0  0  0  0  0  0  0  0  0  0
   10.7072  -21.5776   24.5654 N   0  0  0  0  0  0  0  0  0  0  0  0
   11.7500  -20.6479   24.2364 C   0  0  0  0  0  0  0  0  0  0  0  0
   12.8454  -21.1504   23.8562 O   0  0  0  0  0  0  0  0  0  0  0  0
   11.5341  -19.1794   24.3436 C   0  0  0  0  0  0  0  0  0  0  0  0
   10.1206  -18.9674   24.8181 C   0  0  0  0  0  0  0  0  0  0  0  0
    9.7765  -17.5150   25.0140 C   0  0  2  0  0  0  0  0  0  0  0  0
    9.8125  -16.8109   23.7663 N   0  0  0  0  0  0  0  0  0  0  0  0
   10.6348  -16.8709   26.0492 C   0  0  0  0  0  0  0  0  0  0  0  0
   11.7268  -16.3951   25.6953 O   0  0  0  0  0  0  0  0  0  0  0  0
    9.5080  -13.9410   27.8511 C   0  0  0  0  0  0  0  0  0  0  0  0
   10.0592  -14.8655   28.9034 C   0  0  2  0  0  0  0  0  0  0  0  0
   10.8871  -14.0248   29.8524 C   0  0  0  0  0  0  0  0  0  0  0  0
   10.9323  -15.9463   28.3420 C   0  0  2  0  0  0  0  0  0  0  0  0
   10.2264  -16.7971   27.4054 N   0  0  0  0  0  0  0  0  0  0  0  0
   11.4180  -16.7842   29.4684 C   0  0  0  0  0  0  0  0  0  0  0  0
   10.9860  -18.0887   29.6633 O   0  0  0  0  0  0  0  0  0  0  0  0
   12.2524  -16.3357   30.3015 O   0  0  0  0  0  0  0  0  0  0  0  0
  2  1  1  0
  2  3  2  0
  4  3  1  0
  5  4  2  0
  6  5  1  0
  7  6  1  0
  7  8  1  6
  9  7  1  0
  9 10  2  0
 11 12  2  0
 11  5  1  0
 12  2  1  0
 14 16  1  0
 14 13  1  0
 15 14  2  0
 18 17  1  6
 17 16  1  0
 18 19  1  0
 19  9  1  0
 20 18  1  0
 21 20  2  0
 23 22  1  6
 23 25  1  0
 24 23  1  0
 25 26  1  6
 26 20  1  0
 27 25  1  0
 27 28  1  0
 29 27  2  0
M  END
$$$$
