YQV.pdb
     RDKit          3D

 29 29  0  0  1  0  0  0  0  0999 V2000
   11.8411  -21.0271   30.9102 O   0  0  0  0  0  0  0  0  0  0  0  0
   11.8370  -20.0362   29.9449 C   0  0  0  0  0  0  0  0  0  0  0  0
   12.8249  -19.0456   29.9479 C   0  0  0  0  0  0  0  0  0  0  0  0
   12.7762  -18.0813   28.9650 C   0  0  0  0  0  0  0  0  0  0  0  0
   11.7925  -18.0828   28.0065 C   0  0  0  0  0  0  0  0  0  0  0  0
   11.7759  -17.0437   26.9823 C   0  0  0  0  0  0  0  0  0  0  0  0
   12.0272  -17.5551   25.5924 C   0  0  2  0  0  0  0  0  0  0  0  0
   13.4577  -17.4481   25.3330 N   0  0  0  0  0  0  0  0  0  0  0  0
   11.3286  -16.6589   24.6400 C   0  0  0  0  0  0  0  0  0  0  0  0
   11.8509  -15.5482   24.3797 O   0  0  0  0  0  0  0  0  0  0  0  0
   10.8338  -19.0718   28.0303 C   0  0  0  0  0  0  0  0  0  0  0  0
   10.8408  -20.0645   29.0003 C   0  0  0  0  0  0  0  0  0  0  0  0
    7.0993  -17.3704   20.1949 N   0  0  0  0  0  0  0  0  0  0  0  0
    6.8354  -16.0173   20.5941 C   0  0  0  0  0  0  0  0  0  0  0  0
    5.9793  -15.3905   19.9078 O   0  0  0  0  0  0  0  0  0  0  0  0
    7.5402  -15.4053   21.7531 C   0  0  0  0  0  0  0  0  0  0  0  0
    8.4600  -16.4529   22.3227 C   0  0  0  0  0  0  0  0  0  0  0  0
    9.2678  -15.9551   23.4916 C   0  0  2  0  0  0  0  0  0  0  0  0
   10.1039  -16.9960   24.0123 N   0  0  0  0  0  0  0  0  0  0  0  0
    8.4089  -15.3424   24.5453 C   0  0  0  0  0  0  0  0  0  0  0  0
    8.0799  -16.0432   25.5172 O   0  0  0  0  0  0  0  0  0  0  0  0
    7.7820  -11.0886   25.1203 C   0  0  0  0  0  0  0  0  0  0  0  0
    6.6256  -12.0518   25.0901 C   0  0  2  0  0  0  0  0  0  0  0  0
    5.6276  -11.5897   26.1310 C   0  0  0  0  0  0  0  0  0  0  0  0
    7.0224  -13.4618   25.4061 C   0  0  2  0  0  0  0  0  0  0  0  0
    7.9728  -13.9961   24.4519 N   0  0  0  0  0  0  0  0  0  0  0  0
    5.8004  -14.3061   25.3796 C   0  0  0  0  0  0  0  0  0  0  0  0
    5.0242  -14.5242   26.5092 O   0  0  0  0  0  0  0  0  0  0  0  0
    5.4170  -14.8642   24.3151 O   0  0  0  0  0  0  0  0  0  0  0  0
  2  1  1  0
  2  3  2  0
  4  3  1  0
  5  4  2  0
  6  5  1  0
  7  6  1  0
  7  8  1  6
  9  7  1  0
  9 10  2  0
 11 12  2  0
 11  5  1  0
 12  2  1  0
 14 16  1  0
 14 13  1  0
 15 14  2  0
 18 17  1  6
 17 16  1  0
 18 19  1  0
 19  9  1  0
 20 18  1  0
 21 20  2  0
 23 22  1  1
 23 25  1  0
 24 23  1  0
 25 26  1  6
 26 20  1  0
 27 25  1  0
 27 28  1  0
 29 27  2  0
M  END
$$$$
