GHV.pdb
     RDKit          3D

 22 22  0  0  1  0  0  0  0  0999 V2000
   19.6126  -10.3008  -20.6929 N   0  0  0  0  0  0  0  0  0  0  0  0
   20.3846   -9.1453  -20.2918 C   0  0  0  0  0  0  0  0  0  0  0  0
   20.1975   -8.8665  -18.8459 C   0  0  0  0  0  0  0  0  0  0  0  0
   19.0886   -8.4517  -18.3975 O   0  0  0  0  0  0  0  0  0  0  0  0
   21.2850   -9.0728  -17.9710 N   0  0  0  0  0  0  0  0  0  0  0  0
   21.1083   -8.8455  -16.5429 C   0  0  1  0  0  0  0  0  0  0  0  0
   21.3684  -10.1047  -15.7560 C   0  0  0  0  0  0  0  0  0  0  0  0
   20.3095  -11.1129  -15.9852 C   0  0  0  0  0  0  0  0  0  0  0  0
   19.0556  -11.1184  -15.4074 C   0  0  0  0  0  0  0  0  0  0  0  0
   18.3913  -12.1937  -15.8678 N   0  0  0  0  0  0  0  0  0  0  0  0
   19.1838  -12.8735  -16.7214 C   0  0  0  0  0  0  0  0  0  0  0  0
   20.3454  -12.1956  -16.7758 N   0  0  0  0  0  0  0  0  0  0  0  0
   21.9410   -7.6988  -16.1393 C   0  0  0  0  0  0  0  0  0  0  0  0
   23.1666   -7.7401  -16.4120 O   0  0  0  0  0  0  0  0  0  0  0  0
   22.2168   -4.3942  -17.4209 C   0  0  0  0  0  0  0  0  0  0  0  0
   21.9979   -4.2293  -15.9446 C   0  0  1  0  0  0  0  0  0  0  0  0
   20.5617   -3.8503  -15.6600 C   0  0  0  0  0  0  0  0  0  0  0  0
   22.3052   -5.4852  -15.1633 C   0  0  2  0  0  0  0  0  0  0  0  0
   21.4176   -6.5621  -15.4620 N   0  0  0  0  0  0  0  0  0  0  0  0
   22.1747   -5.1489  -13.7225 C   0  0  0  0  0  0  0  0  0  0  0  0
   21.2055   -5.5862  -13.0450 O   0  0  0  0  0  0  0  0  0  0  0  0
   23.1216   -4.3469  -13.1049 O   0  0  0  0  0  0  0  0  0  0  0  0
  2  1  1  0
  3  5  1  0
  3  2  1  0
  4  3  2  0
  6  5  1  0
  6 13  1  0
  6  7  1  1
  8  7  1  0
  9  8  2  0
 10  9  1  0
 10 11  1  0
 11 12  2  0
 12  8  1  0
 13 19  1  0
 13 14  2  0
 16 15  1  6
 16 17  1  0
 18 16  1  0
 18 19  1  6
 20 18  1  0
 20 22  1  0
 21 20  2  0
M  END
$$$$
