GHV.pdb
     RDKit          3D

 22 22  0  0  1  0  0  0  0  0999 V2000
   29.7909  -34.6344  -15.8807 N   0  0  0  0  0  0  0  0  0  0  0  0
   28.3603  -34.5399  -16.0715 C   0  0  0  0  0  0  0  0  0  0  0  0
   27.7876  -33.4682  -15.2190 C   0  0  0  0  0  0  0  0  0  0  0  0
   28.5154  -32.8075  -14.4211 O   0  0  0  0  0  0  0  0  0  0  0  0
   26.4066  -33.1946  -15.3128 N   0  0  0  0  0  0  0  0  0  0  0  0
   25.8087  -32.2126  -14.4181 C   0  0  1  0  0  0  0  0  0  0  0  0
   24.8017  -31.3578  -15.1445 C   0  0  0  0  0  0  0  0  0  0  0  0
   25.4212  -30.6437  -16.2832 C   0  0  0  0  0  0  0  0  0  0  0  0
   26.7527  -30.6939  -16.6449 C   0  0  0  0  0  0  0  0  0  0  0  0
   26.9185  -29.9120  -17.7269 N   0  0  0  0  0  0  0  0  0  0  0  0
   25.7332  -29.3651  -18.0656 C   0  0  0  0  0  0  0  0  0  0  0  0
   24.8382  -29.8258  -17.1719 N   0  0  0  0  0  0  0  0  0  0  0  0
   25.2678  -32.9128  -13.2399 C   0  0  0  0  0  0  0  0  0  0  0  0
   24.9662  -34.1258  -13.3667 O   0  0  0  0  0  0  0  0  0  0  0  0
   24.8000  -33.4146   -8.3846 C   0  0  0  0  0  0  0  0  0  0  0  0
   25.2485  -32.5885   -9.5555 C   0  0  1  0  0  0  0  0  0  0  0  0
   26.7570  -32.5981   -9.6649 C   0  0  0  0  0  0  0  0  0  0  0  0
   24.6893  -33.0826  -10.8689 C   0  0  2  0  0  0  0  0  0  0  0  0
   25.0765  -32.2769  -11.9814 N   0  0  0  0  0  0  0  0  0  0  0  0
   23.2087  -33.0529  -10.7545 C   0  0  0  0  0  0  0  0  0  0  0  0
   22.5979  -33.9252  -10.0795 O   0  0  0  0  0  0  0  0  0  0  0  0
   22.4796  -32.0611  -11.3918 O   0  0  0  0  0  0  0  0  0  0  0  0
  2  1  1  0
  3  5  1  0
  3  2  1  0
  4  3  2  0
  6  5  1  0
  6 13  1  0
  6  7  1  6
  8  7  1  0
  9  8  2  0
 10  9  1  0
 10 11  1  0
 11 12  2  0
 12  8  1  0
 13 19  1  0
 13 14  2  0
 16 15  1  1
 16 17  1  0
 18 16  1  0
 18 19  1  6
 20 18  1  0
 20 22  1  0
 21 20  2  0
M  END
$$$$
