GHV.pdb
     RDKit          3D

 22 22  0  0  1  0  0  0  0  0999 V2000
   29.0170  -22.2355  -16.1288 N   0  0  0  0  0  0  0  0  0  0  0  0
   28.0638  -21.1615  -15.9557 C   0  0  0  0  0  0  0  0  0  0  0  0
   27.1150  -21.4750  -14.8581 C   0  0  0  0  0  0  0  0  0  0  0  0
   26.4576  -22.5569  -14.8503 O   0  0  0  0  0  0  0  0  0  0  0  0
   26.9557  -20.5395  -13.8139 N   0  0  0  0  0  0  0  0  0  0  0  0
   26.0490  -20.8413  -12.7143 C   0  0  1  0  0  0  0  0  0  0  0  0
   26.6024  -20.3466  -11.4023 C   0  0  0  0  0  0  0  0  0  0  0  0
   27.9287  -20.9388  -11.1184 C   0  0  0  0  0  0  0  0  0  0  0  0
   28.6209  -21.8089  -11.9369 C   0  0  0  0  0  0  0  0  0  0  0  0
   29.7802  -22.1174  -11.3284 N   0  0  0  0  0  0  0  0  0  0  0  0
   29.8478  -21.4704  -10.1471 C   0  0  0  0  0  0  0  0  0  0  0  0
   28.7093  -20.7599  -10.0425 N   0  0  0  0  0  0  0  0  0  0  0  0
   24.7133  -20.3131  -13.0434 C   0  0  0  0  0  0  0  0  0  0  0  0
   24.6353  -19.1240  -13.4412 O   0  0  0  0  0  0  0  0  0  0  0  0
   22.4912  -21.1076  -15.7685 C   0  0  0  0  0  0  0  0  0  0  0  0
   21.6627  -21.2053  -14.5201 C   0  0  1  0  0  0  0  0  0  0  0  0
   21.4571  -22.6525  -14.1316 C   0  0  0  0  0  0  0  0  0  0  0  0
   22.2924  -20.4984  -13.3428 C   0  0  2  0  0  0  0  0  0  0  0  0
   23.5248  -21.0873  -12.9294 N   0  0  0  0  0  0  0  0  0  0  0  0
   21.3277  -20.5774  -12.2162 C   0  0  0  0  0  0  0  0  0  0  0  0
   21.5480  -21.3347  -11.2325 O   0  0  0  0  0  0  0  0  0  0  0  0
   20.1698  -19.8158  -12.2347 O   0  0  0  0  0  0  0  0  0  0  0  0
  2  1  1  0
  3  5  1  0
  3  2  1  0
  4  3  2  0
  6  5  1  0
  6 13  1  0
  6  7  1  1
  8  7  1  0
  9  8  2  0
 10  9  1  0
 10 11  1  0
 11 12  2  0
 12  8  1  0
 13 19  1  0
 13 14  2  0
 16 15  1  6
 16 17  1  0
 18 16  1  0
 18 19  1  1
 20 18  1  0
 20 22  1  0
 21 20  2  0
M  END
$$$$
