GHV.pdb
     RDKit          3D

 22 22  0  0  1  0  0  0  0  0999 V2000
   27.0317  -21.3521  -18.3877 N   0  0  0  0  0  0  0  0  0  0  0  0
   25.6082  -21.4017  -18.1362 C   0  0  0  0  0  0  0  0  0  0  0  0
   25.2754  -20.7036  -16.8693 C   0  0  0  0  0  0  0  0  0  0  0  0
   26.1844  -20.2538  -16.1115 O   0  0  0  0  0  0  0  0  0  0  0  0
   23.9174  -20.5477  -16.5194 N   0  0  0  0  0  0  0  0  0  0  0  0
   23.5638  -19.7246  -15.3706 C   0  0  1  0  0  0  0  0  0  0  0  0
   22.2992  -18.9458  -15.6288 C   0  0  0  0  0  0  0  0  0  0  0  0
   22.5337  -17.8354  -16.5788 C   0  0  0  0  0  0  0  0  0  0  0  0
   23.7595  -17.4338  -17.0710 C   0  0  0  0  0  0  0  0  0  0  0  0
   23.5531  -16.3969  -17.9028 N   0  0  0  0  0  0  0  0  0  0  0  0
   22.2331  -16.1257  -17.9556 C   0  0  0  0  0  0  0  0  0  0  0  0
   21.6344  -17.0148  -17.1414 N   0  0  0  0  0  0  0  0  0  0  0  0
   23.5111  -20.5810  -14.1727 C   0  0  0  0  0  0  0  0  0  0  0  0
   22.9351  -21.6930  -14.2725 O   0  0  0  0  0  0  0  0  0  0  0  0
   26.4823  -21.1452  -11.5414 C   0  0  0  0  0  0  0  0  0  0  0  0
   25.1468  -21.0076  -10.8691 C   0  0  1  0  0  0  0  0  0  0  0  0
   25.0377  -19.6684  -10.1747 C   0  0  0  0  0  0  0  0  0  0  0  0
   23.9908  -21.1199  -11.8351 C   0  0  2  0  0  0  0  0  0  0  0  0
   24.0797  -20.2023  -12.9244 N   0  0  0  0  0  0  0  0  0  0  0  0
   22.7505  -20.8299  -11.0709 C   0  0  0  0  0  0  0  0  0  0  0  0
   22.1588  -19.7241  -11.2005 O   0  0  0  0  0  0  0  0  0  0  0  0
   22.2283  -21.7765  -10.2035 O   0  0  0  0  0  0  0  0  0  0  0  0
  2  1  1  0
  3  5  1  0
  3  2  1  0
  4  3  2  0
  6  5  1  0
  6 13  1  0
  6  7  1  6
  8  7  1  0
  9  8  2  0
 10  9  1  0
 10 11  1  0
 11 12  2  0
 12  8  1  0
 13 19  1  0
 13 14  2  0
 16 15  1  6
 16 17  1  0
 18 16  1  0
 18 19  1  6
 20 18  1  0
 20 22  1  0
 21 20  2  0
M  END
$$$$
