GHV.pdb
     RDKit          3D

 22 22  0  0  1  0  0  0  0  0999 V2000
   13.4200  -11.6791  -10.4895 N   0  0  0  0  0  0  0  0  0  0  0  0
   14.3697  -11.0258   -9.6159 C   0  0  0  0  0  0  0  0  0  0  0  0
   14.7101   -9.6751  -10.1286 C   0  0  0  0  0  0  0  0  0  0  0  0
   14.2837   -9.2746  -11.2515 O   0  0  0  0  0  0  0  0  0  0  0  0
   15.5237   -8.8365   -9.3377 N   0  0  0  0  0  0  0  0  0  0  0  0
   15.7966   -7.4765   -9.7828 C   0  0  1  0  0  0  0  0  0  0  0  0
   15.4542   -6.4745   -8.7098 C   0  0  0  0  0  0  0  0  0  0  0  0
   15.6840   -5.0878   -9.1731 C   0  0  0  0  0  0  0  0  0  0  0  0
   16.1936   -4.7166  -10.4014 C   0  0  0  0  0  0  0  0  0  0  0  0
   16.2491   -3.3731  -10.4387 N   0  0  0  0  0  0  0  0  0  0  0  0
   15.7905   -2.8769   -9.2715 C   0  0  0  0  0  0  0  0  0  0  0  0
   15.4529   -3.9404   -8.5184 N   0  0  0  0  0  0  0  0  0  0  0  0
   17.1907   -7.4032  -10.2542 C   0  0  0  0  0  0  0  0  0  0  0  0
   18.1044   -7.5861   -9.4115 O   0  0  0  0  0  0  0  0  0  0  0  0
   20.7255   -8.1902  -13.3500 C   0  0  0  0  0  0  0  0  0  0  0  0
   19.2812   -8.2294  -12.9414 C   0  0  1  0  0  0  0  0  0  0  0  0
   18.9492   -9.5544  -12.2920 C   0  0  0  0  0  0  0  0  0  0  0  0
   18.9192   -7.1353  -11.9646 C   0  0  2  0  0  0  0  0  0  0  0  0
   17.5373   -7.1369  -11.6084 N   0  0  0  0  0  0  0  0  0  0  0  0
   19.2390   -5.8402  -12.6178 C   0  0  0  0  0  0  0  0  0  0  0  0
   18.3435   -5.1810  -13.2121 O   0  0  0  0  0  0  0  0  0  0  0  0
   20.5314   -5.3407  -12.5807 O   0  0  0  0  0  0  0  0  0  0  0  0
  2  1  1  0
  3  5  1  0
  3  2  1  0
  4  3  2  0
  6  5  1  0
  6 13  1  0
  6  7  1  1
  8  7  1  0
  9  8  2  0
 10  9  1  0
 10 11  1  0
 11 12  2  0
 12  8  1  0
 13 19  1  0
 13 14  2  0
 16 15  1  1
 16 17  1  0
 18 16  1  0
 18 19  1  6
 20 18  1  0
 20 22  1  0
 21 20  2  0
M  END
$$$$
