GHV.pdb
     RDKit          3D

 22 22  0  0  1  0  0  0  0  0999 V2000
   21.0691  -21.4421  -22.7458 N   0  0  0  0  0  0  0  0  0  0  0  0
   20.7782  -20.2172  -22.0337 C   0  0  0  0  0  0  0  0  0  0  0  0
   20.6883  -20.4688  -20.5736 C   0  0  0  0  0  0  0  0  0  0  0  0
   20.6245  -21.6472  -20.1151 O   0  0  0  0  0  0  0  0  0  0  0  0
   20.6751  -19.3637  -19.6963 N   0  0  0  0  0  0  0  0  0  0  0  0
   20.4948  -19.5856  -18.2679 C   0  0  1  0  0  0  0  0  0  0  0  0
   21.6183  -18.9668  -17.4758 C   0  0  0  0  0  0  0  0  0  0  0  0
   22.9388  -19.4146  -17.9718 C   0  0  0  0  0  0  0  0  0  0  0  0
   23.1608  -20.2441  -19.0530 C   0  0  0  0  0  0  0  0  0  0  0  0
   24.4892  -20.4135  -19.1801 N   0  0  0  0  0  0  0  0  0  0  0  0
   25.1204  -19.7173  -18.2128 C   0  0  0  0  0  0  0  0  0  0  0  0
   24.1551  -19.1182  -17.4908 N   0  0  0  0  0  0  0  0  0  0  0  0
   19.1532  -19.1147  -17.8811 C   0  0  0  0  0  0  0  0  0  0  0  0
   18.8583  -17.9188  -18.1282 O   0  0  0  0  0  0  0  0  0  0  0  0
   16.0858  -19.8548  -19.4014 C   0  0  0  0  0  0  0  0  0  0  0  0
   15.8452  -20.1049  -17.9405 C   0  0  1  0  0  0  0  0  0  0  0  0
   15.8733  -21.5878  -17.6443 C   0  0  0  0  0  0  0  0  0  0  0  0
   16.8733  -19.4400  -17.0557 C   0  0  2  0  0  0  0  0  0  0  0  0
   18.1920  -19.9509  -17.2473 N   0  0  0  0  0  0  0  0  0  0  0  0
   16.4682  -19.6889  -15.6485 C   0  0  0  0  0  0  0  0  0  0  0  0
   15.4561  -19.1174  -15.1597 O   0  0  0  0  0  0  0  0  0  0  0  0
   17.2019  -20.5561  -14.8544 O   0  0  0  0  0  0  0  0  0  0  0  0
  2  1  1  0
  3  5  1  0
  3  2  1  0
  4  3  2  0
  6  5  1  0
  6 13  1  0
  6  7  1  1
  8  7  1  0
  9  8  2  0
 10  9  1  0
 10 11  1  0
 11 12  2  0
 12  8  1  0
 13 19  1  0
 13 14  2  0
 16 15  1  6
 16 17  1  0
 18 16  1  0
 18 19  1  1
 20 18  1  0
 20 22  1  0
 21 20  2  0
M  END
$$$$
