GHV.pdb
     RDKit          3D

 22 22  0  0  1  0  0  0  0  0999 V2000
   14.5741   -6.6402  -17.1994 N   0  0  0  0  0  0  0  0  0  0  0  0
   15.6569   -7.5975  -17.1442 C   0  0  0  0  0  0  0  0  0  0  0  0
   15.9297   -7.9997  -15.7417 C   0  0  0  0  0  0  0  0  0  0  0  0
   15.1485   -8.7784  -15.1203 O   0  0  0  0  0  0  0  0  0  0  0  0
   17.0841   -7.4958  -15.1058 N   0  0  0  0  0  0  0  0  0  0  0  0
   17.4280   -7.9642  -13.7700 C   0  0  1  0  0  0  0  0  0  0  0  0
   18.7873   -8.6159  -13.7559 C   0  0  0  0  0  0  0  0  0  0  0  0
   18.7588   -9.9382  -14.4199 C   0  0  0  0  0  0  0  0  0  0  0  0
   19.1177  -10.1974  -15.7277 C   0  0  0  0  0  0  0  0  0  0  0  0
   18.9534  -11.5140  -15.9498 N   0  0  0  0  0  0  0  0  0  0  0  0
   18.5008  -12.1015  -14.8235 C   0  0  0  0  0  0  0  0  0  0  0  0
   18.3907  -11.1216  -13.9072 N   0  0  0  0  0  0  0  0  0  0  0  0
   17.2863   -6.8434  -12.8239 C   0  0  0  0  0  0  0  0  0  0  0  0
   17.8129   -5.7456  -13.1334 O   0  0  0  0  0  0  0  0  0  0  0  0
   14.1938   -6.5187   -9.9515 C   0  0  0  0  0  0  0  0  0  0  0  0
   15.0017   -5.4018  -10.5466 C   0  0  1  0  0  0  0  0  0  0  0  0
   14.9917   -4.1952   -9.6346 C   0  0  0  0  0  0  0  0  0  0  0  0
   16.4432   -5.7850  -10.7859 C   0  0  2  0  0  0  0  0  0  0  0  0
   16.5858   -6.9550  -11.5905 N   0  0  0  0  0  0  0  0  0  0  0  0
   17.0544   -6.0457   -9.4575 C   0  0  0  0  0  0  0  0  0  0  0  0
   17.3059   -7.2238   -9.0851 O   0  0  0  0  0  0  0  0  0  0  0  0
   17.3559   -4.9917   -8.6094 O   0  0  0  0  0  0  0  0  0  0  0  0
  2  1  1  0
  3  5  1  0
  3  2  1  0
  4  3  2  0
  6  5  1  0
  6 13  1  0
  6  7  1  6
  8  7  1  0
  9  8  2  0
 10  9  1  0
 10 11  1  0
 11 12  2  0
 12  8  1  0
 13 19  1  0
 13 14  2  0
 16 15  1  1
 16 17  1  0
 18 16  1  0
 18 19  1  6
 20 18  1  0
 20 22  1  0
 21 20  2  0
M  END
$$$$
