GHV.pdb
     RDKit          3D

 22 22  0  0  1  0  0  0  0  0999 V2000
   17.2154  -13.0210    3.8390 N   0  0  0  0  0  0  0  0  0  0  0  0
   17.8835  -14.0679    3.0977 C   0  0  0  0  0  0  0  0  0  0  0  0
   17.6676  -15.3869    3.7435 C   0  0  0  0  0  0  0  0  0  0  0  0
   17.1349  -15.4755    4.8886 O   0  0  0  0  0  0  0  0  0  0  0  0
   18.0689  -16.5511    3.0549 N   0  0  0  0  0  0  0  0  0  0  0  0
   17.8299  -17.8566    3.6554 C   0  0  1  0  0  0  0  0  0  0  0  0
   17.5316  -18.8929    2.6021 C   0  0  0  0  0  0  0  0  0  0  0  0
   17.2671  -20.2173    3.2075 C   0  0  0  0  0  0  0  0  0  0  0  0
   16.2019  -20.5373    4.0256 C   0  0  0  0  0  0  0  0  0  0  0  0
   16.3163  -21.8332    4.3677 N   0  0  0  0  0  0  0  0  0  0  0  0
   17.4218  -22.3487    3.7924 C   0  0  0  0  0  0  0  0  0  0  0  0
   17.9828  -21.3455    3.0918 N   0  0  0  0  0  0  0  0  0  0  0  0
   18.9695  -18.1928    4.5270 C   0  0  0  0  0  0  0  0  0  0  0  0
   20.1098  -17.7967    4.1790 O   0  0  0  0  0  0  0  0  0  0  0  0
   18.9127  -18.1032    8.5830 C   0  0  0  0  0  0  0  0  0  0  0  0
   20.0918  -18.0878    7.6534 C   0  0  1  0  0  0  0  0  0  0  0  0
   21.3705  -18.3607    8.4137 C   0  0  0  0  0  0  0  0  0  0  0  0
   19.9830  -19.1168    6.5528 C   0  0  2  0  0  0  0  0  0  0  0  0
   18.8300  -18.9384    5.7309 N   0  0  0  0  0  0  0  0  0  0  0  0
   19.8994  -20.4490    7.2041 C   0  0  0  0  0  0  0  0  0  0  0  0
   18.8232  -21.1057    7.1899 O   0  0  0  0  0  0  0  0  0  0  0  0
   21.0090  -20.9867    7.8373 O   0  0  0  0  0  0  0  0  0  0  0  0
  2  1  1  0
  3  5  1  0
  3  2  1  0
  4  3  2  0
  6  5  1  0
  6 13  1  0
  6  7  1  6
  8  7  1  0
  9  8  2  0
 10  9  1  0
 10 11  1  0
 11 12  2  0
 12  8  1  0
 13 19  1  0
 13 14  2  0
 16 15  1  1
 16 17  1  0
 18 16  1  0
 18 19  1  1
 20 18  1  0
 20 22  1  0
 21 20  2  0
M  END
$$$$
