GHV.pdb
     RDKit          3D

 22 22  0  0  1  0  0  0  0  0999 V2000
   21.0019  -20.2386  -14.1760 N   0  0  0  0  0  0  0  0  0  0  0  0
   22.3793  -19.7974  -14.1775 C   0  0  0  0  0  0  0  0  0  0  0  0
   23.1660  -20.5325  -13.1557 C   0  0  0  0  0  0  0  0  0  0  0  0
   22.6070  -21.3356  -12.3523 O   0  0  0  0  0  0  0  0  0  0  0  0
   24.5595  -20.3202  -13.0932 N   0  0  0  0  0  0  0  0  0  0  0  0
   25.3645  -21.1150  -12.1753 C   0  0  1  0  0  0  0  0  0  0  0  0
   26.5252  -21.7598  -12.8891 C   0  0  0  0  0  0  0  0  0  0  0  0
   26.0638  -22.6249  -13.9978 C   0  0  0  0  0  0  0  0  0  0  0  0
   25.4599  -23.8595  -13.8663 C   0  0  0  0  0  0  0  0  0  0  0  0
   25.1919  -24.3237  -15.1001 N   0  0  0  0  0  0  0  0  0  0  0  0
   25.6066  -23.4225  -16.0137 C   0  0  0  0  0  0  0  0  0  0  0  0
   26.1334  -22.3978  -15.3177 N   0  0  0  0  0  0  0  0  0  0  0  0
   25.7530  -20.2698  -11.0326 C   0  0  0  0  0  0  0  0  0  0  0  0
   26.0190  -19.0632  -11.2602 O   0  0  0  0  0  0  0  0  0  0  0  0
   23.9284  -20.4120   -7.5164 C   0  0  0  0  0  0  0  0  0  0  0  0
   25.4050  -20.1933   -7.3539 C   0  0  1  0  0  0  0  0  0  0  0  0
   26.0707  -21.4419   -6.8195 C   0  0  0  0  0  0  0  0  0  0  0  0
   26.0886  -19.8268   -8.6501 C   0  0  2  0  0  0  0  0  0  0  0  0
   25.8375  -20.7606   -9.6997 N   0  0  0  0  0  0  0  0  0  0  0  0
   27.5493  -19.7959   -8.3825 C   0  0  0  0  0  0  0  0  0  0  0  0
   28.0425  -18.9360   -7.6033 O   0  0  0  0  0  0  0  0  0  0  0  0
   28.3893  -20.7163   -8.9895 O   0  0  0  0  0  0  0  0  0  0  0  0
  2  1  1  0
  3  5  1  0
  3  2  1  0
  4  3  2  0
  6  5  1  0
  6 13  1  0
  6  7  1  6
  8  7  1  0
  9  8  2  0
 10  9  1  0
 10 11  1  0
 11 12  2  0
 12  8  1  0
 13 19  1  0
 13 14  2  0
 16 15  1  6
 16 17  1  0
 18 16  1  0
 18 19  1  6
 20 18  1  0
 20 22  1  0
 21 20  2  0
M  END
$$$$
