GHV.pdb
     RDKit          3D

 22 22  0  0  1  0  0  0  0  0999 V2000
   29.8708  -23.4807  -16.5714 N   0  0  0  0  0  0  0  0  0  0  0  0
   28.4741  -23.1295  -16.7052 C   0  0  0  0  0  0  0  0  0  0  0  0
   28.1030  -22.0754  -15.7283 C   0  0  0  0  0  0  0  0  0  0  0  0
   28.9644  -21.5737  -14.9479 O   0  0  0  0  0  0  0  0  0  0  0  0
   26.7626  -21.6371  -15.6826 N   0  0  0  0  0  0  0  0  0  0  0  0
   26.4003  -20.5311  -14.8065 C   0  0  1  0  0  0  0  0  0  0  0  0
   25.7724  -19.4037  -15.5858 C   0  0  0  0  0  0  0  0  0  0  0  0
   26.7620  -18.7350  -16.4598 C   0  0  0  0  0  0  0  0  0  0  0  0
   27.6434  -17.7436  -16.0773 C   0  0  0  0  0  0  0  0  0  0  0  0
   28.3724  -17.3985  -17.1539 N   0  0  0  0  0  0  0  0  0  0  0  0
   27.9823  -18.1400  -18.2108 C   0  0  0  0  0  0  0  0  0  0  0  0
   27.0014  -18.9454  -17.7626 N   0  0  0  0  0  0  0  0  0  0  0  0
   25.5606  -21.0492  -13.7121 C   0  0  0  0  0  0  0  0  0  0  0  0
   24.7582  -21.9783  -13.9791 O   0  0  0  0  0  0  0  0  0  0  0  0
   26.7265  -21.2198   -9.7533 C   0  0  0  0  0  0  0  0  0  0  0  0
   25.2828  -20.8732   -9.9771 C   0  0  1  0  0  0  0  0  0  0  0  0
   25.0437  -19.4025   -9.7174 C   0  0  0  0  0  0  0  0  0  0  0  0
   24.8202  -21.1726  -11.3837 C   0  0  2  0  0  0  0  0  0  0  0  0
   25.6226  -20.5447  -12.3831 N   0  0  0  0  0  0  0  0  0  0  0  0
   23.4292  -20.6663  -11.5054 C   0  0  0  0  0  0  0  0  0  0  0  0
   23.1831  -19.6090  -12.1468 O   0  0  0  0  0  0  0  0  0  0  0  0
   22.3821  -21.3542  -10.9124 O   0  0  0  0  0  0  0  0  0  0  0  0
  2  1  1  0
  3  5  1  0
  3  2  1  0
  4  3  2  0
  6  5  1  0
  6 13  1  0
  6  7  1  6
  8  7  1  0
  9  8  2  0
 10  9  1  0
 10 11  1  0
 11 12  2  0
 12  8  1  0
 13 19  1  0
 13 14  2  0
 16 15  1  6
 16 17  1  0
 18 16  1  0
 18 19  1  6
 20 18  1  0
 20 22  1  0
 21 20  2  0
M  END
$$$$
