GHV.pdb
     RDKit          3D

 22 22  0  0  1  0  0  0  0  0999 V2000
   23.4092  -12.6220  -19.3673 N   0  0  0  0  0  0  0  0  0  0  0  0
   23.6516  -11.2313  -19.0525 C   0  0  0  0  0  0  0  0  0  0  0  0
   22.4499  -10.6168  -18.4348 C   0  0  0  0  0  0  0  0  0  0  0  0
   21.2840  -10.9764  -18.7725 O   0  0  0  0  0  0  0  0  0  0  0  0
   22.6291   -9.6162  -17.4563 N   0  0  0  0  0  0  0  0  0  0  0  0
   21.4716   -9.1059  -16.7336 C   0  0  1  0  0  0  0  0  0  0  0  0
   20.7241  -10.2212  -16.0481 C   0  0  0  0  0  0  0  0  0  0  0  0
   19.5190   -9.7158  -15.3533 C   0  0  0  0  0  0  0  0  0  0  0  0
   19.1101   -8.3985  -15.2922 C   0  0  0  0  0  0  0  0  0  0  0  0
   17.9747   -8.3495  -14.5725 N   0  0  0  0  0  0  0  0  0  0  0  0
   17.6476   -9.5954  -14.1732 C   0  0  0  0  0  0  0  0  0  0  0  0
   18.6029  -10.4087  -14.6611 N   0  0  0  0  0  0  0  0  0  0  0  0
   21.9147   -8.0309  -15.8285 C   0  0  0  0  0  0  0  0  0  0  0  0
   22.8698   -8.2768  -15.0503 O   0  0  0  0  0  0  0  0  0  0  0  0
   22.5416   -3.2192  -15.2080 C   0  0  0  0  0  0  0  0  0  0  0  0
   21.9298   -4.3747  -15.9463 C   0  0  1  0  0  0  0  0  0  0  0  0
   22.6145   -4.5746  -17.2800 C   0  0  0  0  0  0  0  0  0  0  0  0
   22.0246   -5.6741  -15.1817 C   0  0  2  0  0  0  0  0  0  0  0  0
   21.3107   -6.7427  -15.8022 N   0  0  0  0  0  0  0  0  0  0  0  0
   21.4440   -5.4347  -13.8357 C   0  0  0  0  0  0  0  0  0  0  0  0
   20.2375   -5.7121  -13.5968 O   0  0  0  0  0  0  0  0  0  0  0  0
   22.2263   -4.9012  -12.8234 O   0  0  0  0  0  0  0  0  0  0  0  0
  2  1  1  0
  3  5  1  0
  3  2  1  0
  4  3  2  0
  6  5  1  0
  6 13  1  0
  6  7  1  1
  8  7  1  0
  9  8  2  0
 10  9  1  0
 10 11  1  0
 11 12  2  0
 12  8  1  0
 13 19  1  0
 13 14  2  0
 16 15  1  1
 16 17  1  0
 18 16  1  0
 18 19  1  6
 20 18  1  0
 20 22  1  0
 21 20  2  0
M  END
$$$$
