GHV.pdb
     RDKit          3D

 22 22  0  0  1  0  0  0  0  0999 V2000
   23.2058  -21.8987  -18.6019 N   0  0  0  0  0  0  0  0  0  0  0  0
   23.6794  -22.6145  -17.4377 C   0  0  0  0  0  0  0  0  0  0  0  0
   25.0135  -23.2114  -17.6965 C   0  0  0  0  0  0  0  0  0  0  0  0
   25.4776  -23.2922  -18.8716 O   0  0  0  0  0  0  0  0  0  0  0  0
   25.7634  -23.6920  -16.6022 N   0  0  0  0  0  0  0  0  0  0  0  0
   27.0804  -24.2694  -16.8349 C   0  0  1  0  0  0  0  0  0  0  0  0
   28.1565  -23.4589  -16.1584 C   0  0  0  0  0  0  0  0  0  0  0  0
   28.2468  -22.0971  -16.7309 C   0  0  0  0  0  0  0  0  0  0  0  0
   28.9829  -21.7304  -17.8399 C   0  0  0  0  0  0  0  0  0  0  0  0
   28.8051  -20.4119  -18.0384 N   0  0  0  0  0  0  0  0  0  0  0  0
   27.9781  -19.9273  -17.0897 C   0  0  0  0  0  0  0  0  0  0  0  0
   27.6523  -20.9724  -16.3063 N   0  0  0  0  0  0  0  0  0  0  0  0
   27.0528  -25.6878  -16.4364 C   0  0  0  0  0  0  0  0  0  0  0  0
   26.7612  -25.9556  -15.2441 O   0  0  0  0  0  0  0  0  0  0  0  0
   25.0865  -28.5028  -18.2961 C   0  0  0  0  0  0  0  0  0  0  0  0
   26.4697  -28.9636  -17.9369 C   0  0  1  0  0  0  0  0  0  0  0  0
   27.3614  -28.9685  -19.1585 C   0  0  0  0  0  0  0  0  0  0  0  0
   27.1251  -28.0901  -16.8931 C   0  0  2  0  0  0  0  0  0  0  0  0
   27.3398  -26.7510  -17.3375 N   0  0  0  0  0  0  0  0  0  0  0  0
   28.4411  -28.7003  -16.5734 C   0  0  0  0  0  0  0  0  0  0  0  0
   28.5089  -29.7866  -15.9371 O   0  0  0  0  0  0  0  0  0  0  0  0
   29.6137  -28.0788  -16.9733 O   0  0  0  0  0  0  0  0  0  0  0  0
  2  1  1  0
  3  5  1  0
  3  2  1  0
  4  3  2  0
  6  5  1  0
  6 13  1  0
  6  7  1  1
  8  7  1  0
  9  8  2  0
 10  9  1  0
 10 11  1  0
 11 12  2  0
 12  8  1  0
 13 19  1  0
 13 14  2  0
 16 15  1  6
 16 17  1  0
 18 16  1  0
 18 19  1  6
 20 18  1  0
 20 22  1  0
 21 20  2  0
M  END
$$$$
