LCL.pdb
     RDKit          3D

 23 22  0  0  1  0  0  0  0  0999 V2000
    9.3701  -13.1286   19.1612 C   0  0  0  0  0  0  0  0  0  0  0  0
    7.9160  -13.2219   19.6430 C   0  0  2  0  0  0  0  0  0  0  0  0
    7.4815  -11.8503   20.0909 C   0  0  0  0  0  0  0  0  0  0  0  0
    7.9097  -14.1717   20.7902 C   0  0  0  0  0  0  0  0  0  0  0  0
    8.3964  -15.5543   20.4870 C   0  0  2  0  0  0  0  0  0  0  0  0
    7.4287  -16.2708   19.6775 N   0  0  0  0  0  0  0  0  0  0  0  0
    8.5058  -16.2675   21.7942 C   0  0  0  0  0  0  0  0  0  0  0  0
    7.5130  -16.8673   22.3027 O   0  0  0  0  0  0  0  0  0  0  0  0
    9.7217  -16.3030   22.5191 N   0  0  0  0  0  0  0  0  0  0  0  0
    9.9017  -17.2804   23.5720 C   0  0  1  0  0  0  0  0  0  0  0  0
   11.3128  -17.8704   23.5162 C   0  0  0  0  0  0  0  0  0  0  0  0
   11.5804  -19.0486   24.8411 S   0  0  0  0  0  0  0  0  0  0  0  0
    9.7101  -16.6533   24.9185 C   0  0  0  0  0  0  0  0  0  0  0  0
    9.9157  -17.3035   25.9897 O   0  0  0  0  0  0  0  0  0  0  0  0
    7.8029  -12.0402   25.8570 C   0  0  0  0  0  0  0  0  0  0  0  0
    7.0665  -13.3923   25.7815 C   0  0  2  0  0  0  0  0  0  0  0  0
    5.6435  -13.0724   26.1913 C   0  0  0  0  0  0  0  0  0  0  0  0
    7.7809  -14.2974   26.7212 C   0  0  0  0  0  0  0  0  0  0  0  0
    9.1844  -14.6453   26.3766 C   0  0  2  0  0  0  0  0  0  0  0  0
    9.2918  -15.3095   25.0761 N   0  0  0  0  0  0  0  0  0  0  0  0
    9.8752  -15.5027   27.3634 C   0  0  0  0  0  0  0  0  0  0  0  0
   10.3552  -15.0364   28.5909 O   0  0  0  0  0  0  0  0  0  0  0  0
   10.0569  -16.7216   27.1179 O   0  0  0  0  0  0  0  0  0  0  0  0
  2  3  1  1
  2  1  1  0
  4  2  1  0
  5  7  1  0
  5  4  1  0
  5  6  1  6
  7  8  2  0
  9  7  1  0
  9 10  1  0
 10 11  1  1
 12 11  1  0
 13 20  1  0
 13 10  1  0
 14 13  2  0
 16 15  1  1
 16 17  1  0
 18 16  1  0
 19 20  1  0
 19 18  1  1
 21 22  1  0
 21 19  1  0
 23 21  2  0
M  END
$$$$
