LCL.pdb
     RDKit          3D

 23 22  0  0  1  0  0  0  0  0999 V2000
    9.6918  -13.3246   18.9811 C   0  0  0  0  0  0  0  0  0  0  0  0
    8.2528  -13.5907   18.5190 C   0  0  2  0  0  0  0  0  0  0  0  0
    7.5420  -12.2663   18.4126 C   0  0  0  0  0  0  0  0  0  0  0  0
    7.6209  -14.4391   19.5676 C   0  0  0  0  0  0  0  0  0  0  0  0
    8.2458  -15.7834   19.7741 C   0  0  2  0  0  0  0  0  0  0  0  0
    7.7725  -16.7257   18.7774 N   0  0  0  0  0  0  0  0  0  0  0  0
    7.7857  -16.2706   21.1083 C   0  0  0  0  0  0  0  0  0  0  0  0
    6.5887  -16.6378   21.2988 O   0  0  0  0  0  0  0  0  0  0  0  0
    8.6664  -16.3421   22.2149 N   0  0  0  0  0  0  0  0  0  0  0  0
    8.1647  -16.7637   23.5059 C   0  0  1  0  0  0  0  0  0  0  0  0
    8.5078  -18.2340   23.7570 C   0  0  0  0  0  0  0  0  0  0  0  0
   10.2816  -18.4908   23.8076 S   0  0  0  0  0  0  0  0  0  0  0  0
    8.7722  -15.9477   24.6051 C   0  0  0  0  0  0  0  0  0  0  0  0
   10.0066  -15.6499   24.6073 O   0  0  0  0  0  0  0  0  0  0  0  0
    7.9577  -11.7836   25.8153 C   0  0  0  0  0  0  0  0  0  0  0  0
    6.8933  -12.7843   26.3070 C   0  0  2  0  0  0  0  0  0  0  0  0
    5.8015  -11.9163   26.8986 C   0  0  0  0  0  0  0  0  0  0  0  0
    7.5809  -13.6555   27.2973 C   0  0  0  0  0  0  0  0  0  0  0  0
    8.5717  -14.6248   26.7601 C   0  0  2  0  0  0  0  0  0  0  0  0
    8.0128  -15.4636   25.6981 N   0  0  0  0  0  0  0  0  0  0  0  0
    9.1664  -15.5313   27.7655 C   0  0  0  0  0  0  0  0  0  0  0  0
   10.0821  -15.1147   28.7363 O   0  0  0  0  0  0  0  0  0  0  0  0
    8.8531  -16.7481   27.7769 O   0  0  0  0  0  0  0  0  0  0  0  0
  2  3  1  1
  2  1  1  0
  4  2  1  0
  5  7  1  0
  5  4  1  0
  5  6  1  6
  7  8  2  0
  9  7  1  0
  9 10  1  0
 10 11  1  1
 12 11  1  0
 13 20  1  0
 13 10  1  0
 14 13  2  0
 16 15  1  1
 16 17  1  0
 18 16  1  0
 19 20  1  0
 19 18  1  1
 21 22  1  0
 21 19  1  0
 23 21  2  0
M  END
$$$$
