LCL.pdb
     RDKit          3D

 23 22  0  0  1  0  0  0  0  0999 V2000
    9.8754  -13.0357   19.5187 C   0  0  0  0  0  0  0  0  0  0  0  0
    8.5580  -13.3203   18.7847 C   0  0  2  0  0  0  0  0  0  0  0  0
    7.7431  -12.0528   18.7757 C   0  0  0  0  0  0  0  0  0  0  0  0
    7.8611  -14.3831   19.5614 C   0  0  0  0  0  0  0  0  0  0  0  0
    8.6707  -15.6085   19.8498 C   0  0  2  0  0  0  0  0  0  0  0  0
    8.2955  -16.6905   18.9589 N   0  0  0  0  0  0  0  0  0  0  0  0
    8.3291  -16.0315   21.2404 C   0  0  0  0  0  0  0  0  0  0  0  0
    7.1639  -16.4255   21.5418 O   0  0  0  0  0  0  0  0  0  0  0  0
    9.2916  -16.0097   22.2788 N   0  0  0  0  0  0  0  0  0  0  0  0
    8.9544  -16.5430   23.5819 C   0  0  1  0  0  0  0  0  0  0  0  0
    9.7171  -17.8448   23.8389 C   0  0  0  0  0  0  0  0  0  0  0  0
   11.4576  -17.6701   23.4446 S   0  0  0  0  0  0  0  0  0  0  0  0
    9.3116  -15.5705   24.6635 C   0  0  0  0  0  0  0  0  0  0  0  0
   10.3410  -14.8318   24.5795 O   0  0  0  0  0  0  0  0  0  0  0  0
    7.6715  -11.8611   26.1741 C   0  0  0  0  0  0  0  0  0  0  0  0
    6.8551  -13.0935   26.6108 C   0  0  2  0  0  0  0  0  0  0  0  0
    5.6136  -12.5158   27.2589 C   0  0  0  0  0  0  0  0  0  0  0  0
    7.7311  -13.8518   27.5437 C   0  0  0  0  0  0  0  0  0  0  0  0
    8.9040  -14.5424   26.9463 C   0  0  2  0  0  0  0  0  0  0  0  0
    8.5295  -15.4182   25.8343 N   0  0  0  0  0  0  0  0  0  0  0  0
    9.6994  -15.3537   27.8926 C   0  0  0  0  0  0  0  0  0  0  0  0
    9.8852  -16.7331   27.7616 O   0  0  0  0  0  0  0  0  0  0  0  0
   10.2527  -14.8054   28.8786 O   0  0  0  0  0  0  0  0  0  0  0  0
  2  3  1  1
  2  1  1  0
  4  2  1  0
  5  7  1  0
  5  4  1  0
  5  6  1  6
  7  8  2  0
  9  7  1  0
  9 10  1  0
 10 11  1  1
 12 11  1  0
 13 20  1  0
 13 10  1  0
 14 13  2  0
 16 15  1  1
 16 17  1  0
 18 16  1  0
 19 20  1  0
 19 18  1  1
 21 22  1  0
 21 19  1  0
 23 21  2  0
M  END
$$$$
