LCL.pdb
     RDKit          3D

 23 22  0  0  1  0  0  0  0  0999 V2000
    9.4283  -21.8206   21.2998 C   0  0  0  0  0  0  0  0  0  0  0  0
    9.0763  -20.7744   20.2335 C   0  0  2  0  0  0  0  0  0  0  0  0
    9.6782  -21.2177   18.9251 C   0  0  0  0  0  0  0  0  0  0  0  0
    9.6869  -19.4915   20.6806 C   0  0  0  0  0  0  0  0  0  0  0  0
    9.1666  -18.9443   21.9729 C   0  0  2  0  0  0  0  0  0  0  0  0
    7.7289  -19.1193   22.0603 N   0  0  0  0  0  0  0  0  0  0  0  0
    9.4413  -17.4767   21.9595 C   0  0  0  0  0  0  0  0  0  0  0  0
   10.6234  -17.0282   21.8854 O   0  0  0  0  0  0  0  0  0  0  0  0
    8.3939  -16.5264   22.0293 N   0  0  0  0  0  0  0  0  0  0  0  0
    8.7055  -15.1125   22.0247 C   0  0  1  0  0  0  0  0  0  0  0  0
    7.6148  -14.3285   21.2909 C   0  0  0  0  0  0  0  0  0  0  0  0
    6.1670  -15.3445   20.9963 S   0  0  0  0  0  0  0  0  0  0  0  0
    8.8006  -14.5841   23.4229 C   0  0  0  0  0  0  0  0  0  0  0  0
    8.6514  -13.3491   23.6781 O   0  0  0  0  0  0  0  0  0  0  0  0
    8.4854  -12.2569   27.0712 C   0  0  0  0  0  0  0  0  0  0  0  0
    7.5296  -12.8895   26.0405 C   0  0  2  0  0  0  0  0  0  0  0  0
    6.1680  -12.3236   26.3887 C   0  0  0  0  0  0  0  0  0  0  0  0
    7.6431  -14.3605   26.2299 C   0  0  0  0  0  0  0  0  0  0  0  0
    8.9623  -14.9736   25.9242 C   0  0  2  0  0  0  0  0  0  0  0  0
    9.0604  -15.4228   24.5340 N   0  0  0  0  0  0  0  0  0  0  0  0
    9.3310  -16.1208   26.7810 C   0  0  0  0  0  0  0  0  0  0  0  0
    9.9662  -15.9881   28.0193 O   0  0  0  0  0  0  0  0  0  0  0  0
    9.0733  -17.2924   26.4068 O   0  0  0  0  0  0  0  0  0  0  0  0
  2  3  1  6
  2  1  1  0
  4  2  1  0
  5  7  1  0
  5  4  1  0
  5  6  1  6
  7  8  2  0
  9  7  1  0
  9 10  1  0
 10 11  1  6
 12 11  1  0
 13 20  1  0
 13 10  1  0
 14 13  2  0
 16 15  1  1
 16 17  1  0
 18 16  1  0
 19 20  1  0
 19 18  1  1
 21 22  1  0
 21 19  1  0
 23 21  2  0
M  END
$$$$
