LCL.pdb
     RDKit          3D

 23 22  0  0  1  0  0  0  0  0999 V2000
    9.5527  -13.0768   19.6198 C   0  0  0  0  0  0  0  0  0  0  0  0
    8.2520  -13.3997   18.8722 C   0  0  2  0  0  0  0  0  0  0  0  0
    7.3852  -12.1672   18.8854 C   0  0  0  0  0  0  0  0  0  0  0  0
    7.5959  -14.5070   19.6219 C   0  0  0  0  0  0  0  0  0  0  0  0
    8.4252  -15.7383   19.8126 C   0  0  2  0  0  0  0  0  0  0  0  0
    8.0449  -16.7635   18.8590 N   0  0  0  0  0  0  0  0  0  0  0  0
    8.1163  -16.2570   21.1782 C   0  0  0  0  0  0  0  0  0  0  0  0
    6.9630  -16.6889   21.4737 O   0  0  0  0  0  0  0  0  0  0  0  0
    9.0977  -16.2875   22.1985 N   0  0  0  0  0  0  0  0  0  0  0  0
    8.7381  -16.7350   23.5277 C   0  0  1  0  0  0  0  0  0  0  0  0
    9.4795  -18.0285   23.8736 C   0  0  0  0  0  0  0  0  0  0  0  0
   11.2117  -17.9288   23.4212 S   0  0  0  0  0  0  0  0  0  0  0  0
    9.0965  -15.7026   24.5518 C   0  0  0  0  0  0  0  0  0  0  0  0
   10.2532  -15.1801   24.5921 O   0  0  0  0  0  0  0  0  0  0  0  0
    5.7953  -11.8296   26.8298 C   0  0  0  0  0  0  0  0  0  0  0  0
    7.2970  -12.1775   26.8344 C   0  0  2  0  0  0  0  0  0  0  0  0
    7.7670  -11.8475   25.4324 C   0  0  0  0  0  0  0  0  0  0  0  0
    7.3787  -13.6223   27.1787 C   0  0  0  0  0  0  0  0  0  0  0  0
    8.5432  -14.3727   26.6397 C   0  0  2  0  0  0  0  0  0  0  0  0
    8.1749  -15.2514   25.5278 N   0  0  0  0  0  0  0  0  0  0  0  0
    9.2650  -15.2002   27.6299 C   0  0  0  0  0  0  0  0  0  0  0  0
    9.1808  -16.5948   27.6800 O   0  0  0  0  0  0  0  0  0  0  0  0
   10.0034  -14.6528   28.4867 O   0  0  0  0  0  0  0  0  0  0  0  0
  2  3  1  1
  2  1  1  0
  4  2  1  0
  5  7  1  0
  5  4  1  0
  5  6  1  6
  7  8  2  0
  9  7  1  0
  9 10  1  0
 10 11  1  1
 12 11  1  0
 13 20  1  0
 13 10  1  0
 14 13  2  0
 16 15  1  6
 16 17  1  0
 18 16  1  0
 19 20  1  0
 19 18  1  1
 21 22  1  0
 21 19  1  0
 23 21  2  0
M  END
$$$$
