LCL.pdb
     RDKit          3D

 23 22  0  0  1  0  0  0  0  0999 V2000
    9.3929  -12.8323   18.9125 C   0  0  0  0  0  0  0  0  0  0  0  0
    8.0679  -13.4894   18.5030 C   0  0  2  0  0  0  0  0  0  0  0  0
    7.1273  -12.4039   18.0474 C   0  0  0  0  0  0  0  0  0  0  0  0
    7.5358  -14.1642   19.7196 C   0  0  0  0  0  0  0  0  0  0  0  0
    8.4367  -15.1877   20.3369 C   0  0  2  0  0  0  0  0  0  0  0  0
    8.4176  -16.4169   19.5663 N   0  0  0  0  0  0  0  0  0  0  0  0
    7.8772  -15.4941   21.6869 C   0  0  0  0  0  0  0  0  0  0  0  0
    7.6543  -14.5771   22.5314 O   0  0  0  0  0  0  0  0  0  0  0  0
    7.5731  -16.8204   22.0791 N   0  0  0  0  0  0  0  0  0  0  0  0
    7.0927  -17.0805   23.4199 C   0  0  1  0  0  0  0  0  0  0  0  0
    6.7435  -18.5617   23.5831 C   0  0  0  0  0  0  0  0  0  0  0  0
    6.5539  -19.0008   25.3112 S   0  0  0  0  0  0  0  0  0  0  0  0
    8.1361  -16.7314   24.4360 C   0  0  0  0  0  0  0  0  0  0  0  0
    9.3317  -17.1460   24.3302 O   0  0  0  0  0  0  0  0  0  0  0  0
    6.5079  -13.5797   26.0766 C   0  0  0  0  0  0  0  0  0  0  0  0
    7.5220  -13.4407   27.2291 C   0  0  2  0  0  0  0  0  0  0  0  0
    7.5469  -11.9571   27.5355 C   0  0  0  0  0  0  0  0  0  0  0  0
    8.8079  -13.9750   26.7060 C   0  0  0  0  0  0  0  0  0  0  0  0
    8.8825  -15.4438   26.4902 C   0  0  2  0  0  0  0  0  0  0  0  0
    7.8541  -15.9252   25.5657 N   0  0  0  0  0  0  0  0  0  0  0  0
    8.7829  -16.2610   27.7184 C   0  0  0  0  0  0  0  0  0  0  0  0
    9.7412  -16.2466   28.7362 O   0  0  0  0  0  0  0  0  0  0  0  0
    7.7962  -17.0200   27.8892 O   0  0  0  0  0  0  0  0  0  0  0  0
  2  3  1  1
  2  1  1  0
  4  2  1  0
  5  7  1  0
  5  4  1  0
  5  6  1  6
  7  8  2  0
  9  7  1  0
  9 10  1  0
 10 11  1  6
 12 11  1  0
 13 20  1  0
 13 10  1  0
 14 13  2  0
 16 15  1  6
 16 17  1  0
 18 16  1  0
 19 20  1  0
 19 18  1  1
 21 22  1  0
 21 19  1  0
 23 21  2  0
M  END
$$$$
