EKK.pdb
     RDKit          3D

 28 27  0  0  1  0  0  0  0  0999 V2000
   10.4845  -17.7299   17.4144 N   0  0  0  0  0  0  0  0  0  0  0  0
   11.0743  -18.3579   18.6293 C   0  0  1  0  0  0  0  0  0  0  0  0
   12.5519  -18.5450   18.3548 C   0  0  0  0  0  0  0  0  0  0  0  0
   13.0033  -19.8661   18.8823 C   0  0  0  0  0  0  0  0  0  0  0  0
   14.4844  -19.9697   18.6376 C   0  0  0  0  0  0  0  0  0  0  0  0
   15.1025  -19.0435   18.0493 O   0  0  0  0  0  0  0  0  0  0  0  0
   10.9294  -17.3638   19.7110 C   0  0  0  0  0  0  0  0  0  0  0  0
   11.9682  -16.8286   20.1966 O   0  0  0  0  0  0  0  0  0  0  0  0
   15.1253  -21.1055   19.0792 O   0  0  0  0  0  0  0  0  0  0  0  0
    9.7005  -16.9306   20.2769 N   0  0  0  0  0  0  0  0  0  0  0  0
    9.6892  -15.9641   21.3596 C   0  0  1  0  0  0  0  0  0  0  0  0
    8.4272  -15.0963   21.2483 C   0  0  0  0  0  0  0  0  0  0  0  0
    8.5343  -14.3413   19.9463 C   0  0  0  0  0  0  0  0  0  0  0  0
    7.3542  -13.4748   19.6596 C   0  0  0  0  0  0  0  0  0  0  0  0
    7.5871  -12.7160   18.3712 C   0  0  0  0  0  0  0  0  0  0  0  0
    6.3898  -11.9098   18.1392 N   0  0  0  0  0  0  0  0  0  0  0  0
    9.7305  -16.6229   22.6989 C   0  0  0  0  0  0  0  0  0  0  0  0
    8.9858  -17.6132   22.9621 O   0  0  0  0  0  0  0  0  0  0  0  0
   10.5893  -16.1737   23.7086 N   0  0  0  0  0  0  0  0  0  0  0  0
   10.6433  -16.8776   25.0644 C   0  0  1  0  0  0  0  0  0  0  0  0
   12.0921  -16.9343   25.2882 C   0  0  0  0  0  0  0  0  0  0  0  0
   12.9345  -18.0894   25.1785 C   0  0  0  0  0  0  0  0  0  0  0  0
   14.3635  -18.0597   24.9981 C   0  0  0  0  0  0  0  0  0  0  0  0
   15.1810  -19.2545   24.8739 C   0  0  0  0  0  0  0  0  0  0  0  0
   16.5820  -18.7810   24.5716 N   0  0  0  0  0  0  0  0  0  0  0  0
    9.6993  -16.1362   25.8462 C   0  0  0  0  0  0  0  0  0  0  0  0
    8.6754  -16.6747   26.6290 O   0  0  0  0  0  0  0  0  0  0  0  0
    9.7253  -14.8547   25.8703 O   0  0  0  0  0  0  0  0  0  0  0  0
  2  7  1  0
  2  1  1  6
  3  2  1  0
  3  4  1  0
  4  5  1  0
  5  6  2  0
  7  8  2  0
  9  5  1  0
 10 11  1  0
 10  7  1  0
 11 12  1  1
 13 12  1  0
 14 15  1  0
 14 13  1  0
 16 15  1  0
 17 11  1  0
 17 19  1  0
 18 17  2  0
 20 19  1  0
 20 21  1  1
 22 21  1  0
 23 24  1  0
 23 22  1  0
 24 25  1  0
 26 20  1  0
 27 26  1  0
 28 26  2  0
M  END
$$$$
