EKK.pdb
     RDKit          3D

 28 27  0  0  1  0  0  0  0  0999 V2000
    9.9670  -19.5930   17.5152 N   0  0  0  0  0  0  0  0  0  0  0  0
    8.9798  -19.6768   18.6273 C   0  0  1  0  0  0  0  0  0  0  0  0
    9.3769  -20.8639   19.4798 C   0  0  0  0  0  0  0  0  0  0  0  0
    9.4021  -22.1018   18.6464 C   0  0  0  0  0  0  0  0  0  0  0  0
    9.7311  -23.2542   19.5564 C   0  0  0  0  0  0  0  0  0  0  0  0
    9.9026  -24.4107   19.0885 O   0  0  0  0  0  0  0  0  0  0  0  0
    9.1668  -18.4514   19.4291 C   0  0  0  0  0  0  0  0  0  0  0  0
   10.3419  -18.0690   19.7016 O   0  0  0  0  0  0  0  0  0  0  0  0
    9.8351  -22.9923   20.9041 O   0  0  0  0  0  0  0  0  0  0  0  0
    8.1261  -17.6296   19.9385 N   0  0  0  0  0  0  0  0  0  0  0  0
    8.4333  -16.5024   20.7996 C   0  0  1  0  0  0  0  0  0  0  0  0
    7.1777  -15.6329   20.9601 C   0  0  0  0  0  0  0  0  0  0  0  0
    7.6558  -14.2298   21.2417 C   0  0  0  0  0  0  0  0  0  0  0  0
    8.1525  -13.5137   20.0309 C   0  0  0  0  0  0  0  0  0  0  0  0
    8.5773  -12.1125   20.4127 C   0  0  0  0  0  0  0  0  0  0  0  0
    9.2195  -11.5349   19.2332 N   0  0  0  0  0  0  0  0  0  0  0  0
    8.9180  -16.9394   22.1426 C   0  0  0  0  0  0  0  0  0  0  0  0
    8.3150  -17.8453   22.7908 O   0  0  0  0  0  0  0  0  0  0  0  0
   10.0509  -16.3676   22.7327 N   0  0  0  0  0  0  0  0  0  0  0  0
   10.5315  -16.8205   24.1113 C   0  0  1  0  0  0  0  0  0  0  0  0
   11.9424  -17.1085   23.8307 C   0  0  0  0  0  0  0  0  0  0  0  0
   12.7853  -18.0368   24.5262 C   0  0  0  0  0  0  0  0  0  0  0  0
   14.1681  -18.2951   24.2155 C   0  0  0  0  0  0  0  0  0  0  0  0
   14.9505  -19.3420   24.8504 C   0  0  0  0  0  0  0  0  0  0  0  0
   16.2473  -19.4278   24.0827 N   0  0  0  0  0  0  0  0  0  0  0  0
   10.0386  -15.7895   24.9752 C   0  0  0  0  0  0  0  0  0  0  0  0
    9.5133  -14.5595   24.5726 O   0  0  0  0  0  0  0  0  0  0  0  0
   10.0601  -15.9307   26.2492 O   0  0  0  0  0  0  0  0  0  0  0  0
  2  7  1  0
  2  1  1  6
  3  2  1  0
  3  4  1  0
  4  5  1  0
  5  6  2  0
  7  8  2  0
  9  5  1  0
 10 11  1  0
 10  7  1  0
 11 12  1  1
 13 12  1  0
 14 15  1  0
 14 13  1  0
 16 15  1  0
 17 11  1  0
 17 19  1  0
 18 17  2  0
 20 19  1  0
 20 21  1  6
 22 21  1  0
 23 24  1  0
 23 22  1  0
 24 25  1  0
 26 20  1  0
 27 26  1  0
 28 26  2  0
M  END
$$$$
