EKK.pdb
     RDKit          3D

 28 27  0  0  1  0  0  0  0  0999 V2000
   14.2926  -13.8396   17.8502 N   0  0  0  0  0  0  0  0  0  0  0  0
   13.5699  -15.1381   17.9483 C   0  0  1  0  0  0  0  0  0  0  0  0
   14.6208  -16.2145   18.1236 C   0  0  0  0  0  0  0  0  0  0  0  0
   13.9627  -17.5379   18.3311 C   0  0  0  0  0  0  0  0  0  0  0  0
   15.0507  -18.5629   18.5045 C   0  0  0  0  0  0  0  0  0  0  0  0
   15.8758  -18.7834   17.5791 O   0  0  0  0  0  0  0  0  0  0  0  0
   12.7731  -15.0664   19.1890 C   0  0  0  0  0  0  0  0  0  0  0  0
   13.3615  -14.8290   20.2840 O   0  0  0  0  0  0  0  0  0  0  0  0
   15.1038  -19.2393   19.7025 O   0  0  0  0  0  0  0  0  0  0  0  0
   11.3660  -15.2387   19.2794 N   0  0  0  0  0  0  0  0  0  0  0  0
   10.6877  -15.0971   20.5547 C   0  0  1  0  0  0  0  0  0  0  0  0
    9.1735  -15.0100   20.3139 C   0  0  0  0  0  0  0  0  0  0  0  0
    8.9538  -13.8753   19.3440 C   0  0  0  0  0  0  0  0  0  0  0  0
    7.5596  -13.8006   18.8181 C   0  0  0  0  0  0  0  0  0  0  0  0
    7.4447  -12.6366   17.8581 C   0  0  0  0  0  0  0  0  0  0  0  0
    6.0727  -12.6456   17.3534 N   0  0  0  0  0  0  0  0  0  0  0  0
   10.9863  -16.2327   21.4769 C   0  0  0  0  0  0  0  0  0  0  0  0
   11.0173  -17.4262   21.0535 O   0  0  0  0  0  0  0  0  0  0  0  0
   11.2419  -16.0225   22.8368 N   0  0  0  0  0  0  0  0  0  0  0  0
   11.4344  -17.2012   23.7910 C   0  0  1  0  0  0  0  0  0  0  0  0
   12.8950  -17.2090   23.9285 C   0  0  0  0  0  0  0  0  0  0  0  0
   13.7097  -18.2961   24.3871 C   0  0  0  0  0  0  0  0  0  0  0  0
   15.1485  -18.2823   24.4572 C   0  0  0  0  0  0  0  0  0  0  0  0
   15.9452  -19.4446   24.8118 C   0  0  0  0  0  0  0  0  0  0  0  0
   17.3873  -19.0507   24.6032 N   0  0  0  0  0  0  0  0  0  0  0  0
   10.4923  -16.9239   24.8339 C   0  0  0  0  0  0  0  0  0  0  0  0
    9.5636  -15.8807   24.8485 O   0  0  0  0  0  0  0  0  0  0  0  0
   10.4453  -17.6494   25.8899 O   0  0  0  0  0  0  0  0  0  0  0  0
  2  7  1  0
  2  1  1  1
  3  2  1  0
  3  4  1  0
  4  5  1  0
  5  6  2  0
  7  8  2  0
  9  5  1  0
 10 11  1  0
 10  7  1  0
 11 12  1  6
 13 12  1  0
 14 15  1  0
 14 13  1  0
 16 15  1  0
 17 11  1  0
 17 19  1  0
 18 17  2  0
 20 19  1  0
 20 21  1  1
 22 21  1  0
 23 24  1  0
 23 22  1  0
 24 25  1  0
 26 20  1  0
 27 26  1  0
 28 26  2  0
M  END
$$$$
