EKK.pdb
     RDKit          3D

 28 27  0  0  1  0  0  0  0  0999 V2000
    9.8746  -15.4677   18.8157 N   0  0  0  0  0  0  0  0  0  0  0  0
    8.5146  -15.6168   19.4043 C   0  0  1  0  0  0  0  0  0  0  0  0
    8.1071  -17.0625   19.2101 C   0  0  0  0  0  0  0  0  0  0  0  0
    9.2889  -17.9535   19.4023 C   0  0  0  0  0  0  0  0  0  0  0  0
    8.8505  -19.3601   19.0962 C   0  0  0  0  0  0  0  0  0  0  0  0
    8.3011  -20.0666   19.9823 O   0  0  0  0  0  0  0  0  0  0  0  0
    8.6701  -15.3730   20.8520 C   0  0  0  0  0  0  0  0  0  0  0  0
    9.7648  -15.6733   21.4113 O   0  0  0  0  0  0  0  0  0  0  0  0
    9.0731  -19.8341   17.8229 O   0  0  0  0  0  0  0  0  0  0  0  0
    7.6835  -14.8132   21.7070 N   0  0  0  0  0  0  0  0  0  0  0  0
    7.9796  -14.5591   23.1050 C   0  0  1  0  0  0  0  0  0  0  0  0
    6.9169  -13.6127   23.6821 C   0  0  0  0  0  0  0  0  0  0  0  0
    7.3387  -13.2988   25.0963 C   0  0  0  0  0  0  0  0  0  0  0  0
    6.4281  -12.3444   25.7933 C   0  0  0  0  0  0  0  0  0  0  0  0
    6.9873  -12.0223   27.1619 C   0  0  0  0  0  0  0  0  0  0  0  0
    6.0872  -11.0375   27.7596 N   0  0  0  0  0  0  0  0  0  0  0  0
    8.0209  -15.8182   23.9064 C   0  0  0  0  0  0  0  0  0  0  0  0
    7.0654  -16.6488   23.8663 O   0  0  0  0  0  0  0  0  0  0  0  0
    9.1113  -16.1267   24.7279 N   0  0  0  0  0  0  0  0  0  0  0  0
    9.1125  -17.3887   25.5905 C   0  0  1  0  0  0  0  0  0  0  0  0
   10.5253  -17.4553   25.9797 C   0  0  0  0  0  0  0  0  0  0  0  0
   11.1463  -18.4586   26.7945 C   0  0  0  0  0  0  0  0  0  0  0  0
   12.5470  -18.5065   27.1277 C   0  0  0  0  0  0  0  0  0  0  0  0
   13.1139  -19.4508   28.0754 C   0  0  0  0  0  0  0  0  0  0  0  0
   14.5702  -19.0819   28.2229 N   0  0  0  0  0  0  0  0  0  0  0  0
    8.0054  -17.1721   26.4735 C   0  0  0  0  0  0  0  0  0  0  0  0
    6.6750  -17.5184   26.2261 O   0  0  0  0  0  0  0  0  0  0  0  0
    8.1702  -16.6015   27.6097 O   0  0  0  0  0  0  0  0  0  0  0  0
  2  7  1  0
  2  1  1  6
  3  2  1  0
  3  4  1  0
  4  5  1  0
  5  6  2  0
  7  8  2  0
  9  5  1  0
 10 11  1  0
 10  7  1  0
 11 12  1  1
 13 12  1  0
 14 15  1  0
 14 13  1  0
 16 15  1  0
 17 11  1  0
 17 19  1  0
 18 17  2  0
 20 19  1  0
 20 21  1  1
 22 21  1  0
 23 24  1  0
 23 22  1  0
 24 25  1  0
 26 20  1  0
 27 26  1  0
 28 26  2  0
M  END
$$$$
