EKK.pdb
     RDKit          3D

 28 27  0  0  1  0  0  0  0  0999 V2000
   10.0728  -18.8019   19.7998 N   0  0  0  0  0  0  0  0  0  0  0  0
   11.2276  -18.6845   20.7330 C   0  0  1  0  0  0  0  0  0  0  0  0
   12.4542  -18.4214   19.8844 C   0  0  0  0  0  0  0  0  0  0  0  0
   12.1706  -18.7680   18.4607 C   0  0  0  0  0  0  0  0  0  0  0  0
   13.4295  -18.5198   17.6746 C   0  0  0  0  0  0  0  0  0  0  0  0
   14.3991  -19.3200   17.7492 O   0  0  0  0  0  0  0  0  0  0  0  0
   10.9677  -17.4834   21.5511 C   0  0  0  0  0  0  0  0  0  0  0  0
   11.8632  -17.0772   22.3475 O   0  0  0  0  0  0  0  0  0  0  0  0
   13.4740  -17.3955   16.8812 O   0  0  0  0  0  0  0  0  0  0  0  0
    9.7759  -16.7107   21.5302 N   0  0  0  0  0  0  0  0  0  0  0  0
    9.5794  -15.6353   22.4849 C   0  0  1  0  0  0  0  0  0  0  0  0
    8.3838  -14.7794   22.0420 C   0  0  0  0  0  0  0  0  0  0  0  0
    8.6658  -14.3414   20.6259 C   0  0  0  0  0  0  0  0  0  0  0  0
    7.5730  -13.5224   20.0253 C   0  0  0  0  0  0  0  0  0  0  0  0
    7.9190  -13.1960   18.5888 C   0  0  0  0  0  0  0  0  0  0  0  0
    6.7635  -12.4965   18.0296 N   0  0  0  0  0  0  0  0  0  0  0  0
    9.3459  -16.1493   23.8672 C   0  0  0  0  0  0  0  0  0  0  0  0
    8.4289  -16.9904   24.1042 O   0  0  0  0  0  0  0  0  0  0  0  0
   10.1273  -15.7235   24.9474 N   0  0  0  0  0  0  0  0  0  0  0  0
    9.9659  -16.3544   26.3304 C   0  0  1  0  0  0  0  0  0  0  0  0
   10.5442  -17.6823   26.0970 C   0  0  0  0  0  0  0  0  0  0  0  0
   10.7417  -18.7172   27.0695 C   0  0  0  0  0  0  0  0  0  0  0  0
   11.2655  -20.0297   26.7894 C   0  0  0  0  0  0  0  0  0  0  0  0
   11.6133  -20.9912   27.8218 C   0  0  0  0  0  0  0  0  0  0  0  0
   12.1894  -22.1903   27.1085 N   0  0  0  0  0  0  0  0  0  0  0  0
   10.4932  -15.3482   27.2031 C   0  0  0  0  0  0  0  0  0  0  0  0
   11.2791  -14.2580   26.8226 O   0  0  0  0  0  0  0  0  0  0  0  0
   10.2766  -15.3915   28.4660 O   0  0  0  0  0  0  0  0  0  0  0  0
  2  7  1  0
  2  1  1  6
  3  2  1  0
  3  4  1  0
  4  5  1  0
  5  6  2  0
  7  8  2  0
  9  5  1  0
 10 11  1  0
 10  7  1  0
 11 12  1  6
 13 12  1  0
 14 15  1  0
 14 13  1  0
 16 15  1  0
 17 11  1  0
 17 19  1  0
 18 17  2  0
 20 19  1  0
 20 21  1  6
 22 21  1  0
 23 24  1  0
 23 22  1  0
 24 25  1  0
 26 20  1  0
 27 26  1  0
 28 26  2  0
M  END
$$$$
