EKK.pdb
     RDKit          3D

 28 27  0  0  1  0  0  0  0  0999 V2000
    9.2731  -18.8748   18.7975 N   0  0  0  0  0  0  0  0  0  0  0  0
    8.3347  -18.3486   19.8275 C   0  0  1  0  0  0  0  0  0  0  0  0
    8.3743  -19.3145   20.9933 C   0  0  0  0  0  0  0  0  0  0  0  0
    9.7677  -19.8093   21.1959 C   0  0  0  0  0  0  0  0  0  0  0  0
   10.0350  -19.8172   22.6768 C   0  0  0  0  0  0  0  0  0  0  0  0
    9.2885  -20.4633   23.4586 O   0  0  0  0  0  0  0  0  0  0  0  0
    8.9040  -17.0624   20.2759 C   0  0  0  0  0  0  0  0  0  0  0  0
   10.1610  -16.9164   20.2832 O   0  0  0  0  0  0  0  0  0  0  0  0
   11.1163  -19.0973   23.1329 O   0  0  0  0  0  0  0  0  0  0  0  0
    8.1579  -15.9343   20.7102 N   0  0  0  0  0  0  0  0  0  0  0  0
    8.8192  -14.6670   20.9612 C   0  0  1  0  0  0  0  0  0  0  0  0
    7.8601  -13.5195   20.6123 C   0  0  0  0  0  0  0  0  0  0  0  0
    7.3395  -13.7974   19.2236 C   0  0  0  0  0  0  0  0  0  0  0  0
    8.3573  -13.5929   18.1522 C   0  0  0  0  0  0  0  0  0  0  0  0
    7.7114  -13.7934   16.7985 C   0  0  0  0  0  0  0  0  0  0  0  0
    8.7402  -13.5107   15.7991 N   0  0  0  0  0  0  0  0  0  0  0  0
    9.2626  -14.5382   22.3811 C   0  0  0  0  0  0  0  0  0  0  0  0
    9.9408  -13.5396   22.7649 O   0  0  0  0  0  0  0  0  0  0  0  0
    8.9472  -15.5110   23.3367 N   0  0  0  0  0  0  0  0  0  0  0  0
    9.2106  -15.2668   24.8225 C   0  0  1  0  0  0  0  0  0  0  0  0
    7.9563  -14.6195   25.2223 C   0  0  0  0  0  0  0  0  0  0  0  0
    7.7968  -13.5850   26.2022 C   0  0  0  0  0  0  0  0  0  0  0  0
    6.5527  -12.9359   26.5282 C   0  0  0  0  0  0  0  0  0  0  0  0
    6.4504  -11.8120   27.4435 C   0  0  0  0  0  0  0  0  0  0  0  0
    5.0088  -11.3661   27.4090 N   0  0  0  0  0  0  0  0  0  0  0  0
    9.6820  -16.5412   25.2762 C   0  0  0  0  0  0  0  0  0  0  0  0
    9.7836  -17.7028   24.5072 O   0  0  0  0  0  0  0  0  0  0  0  0
   10.0512  -16.7129   26.4919 O   0  0  0  0  0  0  0  0  0  0  0  0
  2  7  1  0
  2  1  1  6
  3  2  1  0
  3  4  1  0
  4  5  1  0
  5  6  2  0
  7  8  2  0
  9  5  1  0
 10 11  1  0
 10  7  1  0
 11 12  1  1
 13 12  1  0
 14 15  1  0
 14 13  1  0
 16 15  1  0
 17 11  1  0
 17 19  1  0
 18 17  2  0
 20 19  1  0
 20 21  1  1
 22 21  1  0
 23 24  1  0
 23 22  1  0
 24 25  1  0
 26 20  1  0
 27 26  1  0
 28 26  2  0
M  END
$$$$
