EKK.pdb
     RDKit          3D

 28 27  0  0  1  0  0  0  0  0999 V2000
   10.3170  -18.3346   19.2223 N   0  0  0  0  0  0  0  0  0  0  0  0
   11.2360  -18.1905   20.3854 C   0  0  1  0  0  0  0  0  0  0  0  0
   12.5850  -17.7809   19.8323 C   0  0  0  0  0  0  0  0  0  0  0  0
   12.4774  -17.5298   18.3650 C   0  0  0  0  0  0  0  0  0  0  0  0
   13.8575  -17.2106   17.8574 C   0  0  0  0  0  0  0  0  0  0  0  0
   14.3281  -16.0479   17.9704 O   0  0  0  0  0  0  0  0  0  0  0  0
   10.7061  -17.0680   21.1845 C   0  0  0  0  0  0  0  0  0  0  0  0
   11.4059  -16.6038   22.1312 O   0  0  0  0  0  0  0  0  0  0  0  0
   14.5731  -18.2310   17.2725 O   0  0  0  0  0  0  0  0  0  0  0  0
    9.4503  -16.4336   20.9884 N   0  0  0  0  0  0  0  0  0  0  0  0
    8.9890  -15.4135   21.9121 C   0  0  1  0  0  0  0  0  0  0  0  0
    7.8188  -14.6489   21.2763 C   0  0  0  0  0  0  0  0  0  0  0  0
    8.3884  -13.8742   20.1136 C   0  0  0  0  0  0  0  0  0  0  0  0
    7.3613  -13.1190   19.3387 C   0  0  0  0  0  0  0  0  0  0  0  0
    8.0212  -12.4324   18.1627 C   0  0  0  0  0  0  0  0  0  0  0  0
    8.1161  -13.4288   17.0971 N   0  0  0  0  0  0  0  0  0  0  0  0
    8.5602  -15.9941   23.2191 C   0  0  0  0  0  0  0  0  0  0  0  0
    7.9959  -17.1267   23.2762 O   0  0  0  0  0  0  0  0  0  0  0  0
    8.7647  -15.3124   24.4242 N   0  0  0  0  0  0  0  0  0  0  0  0
    8.3852  -15.9495   25.7610 C   0  0  1  0  0  0  0  0  0  0  0  0
    9.1716  -15.1306   26.6900 C   0  0  0  0  0  0  0  0  0  0  0  0
    9.5056  -15.4505   28.0472 C   0  0  0  0  0  0  0  0  0  0  0  0
   10.2417  -14.5963   28.9437 C   0  0  0  0  0  0  0  0  0  0  0  0
   10.4871  -14.9198   30.3388 C   0  0  0  0  0  0  0  0  0  0  0  0
   11.2333  -13.7446   30.9224 N   0  0  0  0  0  0  0  0  0  0  0  0
    6.9554  -16.0064   25.6923 C   0  0  0  0  0  0  0  0  0  0  0  0
    6.1448  -15.2945   24.8051 O   0  0  0  0  0  0  0  0  0  0  0  0
    6.2858  -16.7479   26.4957 O   0  0  0  0  0  0  0  0  0  0  0  0
  2  7  1  0
  2  1  1  6
  3  2  1  0
  3  4  1  0
  4  5  1  0
  5  6  2  0
  7  8  2  0
  9  5  1  0
 10 11  1  0
 10  7  1  0
 11 12  1  6
 13 12  1  0
 14 15  1  0
 14 13  1  0
 16 15  1  0
 17 11  1  0
 17 19  1  0
 18 17  2  0
 20 19  1  0
 20 21  1  1
 22 21  1  0
 23 24  1  0
 23 22  1  0
 24 25  1  0
 26 20  1  0
 27 26  1  0
 28 26  2  0
M  END
$$$$
