EKK.pdb
     RDKit          3D

 28 27  0  0  1  0  0  0  0  0999 V2000
   11.5675  -19.4791   20.2346 N   0  0  0  0  0  0  0  0  0  0  0  0
   11.9134  -18.0309   20.1986 C   0  0  1  0  0  0  0  0  0  0  0  0
   12.1091  -17.6613   18.7429 C   0  0  0  0  0  0  0  0  0  0  0  0
   13.5645  -17.5117   18.4482 C   0  0  0  0  0  0  0  0  0  0  0  0
   13.8647  -18.3289   17.2208 C   0  0  0  0  0  0  0  0  0  0  0  0
   12.9452  -18.9485   16.6236 O   0  0  0  0  0  0  0  0  0  0  0  0
   10.7222  -17.3167   20.6986 C   0  0  0  0  0  0  0  0  0  0  0  0
   10.7801  -16.0627   20.8588 O   0  0  0  0  0  0  0  0  0  0  0  0
   15.1702  -18.3688   16.7854 O   0  0  0  0  0  0  0  0  0  0  0  0
    9.4756  -17.9147   21.0248 N   0  0  0  0  0  0  0  0  0  0  0  0
    8.3852  -17.1081   21.5414 C   0  0  1  0  0  0  0  0  0  0  0  0
    7.0738  -17.8988   21.4258 C   0  0  0  0  0  0  0  0  0  0  0  0
    7.4051  -19.3359   21.7441 C   0  0  0  0  0  0  0  0  0  0  0  0
    6.2131  -20.2328   21.7659 C   0  0  0  0  0  0  0  0  0  0  0  0
    6.6364  -21.6236   22.1860 C   0  0  0  0  0  0  0  0  0  0  0  0
    5.4229  -22.4383   22.2153 N   0  0  0  0  0  0  0  0  0  0  0  0
    8.6086  -16.7089   22.9627 C   0  0  0  0  0  0  0  0  0  0  0  0
    9.4834  -17.2874   23.6732 O   0  0  0  0  0  0  0  0  0  0  0  0
    7.8640  -15.6857   23.5605 N   0  0  0  0  0  0  0  0  0  0  0  0
    8.1067  -15.2849   25.0155 C   0  0  1  0  0  0  0  0  0  0  0  0
    7.3759  -14.0143   25.0772 C   0  0  0  0  0  0  0  0  0  0  0  0
    7.2454  -13.1518   26.2152 C   0  0  0  0  0  0  0  0  0  0  0  0
    6.4957  -11.9219   26.2422 C   0  0  0  0  0  0  0  0  0  0  0  0
    6.3926  -11.0714   27.4158 C   0  0  0  0  0  0  0  0  0  0  0  0
    5.5534   -9.8849   27.0079 N   0  0  0  0  0  0  0  0  0  0  0  0
    7.7791  -16.4801   25.7341 C   0  0  0  0  0  0  0  0  0  0  0  0
    8.3420  -16.8940   26.9436 O   0  0  0  0  0  0  0  0  0  0  0  0
    6.9061  -17.3029   25.2818 O   0  0  0  0  0  0  0  0  0  0  0  0
  2  7  1  0
  2  1  1  6
  3  2  1  0
  3  4  1  0
  4  5  1  0
  5  6  2  0
  7  8  2  0
  9  5  1  0
 10 11  1  0
 10  7  1  0
 11 12  1  1
 13 12  1  0
 14 15  1  0
 14 13  1  0
 16 15  1  0
 17 11  1  0
 17 19  1  0
 18 17  2  0
 20 19  1  0
 20 21  1  1
 22 21  1  0
 23 24  1  0
 23 22  1  0
 24 25  1  0
 26 20  1  0
 27 26  1  0
 28 26  2  0
M  END
$$$$
