DCD.pdb
     RDKit          3D

 23 22  0  0  1  0  0  0  0  0999 V2000
   20.7444  -12.1865  -18.5651 N   0  0  0  0  0  0  0  0  0  0  0  0
   20.9520  -12.7390  -17.2391 C   0  0  1  0  0  0  0  0  0  0  0  0
   21.4767  -14.1473  -17.4261 C   0  0  0  0  0  0  0  0  0  0  0  0
   20.4557  -14.9791  -18.1523 C   0  0  0  0  0  0  0  0  0  0  0  0
   19.2319  -14.7438  -17.9843 O   0  0  0  0  0  0  0  0  0  0  0  0
   21.9126  -11.9060  -16.4620 C   0  0  0  0  0  0  0  0  0  0  0  0
   22.6505  -12.4884  -15.6119 O   0  0  0  0  0  0  0  0  0  0  0  0
   20.8105  -16.0025  -19.0062 O   0  0  0  0  0  0  0  0  0  0  0  0
   22.0012  -10.5135  -16.6627 N   0  0  0  0  0  0  0  0  0  0  0  0
   22.9999   -9.7256  -16.0154 C   0  0  1  0  0  0  0  0  0  0  0  0
   24.4103  -10.1463  -16.3684 C   0  0  0  0  0  0  0  0  0  0  0  0
   25.6588   -9.1215  -15.6048 S   0  0  0  0  0  0  0  0  0  0  0  0
   22.8009   -8.2594  -16.2452 C   0  0  0  0  0  0  0  0  0  0  0  0
   22.7368   -7.8222  -17.4224 O   0  0  0  0  0  0  0  0  0  0  0  0
   22.6817   -7.3419  -15.1705 N   0  0  0  0  0  0  0  0  0  0  0  0
   22.2075   -5.9742  -15.3341 C   0  0  1  0  0  0  0  0  0  0  0  0
   20.8418   -5.9547  -15.9782 C   0  0  0  0  0  0  0  0  0  0  0  0
   20.2694   -4.6010  -16.1241 C   0  0  0  0  0  0  0  0  0  0  0  0
   20.9552   -3.5807  -15.8677 O   0  0  0  0  0  0  0  0  0  0  0  0
   22.2246   -5.2658  -14.0312 C   0  0  0  0  0  0  0  0  0  0  0  0
   22.3719   -5.8626  -12.9626 O   0  0  0  0  0  0  0  0  0  0  0  0
   18.9620   -4.4043  -16.5468 O   0  0  0  0  0  0  0  0  0  0  0  0
   22.0714   -3.8703  -13.9691 O   0  0  0  0  0  0  0  0  0  0  0  0
  2  1  1  6
  3  4  1  0
  3  2  1  0
  4  8  1  0
  5  4  2  0
  6  7  2  0
  6  2  1  0
  9  6  1  0
 10  9  1  0
 10 13  1  0
 10 11  1  6
 12 11  1  0
 13 15  1  0
 14 13  2  0
 15 16  1  0
 16 20  1  0
 16 17  1  1
 17 18  1  0
 18 22  1  0
 19 18  2  0
 20 21  2  0
 20 23  1  0
M  END
$$$$
