DCD.pdb
     RDKit          3D

 23 22  0  0  1  0  0  0  0  0999 V2000
   19.1615   -4.0387  -18.1418 N   0  0  0  0  0  0  0  0  0  0  0  0
   19.4159   -4.5375  -16.8027 C   0  0  1  0  0  0  0  0  0  0  0  0
   18.1971   -4.2018  -15.9689 C   0  0  0  0  0  0  0  0  0  0  0  0
   18.1386   -2.7188  -15.7261 C   0  0  0  0  0  0  0  0  0  0  0  0
   17.0732   -2.0939  -15.9618 O   0  0  0  0  0  0  0  0  0  0  0  0
   19.6658   -6.0065  -16.8227 C   0  0  0  0  0  0  0  0  0  0  0  0
   18.9845   -6.7134  -17.6241 O   0  0  0  0  0  0  0  0  0  0  0  0
   19.2192   -2.0064  -15.2494 O   0  0  0  0  0  0  0  0  0  0  0  0
   20.6286   -6.5956  -15.9783 N   0  0  0  0  0  0  0  0  0  0  0  0
   20.8812   -8.0002  -15.9961 C   0  0  1  0  0  0  0  0  0  0  0  0
   22.2174   -8.3718  -15.3899 C   0  0  0  0  0  0  0  0  0  0  0  0
   22.4087  -10.1305  -15.1405 S   0  0  0  0  0  0  0  0  0  0  0  0
   19.7688   -8.7832  -15.3705 C   0  0  0  0  0  0  0  0  0  0  0  0
   19.3367   -8.4458  -14.2389 O   0  0  0  0  0  0  0  0  0  0  0  0
   19.1829   -9.9007  -16.0178 N   0  0  0  0  0  0  0  0  0  0  0  0
   18.0818  -10.6679  -15.4509 C   0  0  1  0  0  0  0  0  0  0  0  0
   16.8414  -10.5325  -16.3015 C   0  0  0  0  0  0  0  0  0  0  0  0
   15.6905  -11.3159  -15.8087 C   0  0  0  0  0  0  0  0  0  0  0  0
   15.0126  -10.9179  -14.8293 O   0  0  0  0  0  0  0  0  0  0  0  0
   18.4844  -12.0832  -15.2656 C   0  0  0  0  0  0  0  0  0  0  0  0
   19.3725  -12.6060  -15.9420 O   0  0  0  0  0  0  0  0  0  0  0  0
   15.3155  -12.5129  -16.4029 O   0  0  0  0  0  0  0  0  0  0  0  0
   17.8585  -12.8885  -14.2988 O   0  0  0  0  0  0  0  0  0  0  0  0
  2  1  1  6
  3  4  1  0
  3  2  1  0
  4  8  1  0
  5  4  2  0
  6  7  2  0
  6  2  1  0
  9  6  1  0
 10  9  1  0
 10 13  1  0
 10 11  1  1
 12 11  1  0
 13 15  1  0
 14 13  2  0
 15 16  1  0
 16 20  1  0
 16 17  1  6
 17 18  1  0
 18 22  1  0
 19 18  2  0
 20 21  2  0
 20 23  1  0
M  END
$$$$
