DCD.pdb
     RDKit          3D

 23 22  0  0  1  0  0  0  0  0999 V2000
   26.4277  -24.7672  -15.8114 N   0  0  0  0  0  0  0  0  0  0  0  0
   25.7425  -23.9545  -16.7996 C   0  0  1  0  0  0  0  0  0  0  0  0
   24.6768  -24.8291  -17.4267 C   0  0  0  0  0  0  0  0  0  0  0  0
   25.3211  -25.9904  -18.1323 C   0  0  0  0  0  0  0  0  0  0  0  0
   25.9720  -25.7894  -19.1893 O   0  0  0  0  0  0  0  0  0  0  0  0
   25.1427  -22.7454  -16.1680 C   0  0  0  0  0  0  0  0  0  0  0  0
   24.2018  -22.9153  -15.3362 O   0  0  0  0  0  0  0  0  0  0  0  0
   25.2267  -27.2836  -17.6621 O   0  0  0  0  0  0  0  0  0  0  0  0
   25.6042  -21.4512  -16.4832 N   0  0  0  0  0  0  0  0  0  0  0  0
   24.9517  -20.2823  -15.9880 C   0  0  1  0  0  0  0  0  0  0  0  0
   25.7512  -19.0163  -16.2092 C   0  0  0  0  0  0  0  0  0  0  0  0
   27.4385  -19.1442  -15.6360 S   0  0  0  0  0  0  0  0  0  0  0  0
   23.5601  -20.1416  -16.5224 C   0  0  0  0  0  0  0  0  0  0  0  0
   23.1298  -20.9821  -17.3529 O   0  0  0  0  0  0  0  0  0  0  0  0
   22.7059  -19.0838  -16.1192 N   0  0  0  0  0  0  0  0  0  0  0  0
   21.2527  -19.1565  -16.1908 C   0  0  1  0  0  0  0  0  0  0  0  0
   20.7299  -20.2811  -15.3292 C   0  0  0  0  0  0  0  0  0  0  0  0
   19.2717  -20.4886  -15.4377 C   0  0  0  0  0  0  0  0  0  0  0  0
   18.4686  -19.5529  -15.1999 O   0  0  0  0  0  0  0  0  0  0  0  0
   20.6551  -17.8479  -15.8303 C   0  0  0  0  0  0  0  0  0  0  0  0
   19.4396  -17.6475  -15.8761 O   0  0  0  0  0  0  0  0  0  0  0  0
   18.7353  -21.7154  -15.8036 O   0  0  0  0  0  0  0  0  0  0  0  0
   21.4653  -16.7761  -15.4181 O   0  0  0  0  0  0  0  0  0  0  0  0
  2  1  1  1
  3  4  1  0
  3  2  1  0
  4  8  1  0
  5  4  2  0
  6  7  2  0
  6  2  1  0
  9  6  1  0
 10  9  1  0
 10 13  1  0
 10 11  1  6
 12 11  1  0
 13 15  1  0
 14 13  2  0
 15 16  1  0
 16 20  1  0
 16 17  1  1
 17 18  1  0
 18 22  1  0
 19 18  2  0
 20 21  2  0
 20 23  1  0
M  END
$$$$
