DCD.pdb
     RDKit          3D

 23 22  0  0  1  0  0  0  0  0999 V2000
   20.5219  -13.6315  -16.7414 N   0  0  0  0  0  0  0  0  0  0  0  0
   19.7986  -12.3872  -16.9287 C   0  0  1  0  0  0  0  0  0  0  0  0
   18.9550  -12.1773  -15.6886 C   0  0  0  0  0  0  0  0  0  0  0  0
   17.9337  -13.2754  -15.5755 C   0  0  0  0  0  0  0  0  0  0  0  0
   17.3764  -13.7126  -16.6145 O   0  0  0  0  0  0  0  0  0  0  0  0
   20.7415  -11.2519  -17.1360 C   0  0  0  0  0  0  0  0  0  0  0  0
   21.8538  -11.2861  -16.5297 O   0  0  0  0  0  0  0  0  0  0  0  0
   17.5783  -13.8302  -14.3637 O   0  0  0  0  0  0  0  0  0  0  0  0
   20.4105  -10.1717  -17.9791 N   0  0  0  0  0  0  0  0  0  0  0  0
   21.3462   -9.1334  -18.2683 C   0  0  1  0  0  0  0  0  0  0  0  0
   21.4482   -8.8194  -19.7455 C   0  0  0  0  0  0  0  0  0  0  0  0
   22.0597  -10.1915  -20.7126 S   0  0  0  0  0  0  0  0  0  0  0  0
   21.0811   -7.8943  -17.4706 C   0  0  0  0  0  0  0  0  0  0  0  0
   19.9020   -7.6189  -17.1315 O   0  0  0  0  0  0  0  0  0  0  0  0
   22.1243   -7.0155  -17.0826 N   0  0  0  0  0  0  0  0  0  0  0  0
   21.9142   -5.8463  -16.2394 C   0  0  1  0  0  0  0  0  0  0  0  0
   21.2591   -6.2369  -14.9361 C   0  0  0  0  0  0  0  0  0  0  0  0
   21.1059   -5.1173  -13.9852 C   0  0  0  0  0  0  0  0  0  0  0  0
   21.0575   -3.9298  -14.3910 O   0  0  0  0  0  0  0  0  0  0  0  0
   23.1943   -5.1268  -16.0315 C   0  0  0  0  0  0  0  0  0  0  0  0
   24.2684   -5.5670  -16.4464 O   0  0  0  0  0  0  0  0  0  0  0  0
   21.0101   -5.3309  -12.6171 O   0  0  0  0  0  0  0  0  0  0  0  0
   23.2274   -3.9012  -15.3447 O   0  0  0  0  0  0  0  0  0  0  0  0
  2  1  1  1
  3  4  1  0
  3  2  1  0
  4  8  1  0
  5  4  2  0
  6  7  2  0
  6  2  1  0
  9  6  1  0
 10  9  1  0
 10 13  1  0
 10 11  1  6
 12 11  1  0
 13 15  1  0
 14 13  2  0
 15 16  1  0
 16 20  1  0
 16 17  1  1
 17 18  1  0
 18 22  1  0
 19 18  2  0
 20 21  2  0
 20 23  1  0
M  END
$$$$
