DCD.pdb
     RDKit          3D

 23 22  0  0  1  0  0  0  0  0999 V2000
   20.1591  -13.1845  -16.1089 N   0  0  0  0  0  0  0  0  0  0  0  0
   20.0534  -11.8870  -16.7508 C   0  0  1  0  0  0  0  0  0  0  0  0
   18.5762  -11.5900  -16.9030 C   0  0  0  0  0  0  0  0  0  0  0  0
   17.9418  -12.6112  -17.8065 C   0  0  0  0  0  0  0  0  0  0  0  0
   18.4259  -12.8132  -18.9494 O   0  0  0  0  0  0  0  0  0  0  0  0
   20.7321  -10.8373  -15.9394 C   0  0  0  0  0  0  0  0  0  0  0  0
   20.3744  -10.6970  -14.7318 O   0  0  0  0  0  0  0  0  0  0  0  0
   16.8366  -13.3449  -17.4289 O   0  0  0  0  0  0  0  0  0  0  0  0
   21.7409  -10.0236  -16.4939 N   0  0  0  0  0  0  0  0  0  0  0  0
   22.4581   -9.0765  -15.7028 C   0  0  1  0  0  0  0  0  0  0  0  0
   23.9546   -9.3032  -15.7153 C   0  0  0  0  0  0  0  0  0  0  0  0
   24.4483  -10.7702  -14.8232 S   0  0  0  0  0  0  0  0  0  0  0  0
   22.1235   -7.6638  -16.0696 C   0  0  0  0  0  0  0  0  0  0  0  0
   22.2878   -7.2784  -17.2552 O   0  0  0  0  0  0  0  0  0  0  0  0
   21.6240   -6.7404  -15.1163 N   0  0  0  0  0  0  0  0  0  0  0  0
   21.3381   -5.3459  -15.4257 C   0  0  1  0  0  0  0  0  0  0  0  0
   19.8837   -5.0285  -15.1718 C   0  0  0  0  0  0  0  0  0  0  0  0
   19.5235   -3.6216  -15.4400 C   0  0  0  0  0  0  0  0  0  0  0  0
   20.3445   -2.8378  -15.9775 O   0  0  0  0  0  0  0  0  0  0  0  0
   22.2486   -4.4546  -14.6666 C   0  0  0  0  0  0  0  0  0  0  0  0
   22.7862   -4.8087  -13.6153 O   0  0  0  0  0  0  0  0  0  0  0  0
   18.2742   -3.1137  -15.1114 O   0  0  0  0  0  0  0  0  0  0  0  0
   22.5340   -3.1576  -15.1262 O   0  0  0  0  0  0  0  0  0  0  0  0
  2  1  1  1
  3  4  1  0
  3  2  1  0
  4  8  1  0
  5  4  2  0
  6  7  2  0
  6  2  1  0
  9  6  1  0
 10  9  1  0
 10 13  1  0
 10 11  1  6
 12 11  1  0
 13 15  1  0
 14 13  2  0
 15 16  1  0
 16 20  1  0
 16 17  1  1
 17 18  1  0
 18 22  1  0
 19 18  2  0
 20 21  2  0
 20 23  1  0
M  END
$$$$
