DCD.pdb
     RDKit          3D

 23 22  0  0  1  0  0  0  0  0999 V2000
   19.0419  -11.6313  -15.1062 N   0  0  0  0  0  0  0  0  0  0  0  0
   18.8913  -10.4025  -15.8637 C   0  0  1  0  0  0  0  0  0  0  0  0
   17.4263  -10.2878  -16.2301 C   0  0  0  0  0  0  0  0  0  0  0  0
   17.0499  -11.3942  -17.1766 C   0  0  0  0  0  0  0  0  0  0  0  0
   16.0361  -12.0979  -16.9352 O   0  0  0  0  0  0  0  0  0  0  0  0
   19.3389   -9.2279  -15.0631 C   0  0  0  0  0  0  0  0  0  0  0  0
   18.9101   -9.1212  -13.8753 O   0  0  0  0  0  0  0  0  0  0  0  0
   17.7799  -11.6726  -18.3133 O   0  0  0  0  0  0  0  0  0  0  0  0
   20.2116   -8.2632  -15.6061 N   0  0  0  0  0  0  0  0  0  0  0  0
   20.6181   -7.1165  -14.8597 C   0  0  1  0  0  0  0  0  0  0  0  0
   22.0153   -7.2417  -14.2913 C   0  0  0  0  0  0  0  0  0  0  0  0
   22.5507   -5.7770  -13.4196 S   0  0  0  0  0  0  0  0  0  0  0  0
   20.4656   -5.8489  -15.6419 C   0  0  0  0  0  0  0  0  0  0  0  0
   20.9281   -5.7845  -16.8094 O   0  0  0  0  0  0  0  0  0  0  0  0
   19.8118   -4.7110  -15.1046 N   0  0  0  0  0  0  0  0  0  0  0  0
   19.7489   -3.4263  -15.7885 C   0  0  1  0  0  0  0  0  0  0  0  0
   18.5026   -2.6703  -15.3939 C   0  0  0  0  0  0  0  0  0  0  0  0
   17.9842   -1.7793  -16.4516 C   0  0  0  0  0  0  0  0  0  0  0  0
   18.6012   -1.6407  -17.5365 O   0  0  0  0  0  0  0  0  0  0  0  0
   20.9841   -2.6468  -15.5312 C   0  0  0  0  0  0  0  0  0  0  0  0
   21.7838   -2.9592  -14.6466 O   0  0  0  0  0  0  0  0  0  0  0  0
   16.8047   -1.0657  -16.2900 O   0  0  0  0  0  0  0  0  0  0  0  0
   21.2898   -1.5094  -16.2978 O   0  0  0  0  0  0  0  0  0  0  0  0
  2  1  1  1
  3  4  1  0
  3  2  1  0
  4  8  1  0
  5  4  2  0
  6  7  2  0
  6  2  1  0
  9  6  1  0
 10  9  1  0
 10 13  1  0
 10 11  1  6
 12 11  1  0
 13 15  1  0
 14 13  2  0
 15 16  1  0
 16 20  1  0
 16 17  1  1
 17 18  1  0
 18 22  1  0
 19 18  2  0
 20 21  2  0
 20 23  1  0
M  END
$$$$
