DCD.pdb
     RDKit          3D

 23 22  0  0  1  0  0  0  0  0999 V2000
   15.7091  -12.4861  -14.7798 N   0  0  0  0  0  0  0  0  0  0  0  0
   15.6752  -11.1248  -15.2821 C   0  0  1  0  0  0  0  0  0  0  0  0
   14.2164  -10.7376  -15.4071 C   0  0  0  0  0  0  0  0  0  0  0  0
   13.5924  -11.4694  -16.5633 C   0  0  0  0  0  0  0  0  0  0  0  0
   13.8367  -11.0943  -17.7384 O   0  0  0  0  0  0  0  0  0  0  0  0
   16.3995  -10.2023  -14.3629 C   0  0  0  0  0  0  0  0  0  0  0  0
   15.9810  -10.1029  -13.1708 O   0  0  0  0  0  0  0  0  0  0  0  0
   12.7524  -12.5489  -16.3860 O   0  0  0  0  0  0  0  0  0  0  0  0
   17.5157   -9.4612  -14.8013 N   0  0  0  0  0  0  0  0  0  0  0  0
   18.2834   -8.6613  -13.9025 C   0  0  1  0  0  0  0  0  0  0  0  0
   18.8729   -9.4543  -12.7559 C   0  0  0  0  0  0  0  0  0  0  0  0
   19.9739  -10.7536  -13.2958 S   0  0  0  0  0  0  0  0  0  0  0  0
   19.3395   -7.8700  -14.6100 C   0  0  0  0  0  0  0  0  0  0  0  0
   19.4853   -8.0066  -15.8514 O   0  0  0  0  0  0  0  0  0  0  0  0
   20.1861   -6.9653  -13.9203 N   0  0  0  0  0  0  0  0  0  0  0  0
   21.1524   -6.1045  -14.5891 C   0  0  1  0  0  0  0  0  0  0  0  0
   20.4946   -5.3261  -15.7036 C   0  0  0  0  0  0  0  0  0  0  0  0
   21.4149   -4.4266  -16.4282 C   0  0  0  0  0  0  0  0  0  0  0  0
   22.6494   -4.4478  -16.1991 O   0  0  0  0  0  0  0  0  0  0  0  0
   21.8200   -5.2197  -13.6037 C   0  0  0  0  0  0  0  0  0  0  0  0
   21.3910   -5.0743  -12.4572 O   0  0  0  0  0  0  0  0  0  0  0  0
   20.9560   -3.5297  -17.3830 O   0  0  0  0  0  0  0  0  0  0  0  0
   22.9810   -4.5065  -13.9479 O   0  0  0  0  0  0  0  0  0  0  0  0
  2  1  1  1
  3  4  1  0
  3  2  1  0
  4  8  1  0
  5  4  2  0
  6  7  2  0
  6  2  1  0
  9  6  1  0
 10  9  1  0
 10 13  1  0
 10 11  1  1
 12 11  1  0
 13 15  1  0
 14 13  2  0
 15 16  1  0
 16 20  1  0
 16 17  1  6
 17 18  1  0
 18 22  1  0
 19 18  2  0
 20 21  2  0
 20 23  1  0
M  END
$$$$
