DCD.pdb
     RDKit          3D

 23 22  0  0  1  0  0  0  0  0999 V2000
   18.8499  -13.4363  -16.0141 N   0  0  0  0  0  0  0  0  0  0  0  0
   19.3394  -12.2785  -16.7396 C   0  0  1  0  0  0  0  0  0  0  0  0
   18.1299  -11.5874  -17.3337 C   0  0  0  0  0  0  0  0  0  0  0  0
   17.4426  -12.5080  -18.3041 C   0  0  0  0  0  0  0  0  0  0  0  0
   18.1179  -13.0880  -19.1923 O   0  0  0  0  0  0  0  0  0  0  0  0
   20.0905  -11.3639  -15.8340 C   0  0  0  0  0  0  0  0  0  0  0  0
   19.5033  -10.9478  -14.7909 O   0  0  0  0  0  0  0  0  0  0  0  0
   16.0847  -12.7458  -18.2597 O   0  0  0  0  0  0  0  0  0  0  0  0
   21.4129  -10.9713  -16.1246 N   0  0  0  0  0  0  0  0  0  0  0  0
   22.1408  -10.0966  -15.2631 C   0  0  1  0  0  0  0  0  0  0  0  0
   23.6091  -10.4496  -15.1604 C   0  0  0  0  0  0  0  0  0  0  0  0
   23.9000  -11.9984  -14.3187 S   0  0  0  0  0  0  0  0  0  0  0  0
   21.9567   -8.6570  -15.6313 C   0  0  0  0  0  0  0  0  0  0  0  0
   22.2329   -8.2781  -16.7980 O   0  0  0  0  0  0  0  0  0  0  0  0
   21.4774   -7.7008  -14.7002 N   0  0  0  0  0  0  0  0  0  0  0  0
   21.2403   -6.3036  -15.0376 C   0  0  1  0  0  0  0  0  0  0  0  0
   19.7621   -5.9947  -15.0305 C   0  0  0  0  0  0  0  0  0  0  0  0
   19.4419   -4.5983  -15.3893 C   0  0  0  0  0  0  0  0  0  0  0  0
   20.1881   -3.9437  -16.1585 O   0  0  0  0  0  0  0  0  0  0  0  0
   22.0038   -5.4185  -14.1247 C   0  0  0  0  0  0  0  0  0  0  0  0
   22.4373   -5.8129  -13.0402 O   0  0  0  0  0  0  0  0  0  0  0  0
   18.3132   -3.9593  -14.8949 O   0  0  0  0  0  0  0  0  0  0  0  0
   22.2630   -4.0811  -14.4695 O   0  0  0  0  0  0  0  0  0  0  0  0
  2  1  1  1
  3  4  1  0
  3  2  1  0
  4  8  1  0
  5  4  2  0
  6  7  2  0
  6  2  1  0
  9  6  1  0
 10  9  1  0
 10 13  1  0
 10 11  1  6
 12 11  1  0
 13 15  1  0
 14 13  2  0
 15 16  1  0
 16 20  1  0
 16 17  1  1
 17 18  1  0
 18 22  1  0
 19 18  2  0
 20 21  2  0
 20 23  1  0
M  END
$$$$
