RMI.pdb
     RDKit          3D

 28 27  0  0  1  0  0  0  0  0999 V2000
    8.0073  -15.5626   15.8605 N   0  0  0  0  0  0  0  0  0  0  0  0
    8.2150  -14.2484   15.3030 C   0  0  0  0  0  0  0  0  0  0  0  0
    8.2677  -14.1043   14.0296 N   0  0  0  0  0  0  0  0  0  0  0  0
    8.3620  -13.1139   16.1279 N   0  0  0  0  0  0  0  0  0  0  0  0
    8.1904  -13.1384   17.5796 C   0  0  0  0  0  0  0  0  0  0  0  0
    8.1051  -14.5647   18.0310 C   0  0  0  0  0  0  0  0  0  0  0  0
    7.7422  -14.6183   19.4892 C   0  0  0  0  0  0  0  0  0  0  0  0
    8.6182  -15.5361   20.2869 C   0  0  2  0  0  0  0  0  0  0  0  0
    8.0637  -16.8749   20.2606 N   0  0  0  0  0  0  0  0  0  0  0  0
    8.7050  -15.1044   21.7186 C   0  0  0  0  0  0  0  0  0  0  0  0
    9.2954  -14.0354   22.0282 O   0  0  0  0  0  0  0  0  0  0  0  0
    8.3954  -13.1752   13.6041 C   0  0  0  0  0  0  0  0  0  0  0  0
    6.2106  -11.7760   26.9154 S   0  0  0  0  0  0  0  0  0  0  0  0
    6.5032  -12.8218   25.4540 C   0  0  0  0  0  0  0  0  0  0  0  0
    6.4843  -14.5756   25.8945 C   0  0  0  0  0  0  0  0  0  0  0  0
    6.6469  -15.4113   24.6712 C   0  0  2  0  0  0  0  0  0  0  0  0
    8.0438  -15.3107   24.1037 N   0  0  0  0  0  0  0  0  0  0  0  0
    8.1471  -15.8465   22.7762 C   0  0  0  0  0  0  0  0  0  0  0  0
    9.0350  -15.8917   25.0388 O   0  0  0  0  0  0  0  0  0  0  0  0
    9.4903  -17.0364   24.7836 C   0  0  0  0  0  0  0  0  0  0  0  0
   10.0585  -13.2634   29.7632 C   0  0  0  0  0  0  0  0  0  0  0  0
   10.6497  -13.8229   28.4896 C   0  0  2  0  0  0  0  0  0  0  0  0
   10.4424  -15.2989   28.4695 C   0  0  0  0  0  0  0  0  0  0  0  0
   11.6100  -15.9386   29.2155 C   0  0  2  0  0  0  0  0  0  0  0  0
   10.4558  -15.8787   27.0728 N   0  0  0  0  0  0  0  0  0  0  0  0
    9.5008  -15.2310   26.2064 C   0  0  0  0  0  0  0  0  0  0  0  0
   10.0666  -17.3020   27.2113 O   0  0  0  0  0  0  0  0  0  0  0  0
   10.9685  -18.3497   27.0895 O   0  0  0  0  0  0  0  0  0  0  0  0
  1  2  1  0
  2  3  2  0
  4  2  1  0
  5  6  1  0
  5  4  1  0
  7  6  1  0
  8  7  1  0
  8  9  1  1
 10  8  1  0
 10 11  2  0
 12 13  1  0
 13 14  1  0
 16 15  1  6
 15 14  1  0
 16 17  1  0
 17 10  1  0
 18 16  1  0
 19 18  2  0
 21 20  1  0
 22 21  1  0
 22 23  1  6
 24 22  1  0
 24 25  1  6
 25 18  1  0
 26 24  1  0
 27 26  1  0
 28 26  2  0
M  END
$$$$
