RMI.pdb
     RDKit          3D

 28 27  0  0  1  0  0  0  0  0999 V2000
   10.5054  -20.1833   18.5935 N   0  0  0  0  0  0  0  0  0  0  0  0
   11.2631  -19.3645   17.6789 C   0  0  0  0  0  0  0  0  0  0  0  0
   12.1046  -19.9182   16.8850 N   0  0  0  0  0  0  0  0  0  0  0  0
   11.1000  -17.9642   17.6368 N   0  0  0  0  0  0  0  0  0  0  0  0
   10.3045  -17.2104   18.6045 C   0  0  0  0  0  0  0  0  0  0  0  0
    8.8564  -17.5334   18.3942 C   0  0  0  0  0  0  0  0  0  0  0  0
    8.0084  -16.7032   19.3175 C   0  0  0  0  0  0  0  0  0  0  0  0
    7.7948  -17.3363   20.6591 C   0  0  2  0  0  0  0  0  0  0  0  0
    6.3735  -17.4871   20.8998 N   0  0  0  0  0  0  0  0  0  0  0  0
    8.3586  -16.4914   21.7601 C   0  0  0  0  0  0  0  0  0  0  0  0
    9.6025  -16.3173   21.8577 O   0  0  0  0  0  0  0  0  0  0  0  0
   12.7070  -19.3531   16.2697 C   0  0  0  0  0  0  0  0  0  0  0  0
    6.6723  -10.8244   25.6275 S   0  0  0  0  0  0  0  0  0  0  0  0
    6.5954  -12.4362   26.4710 C   0  0  0  0  0  0  0  0  0  0  0  0
    7.7640  -13.6082   25.7425 C   0  0  0  0  0  0  0  0  0  0  0  0
    7.1592  -14.2538   24.5430 C   0  0  1  0  0  0  0  0  0  0  0  0
    8.1219  -15.2056   23.8717 N   0  0  0  0  0  0  0  0  0  0  0  0
    7.5547  -15.8580   22.7260 C   0  0  0  0  0  0  0  0  0  0  0  0
    8.6920  -16.1572   24.8536 O   0  0  0  0  0  0  0  0  0  0  0  0
    7.9488  -17.0730   25.2916 C   0  0  0  0  0  0  0  0  0  0  0  0
   14.1499  -18.4407   26.4991 C   0  0  0  0  0  0  0  0  0  0  0  0
   12.6426  -18.5485   26.5309 C   0  0  2  0  0  0  0  0  0  0  0  0
   12.0604  -17.3816   25.8087 C   0  0  0  0  0  0  0  0  0  0  0  0
   12.7548  -16.1255   26.3271 C   0  0  2  0  0  0  0  0  0  0  0  0
   10.5835  -17.1976   26.0767 N   0  0  0  0  0  0  0  0  0  0  0  0
   10.0288  -16.0951   25.3289 C   0  0  0  0  0  0  0  0  0  0  0  0
   10.4599  -16.8880   27.5208 O   0  0  0  0  0  0  0  0  0  0  0  0
   10.5927  -17.8467   28.5155 O   0  0  0  0  0  0  0  0  0  0  0  0
  1  2  1  0
  2  3  2  0
  4  2  1  0
  5  6  1  0
  5  4  1  0
  7  6  1  0
  8  7  1  0
  8  9  1  1
 10  8  1  0
 10 11  2  0
 12 13  1  0
 13 14  1  0
 16 15  1  6
 15 14  1  0
 16 17  1  0
 17 10  1  0
 18 16  1  0
 19 18  2  0
 21 20  1  0
 22 21  1  0
 22 23  1  6
 24 22  1  0
 24 25  1  1
 25 18  1  0
 26 24  1  0
 27 26  1  0
 28 26  2  0
M  END
$$$$
