RMI.pdb
     RDKit          3D

 28 27  0  0  1  0  0  0  0  0999 V2000
    7.4140  -13.6358   19.5739 N   0  0  0  0  0  0  0  0  0  0  0  0
    8.2785  -13.3544   18.4538 C   0  0  0  0  0  0  0  0  0  0  0  0
    8.4136  -12.1449   18.0492 N   0  0  0  0  0  0  0  0  0  0  0  0
    8.9815  -14.3816   17.7906 N   0  0  0  0  0  0  0  0  0  0  0  0
    9.1928  -15.7145   18.3532 C   0  0  0  0  0  0  0  0  0  0  0  0
    9.9702  -15.5823   19.6273 C   0  0  0  0  0  0  0  0  0  0  0  0
   10.6245  -16.8933   19.9650 C   0  0  0  0  0  0  0  0  0  0  0  0
    9.9478  -17.6250   21.0842 C   0  0  2  0  0  0  0  0  0  0  0  0
    8.5954  -17.9654   20.6892 N   0  0  0  0  0  0  0  0  0  0  0  0
    9.8655  -16.7822   22.3198 C   0  0  0  0  0  0  0  0  0  0  0  0
   10.9011  -16.2464   22.7969 O   0  0  0  0  0  0  0  0  0  0  0  0
    8.9658  -11.9235   17.2085 C   0  0  0  0  0  0  0  0  0  0  0  0
    5.4939  -12.0981   25.1243 S   0  0  0  0  0  0  0  0  0  0  0  0
    5.5437  -13.7118   25.9660 C   0  0  0  0  0  0  0  0  0  0  0  0
    7.1670  -14.4885   25.7886 C   0  0  0  0  0  0  0  0  0  0  0  0
    7.1953  -15.3394   24.5652 C   0  0  1  0  0  0  0  0  0  0  0  0
    8.6055  -15.7192   24.1774 N   0  0  0  0  0  0  0  0  0  0  0  0
    8.6590  -16.5441   23.0041 C   0  0  0  0  0  0  0  0  0  0  0  0
    9.3278  -16.3074   25.3292 O   0  0  0  0  0  0  0  0  0  0  0  0
    9.5600  -17.5438   25.3143 C   0  0  0  0  0  0  0  0  0  0  0  0
   10.3293  -12.9137   28.9363 C   0  0  0  0  0  0  0  0  0  0  0  0
   11.2639  -13.9848   28.4226 C   0  0  2  0  0  0  0  0  0  0  0  0
   10.6739  -15.3216   28.7176 C   0  0  0  0  0  0  0  0  0  0  0  0
   11.6257  -16.0466   29.6649 C   0  0  2  0  0  0  0  0  0  0  0  0
   10.5432  -16.1941   27.4893 N   0  0  0  0  0  0  0  0  0  0  0  0
    9.7733  -15.5560   26.4490 C   0  0  0  0  0  0  0  0  0  0  0  0
    9.8190  -17.4127   27.9220 O   0  0  0  0  0  0  0  0  0  0  0  0
   10.4630  -18.5750   28.3225 O   0  0  0  0  0  0  0  0  0  0  0  0
  1  2  1  0
  2  3  2  0
  4  2  1  0
  5  6  1  0
  5  4  1  0
  7  6  1  0
  8  7  1  0
  8  9  1  6
 10  8  1  0
 10 11  2  0
 12 13  1  0
 13 14  1  0
 16 15  1  6
 15 14  1  0
 16 17  1  0
 17 10  1  0
 18 16  1  0
 19 18  2  0
 21 20  1  0
 22 21  1  0
 22 23  1  6
 24 22  1  0
 24 25  1  6
 25 18  1  0
 26 24  1  0
 27 26  1  0
 28 26  2  0
M  END
$$$$
