RMI.pdb
     RDKit          3D

 28 27  0  0  1  0  0  0  0  0999 V2000
    9.4985  -12.8744   18.1650 N   0  0  0  0  0  0  0  0  0  0  0  0
    8.0637  -13.0083   18.2311 C   0  0  0  0  0  0  0  0  0  0  0  0
    7.3487  -11.9905   18.5440 N   0  0  0  0  0  0  0  0  0  0  0  0
    7.4260  -14.2364   17.9586 N   0  0  0  0  0  0  0  0  0  0  0  0
    8.1331  -15.4376   17.5173 C   0  0  0  0  0  0  0  0  0  0  0  0
    8.2657  -16.3735   18.6799 C   0  0  0  0  0  0  0  0  0  0  0  0
    9.2243  -15.8032   19.6882 C   0  0  0  0  0  0  0  0  0  0  0  0
    9.4517  -16.7006   20.8667 C   0  0  2  0  0  0  0  0  0  0  0  0
    8.3270  -17.6036   21.0088 N   0  0  0  0  0  0  0  0  0  0  0  0
    9.5731  -15.9169   22.1375 C   0  0  0  0  0  0  0  0  0  0  0  0
   10.5393  -15.1271   22.3104 O   0  0  0  0  0  0  0  0  0  0  0  0
    6.3244  -12.0637   18.6225 C   0  0  0  0  0  0  0  0  0  0  0  0
    6.7114  -11.9908   26.8455 S   0  0  0  0  0  0  0  0  0  0  0  0
    5.8338  -12.8064   25.4744 C   0  0  0  0  0  0  0  0  0  0  0  0
    6.9902  -13.6642   24.3803 C   0  0  0  0  0  0  0  0  0  0  0  0
    7.5378  -14.8715   25.0614 C   0  0  2  0  0  0  0  0  0  0  0  0
    8.8339  -15.3307   24.4349 N   0  0  0  0  0  0  0  0  0  0  0  0
    8.6403  -16.0124   23.1869 C   0  0  0  0  0  0  0  0  0  0  0  0
    9.6371  -16.1148   25.4017 O   0  0  0  0  0  0  0  0  0  0  0  0
   10.1621  -17.1868   25.0040 C   0  0  0  0  0  0  0  0  0  0  0  0
   10.4719  -13.7314   29.9494 C   0  0  0  0  0  0  0  0  0  0  0  0
   11.2821  -14.5808   28.9972 C   0  0  2  0  0  0  0  0  0  0  0  0
   10.7482  -15.9724   29.0189 C   0  0  0  0  0  0  0  0  0  0  0  0
   11.7541  -16.8404   29.7696 C   0  0  2  0  0  0  0  0  0  0  0  0
   10.6084  -16.5735   27.6382 N   0  0  0  0  0  0  0  0  0  0  0  0
    9.8485  -15.7262   26.7512 C   0  0  0  0  0  0  0  0  0  0  0  0
    9.8680  -17.8454   27.8132 O   0  0  0  0  0  0  0  0  0  0  0  0
   10.4957  -19.0767   27.9392 O   0  0  0  0  0  0  0  0  0  0  0  0
  1  2  1  0
  2  3  2  0
  4  2  1  0
  5  6  1  0
  5  4  1  0
  7  6  1  0
  8  7  1  0
  8  9  1  1
 10  8  1  0
 10 11  2  0
 12 13  1  0
 13 14  1  0
 16 15  1  6
 15 14  1  0
 16 17  1  0
 17 10  1  0
 18 16  1  0
 19 18  2  0
 21 20  1  0
 22 21  1  0
 22 23  1  6
 24 22  1  0
 24 25  1  6
 25 18  1  0
 26 24  1  0
 27 26  1  0
 28 26  2  0
M  END
$$$$
