RMI.pdb
     RDKit          3D

 28 27  0  0  1  0  0  0  0  0999 V2000
    8.9824  -17.4495   16.3107 N   0  0  0  0  0  0  0  0  0  0  0  0
    9.6400  -18.7294   16.4132 C   0  0  0  0  0  0  0  0  0  0  0  0
    9.6598  -19.5118   15.3971 N   0  0  0  0  0  0  0  0  0  0  0  0
   10.2642  -19.1423   17.6086 N   0  0  0  0  0  0  0  0  0  0  0  0
   10.0998  -18.4558   18.8890 C   0  0  0  0  0  0  0  0  0  0  0  0
   11.4130  -17.8522   19.2844 C   0  0  0  0  0  0  0  0  0  0  0  0
   11.2865  -17.1888   20.6279 C   0  0  0  0  0  0  0  0  0  0  0  0
    9.8914  -16.7391   20.9402 C   0  0  2  0  0  0  0  0  0  0  0  0
    9.4049  -15.8968   19.8658 N   0  0  0  0  0  0  0  0  0  0  0  0
    9.8434  -15.9399   22.2062 C   0  0  0  0  0  0  0  0  0  0  0  0
   10.8964  -15.4436   22.6880 O   0  0  0  0  0  0  0  0  0  0  0  0
   10.0630  -20.4574   15.4615 C   0  0  0  0  0  0  0  0  0  0  0  0
    5.7407  -11.3089   25.4165 S   0  0  0  0  0  0  0  0  0  0  0  0
    5.7350  -12.9645   26.1741 C   0  0  0  0  0  0  0  0  0  0  0  0
    7.3042  -13.8165   25.8878 C   0  0  0  0  0  0  0  0  0  0  0  0
    7.2886  -14.4812   24.5538 C   0  0  1  0  0  0  0  0  0  0  0  0
    8.6474  -15.0283   24.1828 N   0  0  0  0  0  0  0  0  0  0  0  0
    8.6513  -15.7013   22.9151 C   0  0  0  0  0  0  0  0  0  0  0  0
    9.1972  -15.8597   25.2787 O   0  0  0  0  0  0  0  0  0  0  0  0
    9.3129  -17.0972   25.0828 C   0  0  0  0  0  0  0  0  0  0  0  0
   10.8667  -13.3299   29.8976 C   0  0  0  0  0  0  0  0  0  0  0  0
   11.1384  -14.1281   28.6432 C   0  0  2  0  0  0  0  0  0  0  0  0
   10.5422  -15.4857   28.7969 C   0  0  0  0  0  0  0  0  0  0  0  0
   11.5428  -16.3442   29.5655 C   0  0  2  0  0  0  0  0  0  0  0  0
   10.3063  -16.1809   27.4747 N   0  0  0  0  0  0  0  0  0  0  0  0
    9.6012  -15.3405   26.5373 C   0  0  0  0  0  0  0  0  0  0  0  0
    9.4576  -17.3590   27.7718 O   0  0  0  0  0  0  0  0  0  0  0  0
    9.9766  -18.6067   28.0880 O   0  0  0  0  0  0  0  0  0  0  0  0
  1  2  1  0
  2  3  2  0
  4  2  1  0
  5  6  1  0
  5  4  1  0
  7  6  1  0
  8  7  1  0
  8  9  1  6
 10  8  1  0
 10 11  2  0
 12 13  1  0
 13 14  1  0
 16 15  1  6
 15 14  1  0
 16 17  1  0
 17 10  1  0
 18 16  1  0
 19 18  2  0
 21 20  1  0
 22 21  1  0
 22 23  1  6
 24 22  1  0
 24 25  1  6
 25 18  1  0
 26 24  1  0
 27 26  1  0
 28 26  2  0
M  END
$$$$
