RMI.pdb
     RDKit          3D

 28 27  0  0  1  0  0  0  0  0999 V2000
   13.0340  -19.9559   18.0252 N   0  0  0  0  0  0  0  0  0  0  0  0
   11.6996  -20.4602   17.8107 C   0  0  0  0  0  0  0  0  0  0  0  0
   11.1963  -20.4319   16.6314 N   0  0  0  0  0  0  0  0  0  0  0  0
   10.9324  -20.9856   18.8711 N   0  0  0  0  0  0  0  0  0  0  0  0
   10.6642  -20.2639   20.1140 C   0  0  0  0  0  0  0  0  0  0  0  0
   11.0458  -18.8267   19.9290 C   0  0  0  0  0  0  0  0  0  0  0  0
   10.7592  -18.0559   21.1878 C   0  0  0  0  0  0  0  0  0  0  0  0
    9.7170  -16.9935   21.0105 C   0  0  2  0  0  0  0  0  0  0  0  0
   10.1172  -16.0996   19.9422 N   0  0  0  0  0  0  0  0  0  0  0  0
    9.5510  -16.1754   22.2543 C   0  0  0  0  0  0  0  0  0  0  0  0
   10.4070  -15.3046   22.5644 O   0  0  0  0  0  0  0  0  0  0  0  0
   10.2341  -20.7546   16.4556 C   0  0  0  0  0  0  0  0  0  0  0  0
    6.4481  -12.4244   24.1389 S   0  0  0  0  0  0  0  0  0  0  0  0
    6.8365  -12.8659   25.8621 C   0  0  0  0  0  0  0  0  0  0  0  0
    6.8336  -14.6598   26.0906 C   0  0  0  0  0  0  0  0  0  0  0  0
    6.9171  -15.3432   24.7687 C   0  0  1  0  0  0  0  0  0  0  0  0
    8.3492  -15.5647   24.3401 N   0  0  0  0  0  0  0  0  0  0  0  0
    8.4581  -16.3255   23.1281 C   0  0  0  0  0  0  0  0  0  0  0  0
    9.1493  -16.1314   25.4506 O   0  0  0  0  0  0  0  0  0  0  0  0
    9.4357  -17.3559   25.4097 C   0  0  0  0  0  0  0  0  0  0  0  0
    9.5227  -13.0840   29.4905 C   0  0  0  0  0  0  0  0  0  0  0  0
   10.6556  -13.8489   28.8456 C   0  0  2  0  0  0  0  0  0  0  0  0
   10.3446  -15.3059   28.8973 C   0  0  0  0  0  0  0  0  0  0  0  0
   11.3775  -15.9657   29.8064 C   0  0  2  0  0  0  0  0  0  0  0  0
   10.4625  -15.9836   27.5505 N   0  0  0  0  0  0  0  0  0  0  0  0
    9.6115  -15.3724   26.5583 C   0  0  0  0  0  0  0  0  0  0  0  0
   10.0134  -17.3819   27.7497 O   0  0  0  0  0  0  0  0  0  0  0  0
    8.6770  -17.7560   27.7501 O   0  0  0  0  0  0  0  0  0  0  0  0
  1  2  1  0
  2  3  2  0
  4  2  1  0
  5  6  1  0
  5  4  1  0
  7  6  1  0
  8  7  1  0
  8  9  1  6
 10  8  1  0
 10 11  2  0
 12 13  1  0
 13 14  1  0
 16 15  1  6
 15 14  1  0
 16 17  1  0
 17 10  1  0
 18 16  1  0
 19 18  2  0
 21 20  1  0
 22 21  1  0
 22 23  1  6
 24 22  1  0
 24 25  1  6
 25 18  1  0
 26 24  1  0
 27 26  1  0
 28 26  2  0
M  END
$$$$
