RMI.pdb
     RDKit          3D

 28 27  0  0  1  0  0  0  0  0999 V2000
    8.6565  -16.0755   15.4068 N   0  0  0  0  0  0  0  0  0  0  0  0
    8.1852  -14.7713   15.0095 C   0  0  0  0  0  0  0  0  0  0  0  0
    7.6730  -14.6134   13.8444 N   0  0  0  0  0  0  0  0  0  0  0  0
    8.2744  -13.6615   15.8753 N   0  0  0  0  0  0  0  0  0  0  0  0
    8.5641  -13.7683   17.3043 C   0  0  0  0  0  0  0  0  0  0  0  0
    7.4929  -14.5910   17.9533 C   0  0  0  0  0  0  0  0  0  0  0  0
    7.5049  -14.3646   19.4397 C   0  0  0  0  0  0  0  0  0  0  0  0
    8.5210  -15.1981   20.1602 C   0  0  2  0  0  0  0  0  0  0  0  0
    7.9943  -16.5335   20.3604 N   0  0  0  0  0  0  0  0  0  0  0  0
    8.8439  -14.6266   21.5066 C   0  0  0  0  0  0  0  0  0  0  0  0
    9.4911  -13.5502   21.6045 O   0  0  0  0  0  0  0  0  0  0  0  0
    7.2569  -13.7141   13.5634 C   0  0  0  0  0  0  0  0  0  0  0  0
    4.7360  -13.6739   26.5664 S   0  0  0  0  0  0  0  0  0  0  0  0
    6.0155  -12.4142   26.2643 C   0  0  0  0  0  0  0  0  0  0  0  0
    7.5661  -13.1767   25.7310 C   0  0  0  0  0  0  0  0  0  0  0  0
    7.3338  -14.0135   24.5197 C   0  0  2  0  0  0  0  0  0  0  0  0
    8.6218  -14.5906   23.9800 N   0  0  0  0  0  0  0  0  0  0  0  0
    8.4541  -15.2407   22.7114 C   0  0  0  0  0  0  0  0  0  0  0  0
    9.2745  -15.4562   24.9896 O   0  0  0  0  0  0  0  0  0  0  0  0
    9.2509  -16.7009   24.8072 C   0  0  0  0  0  0  0  0  0  0  0  0
   10.6833  -13.7927   30.2279 C   0  0  0  0  0  0  0  0  0  0  0  0
   10.0830  -14.4169   28.9891 C   0  0  2  0  0  0  0  0  0  0  0  0
   11.1451  -15.1742   28.2676 C   0  0  0  0  0  0  0  0  0  0  0  0
   12.1953  -14.1680   27.8055 C   0  0  1  0  0  0  0  0  0  0  0  0
   10.6360  -15.8659   27.0229 N   0  0  0  0  0  0  0  0  0  0  0  0
    9.9251  -14.9621   26.1512 C   0  0  0  0  0  0  0  0  0  0  0  0
    9.6877  -16.9066   27.4859 O   0  0  0  0  0  0  0  0  0  0  0  0
    8.3207  -16.8430   27.2552 O   0  0  0  0  0  0  0  0  0  0  0  0
  1  2  1  0
  2  3  2  0
  4  2  1  0
  5  6  1  0
  5  4  1  0
  7  6  1  0
  8  7  1  0
  8  9  1  1
 10  8  1  0
 10 11  2  0
 12 13  1  0
 13 14  1  0
 16 15  1  6
 15 14  1  0
 16 17  1  0
 17 10  1  0
 18 16  1  0
 19 18  2  0
 21 20  1  0
 22 21  1  0
 22 23  1  1
 24 22  1  0
 24 25  1  6
 25 18  1  0
 26 24  1  0
 27 26  1  0
 28 26  2  0
M  END
$$$$
