FWL.pdb
     RDKit          3D

 34 36  0  0  1  0  0  0  0  0999 V2000
   28.2529  -22.8531  -16.2899 N   0  0  0  0  0  0  0  0  0  0  0  0
   27.4761  -21.6731  -16.0379 C   0  0  1  0  0  0  0  0  0  0  0  0
   26.5680  -21.4433  -17.2267 C   0  0  0  0  0  0  0  0  0  0  0  0
   27.2584  -20.7126  -18.3074 C   0  0  0  0  0  0  0  0  0  0  0  0
   27.4404  -19.3598  -18.2431 C   0  0  0  0  0  0  0  0  0  0  0  0
   28.0859  -18.6873  -19.2572 C   0  0  0  0  0  0  0  0  0  0  0  0
   28.5633  -19.3598  -20.3597 C   0  0  0  0  0  0  0  0  0  0  0  0
   28.3759  -20.7234  -20.4171 C   0  0  0  0  0  0  0  0  0  0  0  0
   27.7294  -21.4008  -19.4026 C   0  0  0  0  0  0  0  0  0  0  0  0
   26.5667  -21.8533  -14.8641 C   0  0  0  0  0  0  0  0  0  0  0  0
   26.3785  -22.9617  -14.3247 O   0  0  0  0  0  0  0  0  0  0  0  0
   25.9056  -20.7178  -14.3606 N   0  0  0  0  0  0  0  0  0  0  0  0
   25.1467  -20.7611  -13.0942 C   0  0  1  0  0  0  0  0  0  0  0  0
   25.8228  -19.7331  -12.2137 C   0  0  0  0  0  0  0  0  0  0  0  0
   26.4921  -20.2716  -11.0341 C   0  0  0  0  0  0  0  0  0  0  0  0
   25.9132  -20.4687   -9.7781 C   0  0  0  0  0  0  0  0  0  0  0  0
   26.8403  -20.9648   -8.9476 N   0  0  0  0  0  0  0  0  0  0  0  0
   28.0134  -21.1062   -9.5993 C   0  0  0  0  0  0  0  0  0  0  0  0
   29.2270  -21.5738   -9.1489 C   0  0  0  0  0  0  0  0  0  0  0  0
   30.2733  -21.6085  -10.0503 C   0  0  0  0  0  0  0  0  0  0  0  0
   30.0669  -21.1803  -11.3474 C   0  0  0  0  0  0  0  0  0  0  0  0
   28.8589  -20.7122  -11.8053 C   0  0  0  0  0  0  0  0  0  0  0  0
   27.8058  -20.6774  -10.8974 C   0  0  0  0  0  0  0  0  0  0  0  0
   23.7512  -20.3177  -13.4010 C   0  0  0  0  0  0  0  0  0  0  0  0
   23.5852  -19.5079  -14.3486 O   0  0  0  0  0  0  0  0  0  0  0  0
   20.1273  -21.1251  -16.0468 C   0  0  0  0  0  0  0  0  0  0  0  0
   21.1756  -22.1628  -15.7818 C   0  0  2  0  0  0  0  0  0  0  0  0
   20.4575  -23.5352  -15.8734 C   0  0  0  0  0  0  0  0  0  0  0  0
   21.8416  -22.1607  -14.4743 C   0  0  0  0  0  0  0  0  0  0  0  0
   21.4396  -21.1908  -13.4446 C   0  0  2  0  0  0  0  0  0  0  0  0
   22.6320  -20.7652  -12.6830 N   0  0  0  0  0  0  0  0  0  0  0  0
   20.3785  -21.4803  -12.5030 C   0  0  0  0  0  0  0  0  0  0  0  0
   19.0894  -21.0236  -12.5934 O   0  0  0  0  0  0  0  0  0  0  0  0
   20.6250  -22.2052  -11.4972 O   0  0  0  0  0  0  0  0  0  0  0  0
  2  1  1  6
  3  2  1  0
  4  3  1  0
  4  5  2  0
  6  5  1  0
  7  6  2  0
  8  9  2  0
  8  7  1  0
  9  4  1  0
 10 11  2  0
 10  2  1  0
 12 10  1  0
 13 12  1  0
 13 14  1  1
 15 23  1  0
 15 14  1  0
 16 15  2  0
 17 16  1  0
 17 18  1  0
 18 23  2  0
 19 18  1  0
 19 20  2  0
 20 21  1  0
 21 22  2  0
 23 22  1  0
 24 25  2  0
 24 13  1  0
 27 26  1  1
 27 28  1  0
 27 29  1  0
 30 29  1  1
 30 31  1  0
 31 24  1  0
 32 30  1  0
 33 32  1  0
 34 32  2  0
M  END
$$$$
