FWL.pdb
     RDKit          3D

 34 36  0  0  1  0  0  0  0  0999 V2000
   23.2819  -26.7099  -20.3067 N   0  0  0  0  0  0  0  0  0  0  0  0
   22.8981  -28.0746  -20.0841 C   0  0  1  0  0  0  0  0  0  0  0  0
   23.8958  -28.9666  -20.7910 C   0  0  0  0  0  0  0  0  0  0  0  0
   23.6595  -29.0023  -22.2475 C   0  0  0  0  0  0  0  0  0  0  0  0
   24.4747  -28.3292  -23.1134 C   0  0  0  0  0  0  0  0  0  0  0  0
   24.2453  -28.3687  -24.4710 C   0  0  0  0  0  0  0  0  0  0  0  0
   23.1906  -29.0861  -24.9894 C   0  0  0  0  0  0  0  0  0  0  0  0
   22.3734  -29.7620  -24.1099 C   0  0  0  0  0  0  0  0  0  0  0  0
   22.6003  -29.7246  -22.7486 C   0  0  0  0  0  0  0  0  0  0  0  0
   22.9837  -28.4411  -18.6364 C   0  0  0  0  0  0  0  0  0  0  0  0
   23.8185  -27.9311  -17.8632 O   0  0  0  0  0  0  0  0  0  0  0  0
   22.0797  -29.4001  -18.1435 N   0  0  0  0  0  0  0  0  0  0  0  0
   22.0607  -29.7862  -16.7180 C   0  0  1  0  0  0  0  0  0  0  0  0
   20.6288  -30.2003  -16.4582 C   0  0  0  0  0  0  0  0  0  0  0  0
   19.6944  -29.1000  -16.2448 C   0  0  0  0  0  0  0  0  0  0  0  0
   20.0178  -27.7414  -16.2092 C   0  0  0  0  0  0  0  0  0  0  0  0
   18.9016  -27.0371  -15.9780 N   0  0  0  0  0  0  0  0  0  0  0  0
   17.8478  -27.8712  -15.8580 C   0  0  0  0  0  0  0  0  0  0  0  0
   16.5207  -27.5944  -15.6199 C   0  0  0  0  0  0  0  0  0  0  0  0
   15.6482  -28.6629  -15.5455 C   0  0  0  0  0  0  0  0  0  0  0  0
   16.1308  -29.9468  -15.7098 C   0  0  0  0  0  0  0  0  0  0  0  0
   17.4536  -30.2319  -15.9478 C   0  0  0  0  0  0  0  0  0  0  0  0
   18.3318  -29.1559  -16.0226 C   0  0  0  0  0  0  0  0  0  0  0  0
   22.9599  -30.9727  -16.5705 C   0  0  0  0  0  0  0  0  0  0  0  0
   22.8847  -31.8804  -17.4375 O   0  0  0  0  0  0  0  0  0  0  0  0
   28.1541  -32.7714  -13.7324 C   0  0  0  0  0  0  0  0  0  0  0  0
   27.0573  -33.0095  -14.7256 C   0  0  2  0  0  0  0  0  0  0  0  0
   27.7466  -33.1223  -16.1112 C   0  0  0  0  0  0  0  0  0  0  0  0
   26.0290  -31.9755  -14.8875 C   0  0  0  0  0  0  0  0  0  0  0  0
   24.7313  -32.3152  -15.4901 C   0  0  2  0  0  0  0  0  0  0  0  0
   23.8751  -31.1114  -15.5162 N   0  0  0  0  0  0  0  0  0  0  0  0
   23.9385  -33.4263  -15.0071 C   0  0  0  0  0  0  0  0  0  0  0  0
   23.9566  -34.6975  -15.5193 O   0  0  0  0  0  0  0  0  0  0  0  0
   23.1466  -33.2460  -14.0384 O   0  0  0  0  0  0  0  0  0  0  0  0
  2  1  1  1
  3  2  1  0
  4  3  1  0
  4  5  2  0
  6  5  1  0
  7  6  2  0
  8  9  2  0
  8  7  1  0
  9  4  1  0
 10 11  2  0
 10  2  1  0
 12 10  1  0
 13 12  1  0
 13 14  1  6
 15 23  1  0
 15 14  1  0
 16 15  2  0
 17 16  1  0
 17 18  1  0
 18 23  2  0
 19 18  1  0
 19 20  2  0
 20 21  1  0
 21 22  2  0
 23 22  1  0
 24 25  2  0
 24 13  1  0
 27 26  1  1
 27 28  1  0
 27 29  1  0
 30 29  1  1
 30 31  1  0
 31 24  1  0
 32 30  1  0
 33 32  1  0
 34 32  2  0
M  END
$$$$
