FWL.pdb
     RDKit          3D

 34 36  0  0  1  0  0  0  0  0999 V2000
   23.8223  -34.5749  -14.9891 N   0  0  0  0  0  0  0  0  0  0  0  0
   22.7542  -34.4104  -14.0451 C   0  0  1  0  0  0  0  0  0  0  0  0
   22.6058  -35.7023  -13.2707 C   0  0  0  0  0  0  0  0  0  0  0  0
   21.8344  -36.7070  -14.0286 C   0  0  0  0  0  0  0  0  0  0  0  0
   22.4350  -37.8239  -14.5375 C   0  0  0  0  0  0  0  0  0  0  0  0
   21.7062  -38.7553  -15.2436 C   0  0  0  0  0  0  0  0  0  0  0  0
   20.3562  -38.5850  -15.4543 C   0  0  0  0  0  0  0  0  0  0  0  0
   19.7581  -37.4563  -14.9380 C   0  0  0  0  0  0  0  0  0  0  0  0
   20.4855  -36.5207  -14.2298 C   0  0  0  0  0  0  0  0  0  0  0  0
   23.0767  -33.3639  -13.0261 C   0  0  0  0  0  0  0  0  0  0  0  0
   24.2017  -32.8324  -12.9427 O   0  0  0  0  0  0  0  0  0  0  0  0
   22.0600  -32.9747  -12.1346 N   0  0  0  0  0  0  0  0  0  0  0  0
   22.2594  -31.8816  -11.1615 C   0  0  1  0  0  0  0  0  0  0  0  0
   20.9093  -31.2046  -11.0725 C   0  0  0  0  0  0  0  0  0  0  0  0
   20.6254  -30.2459  -12.1353 C   0  0  0  0  0  0  0  0  0  0  0  0
   19.9487  -30.5156  -13.3272 C   0  0  0  0  0  0  0  0  0  0  0  0
   19.8941  -29.3933  -14.0572 N   0  0  0  0  0  0  0  0  0  0  0  0
   20.5070  -28.3868  -13.3999 C   0  0  0  0  0  0  0  0  0  0  0  0
   20.6906  -27.0722  -13.7643 C   0  0  0  0  0  0  0  0  0  0  0  0
   21.3655  -26.2523  -12.8807 C   0  0  0  0  0  0  0  0  0  0  0  0
   21.8232  -26.7722  -11.6856 C   0  0  0  0  0  0  0  0  0  0  0  0
   21.6442  -28.0829  -11.3141 C   0  0  0  0  0  0  0  0  0  0  0  0
   20.9647  -28.9082  -12.2039 C   0  0  0  0  0  0  0  0  0  0  0  0
   22.5894  -32.5159   -9.8474 C   0  0  0  0  0  0  0  0  0  0  0  0
   21.9042  -33.5049   -9.4820 O   0  0  0  0  0  0  0  0  0  0  0  0
   25.0145  -36.4828   -7.4169 C   0  0  0  0  0  0  0  0  0  0  0  0
   24.2275  -35.2541   -7.0746 C   0  0  2  0  0  0  0  0  0  0  0  0
   22.8175  -35.7474   -6.6550 C   0  0  0  0  0  0  0  0  0  0  0  0
   23.9927  -34.2621   -8.1299 C   0  0  0  0  0  0  0  0  0  0  0  0
   23.9298  -32.8316   -7.7953 C   0  0  2  0  0  0  0  0  0  0  0  0
   23.6224  -32.0578   -9.0158 N   0  0  0  0  0  0  0  0  0  0  0  0
   25.0106  -32.1679   -7.0968 C   0  0  0  0  0  0  0  0  0  0  0  0
   25.8403  -31.2190   -7.6350 O   0  0  0  0  0  0  0  0  0  0  0  0
   25.2436  -32.4673   -5.8910 O   0  0  0  0  0  0  0  0  0  0  0  0
  2  1  1  6
  3  2  1  0
  4  3  1  0
  4  5  2  0
  6  5  1  0
  7  6  2  0
  8  9  2  0
  8  7  1  0
  9  4  1  0
 10 11  2  0
 10  2  1  0
 12 10  1  0
 13 12  1  0
 13 14  1  1
 15 23  1  0
 15 14  1  0
 16 15  2  0
 17 16  1  0
 17 18  1  0
 18 23  2  0
 19 18  1  0
 19 20  2  0
 20 21  1  0
 21 22  2  0
 23 22  1  0
 24 25  2  0
 24 13  1  0
 27 26  1  6
 27 28  1  0
 27 29  1  0
 30 29  1  6
 30 31  1  0
 31 24  1  0
 32 30  1  0
 33 32  1  0
 34 32  2  0
M  END
$$$$
