FWL.pdb
     RDKit          3D

 34 36  0  0  1  0  0  0  0  0999 V2000
   25.9209  -20.1901  -15.0946 N   0  0  0  0  0  0  0  0  0  0  0  0
   25.4106  -19.4718  -13.9620 C   0  0  1  0  0  0  0  0  0  0  0  0
   23.9368  -19.2146  -14.1914 C   0  0  0  0  0  0  0  0  0  0  0  0
   23.7135  -18.2908  -15.3207 C   0  0  0  0  0  0  0  0  0  0  0  0
   23.2268  -18.7392  -16.5162 C   0  0  0  0  0  0  0  0  0  0  0  0
   23.0223  -17.8688  -17.5640 C   0  0  0  0  0  0  0  0  0  0  0  0
   23.3026  -16.5271  -17.4338 C   0  0  0  0  0  0  0  0  0  0  0  0
   23.7929  -16.0829  -16.2254 C   0  0  0  0  0  0  0  0  0  0  0  0
   23.9992  -16.9524  -15.1730 C   0  0  0  0  0  0  0  0  0  0  0  0
   25.4880  -20.2890  -12.7116 C   0  0  0  0  0  0  0  0  0  0  0  0
   25.2287  -21.5086  -12.6897 O   0  0  0  0  0  0  0  0  0  0  0  0
   25.8701  -19.6416  -11.5222 N   0  0  0  0  0  0  0  0  0  0  0  0
   26.0473  -20.3848  -10.2581 C   0  0  1  0  0  0  0  0  0  0  0  0
   26.9661  -19.5111   -9.4324 C   0  0  0  0  0  0  0  0  0  0  0  0
   27.6384  -20.1883   -8.3284 C   0  0  0  0  0  0  0  0  0  0  0  0
   28.1430  -21.4907   -8.3474 C   0  0  0  0  0  0  0  0  0  0  0  0
   28.6756  -21.7658   -7.1490 N   0  0  0  0  0  0  0  0  0  0  0  0
   28.5462  -20.6994   -6.3324 C   0  0  0  0  0  0  0  0  0  0  0  0
   28.9430  -20.5304   -5.0252 C   0  0  0  0  0  0  0  0  0  0  0  0
   28.6766  -19.3133   -4.4285 C   0  0  0  0  0  0  0  0  0  0  0  0
   28.0333  -18.3282   -5.1524 C   0  0  0  0  0  0  0  0  0  0  0  0
   27.6339  -18.4884   -6.4573 C   0  0  0  0  0  0  0  0  0  0  0  0
   27.9023  -19.7139   -7.0577 C   0  0  0  0  0  0  0  0  0  0  0  0
   24.7057  -20.4628   -9.6006 C   0  0  0  0  0  0  0  0  0  0  0  0
   24.0738  -19.3904   -9.4220 O   0  0  0  0  0  0  0  0  0  0  0  0
   19.7972  -22.5075  -10.7537 C   0  0  0  0  0  0  0  0  0  0  0  0
   20.8036  -21.6860  -10.0064 C   0  0  2  0  0  0  0  0  0  0  0  0
   21.5783  -20.8733  -11.0774 C   0  0  0  0  0  0  0  0  0  0  0  0
   21.8341  -22.3852   -9.2305 C   0  0  0  0  0  0  0  0  0  0  0  0
   22.8338  -21.6172   -8.4734 C   0  0  2  0  0  0  0  0  0  0  0  0
   24.1295  -21.6713   -9.1813 N   0  0  0  0  0  0  0  0  0  0  0  0
   23.0738  -21.8639   -7.0670 C   0  0  0  0  0  0  0  0  0  0  0  0
   22.3383  -21.3467   -6.0326 O   0  0  0  0  0  0  0  0  0  0  0  0
   24.0374  -22.6074   -6.7252 O   0  0  0  0  0  0  0  0  0  0  0  0
  2  1  1  6
  3  2  1  0
  4  3  1  0
  4  5  2  0
  6  5  1  0
  7  6  2  0
  8  9  2  0
  8  7  1  0
  9  4  1  0
 10 11  2  0
 10  2  1  0
 12 10  1  0
 13 12  1  0
 13 14  1  1
 15 23  1  0
 15 14  1  0
 16 15  2  0
 17 16  1  0
 17 18  1  0
 18 23  2  0
 19 18  1  0
 19 20  2  0
 20 21  1  0
 21 22  2  0
 23 22  1  0
 24 25  2  0
 24 13  1  0
 27 26  1  6
 27 28  1  0
 27 29  1  0
 30 29  1  6
 30 31  1  0
 31 24  1  0
 32 30  1  0
 33 32  1  0
 34 32  2  0
M  END
$$$$
