FWL.pdb
     RDKit          3D

 34 36  0  0  1  0  0  0  0  0999 V2000
   29.6107  -20.4000  -13.4424 N   0  0  0  0  0  0  0  0  0  0  0  0
   28.5268  -19.9291  -12.6284 C   0  0  1  0  0  0  0  0  0  0  0  0
   27.3069  -19.7740  -13.5107 C   0  0  0  0  0  0  0  0  0  0  0  0
   27.4994  -18.7217  -14.5277 C   0  0  0  0  0  0  0  0  0  0  0  0
   27.8036  -19.0357  -15.8224 C   0  0  0  0  0  0  0  0  0  0  0  0
   27.9815  -18.0461  -16.7637 C   0  0  0  0  0  0  0  0  0  0  0  0
   27.8578  -16.7173  -16.4248 C   0  0  0  0  0  0  0  0  0  0  0  0
   27.5510  -16.4088  -15.1176 C   0  0  0  0  0  0  0  0  0  0  0  0
   27.3719  -17.3982  -14.1714 C   0  0  0  0  0  0  0  0  0  0  0  0
   28.1459  -20.9315  -11.5856 C   0  0  0  0  0  0  0  0  0  0  0  0
   28.6073  -22.0898  -11.5677 O   0  0  0  0  0  0  0  0  0  0  0  0
   27.2304  -20.5361  -10.5929 N   0  0  0  0  0  0  0  0  0  0  0  0
   26.1309  -21.4206  -10.1565 C   0  0  1  0  0  0  0  0  0  0  0  0
   26.4141  -21.6811   -8.6933 C   0  0  0  0  0  0  0  0  0  0  0  0
   26.8083  -20.5081   -7.9199 C   0  0  0  0  0  0  0  0  0  0  0  0
   26.5208  -19.1786   -8.2379 C   0  0  0  0  0  0  0  0  0  0  0  0
   27.0581  -18.3841   -7.3022 N   0  0  0  0  0  0  0  0  0  0  0  0
   27.6919  -19.1304   -6.3738 C   0  0  0  0  0  0  0  0  0  0  0  0
   28.3780  -18.7455   -5.2443 C   0  0  0  0  0  0  0  0  0  0  0  0
   28.9346  -19.7405   -4.4642 C   0  0  0  0  0  0  0  0  0  0  0  0
   28.7848  -21.0616   -4.8393 C   0  0  0  0  0  0  0  0  0  0  0  0
   28.1017  -21.4545   -5.9649 C   0  0  0  0  0  0  0  0  0  0  0  0
   27.5415  -20.4524   -6.7501 C   0  0  0  0  0  0  0  0  0  0  0  0
   24.8599  -20.6428  -10.2900 C   0  0  0  0  0  0  0  0  0  0  0  0
   24.9116  -19.3970  -10.1268 O   0  0  0  0  0  0  0  0  0  0  0  0
   20.8122  -20.4695  -14.0492 C   0  0  0  0  0  0  0  0  0  0  0  0
   22.2665  -20.1233  -13.9436 C   0  0  2  0  0  0  0  0  0  0  0  0
   22.9230  -20.6104  -15.2625 C   0  0  0  0  0  0  0  0  0  0  0  0
   23.0522  -20.7405  -12.8690 C   0  0  0  0  0  0  0  0  0  0  0  0
   22.6892  -20.5060  -11.4634 C   0  0  2  0  0  0  0  0  0  0  0  0
   23.6261  -21.2404  -10.5883 N   0  0  0  0  0  0  0  0  0  0  0  0
   21.3434  -20.7325  -10.9797 C   0  0  0  0  0  0  0  0  0  0  0  0
   20.3064  -19.8408  -11.0687 O   0  0  0  0  0  0  0  0  0  0  0  0
   21.0652  -21.8294  -10.4162 O   0  0  0  0  0  0  0  0  0  0  0  0
  2  1  1  6
  3  2  1  0
  4  3  1  0
  4  5  2  0
  6  5  1  0
  7  6  2  0
  8  9  2  0
  8  7  1  0
  9  4  1  0
 10 11  2  0
 10  2  1  0
 12 10  1  0
 13 12  1  0
 13 14  1  1
 15 23  1  0
 15 14  1  0
 16 15  2  0
 17 16  1  0
 17 18  1  0
 18 23  2  0
 19 18  1  0
 19 20  2  0
 20 21  1  0
 21 22  2  0
 23 22  1  0
 24 25  2  0
 24 13  1  0
 27 26  1  6
 27 28  1  0
 27 29  1  0
 30 29  1  6
 30 31  1  0
 31 24  1  0
 32 30  1  0
 33 32  1  0
 34 32  2  0
M  END
$$$$
