FWL.pdb
     RDKit          3D

 34 36  0  0  1  0  0  0  0  0999 V2000
   27.0893  -21.2778  -13.8016 N   0  0  0  0  0  0  0  0  0  0  0  0
   26.2374  -20.3963  -13.0557 C   0  0  1  0  0  0  0  0  0  0  0  0
   24.9542  -20.2079  -13.8359 C   0  0  0  0  0  0  0  0  0  0  0  0
   25.1687  -19.3980  -15.0511 C   0  0  0  0  0  0  0  0  0  0  0  0
   25.4694  -18.0675  -14.9709 C   0  0  0  0  0  0  0  0  0  0  0  0
   25.6673  -17.3205  -16.1111 C   0  0  0  0  0  0  0  0  0  0  0  0
   25.5674  -17.8943  -17.3587 C   0  0  0  0  0  0  0  0  0  0  0  0
   25.2639  -19.2362  -17.4311 C   0  0  0  0  0  0  0  0  0  0  0  0
   25.0648  -19.9881  -16.2904 C   0  0  0  0  0  0  0  0  0  0  0  0
   25.8304  -20.9998  -11.7489 C   0  0  0  0  0  0  0  0  0  0  0  0
   25.5896  -22.2162  -11.6174 O   0  0  0  0  0  0  0  0  0  0  0  0
   25.7197  -20.1482  -10.6343 N   0  0  0  0  0  0  0  0  0  0  0  0
   25.3732  -20.6660   -9.2951 C   0  0  1  0  0  0  0  0  0  0  0  0
   26.0134  -19.6876   -8.3348 C   0  0  0  0  0  0  0  0  0  0  0  0
   27.3485  -20.0547   -7.8744 C   0  0  0  0  0  0  0  0  0  0  0  0
   28.2574  -20.8701   -8.5531 C   0  0  0  0  0  0  0  0  0  0  0  0
   29.3677  -20.9897   -7.8126 N   0  0  0  0  0  0  0  0  0  0  0  0
   29.2354  -20.2872   -6.6682 C   0  0  0  0  0  0  0  0  0  0  0  0
   30.1141  -20.1244   -5.6213 C   0  0  0  0  0  0  0  0  0  0  0  0
   29.7071  -19.3372   -4.5616 C   0  0  0  0  0  0  0  0  0  0  0  0
   28.4558  -18.7527   -4.5908 C   0  0  0  0  0  0  0  0  0  0  0  0
   27.5726  -18.9099   -5.6316 C   0  0  0  0  0  0  0  0  0  0  0  0
   27.9827  -19.7026   -6.6984 C   0  0  0  0  0  0  0  0  0  0  0  0
   23.8845  -20.5934   -9.1659 C   0  0  0  0  0  0  0  0  0  0  0  0
   23.3038  -19.5700   -9.6094 O   0  0  0  0  0  0  0  0  0  0  0  0
   20.1221  -23.0783  -12.2176 C   0  0  0  0  0  0  0  0  0  0  0  0
   20.2210  -22.3827  -10.8938 C   0  0  2  0  0  0  0  0  0  0  0  0
   19.6551  -20.9546  -11.1132 C   0  0  0  0  0  0  0  0  0  0  0  0
   21.5523  -22.1862  -10.3091 C   0  0  0  0  0  0  0  0  0  0  0  0
   21.6855  -21.6961   -8.9290 C   0  0  2  0  0  0  0  0  0  0  0  0
   23.1181  -21.6107   -8.5776 N   0  0  0  0  0  0  0  0  0  0  0  0
   20.9848  -22.3259   -7.8296 C   0  0  0  0  0  0  0  0  0  0  0  0
   19.6910  -22.0666   -7.4592 O   0  0  0  0  0  0  0  0  0  0  0  0
   21.5857  -23.1866   -7.1252 O   0  0  0  0  0  0  0  0  0  0  0  0
  2  1  1  6
  3  2  1  0
  4  3  1  0
  4  5  2  0
  6  5  1  0
  7  6  2  0
  8  9  2  0
  8  7  1  0
  9  4  1  0
 10 11  2  0
 10  2  1  0
 12 10  1  0
 13 12  1  0
 13 14  1  1
 15 23  1  0
 15 14  1  0
 16 15  2  0
 17 16  1  0
 17 18  1  0
 18 23  2  0
 19 18  1  0
 19 20  2  0
 20 21  1  0
 21 22  2  0
 23 22  1  0
 24 25  2  0
 24 13  1  0
 27 26  1  6
 27 28  1  0
 27 29  1  0
 30 29  1  6
 30 31  1  0
 31 24  1  0
 32 30  1  0
 33 32  1  0
 34 32  2  0
M  END
$$$$
