FWL.pdb
     RDKit          3D

 34 36  0  0  1  0  0  0  0  0999 V2000
   25.4439  -18.4114  -15.6418 N   0  0  0  0  0  0  0  0  0  0  0  0
   26.3269  -18.6588  -14.5381 C   0  0  1  0  0  0  0  0  0  0  0  0
   27.1470  -17.4090  -14.3007 C   0  0  0  0  0  0  0  0  0  0  0  0
   28.0977  -17.1629  -15.4026 C   0  0  0  0  0  0  0  0  0  0  0  0
   29.1555  -17.9990  -15.6248 C   0  0  0  0  0  0  0  0  0  0  0  0
   30.0371  -17.7602  -16.6558 C   0  0  0  0  0  0  0  0  0  0  0  0
   29.8754  -16.6749  -17.4875 C   0  0  0  0  0  0  0  0  0  0  0  0
   28.8066  -15.8367  -17.2569 C   0  0  0  0  0  0  0  0  0  0  0  0
   27.9209  -16.0730  -16.2245 C   0  0  0  0  0  0  0  0  0  0  0  0
   25.5699  -18.8918  -13.2692 C   0  0  0  0  0  0  0  0  0  0  0  0
   24.6673  -18.1266  -12.8759 O   0  0  0  0  0  0  0  0  0  0  0  0
   25.9010  -20.0234  -12.5011 N   0  0  0  0  0  0  0  0  0  0  0  0
   25.1615  -20.3673  -11.2697 C   0  0  1  0  0  0  0  0  0  0  0  0
   24.5018  -21.6923  -11.5832 C   0  0  0  0  0  0  0  0  0  0  0  0
   23.2118  -21.5979  -12.2587 C   0  0  0  0  0  0  0  0  0  0  0  0
   22.9163  -22.0749  -13.5380 C   0  0  0  0  0  0  0  0  0  0  0  0
   21.6371  -21.7929  -13.8200 N   0  0  0  0  0  0  0  0  0  0  0  0
   21.0685  -21.1473  -12.7805 C   0  0  0  0  0  0  0  0  0  0  0  0
   19.7865  -20.6701  -12.6275 C   0  0  0  0  0  0  0  0  0  0  0  0
   19.4767  -20.0401  -11.4377 C   0  0  0  0  0  0  0  0  0  0  0  0
   20.4472  -19.9143  -10.4628 C   0  0  0  0  0  0  0  0  0  0  0  0
   21.7290  -20.3876  -10.6073 C   0  0  0  0  0  0  0  0  0  0  0  0
   22.0406  -21.0219  -11.8053 C   0  0  0  0  0  0  0  0  0  0  0  0
   26.1746  -20.5562  -10.1852 C   0  0  0  0  0  0  0  0  0  0  0  0
   27.1908  -21.2507  -10.4427 O   0  0  0  0  0  0  0  0  0  0  0  0
   28.2029  -19.8018   -4.9772 C   0  0  0  0  0  0  0  0  0  0  0  0
   28.7633  -19.4751   -6.3283 C   0  0  2  0  0  0  0  0  0  0  0  0
   29.4603  -18.0963   -6.1847 C   0  0  0  0  0  0  0  0  0  0  0  0
   27.8299  -19.3223   -7.4500 C   0  0  0  0  0  0  0  0  0  0  0  0
   26.9649  -20.4435   -7.8463 C   0  0  2  0  0  0  0  0  0  0  0  0
   26.0390  -19.9946   -8.9067 N   0  0  0  0  0  0  0  0  0  0  0  0
   26.2066  -21.1981   -6.8706 C   0  0  0  0  0  0  0  0  0  0  0  0
   26.7373  -22.0528   -5.9399 O   0  0  0  0  0  0  0  0  0  0  0  0
   24.9471  -21.0913   -6.8491 O   0  0  0  0  0  0  0  0  0  0  0  0
  2  1  1  6
  3  2  1  0
  4  3  1  0
  4  5  2  0
  6  5  1  0
  7  6  2  0
  8  9  2  0
  8  7  1  0
  9  4  1  0
 10 11  2  0
 10  2  1  0
 12 10  1  0
 13 12  1  0
 13 14  1  6
 15 23  1  0
 15 14  1  0
 16 15  2  0
 17 16  1  0
 17 18  1  0
 18 23  2  0
 19 18  1  0
 19 20  2  0
 20 21  1  0
 21 22  2  0
 23 22  1  0
 24 25  2  0
 24 13  1  0
 27 26  1  1
 27 28  1  0
 27 29  1  0
 30 29  1  1
 30 31  1  0
 31 24  1  0
 32 30  1  0
 33 32  1  0
 34 32  2  0
M  END
$$$$
