NLA.pdb
     RDKit          3D

 22 21  0  0  1  0  0  0  0  0999 V2000
   27.3957  -18.4652  -19.2400 N   0  0  0  0  0  0  0  0  0  0  0  0
   26.8408  -18.1510  -17.9775 C   0  0  0  0  0  0  0  0  0  0  0  0
   27.1285  -17.0246  -17.4576 O   0  0  0  0  0  0  0  0  0  0  0  0
   25.9533  -19.0469  -17.2332 C   0  0  0  0  0  0  0  0  0  0  0  0
   26.5515  -19.5485  -15.9382 C   0  0  2  0  0  0  0  0  0  0  0  0
   27.7012  -20.3634  -16.2212 N   0  0  0  0  0  0  0  0  0  0  0  0
   25.5962  -20.3204  -15.1217 C   0  0  0  0  0  0  0  0  0  0  0  0
   25.0915  -21.3593  -15.5956 O   0  0  0  0  0  0  0  0  0  0  0  0
   25.3694  -20.9836   -9.2910 C   0  0  0  0  0  0  0  0  0  0  0  0
   25.1138  -21.4005  -10.7221 C   0  0  2  0  0  0  0  0  0  0  0  0
   26.4769  -21.7408  -11.3351 C   0  0  0  0  0  0  0  0  0  0  0  0
   24.5488  -20.2565  -11.5358 C   0  0  0  0  0  0  0  0  0  0  0  0
   24.3111  -20.6064  -12.9725 C   0  0  2  0  0  0  0  0  0  0  0  0
   25.2496  -19.8957  -13.8141 N   0  0  0  0  0  0  0  0  0  0  0  0
   22.9135  -20.2438  -13.3129 C   0  0  0  0  0  0  0  0  0  0  0  0
   22.4260  -19.0943  -13.1132 O   0  0  0  0  0  0  0  0  0  0  0  0
   20.4394  -21.5183  -15.6278 C   0  0  0  0  0  0  0  0  0  0  0  0
   20.6880  -20.9125  -14.2560 C   0  0  2  0  0  0  0  0  0  0  0  0
   22.0551  -21.2113  -13.8925 N   0  0  0  0  0  0  0  0  0  0  0  0
   19.7868  -21.6050  -13.2792 C   0  0  0  0  0  0  0  0  0  0  0  0
   18.4643  -21.2389  -13.0915 O   0  0  0  0  0  0  0  0  0  0  0  0
   20.2538  -22.5564  -12.6057 O   0  0  0  0  0  0  0  0  0  0  0  0
  1  2  1  0
  2  4  1  0
  3  2  2  0
  4  5  1  0
  5  6  1  6
  7  5  1  0
  7  8  2  0
 10  9  1  1
 10 12  1  0
 11 10  1  0
 13 12  1  1
 13 14  1  0
 14  7  1  0
 15 13  1  0
 16 15  2  0
 18 19  1  0
 18 17  1  6
 19 15  1  0
 20 18  1  0
 21 20  1  0
 22 20  2  0
M  END
$$$$
