NLA.pdb
     RDKit          3D

 22 21  0  0  1  0  0  0  0  0999 V2000
   17.6335  -11.9606  -19.5117 N   0  0  0  0  0  0  0  0  0  0  0  0
   17.6546  -10.5467  -19.4803 C   0  0  0  0  0  0  0  0  0  0  0  0
   17.1182   -9.9156  -20.4476 O   0  0  0  0  0  0  0  0  0  0  0  0
   18.2580   -9.7659  -18.3983 C   0  0  0  0  0  0  0  0  0  0  0  0
   19.0141  -10.6088  -17.3962 C   0  0  2  0  0  0  0  0  0  0  0  0
   18.0987  -11.4764  -16.7067 N   0  0  0  0  0  0  0  0  0  0  0  0
   19.7590   -9.8039  -16.4100 C   0  0  0  0  0  0  0  0  0  0  0  0
   19.1499   -9.3248  -15.4312 O   0  0  0  0  0  0  0  0  0  0  0  0
   23.1458  -10.8874  -13.7186 C   0  0  0  0  0  0  0  0  0  0  0  0
   23.5118  -10.7288  -15.1774 C   0  0  2  0  0  0  0  0  0  0  0  0
   25.0022  -11.0648  -15.2997 C   0  0  0  0  0  0  0  0  0  0  0  0
   23.3549   -9.2936  -15.6310 C   0  0  0  0  0  0  0  0  0  0  0  0
   21.9361   -8.8143  -15.6144 C   0  0  2  0  0  0  0  0  0  0  0  0
   21.1493   -9.5720  -16.5636 N   0  0  0  0  0  0  0  0  0  0  0  0
   21.9306   -7.3702  -15.9542 C   0  0  0  0  0  0  0  0  0  0  0  0
   22.4159   -6.9071  -17.0260 O   0  0  0  0  0  0  0  0  0  0  0  0
   20.0013   -4.4734  -15.1839 C   0  0  0  0  0  0  0  0  0  0  0  0
   21.4206   -5.0092  -15.2795 C   0  0  2  0  0  0  0  0  0  0  0  0
   21.3603   -6.4360  -15.0536 N   0  0  0  0  0  0  0  0  0  0  0  0
   22.2172   -4.3973  -14.1674 C   0  0  0  0  0  0  0  0  0  0  0  0
   22.7053   -3.1022  -14.2212 O   0  0  0  0  0  0  0  0  0  0  0  0
   22.4488   -5.0904  -13.1462 O   0  0  0  0  0  0  0  0  0  0  0  0
  1  2  1  0
  2  4  1  0
  3  2  2  0
  4  5  1  0
  5  6  1  1
  7  5  1  0
  7  8  2  0
 10  9  1  1
 10 12  1  0
 11 10  1  0
 13 12  1  6
 13 14  1  0
 14  7  1  0
 15 13  1  0
 16 15  2  0
 18 19  1  0
 18 17  1  1
 19 15  1  0
 20 18  1  0
 21 20  1  0
 22 20  2  0
M  END
$$$$
