NLA.pdb
     RDKit          3D

 22 21  0  0  1  0  0  0  0  0999 V2000
   20.8025  -22.6783   -7.4645 N   0  0  0  0  0  0  0  0  0  0  0  0
   20.7982  -21.4607   -8.1842 C   0  0  0  0  0  0  0  0  0  0  0  0
   19.6940  -21.0538   -8.6711 O   0  0  0  0  0  0  0  0  0  0  0  0
   21.9912  -20.6400   -8.4018 C   0  0  0  0  0  0  0  0  0  0  0  0
   22.7655  -21.0196   -9.6439 C   0  0  2  0  0  0  0  0  0  0  0  0
   23.1316  -22.4081   -9.5790 N   0  0  0  0  0  0  0  0  0  0  0  0
   23.9789  -20.2044   -9.8396 C   0  0  0  0  0  0  0  0  0  0  0  0
   23.8723  -18.9625   -9.9112 O   0  0  0  0  0  0  0  0  0  0  0  0
   26.9585  -18.6929   -7.4070 C   0  0  0  0  0  0  0  0  0  0  0  0
   27.0357  -20.1838   -7.6486 C   0  0  2  0  0  0  0  0  0  0  0  0
   28.1319  -20.7266   -6.7251 C   0  0  0  0  0  0  0  0  0  0  0  0
   27.4743  -20.4897   -9.0643 C   0  0  0  0  0  0  0  0  0  0  0  0
   26.4816  -20.0640  -10.1018 C   0  0  2  0  0  0  0  0  0  0  0  0
   25.2542  -20.8146   -9.9461 N   0  0  0  0  0  0  0  0  0  0  0  0
   27.0798  -20.2971  -11.4391 C   0  0  0  0  0  0  0  0  0  0  0  0
   28.2377  -19.9033  -11.7601 O   0  0  0  0  0  0  0  0  0  0  0  0
   26.9269  -22.4971  -14.1939 C   0  0  0  0  0  0  0  0  0  0  0  0
   26.7575  -21.0350  -13.8143 C   0  0  2  0  0  0  0  0  0  0  0  0
   26.3427  -20.9929  -12.4298 N   0  0  0  0  0  0  0  0  0  0  0  0
   25.6474  -20.4708  -14.6479 C   0  0  0  0  0  0  0  0  0  0  0  0
   25.7333  -20.3486  -16.0249 O   0  0  0  0  0  0  0  0  0  0  0  0
   24.5974  -20.0953  -14.0704 O   0  0  0  0  0  0  0  0  0  0  0  0
  1  2  1  0
  2  4  1  0
  3  2  2  0
  4  5  1  0
  5  6  1  1
  7  5  1  0
  7  8  2  0
 10  9  1  6
 10 12  1  0
 11 10  1  0
 13 12  1  1
 13 14  1  0
 14  7  1  0
 15 13  1  0
 16 15  2  0
 18 19  1  0
 18 17  1  6
 19 15  1  0
 20 18  1  0
 21 20  1  0
 22 20  2  0
M  END
$$$$
