NLA.pdb
     RDKit          3D

 22 21  0  0  1  0  0  0  0  0999 V2000
   23.1362  -13.3484  -22.1266 N   0  0  0  0  0  0  0  0  0  0  0  0
   22.4282  -12.1253  -22.0710 C   0  0  0  0  0  0  0  0  0  0  0  0
   22.1346  -11.5499  -23.1685 O   0  0  0  0  0  0  0  0  0  0  0  0
   22.0124  -11.4820  -20.8229 C   0  0  0  0  0  0  0  0  0  0  0  0
   22.5369  -12.1735  -19.5847 C   0  0  2  0  0  0  0  0  0  0  0  0
   21.8562  -13.4268  -19.4067 N   0  0  0  0  0  0  0  0  0  0  0  0
   22.3888  -11.3607  -18.3630 C   0  0  0  0  0  0  0  0  0  0  0  0
   21.3977  -11.5448  -17.6264 O   0  0  0  0  0  0  0  0  0  0  0  0
   24.6794  -10.7504  -14.4320 C   0  0  0  0  0  0  0  0  0  0  0  0
   25.3134  -10.3252  -15.7376 C   0  0  2  0  0  0  0  0  0  0  0  0
   26.7261   -9.8324  -15.4048 C   0  0  0  0  0  0  0  0  0  0  0  0
   24.5800   -9.1509  -16.3486 C   0  0  0  0  0  0  0  0  0  0  0  0
   23.2240   -9.5039  -16.8775 C   0  0  2  0  0  0  0  0  0  0  0  0
   23.3546  -10.3806  -18.0214 N   0  0  0  0  0  0  0  0  0  0  0  0
   22.5297   -8.2468  -17.2493 C   0  0  0  0  0  0  0  0  0  0  0  0
   23.0116   -7.3992  -18.0544 O   0  0  0  0  0  0  0  0  0  0  0  0
   19.0673   -7.0161  -16.8705 C   0  0  0  0  0  0  0  0  0  0  0  0
   20.5545   -6.7239  -16.9866 C   0  0  2  0  0  0  0  0  0  0  0  0
   21.2607   -7.9506  -16.6918 N   0  0  0  0  0  0  0  0  0  0  0  0
   20.9081   -5.7206  -15.9310 C   0  0  0  0  0  0  0  0  0  0  0  0
   21.6587   -6.0438  -14.8127 O   0  0  0  0  0  0  0  0  0  0  0  0
   20.5060   -4.5391  -16.0704 O   0  0  0  0  0  0  0  0  0  0  0  0
  1  2  1  0
  2  4  1  0
  3  2  2  0
  4  5  1  0
  5  6  1  1
  7  5  1  0
  7  8  2  0
 10  9  1  1
 10 12  1  0
 11 10  1  0
 13 12  1  6
 13 14  1  0
 14  7  1  0
 15 13  1  0
 16 15  2  0
 18 19  1  0
 18 17  1  1
 19 15  1  0
 20 18  1  0
 21 20  1  0
 22 20  2  0
M  END
$$$$
