NLA.pdb
     RDKit          3D

 22 21  0  0  1  0  0  0  0  0999 V2000
   18.7196  -22.3742  -12.4504 N   0  0  0  0  0  0  0  0  0  0  0  0
   19.3426  -21.3112  -13.1449 C   0  0  0  0  0  0  0  0  0  0  0  0
   18.7997  -20.8945  -14.2188 O   0  0  0  0  0  0  0  0  0  0  0  0
   20.5770  -20.6613  -12.6997 C   0  0  0  0  0  0  0  0  0  0  0  0
   21.7257  -20.8208  -13.6700 C   0  0  2  0  0  0  0  0  0  0  0  0
   21.9696  -22.2179  -13.9040 N   0  0  0  0  0  0  0  0  0  0  0  0
   22.9695  -20.1807  -13.2025 C   0  0  0  0  0  0  0  0  0  0  0  0
   22.9938  -18.9426  -13.0434 O   0  0  0  0  0  0  0  0  0  0  0  0
   24.6225  -19.4209   -9.6144 C   0  0  0  0  0  0  0  0  0  0  0  0
   24.7167  -20.8620  -10.0637 C   0  0  2  0  0  0  0  0  0  0  0  0
   25.2147  -21.6700   -8.8602 C   0  0  0  0  0  0  0  0  0  0  0  0
   25.7516  -21.0316  -11.1547 C   0  0  0  0  0  0  0  0  0  0  0  0
   25.3659  -20.3839  -12.4489 C   0  0  2  0  0  0  0  0  0  0  0  0
   24.1275  -20.9536  -12.9347 N   0  0  0  0  0  0  0  0  0  0  0  0
   26.4658  -20.5988  -13.4208 C   0  0  0  0  0  0  0  0  0  0  0  0
   27.6614  -20.2479  -13.2053 O   0  0  0  0  0  0  0  0  0  0  0  0
   27.2979  -22.8485  -16.0312 C   0  0  0  0  0  0  0  0  0  0  0  0
   27.2042  -21.3702  -15.6901 C   0  0  2  0  0  0  0  0  0  0  0  0
   26.1968  -21.2264  -14.6628 N   0  0  0  0  0  0  0  0  0  0  0  0
   26.7258  -20.6473  -16.9125 C   0  0  0  0  0  0  0  0  0  0  0  0
   27.5370  -20.4173  -18.0114 O   0  0  0  0  0  0  0  0  0  0  0  0
   25.5398  -20.2355  -16.9378 O   0  0  0  0  0  0  0  0  0  0  0  0
  1  2  1  0
  2  4  1  0
  3  2  2  0
  4  5  1  0
  5  6  1  1
  7  5  1  0
  7  8  2  0
 10  9  1  1
 10 12  1  0
 11 10  1  0
 13 12  1  1
 13 14  1  0
 14  7  1  0
 15 13  1  0
 16 15  2  0
 18 19  1  0
 18 17  1  6
 19 15  1  0
 20 18  1  0
 21 20  1  0
 22 20  2  0
M  END
$$$$
