AKR.pdb
     RDKit          3D

 26 25  0  0  1  0  0  0  0  0999 V2000
    9.5563  -12.6968   18.3967 C   0  0  0  0  0  0  0  0  0  0  0  0
    8.4149  -13.6307   18.0532 C   0  0  2  0  0  0  0  0  0  0  0  0
    7.2874  -12.9153   17.4945 N   0  0  0  0  0  0  0  0  0  0  0  0
    8.0051  -14.3079   19.3148 C   0  0  0  0  0  0  0  0  0  0  0  0
    7.5399  -13.6445   20.2537 O   0  0  0  0  0  0  0  0  0  0  0  0
    8.1346  -15.7111   19.4728 N   0  0  0  0  0  0  0  0  0  0  0  0
    7.7744  -16.4470   20.6311 C   0  0  1  0  0  0  0  0  0  0  0  0
    7.3670  -17.8640   20.4065 C   0  0  0  0  0  0  0  0  0  0  0  0
    7.0483  -18.6269   21.6574 C   0  0  0  0  0  0  0  0  0  0  0  0
    6.6366  -20.0237   21.2836 C   0  0  0  0  0  0  0  0  0  0  0  0
    5.3928  -20.4732   22.0100 C   0  0  0  0  0  0  0  0  0  0  0  0
    5.0345  -21.8438   21.7097 N   0  0  0  0  0  0  0  0  0  0  0  0
    8.9177  -16.4017   21.6100 C   0  0  0  0  0  0  0  0  0  0  0  0
   10.1018  -16.5533   21.2230 O   0  0  0  0  0  0  0  0  0  0  0  0
    9.8003  -16.5525   30.5479 N   0  0  0  0  0  0  0  0  0  0  0  0
   10.8842  -16.2300   29.6931 C   0  0  0  0  0  0  0  0  0  0  0  0
   11.9972  -16.8445   29.8358 N   0  0  0  0  0  0  0  0  0  0  0  0
   10.7512  -15.2348   28.6814 N   0  0  0  0  0  0  0  0  0  0  0  0
    9.6806  -15.2302   27.7303 C   0  0  0  0  0  0  0  0  0  0  0  0
   10.2543  -15.7512   26.3955 C   0  0  0  0  0  0  0  0  0  0  0  0
    9.1993  -15.6961   25.3276 C   0  0  0  0  0  0  0  0  0  0  0  0
    9.6888  -16.2007   24.0338 C   0  0  2  0  0  0  0  0  0  0  0  0
    8.6847  -16.1875   22.9905 N   0  0  0  0  0  0  0  0  0  0  0  0
   10.5142  -17.4306   24.0470 C   0  0  0  0  0  0  0  0  0  0  0  0
    9.9519  -18.6981   24.0804 O   0  0  0  0  0  0  0  0  0  0  0  0
   11.7837  -17.4027   24.0321 O   0  0  0  0  0  0  0  0  0  0  0  0
  2  1  1  1
  3  2  1  0
  4  2  1  0
  4  5  2  0
  6  4  1  0
  7  6  1  0
  7  8  1  6
  9  8  1  0
 10  9  1  0
 11 10  1  0
 12 11  1  0
 13  7  1  0
 14 13  2  0
 16 17  2  0
 16 15  1  0
 18 16  1  0
 19 18  1  0
 20 19  1  0
 22 21  1  1
 21 20  1  0
 22 23  1  0
 23 13  1  0
 24 25  1  0
 24 22  1  0
 26 24  2  0
M  END
$$$$
