AKR.pdb
     RDKit          3D

 26 25  0  0  1  0  0  0  0  0999 V2000
    6.9155  -14.6705   19.6074 C   0  0  0  0  0  0  0  0  0  0  0  0
    7.4380  -13.3935   20.2313 C   0  0  2  0  0  0  0  0  0  0  0  0
    8.4303  -12.7551   19.3930 N   0  0  0  0  0  0  0  0  0  0  0  0
    8.0466  -13.7598   21.5403 C   0  0  0  0  0  0  0  0  0  0  0  0
    9.2663  -13.9684   21.6221 O   0  0  0  0  0  0  0  0  0  0  0  0
    7.2569  -13.8778   22.7121 N   0  0  0  0  0  0  0  0  0  0  0  0
    7.7447  -14.1918   24.0068 C   0  0  1  0  0  0  0  0  0  0  0  0
    6.8833  -13.7743   25.1505 C   0  0  0  0  0  0  0  0  0  0  0  0
    6.8447  -12.2954   25.3947 C   0  0  0  0  0  0  0  0  0  0  0  0
    5.9137  -12.0159   26.5416 C   0  0  0  0  0  0  0  0  0  0  0  0
    5.7813  -10.5411   26.8320 C   0  0  0  0  0  0  0  0  0  0  0  0
    4.9592  -10.2716   27.9933 N   0  0  0  0  0  0  0  0  0  0  0  0
    7.9986  -15.6741   24.0836 C   0  0  0  0  0  0  0  0  0  0  0  0
    7.4254  -16.4662   23.2970 O   0  0  0  0  0  0  0  0  0  0  0  0
   14.1254  -20.2788   22.3272 N   0  0  0  0  0  0  0  0  0  0  0  0
   13.3437  -19.5299   21.4119 C   0  0  0  0  0  0  0  0  0  0  0  0
   12.6800  -20.1448   20.5074 N   0  0  0  0  0  0  0  0  0  0  0  0
   13.2873  -18.1076   21.4858 N   0  0  0  0  0  0  0  0  0  0  0  0
   12.9690  -17.4029   22.6912 C   0  0  0  0  0  0  0  0  0  0  0  0
   11.6718  -18.0229   23.2526 C   0  0  0  0  0  0  0  0  0  0  0  0
   10.6692  -16.9418   23.5396 C   0  0  0  0  0  0  0  0  0  0  0  0
    9.9296  -17.1848   24.7896 C   0  0  2  0  0  0  0  0  0  0  0  0
    8.8897  -16.2102   25.0452 N   0  0  0  0  0  0  0  0  0  0  0  0
   10.7173  -17.5409   25.9924 C   0  0  0  0  0  0  0  0  0  0  0  0
   11.3448  -16.5834   26.7755 O   0  0  0  0  0  0  0  0  0  0  0  0
   10.8704  -18.7407   26.3795 O   0  0  0  0  0  0  0  0  0  0  0  0
  2  1  1  6
  3  2  1  0
  4  2  1  0
  4  5  2  0
  6  4  1  0
  7  6  1  0
  7  8  1  1
  9  8  1  0
 10  9  1  0
 11 10  1  0
 12 11  1  0
 13  7  1  0
 14 13  2  0
 16 17  2  0
 16 15  1  0
 18 16  1  0
 19 18  1  0
 20 19  1  0
 22 21  1  6
 21 20  1  0
 22 23  1  0
 23 13  1  0
 24 25  1  0
 24 22  1  0
 26 24  2  0
M  END
$$$$
