AKR.pdb
     RDKit          3D

 26 25  0  0  1  0  0  0  0  0999 V2000
   12.9585  -19.8360   19.1574 C   0  0  0  0  0  0  0  0  0  0  0  0
   12.2133  -20.0118   20.4638 C   0  0  2  0  0  0  0  0  0  0  0  0
   10.9980  -20.7781   20.2880 N   0  0  0  0  0  0  0  0  0  0  0  0
   11.8804  -18.6504   20.9676 C   0  0  0  0  0  0  0  0  0  0  0  0
   12.7872  -17.8633   21.2775 O   0  0  0  0  0  0  0  0  0  0  0  0
   10.5347  -18.2245   21.1040 N   0  0  0  0  0  0  0  0  0  0  0  0
   10.1164  -16.9419   21.5428 C   0  0  1  0  0  0  0  0  0  0  0  0
    9.0986  -16.2585   20.6934 C   0  0  0  0  0  0  0  0  0  0  0  0
    8.9488  -14.7904   20.9590 C   0  0  0  0  0  0  0  0  0  0  0  0
    8.1013  -14.1841   19.8753 C   0  0  0  0  0  0  0  0  0  0  0  0
    7.9168  -12.6968   20.0503 C   0  0  0  0  0  0  0  0  0  0  0  0
    7.2285  -12.0836   18.9335 N   0  0  0  0  0  0  0  0  0  0  0  0
    9.6000  -17.0557   22.9527 C   0  0  0  0  0  0  0  0  0  0  0  0
    8.7000  -17.8805   23.2432 O   0  0  0  0  0  0  0  0  0  0  0  0
   13.4435  -19.8194   30.0817 N   0  0  0  0  0  0  0  0  0  0  0  0
   12.0981  -19.4220   30.2852 C   0  0  0  0  0  0  0  0  0  0  0  0
   11.3801  -20.0566   31.1327 N   0  0  0  0  0  0  0  0  0  0  0  0
   11.5371  -18.3296   29.5614 N   0  0  0  0  0  0  0  0  0  0  0  0
   11.9270  -18.0005   28.2233 C   0  0  0  0  0  0  0  0  0  0  0  0
   10.7065  -17.3475   27.5404 C   0  0  0  0  0  0  0  0  0  0  0  0
   11.0229  -17.0476   26.1030 C   0  0  0  0  0  0  0  0  0  0  0  0
    9.8930  -16.4124   25.4043 C   0  0  2  0  0  0  0  0  0  0  0  0
   10.1169  -16.2348   23.9847 N   0  0  0  0  0  0  0  0  0  0  0  0
    9.2557  -15.2442   26.0549 C   0  0  0  0  0  0  0  0  0  0  0  0
    8.5026  -15.3628   27.2136 O   0  0  0  0  0  0  0  0  0  0  0  0
    9.3551  -14.0654   25.5931 O   0  0  0  0  0  0  0  0  0  0  0  0
  2  1  1  6
  3  2  1  0
  4  2  1  0
  4  5  2  0
  6  4  1  0
  7  6  1  0
  7  8  1  6
  9  8  1  0
 10  9  1  0
 11 10  1  0
 12 11  1  0
 13  7  1  0
 14 13  2  0
 16 17  2  0
 16 15  1  0
 18 16  1  0
 19 18  1  0
 20 19  1  0
 22 21  1  1
 21 20  1  0
 22 23  1  0
 23 13  1  0
 24 25  1  0
 24 22  1  0
 26 24  2  0
M  END
$$$$
