AKR.pdb
     RDKit          3D

 26 25  0  0  1  0  0  0  0  0999 V2000
    5.3923  -20.9263   20.8833 C   0  0  0  0  0  0  0  0  0  0  0  0
    4.6833  -21.1210   22.2070 C   0  0  2  0  0  0  0  0  0  0  0  0
    3.2502  -20.9665   22.0746 N   0  0  0  0  0  0  0  0  0  0  0  0
    5.2146  -20.0947   23.1464 C   0  0  0  0  0  0  0  0  0  0  0  0
    4.7682  -18.9380   23.1206 O   0  0  0  0  0  0  0  0  0  0  0  0
    6.2317  -20.4099   24.0828 N   0  0  0  0  0  0  0  0  0  0  0  0
    6.7751  -19.5166   25.0417 C   0  0  1  0  0  0  0  0  0  0  0  0
    7.4954  -20.1440   26.1872 C   0  0  0  0  0  0  0  0  0  0  0  0
    8.0540  -19.1701   27.1812 C   0  0  0  0  0  0  0  0  0  0  0  0
    8.8865  -19.9211   28.1828 C   0  0  0  0  0  0  0  0  0  0  0  0
    9.4828  -19.0162   29.2327 C   0  0  0  0  0  0  0  0  0  0  0  0
   10.2567  -19.7395   30.2200 N   0  0  0  0  0  0  0  0  0  0  0  0
    7.6919  -18.5500   24.3400 C   0  0  0  0  0  0  0  0  0  0  0  0
    8.6056  -18.9628   23.5853 O   0  0  0  0  0  0  0  0  0  0  0  0
    7.5203  -14.4576   19.1270 N   0  0  0  0  0  0  0  0  0  0  0  0
    8.0391  -13.1594   19.3618 C   0  0  0  0  0  0  0  0  0  0  0  0
    8.6478  -12.5491   18.4165 N   0  0  0  0  0  0  0  0  0  0  0  0
    7.8920  -12.5279   20.6312 N   0  0  0  0  0  0  0  0  0  0  0  0
    7.2393  -13.1545   21.7411 C   0  0  0  0  0  0  0  0  0  0  0  0
    8.1689  -14.2812   22.2399 C   0  0  0  0  0  0  0  0  0  0  0  0
    7.5552  -14.9635   23.4291 C   0  0  0  0  0  0  0  0  0  0  0  0
    8.3414  -16.1275   23.8711 C   0  0  2  0  0  0  0  0  0  0  0  0
    7.5458  -17.1521   24.5148 N   0  0  0  0  0  0  0  0  0  0  0  0
    9.6311  -15.8641   24.5503 C   0  0  0  0  0  0  0  0  0  0  0  0
   10.7388  -15.3786   23.8712 O   0  0  0  0  0  0  0  0  0  0  0  0
    9.8049  -16.0685   25.7915 O   0  0  0  0  0  0  0  0  0  0  0  0
  2  1  1  6
  3  2  1  0
  4  2  1  0
  4  5  2  0
  6  4  1  0
  7  6  1  0
  7  8  1  1
  9  8  1  0
 10  9  1  0
 11 10  1  0
 12 11  1  0
 13  7  1  0
 14 13  2  0
 16 17  2  0
 16 15  1  0
 18 16  1  0
 19 18  1  0
 20 19  1  0
 22 21  1  1
 21 20  1  0
 22 23  1  0
 23 13  1  0
 24 25  1  0
 24 22  1  0
 26 24  2  0
M  END
$$$$
