AKR.pdb
     RDKit          3D

 26 25  0  0  1  0  0  0  0  0999 V2000
    8.1943  -12.1543   20.2283 C   0  0  0  0  0  0  0  0  0  0  0  0
    7.8756  -13.2210   19.2019 C   0  0  2  0  0  0  0  0  0  0  0  0
    6.4567  -13.2895   18.9238 N   0  0  0  0  0  0  0  0  0  0  0  0
    8.3417  -14.5213   19.7588 C   0  0  0  0  0  0  0  0  0  0  0  0
    7.5586  -15.2409   20.3966 O   0  0  0  0  0  0  0  0  0  0  0  0
    9.6763  -14.9644   19.5762 N   0  0  0  0  0  0  0  0  0  0  0  0
   10.1922  -16.2194   19.9901 C   0  0  1  0  0  0  0  0  0  0  0  0
   10.9206  -17.0032   18.9511 C   0  0  0  0  0  0  0  0  0  0  0  0
   11.3648  -18.3650   19.3947 C   0  0  0  0  0  0  0  0  0  0  0  0
   12.0291  -19.0603   18.2390 C   0  0  0  0  0  0  0  0  0  0  0  0
   12.4665  -20.4628   18.5829 C   0  0  0  0  0  0  0  0  0  0  0  0
   13.0898  -21.1434   17.4670 N   0  0  0  0  0  0  0  0  0  0  0  0
   11.0895  -16.0067   21.1805 C   0  0  0  0  0  0  0  0  0  0  0  0
   12.0903  -15.2534   21.1047 O   0  0  0  0  0  0  0  0  0  0  0  0
   10.2622  -17.4735   30.1253 N   0  0  0  0  0  0  0  0  0  0  0  0
   11.4660  -16.8429   29.7218 C   0  0  0  0  0  0  0  0  0  0  0  0
   12.1449  -16.1831   30.5823 N   0  0  0  0  0  0  0  0  0  0  0  0
   11.9281  -16.9338   28.3765 N   0  0  0  0  0  0  0  0  0  0  0  0
   11.0466  -17.1043   27.2608 C   0  0  0  0  0  0  0  0  0  0  0  0
   11.9226  -17.1524   25.9909 C   0  0  0  0  0  0  0  0  0  0  0  0
   11.0519  -17.2526   24.7709 C   0  0  0  0  0  0  0  0  0  0  0  0
   11.6361  -16.5593   23.6106 C   0  0  2  0  0  0  0  0  0  0  0  0
   10.8263  -16.6515   22.4137 N   0  0  0  0  0  0  0  0  0  0  0  0
   13.0848  -16.7427   23.3621 C   0  0  0  0  0  0  0  0  0  0  0  0
   13.5922  -17.8808   22.7528 O   0  0  0  0  0  0  0  0  0  0  0  0
   13.9509  -15.8748   23.6927 O   0  0  0  0  0  0  0  0  0  0  0  0
  2  1  1  1
  3  2  1  0
  4  2  1  0
  4  5  2  0
  6  4  1  0
  7  6  1  0
  7  8  1  6
  9  8  1  0
 10  9  1  0
 11 10  1  0
 12 11  1  0
 13  7  1  0
 14 13  2  0
 16 17  2  0
 16 15  1  0
 18 16  1  0
 19 18  1  0
 20 19  1  0
 22 21  1  1
 21 20  1  0
 22 23  1  0
 23 13  1  0
 24 25  1  0
 24 22  1  0
 26 24  2  0
M  END
$$$$
