AKR.pdb
     RDKit          3D

 26 25  0  0  1  0  0  0  0  0999 V2000
    9.5423  -14.7104   16.7973 C   0  0  0  0  0  0  0  0  0  0  0  0
    8.2095  -14.3715   17.4313 C   0  0  2  0  0  0  0  0  0  0  0  0
    7.9994  -12.9412   17.5037 N   0  0  0  0  0  0  0  0  0  0  0  0
    8.2155  -14.9486   18.8042 C   0  0  0  0  0  0  0  0  0  0  0  0
    8.5350  -14.2439   19.7734 O   0  0  0  0  0  0  0  0  0  0  0  0
    7.8602  -16.3017   19.0356 N   0  0  0  0  0  0  0  0  0  0  0  0
    7.9318  -16.9709   20.2846 C   0  0  1  0  0  0  0  0  0  0  0  0
    7.2205  -18.2791   20.3686 C   0  0  0  0  0  0  0  0  0  0  0  0
    5.7874  -18.2391   19.9293 C   0  0  0  0  0  0  0  0  0  0  0  0
    5.2232  -19.6316   19.9827 C   0  0  0  0  0  0  0  0  0  0  0  0
    3.7440  -19.6672   19.6872 C   0  0  0  0  0  0  0  0  0  0  0  0
    3.2116  -21.0136   19.6602 N   0  0  0  0  0  0  0  0  0  0  0  0
    9.3799  -17.1616   20.6508 C   0  0  0  0  0  0  0  0  0  0  0  0
   10.1568  -17.7928   19.8940 O   0  0  0  0  0  0  0  0  0  0  0  0
   15.0697  -14.2439   17.0890 N   0  0  0  0  0  0  0  0  0  0  0  0
   14.9049  -14.4354   18.4839 C   0  0  0  0  0  0  0  0  0  0  0  0
   15.8937  -14.8561   19.1782 N   0  0  0  0  0  0  0  0  0  0  0  0
   13.6582  -14.1666   19.1203 N   0  0  0  0  0  0  0  0  0  0  0  0
   13.4479  -14.3429   20.5259 C   0  0  0  0  0  0  0  0  0  0  0  0
   12.4144  -15.4770   20.6935 C   0  0  0  0  0  0  0  0  0  0  0  0
   12.1433  -15.7122   22.1521 C   0  0  0  0  0  0  0  0  0  0  0  0
   11.2356  -16.8502   22.3740 C   0  0  2  0  0  0  0  0  0  0  0  0
    9.9000  -16.6339   21.8579 N   0  0  0  0  0  0  0  0  0  0  0  0
   11.2589  -17.4941   23.7078 C   0  0  0  0  0  0  0  0  0  0  0  0
   12.2983  -18.3184   24.1129 O   0  0  0  0  0  0  0  0  0  0  0  0
   10.3310  -17.3356   24.5602 O   0  0  0  0  0  0  0  0  0  0  0  0
  2  1  1  1
  3  2  1  0
  4  2  1  0
  4  5  2  0
  6  4  1  0
  7  6  1  0
  7  8  1  6
  9  8  1  0
 10  9  1  0
 11 10  1  0
 12 11  1  0
 13  7  1  0
 14 13  2  0
 16 17  2  0
 16 15  1  0
 18 16  1  0
 19 18  1  0
 20 19  1  0
 22 21  1  1
 21 20  1  0
 22 23  1  0
 23 13  1  0
 24 25  1  0
 24 22  1  0
 26 24  2  0
M  END
$$$$
