AKR.pdb
     RDKit          3D

 26 25  0  0  1  0  0  0  0  0999 V2000
    9.5878  -13.3614   19.8555 C   0  0  0  0  0  0  0  0  0  0  0  0
    8.1333  -13.5649   19.4870 C   0  0  2  0  0  0  0  0  0  0  0  0
    7.3924  -12.3220   19.5251 N   0  0  0  0  0  0  0  0  0  0  0  0
    7.5591  -14.5225   20.4726 C   0  0  0  0  0  0  0  0  0  0  0  0
    7.1557  -14.1155   21.5724 O   0  0  0  0  0  0  0  0  0  0  0  0
    7.4600  -15.9069   20.1823 N   0  0  0  0  0  0  0  0  0  0  0  0
    6.9765  -16.9027   21.0695 C   0  0  1  0  0  0  0  0  0  0  0  0
    6.4961  -18.1656   20.4379 C   0  0  0  0  0  0  0  0  0  0  0  0
    6.0418  -19.2146   21.4082 C   0  0  0  0  0  0  0  0  0  0  0  0
    5.6095  -20.4328   20.6405 C   0  0  0  0  0  0  0  0  0  0  0  0
    5.0875  -21.5268   21.5391 C   0  0  0  0  0  0  0  0  0  0  0  0
    4.8370  -22.7628   20.8275 N   0  0  0  0  0  0  0  0  0  0  0  0
    8.0515  -17.2208   22.0748 C   0  0  0  0  0  0  0  0  0  0  0  0
    9.2485  -16.9152   21.8545 O   0  0  0  0  0  0  0  0  0  0  0  0
    9.8671  -15.8651   28.9180 N   0  0  0  0  0  0  0  0  0  0  0  0
    9.9692  -14.4716   28.6785 C   0  0  0  0  0  0  0  0  0  0  0  0
   10.0224  -13.6686   29.6730 N   0  0  0  0  0  0  0  0  0  0  0  0
   10.0134  -13.9556   27.3505 N   0  0  0  0  0  0  0  0  0  0  0  0
    9.0007  -14.2285   26.3755 C   0  0  0  0  0  0  0  0  0  0  0  0
    8.9706  -15.7573   26.1651 C   0  0  0  0  0  0  0  0  0  0  0  0
    8.3526  -16.0797   24.8344 C   0  0  0  0  0  0  0  0  0  0  0  0
    8.2619  -17.5303   24.5986 C   0  0  2  0  0  0  0  0  0  0  0  0
    7.7381  -17.8724   23.2927 N   0  0  0  0  0  0  0  0  0  0  0  0
    7.7204  -18.3688   25.6930 C   0  0  0  0  0  0  0  0  0  0  0  0
    6.5255  -19.0625   25.5712 O   0  0  0  0  0  0  0  0  0  0  0  0
    8.3117  -18.5027   26.8089 O   0  0  0  0  0  0  0  0  0  0  0  0
  2  1  1  1
  3  2  1  0
  4  2  1  0
  4  5  2  0
  6  4  1  0
  7  6  1  0
  7  8  1  6
  9  8  1  0
 10  9  1  0
 11 10  1  0
 12 11  1  0
 13  7  1  0
 14 13  2  0
 16 17  2  0
 16 15  1  0
 18 16  1  0
 19 18  1  0
 20 19  1  0
 22 21  1  1
 21 20  1  0
 22 23  1  0
 23 13  1  0
 24 25  1  0
 24 22  1  0
 26 24  2  0
M  END
$$$$
