AKR.pdb
     RDKit          3D

 26 25  0  0  1  0  0  0  0  0999 V2000
    8.3065  -18.1768   18.4915 C   0  0  0  0  0  0  0  0  0  0  0  0
    8.5395  -16.6818   18.4312 C   0  0  2  0  0  0  0  0  0  0  0  0
    9.5392  -16.3352   17.4435 N   0  0  0  0  0  0  0  0  0  0  0  0
    8.9977  -16.2526   19.7818 C   0  0  0  0  0  0  0  0  0  0  0  0
   10.1957  -16.3427   20.0894 O   0  0  0  0  0  0  0  0  0  0  0  0
    8.0873  -15.7364   20.7385 N   0  0  0  0  0  0  0  0  0  0  0  0
    8.4120  -15.3638   22.0683 C   0  0  1  0  0  0  0  0  0  0  0  0
    7.3500  -14.6381   22.8232 C   0  0  0  0  0  0  0  0  0  0  0  0
    7.7482  -14.2103   24.2041 C   0  0  0  0  0  0  0  0  0  0  0  0
    6.6323  -13.4001   24.8030 C   0  0  0  0  0  0  0  0  0  0  0  0
    6.9915  -12.8323   26.1541 C   0  0  0  0  0  0  0  0  0  0  0  0
    5.8918  -12.1208   26.7718 N   0  0  0  0  0  0  0  0  0  0  0  0
    8.8189  -16.5961   22.8322 C   0  0  0  0  0  0  0  0  0  0  0  0
    8.2235  -17.6868   22.6573 O   0  0  0  0  0  0  0  0  0  0  0  0
   10.7807  -13.7930   27.8177 N   0  0  0  0  0  0  0  0  0  0  0  0
   11.0903  -14.5442   28.9794 C   0  0  0  0  0  0  0  0  0  0  0  0
   10.7780  -14.0760   30.1283 N   0  0  0  0  0  0  0  0  0  0  0  0
   11.7418  -15.8084   28.8849 N   0  0  0  0  0  0  0  0  0  0  0  0
   12.2324  -16.3407   27.6493 C   0  0  0  0  0  0  0  0  0  0  0  0
   11.0035  -16.7423   26.8061 C   0  0  0  0  0  0  0  0  0  0  0  0
   11.4487  -17.3028   25.4855 C   0  0  0  0  0  0  0  0  0  0  0  0
   10.3125  -17.6465   24.6142 C   0  0  2  0  0  0  0  0  0  0  0  0
    9.8826  -16.5541   23.7664 N   0  0  0  0  0  0  0  0  0  0  0  0
    9.1925  -18.4050   25.2176 C   0  0  0  0  0  0  0  0  0  0  0  0
    9.3210  -19.7307   25.6049 O   0  0  0  0  0  0  0  0  0  0  0  0
    8.0472  -17.8930   25.4148 O   0  0  0  0  0  0  0  0  0  0  0  0
  2  1  1  1
  3  2  1  0
  4  2  1  0
  4  5  2  0
  6  4  1  0
  7  6  1  0
  7  8  1  1
  9  8  1  0
 10  9  1  0
 11 10  1  0
 12 11  1  0
 13  7  1  0
 14 13  2  0
 16 17  2  0
 16 15  1  0
 18 16  1  0
 19 18  1  0
 20 19  1  0
 22 21  1  1
 21 20  1  0
 22 23  1  0
 23 13  1  0
 24 25  1  0
 24 22  1  0
 26 24  2  0
M  END
$$$$
