AKR.pdb
     RDKit          3D

 26 25  0  0  1  0  0  0  0  0999 V2000
    7.0028  -12.9419   18.7693 C   0  0  0  0  0  0  0  0  0  0  0  0
    8.4063  -13.3642   19.1498 C   0  0  2  0  0  0  0  0  0  0  0  0
    9.1654  -13.7998   17.9969 N   0  0  0  0  0  0  0  0  0  0  0  0
    8.2806  -14.4858   20.1215 C   0  0  0  0  0  0  0  0  0  0  0  0
    7.6630  -14.3212   21.1843 O   0  0  0  0  0  0  0  0  0  0  0  0
    8.8565  -15.7549   19.8598 N   0  0  0  0  0  0  0  0  0  0  0  0
    8.8454  -16.8636   20.7448 C   0  0  1  0  0  0  0  0  0  0  0  0
    9.4114  -18.1353   20.2090 C   0  0  0  0  0  0  0  0  0  0  0  0
    9.4513  -19.2643   21.1949 C   0  0  0  0  0  0  0  0  0  0  0  0
    9.0876  -20.5404   20.4880 C   0  0  0  0  0  0  0  0  0  0  0  0
    9.0217  -21.7212   21.4250 C   0  0  0  0  0  0  0  0  0  0  0  0
    8.7715  -22.9694   20.7346 N   0  0  0  0  0  0  0  0  0  0  0  0
    9.5710  -16.4835   22.0083 C   0  0  0  0  0  0  0  0  0  0  0  0
   10.7144  -15.9682   21.9630 O   0  0  0  0  0  0  0  0  0  0  0  0
    5.9892  -13.0691   25.2429 N   0  0  0  0  0  0  0  0  0  0  0  0
    6.6577  -12.2684   26.2029 C   0  0  0  0  0  0  0  0  0  0  0  0
    6.4078  -11.0148   26.2546 N   0  0  0  0  0  0  0  0  0  0  0  0
    7.6001  -12.8389   27.1074 N   0  0  0  0  0  0  0  0  0  0  0  0
    7.6818  -14.2459   27.3613 C   0  0  0  0  0  0  0  0  0  0  0  0
    8.8630  -14.7912   26.5306 C   0  0  0  0  0  0  0  0  0  0  0  0
    8.3481  -15.4919   25.3057 C   0  0  0  0  0  0  0  0  0  0  0  0
    9.4281  -16.1250   24.5304 C   0  0  2  0  0  0  0  0  0  0  0  0
    8.9813  -16.6984   23.2780 N   0  0  0  0  0  0  0  0  0  0  0  0
   10.3872  -16.9812   25.2659 C   0  0  0  0  0  0  0  0  0  0  0  0
   11.4660  -16.4548   25.9610 O   0  0  0  0  0  0  0  0  0  0  0  0
   10.2851  -18.2464   25.3039 O   0  0  0  0  0  0  0  0  0  0  0  0
  2  1  1  6
  3  2  1  0
  4  2  1  0
  4  5  2  0
  6  4  1  0
  7  6  1  0
  7  8  1  6
  9  8  1  0
 10  9  1  0
 11 10  1  0
 12 11  1  0
 13  7  1  0
 14 13  2  0
 16 17  2  0
 16 15  1  0
 18 16  1  0
 19 18  1  0
 20 19  1  0
 22 21  1  1
 21 20  1  0
 22 23  1  0
 23 13  1  0
 24 25  1  0
 24 22  1  0
 26 24  2  0
M  END
$$$$
