VQI.pdb
     RDKit          3D

 25 24  0  0  1  0  0  0  0  0999 V2000
   19.8018   -9.2493  -20.5279 C   0  0  0  0  0  0  0  0  0  0  0  0
   20.8257  -10.2607  -20.1031 C   0  0  2  0  0  0  0  0  0  0  0  0
   21.1447  -11.1891  -21.2532 C   0  0  0  0  0  0  0  0  0  0  0  0
   20.3762  -11.0767  -18.9118 C   0  0  2  0  0  0  0  0  0  0  0  0
   19.1896  -11.8532  -19.2847 N   0  0  0  0  0  0  0  0  0  0  0  0
   20.0943  -10.2244  -17.7333 C   0  0  0  0  0  0  0  0  0  0  0  0
   18.9037   -9.9005  -17.4907 O   0  0  0  0  0  0  0  0  0  0  0  0
   18.6057   -9.4143  -13.4068 N   0  0  0  0  0  0  0  0  0  0  0  0
   19.6246   -8.6185  -12.7834 C   0  0  0  0  0  0  0  0  0  0  0  0
   19.2427   -7.9439  -11.7895 O   0  0  0  0  0  0  0  0  0  0  0  0
   21.0139   -8.6108  -13.2917 C   0  0  0  0  0  0  0  0  0  0  0  0
   21.2140   -9.5067  -14.4621 C   0  0  0  0  0  0  0  0  0  0  0  0
   20.8335   -8.9047  -15.7958 C   0  0  2  0  0  0  0  0  0  0  0  0
   21.1456   -9.7825  -16.8950 N   0  0  0  0  0  0  0  0  0  0  0  0
   21.6539   -7.6735  -15.9321 C   0  0  0  0  0  0  0  0  0  0  0  0
   22.8817   -7.7817  -16.1575 O   0  0  0  0  0  0  0  0  0  0  0  0
   20.8442   -3.8438  -19.3165 C   0  0  0  0  0  0  0  0  0  0  0  0
   21.5208   -4.7230  -18.3135 C   0  0  0  0  0  0  0  0  0  0  0  0
   21.3483   -4.1729  -16.8937 C   0  0  2  0  0  0  0  0  0  0  0  0
   22.0649   -2.8676  -16.7247 C   0  0  0  0  0  0  0  0  0  0  0  0
   21.9213   -5.1612  -15.8906 C   0  0  2  0  0  0  0  0  0  0  0  0
   21.1157   -6.3615  -15.8194 N   0  0  0  0  0  0  0  0  0  0  0  0
   21.8907   -4.4981  -14.5708 C   0  0  0  0  0  0  0  0  0  0  0  0
   23.0049   -3.8940  -14.0134 O   0  0  0  0  0  0  0  0  0  0  0  0
   20.8212   -4.4734  -13.9181 O   0  0  0  0  0  0  0  0  0  0  0  0
  2  1  1  6
  3  2  1  0
  4  2  1  0
  4  5  1  6
  6  4  1  0
  6  7  2  0
  8  9  1  0
  9 10  2  0
  9 11  1  0
 11 12  1  0
 13 12  1  1
 13 14  1  0
 14  6  1  0
 15 13  1  0
 16 15  2  0
 18 17  1  0
 19 18  1  0
 19 21  1  0
 19 20  1  6
 21 22  1  1
 21 23  1  0
 22 15  1  0
 23 24  1  0
 25 23  2  0
M  END
$$$$
