VQI.pdb
     RDKit          3D

 25 24  0  0  1  0  0  0  0  0999 V2000
   27.6955  -17.6702  -17.0306 C   0  0  0  0  0  0  0  0  0  0  0  0
   28.3451  -18.9300  -17.5231 C   0  0  2  0  0  0  0  0  0  0  0  0
   27.7347  -19.3456  -18.8427 C   0  0  0  0  0  0  0  0  0  0  0  0
   28.2249  -20.0693  -16.5359 C   0  0  2  0  0  0  0  0  0  0  0  0
   28.9256  -21.2411  -17.0705 N   0  0  0  0  0  0  0  0  0  0  0  0
   26.8107  -20.3961  -16.2391 C   0  0  0  0  0  0  0  0  0  0  0  0
   26.3018  -21.4184  -16.7655 O   0  0  0  0  0  0  0  0  0  0  0  0
   25.1391  -21.2673  -10.6955 N   0  0  0  0  0  0  0  0  0  0  0  0
   23.9080  -21.5161  -11.3901 C   0  0  0  0  0  0  0  0  0  0  0  0
   23.0064  -22.0642  -10.7005 O   0  0  0  0  0  0  0  0  0  0  0  0
   23.7378  -21.1451  -12.8121 C   0  0  0  0  0  0  0  0  0  0  0  0
   24.9734  -20.5863  -13.4232 C   0  0  0  0  0  0  0  0  0  0  0  0
   24.8120  -20.0886  -14.8417 C   0  0  2  0  0  0  0  0  0  0  0  0
   26.0457  -19.5730  -15.3784 N   0  0  0  0  0  0  0  0  0  0  0  0
   23.8308  -18.9752  -14.7701 C   0  0  0  0  0  0  0  0  0  0  0  0
   24.0955  -17.9750  -14.0634 O   0  0  0  0  0  0  0  0  0  0  0  0
   20.5620  -15.3539  -18.1378 C   0  0  0  0  0  0  0  0  0  0  0  0
   20.5841  -16.0715  -16.8258 C   0  0  0  0  0  0  0  0  0  0  0  0
   21.5501  -17.2604  -16.8647 C   0  0  2  0  0  0  0  0  0  0  0  0
   21.0609  -18.3292  -17.7943 C   0  0  0  0  0  0  0  0  0  0  0  0
   21.6743  -17.8625  -15.4743 C   0  0  2  0  0  0  0  0  0  0  0  0
   22.5915  -18.9820  -15.4683 N   0  0  0  0  0  0  0  0  0  0  0  0
   20.3328  -18.3545  -15.0992 C   0  0  0  0  0  0  0  0  0  0  0  0
   20.0160  -19.7019  -15.0612 O   0  0  0  0  0  0  0  0  0  0  0  0
   19.4356  -17.5318  -14.8012 O   0  0  0  0  0  0  0  0  0  0  0  0
  2  1  1  1
  3  2  1  0
  4  2  1  0
  4  5  1  6
  6  4  1  0
  6  7  2  0
  8  9  1  0
  9 10  2  0
  9 11  1  0
 11 12  1  0
 13 12  1  1
 13 14  1  0
 14  6  1  0
 15 13  1  0
 16 15  2  0
 18 17  1  0
 19 18  1  0
 19 21  1  0
 19 20  1  6
 21 22  1  6
 21 23  1  0
 22 15  1  0
 23 24  1  0
 25 23  2  0
M  END
$$$$
