VQI.pdb
     RDKit          3D

 25 24  0  0  1  0  0  0  0  0999 V2000
   25.6345  -20.4201  -17.3896 C   0  0  0  0  0  0  0  0  0  0  0  0
   27.0730  -20.7567  -17.1260 C   0  0  2  0  0  0  0  0  0  0  0  0
   27.5976  -21.6719  -18.2093 C   0  0  0  0  0  0  0  0  0  0  0  0
   27.2787  -21.4091  -15.7773 C   0  0  2  0  0  0  0  0  0  0  0  0
   26.7437  -22.7737  -15.8198 N   0  0  0  0  0  0  0  0  0  0  0  0
   26.6454  -20.6329  -14.6859 C   0  0  0  0  0  0  0  0  0  0  0  0
   26.9681  -19.4271  -14.5337 O   0  0  0  0  0  0  0  0  0  0  0  0
   20.7949  -20.2440  -13.0496 N   0  0  0  0  0  0  0  0  0  0  0  0
   21.5893  -19.5458  -14.0198 C   0  0  0  0  0  0  0  0  0  0  0  0
   20.9368  -18.8534  -14.8467 O   0  0  0  0  0  0  0  0  0  0  0  0
   23.0651  -19.6492  -14.0247 C   0  0  0  0  0  0  0  0  0  0  0  0
   23.6027  -20.4060  -12.8625 C   0  0  0  0  0  0  0  0  0  0  0  0
   25.1115  -20.4479  -12.7741 C   0  0  2  0  0  0  0  0  0  0  0  0
   25.6941  -21.2371  -13.8295 N   0  0  0  0  0  0  0  0  0  0  0  0
   25.4222  -21.0997  -11.4756 C   0  0  0  0  0  0  0  0  0  0  0  0
   25.3350  -22.3463  -11.3838 O   0  0  0  0  0  0  0  0  0  0  0  0
   29.2417  -19.5036   -7.8833 C   0  0  0  0  0  0  0  0  0  0  0  0
   28.2782  -20.3418   -8.6616 C   0  0  0  0  0  0  0  0  0  0  0  0
   26.8570  -20.2080   -8.1043 C   0  0  2  0  0  0  0  0  0  0  0  0
   26.7595  -20.7738   -6.7200 C   0  0  0  0  0  0  0  0  0  0  0  0
   25.8863  -20.9663   -8.9954 C   0  0  2  0  0  0  0  0  0  0  0  0
   25.8183  -20.3776  -10.3158 N   0  0  0  0  0  0  0  0  0  0  0  0
   24.5540  -20.8590   -8.3660 C   0  0  0  0  0  0  0  0  0  0  0  0
   24.0856  -21.7843   -7.4487 O   0  0  0  0  0  0  0  0  0  0  0  0
   23.8070  -19.8980   -8.6643 O   0  0  0  0  0  0  0  0  0  0  0  0
  2  1  1  6
  3  2  1  0
  4  2  1  0
  4  5  1  6
  6  4  1  0
  6  7  2  0
  8  9  1  0
  9 10  2  0
  9 11  1  0
 11 12  1  0
 13 12  1  6
 13 14  1  0
 14  6  1  0
 15 13  1  0
 16 15  2  0
 18 17  1  0
 19 18  1  0
 19 21  1  0
 19 20  1  1
 21 22  1  6
 21 23  1  0
 22 15  1  0
 23 24  1  0
 25 23  2  0
M  END
$$$$
