VQI.pdb
     RDKit          3D

 25 24  0  0  1  0  0  0  0  0999 V2000
   29.1011  -17.9957  -17.0945 C   0  0  0  0  0  0  0  0  0  0  0  0
   28.3549  -18.6968  -18.1915 C   0  0  2  0  0  0  0  0  0  0  0  0
   29.2489  -18.8672  -19.3990 C   0  0  0  0  0  0  0  0  0  0  0  0
   27.0977  -17.9620  -18.5998 C   0  0  2  0  0  0  0  0  0  0  0  0
   27.4669  -16.6593  -19.1626 N   0  0  0  0  0  0  0  0  0  0  0  0
   26.1621  -17.7946  -17.4635 C   0  0  0  0  0  0  0  0  0  0  0  0
   25.8147  -16.6327  -17.1309 O   0  0  0  0  0  0  0  0  0  0  0  0
   20.6022  -18.8472  -16.8249 N   0  0  0  0  0  0  0  0  0  0  0  0
   20.9330  -18.5277  -15.4653 C   0  0  0  0  0  0  0  0  0  0  0  0
   19.9481  -18.2708  -14.7217 O   0  0  0  0  0  0  0  0  0  0  0  0
   22.3367  -18.5094  -14.9985 C   0  0  0  0  0  0  0  0  0  0  0  0
   23.3214  -18.6986  -16.0970 C   0  0  0  0  0  0  0  0  0  0  0  0
   24.7683  -18.7117  -15.6584 C   0  0  2  0  0  0  0  0  0  0  0  0
   25.6676  -18.9216  -16.7644 N   0  0  0  0  0  0  0  0  0  0  0  0
   24.8972  -19.8607  -14.7254 C   0  0  0  0  0  0  0  0  0  0  0  0
   24.8013  -21.0256  -15.1770 O   0  0  0  0  0  0  0  0  0  0  0  0
   28.9644  -20.2436  -11.4879 C   0  0  0  0  0  0  0  0  0  0  0  0
   27.7755  -20.5284  -12.3493 C   0  0  0  0  0  0  0  0  0  0  0  0
   26.4956  -20.6132  -11.5109 C   0  0  2  0  0  0  0  0  0  0  0  0
   26.5532  -21.7561  -10.5433 C   0  0  0  0  0  0  0  0  0  0  0  0
   25.2999  -20.8265  -12.4254 C   0  0  2  0  0  0  0  0  0  0  0  0
   25.1264  -19.7098  -13.3296 N   0  0  0  0  0  0  0  0  0  0  0  0
   24.1076  -20.9157  -11.5576 C   0  0  0  0  0  0  0  0  0  0  0  0
   23.5246  -22.1232  -11.2127 O   0  0  0  0  0  0  0  0  0  0  0  0
   23.5923  -19.8654  -11.1083 O   0  0  0  0  0  0  0  0  0  0  0  0
  2  1  1  1
  3  2  1  0
  4  2  1  0
  4  5  1  1
  6  4  1  0
  6  7  2  0
  8  9  1  0
  9 10  2  0
  9 11  1  0
 11 12  1  0
 13 12  1  6
 13 14  1  0
 14  6  1  0
 15 13  1  0
 16 15  2  0
 18 17  1  0
 19 18  1  0
 19 21  1  0
 19 20  1  1
 21 22  1  6
 21 23  1  0
 22 15  1  0
 23 24  1  0
 25 23  2  0
M  END
$$$$
