VQI.pdb
     RDKit          3D

 25 24  0  0  1  0  0  0  0  0999 V2000
   14.0451   -6.9803   -7.6917 C   0  0  0  0  0  0  0  0  0  0  0  0
   14.9509   -7.6553   -8.6794 C   0  0  2  0  0  0  0  0  0  0  0  0
   16.1048   -6.7435   -9.0311 C   0  0  0  0  0  0  0  0  0  0  0  0
   14.2299   -8.0603   -9.9456 C   0  0  2  0  0  0  0  0  0  0  0  0
   13.4297   -9.2593   -9.6774 N   0  0  0  0  0  0  0  0  0  0  0  0
   15.1709   -8.2992  -11.0647 C   0  0  0  0  0  0  0  0  0  0  0  0
   15.5510   -9.4753  -11.2961 O   0  0  0  0  0  0  0  0  0  0  0  0
   14.5985   -5.4485  -16.4898 N   0  0  0  0  0  0  0  0  0  0  0  0
   15.6650   -6.3833  -16.7112 C   0  0  0  0  0  0  0  0  0  0  0  0
   15.9778   -6.5611  -17.9192 O   0  0  0  0  0  0  0  0  0  0  0  0
   16.3307   -7.0726  -15.5842 C   0  0  0  0  0  0  0  0  0  0  0  0
   15.7098   -6.7736  -14.2661 C   0  0  0  0  0  0  0  0  0  0  0  0
   16.3131   -7.5171  -13.0959 C   0  0  2  0  0  0  0  0  0  0  0  0
   15.6341   -7.2235  -11.8595 N   0  0  0  0  0  0  0  0  0  0  0  0
   17.7134   -7.0324  -12.9878 C   0  0  0  0  0  0  0  0  0  0  0  0
   17.9625   -6.0499  -12.2512 O   0  0  0  0  0  0  0  0  0  0  0  0
   21.9532  -10.5165  -14.0701 C   0  0  0  0  0  0  0  0  0  0  0  0
   21.0820   -9.4854  -13.4262 C   0  0  0  0  0  0  0  0  0  0  0  0
   21.1367   -8.1606  -14.1945 C   0  0  2  0  0  0  0  0  0  0  0  0
   22.5101   -7.5626  -14.1516 C   0  0  0  0  0  0  0  0  0  0  0  0
   20.1684   -7.1686  -13.5704 C   0  0  2  0  0  0  0  0  0  0  0  0
   18.8011   -7.6296  -13.6833 N   0  0  0  0  0  0  0  0  0  0  0  0
   20.3008   -5.9068  -14.3272 C   0  0  0  0  0  0  0  0  0  0  0  0
   20.9763   -4.8055  -13.8292 O   0  0  0  0  0  0  0  0  0  0  0  0
   19.7868   -5.8145  -15.4664 O   0  0  0  0  0  0  0  0  0  0  0  0
  2  1  1  1
  3  2  1  0
  4  2  1  0
  4  5  1  1
  6  4  1  0
  6  7  2  0
  8  9  1  0
  9 10  2  0
  9 11  1  0
 11 12  1  0
 13 12  1  6
 13 14  1  0
 14  6  1  0
 15 13  1  0
 16 15  2  0
 18 17  1  0
 19 18  1  0
 19 21  1  0
 19 20  1  1
 21 22  1  6
 21 23  1  0
 22 15  1  0
 23 24  1  0
 25 23  2  0
M  END
$$$$
