VQI.pdb
     RDKit          3D

 25 24  0  0  1  0  0  0  0  0999 V2000
   17.7676  -13.5868  -19.5777 C   0  0  0  0  0  0  0  0  0  0  0  0
   18.2702  -12.6337  -18.5334 C   0  0  2  0  0  0  0  0  0  0  0  0
   18.5682  -11.2898  -19.1591 C   0  0  0  0  0  0  0  0  0  0  0  0
   19.5083  -13.1433  -17.8301 C   0  0  2  0  0  0  0  0  0  0  0  0
   19.1908  -14.4080  -17.1595 N   0  0  0  0  0  0  0  0  0  0  0  0
   20.0387  -12.1563  -16.8609 C   0  0  0  0  0  0  0  0  0  0  0  0
   19.3706  -11.9043  -15.8258 O   0  0  0  0  0  0  0  0  0  0  0  0
   24.7633  -13.7941  -14.8981 N   0  0  0  0  0  0  0  0  0  0  0  0
   24.7342  -12.5098  -15.5384 C   0  0  0  0  0  0  0  0  0  0  0  0
   25.4524  -12.4101  -16.5694 O   0  0  0  0  0  0  0  0  0  0  0  0
   23.9112  -11.4022  -15.0051 C   0  0  0  0  0  0  0  0  0  0  0  0
   23.2912  -10.5685  -16.0695 C   0  0  0  0  0  0  0  0  0  0  0  0
   21.7797  -10.5970  -16.0997 C   0  0  2  0  0  0  0  0  0  0  0  0
   21.2751  -11.5084  -17.0951 N   0  0  0  0  0  0  0  0  0  0  0  0
   21.3570   -9.2210  -16.4672 C   0  0  0  0  0  0  0  0  0  0  0  0
   21.5565   -8.8142  -17.6354 O   0  0  0  0  0  0  0  0  0  0  0  0
   16.7305   -7.2779  -16.7634 C   0  0  0  0  0  0  0  0  0  0  0  0
   18.2137   -7.4002  -16.9108 C   0  0  0  0  0  0  0  0  0  0  0  0
   18.9418   -6.6695  -15.7776 C   0  0  2  0  0  0  0  0  0  0  0  0
   18.7358   -5.1877  -15.8644 C   0  0  0  0  0  0  0  0  0  0  0  0
   20.4339   -6.9464  -15.8679 C   0  0  2  0  0  0  0  0  0  0  0  0
   20.7301   -8.3279  -15.5545 N   0  0  0  0  0  0  0  0  0  0  0  0
   21.0907   -6.0870  -14.8617 C   0  0  0  0  0  0  0  0  0  0  0  0
   21.4947   -6.5611  -13.6251 O   0  0  0  0  0  0  0  0  0  0  0  0
   21.2971   -4.8789  -15.1233 O   0  0  0  0  0  0  0  0  0  0  0  0
  2  1  1  6
  3  2  1  0
  4  2  1  0
  4  5  1  1
  6  4  1  0
  6  7  2  0
  8  9  1  0
  9 10  2  0
  9 11  1  0
 11 12  1  0
 13 12  1  6
 13 14  1  0
 14  6  1  0
 15 13  1  0
 16 15  2  0
 18 17  1  0
 19 18  1  0
 19 21  1  0
 19 20  1  6
 21 22  1  1
 21 23  1  0
 22 15  1  0
 23 24  1  0
 25 23  2  0
M  END
$$$$
