VQI.pdb
     RDKit          3D

 25 24  0  0  1  0  0  0  0  0999 V2000
   19.5526  -21.5931  -14.3224 C   0  0  0  0  0  0  0  0  0  0  0  0
   20.9139  -21.8244  -13.7349 C   0  0  2  0  0  0  0  0  0  0  0  0
   21.0034  -21.1846  -12.3677 C   0  0  0  0  0  0  0  0  0  0  0  0
   22.0233  -21.2878  -14.6115 C   0  0  2  0  0  0  0  0  0  0  0  0
   21.9705  -21.9594  -15.9139 N   0  0  0  0  0  0  0  0  0  0  0  0
   23.3549  -21.4630  -13.9864 C   0  0  0  0  0  0  0  0  0  0  0  0
   23.8996  -22.5957  -14.0283 O   0  0  0  0  0  0  0  0  0  0  0  0
   28.9920  -21.8137  -13.2092 N   0  0  0  0  0  0  0  0  0  0  0  0
   28.4065  -20.6666  -13.8429 C   0  0  0  0  0  0  0  0  0  0  0  0
   28.5350  -20.6245  -15.0961 O   0  0  0  0  0  0  0  0  0  0  0  0
   27.7083  -19.6256  -13.0571 C   0  0  0  0  0  0  0  0  0  0  0  0
   26.2775  -19.4700  -13.4325 C   0  0  0  0  0  0  0  0  0  0  0  0
   25.3596  -20.5463  -12.8987 C   0  0  2  0  0  0  0  0  0  0  0  0
   24.0030  -20.3756  -13.3533 N   0  0  0  0  0  0  0  0  0  0  0  0
   25.3803  -20.3985  -11.4205 C   0  0  0  0  0  0  0  0  0  0  0  0
   24.5477  -19.6390  -10.8728 O   0  0  0  0  0  0  0  0  0  0  0  0
   29.0072  -21.5378   -6.4672 C   0  0  0  0  0  0  0  0  0  0  0  0
   27.6600  -21.2541   -7.0513 C   0  0  0  0  0  0  0  0  0  0  0  0
   27.6989  -21.3180   -8.5819 C   0  0  2  0  0  0  0  0  0  0  0  0
   28.7273  -20.3817   -9.1399 C   0  0  0  0  0  0  0  0  0  0  0  0
   26.3429  -20.9216   -9.1435 C   0  0  2  0  0  0  0  0  0  0  0  0
   26.3051  -21.0801  -10.5816 N   0  0  0  0  0  0  0  0  0  0  0  0
   26.1487  -19.4921   -8.8250 C   0  0  0  0  0  0  0  0  0  0  0  0
   25.5635  -19.0633   -7.6457 O   0  0  0  0  0  0  0  0  0  0  0  0
   26.5234  -18.6215   -9.6449 O   0  0  0  0  0  0  0  0  0  0  0  0
  2  1  1  6
  3  2  1  0
  4  2  1  0
  4  5  1  6
  6  4  1  0
  6  7  2  0
  8  9  1  0
  9 10  2  0
  9 11  1  0
 11 12  1  0
 13 12  1  6
 13 14  1  0
 14  6  1  0
 15 13  1  0
 16 15  2  0
 18 17  1  0
 19 18  1  0
 19 21  1  0
 19 20  1  6
 21 22  1  6
 21 23  1  0
 22 15  1  0
 23 24  1  0
 25 23  2  0
M  END
$$$$
