VQI.pdb
     RDKit          3D

 25 24  0  0  1  0  0  0  0  0999 V2000
   27.2721  -15.7287  -15.9318 C   0  0  0  0  0  0  0  0  0  0  0  0
   27.1791  -16.8671  -16.9050 C   0  0  2  0  0  0  0  0  0  0  0  0
   27.9208  -16.5229  -18.1769 C   0  0  0  0  0  0  0  0  0  0  0  0
   25.7494  -17.2273  -17.2418 C   0  0  2  0  0  0  0  0  0  0  0  0
   25.0987  -16.0700  -17.8640 N   0  0  0  0  0  0  0  0  0  0  0  0
   24.9953  -17.6711  -16.0464 C   0  0  0  0  0  0  0  0  0  0  0  0
   24.6701  -16.8163  -15.1833 O   0  0  0  0  0  0  0  0  0  0  0  0
   20.1728  -19.5395  -14.7406 N   0  0  0  0  0  0  0  0  0  0  0  0
   20.7216  -20.3083  -13.6599 C   0  0  0  0  0  0  0  0  0  0  0  0
   19.9414  -20.4973  -12.6881 O   0  0  0  0  0  0  0  0  0  0  0  0
   22.1054  -20.8289  -13.7106 C   0  0  0  0  0  0  0  0  0  0  0  0
   22.8497  -20.3960  -14.9234 C   0  0  0  0  0  0  0  0  0  0  0  0
   23.9865  -19.4340  -14.6619 C   0  0  2  0  0  0  0  0  0  0  0  0
   24.6468  -19.0326  -15.8780 N   0  0  0  0  0  0  0  0  0  0  0  0
   24.9611  -20.1786  -13.8235 C   0  0  0  0  0  0  0  0  0  0  0  0
   25.7954  -20.9292  -14.3808 O   0  0  0  0  0  0  0  0  0  0  0  0
   26.0387  -18.4462   -8.6093 C   0  0  0  0  0  0  0  0  0  0  0  0
   26.3161  -18.9732   -9.9812 C   0  0  0  0  0  0  0  0  0  0  0  0
   25.8295  -20.4192  -10.1244 C   0  0  2  0  0  0  0  0  0  0  0  0
   26.6682  -21.3588   -9.3123 C   0  0  0  0  0  0  0  0  0  0  0  0
   25.9168  -20.8448  -11.5812 C   0  0  2  0  0  0  0  0  0  0  0  0
   25.0002  -20.0855  -12.4045 N   0  0  0  0  0  0  0  0  0  0  0  0
   25.5254  -22.2684  -11.6357 C   0  0  0  0  0  0  0  0  0  0  0  0
   26.4511  -23.2934  -11.7334 O   0  0  0  0  0  0  0  0  0  0  0  0
   24.3113  -22.5758  -11.5928 O   0  0  0  0  0  0  0  0  0  0  0  0
  2  1  1  1
  3  2  1  0
  4  2  1  0
  4  5  1  1
  6  4  1  0
  6  7  2  0
  8  9  1  0
  9 10  2  0
  9 11  1  0
 11 12  1  0
 13 12  1  6
 13 14  1  0
 14  6  1  0
 15 13  1  0
 16 15  2  0
 18 17  1  0
 19 18  1  0
 19 21  1  0
 19 20  1  1
 21 22  1  6
 21 23  1  0
 22 15  1  0
 23 24  1  0
 25 23  2  0
M  END
$$$$
