VQI.pdb
     RDKit          3D

 25 24  0  0  1  0  0  0  0  0999 V2000
   17.2307  -10.9873  -19.7922 C   0  0  0  0  0  0  0  0  0  0  0  0
   18.6889  -11.3416  -19.7946 C   0  0  2  0  0  0  0  0  0  0  0  0
   18.9221  -12.5691  -20.6463 C   0  0  0  0  0  0  0  0  0  0  0  0
   19.2285  -11.5883  -18.4036 C   0  0  2  0  0  0  0  0  0  0  0  0
   18.6356  -12.8196  -17.8722 N   0  0  0  0  0  0  0  0  0  0  0  0
   18.9629  -10.4467  -17.4976 C   0  0  0  0  0  0  0  0  0  0  0  0
   17.9555  -10.4910  -16.7463 O   0  0  0  0  0  0  0  0  0  0  0  0
   23.3028   -6.6394  -14.9997 N   0  0  0  0  0  0  0  0  0  0  0  0
   22.0638   -6.1709  -14.4471 C   0  0  0  0  0  0  0  0  0  0  0  0
   22.1781   -5.3266  -13.5181 O   0  0  0  0  0  0  0  0  0  0  0  0
   20.7620   -6.6603  -14.9515 C   0  0  0  0  0  0  0  0  0  0  0  0
   20.8950   -7.6237  -16.0768 C   0  0  0  0  0  0  0  0  0  0  0  0
   19.6070   -8.2984  -16.4916 C   0  0  2  0  0  0  0  0  0  0  0  0
   19.8270   -9.3259  -17.4775 N   0  0  0  0  0  0  0  0  0  0  0  0
   18.7719   -7.2330  -17.1038 C   0  0  0  0  0  0  0  0  0  0  0  0
   18.7786   -7.0941  -18.3490 O   0  0  0  0  0  0  0  0  0  0  0  0
   13.4239   -4.9780  -17.7584 C   0  0  0  0  0  0  0  0  0  0  0  0
   14.8385   -4.5516  -17.5263 C   0  0  0  0  0  0  0  0  0  0  0  0
   15.6708   -5.6986  -16.9433 C   0  0  2  0  0  0  0  0  0  0  0  0
   15.2631   -6.0057  -15.5343 C   0  0  0  0  0  0  0  0  0  0  0  0
   17.1407   -5.3104  -16.9372 C   0  0  2  0  0  0  0  0  0  0  0  0
   17.9545   -6.3503  -16.3447 N   0  0  0  0  0  0  0  0  0  0  0  0
   17.2588   -4.0938  -16.1075 C   0  0  0  0  0  0  0  0  0  0  0  0
   17.7208   -4.1226  -14.8026 O   0  0  0  0  0  0  0  0  0  0  0  0
   16.9318   -2.9844  -16.5902 O   0  0  0  0  0  0  0  0  0  0  0  0
  2  1  1  1
  3  2  1  0
  4  2  1  0
  4  5  1  1
  6  4  1  0
  6  7  2  0
  8  9  1  0
  9 10  2  0
  9 11  1  0
 11 12  1  0
 13 12  1  6
 13 14  1  0
 14  6  1  0
 15 13  1  0
 16 15  2  0
 18 17  1  0
 19 18  1  0
 19 21  1  0
 19 20  1  1
 21 22  1  1
 21 23  1  0
 22 15  1  0
 23 24  1  0
 25 23  2  0
M  END
$$$$
