VQI.pdb
     RDKit          3D

 25 24  0  0  1  0  0  0  0  0999 V2000
   27.7100  -16.9724  -14.4692 C   0  0  0  0  0  0  0  0  0  0  0  0
   27.9428  -18.3321  -15.0599 C   0  0  2  0  0  0  0  0  0  0  0  0
   28.7253  -18.2099  -16.3480 C   0  0  0  0  0  0  0  0  0  0  0  0
   26.6543  -19.0775  -15.3265 C   0  0  2  0  0  0  0  0  0  0  0  0
   25.9013  -18.3730  -16.3690 N   0  0  0  0  0  0  0  0  0  0  0  0
   25.8369  -19.2239  -14.0996 C   0  0  0  0  0  0  0  0  0  0  0  0
   25.0649  -18.2874  -13.7705 O   0  0  0  0  0  0  0  0  0  0  0  0
   21.6495  -20.3493  -11.6894 N   0  0  0  0  0  0  0  0  0  0  0  0
   21.8804  -20.7302  -13.0539 C   0  0  0  0  0  0  0  0  0  0  0  0
   20.9805  -20.3829  -13.8654 O   0  0  0  0  0  0  0  0  0  0  0  0
   23.0955  -21.4751  -13.4501 C   0  0  0  0  0  0  0  0  0  0  0  0
   24.0622  -21.6544  -12.3339 C   0  0  0  0  0  0  0  0  0  0  0  0
   25.0569  -20.5279  -12.1674 C   0  0  2  0  0  0  0  0  0  0  0  0
   25.9228  -20.3965  -13.3116 N   0  0  0  0  0  0  0  0  0  0  0  0
   25.8875  -20.8930  -10.9909 C   0  0  0  0  0  0  0  0  0  0  0  0
   26.9078  -21.6000  -11.1616 O   0  0  0  0  0  0  0  0  0  0  0  0
   28.5536  -19.2575   -5.9072 C   0  0  0  0  0  0  0  0  0  0  0  0
   27.7897  -20.3482   -6.5881 C   0  0  0  0  0  0  0  0  0  0  0  0
   26.9933  -19.8025   -7.7782 C   0  0  2  0  0  0  0  0  0  0  0  0
   25.9423  -18.8323   -7.3311 C   0  0  0  0  0  0  0  0  0  0  0  0
   26.3033  -20.9494   -8.4992 C   0  0  2  0  0  0  0  0  0  0  0  0
   25.5848  -20.4790   -9.6641 N   0  0  0  0  0  0  0  0  0  0  0  0
   25.3295  -21.5276   -7.5505 C   0  0  0  0  0  0  0  0  0  0  0  0
   25.6994  -22.3987   -6.5399 O   0  0  0  0  0  0  0  0  0  0  0  0
   24.1171  -21.2270   -7.6520 O   0  0  0  0  0  0  0  0  0  0  0  0
  2  1  1  6
  3  2  1  0
  4  2  1  0
  4  5  1  6
  6  4  1  0
  6  7  2  0
  8  9  1  0
  9 10  2  0
  9 11  1  0
 11 12  1  0
 13 12  1  6
 13 14  1  0
 14  6  1  0
 15 13  1  0
 16 15  2  0
 18 17  1  0
 19 18  1  0
 19 21  1  0
 19 20  1  1
 21 22  1  6
 21 23  1  0
 22 15  1  0
 23 24  1  0
 25 23  2  0
M  END
$$$$
