FIF.pdb
     RDKit          3D

 31 32  0  0  1  0  0  0  0  0999 V2000
   10.1090  -16.6432   18.8800 N   0  0  0  0  0  0  0  0  0  0  0  0
    9.5866  -17.3216   20.0260 C   0  0  1  0  0  0  0  0  0  0  0  0
   10.2611  -18.6623   20.2604 C   0  0  0  0  0  0  0  0  0  0  0  0
    9.7666  -19.6913   19.3102 C   0  0  0  0  0  0  0  0  0  0  0  0
    8.8692  -19.3217   18.3400 C   0  0  0  0  0  0  0  0  0  0  0  0
    8.4270  -20.2980   17.4717 C   0  0  0  0  0  0  0  0  0  0  0  0
    8.8715  -21.6000   17.5754 C   0  0  0  0  0  0  0  0  0  0  0  0
    9.7705  -21.9690   18.5478 C   0  0  0  0  0  0  0  0  0  0  0  0
   10.2168  -20.9883   19.4226 C   0  0  0  0  0  0  0  0  0  0  0  0
    9.7301  -16.5349   21.2767 C   0  0  0  0  0  0  0  0  0  0  0  0
   10.7290  -15.7624   21.3687 O   0  0  0  0  0  0  0  0  0  0  0  0
    6.6037  -13.5014   25.5172 C   0  0  0  0  0  0  0  0  0  0  0  0
    7.8348  -14.2247   25.1483 C   0  0  0  0  0  0  0  0  0  0  0  0
    7.8327  -15.1710   24.0176 C   0  0  2  0  0  0  0  0  0  0  0  0
    6.7165  -16.2110   24.2539 C   0  0  0  0  0  0  0  0  0  0  0  0
    9.0862  -15.8518   23.6042 C   0  0  2  0  0  0  0  0  0  0  0  0
    8.8185  -16.6072   22.3515 N   0  0  0  0  0  0  0  0  0  0  0  0
    9.7373  -16.7140   24.5705 C   0  0  0  0  0  0  0  0  0  0  0  0
    9.4048  -17.9121   24.7026 O   0  0  0  0  0  0  0  0  0  0  0  0
   10.8022  -16.2360   25.4298 N   0  0  0  0  0  0  0  0  0  0  0  0
   11.4625  -17.0635   26.4049 C   0  0  1  0  0  0  0  0  0  0  0  0
   12.4038  -16.2741   27.2726 C   0  0  0  0  0  0  0  0  0  0  0  0
   11.7599  -15.1592   28.0018 C   0  0  0  0  0  0  0  0  0  0  0  0
   11.5072  -15.2630   29.3603 C   0  0  0  0  0  0  0  0  0  0  0  0
   10.9188  -14.2111   30.0264 C   0  0  0  0  0  0  0  0  0  0  0  0
   10.5572  -13.0340   29.4104 C   0  0  0  0  0  0  0  0  0  0  0  0
   10.8076  -12.9313   28.0647 C   0  0  0  0  0  0  0  0  0  0  0  0
   11.3963  -13.9777   27.3873 C   0  0  0  0  0  0  0  0  0  0  0  0
   10.4367  -17.7805   27.1822 C   0  0  0  0  0  0  0  0  0  0  0  0
    9.1060  -17.4384   27.1045 O   0  0  0  0  0  0  0  0  0  0  0  0
   10.7377  -18.7380   27.9530 O   0  0  0  0  0  0  0  0  0  0  0  0
  2  1  1  6
  3  2  1  0
  3  4  1  0
  4  5  2  0
  5  6  1  0
  7  6  2  0
  8  7  1  0
  9  4  1  0
  9  8  2  0
 10  2  1  0
 10 11  2  0
 13 14  1  0
 13 12  1  0
 14 16  1  0
 14 15  1  1
 16 18  1  0
 16 17  1  6
 17 10  1  0
 18 20  1  0
 19 18  2  0
 20 21  1  0
 21 29  1  0
 22 23  1  0
 21 22  1  1
 23 28  2  0
 24 25  2  0
 24 23  1  0
 25 26  1  0
 26 27  2  0
 28 27  1  0
 29 31  2  0
 29 30  1  0
M  END
$$$$
