FIF.pdb
     RDKit          3D

 31 32  0  0  1  0  0  0  0  0999 V2000
    5.4705  -19.3149   20.4253 N   0  0  0  0  0  0  0  0  0  0  0  0
    5.4002  -18.0548   21.0989 C   0  0  1  0  0  0  0  0  0  0  0  0
    4.7760  -18.1719   22.4788 C   0  0  0  0  0  0  0  0  0  0  0  0
    3.4164  -18.7662   22.4101 C   0  0  0  0  0  0  0  0  0  0  0  0
    2.5246  -18.2773   21.4886 C   0  0  0  0  0  0  0  0  0  0  0  0
    1.2695  -18.8480   21.4474 C   0  0  0  0  0  0  0  0  0  0  0  0
    0.9234  -19.8739   22.3024 C   0  0  0  0  0  0  0  0  0  0  0  0
    1.8177  -20.3627   23.2251 C   0  0  0  0  0  0  0  0  0  0  0  0
    3.0812  -19.7901   23.2684 C   0  0  0  0  0  0  0  0  0  0  0  0
    6.7303  -17.4192   21.2727 C   0  0  0  0  0  0  0  0  0  0  0  0
    7.7519  -18.1477   21.1030 O   0  0  0  0  0  0  0  0  0  0  0  0
    7.3618  -12.3241   19.4754 C   0  0  0  0  0  0  0  0  0  0  0  0
    7.6403  -13.7249   19.8429 C   0  0  0  0  0  0  0  0  0  0  0  0
    8.1685  -14.0537   21.1796 C   0  0  2  0  0  0  0  0  0  0  0  0
    9.5279  -13.3436   21.3553 C   0  0  0  0  0  0  0  0  0  0  0  0
    8.2701  -15.4681   21.6211 C   0  0  2  0  0  0  0  0  0  0  0  0
    6.9062  -16.0611   21.6133 N   0  0  0  0  0  0  0  0  0  0  0  0
    8.9166  -15.7350   22.8907 C   0  0  0  0  0  0  0  0  0  0  0  0
   10.1198  -15.4528   23.0810 O   0  0  0  0  0  0  0  0  0  0  0  0
    8.2069  -16.3398   24.0004 N   0  0  0  0  0  0  0  0  0  0  0  0
    8.7196  -16.3680   25.3450 C   0  0  1  0  0  0  0  0  0  0  0  0
    7.6479  -16.0973   26.3650 C   0  0  0  0  0  0  0  0  0  0  0  0
    7.1922  -14.6900   26.4016 C   0  0  0  0  0  0  0  0  0  0  0  0
    5.8956  -14.3630   26.0381 C   0  0  0  0  0  0  0  0  0  0  0  0
    5.4838  -13.0499   26.0900 C   0  0  0  0  0  0  0  0  0  0  0  0
    6.3012  -12.0169   26.4906 C   0  0  0  0  0  0  0  0  0  0  0  0
    7.5855  -12.3409   26.8507 C   0  0  0  0  0  0  0  0  0  0  0  0
    8.0091  -13.6520   26.8029 C   0  0  0  0  0  0  0  0  0  0  0  0
    9.3984  -17.6578   25.5603 C   0  0  0  0  0  0  0  0  0  0  0  0
    9.4517  -18.6158   24.5738 O   0  0  0  0  0  0  0  0  0  0  0  0
    9.9580  -17.9371   26.6605 O   0  0  0  0  0  0  0  0  0  0  0  0
  2  1  1  1
  3  2  1  0
  3  4  1  0
  4  5  2  0
  5  6  1  0
  7  6  2  0
  8  7  1  0
  9  4  1  0
  9  8  2  0
 10  2  1  0
 10 11  2  0
 13 14  1  0
 13 12  1  0
 14 16  1  0
 14 15  1  6
 16 18  1  0
 16 17  1  1
 17 10  1  0
 18 20  1  0
 19 18  2  0
 20 21  1  0
 21 29  1  0
 22 23  1  0
 21 22  1  1
 23 28  2  0
 24 25  2  0
 24 23  1  0
 25 26  1  0
 26 27  2  0
 28 27  1  0
 29 31  2  0
 29 30  1  0
M  END
$$$$
