FIF.pdb
     RDKit          3D

 31 32  0  0  1  0  0  0  0  0999 V2000
   11.5484  -17.8584   18.0437 N   0  0  0  0  0  0  0  0  0  0  0  0
   10.4062  -18.0995   18.8706 C   0  0  1  0  0  0  0  0  0  0  0  0
   10.3640  -19.5243   19.3956 C   0  0  0  0  0  0  0  0  0  0  0  0
   10.0664  -20.4934   18.3099 C   0  0  0  0  0  0  0  0  0  0  0  0
   11.1035  -21.1828   17.7334 C   0  0  0  0  0  0  0  0  0  0  0  0
   10.7976  -22.0759   16.7277 C   0  0  0  0  0  0  0  0  0  0  0  0
    9.4950  -22.2689   16.3162 C   0  0  0  0  0  0  0  0  0  0  0  0
    8.4569  -21.5776   16.8946 C   0  0  0  0  0  0  0  0  0  0  0  0
    8.7623  -20.6785   17.9067 C   0  0  0  0  0  0  0  0  0  0  0  0
   10.3462  -17.1974   20.0479 C   0  0  0  0  0  0  0  0  0  0  0  0
   11.4432  -16.8711   20.5895 O   0  0  0  0  0  0  0  0  0  0  0  0
    6.7130  -13.1462   20.1077 C   0  0  0  0  0  0  0  0  0  0  0  0
    7.9071  -13.9844   20.3229 C   0  0  0  0  0  0  0  0  0  0  0  0
    8.0468  -14.7797   21.5565 C   0  0  2  0  0  0  0  0  0  0  0  0
    7.9858  -13.8208   22.7648 C   0  0  0  0  0  0  0  0  0  0  0  0
    9.1772  -15.7298   21.7148 C   0  0  2  0  0  0  0  0  0  0  0  0
    9.1414  -16.6943   20.5834 N   0  0  0  0  0  0  0  0  0  0  0  0
    9.2873  -16.4461   22.9702 C   0  0  0  0  0  0  0  0  0  0  0  0
    8.7253  -17.5498   23.1418 O   0  0  0  0  0  0  0  0  0  0  0  0
   10.0503  -15.9241   24.0865 N   0  0  0  0  0  0  0  0  0  0  0  0
   10.5047  -16.7385   25.1828 C   0  0  1  0  0  0  0  0  0  0  0  0
   11.2727  -15.9403   26.2003 C   0  0  0  0  0  0  0  0  0  0  0  0
   10.4235  -15.0989   27.0723 C   0  0  0  0  0  0  0  0  0  0  0  0
    9.5755  -14.1511   26.5219 C   0  0  0  0  0  0  0  0  0  0  0  0
    8.7825  -13.3850   27.3470 C   0  0  0  0  0  0  0  0  0  0  0  0
    8.7804  -13.5060   28.7185 C   0  0  0  0  0  0  0  0  0  0  0  0
    9.6203  -14.4449   29.2635 C   0  0  0  0  0  0  0  0  0  0  0  0
   10.4187  -15.2177   28.4476 C   0  0  0  0  0  0  0  0  0  0  0  0
    9.3425  -17.4336   25.7629 C   0  0  0  0  0  0  0  0  0  0  0  0
    8.0687  -17.2268   25.2849 O   0  0  0  0  0  0  0  0  0  0  0  0
    9.4682  -18.2471   26.7242 O   0  0  0  0  0  0  0  0  0  0  0  0
  2  1  1  1
  3  2  1  0
  3  4  1  0
  4  5  2  0
  5  6  1  0
  7  6  2  0
  8  7  1  0
  9  4  1  0
  9  8  2  0
 10  2  1  0
 10 11  2  0
 13 14  1  0
 13 12  1  0
 14 16  1  0
 14 15  1  1
 16 18  1  0
 16 17  1  6
 17 10  1  0
 18 20  1  0
 19 18  2  0
 20 21  1  0
 21 29  1  0
 22 23  1  0
 21 22  1  1
 23 28  2  0
 24 25  2  0
 24 23  1  0
 25 26  1  0
 26 27  2  0
 28 27  1  0
 29 31  2  0
 29 30  1  0
M  END
$$$$
