FIF.pdb
     RDKit          3D

 31 32  0  0  1  0  0  0  0  0999 V2000
    6.2939  -19.7846   21.0905 N   0  0  0  0  0  0  0  0  0  0  0  0
    6.1102  -18.6544   21.9480 C   0  0  1  0  0  0  0  0  0  0  0  0
    5.9238  -19.0565   23.4009 C   0  0  0  0  0  0  0  0  0  0  0  0
    4.7762  -19.9856   23.5632 C   0  0  0  0  0  0  0  0  0  0  0  0
    3.5429  -19.6041   23.0978 C   0  0  0  0  0  0  0  0  0  0  0  0
    2.4956  -20.4867   23.2622 C   0  0  0  0  0  0  0  0  0  0  0  0
    2.6820  -21.7096   23.8730 C   0  0  0  0  0  0  0  0  0  0  0  0
    3.9181  -22.0906   24.3389 C   0  0  0  0  0  0  0  0  0  0  0  0
    4.9732  -21.2042   24.1745 C   0  0  0  0  0  0  0  0  0  0  0  0
    7.2488  -17.7032   21.8999 C   0  0  0  0  0  0  0  0  0  0  0  0
    8.3838  -18.1671   21.5841 O   0  0  0  0  0  0  0  0  0  0  0  0
    6.6956  -12.5680   19.8840 C   0  0  0  0  0  0  0  0  0  0  0  0
    7.2210  -13.8887   20.2769 C   0  0  0  0  0  0  0  0  0  0  0  0
    7.8129  -14.0880   21.6125 C   0  0  2  0  0  0  0  0  0  0  0  0
    8.9207  -13.0326   21.8177 C   0  0  0  0  0  0  0  0  0  0  0  0
    8.3009  -15.4281   22.0266 C   0  0  2  0  0  0  0  0  0  0  0  0
    7.1265  -16.3266   22.1854 N   0  0  0  0  0  0  0  0  0  0  0  0
    9.1445  -15.5066   23.2028 C   0  0  0  0  0  0  0  0  0  0  0  0
   10.3531  -15.1892   23.1598 O   0  0  0  0  0  0  0  0  0  0  0  0
    8.6346  -15.9545   24.4835 N   0  0  0  0  0  0  0  0  0  0  0  0
    9.4357  -16.0078   25.6781 C   0  0  1  0  0  0  0  0  0  0  0  0
    9.4587  -14.6903   26.4032 C   0  0  0  0  0  0  0  0  0  0  0  0
    8.1477  -14.0059   26.4516 C   0  0  0  0  0  0  0  0  0  0  0  0
    6.9729  -14.7319   26.3383 C   0  0  0  0  0  0  0  0  0  0  0  0
    5.7609  -14.0809   26.3981 C   0  0  0  0  0  0  0  0  0  0  0  0
    5.6419  -12.7197   26.5676 C   0  0  0  0  0  0  0  0  0  0  0  0
    6.8056  -12.0006   26.6798 C   0  0  0  0  0  0  0  0  0  0  0  0
    8.0248  -12.6414   26.6216 C   0  0  0  0  0  0  0  0  0  0  0  0
    8.9472  -17.1134   26.5204 C   0  0  0  0  0  0  0  0  0  0  0  0
    9.5691  -17.4460   27.7022 O   0  0  0  0  0  0  0  0  0  0  0  0
    7.9379  -17.8021   26.1910 O   0  0  0  0  0  0  0  0  0  0  0  0
  2  1  1  6
  3  2  1  0
  3  4  1  0
  4  5  2  0
  5  6  1  0
  7  6  2  0
  8  7  1  0
  9  4  1  0
  9  8  2  0
 10  2  1  0
 10 11  2  0
 13 14  1  0
 13 12  1  0
 14 16  1  0
 14 15  1  6
 16 18  1  0
 16 17  1  1
 17 10  1  0
 18 20  1  0
 19 18  2  0
 20 21  1  0
 21 29  1  0
 22 23  1  0
 21 22  1  1
 23 28  2  0
 24 25  2  0
 24 23  1  0
 25 26  1  0
 26 27  2  0
 28 27  1  0
 29 31  2  0
 29 30  1  0
M  END
$$$$
