FIF.pdb
     RDKit          3D

 31 32  0  0  1  0  0  0  0  0999 V2000
    8.0740  -12.8400   20.6235 N   0  0  0  0  0  0  0  0  0  0  0  0
    7.6895  -14.0347   21.3101 C   0  0  1  0  0  0  0  0  0  0  0  0
    8.1529  -15.2891   20.5896 C   0  0  0  0  0  0  0  0  0  0  0  0
    7.3940  -15.5028   19.3307 C   0  0  0  0  0  0  0  0  0  0  0  0
    7.8113  -14.8666   18.1885 C   0  0  0  0  0  0  0  0  0  0  0  0
    7.0875  -15.0834   17.0344 C   0  0  0  0  0  0  0  0  0  0  0  0
    5.9833  -15.9104   17.0291 C   0  0  0  0  0  0  0  0  0  0  0  0
    5.5663  -16.5471   18.1740 C   0  0  0  0  0  0  0  0  0  0  0  0
    6.2930  -16.3306   19.3364 C   0  0  0  0  0  0  0  0  0  0  0  0
    8.2238  -14.1019   22.6934 C   0  0  0  0  0  0  0  0  0  0  0  0
    9.4695  -13.9352   22.8465 O   0  0  0  0  0  0  0  0  0  0  0  0
    5.8022  -11.3884   26.5306 C   0  0  0  0  0  0  0  0  0  0  0  0
    6.7898  -12.1307   25.7254 C   0  0  0  0  0  0  0  0  0  0  0  0
    7.1484  -13.5167   26.0779 C   0  0  2  0  0  0  0  0  0  0  0  0
    7.7048  -13.5254   27.5179 C   0  0  0  0  0  0  0  0  0  0  0  0
    8.0262  -14.3165   25.1862 C   0  0  2  0  0  0  0  0  0  0  0  0
    7.4197  -14.3395   23.8285 N   0  0  0  0  0  0  0  0  0  0  0  0
    8.3612  -15.6649   25.5996 C   0  0  0  0  0  0  0  0  0  0  0  0
    7.4775  -16.5339   25.7650 O   0  0  0  0  0  0  0  0  0  0  0  0
    9.7302  -16.0749   25.8417 N   0  0  0  0  0  0  0  0  0  0  0  0
   10.0942  -17.3996   26.2709 C   0  0  1  0  0  0  0  0  0  0  0  0
   11.2765  -17.9356   25.5113 C   0  0  0  0  0  0  0  0  0  0  0  0
   11.1558  -17.8110   24.0418 C   0  0  0  0  0  0  0  0  0  0  0  0
   10.4174  -18.7336   23.3181 C   0  0  0  0  0  0  0  0  0  0  0  0
   10.3046  -18.5958   21.9526 C   0  0  0  0  0  0  0  0  0  0  0  0
   10.8949  -17.5728   21.2450 C   0  0  0  0  0  0  0  0  0  0  0  0
   11.6262  -16.6589   21.9620 C   0  0  0  0  0  0  0  0  0  0  0  0
   11.7461  -16.7864   23.3294 C   0  0  0  0  0  0  0  0  0  0  0  0
   10.3159  -17.3756   27.7272 C   0  0  0  0  0  0  0  0  0  0  0  0
   10.5717  -18.5279   28.4347 O   0  0  0  0  0  0  0  0  0  0  0  0
   10.2787  -16.2956   28.3859 O   0  0  0  0  0  0  0  0  0  0  0  0
  2  1  1  6
  3  2  1  0
  3  4  1  0
  4  5  2  0
  5  6  1  0
  7  6  2  0
  8  7  1  0
  9  4  1  0
  9  8  2  0
 10  2  1  0
 10 11  2  0
 13 14  1  0
 13 12  1  0
 14 16  1  0
 14 15  1  1
 16 18  1  0
 16 17  1  6
 17 10  1  0
 18 20  1  0
 19 18  2  0
 20 21  1  0
 21 29  1  0
 22 23  1  0
 21 22  1  6
 23 28  2  0
 24 25  2  0
 24 23  1  0
 25 26  1  0
 26 27  2  0
 28 27  1  0
 29 31  2  0
 29 30  1  0
M  END
$$$$
