FIF.pdb
     RDKit          3D

 31 32  0  0  1  0  0  0  0  0999 V2000
    4.9646  -18.7735   23.3840 N   0  0  0  0  0  0  0  0  0  0  0  0
    5.6255  -17.6053   23.8788 C   0  0  1  0  0  0  0  0  0  0  0  0
    5.9124  -17.6916   25.3680 C   0  0  0  0  0  0  0  0  0  0  0  0
    6.4111  -16.3974   25.8998 C   0  0  0  0  0  0  0  0  0  0  0  0
    7.6558  -16.3524   26.4761 C   0  0  0  0  0  0  0  0  0  0  0  0
    8.0928  -15.1375   26.9614 C   0  0  0  0  0  0  0  0  0  0  0  0
    7.3062  -14.0077   26.8705 C   0  0  0  0  0  0  0  0  0  0  0  0
    6.0594  -14.0541   26.2929 C   0  0  0  0  0  0  0  0  0  0  0  0
    5.6176  -15.2755   25.8039 C   0  0  0  0  0  0  0  0  0  0  0  0
    6.9185  -17.3428   23.1985 C   0  0  0  0  0  0  0  0  0  0  0  0
    7.6773  -18.3337   22.9851 O   0  0  0  0  0  0  0  0  0  0  0  0
    7.6469  -12.3072   20.6946 C   0  0  0  0  0  0  0  0  0  0  0  0
    7.5814  -13.7670   20.8936 C   0  0  0  0  0  0  0  0  0  0  0  0
    8.6846  -14.4778   21.5655 C   0  0  2  0  0  0  0  0  0  0  0  0
    9.9744  -14.2639   20.7446 C   0  0  0  0  0  0  0  0  0  0  0  0
    8.5439  -15.9101   21.9318 C   0  0  2  0  0  0  0  0  0  0  0  0
    7.3349  -16.0595   22.7850 N   0  0  0  0  0  0  0  0  0  0  0  0
    9.6755  -16.5610   22.5618 C   0  0  0  0  0  0  0  0  0  0  0  0
    9.6615  -17.7839   22.8222 O   0  0  0  0  0  0  0  0  0  0  0  0
   10.8763  -15.8332   22.9211 N   0  0  0  0  0  0  0  0  0  0  0  0
   11.2349  -15.5219   24.2799 C   0  0  1  0  0  0  0  0  0  0  0  0
   10.0407  -15.1245   25.1034 C   0  0  0  0  0  0  0  0  0  0  0  0
   10.3529  -14.8457   26.5226 C   0  0  0  0  0  0  0  0  0  0  0  0
   10.0540  -15.7786   27.5028 C   0  0  0  0  0  0  0  0  0  0  0  0
   10.3628  -15.5086   28.8174 C   0  0  0  0  0  0  0  0  0  0  0  0
   10.9649  -14.3403   29.2276 C   0  0  0  0  0  0  0  0  0  0  0  0
   11.2610  -13.4164   28.2567 C   0  0  0  0  0  0  0  0  0  0  0  0
   10.9567  -13.6756   26.9373 C   0  0  0  0  0  0  0  0  0  0  0  0
   11.9614  -16.6712   24.8474 C   0  0  0  0  0  0  0  0  0  0  0  0
   11.3073  -17.6647   25.5394 O   0  0  0  0  0  0  0  0  0  0  0  0
   13.2150  -16.7903   24.7227 O   0  0  0  0  0  0  0  0  0  0  0  0
  2  1  1  6
  3  2  1  0
  3  4  1  0
  4  5  2  0
  5  6  1  0
  7  6  2  0
  8  7  1  0
  9  4  1  0
  9  8  2  0
 10  2  1  0
 10 11  2  0
 13 14  1  0
 13 12  1  0
 14 16  1  0
 14 15  1  6
 16 18  1  0
 16 17  1  1
 17 10  1  0
 18 20  1  0
 19 18  2  0
 20 21  1  0
 21 29  1  0
 22 23  1  0
 21 22  1  1
 23 28  2  0
 24 25  2  0
 24 23  1  0
 25 26  1  0
 26 27  2  0
 28 27  1  0
 29 31  2  0
 29 30  1  0
M  END
$$$$
