FIF.pdb
     RDKit          3D

 31 32  0  0  1  0  0  0  0  0999 V2000
    5.8299  -19.5307   20.5624 N   0  0  0  0  0  0  0  0  0  0  0  0
    5.5773  -18.2014   21.0268 C   0  0  1  0  0  0  0  0  0  0  0  0
    4.6461  -18.1764   22.2266 C   0  0  0  0  0  0  0  0  0  0  0  0
    3.3035  -18.7102   21.8819 C   0  0  0  0  0  0  0  0  0  0  0  0
    2.7561  -18.3929   20.6641 C   0  0  0  0  0  0  0  0  0  0  0  0
    1.5082  -18.9024   20.3710 C   0  0  0  0  0  0  0  0  0  0  0  0
    0.8347  -19.7027   21.2705 C   0  0  0  0  0  0  0  0  0  0  0  0
    1.3841  -20.0199   22.4902 C   0  0  0  0  0  0  0  0  0  0  0  0
    2.6396  -19.5083   22.7873 C   0  0  0  0  0  0  0  0  0  0  0  0
    6.8156  -17.4828   21.4190 C   0  0  0  0  0  0  0  0  0  0  0  0
    7.8756  -18.1659   21.5325 O   0  0  0  0  0  0  0  0  0  0  0  0
    7.0279  -12.1591   19.8125 C   0  0  0  0  0  0  0  0  0  0  0  0
    7.3822  -13.5660   20.0768 C   0  0  0  0  0  0  0  0  0  0  0  0
    7.9476  -13.9599   21.3802 C   0  0  2  0  0  0  0  0  0  0  0  0
    9.2412  -13.1508   21.6154 C   0  0  0  0  0  0  0  0  0  0  0  0
    8.1759  -15.3923   21.6991 C   0  0  2  0  0  0  0  0  0  0  0  0
    6.8653  -16.0945   21.6673 N   0  0  0  0  0  0  0  0  0  0  0  0
    8.8747  -15.7079   22.9292 C   0  0  0  0  0  0  0  0  0  0  0  0
   10.1230  -15.6775   22.9954 O   0  0  0  0  0  0  0  0  0  0  0  0
    8.1678  -16.0733   24.1407 N   0  0  0  0  0  0  0  0  0  0  0  0
    8.8325  -16.4301   25.3664 C   0  0  1  0  0  0  0  0  0  0  0  0
    9.4362  -15.2348   26.0513 C   0  0  0  0  0  0  0  0  0  0  0  0
    8.5080  -14.0920   26.1991 C   0  0  0  0  0  0  0  0  0  0  0  0
    7.6382  -14.0297   27.2761 C   0  0  0  0  0  0  0  0  0  0  0  0
    6.7897  -12.9528   27.4054 C   0  0  0  0  0  0  0  0  0  0  0  0
    6.7516  -11.9088   26.5086 C   0  0  0  0  0  0  0  0  0  0  0  0
    7.6133  -11.9706   25.4419 C   0  0  0  0  0  0  0  0  0  0  0  0
    8.4674  -13.0436   25.3019 C   0  0  0  0  0  0  0  0  0  0  0  0
    7.8780  -17.1556   26.2227 C   0  0  0  0  0  0  0  0  0  0  0  0
    8.2544  -17.6731   27.4410 O   0  0  0  0  0  0  0  0  0  0  0  0
    6.6750  -17.3332   25.8721 O   0  0  0  0  0  0  0  0  0  0  0  0
  2  1  1  1
  3  2  1  0
  3  4  1  0
  4  5  2  0
  5  6  1  0
  7  6  2  0
  8  7  1  0
  9  4  1  0
  9  8  2  0
 10  2  1  0
 10 11  2  0
 13 14  1  0
 13 12  1  0
 14 16  1  0
 14 15  1  6
 16 18  1  0
 16 17  1  1
 17 10  1  0
 18 20  1  0
 19 18  2  0
 20 21  1  0
 21 29  1  0
 22 23  1  0
 21 22  1  1
 23 28  2  0
 24 25  2  0
 24 23  1  0
 25 26  1  0
 26 27  2  0
 28 27  1  0
 29 31  2  0
 29 30  1  0
M  END
$$$$
