FIF.pdb
     RDKit          3D

 31 32  0  0  1  0  0  0  0  0999 V2000
    6.3864  -16.3388   20.2790 N   0  0  0  0  0  0  0  0  0  0  0  0
    6.0056  -16.4271   21.6551 C   0  0  1  0  0  0  0  0  0  0  0  0
    5.6584  -17.8471   22.0680 C   0  0  0  0  0  0  0  0  0  0  0  0
    4.2696  -18.2008   21.6776 C   0  0  0  0  0  0  0  0  0  0  0  0
    3.6822  -17.5292   20.6349 C   0  0  0  0  0  0  0  0  0  0  0  0
    2.3919  -17.8785   20.2945 C   0  0  0  0  0  0  0  0  0  0  0  0
    1.7162  -18.8679   20.9783 C   0  0  0  0  0  0  0  0  0  0  0  0
    2.3057  -19.5400   22.0228 C   0  0  0  0  0  0  0  0  0  0  0  0
    3.6039  -19.1903   22.3671 C   0  0  0  0  0  0  0  0  0  0  0  0
    7.0655  -15.9498   22.5783 C   0  0  0  0  0  0  0  0  0  0  0  0
    8.2664  -16.0494   22.1895 O   0  0  0  0  0  0  0  0  0  0  0  0
    5.9049  -11.9123   26.1978 C   0  0  0  0  0  0  0  0  0  0  0  0
    6.6247  -12.7561   25.2259 C   0  0  0  0  0  0  0  0  0  0  0  0
    7.3776  -13.9396   25.6802 C   0  0  2  0  0  0  0  0  0  0  0  0
    8.4949  -13.4696   26.6362 C   0  0  0  0  0  0  0  0  0  0  0  0
    7.9221  -14.9084   24.6951 C   0  0  2  0  0  0  0  0  0  0  0  0
    6.8007  -15.3985   23.8501 N   0  0  0  0  0  0  0  0  0  0  0  0
    8.6848  -16.0318   25.2025 C   0  0  0  0  0  0  0  0  0  0  0  0
    8.1214  -17.0216   25.7187 O   0  0  0  0  0  0  0  0  0  0  0  0
   10.1324  -16.0672   25.1388 N   0  0  0  0  0  0  0  0  0  0  0  0
   10.9228  -17.1262   25.7091 C   0  0  1  0  0  0  0  0  0  0  0  0
   12.0581  -16.5988   26.5428 C   0  0  0  0  0  0  0  0  0  0  0  0
   11.6314  -15.7294   27.6615 C   0  0  0  0  0  0  0  0  0  0  0  0
   11.3525  -14.3900   27.4417 C   0  0  0  0  0  0  0  0  0  0  0  0
   10.9442  -13.5977   28.4915 C   0  0  0  0  0  0  0  0  0  0  0  0
   10.7926  -14.0661   29.7773 C   0  0  0  0  0  0  0  0  0  0  0  0
   11.0688  -15.3928   29.9949 C   0  0  0  0  0  0  0  0  0  0  0  0
   11.4782  -16.1958   28.9517 C   0  0  0  0  0  0  0  0  0  0  0  0
   10.0299  -18.0225   26.4641 C   0  0  0  0  0  0  0  0  0  0  0  0
    8.7138  -17.6955   26.6988 O   0  0  0  0  0  0  0  0  0  0  0  0
   10.4369  -19.1273   26.9279 O   0  0  0  0  0  0  0  0  0  0  0  0
  2  1  1  6
  3  2  1  0
  3  4  1  0
  4  5  2  0
  5  6  1  0
  7  6  2  0
  8  7  1  0
  9  4  1  0
  9  8  2  0
 10  2  1  0
 10 11  2  0
 13 14  1  0
 13 12  1  0
 14 16  1  0
 14 15  1  6
 16 18  1  0
 16 17  1  1
 17 10  1  0
 18 20  1  0
 19 18  2  0
 20 21  1  0
 21 29  1  0
 22 23  1  0
 21 22  1  1
 23 28  2  0
 24 25  2  0
 24 23  1  0
 25 26  1  0
 26 27  2  0
 28 27  1  0
 29 31  2  0
 29 30  1  0
M  END
$$$$
