CNT.pdb
     RDKit          3D

 22 21  0  0  1  0  0  0  0  0999 V2000
    5.4768  -13.8512   25.9335 N   0  0  0  0  0  0  0  0  0  0  0  0
    6.6175  -13.7292   25.0588 C   0  0  1  0  0  0  0  0  0  0  0  0
    7.3920  -12.4494   25.2939 C   0  0  0  0  0  0  0  0  0  0  0  0
    7.0799  -11.9656   27.0251 S   0  0  0  0  0  0  0  0  0  0  0  0
    7.4486  -14.9365   25.1281 C   0  0  0  0  0  0  0  0  0  0  0  0
    7.3376  -15.7078   26.1118 O   0  0  0  0  0  0  0  0  0  0  0  0
   11.6749  -15.3113   22.4463 N   0  0  0  0  0  0  0  0  0  0  0  0
   10.3445  -15.7359   22.2622 C   0  0  0  0  0  0  0  0  0  0  0  0
    9.5917  -15.0724   21.4704 O   0  0  0  0  0  0  0  0  0  0  0  0
    9.7873  -16.9402   22.9579 C   0  0  0  0  0  0  0  0  0  0  0  0
    9.2488  -16.4679   24.2595 C   0  0  2  0  0  0  0  0  0  0  0  0
    8.4035  -15.3081   24.1281 N   0  0  0  0  0  0  0  0  0  0  0  0
   10.2834  -16.2416   25.3103 C   0  0  0  0  0  0  0  0  0  0  0  0
   11.5012  -16.3831   25.0302 O   0  0  0  0  0  0  0  0  0  0  0  0
   10.7853  -13.4206   28.1313 C   0  0  0  0  0  0  0  0  0  0  0  0
   10.6696  -14.8125   28.7192 C   0  0  1  0  0  0  0  0  0  0  0  0
    9.3918  -15.0592   29.2059 O   0  0  0  0  0  0  0  0  0  0  0  0
   10.9569  -15.8497   27.6729 C   0  0  2  0  0  0  0  0  0  0  0  0
    9.9390  -15.8712   26.6220 N   0  0  0  0  0  0  0  0  0  0  0  0
   11.1394  -17.2037   28.2421 C   0  0  0  0  0  0  0  0  0  0  0  0
   12.1648  -17.4581   29.1121 O   0  0  0  0  0  0  0  0  0  0  0  0
   10.3519  -18.1131   27.9219 O   0  0  0  0  0  0  0  0  0  0  0  0
  2  1  1  1
  2  3  1  0
  2  5  1  0
  3  4  1  0
  5  6  2  0
  5 12  1  0
  7  8  1  0
  8 10  1  0
  9  8  2  0
 11 10  1  6
 11 13  1  0
 12 11  1  0
 13 19  1  0
 13 14  2  0
 16 15  1  6
 17 16  1  0
 18 16  1  0
 18 20  1  0
 18 19  1  6
 20 21  1  0
 22 20  2  0
M  END
$$$$
