CNT.pdb
     RDKit          3D

 22 21  0  0  1  0  0  0  0  0999 V2000
    6.9369  -14.4101   19.4917 N   0  0  0  0  0  0  0  0  0  0  0  0
    8.0906  -14.2565   20.3440 C   0  0  1  0  0  0  0  0  0  0  0  0
    8.7812  -12.9233   20.1472 C   0  0  0  0  0  0  0  0  0  0  0  0
    9.9091  -13.1287   18.7280 S   0  0  0  0  0  0  0  0  0  0  0  0
    7.7363  -14.5306   21.7413 C   0  0  0  0  0  0  0  0  0  0  0  0
    6.7798  -13.9133   22.2691 O   0  0  0  0  0  0  0  0  0  0  0  0
    6.9648  -18.5816   25.9409 N   0  0  0  0  0  0  0  0  0  0  0  0
    6.7755  -17.3265   25.3302 C   0  0  0  0  0  0  0  0  0  0  0  0
    6.2774  -16.3748   26.0230 O   0  0  0  0  0  0  0  0  0  0  0  0
    7.1439  -17.0706   23.9006 C   0  0  0  0  0  0  0  0  0  0  0  0
    7.9590  -15.8286   23.8875 C   0  0  2  0  0  0  0  0  0  0  0  0
    8.4222  -15.4765   22.5690 N   0  0  0  0  0  0  0  0  0  0  0  0
    9.0938  -15.8245   24.8561 C   0  0  0  0  0  0  0  0  0  0  0  0
   10.1200  -16.5121   24.6207 O   0  0  0  0  0  0  0  0  0  0  0  0
    8.8455  -13.8915   28.6915 C   0  0  0  0  0  0  0  0  0  0  0  0
   10.1644  -13.9863   27.9513 C   0  0  1  0  0  0  0  0  0  0  0  0
   11.2297  -14.1737   28.8233 O   0  0  0  0  0  0  0  0  0  0  0  0
   10.1522  -15.1510   27.0045 C   0  0  2  0  0  0  0  0  0  0  0  0
    9.0543  -15.0683   26.0407 N   0  0  0  0  0  0  0  0  0  0  0  0
   10.1296  -16.4566   27.7013 C   0  0  0  0  0  0  0  0  0  0  0  0
   11.1867  -16.8467   28.4782 O   0  0  0  0  0  0  0  0  0  0  0  0
    9.1398  -17.2009   27.5742 O   0  0  0  0  0  0  0  0  0  0  0  0
  2  1  1  6
  2  3  1  0
  2  5  1  0
  3  4  1  0
  5  6  2  0
  5 12  1  0
  7  8  1  0
  8 10  1  0
  9  8  2  0
 11 10  1  6
 11 13  1  0
 12 11  1  0
 13 19  1  0
 13 14  2  0
 16 15  1  1
 17 16  1  0
 18 16  1  0
 18 20  1  0
 18 19  1  6
 20 21  1  0
 22 20  2  0
M  END
$$$$
