CNT.pdb
     RDKit          3D

 22 21  0  0  1  0  0  0  0  0999 V2000
    8.9923  -14.8974   19.2035 N   0  0  0  0  0  0  0  0  0  0  0  0
    8.4288  -13.8742   20.0501 C   0  0  1  0  0  0  0  0  0  0  0  0
    7.2880  -13.1353   19.3827 C   0  0  0  0  0  0  0  0  0  0  0  0
    7.8991  -12.6081   17.7465 S   0  0  0  0  0  0  0  0  0  0  0  0
    8.0774  -14.4298   21.3619 C   0  0  0  0  0  0  0  0  0  0  0  0
    7.1283  -13.9280   22.0117 O   0  0  0  0  0  0  0  0  0  0  0  0
    7.5459  -17.7838   21.3599 N   0  0  0  0  0  0  0  0  0  0  0  0
    8.4174  -18.2812   22.3485 C   0  0  0  0  0  0  0  0  0  0  0  0
    8.8157  -19.4928   22.2634 O   0  0  0  0  0  0  0  0  0  0  0  0
    8.8956  -17.4362   23.4895 C   0  0  0  0  0  0  0  0  0  0  0  0
    8.3713  -16.0664   23.2529 C   0  0  2  0  0  0  0  0  0  0  0  0
    8.7578  -15.5324   21.9713 N   0  0  0  0  0  0  0  0  0  0  0  0
    8.6809  -15.0906   24.3382 C   0  0  0  0  0  0  0  0  0  0  0  0
    9.8360  -14.6020   24.4296 O   0  0  0  0  0  0  0  0  0  0  0  0
    6.7138  -11.8276   25.4823 C   0  0  0  0  0  0  0  0  0  0  0  0
    6.9199  -12.7970   26.6286 C   0  0  1  0  0  0  0  0  0  0  0  0
    5.7901  -13.5742   26.8527 O   0  0  0  0  0  0  0  0  0  0  0  0
    8.0533  -13.7335   26.3266 C   0  0  2  0  0  0  0  0  0  0  0  0
    7.7121  -14.6937   25.2765 N   0  0  0  0  0  0  0  0  0  0  0  0
    8.5505  -14.4391   27.5289 C   0  0  0  0  0  0  0  0  0  0  0  0
    8.5574  -15.8069   27.5774 O   0  0  0  0  0  0  0  0  0  0  0  0
    8.9624  -13.7777   28.4998 O   0  0  0  0  0  0  0  0  0  0  0  0
  2  1  1  6
  2  3  1  0
  2  5  1  0
  3  4  1  0
  5  6  2  0
  5 12  1  0
  7  8  1  0
  8 10  1  0
  9  8  2  0
 11 10  1  1
 11 13  1  0
 12 11  1  0
 13 19  1  0
 13 14  2  0
 16 15  1  6
 17 16  1  0
 18 16  1  0
 18 20  1  0
 18 19  1  6
 20 21  1  0
 22 20  2  0
M  END
$$$$
