CNT.pdb
     RDKit          3D

 22 21  0  0  1  0  0  0  0  0999 V2000
   -3.2734  -23.5372   24.1594 N   0  0  0  0  0  0  0  0  0  0  0  0
   -3.1373  -23.6618   25.5901 C   0  0  1  0  0  0  0  0  0  0  0  0
   -2.7256  -22.3611   26.2470 C   0  0  0  0  0  0  0  0  0  0  0  0
   -4.0420  -21.1538   25.8758 S   0  0  0  0  0  0  0  0  0  0  0  0
   -4.3483  -24.2526   26.1712 C   0  0  0  0  0  0  0  0  0  0  0  0
   -5.4546  -24.0764   25.6057 O   0  0  0  0  0  0  0  0  0  0  0  0
   -5.8905  -28.8255   26.4723 N   0  0  0  0  0  0  0  0  0  0  0  0
   -6.3367  -27.8338   27.3676 C   0  0  0  0  0  0  0  0  0  0  0  0
   -7.5891  -27.5876   27.4375 O   0  0  0  0  0  0  0  0  0  0  0  0
   -5.3938  -27.0651   28.2421 C   0  0  0  0  0  0  0  0  0  0  0  0
   -5.5634  -25.6311   27.8926 C   0  0  2  0  0  0  0  0  0  0  0  0
   -4.3596  -25.0359   27.3696 N   0  0  0  0  0  0  0  0  0  0  0  0
   -6.1256  -24.7905   28.9896 C   0  0  0  0  0  0  0  0  0  0  0  0
   -5.4218  -24.5238   29.9970 O   0  0  0  0  0  0  0  0  0  0  0  0
   -6.9532  -21.3611   28.8120 C   0  0  0  0  0  0  0  0  0  0  0  0
   -8.2071  -21.9881   29.3874 C   0  0  1  0  0  0  0  0  0  0  0  0
   -9.1869  -22.1588   28.4171 O   0  0  0  0  0  0  0  0  0  0  0  0
   -7.9023  -23.3428   29.9574 C   0  0  2  0  0  0  0  0  0  0  0  0
   -7.4343  -24.2798   28.9356 N   0  0  0  0  0  0  0  0  0  0  0  0
   -9.0421  -23.9208   30.7040 C   0  0  0  0  0  0  0  0  0  0  0  0
   -9.4799  -23.3378   31.8622 O   0  0  0  0  0  0  0  0  0  0  0  0
   -9.6009  -24.9453   30.2705 O   0  0  0  0  0  0  0  0  0  0  0  0
  2  1  1  6
  2  3  1  0
  2  5  1  0
  3  4  1  0
  5  6  2  0
  5 12  1  0
  7  8  1  0
  8 10  1  0
  9  8  2  0
 11 10  1  1
 11 13  1  0
 12 11  1  0
 13 19  1  0
 13 14  2  0
 16 15  1  6
 17 16  1  0
 18 16  1  0
 18 20  1  0
 18 19  1  6
 20 21  1  0
 22 20  2  0
M  END
$$$$
