CNT.pdb
     RDKit          3D

 22 21  0  0  1  0  0  0  0  0999 V2000
    1.4734  -21.0773   20.7392 N   0  0  0  0  0  0  0  0  0  0  0  0
    2.2183  -19.8499   20.8793 C   0  0  1  0  0  0  0  0  0  0  0  0
    1.9341  -19.1477   22.1905 C   0  0  0  0  0  0  0  0  0  0  0  0
    3.0649  -19.8752   23.4235 S   0  0  0  0  0  0  0  0  0  0  0  0
    3.6466  -20.0865   20.6404 C   0  0  0  0  0  0  0  0  0  0  0  0
    4.0019  -21.0565   19.9280 O   0  0  0  0  0  0  0  0  0  0  0  0
    6.7438  -20.5794   18.1589 N   0  0  0  0  0  0  0  0  0  0  0  0
    6.0402  -19.3633   18.2606 C   0  0  0  0  0  0  0  0  0  0  0  0
    5.2418  -19.0346   17.3181 O   0  0  0  0  0  0  0  0  0  0  0  0
    6.1930  -18.4487   19.4374 C   0  0  0  0  0  0  0  0  0  0  0  0
    6.0350  -19.2892   20.6522 C   0  0  2  0  0  0  0  0  0  0  0  0
    4.6928  -19.2691   21.1766 N   0  0  0  0  0  0  0  0  0  0  0  0
    7.0210  -19.0018   21.7345 C   0  0  0  0  0  0  0  0  0  0  0  0
    7.2464  -17.8127   22.0760 O   0  0  0  0  0  0  0  0  0  0  0  0
    6.9287  -20.2792   25.2459 C   0  0  0  0  0  0  0  0  0  0  0  0
    8.3213  -20.5614   24.7194 C   0  0  1  0  0  0  0  0  0  0  0  0
    8.4658  -21.8894   24.3371 O   0  0  0  0  0  0  0  0  0  0  0  0
    8.6075  -19.7157   23.5128 C   0  0  2  0  0  0  0  0  0  0  0  0
    7.7176  -20.0293   22.3944 N   0  0  0  0  0  0  0  0  0  0  0  0
   10.0219  -19.7895   23.0829 C   0  0  0  0  0  0  0  0  0  0  0  0
   11.0225  -19.3619   23.9131 O   0  0  0  0  0  0  0  0  0  0  0  0
   10.2960  -20.2432   21.9566 O   0  0  0  0  0  0  0  0  0  0  0  0
  2  1  1  1
  2  3  1  0
  2  5  1  0
  3  4  1  0
  5  6  2  0
  5 12  1  0
  7  8  1  0
  8 10  1  0
  9  8  2  0
 11 10  1  6
 11 13  1  0
 12 11  1  0
 13 19  1  0
 13 14  2  0
 16 15  1  6
 17 16  1  0
 18 16  1  0
 18 20  1  0
 18 19  1  6
 20 21  1  0
 22 20  2  0
M  END
$$$$
