CNT.pdb
     RDKit          3D

 22 21  0  0  1  0  0  0  0  0999 V2000
   -5.3399  -20.1147   19.3870 N   0  0  0  0  0  0  0  0  0  0  0  0
   -4.1362  -19.7149   20.0742 C   0  0  1  0  0  0  0  0  0  0  0  0
   -4.3888  -19.3628   21.5252 C   0  0  0  0  0  0  0  0  0  0  0  0
   -4.8672  -20.9134   22.3589 S   0  0  0  0  0  0  0  0  0  0  0  0
   -3.0830  -20.7201   19.8914 C   0  0  0  0  0  0  0  0  0  0  0  0
   -3.3958  -21.8909   19.5659 O   0  0  0  0  0  0  0  0  0  0  0  0
    0.3876  -21.8780   16.7183 N   0  0  0  0  0  0  0  0  0  0  0  0
    0.0646  -20.8765   17.6547 C   0  0  0  0  0  0  0  0  0  0  0  0
   -0.6207  -19.8699   17.2661 O   0  0  0  0  0  0  0  0  0  0  0  0
    0.4922  -20.9564   19.0884 C   0  0  0  0  0  0  0  0  0  0  0  0
   -0.6771  -21.4618   19.8531 C   0  0  2  0  0  0  0  0  0  0  0  0
   -1.6865  -20.4549   20.0631 N   0  0  0  0  0  0  0  0  0  0  0  0
   -0.3306  -22.1284   21.1421 C   0  0  0  0  0  0  0  0  0  0  0  0
    0.2726  -21.4837   22.0377 O   0  0  0  0  0  0  0  0  0  0  0  0
   -2.4880  -23.3484   23.7691 C   0  0  0  0  0  0  0  0  0  0  0  0
   -1.6189  -24.5321   23.3952 C   0  0  1  0  0  0  0  0  0  0  0  0
   -2.2771  -25.3995   22.5321 O   0  0  0  0  0  0  0  0  0  0  0  0
   -0.3728  -24.0689   22.6983 C   0  0  2  0  0  0  0  0  0  0  0  0
   -0.6588  -23.4721   21.3933 N   0  0  0  0  0  0  0  0  0  0  0  0
    0.6415  -25.1386   22.5652 C   0  0  0  0  0  0  0  0  0  0  0  0
    1.1538  -25.7510   23.6767 O   0  0  0  0  0  0  0  0  0  0  0  0
    1.0279  -25.4776   21.4313 O   0  0  0  0  0  0  0  0  0  0  0  0
  2  1  1  1
  2  3  1  0
  2  5  1  0
  3  4  1  0
  5  6  2  0
  5 12  1  0
  7  8  1  0
  8 10  1  0
  9  8  2  0
 11 10  1  1
 11 13  1  0
 12 11  1  0
 13 19  1  0
 13 14  2  0
 16 15  1  6
 17 16  1  0
 18 16  1  0
 18 20  1  0
 18 19  1  6
 20 21  1  0
 22 20  2  0
M  END
$$$$
