AKC.pdb
     RDKit          3D

 21 20  0  0  1  0  0  0  0  0999 V2000
   23.0024  -19.6797   -9.1075 C   0  0  0  0  0  0  0  0  0  0  0  0
   23.4263  -20.8951   -9.9351 C   0  0  2  0  0  0  0  0  0  0  0  0
   24.7253  -21.2911   -9.4361 N   0  0  0  0  0  0  0  0  0  0  0  0
   23.5505  -20.4978  -11.3403 C   0  0  0  0  0  0  0  0  0  0  0  0
   22.6004  -19.8397  -11.8694 O   0  0  0  0  0  0  0  0  0  0  0  0
   24.6905  -20.8156  -12.1448 N   0  0  0  0  0  0  0  0  0  0  0  0
   24.7465  -20.3431  -13.4857 C   0  0  1  0  0  0  0  0  0  0  0  0
   26.1071  -20.5157  -14.1251 C   0  0  0  0  0  0  0  0  0  0  0  0
   26.1779  -19.8527  -15.4827 C   0  0  0  0  0  0  0  0  0  0  0  0
   27.5611  -20.1045  -16.0347 C   0  0  0  0  0  0  0  0  0  0  0  0
   27.7411  -19.4913  -17.4128 C   0  0  0  0  0  0  0  0  0  0  0  0
   29.0364  -19.7998  -17.9671 N   0  0  0  0  0  0  0  0  0  0  0  0
   23.7644  -20.9919  -14.3835 C   0  0  0  0  0  0  0  0  0  0  0  0
   23.6577  -22.2375  -14.3363 O   0  0  0  0  0  0  0  0  0  0  0  0
   22.9440  -20.2771  -15.2881 N   0  0  0  0  0  0  0  0  0  0  0  0
   21.8209  -20.9196  -15.9604 C   0  0  1  0  0  0  0  0  0  0  0  0
   20.6111  -20.9867  -15.0437 C   0  0  0  0  0  0  0  0  0  0  0  0
   19.1518  -21.6089  -15.9444 S   0  0  0  0  0  0  0  0  0  0  0  0
   21.4416  -20.1280  -17.1512 C   0  0  0  0  0  0  0  0  0  0  0  0
   21.8028  -18.9397  -17.2500 O   0  0  0  0  0  0  0  0  0  0  0  0
   20.6866  -20.6470  -18.1918 O   0  0  0  0  0  0  0  0  0  0  0  0
  2  1  1  1
  3  2  1  0
  4  2  1  0
  4  5  2  0
  6  7  1  0
  6  4  1  0
  7  8  1  6
  9  8  1  0
 10 11  1  0
 10  9  1  0
 11 12  1  0
 13  7  1  0
 14 13  2  0
 15 13  1  0
 16 15  1  0
 16 19  1  0
 16 17  1  1
 18 17  1  0
 19 21  1  0
 20 19  2  0
M  END
$$$$
