AKC.pdb
     RDKit          3D

 21 20  0  0  1  0  0  0  0  0999 V2000
   27.2670  -24.3870  -18.0424 C   0  0  0  0  0  0  0  0  0  0  0  0
   27.0695  -23.1122  -17.2192 C   0  0  2  0  0  0  0  0  0  0  0  0
   28.0036  -23.1933  -16.1175 N   0  0  0  0  0  0  0  0  0  0  0  0
   25.7025  -23.0901  -16.6913 C   0  0  0  0  0  0  0  0  0  0  0  0
   24.8143  -22.4505  -17.3377 O   0  0  0  0  0  0  0  0  0  0  0  0
   25.3203  -23.7544  -15.4827 N   0  0  0  0  0  0  0  0  0  0  0  0
   23.9618  -23.7031  -15.0629 C   0  0  1  0  0  0  0  0  0  0  0  0
   23.6114  -24.7600  -14.0381 C   0  0  0  0  0  0  0  0  0  0  0  0
   22.2541  -25.3720  -14.3040 C   0  0  0  0  0  0  0  0  0  0  0  0
   22.0151  -26.4160  -13.2390 C   0  0  0  0  0  0  0  0  0  0  0  0
   20.6304  -27.0310  -13.3496 C   0  0  0  0  0  0  0  0  0  0  0  0
   20.4092  -28.0294  -12.3325 N   0  0  0  0  0  0  0  0  0  0  0  0
   23.5695  -22.3978  -14.4855 C   0  0  0  0  0  0  0  0  0  0  0  0
   24.2487  -21.9464  -13.5367 O   0  0  0  0  0  0  0  0  0  0  0  0
   22.4699  -21.6384  -14.9508 N   0  0  0  0  0  0  0  0  0  0  0  0
   22.1123  -20.3674  -14.3318 C   0  0  1  0  0  0  0  0  0  0  0  0
   22.1965  -19.2343  -15.3404 C   0  0  0  0  0  0  0  0  0  0  0  0
   23.9208  -18.6725  -15.5385 S   0  0  0  0  0  0  0  0  0  0  0  0
   20.7180  -20.4332  -13.8421 C   0  0  0  0  0  0  0  0  0  0  0  0
   19.9318  -21.2773  -14.3128 O   0  0  0  0  0  0  0  0  0  0  0  0
   20.2225  -19.5863  -12.8626 O   0  0  0  0  0  0  0  0  0  0  0  0
  2  1  1  6
  3  2  1  0
  4  2  1  0
  4  5  2  0
  6  7  1  0
  6  4  1  0
  7  8  1  1
  9  8  1  0
 10 11  1  0
 10  9  1  0
 11 12  1  0
 13  7  1  0
 14 13  2  0
 15 13  1  0
 16 15  1  0
 16 19  1  0
 16 17  1  6
 18 17  1  0
 19 21  1  0
 20 19  2  0
M  END
$$$$
