AKC.pdb
     RDKit          3D

 21 20  0  0  1  0  0  0  0  0999 V2000
   26.2414  -11.7262  -14.9941 C   0  0  0  0  0  0  0  0  0  0  0  0
   25.4556  -12.2396  -16.2026 C   0  0  2  0  0  0  0  0  0  0  0  0
   26.4121  -12.3736  -17.2797 N   0  0  0  0  0  0  0  0  0  0  0  0
   24.4462  -11.2446  -16.5754 C   0  0  0  0  0  0  0  0  0  0  0  0
   24.7979  -10.2744  -17.3175 O   0  0  0  0  0  0  0  0  0  0  0  0
   23.0836  -11.3136  -16.1434 N   0  0  0  0  0  0  0  0  0  0  0  0
   22.1731  -10.3014  -16.5566 C   0  0  1  0  0  0  0  0  0  0  0  0
   20.8188  -10.8427  -16.9602 C   0  0  0  0  0  0  0  0  0  0  0  0
   19.9180   -9.7551  -17.5019 C   0  0  0  0  0  0  0  0  0  0  0  0
   18.5902  -10.3943  -17.8328 C   0  0  0  0  0  0  0  0  0  0  0  0
   17.6282   -9.4051  -18.4683 C   0  0  0  0  0  0  0  0  0  0  0  0
   16.3380  -10.0010  -18.7143 N   0  0  0  0  0  0  0  0  0  0  0  0
   21.9324   -9.2655  -15.5269 C   0  0  0  0  0  0  0  0  0  0  0  0
   21.7986   -9.6364  -14.3396 O   0  0  0  0  0  0  0  0  0  0  0  0
   21.8464   -7.8832  -15.8169 N   0  0  0  0  0  0  0  0  0  0  0  0
   21.5616   -6.9073  -14.7715 C   0  0  1  0  0  0  0  0  0  0  0  0
   22.7238   -5.9432  -14.6033 C   0  0  0  0  0  0  0  0  0  0  0  0
   22.3407   -4.6834  -13.3408 S   0  0  0  0  0  0  0  0  0  0  0  0
   20.3696   -6.1162  -15.1479 C   0  0  0  0  0  0  0  0  0  0  0  0
   20.1259   -5.8901  -16.3486 O   0  0  0  0  0  0  0  0  0  0  0  0
   19.4841   -5.5977  -14.2155 O   0  0  0  0  0  0  0  0  0  0  0  0
  2  1  1  1
  3  2  1  0
  4  2  1  0
  4  5  2  0
  6  7  1  0
  6  4  1  0
  7  8  1  1
  9  8  1  0
 10 11  1  0
 10  9  1  0
 11 12  1  0
 13  7  1  0
 14 13  2  0
 15 13  1  0
 16 15  1  0
 16 19  1  0
 16 17  1  6
 18 17  1  0
 19 21  1  0
 20 19  2  0
M  END
$$$$
