AKC.pdb
     RDKit          3D

 21 20  0  0  1  0  0  0  0  0999 V2000
   20.6727   -8.2475  -21.8346 C   0  0  0  0  0  0  0  0  0  0  0  0
   21.6577   -8.0785  -20.6758 C   0  0  2  0  0  0  0  0  0  0  0  0
   22.3713   -9.3321  -20.5654 N   0  0  0  0  0  0  0  0  0  0  0  0
   20.9068   -7.8409  -19.4399 C   0  0  0  0  0  0  0  0  0  0  0  0
   20.3578   -6.7066  -19.2739 O   0  0  0  0  0  0  0  0  0  0  0  0
   20.7625   -8.8253  -18.4113 N   0  0  0  0  0  0  0  0  0  0  0  0
   20.1167   -8.4678  -17.1949 C   0  0  1  0  0  0  0  0  0  0  0  0
   19.5440   -9.6540  -16.4499 C   0  0  0  0  0  0  0  0  0  0  0  0
   18.8214   -9.2306  -15.1905 C   0  0  0  0  0  0  0  0  0  0  0  0
   17.5371  -10.0224  -15.1211 C   0  0  0  0  0  0  0  0  0  0  0  0
   16.6971   -9.6345  -13.9163 C   0  0  0  0  0  0  0  0  0  0  0  0
   15.4675  -10.3864  -13.8608 N   0  0  0  0  0  0  0  0  0  0  0  0
   20.9969   -7.7488  -16.2465 C   0  0  0  0  0  0  0  0  0  0  0  0
   22.1492   -8.1980  -16.0574 O   0  0  0  0  0  0  0  0  0  0  0  0
   20.6022   -6.5843  -15.5462 N   0  0  0  0  0  0  0  0  0  0  0  0
   21.5357   -5.8654  -14.6871 C   0  0  1  0  0  0  0  0  0  0  0  0
   21.3663   -4.3638  -14.8451 C   0  0  0  0  0  0  0  0  0  0  0  0
   22.3237   -3.4685  -13.5763 S   0  0  0  0  0  0  0  0  0  0  0  0
   21.2641   -6.2039  -13.2729 C   0  0  0  0  0  0  0  0  0  0  0  0
   20.0891   -6.2867  -12.8669 O   0  0  0  0  0  0  0  0  0  0  0  0
   22.2697   -6.4408  -12.3483 O   0  0  0  0  0  0  0  0  0  0  0  0
  2  1  1  6
  3  2  1  0
  4  2  1  0
  4  5  2  0
  6  7  1  0
  6  4  1  0
  7  8  1  1
  9  8  1  0
 10 11  1  0
 10  9  1  0
 11 12  1  0
 13  7  1  0
 14 13  2  0
 15 13  1  0
 16 15  1  0
 16 19  1  0
 16 17  1  1
 18 17  1  0
 19 21  1  0
 20 19  2  0
M  END
$$$$
