AKC.pdb
     RDKit          3D

 21 20  0  0  1  0  0  0  0  0999 V2000
   20.5839  -12.5345  -18.7403 C   0  0  0  0  0  0  0  0  0  0  0  0
   21.1708  -11.9537  -17.4519 C   0  0  2  0  0  0  0  0  0  0  0  0
   20.8260  -12.8811  -16.3964 N   0  0  0  0  0  0  0  0  0  0  0  0
   20.5410  -10.6586  -17.1803 C   0  0  0  0  0  0  0  0  0  0  0  0
   20.7426   -9.7046  -17.9958 O   0  0  0  0  0  0  0  0  0  0  0  0
   19.7100  -10.4170  -16.0405 N   0  0  0  0  0  0  0  0  0  0  0  0
   19.1364   -9.1274  -15.8613 C   0  0  1  0  0  0  0  0  0  0  0  0
   17.7347   -9.1692  -15.2926 C   0  0  0  0  0  0  0  0  0  0  0  0
   16.7170   -9.5725  -16.3362 C   0  0  0  0  0  0  0  0  0  0  0  0
   15.3596   -9.5469  -15.6742 C   0  0  0  0  0  0  0  0  0  0  0  0
   14.2487   -9.9058  -16.6463 C   0  0  0  0  0  0  0  0  0  0  0  0
   12.9526   -9.8523  -16.0159 N   0  0  0  0  0  0  0  0  0  0  0  0
   19.9316   -8.2431  -14.9798 C   0  0  0  0  0  0  0  0  0  0  0  0
   20.3373   -8.7082  -13.8916 O   0  0  0  0  0  0  0  0  0  0  0  0
   20.2543   -6.9043  -15.3048 N   0  0  0  0  0  0  0  0  0  0  0  0
   21.0741   -6.0871  -14.4179 C   0  0  1  0  0  0  0  0  0  0  0  0
   22.4020   -5.7469  -15.0730 C   0  0  0  0  0  0  0  0  0  0  0  0
   23.3366   -4.5539  -14.0574 S   0  0  0  0  0  0  0  0  0  0  0  0
   20.3733   -4.8162  -14.1316 C   0  0  0  0  0  0  0  0  0  0  0  0
   19.6162   -4.3163  -14.9856 O   0  0  0  0  0  0  0  0  0  0  0  0
   20.5145   -4.1309  -12.9346 O   0  0  0  0  0  0  0  0  0  0  0  0
  2  1  1  6
  3  2  1  0
  4  2  1  0
  4  5  2  0
  6  7  1  0
  6  4  1  0
  7  8  1  1
  9  8  1  0
 10 11  1  0
 10  9  1  0
 11 12  1  0
 13  7  1  0
 14 13  2  0
 15 13  1  0
 16 15  1  0
 16 19  1  0
 16 17  1  6
 18 17  1  0
 19 21  1  0
 20 19  2  0
M  END
$$$$
