AKC.pdb
     RDKit          3D

 21 20  0  0  1  0  0  0  0  0999 V2000
   23.5466  -10.9556  -14.5671 C   0  0  0  0  0  0  0  0  0  0  0  0
   22.5241  -11.2247  -15.6733 C   0  0  2  0  0  0  0  0  0  0  0  0
   23.2819  -11.3769  -16.8962 N   0  0  0  0  0  0  0  0  0  0  0  0
   21.6366  -10.0651  -15.7975 C   0  0  0  0  0  0  0  0  0  0  0  0
   22.0699   -9.0331  -16.3999 O   0  0  0  0  0  0  0  0  0  0  0  0
   20.3054  -10.0396  -15.2727 N   0  0  0  0  0  0  0  0  0  0  0  0
   19.5042   -8.8807  -15.4702 C   0  0  1  0  0  0  0  0  0  0  0  0
   18.0305   -9.1228  -15.2262 C   0  0  0  0  0  0  0  0  0  0  0  0
   17.4545  -10.1179  -16.2088 C   0  0  0  0  0  0  0  0  0  0  0  0
   16.0058  -10.3295  -15.8376 C   0  0  0  0  0  0  0  0  0  0  0  0
   15.3076  -11.2766  -16.7984 C   0  0  0  0  0  0  0  0  0  0  0  0
   13.9203  -11.4611  -16.4493 N   0  0  0  0  0  0  0  0  0  0  0  0
   19.8985   -7.7361  -14.6183 C   0  0  0  0  0  0  0  0  0  0  0  0
   20.1318   -7.9559  -13.4090 O   0  0  0  0  0  0  0  0  0  0  0  0
   20.0242   -6.4119  -15.1010 N   0  0  0  0  0  0  0  0  0  0  0  0
   20.4055   -5.3173  -14.2162 C   0  0  1  0  0  0  0  0  0  0  0  0
   21.9152   -5.2540  -14.0572 C   0  0  0  0  0  0  0  0  0  0  0  0
   22.4033   -3.7751  -13.1071 S   0  0  0  0  0  0  0  0  0  0  0  0
   19.9589   -4.0336  -14.8003 C   0  0  0  0  0  0  0  0  0  0  0  0
   19.9836   -2.9946  -14.1131 O   0  0  0  0  0  0  0  0  0  0  0  0
   19.5018   -3.9174  -16.1041 O   0  0  0  0  0  0  0  0  0  0  0  0
  2  1  1  1
  3  2  1  0
  4  2  1  0
  4  5  2  0
  6  7  1  0
  6  4  1  0
  7  8  1  1
  9  8  1  0
 10 11  1  0
 10  9  1  0
 11 12  1  0
 13  7  1  0
 14 13  2  0
 15 13  1  0
 16 15  1  0
 16 19  1  0
 16 17  1  6
 18 17  1  0
 19 21  1  0
 20 19  2  0
M  END
$$$$
