AKC.pdb
     RDKit          3D

 21 20  0  0  1  0  0  0  0  0999 V2000
   18.6394  -14.5981  -15.9150 C   0  0  0  0  0  0  0  0  0  0  0  0
   19.6791  -14.7012  -17.0331 C   0  0  2  0  0  0  0  0  0  0  0  0
   20.5798  -15.7668  -16.6507 N   0  0  0  0  0  0  0  0  0  0  0  0
   20.4263  -13.4428  -17.1096 C   0  0  0  0  0  0  0  0  0  0  0  0
   21.4097  -13.2739  -16.3220 O   0  0  0  0  0  0  0  0  0  0  0  0
   20.1013  -12.3952  -18.0288 N   0  0  0  0  0  0  0  0  0  0  0  0
   20.9487  -11.2551  -18.1087 C   0  0  1  0  0  0  0  0  0  0  0  0
   20.8249  -10.5077  -19.4187 C   0  0  0  0  0  0  0  0  0  0  0  0
   21.4042  -11.2962  -20.5721 C   0  0  0  0  0  0  0  0  0  0  0  0
   21.2296  -10.4625  -21.8194 C   0  0  0  0  0  0  0  0  0  0  0  0
   21.7197  -11.1898  -23.0598 C   0  0  0  0  0  0  0  0  0  0  0  0
   21.6233  -10.3602  -24.2357 N   0  0  0  0  0  0  0  0  0  0  0  0
   20.7187  -10.2696  -17.0283 C   0  0  0  0  0  0  0  0  0  0  0  0
   19.5462  -10.1011  -16.6259 O   0  0  0  0  0  0  0  0  0  0  0  0
   21.7538   -9.5123  -16.4307 N   0  0  0  0  0  0  0  0  0  0  0  0
   21.4843   -8.6078  -15.3191 C   0  0  1  0  0  0  0  0  0  0  0  0
   22.5944   -8.6801  -14.2843 C   0  0  0  0  0  0  0  0  0  0  0  0
   22.5327  -10.2635  -13.3803 S   0  0  0  0  0  0  0  0  0  0  0  0
   21.4235   -7.2170  -15.8195 C   0  0  0  0  0  0  0  0  0  0  0  0
   21.7107   -6.9690  -17.0062 O   0  0  0  0  0  0  0  0  0  0  0  0
   21.0553   -6.1445  -15.0217 O   0  0  0  0  0  0  0  0  0  0  0  0
  2  1  1  1
  3  2  1  0
  4  2  1  0
  4  5  2  0
  6  7  1  0
  6  4  1  0
  7  8  1  6
  9  8  1  0
 10 11  1  0
 10  9  1  0
 11 12  1  0
 13  7  1  0
 14 13  2  0
 15 13  1  0
 16 15  1  0
 16 19  1  0
 16 17  1  1
 18 17  1  0
 19 21  1  0
 20 19  2  0
M  END
$$$$
