AKC.pdb
     RDKit          3D

 21 20  0  0  1  0  0  0  0  0999 V2000
   29.2167  -17.8959  -16.9694 C   0  0  0  0  0  0  0  0  0  0  0  0
   27.8020  -18.1712  -17.4837 C   0  0  2  0  0  0  0  0  0  0  0  0
   27.4433  -17.0374  -18.3076 N   0  0  0  0  0  0  0  0  0  0  0  0
   26.8845  -18.2478  -16.3434 C   0  0  0  0  0  0  0  0  0  0  0  0
   26.7394  -17.2177  -15.6130 O   0  0  0  0  0  0  0  0  0  0  0  0
   26.1443  -19.4273  -16.0134 N   0  0  0  0  0  0  0  0  0  0  0  0
   25.2561  -19.4005  -14.9023 C   0  0  1  0  0  0  0  0  0  0  0  0
   23.8534  -19.8525  -15.2459 C   0  0  0  0  0  0  0  0  0  0  0  0
   22.9351  -19.7954  -14.0454 C   0  0  0  0  0  0  0  0  0  0  0  0
   21.6112  -20.3903  -14.4633 C   0  0  0  0  0  0  0  0  0  0  0  0
   20.5663  -20.2731  -13.3668 C   0  0  0  0  0  0  0  0  0  0  0  0
   19.3410  -20.9439  -13.7257 N   0  0  0  0  0  0  0  0  0  0  0  0
   25.7081  -20.2305  -13.7629 C   0  0  0  0  0  0  0  0  0  0  0  0
   25.8896  -21.4523  -13.9609 O   0  0  0  0  0  0  0  0  0  0  0  0
   25.9440  -19.7134  -12.4670 N   0  0  0  0  0  0  0  0  0  0  0  0
   26.1408  -20.5975  -11.3242 C   0  0  1  0  0  0  0  0  0  0  0  0
   26.4649  -19.7975  -10.0738 C   0  0  0  0  0  0  0  0  0  0  0  0
   26.5453  -20.8869   -8.6127 S   0  0  0  0  0  0  0  0  0  0  0  0
   24.8957  -21.3535  -11.0663 C   0  0  0  0  0  0  0  0  0  0  0  0
   23.7978  -20.7645  -11.0678 O   0  0  0  0  0  0  0  0  0  0  0  0
   24.8802  -22.7171  -10.8164 O   0  0  0  0  0  0  0  0  0  0  0  0
  2  1  1  1
  3  2  1  0
  4  2  1  0
  4  5  2  0
  6  7  1  0
  6  4  1  0
  7  8  1  6
  9  8  1  0
 10 11  1  0
 10  9  1  0
 11 12  1  0
 13  7  1  0
 14 13  2  0
 15 13  1  0
 16 15  1  0
 16 19  1  0
 16 17  1  1
 18 17  1  0
 19 21  1  0
 20 19  2  0
M  END
$$$$
