AKC.pdb
     RDKit          3D

 21 20  0  0  1  0  0  0  0  0999 V2000
   24.2283  -10.6058  -20.6563 C   0  0  0  0  0  0  0  0  0  0  0  0
   23.9613  -10.8435  -19.1683 C   0  0  2  0  0  0  0  0  0  0  0  0
   23.2540  -12.1024  -19.0803 N   0  0  0  0  0  0  0  0  0  0  0  0
   23.1020   -9.7712  -18.6588 C   0  0  0  0  0  0  0  0  0  0  0  0
   22.9521   -8.7271  -19.3682 O   0  0  0  0  0  0  0  0  0  0  0  0
   22.4239   -9.8439  -17.4007 N   0  0  0  0  0  0  0  0  0  0  0  0
   21.5185   -8.8074  -17.0400 C   0  0  1  0  0  0  0  0  0  0  0  0
   20.2035   -9.3230  -16.4970 C   0  0  0  0  0  0  0  0  0  0  0  0
   19.1964   -8.2096  -16.3133 C   0  0  0  0  0  0  0  0  0  0  0  0
   17.9129   -8.8399  -15.8270 C   0  0  0  0  0  0  0  0  0  0  0  0
   16.7801   -7.8305  -15.7499 C   0  0  0  0  0  0  0  0  0  0  0  0
   15.5887   -8.4106  -15.1804 N   0  0  0  0  0  0  0  0  0  0  0  0
   22.0624   -7.8708  -16.0309 C   0  0  0  0  0  0  0  0  0  0  0  0
   22.4859   -8.3471  -14.9544 O   0  0  0  0  0  0  0  0  0  0  0  0
   22.1271   -6.4702  -16.2221 N   0  0  0  0  0  0  0  0  0  0  0  0
   22.7065   -5.5947  -15.2102 C   0  0  1  0  0  0  0  0  0  0  0  0
   23.7303   -4.6586  -15.8299 C   0  0  0  0  0  0  0  0  0  0  0  0
   25.1761   -5.5920  -16.4353 S   0  0  0  0  0  0  0  0  0  0  0  0
   21.6404   -4.7636  -14.6093 C   0  0  0  0  0  0  0  0  0  0  0  0
   21.8954   -4.0351  -13.6312 O   0  0  0  0  0  0  0  0  0  0  0  0
   20.3383   -4.7485  -15.0852 O   0  0  0  0  0  0  0  0  0  0  0  0
  2  1  1  6
  3  2  1  0
  4  2  1  0
  4  5  2  0
  6  7  1  0
  6  4  1  0
  7  8  1  1
  9  8  1  0
 10 11  1  0
 10  9  1  0
 11 12  1  0
 13  7  1  0
 14 13  2  0
 15 13  1  0
 16 15  1  0
 16 19  1  0
 16 17  1  6
 18 17  1  0
 19 21  1  0
 20 19  2  0
M  END
$$$$
