FYR.pdb
     RDKit          3D

 35 36  0  0  1  0  0  0  0  0999 V2000
    7.8808  -15.8354   21.2249 N   0  0  0  0  0  0  0  0  0  0  0  0
    9.3487  -15.8264   21.1270 C   0  0  1  0  0  0  0  0  0  0  0  0
    9.8170  -14.5426   20.4753 C   0  0  0  0  0  0  0  0  0  0  0  0
    8.6785  -13.7983   19.9097 C   0  0  0  0  0  0  0  0  0  0  0  0
    8.8246  -12.6493   19.1624 C   0  0  0  0  0  0  0  0  0  0  0  0
    7.7156  -12.0035   18.6634 C   0  0  0  0  0  0  0  0  0  0  0  0
    6.4273  -12.4792   18.8913 C   0  0  0  0  0  0  0  0  0  0  0  0
    6.3168  -13.6267   19.6401 C   0  0  0  0  0  0  0  0  0  0  0  0
    7.3970  -14.3049   20.1589 C   0  0  0  0  0  0  0  0  0  0  0  0
    9.8814  -15.9421   22.4960 C   0  0  0  0  0  0  0  0  0  0  0  0
   11.1055  -16.2571   22.7028 O   0  0  0  0  0  0  0  0  0  0  0  0
   11.2866  -15.4059   31.2279 O   0  0  0  0  0  0  0  0  0  0  0  0
   10.7043  -15.3178   29.9624 C   0  0  0  0  0  0  0  0  0  0  0  0
    9.9705  -16.3741   29.4591 C   0  0  0  0  0  0  0  0  0  0  0  0
    9.3784  -16.3065   28.1937 C   0  0  0  0  0  0  0  0  0  0  0  0
    9.5047  -15.1849   27.4024 C   0  0  0  0  0  0  0  0  0  0  0  0
    8.8790  -15.1010   26.0537 C   0  0  0  0  0  0  0  0  0  0  0  0
    9.6841  -15.8027   25.0038 C   0  0  2  0  0  0  0  0  0  0  0  0
    9.1347  -15.7276   23.6829 N   0  0  0  0  0  0  0  0  0  0  0  0
    9.9370  -17.1917   25.4608 C   0  0  0  0  0  0  0  0  0  0  0  0
    8.9736  -17.9371   25.7050 O   0  0  0  0  0  0  0  0  0  0  0  0
   10.2439  -14.1341   27.9222 C   0  0  0  0  0  0  0  0  0  0  0  0
   10.8284  -14.1991   29.1700 C   0  0  0  0  0  0  0  0  0  0  0  0
   14.9066  -20.3426   21.7240 N   0  0  0  0  0  0  0  0  0  0  0  0
   14.0613  -19.2751   21.3339 C   0  0  0  0  0  0  0  0  0  0  0  0
   14.5025  -18.4272   20.4724 N   0  0  0  0  0  0  0  0  0  0  0  0
   12.7656  -19.1571   21.8800 N   0  0  0  0  0  0  0  0  0  0  0  0
   12.1145  -20.2761   22.4894 C   0  0  0  0  0  0  0  0  0  0  0  0
   11.3416  -19.9628   23.7303 C   0  0  0  0  0  0  0  0  0  0  0  0
   12.2549  -19.6488   24.8751 C   0  0  0  0  0  0  0  0  0  0  0  0
   11.5861  -18.9724   26.0490 C   0  0  2  0  0  0  0  0  0  0  0  0
   11.2787  -17.6140   25.5992 N   0  0  0  0  0  0  0  0  0  0  0  0
   12.4003  -18.9062   27.2575 C   0  0  0  0  0  0  0  0  0  0  0  0
   12.8003  -17.6953   27.7765 O   0  0  0  0  0  0  0  0  0  0  0  0
   12.7523  -19.9559   27.8469 O   0  0  0  0  0  0  0  0  0  0  0  0
  2  1  1  1
  2  3  1  0
  3  4  1  0
  4  9  1  0
  5  4  2  0
  5  6  1  0
  6  7  2  0
  7  8  1  0
  9  8  2  0
 10  2  1  0
 10 19  1  0
 11 10  2  0
 12 13  1  0
 13 14  2  0
 14 15  1  0
 16 17  1  0
 16 15  2  0
 18 17  1  1
 18 19  1  0
 18 20  1  0
 20 32  1  0
 21 20  2  0
 22 16  1  0
 23 22  2  0
 23 13  1  0
 25 24  1  0
 25 26  2  0
 27 25  1  0
 28 27  1  0
 29 28  1  0
 30 29  1  0
 31 30  1  6
 31 33  1  0
 32 31  1  0
 33 34  1  0
 35 33  2  0
M  END
$$$$
