FYR.pdb
     RDKit          3D

 35 36  0  0  1  0  0  0  0  0999 V2000
    5.6962  -16.5868   25.2274 N   0  0  0  0  0  0  0  0  0  0  0  0
    6.7798  -15.8435   24.5659 C   0  0  1  0  0  0  0  0  0  0  0  0
    7.7513  -15.3139   25.5993 C   0  0  0  0  0  0  0  0  0  0  0  0
    7.2625  -14.0497   26.1763 C   0  0  0  0  0  0  0  0  0  0  0  0
    5.9442  -13.6520   26.1146 C   0  0  0  0  0  0  0  0  0  0  0  0
    5.5558  -12.4561   26.6760 C   0  0  0  0  0  0  0  0  0  0  0  0
    6.4650  -11.6186   27.3161 C   0  0  0  0  0  0  0  0  0  0  0  0
    7.7713  -12.0447   27.3600 C   0  0  0  0  0  0  0  0  0  0  0  0
    8.2044  -13.2316   26.8124 C   0  0  0  0  0  0  0  0  0  0  0  0
    7.4535  -16.7753   23.6444 C   0  0  0  0  0  0  0  0  0  0  0  0
    6.7784  -17.5379   22.8677 O   0  0  0  0  0  0  0  0  0  0  0  0
    7.6461  -13.1267   17.3363 O   0  0  0  0  0  0  0  0  0  0  0  0
    8.0330  -13.5001   18.6245 C   0  0  0  0  0  0  0  0  0  0  0  0
    9.1847  -14.2373   18.8187 C   0  0  0  0  0  0  0  0  0  0  0  0
    9.5908  -14.6215   20.1009 C   0  0  0  0  0  0  0  0  0  0  0  0
    8.8580  -14.2794   21.2173 C   0  0  0  0  0  0  0  0  0  0  0  0
    9.2800  -14.6825   22.5872 C   0  0  0  0  0  0  0  0  0  0  0  0
    9.6803  -16.1237   22.6628 C   0  0  2  0  0  0  0  0  0  0  0  0
    8.8584  -16.9259   23.5190 N   0  0  0  0  0  0  0  0  0  0  0  0
   11.1244  -16.1896   22.9982 C   0  0  0  0  0  0  0  0  0  0  0  0
   11.6539  -15.2396   23.5986 O   0  0  0  0  0  0  0  0  0  0  0  0
    7.7055  -13.5396   21.0049 C   0  0  0  0  0  0  0  0  0  0  0  0
    7.3037  -13.1598   19.7411 C   0  0  0  0  0  0  0  0  0  0  0  0
   17.1093  -14.1821   18.4010 N   0  0  0  0  0  0  0  0  0  0  0  0
   15.8279  -14.1196   17.8009 C   0  0  0  0  0  0  0  0  0  0  0  0
   15.7416  -14.2559   16.5242 N   0  0  0  0  0  0  0  0  0  0  0  0
   14.6791  -13.9174   18.5949 N   0  0  0  0  0  0  0  0  0  0  0  0
   14.4968  -14.6232   19.8263 C   0  0  0  0  0  0  0  0  0  0  0  0
   13.7208  -15.8966   19.7196 C   0  0  0  0  0  0  0  0  0  0  0  0
   12.7602  -16.0451   20.8593 C   0  0  0  0  0  0  0  0  0  0  0  0
   13.0222  -17.2333   21.7549 C   0  0  2  0  0  0  0  0  0  0  0  0
   11.8451  -17.3444   22.6175 N   0  0  0  0  0  0  0  0  0  0  0  0
   14.2169  -17.1183   22.5839 C   0  0  0  0  0  0  0  0  0  0  0  0
   15.3520  -17.8418   22.2944 O   0  0  0  0  0  0  0  0  0  0  0  0
   14.2307  -16.3556   23.5795 O   0  0  0  0  0  0  0  0  0  0  0  0
  2  1  1  1
  2  3  1  0
  3  4  1  0
  4  9  1  0
  5  4  2  0
  5  6  1  0
  6  7  2  0
  7  8  1  0
  9  8  2  0
 10  2  1  0
 10 19  1  0
 11 10  2  0
 12 13  1  0
 13 14  2  0
 14 15  1  0
 16 17  1  0
 16 15  2  0
 18 17  1  1
 18 19  1  0
 18 20  1  0
 20 32  1  0
 21 20  2  0
 22 16  1  0
 23 22  2  0
 23 13  1  0
 25 24  1  0
 25 26  2  0
 27 25  1  0
 28 27  1  0
 29 28  1  0
 30 29  1  0
 31 30  1  6
 31 33  1  0
 32 31  1  0
 33 34  1  0
 35 33  2  0
M  END
$$$$
