FYR.pdb
     RDKit          3D

 35 36  0  0  1  0  0  0  0  0999 V2000
    6.1611  -17.7176   21.5594 N   0  0  0  0  0  0  0  0  0  0  0  0
    6.9279  -16.5490   21.1000 C   0  0  1  0  0  0  0  0  0  0  0  0
    5.9843  -15.4379   20.6911 C   0  0  0  0  0  0  0  0  0  0  0  0
    6.7356  -14.2577   20.2300 C   0  0  0  0  0  0  0  0  0  0  0  0
    7.2857  -14.1583   18.9701 C   0  0  0  0  0  0  0  0  0  0  0  0
    7.9764  -13.0245   18.6047 C   0  0  0  0  0  0  0  0  0  0  0  0
    8.1417  -11.9544   19.4795 C   0  0  0  0  0  0  0  0  0  0  0  0
    7.5809  -12.0856   20.7278 C   0  0  0  0  0  0  0  0  0  0  0  0
    6.8828  -13.2001   21.1361 C   0  0  0  0  0  0  0  0  0  0  0  0
    7.7873  -16.1202   22.2174 C   0  0  0  0  0  0  0  0  0  0  0  0
    8.9933  -15.7402   22.0135 O   0  0  0  0  0  0  0  0  0  0  0  0
   11.2339  -14.3889   30.2154 O   0  0  0  0  0  0  0  0  0  0  0  0
   10.3437  -14.6021   29.1616 C   0  0  0  0  0  0  0  0  0  0  0  0
    9.8070  -15.8565   28.9472 C   0  0  0  0  0  0  0  0  0  0  0  0
    8.9130  -16.0917   27.8975 C   0  0  0  0  0  0  0  0  0  0  0  0
    8.5345  -15.0821   27.0387 C   0  0  0  0  0  0  0  0  0  0  0  0
    7.5837  -15.3202   25.9177 C   0  0  0  0  0  0  0  0  0  0  0  0
    8.2752  -15.7529   24.6617 C   0  0  2  0  0  0  0  0  0  0  0  0
    7.3950  -16.0810   23.5801 N   0  0  0  0  0  0  0  0  0  0  0  0
    9.2238  -16.8418   25.0030 C   0  0  0  0  0  0  0  0  0  0  0  0
    8.7837  -17.9164   25.4444 O   0  0  0  0  0  0  0  0  0  0  0  0
    9.0820  -13.8297   27.2677 C   0  0  0  0  0  0  0  0  0  0  0  0
    9.9637  -13.5960   28.3025 C   0  0  0  0  0  0  0  0  0  0  0  0
   14.5591  -18.1090   19.3449 N   0  0  0  0  0  0  0  0  0  0  0  0
   14.8892  -19.1947   20.1925 C   0  0  0  0  0  0  0  0  0  0  0  0
   14.9504  -20.3743   19.6820 N   0  0  0  0  0  0  0  0  0  0  0  0
   15.1481  -18.9753   21.5621 N   0  0  0  0  0  0  0  0  0  0  0  0
   14.5116  -17.9100   22.2744 C   0  0  0  0  0  0  0  0  0  0  0  0
   13.6174  -18.3392   23.3932 C   0  0  0  0  0  0  0  0  0  0  0  0
   12.5145  -17.3509   23.6175 C   0  0  0  0  0  0  0  0  0  0  0  0
   11.5388  -17.7304   24.7069 C   0  0  2  0  0  0  0  0  0  0  0  0
   10.6042  -16.6087   24.8080 N   0  0  0  0  0  0  0  0  0  0  0  0
   12.1465  -17.9693   26.0113 C   0  0  0  0  0  0  0  0  0  0  0  0
   12.6162  -16.9249   26.7757 O   0  0  0  0  0  0  0  0  0  0  0  0
   12.2527  -19.1353   26.4609 O   0  0  0  0  0  0  0  0  0  0  0  0
  2  1  1  1
  2  3  1  0
  3  4  1  0
  4  9  1  0
  5  4  2  0
  5  6  1  0
  6  7  2  0
  7  8  1  0
  9  8  2  0
 10  2  1  0
 10 19  1  0
 11 10  2  0
 12 13  1  0
 13 14  2  0
 14 15  1  0
 16 17  1  0
 16 15  2  0
 18 17  1  1
 18 19  1  0
 18 20  1  0
 20 32  1  0
 21 20  2  0
 22 16  1  0
 23 22  2  0
 23 13  1  0
 25 24  1  0
 25 26  2  0
 27 25  1  0
 28 27  1  0
 29 28  1  0
 30 29  1  0
 31 30  1  6
 31 33  1  0
 32 31  1  0
 33 34  1  0
 35 33  2  0
M  END
$$$$
