FYR.pdb
     RDKit          3D

 35 36  0  0  1  0  0  0  0  0999 V2000
    8.0121  -16.9211   26.5540 N   0  0  0  0  0  0  0  0  0  0  0  0
    6.8351  -16.9368   25.6715 C   0  0  1  0  0  0  0  0  0  0  0  0
    5.8066  -15.9395   26.1612 C   0  0  0  0  0  0  0  0  0  0  0  0
    6.4541  -14.6845   26.5803 C   0  0  0  0  0  0  0  0  0  0  0  0
    7.7712  -14.6119   26.9802 C   0  0  0  0  0  0  0  0  0  0  0  0
    8.3130  -13.4041   27.3596 C   0  0  0  0  0  0  0  0  0  0  0  0
    7.5632  -12.2313   27.3532 C   0  0  0  0  0  0  0  0  0  0  0  0
    6.2535  -12.3385   26.9492 C   0  0  0  0  0  0  0  0  0  0  0  0
    5.6702  -13.5242   26.5621 C   0  0  0  0  0  0  0  0  0  0  0  0
    7.2971  -16.5883   24.3163 C   0  0  0  0  0  0  0  0  0  0  0  0
    7.6326  -17.4983   23.4798 O   0  0  0  0  0  0  0  0  0  0  0  0
    8.5790  -12.8053   16.4584 O   0  0  0  0  0  0  0  0  0  0  0  0
    8.3038  -13.0038   17.8124 C   0  0  0  0  0  0  0  0  0  0  0  0
    9.0364  -12.3388   18.7761 C   0  0  0  0  0  0  0  0  0  0  0  0
    8.7769  -12.5229   20.1381 C   0  0  0  0  0  0  0  0  0  0  0  0
    7.7819  -13.3737   20.5695 C   0  0  0  0  0  0  0  0  0  0  0  0
    7.4963  -13.5780   22.0165 C   0  0  0  0  0  0  0  0  0  0  0  0
    7.8601  -14.9535   22.4839 C   0  0  2  0  0  0  0  0  0  0  0  0
    7.4164  -15.2690   23.8090 N   0  0  0  0  0  0  0  0  0  0  0  0
    9.3191  -15.1417   22.2886 C   0  0  0  0  0  0  0  0  0  0  0  0
   10.1056  -14.7611   23.1717 O   0  0  0  0  0  0  0  0  0  0  0  0
    7.0562  -14.0331   19.5899 C   0  0  0  0  0  0  0  0  0  0  0  0
    7.3107  -13.8525   18.2462 C   0  0  0  0  0  0  0  0  0  0  0  0
   11.9049  -21.3896   23.6676 N   0  0  0  0  0  0  0  0  0  0  0  0
   12.2615  -20.2957   24.4938 C   0  0  0  0  0  0  0  0  0  0  0  0
   12.2978  -20.4757   25.7674 N   0  0  0  0  0  0  0  0  0  0  0  0
   12.5730  -19.0438   23.9221 N   0  0  0  0  0  0  0  0  0  0  0  0
   11.6899  -18.4168   22.9869 C   0  0  0  0  0  0  0  0  0  0  0  0
   12.2524  -18.2202   21.6157 C   0  0  0  0  0  0  0  0  0  0  0  0
   11.2652  -17.5441   20.7148 C   0  0  0  0  0  0  0  0  0  0  0  0
   11.1773  -16.0456   20.8862 C   0  0  2  0  0  0  0  0  0  0  0  0
    9.7579  -15.7546   21.0929 N   0  0  0  0  0  0  0  0  0  0  0  0
   11.6659  -15.2736   19.7490 C   0  0  0  0  0  0  0  0  0  0  0  0
   12.9887  -14.9018   19.6615 O   0  0  0  0  0  0  0  0  0  0  0  0
   10.8860  -14.9332   18.8277 O   0  0  0  0  0  0  0  0  0  0  0  0
  2  1  1  1
  2  3  1  0
  3  4  1  0
  4  9  1  0
  5  4  2  0
  5  6  1  0
  6  7  2  0
  7  8  1  0
  9  8  2  0
 10  2  1  0
 10 19  1  0
 11 10  2  0
 12 13  1  0
 13 14  2  0
 14 15  1  0
 16 17  1  0
 16 15  2  0
 18 17  1  1
 18 19  1  0
 18 20  1  0
 20 32  1  0
 21 20  2  0
 22 16  1  0
 23 22  2  0
 23 13  1  0
 25 24  1  0
 25 26  2  0
 27 25  1  0
 28 27  1  0
 29 28  1  0
 30 29  1  0
 31 30  1  6
 31 33  1  0
 32 31  1  0
 33 34  1  0
 35 33  2  0
M  END
$$$$
