FYR.pdb
     RDKit          3D

 35 36  0  0  1  0  0  0  0  0999 V2000
    7.5459  -16.6453   26.4739 N   0  0  0  0  0  0  0  0  0  0  0  0
    6.6748  -16.6675   25.2885 C   0  0  1  0  0  0  0  0  0  0  0  0
    5.6190  -15.5882   25.4009 C   0  0  0  0  0  0  0  0  0  0  0  0
    6.1794  -14.3707   26.0122 C   0  0  0  0  0  0  0  0  0  0  0  0
    6.6098  -14.3127   27.3204 C   0  0  0  0  0  0  0  0  0  0  0  0
    7.1240  -13.1404   27.8277 C   0  0  0  0  0  0  0  0  0  0  0  0
    7.2264  -11.9896   27.0512 C   0  0  0  0  0  0  0  0  0  0  0  0
    6.7884  -12.0814   25.7513 C   0  0  0  0  0  0  0  0  0  0  0  0
    6.2674  -13.2317   25.2023 C   0  0  0  0  0  0  0  0  0  0  0  0
    7.5301  -16.4413   24.1102 C   0  0  0  0  0  0  0  0  0  0  0  0
    7.0931  -16.6608   22.9264 O   0  0  0  0  0  0  0  0  0  0  0  0
    6.8474  -13.3011   17.8096 O   0  0  0  0  0  0  0  0  0  0  0  0
    7.5823  -13.5615   18.9675 C   0  0  0  0  0  0  0  0  0  0  0  0
    8.3121  -14.7286   19.0805 C   0  0  0  0  0  0  0  0  0  0  0  0
    9.0556  -15.0089   20.2316 C   0  0  0  0  0  0  0  0  0  0  0  0
    9.0879  -14.1324   21.2950 C   0  0  0  0  0  0  0  0  0  0  0  0
    9.8756  -14.4196   22.5256 C   0  0  0  0  0  0  0  0  0  0  0  0
    9.7067  -15.8308   22.9978 C   0  0  2  0  0  0  0  0  0  0  0  0
    8.8698  -15.9766   24.1513 N   0  0  0  0  0  0  0  0  0  0  0  0
   11.0535  -16.4310   23.1649 C   0  0  0  0  0  0  0  0  0  0  0  0
   11.6194  -16.3589   24.2684 O   0  0  0  0  0  0  0  0  0  0  0  0
    8.3504  -12.9662   21.1654 C   0  0  0  0  0  0  0  0  0  0  0  0
    7.6167  -12.6881   20.0308 C   0  0  0  0  0  0  0  0  0  0  0  0
   10.4354  -21.5161   18.8210 N   0  0  0  0  0  0  0  0  0  0  0  0
   11.3903  -22.4551   19.2820 C   0  0  0  0  0  0  0  0  0  0  0  0
   11.0538  -23.6959   19.3349 N   0  0  0  0  0  0  0  0  0  0  0  0
   12.6794  -22.0291   19.6664 N   0  0  0  0  0  0  0  0  0  0  0  0
   13.0272  -20.6411   19.6790 C   0  0  0  0  0  0  0  0  0  0  0  0
   12.8467  -19.9529   20.9939 C   0  0  0  0  0  0  0  0  0  0  0  0
   13.1418  -18.4884   20.8863 C   0  0  0  0  0  0  0  0  0  0  0  0
   12.9522  -17.7104   22.1675 C   0  0  2  0  0  0  0  0  0  0  0  0
   11.6423  -17.0684   22.0491 N   0  0  0  0  0  0  0  0  0  0  0  0
   13.9664  -16.6920   22.4163 C   0  0  0  0  0  0  0  0  0  0  0  0
   14.9610  -16.8955   23.3463 O   0  0  0  0  0  0  0  0  0  0  0  0
   13.9494  -15.6083   21.7852 O   0  0  0  0  0  0  0  0  0  0  0  0
  2  1  1  1
  2  3  1  0
  3  4  1  0
  4  9  1  0
  5  4  2  0
  5  6  1  0
  6  7  2  0
  7  8  1  0
  9  8  2  0
 10  2  1  0
 10 19  1  0
 11 10  2  0
 12 13  1  0
 13 14  2  0
 14 15  1  0
 16 17  1  0
 16 15  2  0
 18 17  1  1
 18 19  1  0
 18 20  1  0
 20 32  1  0
 21 20  2  0
 22 16  1  0
 23 22  2  0
 23 13  1  0
 25 24  1  0
 25 26  2  0
 27 25  1  0
 28 27  1  0
 29 28  1  0
 30 29  1  0
 31 30  1  6
 31 33  1  0
 32 31  1  0
 33 34  1  0
 35 33  2  0
M  END
$$$$
