FYR.pdb
     RDKit          3D

 35 36  0  0  1  0  0  0  0  0999 V2000
    7.2784  -18.0561   26.0766 N   0  0  0  0  0  0  0  0  0  0  0  0
    7.0923  -16.6307   25.7641 C   0  0  1  0  0  0  0  0  0  0  0  0
    7.9420  -15.7825   26.6865 C   0  0  0  0  0  0  0  0  0  0  0  0
    7.3051  -14.4767   26.9300 C   0  0  0  0  0  0  0  0  0  0  0  0
    7.5730  -13.7013   28.0377 C   0  0  0  0  0  0  0  0  0  0  0  0
    6.9408  -12.4892   28.2024 C   0  0  0  0  0  0  0  0  0  0  0  0
    6.0233  -12.0098   27.2718 C   0  0  0  0  0  0  0  0  0  0  0  0
    5.7789  -12.8073   26.1790 C   0  0  0  0  0  0  0  0  0  0  0  0
    6.3871  -14.0255   25.9736 C   0  0  0  0  0  0  0  0  0  0  0  0
    7.4894  -16.4332   24.3589 C   0  0  0  0  0  0  0  0  0  0  0  0
    8.2103  -17.2988   23.7495 O   0  0  0  0  0  0  0  0  0  0  0  0
    8.9766  -13.1130   16.2676 O   0  0  0  0  0  0  0  0  0  0  0  0
    8.5570  -13.2688   17.5897 C   0  0  0  0  0  0  0  0  0  0  0  0
    9.1372  -12.5220   18.5964 C   0  0  0  0  0  0  0  0  0  0  0  0
    8.7314  -12.6623   19.9276 C   0  0  0  0  0  0  0  0  0  0  0  0
    7.7389  -13.5497   20.2846 C   0  0  0  0  0  0  0  0  0  0  0  0
    7.2985  -13.7079   21.6982 C   0  0  0  0  0  0  0  0  0  0  0  0
    7.7194  -15.0194   22.2863 C   0  0  2  0  0  0  0  0  0  0  0  0
    7.1347  -15.3158   23.5601 N   0  0  0  0  0  0  0  0  0  0  0  0
    9.2023  -15.0748   22.2891 C   0  0  0  0  0  0  0  0  0  0  0  0
    9.8315  -14.4899   23.1865 O   0  0  0  0  0  0  0  0  0  0  0  0
    7.1672  -14.2911   19.2627 C   0  0  0  0  0  0  0  0  0  0  0  0
    7.5660  -14.1539   17.9493 C   0  0  0  0  0  0  0  0  0  0  0  0
   13.7992  -21.8601   19.2211 N   0  0  0  0  0  0  0  0  0  0  0  0
   13.4130  -21.5235   20.5417 C   0  0  0  0  0  0  0  0  0  0  0  0
   13.1747  -22.4768   21.3724 N   0  0  0  0  0  0  0  0  0  0  0  0
   13.3007  -20.1709   20.9275 N   0  0  0  0  0  0  0  0  0  0  0  0
   13.0832  -19.1404   19.9589 C   0  0  0  0  0  0  0  0  0  0  0  0
   12.9516  -17.7602   20.5184 C   0  0  0  0  0  0  0  0  0  0  0  0
   11.5155  -17.3998   20.7449 C   0  0  0  0  0  0  0  0  0  0  0  0
   11.2924  -16.0091   21.2917 C   0  0  2  0  0  0  0  0  0  0  0  0
    9.8442  -15.8002   21.2598 N   0  0  0  0  0  0  0  0  0  0  0  0
   11.9484  -14.9467   20.5375 C   0  0  0  0  0  0  0  0  0  0  0  0
   11.3606  -14.4083   19.4149 O   0  0  0  0  0  0  0  0  0  0  0  0
   13.0645  -14.5037   20.8999 O   0  0  0  0  0  0  0  0  0  0  0  0
  2  1  1  1
  2  3  1  0
  3  4  1  0
  4  9  1  0
  5  4  2  0
  5  6  1  0
  6  7  2  0
  7  8  1  0
  9  8  2  0
 10  2  1  0
 10 19  1  0
 11 10  2  0
 12 13  1  0
 13 14  2  0
 14 15  1  0
 16 17  1  0
 16 15  2  0
 18 17  1  1
 18 19  1  0
 18 20  1  0
 20 32  1  0
 21 20  2  0
 22 16  1  0
 23 22  2  0
 23 13  1  0
 25 24  1  0
 25 26  2  0
 27 25  1  0
 28 27  1  0
 29 28  1  0
 30 29  1  0
 31 30  1  6
 31 33  1  0
 32 31  1  0
 33 34  1  0
 35 33  2  0
M  END
$$$$
