TNC.pdb
     RDKit          3D

 22 21  0  0  1  0  0  0  0  0999 V2000
    7.4273  -12.5960   18.4000 C   0  0  0  0  0  0  0  0  0  0  0  0
    7.2830  -13.7113   19.4099 C   0  0  1  0  0  0  0  0  0  0  0  0
    7.5120  -14.9131   18.7570 O   0  0  0  0  0  0  0  0  0  0  0  0
    8.2866  -13.4704   20.5377 C   0  0  2  0  0  0  0  0  0  0  0  0
    9.6249  -13.4302   20.0333 N   0  0  0  0  0  0  0  0  0  0  0  0
    8.0942  -14.3898   21.6574 C   0  0  0  0  0  0  0  0  0  0  0  0
    6.9456  -14.4994   22.1575 O   0  0  0  0  0  0  0  0  0  0  0  0
    8.4814  -17.8791   21.4153 N   0  0  0  0  0  0  0  0  0  0  0  0
    9.5624  -18.1358   22.2855 C   0  0  0  0  0  0  0  0  0  0  0  0
   10.1999  -19.2083   22.1563 O   0  0  0  0  0  0  0  0  0  0  0  0
    9.9290  -17.1560   23.3199 C   0  0  0  0  0  0  0  0  0  0  0  0
    9.0636  -15.9270   23.3632 C   0  0  2  0  0  0  0  0  0  0  0  0
    9.1810  -15.1411   22.1678 N   0  0  0  0  0  0  0  0  0  0  0  0
    9.2795  -15.1703   24.5932 C   0  0  0  0  0  0  0  0  0  0  0  0
   10.4145  -14.7399   24.8825 O   0  0  0  0  0  0  0  0  0  0  0  0
    8.2459  -14.8696   25.5361 N   0  0  0  0  0  0  0  0  0  0  0  0
    8.4918  -14.0560   26.7030 C   0  0  1  0  0  0  0  0  0  0  0  0
    7.2325  -13.3740   27.1996 C   0  0  0  0  0  0  0  0  0  0  0  0
    6.6187  -12.3592   25.8046 S   0  0  0  0  0  0  0  0  0  0  0  0
    9.0424  -14.8661   27.8110 C   0  0  0  0  0  0  0  0  0  0  0  0
    9.4716  -14.3021   28.9886 O   0  0  0  0  0  0  0  0  0  0  0  0
    9.1168  -16.1058   27.6631 O   0  0  0  0  0  0  0  0  0  0  0  0
  2  1  1  6
  2  3  1  0
  4  2  1  0
  4  6  1  0
  4  5  1  6
  6  7  2  0
  6 13  1  0
  9 11  1  0
  9  8  1  0
 10  9  2  0
 12 11  1  6
 12 14  1  0
 13 12  1  0
 14 16  1  0
 14 15  2  0
 16 17  1  0
 17 20  1  0
 17 18  1  1
 18 19  1  0
 20 21  1  0
 22 20  2  0
M  END
$$$$
