TNC.pdb
     RDKit          3D

 22 21  0  0  1  0  0  0  0  0999 V2000
    7.1226  -14.1946   16.7200 C   0  0  0  0  0  0  0  0  0  0  0  0
    8.2087  -14.6301   17.6767 C   0  0  1  0  0  0  0  0  0  0  0  0
    9.4310  -14.4580   17.0448 O   0  0  0  0  0  0  0  0  0  0  0  0
    8.0955  -13.7874   18.9472 C   0  0  2  0  0  0  0  0  0  0  0  0
    8.0927  -12.3905   18.6374 N   0  0  0  0  0  0  0  0  0  0  0  0
    9.0752  -14.1759   19.9598 C   0  0  0  0  0  0  0  0  0  0  0  0
   10.0949  -13.4577   20.1197 O   0  0  0  0  0  0  0  0  0  0  0  0
   11.5925  -16.8694   23.6360 N   0  0  0  0  0  0  0  0  0  0  0  0
   10.3410  -17.4973   23.4591 C   0  0  0  0  0  0  0  0  0  0  0  0
   10.0251  -18.4399   24.2241 O   0  0  0  0  0  0  0  0  0  0  0  0
    9.4296  -17.0456   22.3962 C   0  0  0  0  0  0  0  0  0  0  0  0
    9.8760  -15.8121   21.6610 C   0  0  2  0  0  0  0  0  0  0  0  0
    8.8782  -15.3388   20.7441 N   0  0  0  0  0  0  0  0  0  0  0  0
   11.1922  -16.0021   21.0580 C   0  0  0  0  0  0  0  0  0  0  0  0
   11.3847  -16.9153   20.2296 O   0  0  0  0  0  0  0  0  0  0  0  0
   12.3305  -15.1875   21.3553 N   0  0  0  0  0  0  0  0  0  0  0  0
   13.5711  -15.3168   20.6285 C   0  0  1  0  0  0  0  0  0  0  0  0
   13.9314  -14.0472   19.8829 C   0  0  0  0  0  0  0  0  0  0  0  0
   14.8801  -14.5743   18.4082 S   0  0  0  0  0  0  0  0  0  0  0  0
   14.6894  -15.6481   21.5379 C   0  0  0  0  0  0  0  0  0  0  0  0
   14.5184  -15.7694   22.8962 O   0  0  0  0  0  0  0  0  0  0  0  0
   15.8260  -15.8221   21.0459 O   0  0  0  0  0  0  0  0  0  0  0  0
  2  1  1  6
  2  3  1  0
  4  2  1  0
  4  6  1  0
  4  5  1  6
  6  7  2  0
  6 13  1  0
  9 11  1  0
  9  8  1  0
 10  9  2  0
 12 11  1  6
 12 14  1  0
 13 12  1  0
 14 16  1  0
 14 15  2  0
 16 17  1  0
 17 20  1  0
 17 18  1  1
 18 19  1  0
 20 21  1  0
 22 20  2  0
M  END
$$$$
