TNC.pdb
     RDKit          3D

 22 21  0  0  1  0  0  0  0  0999 V2000
    9.1475  -13.1593   18.3853 C   0  0  0  0  0  0  0  0  0  0  0  0
    8.7362  -13.3391   19.8286 C   0  0  1  0  0  0  0  0  0  0  0  0
    7.9307  -12.2669   20.1816 O   0  0  0  0  0  0  0  0  0  0  0  0
    8.0028  -14.6744   19.9559 C   0  0  2  0  0  0  0  0  0  0  0  0
    6.8752  -14.7260   19.0767 N   0  0  0  0  0  0  0  0  0  0  0  0
    7.6968  -15.0091   21.3454 C   0  0  0  0  0  0  0  0  0  0  0  0
    6.5191  -14.8535   21.7581 O   0  0  0  0  0  0  0  0  0  0  0  0
   11.2660  -17.5494   24.9615 N   0  0  0  0  0  0  0  0  0  0  0  0
   10.5210  -17.2888   23.7915 C   0  0  0  0  0  0  0  0  0  0  0  0
   11.1362  -17.0683   22.7207 O   0  0  0  0  0  0  0  0  0  0  0  0
    9.0506  -17.2811   23.8363 C   0  0  0  0  0  0  0  0  0  0  0  0
    8.4148  -15.9513   23.5383 C   0  0  2  0  0  0  0  0  0  0  0  0
    8.7079  -15.4983   22.2082 N   0  0  0  0  0  0  0  0  0  0  0  0
    8.7208  -14.9730   24.5782 C   0  0  0  0  0  0  0  0  0  0  0  0
    9.7816  -14.3169   24.5398 O   0  0  0  0  0  0  0  0  0  0  0  0
    7.8620  -14.6946   25.6885 N   0  0  0  0  0  0  0  0  0  0  0  0
    8.2108  -13.7224   26.6970 C   0  0  1  0  0  0  0  0  0  0  0  0
    6.9889  -13.0433   27.2829 C   0  0  0  0  0  0  0  0  0  0  0  0
    6.0809  -12.3190   25.8674 S   0  0  0  0  0  0  0  0  0  0  0  0
    8.9624  -14.3504   27.8051 C   0  0  0  0  0  0  0  0  0  0  0  0
    9.5087  -13.6151   28.8298 O   0  0  0  0  0  0  0  0  0  0  0  0
    9.1012  -15.5934   27.8020 O   0  0  0  0  0  0  0  0  0  0  0  0
  2  1  1  6
  2  3  1  0
  4  2  1  0
  4  6  1  0
  4  5  1  6
  6  7  2  0
  6 13  1  0
  9 11  1  0
  9  8  1  0
 10  9  2  0
 12 11  1  1
 12 14  1  0
 13 12  1  0
 14 16  1  0
 14 15  2  0
 16 17  1  0
 17 20  1  0
 17 18  1  1
 18 19  1  0
 20 21  1  0
 22 20  2  0
M  END
$$$$
