TNC.pdb
     RDKit          3D

 22 21  0  0  1  0  0  0  0  0999 V2000
   10.8042  -17.7857   12.0417 C   0  0  0  0  0  0  0  0  0  0  0  0
   10.8816  -18.0109   13.5344 C   0  0  1  0  0  0  0  0  0  0  0  0
   10.9294  -16.7707   14.1531 O   0  0  0  0  0  0  0  0  0  0  0  0
    9.6563  -18.8190   13.9620 C   0  0  2  0  0  0  0  0  0  0  0  0
    8.4491  -18.1968   13.5118 N   0  0  0  0  0  0  0  0  0  0  0  0
    9.6720  -19.1375   15.3883 C   0  0  0  0  0  0  0  0  0  0  0  0
    8.8388  -18.5724   16.1419 O   0  0  0  0  0  0  0  0  0  0  0  0
   10.0680  -22.8166   19.5342 N   0  0  0  0  0  0  0  0  0  0  0  0
   11.2000  -22.2118   18.9474 C   0  0  0  0  0  0  0  0  0  0  0  0
   12.2269  -22.0451   19.6483 O   0  0  0  0  0  0  0  0  0  0  0  0
   11.1676  -21.7907   17.5381 C   0  0  0  0  0  0  0  0  0  0  0  0
   10.6449  -20.4002   17.3044 C   0  0  2  0  0  0  0  0  0  0  0  0
   10.6079  -20.0642   15.9094 N   0  0  0  0  0  0  0  0  0  0  0  0
   11.3494  -19.4238   18.1305 C   0  0  0  0  0  0  0  0  0  0  0  0
   12.0577  -18.5412   17.6046 O   0  0  0  0  0  0  0  0  0  0  0  0
   11.2895  -19.3976   19.5600 N   0  0  0  0  0  0  0  0  0  0  0  0
   11.4695  -18.1762   20.3082 C   0  0  1  0  0  0  0  0  0  0  0  0
   10.1531  -17.6081   20.7999 C   0  0  0  0  0  0  0  0  0  0  0  0
   10.5761  -16.1314   21.7965 S   0  0  0  0  0  0  0  0  0  0  0  0
   12.3423  -18.3942   21.4821 C   0  0  0  0  0  0  0  0  0  0  0  0
   13.4432  -17.6104   21.7328 O   0  0  0  0  0  0  0  0  0  0  0  0
   12.0622  -19.3257   22.2682 O   0  0  0  0  0  0  0  0  0  0  0  0
  2  1  1  6
  2  3  1  0
  4  2  1  0
  4  6  1  0
  4  5  1  1
  6  7  2  0
  6 13  1  0
  9 11  1  0
  9  8  1  0
 10  9  2  0
 12 11  1  6
 12 14  1  0
 13 12  1  0
 14 16  1  0
 14 15  2  0
 16 17  1  0
 17 20  1  0
 17 18  1  1
 18 19  1  0
 20 21  1  0
 22 20  2  0
M  END
$$$$
