HCT.pdb
     RDKit          3D

 24 24  0  0  1  0  0  0  0  0999 V2000
   29.6177  -34.3335   -1.1959 N   0  0  0  0  0  0  0  0  0  0  0  0
   29.6803  -34.9831    0.0959 C   0  0  1  0  0  0  0  0  0  0  0  0
   31.1448  -35.1142    0.5344 C   0  0  0  0  0  0  0  0  0  0  0  0
   31.7051  -36.3512   -0.0661 C   0  0  0  0  0  0  0  0  0  0  0  0
   31.6280  -37.6489    0.3980 C   0  0  0  0  0  0  0  0  0  0  0  0
   32.2793  -38.4410   -0.4671 N   0  0  0  0  0  0  0  0  0  0  0  0
   32.7668  -37.6890   -1.4641 C   0  0  0  0  0  0  0  0  0  0  0  0
   32.4154  -36.4201   -1.2161 N   0  0  0  0  0  0  0  0  0  0  0  0
   29.0345  -34.0977    1.0916 C   0  0  0  0  0  0  0  0  0  0  0  0
   29.5314  -32.9420    1.2203 O   0  0  0  0  0  0  0  0  0  0  0  0
   27.9219  -34.5040    1.8659 N   0  0  0  0  0  0  0  0  0  0  0  0
   27.3801  -33.5803    2.8173 C   0  0  1  0  0  0  0  0  0  0  0  0
   25.8691  -33.7107    2.8576 C   0  0  0  0  0  0  0  0  0  0  0  0
   25.1922  -32.6256    1.5763 S   0  0  0  0  0  0  0  0  0  0  0  0
   27.8820  -33.7494    4.1768 C   0  0  0  0  0  0  0  0  0  0  0  0
   27.8945  -34.8559    4.7182 O   0  0  0  0  0  0  0  0  0  0  0  0
   31.2418  -32.1063    5.4635 C   0  0  0  0  0  0  0  0  0  0  0  0
   30.0998  -31.7328    6.3863 C   0  0  1  0  0  0  0  0  0  0  0  0
   29.6992  -30.4478    6.0044 O   0  0  0  0  0  0  0  0  0  0  0  0
   28.9316  -32.6427    6.1894 C   0  0  2  0  0  0  0  0  0  0  0  0
   28.3599  -32.6235    4.8785 N   0  0  0  0  0  0  0  0  0  0  0  0
   27.8769  -32.3096    7.1757 C   0  0  0  0  0  0  0  0  0  0  0  0
   28.0587  -32.4330    8.5423 O   0  0  0  0  0  0  0  0  0  0  0  0
   26.7342  -31.8868    6.8003 O   0  0  0  0  0  0  0  0  0  0  0  0
  2  1  1  6
  3  4  1  0
  3  2  1  0
  4  5  2  0
  5  6  1  0
  7  6  1  0
  8  7  2  0
  8  4  1  0
  9  2  1  0
  9 10  2  0
 11  9  1  0
 12 11  1  0
 12 15  1  0
 12 13  1  1
 14 13  1  0
 15 21  1  0
 16 15  2  0
 18 20  1  0
 18 17  1  6
 19 18  1  0
 20 22  1  0
 20 21  1  6
 22 24  2  0
 22 23  1  0
M  END
$$$$
