HCT.pdb
     RDKit          3D

 24 24  0  0  1  0  0  0  0  0999 V2000
   21.4654  -12.9485  -18.6006 N   0  0  0  0  0  0  0  0  0  0  0  0
   22.4002  -11.9372  -18.1555 C   0  0  1  0  0  0  0  0  0  0  0  0
   23.1955  -11.4087  -19.3565 C   0  0  0  0  0  0  0  0  0  0  0  0
   24.1225  -12.4758  -19.8111 C   0  0  0  0  0  0  0  0  0  0  0  0
   24.0522  -13.2551  -20.9483 C   0  0  0  0  0  0  0  0  0  0  0  0
   25.1039  -14.0881  -20.9492 N   0  0  0  0  0  0  0  0  0  0  0  0
   25.8387  -13.8631  -19.8507 C   0  0  0  0  0  0  0  0  0  0  0  0
   25.2385  -12.8827  -19.1625 N   0  0  0  0  0  0  0  0  0  0  0  0
   21.6259  -10.7849  -17.6406 C   0  0  0  0  0  0  0  0  0  0  0  0
   20.6672  -10.3858  -18.3624 O   0  0  0  0  0  0  0  0  0  0  0  0
   21.9263  -10.1518  -16.4113 N   0  0  0  0  0  0  0  0  0  0  0  0
   21.0978   -9.0639  -15.9848 C   0  0  1  0  0  0  0  0  0  0  0  0
   19.9272   -9.5944  -15.1786 C   0  0  0  0  0  0  0  0  0  0  0  0
   19.0147   -8.1689  -14.5364 S   0  0  0  0  0  0  0  0  0  0  0  0
   21.7842   -8.0632  -15.1748 C   0  0  0  0  0  0  0  0  0  0  0  0
   22.3563   -8.3735  -14.1288 O   0  0  0  0  0  0  0  0  0  0  0  0
   23.6275   -4.8672  -17.0413 C   0  0  0  0  0  0  0  0  0  0  0  0
   22.7825   -4.4723  -15.8475 C   0  0  1  0  0  0  0  0  0  0  0  0
   21.5582   -4.0385  -16.3676 O   0  0  0  0  0  0  0  0  0  0  0  0
   22.5048   -5.6512  -14.9733 C   0  0  2  0  0  0  0  0  0  0  0  0
   21.7900   -6.7191  -15.6013 N   0  0  0  0  0  0  0  0  0  0  0  0
   21.7501   -5.2096  -13.7768 C   0  0  0  0  0  0  0  0  0  0  0  0
   22.2683   -4.3290  -12.8431 O   0  0  0  0  0  0  0  0  0  0  0  0
   20.5678   -5.6302  -13.5518 O   0  0  0  0  0  0  0  0  0  0  0  0
  2  1  1  6
  3  4  1  0
  3  2  1  0
  4  5  2  0
  5  6  1  0
  7  6  1  0
  8  7  2  0
  8  4  1  0
  9  2  1  0
  9 10  2  0
 11  9  1  0
 12 11  1  0
 12 15  1  0
 12 13  1  1
 14 13  1  0
 15 21  1  0
 16 15  2  0
 18 20  1  0
 18 17  1  6
 19 18  1  0
 20 22  1  0
 20 21  1  6
 22 24  2  0
 22 23  1  0
M  END
$$$$
