HCT.pdb
     RDKit          3D

 24 24  0  0  1  0  0  0  0  0999 V2000
   27.5269  -21.5335  -16.0414 N   0  0  0  0  0  0  0  0  0  0  0  0
   27.1894  -20.5255  -15.0592 C   0  0  1  0  0  0  0  0  0  0  0  0
   26.4481  -19.3695  -15.7434 C   0  0  0  0  0  0  0  0  0  0  0  0
   27.4288  -18.5901  -16.5406 C   0  0  0  0  0  0  0  0  0  0  0  0
   28.5702  -17.9423  -16.1129 C   0  0  0  0  0  0  0  0  0  0  0  0
   29.1486  -17.3683  -17.1788 N   0  0  0  0  0  0  0  0  0  0  0  0
   28.4122  -17.6305  -18.2679 C   0  0  0  0  0  0  0  0  0  0  0  0
   27.3684  -18.3730  -17.8751 N   0  0  0  0  0  0  0  0  0  0  0  0
   26.2274  -21.1161  -14.1009 C   0  0  0  0  0  0  0  0  0  0  0  0
   25.3964  -21.9417  -14.5773 O   0  0  0  0  0  0  0  0  0  0  0  0
   26.2224  -20.7876  -12.7245 N   0  0  0  0  0  0  0  0  0  0  0  0
   25.0702  -21.1319  -11.9461 C   0  0  1  0  0  0  0  0  0  0  0  0
   25.3364  -20.8472  -10.4798 C   0  0  0  0  0  0  0  0  0  0  0  0
   27.0086  -21.4302  -10.1044 S   0  0  0  0  0  0  0  0  0  0  0  0
   23.8512  -20.4261  -12.3266 C   0  0  0  0  0  0  0  0  0  0  0  0
   23.7932  -19.1958  -12.3013 O   0  0  0  0  0  0  0  0  0  0  0  0
   21.2000  -22.4036  -15.0496 C   0  0  0  0  0  0  0  0  0  0  0  0
   21.4142  -20.9234  -14.8080 C   0  0  1  0  0  0  0  0  0  0  0  0
   20.2510  -20.2870  -15.2546 O   0  0  0  0  0  0  0  0  0  0  0  0
   21.5515  -20.6324  -13.3493 C   0  0  2  0  0  0  0  0  0  0  0  0
   22.7230  -21.1699  -12.7295 N   0  0  0  0  0  0  0  0  0  0  0  0
   20.3570  -21.1375  -12.6322 C   0  0  0  0  0  0  0  0  0  0  0  0
   19.1347  -20.4883  -12.6562 O   0  0  0  0  0  0  0  0  0  0  0  0
   20.4049  -22.2128  -11.9491 O   0  0  0  0  0  0  0  0  0  0  0  0
  2  1  1  6
  3  4  1  0
  3  2  1  0
  4  5  2  0
  5  6  1  0
  7  6  1  0
  8  7  2  0
  8  4  1  0
  9  2  1  0
  9 10  2  0
 11  9  1  0
 12 11  1  0
 12 15  1  0
 12 13  1  1
 14 13  1  0
 15 21  1  0
 16 15  2  0
 18 20  1  0
 18 17  1  1
 19 18  1  0
 20 22  1  0
 20 21  1  1
 22 24  2  0
 22 23  1  0
M  END
$$$$
