HCT.pdb
     RDKit          3D

 24 24  0  0  1  0  0  0  0  0999 V2000
   26.1721  -20.2977  -18.7334 N   0  0  0  0  0  0  0  0  0  0  0  0
   24.7588  -20.0281  -18.8898 C   0  0  1  0  0  0  0  0  0  0  0  0
   24.2391  -20.7278  -20.1525 C   0  0  0  0  0  0  0  0  0  0  0  0
   24.5810  -19.8880  -21.3283 C   0  0  0  0  0  0  0  0  0  0  0  0
   23.9072  -18.7951  -21.8351 C   0  0  0  0  0  0  0  0  0  0  0  0
   24.5796  -18.3506  -22.9077 N   0  0  0  0  0  0  0  0  0  0  0  0
   25.6572  -19.1250  -23.0978 C   0  0  0  0  0  0  0  0  0  0  0  0
   25.6537  -20.0576  -22.1359 N   0  0  0  0  0  0  0  0  0  0  0  0
   24.0401  -20.6498  -17.7543 C   0  0  0  0  0  0  0  0  0  0  0  0
   24.7469  -21.2993  -16.9311 O   0  0  0  0  0  0  0  0  0  0  0  0
   22.6402  -20.5348  -17.5825 N   0  0  0  0  0  0  0  0  0  0  0  0
   22.0587  -21.0364  -16.3733 C   0  0  1  0  0  0  0  0  0  0  0  0
   22.5242  -20.2025  -15.1944 C   0  0  0  0  0  0  0  0  0  0  0  0
   21.9695  -18.5021  -15.4744 S   0  0  0  0  0  0  0  0  0  0  0  0
   20.5998  -21.0508  -16.3651 C   0  0  0  0  0  0  0  0  0  0  0  0
   19.9509  -20.1812  -16.9486 O   0  0  0  0  0  0  0  0  0  0  0  0
   16.5575  -23.7686  -15.3070 C   0  0  0  0  0  0  0  0  0  0  0  0
   18.0656  -23.6424  -15.2376 C   0  0  1  0  0  0  0  0  0  0  0  0
   18.5727  -24.5552  -16.1688 O   0  0  0  0  0  0  0  0  0  0  0  0
   18.5098  -22.2800  -15.6591 C   0  0  2  0  0  0  0  0  0  0  0  0
   19.9259  -22.0801  -15.6760 N   0  0  0  0  0  0  0  0  0  0  0  0
   17.8945  -21.2653  -14.7714 C   0  0  0  0  0  0  0  0  0  0  0  0
   16.6588  -20.6950  -15.0237 O   0  0  0  0  0  0  0  0  0  0  0  0
   18.4888  -20.8662  -13.7165 O   0  0  0  0  0  0  0  0  0  0  0  0
  2  1  1  1
  3  4  1  0
  3  2  1  0
  4  5  2  0
  5  6  1  0
  7  6  1  0
  8  7  2  0
  8  4  1  0
  9  2  1  0
  9 10  2  0
 11  9  1  0
 12 11  1  0
 12 15  1  0
 12 13  1  1
 14 13  1  0
 15 21  1  0
 16 15  2  0
 18 20  1  0
 18 17  1  6
 19 18  1  0
 20 22  1  0
 20 21  1  1
 22 24  2  0
 22 23  1  0
M  END
$$$$
