HCT.pdb
     RDKit          3D

 24 24  0  0  1  0  0  0  0  0999 V2000
   15.2323  -23.4838   -2.4176 N   0  0  0  0  0  0  0  0  0  0  0  0
   14.7247  -22.4932   -1.4926 C   0  0  1  0  0  0  0  0  0  0  0  0
   13.2757  -22.8331   -1.1199 C   0  0  0  0  0  0  0  0  0  0  0  0
   12.4348  -22.6989   -2.3363 C   0  0  0  0  0  0  0  0  0  0  0  0
   11.9102  -23.6923   -3.1383 C   0  0  0  0  0  0  0  0  0  0  0  0
   11.2149  -23.1079   -4.1258 N   0  0  0  0  0  0  0  0  0  0  0  0
   11.2812  -21.7773   -3.9768 C   0  0  0  0  0  0  0  0  0  0  0  0
   12.0234  -21.5337   -2.8883 N   0  0  0  0  0  0  0  0  0  0  0  0
   15.5023  -22.5909   -0.2364 C   0  0  0  0  0  0  0  0  0  0  0  0
   16.4235  -23.4571   -0.2128 O   0  0  0  0  0  0  0  0  0  0  0  0
   15.2443  -21.7695    0.8867 N   0  0  0  0  0  0  0  0  0  0  0  0
   16.1874  -21.7735    1.9648 C   0  0  1  0  0  0  0  0  0  0  0  0
   17.4927  -21.1489    1.5085 C   0  0  0  0  0  0  0  0  0  0  0  0
   17.2269  -19.3633    1.3741 S   0  0  0  0  0  0  0  0  0  0  0  0
   15.7429  -21.0630    3.1590 C   0  0  0  0  0  0  0  0  0  0  0  0
   15.1981  -19.9609    3.0788 O   0  0  0  0  0  0  0  0  0  0  0  0
   14.5291  -23.2507    6.5132 C   0  0  0  0  0  0  0  0  0  0  0  0
   15.4609  -22.0925    6.8052 C   0  0  1  0  0  0  0  0  0  0  0  0
   16.7424  -22.6445    6.9084 O   0  0  0  0  0  0  0  0  0  0  0  0
   15.4821  -21.1217    5.6701 C   0  0  2  0  0  0  0  0  0  0  0  0
   15.9424  -21.6524    4.4243 N   0  0  0  0  0  0  0  0  0  0  0  0
   16.3239  -19.9576    6.0339 C   0  0  0  0  0  0  0  0  0  0  0  0
   15.9336  -19.0075    6.9619 O   0  0  0  0  0  0  0  0  0  0  0  0
   17.4662  -19.7778    5.4972 O   0  0  0  0  0  0  0  0  0  0  0  0
  2  1  1  6
  3  4  1  0
  3  2  1  0
  4  5  2  0
  5  6  1  0
  7  6  1  0
  8  7  2  0
  8  4  1  0
  9  2  1  0
  9 10  2  0
 11  9  1  0
 12 11  1  0
 12 15  1  0
 12 13  1  6
 14 13  1  0
 15 21  1  0
 16 15  2  0
 18 20  1  0
 18 17  1  6
 19 18  1  0
 20 22  1  0
 20 21  1  6
 22 24  2  0
 22 23  1  0
M  END
$$$$
