HCT.pdb
     RDKit          3D

 24 24  0  0  1  0  0  0  0  0999 V2000
   20.9502  -11.8958  -17.7358 N   0  0  0  0  0  0  0  0  0  0  0  0
   21.9786  -10.8777  -17.7077 C   0  0  1  0  0  0  0  0  0  0  0  0
   21.9681  -10.1004  -19.0305 C   0  0  0  0  0  0  0  0  0  0  0  0
   22.5035  -10.9833  -20.0974 C   0  0  0  0  0  0  0  0  0  0  0  0
   23.8115  -11.1504  -20.5057 C   0  0  0  0  0  0  0  0  0  0  0  0
   23.8264  -12.0492  -21.5017 N   0  0  0  0  0  0  0  0  0  0  0  0
   22.5717  -12.4576  -21.7385 C   0  0  0  0  0  0  0  0  0  0  0  0
   21.7716  -11.8073  -20.8830 N   0  0  0  0  0  0  0  0  0  0  0  0
   21.6300   -9.8961  -16.6553 C   0  0  0  0  0  0  0  0  0  0  0  0
   20.4286   -9.5020  -16.6317 O   0  0  0  0  0  0  0  0  0  0  0  0
   22.5748   -9.4137  -15.7187 N   0  0  0  0  0  0  0  0  0  0  0  0
   22.1382   -8.4667  -14.7367 C   0  0  1  0  0  0  0  0  0  0  0  0
   22.5349   -8.9423  -13.3517 C   0  0  0  0  0  0  0  0  0  0  0  0
   21.6706  -10.5024  -13.0408 S   0  0  0  0  0  0  0  0  0  0  0  0
   22.6691   -7.1199  -14.9182 C   0  0  0  0  0  0  0  0  0  0  0  0
   23.8524   -6.9352  -15.2069 O   0  0  0  0  0  0  0  0  0  0  0  0
   21.2948   -4.5437  -17.3231 C   0  0  0  0  0  0  0  0  0  0  0  0
   21.2578   -3.9191  -15.9434 C   0  0  1  0  0  0  0  0  0  0  0  0
   19.9471   -4.0806  -15.4814 O   0  0  0  0  0  0  0  0  0  0  0  0
   22.1578   -4.6483  -15.0001 C   0  0  2  0  0  0  0  0  0  0  0  0
   21.8085   -6.0142  -14.7596 N   0  0  0  0  0  0  0  0  0  0  0  0
   22.1984   -3.9301  -13.7045 C   0  0  0  0  0  0  0  0  0  0  0  0
   21.7303   -4.4808  -12.5240 O   0  0  0  0  0  0  0  0  0  0  0  0
   22.6755   -2.7509  -13.6200 O   0  0  0  0  0  0  0  0  0  0  0  0
  2  1  1  6
  3  4  1  0
  3  2  1  0
  4  5  2  0
  5  6  1  0
  7  6  1  0
  8  7  2  0
  8  4  1  0
  9  2  1  0
  9 10  2  0
 11  9  1  0
 12 11  1  0
 12 15  1  0
 12 13  1  1
 14 13  1  0
 15 21  1  0
 16 15  2  0
 18 20  1  0
 18 17  1  6
 19 18  1  0
 20 22  1  0
 20 21  1  1
 22 24  2  0
 22 23  1  0
M  END
$$$$
