VDM.pdb
     RDKit          3D

 24 23  0  0  1  0  0  0  0  0999 V2000
   17.3940  -14.7599  -16.0836 C   0  0  0  0  0  0  0  0  0  0  0  0
   17.9992  -13.3844  -16.1986 C   0  0  2  0  0  0  0  0  0  0  0  0
   18.8684  -13.1333  -14.9659 C   0  0  0  0  0  0  0  0  0  0  0  0
   16.9058  -12.3558  -16.2406 C   0  0  2  0  0  0  0  0  0  0  0  0
   16.0122  -12.6865  -17.3343 N   0  0  0  0  0  0  0  0  0  0  0  0
   17.4446  -10.9762  -16.3881 C   0  0  0  0  0  0  0  0  0  0  0  0
   18.1068  -10.7212  -17.4289 O   0  0  0  0  0  0  0  0  0  0  0  0
   17.2354   -9.9871  -15.4163 N   0  0  0  0  0  0  0  0  0  0  0  0
   17.7784   -8.6470  -15.5613 C   0  0  1  0  0  0  0  0  0  0  0  0
   16.8050   -7.6385  -14.9276 C   0  0  0  0  0  0  0  0  0  0  0  0
   15.5989   -7.5725  -15.7781 C   0  0  0  0  0  0  0  0  0  0  0  0
   15.6236   -7.6761  -17.0344 O   0  0  0  0  0  0  0  0  0  0  0  0
   19.0520   -8.5189  -14.7819 C   0  0  0  0  0  0  0  0  0  0  0  0
   19.1162   -8.8105  -13.5620 O   0  0  0  0  0  0  0  0  0  0  0  0
   14.3678   -7.3838  -15.1646 O   0  0  0  0  0  0  0  0  0  0  0  0
   26.4710  -10.2206  -14.6707 C   0  0  0  0  0  0  0  0  0  0  0  0
   24.8514  -10.1361  -15.4980 S   0  0  0  0  0  0  0  0  0  0  0  0
   23.8221   -8.8532  -14.6854 C   0  0  0  0  0  0  0  0  0  0  0  0
   22.4512   -8.9256  -15.3306 C   0  0  0  0  0  0  0  0  0  0  0  0
   21.4950   -7.9055  -14.7472 C   0  0  2  0  0  0  0  0  0  0  0  0
   20.2294   -8.0489  -15.4427 N   0  0  0  0  0  0  0  0  0  0  0  0
   22.1040   -6.5621  -14.9991 C   0  0  0  0  0  0  0  0  0  0  0  0
   21.8488   -5.8879  -16.0058 O   0  0  0  0  0  0  0  0  0  0  0  0
   22.9933   -6.0550  -14.0648 O   0  0  0  0  0  0  0  0  0  0  0  0
  2  3  1  1
  2  1  1  0
  4  2  1  0
  4  5  1  6
  6  7  2  0
  6  4  1  0
  8  6  1  0
  9  8  1  0
  9 10  1  1
 10 11  1  0
 11 12  2  0
 11 15  1  0
 13  9  1  0
 14 13  2  0
 17 16  1  0
 17 18  1  0
 18 19  1  0
 20 19  1  6
 20 21  1  0
 21 13  1  0
 22 20  1  0
 22 24  1  0
 23 22  2  0
M  END
$$$$
