VDM.pdb
     RDKit          3D

 24 23  0  0  1  0  0  0  0  0999 V2000
   17.2844  -12.4019  -15.0425 C   0  0  0  0  0  0  0  0  0  0  0  0
   15.8302  -12.0128  -15.1157 C   0  0  2  0  0  0  0  0  0  0  0  0
   14.9853  -13.2865  -15.0699 C   0  0  0  0  0  0  0  0  0  0  0  0
   15.5651  -11.2995  -16.4104 C   0  0  2  0  0  0  0  0  0  0  0  0
   15.8092  -12.2267  -17.4988 N   0  0  0  0  0  0  0  0  0  0  0  0
   16.4001  -10.0755  -16.5526 C   0  0  0  0  0  0  0  0  0  0  0  0
   17.4816  -10.1829  -17.1894 O   0  0  0  0  0  0  0  0  0  0  0  0
   16.0152   -8.8435  -16.0044 N   0  0  0  0  0  0  0  0  0  0  0  0
   16.8197   -7.6458  -16.1774 C   0  0  1  0  0  0  0  0  0  0  0  0
   15.9557   -6.4107  -15.8703 C   0  0  0  0  0  0  0  0  0  0  0  0
   16.7246   -5.2092  -16.2548 C   0  0  0  0  0  0  0  0  0  0  0  0
   16.4910   -4.0559  -15.8021 O   0  0  0  0  0  0  0  0  0  0  0  0
   17.9294   -7.6192  -15.1705 C   0  0  0  0  0  0  0  0  0  0  0  0
   17.9116   -8.3419  -14.1435 O   0  0  0  0  0  0  0  0  0  0  0  0
   17.7615   -5.3528  -17.1668 O   0  0  0  0  0  0  0  0  0  0  0  0
   24.2919  -10.4336  -13.6169 C   0  0  0  0  0  0  0  0  0  0  0  0
   22.7843  -10.0697  -14.5705 S   0  0  0  0  0  0  0  0  0  0  0  0
   22.0988   -8.4567  -14.0282 C   0  0  0  0  0  0  0  0  0  0  0  0
   20.8850   -8.1881  -14.8974 C   0  0  0  0  0  0  0  0  0  0  0  0
   20.2556   -6.8440  -14.5933 C   0  0  2  0  0  0  0  0  0  0  0  0
   19.0407   -6.7450  -15.3810 N   0  0  0  0  0  0  0  0  0  0  0  0
   21.2540   -5.8071  -15.0020 C   0  0  0  0  0  0  0  0  0  0  0  0
   21.1531   -5.1548  -16.0496 O   0  0  0  0  0  0  0  0  0  0  0  0
   22.3380   -5.5710  -14.1713 O   0  0  0  0  0  0  0  0  0  0  0  0
  2  3  1  6
  2  1  1  0
  4  2  1  0
  4  5  1  6
  6  7  2  0
  6  4  1  0
  8  6  1  0
  9  8  1  0
  9 10  1  1
 10 11  1  0
 11 12  2  0
 11 15  1  0
 13  9  1  0
 14 13  2  0
 17 16  1  0
 17 18  1  0
 18 19  1  0
 20 19  1  6
 20 21  1  0
 21 13  1  0
 22 20  1  0
 22 24  1  0
 23 22  2  0
M  END
$$$$
