VDM.pdb
     RDKit          3D

 24 23  0  0  1  0  0  0  0  0999 V2000
   29.2843  -19.0076  -14.3863 C   0  0  0  0  0  0  0  0  0  0  0  0
   28.8477  -20.2614  -15.0996 C   0  0  2  0  0  0  0  0  0  0  0  0
   29.8032  -20.5118  -16.2670 C   0  0  0  0  0  0  0  0  0  0  0  0
   27.4587  -20.0752  -15.6392 C   0  0  2  0  0  0  0  0  0  0  0  0
   27.5002  -19.0400  -16.6544 N   0  0  0  0  0  0  0  0  0  0  0  0
   26.4857  -19.7336  -14.5658 C   0  0  0  0  0  0  0  0  0  0  0  0
   26.4912  -18.5502  -14.1343 O   0  0  0  0  0  0  0  0  0  0  0  0
   25.5922  -20.6790  -14.0421 N   0  0  0  0  0  0  0  0  0  0  0  0
   24.6985  -20.3578  -12.9422 C   0  0  1  0  0  0  0  0  0  0  0  0
   23.2971  -20.9095  -13.2552 C   0  0  0  0  0  0  0  0  0  0  0  0
   22.3780  -20.4483  -12.1945 C   0  0  0  0  0  0  0  0  0  0  0  0
   22.5214  -19.3629  -11.5692 O   0  0  0  0  0  0  0  0  0  0  0  0
   25.1384  -21.0647  -11.6961 C   0  0  0  0  0  0  0  0  0  0  0  0
   25.4196  -22.2887  -11.6911 O   0  0  0  0  0  0  0  0  0  0  0  0
   21.2958  -21.2524  -11.8628 O   0  0  0  0  0  0  0  0  0  0  0  0
   29.4386  -19.3035   -7.1116 C   0  0  0  0  0  0  0  0  0  0  0  0
   27.8411  -19.3263   -6.2386 S   0  0  0  0  0  0  0  0  0  0  0  0
   26.7333  -20.5533   -7.0339 C   0  0  0  0  0  0  0  0  0  0  0  0
   26.3881  -20.0009   -8.4038 C   0  0  0  0  0  0  0  0  0  0  0  0
   25.5528  -20.9716   -9.2131 C   0  0  2  0  0  0  0  0  0  0  0  0
   25.2394  -20.3277  -10.4753 N   0  0  0  0  0  0  0  0  0  0  0  0
   24.3147  -21.2327   -8.4144 C   0  0  0  0  0  0  0  0  0  0  0  0
   23.2181  -20.7298   -8.6930 O   0  0  0  0  0  0  0  0  0  0  0  0
   24.4034  -22.0718   -7.3148 O   0  0  0  0  0  0  0  0  0  0  0  0
  2  3  1  6
  2  1  1  0
  4  2  1  0
  4  5  1  6
  6  7  2  0
  6  4  1  0
  8  6  1  0
  9  8  1  0
  9 10  1  6
 10 11  1  0
 11 12  2  0
 11 15  1  0
 13  9  1  0
 14 13  2  0
 17 16  1  0
 17 18  1  0
 18 19  1  0
 20 19  1  1
 20 21  1  0
 21 13  1  0
 22 20  1  0
 22 24  1  0
 23 22  2  0
M  END
$$$$
