VDM.pdb
     RDKit          3D

 24 23  0  0  1  0  0  0  0  0999 V2000
   16.4753  -12.7789  -15.4789 C   0  0  0  0  0  0  0  0  0  0  0  0
   17.1274  -12.5604  -16.8200 C   0  0  2  0  0  0  0  0  0  0  0  0
   16.7449  -13.7211  -17.7392 C   0  0  0  0  0  0  0  0  0  0  0  0
   18.6201  -12.5411  -16.6561 C   0  0  2  0  0  0  0  0  0  0  0  0
   19.0474  -13.8588  -16.2259 N   0  0  0  0  0  0  0  0  0  0  0  0
   19.0609  -11.4948  -15.6936 C   0  0  0  0  0  0  0  0  0  0  0  0
   19.0335  -11.7863  -14.4685 O   0  0  0  0  0  0  0  0  0  0  0  0
   19.4910  -10.2285  -16.1154 N   0  0  0  0  0  0  0  0  0  0  0  0
   19.7839   -9.1665  -15.1677 C   0  0  1  0  0  0  0  0  0  0  0  0
   20.5636   -8.0520  -15.8862 C   0  0  0  0  0  0  0  0  0  0  0  0
   20.9904   -7.0669  -14.8713 C   0  0  0  0  0  0  0  0  0  0  0  0
   21.5771   -7.3777  -13.7995 O   0  0  0  0  0  0  0  0  0  0  0  0
   18.5119   -8.5276  -14.6987 C   0  0  0  0  0  0  0  0  0  0  0  0
   17.5481   -8.3182  -15.4763 O   0  0  0  0  0  0  0  0  0  0  0  0
   20.7313   -5.7232  -15.1055 O   0  0  0  0  0  0  0  0  0  0  0  0
   14.5054   -7.4936   -7.9646 C   0  0  0  0  0  0  0  0  0  0  0  0
   15.9940   -8.0374   -8.8607 S   0  0  0  0  0  0  0  0  0  0  0  0
   15.8970   -7.4648  -10.6009 C   0  0  0  0  0  0  0  0  0  0  0  0
   17.0994   -8.0499  -11.3168 C   0  0  0  0  0  0  0  0  0  0  0  0
   17.1413   -7.6482  -12.7769 C   0  0  2  0  0  0  0  0  0  0  0  0
   18.3900   -8.1418  -13.3277 N   0  0  0  0  0  0  0  0  0  0  0  0
   17.0881   -6.1531  -12.8062 C   0  0  0  0  0  0  0  0  0  0  0  0
   18.0873   -5.4500  -13.0072 O   0  0  0  0  0  0  0  0  0  0  0  0
   15.8670   -5.5319  -12.5965 O   0  0  0  0  0  0  0  0  0  0  0  0
  2  3  1  6
  2  1  1  0
  4  2  1  0
  4  5  1  1
  6  7  2  0
  6  4  1  0
  8  6  1  0
  9  8  1  0
  9 10  1  6
 10 11  1  0
 11 12  2  0
 11 15  1  0
 13  9  1  0
 14 13  2  0
 17 16  1  0
 17 18  1  0
 18 19  1  0
 20 19  1  1
 20 21  1  0
 21 13  1  0
 22 20  1  0
 22 24  1  0
 23 22  2  0
M  END
$$$$
