VDM.pdb
     RDKit          3D

 24 23  0  0  1  0  0  0  0  0999 V2000
   21.1480  -16.1699  -15.1892 C   0  0  0  0  0  0  0  0  0  0  0  0
   21.5317  -14.7590  -15.5546 C   0  0  2  0  0  0  0  0  0  0  0  0
   22.4276  -14.1992  -14.4491 C   0  0  0  0  0  0  0  0  0  0  0  0
   20.2957  -13.9118  -15.6548 C   0  0  2  0  0  0  0  0  0  0  0  0
   19.4005  -14.5255  -16.6170 N   0  0  0  0  0  0  0  0  0  0  0  0
   20.6122  -12.5086  -16.0373 C   0  0  0  0  0  0  0  0  0  0  0  0
   21.0411  -12.3092  -17.2048 O   0  0  0  0  0  0  0  0  0  0  0  0
   20.4477  -11.4385  -15.1461 N   0  0  0  0  0  0  0  0  0  0  0  0
   20.7584  -10.0714  -15.5285 C   0  0  1  0  0  0  0  0  0  0  0  0
   19.9501   -9.1058  -14.6450 C   0  0  0  0  0  0  0  0  0  0  0  0
   20.2036   -7.7307  -15.1219 C   0  0  0  0  0  0  0  0  0  0  0  0
   19.7131   -7.2577  -16.1827 O   0  0  0  0  0  0  0  0  0  0  0  0
   22.1976   -9.7690  -15.2401 C   0  0  0  0  0  0  0  0  0  0  0  0
   22.7570  -10.1495  -14.1819 O   0  0  0  0  0  0  0  0  0  0  0  0
   21.0289   -6.9107  -14.3642 O   0  0  0  0  0  0  0  0  0  0  0  0
   29.0974  -11.5780  -16.0203 C   0  0  0  0  0  0  0  0  0  0  0  0
   27.2835  -11.6605  -16.1535 S   0  0  0  0  0  0  0  0  0  0  0  0
   26.5816   -9.9819  -15.9182 C   0  0  0  0  0  0  0  0  0  0  0  0
   25.0757  -10.1224  -16.0337 C   0  0  0  0  0  0  0  0  0  0  0  0
   24.3778   -8.7778  -16.0212 C   0  0  2  0  0  0  0  0  0  0  0  0
   22.9580   -9.0236  -16.1940 N   0  0  0  0  0  0  0  0  0  0  0  0
   24.9381   -7.9995  -17.1697 C   0  0  0  0  0  0  0  0  0  0  0  0
   24.3044   -7.7936  -18.2134 O   0  0  0  0  0  0  0  0  0  0  0  0
   26.2225   -7.4907  -17.0582 O   0  0  0  0  0  0  0  0  0  0  0  0
  2  3  1  1
  2  1  1  0
  4  2  1  0
  4  5  1  6
  6  7  2  0
  6  4  1  0
  8  6  1  0
  9  8  1  0
  9 10  1  1
 10 11  1  0
 11 12  2  0
 11 15  1  0
 13  9  1  0
 14 13  2  0
 17 16  1  0
 17 18  1  0
 18 19  1  0
 20 19  1  6
 20 21  1  0
 21 13  1  0
 22 20  1  0
 22 24  1  0
 23 22  2  0
M  END
$$$$
