VDM.pdb
     RDKit          3D

 24 23  0  0  1  0  0  0  0  0999 V2000
   29.1287  -19.4219  -13.3061 C   0  0  0  0  0  0  0  0  0  0  0  0
   28.5262  -20.5502  -14.1032 C   0  0  2  0  0  0  0  0  0  0  0  0
   29.3770  -20.7668  -15.3552 C   0  0  0  0  0  0  0  0  0  0  0  0
   27.1313  -20.1821  -14.5206 C   0  0  2  0  0  0  0  0  0  0  0  0
   27.2132  -19.0735  -15.4524 N   0  0  0  0  0  0  0  0  0  0  0  0
   26.2736  -19.8384  -13.3537 C   0  0  0  0  0  0  0  0  0  0  0  0
   26.2608  -18.6359  -12.9785 O   0  0  0  0  0  0  0  0  0  0  0  0
   25.5049  -20.8018  -12.6849 N   0  0  0  0  0  0  0  0  0  0  0  0
   24.7628  -20.4827  -11.4770 C   0  0  1  0  0  0  0  0  0  0  0  0
   23.3743  -21.1407  -11.5510 C   0  0  0  0  0  0  0  0  0  0  0  0
   22.5710  -20.3999  -12.5453 C   0  0  0  0  0  0  0  0  0  0  0  0
   22.2672  -19.1817  -12.4300 O   0  0  0  0  0  0  0  0  0  0  0  0
   25.4324  -21.0930  -10.2831 C   0  0  0  0  0  0  0  0  0  0  0  0
   25.7377  -22.3107  -10.2433 O   0  0  0  0  0  0  0  0  0  0  0  0
   22.1217  -21.0793  -13.6696 O   0  0  0  0  0  0  0  0  0  0  0  0
   30.2459  -19.2914   -5.3307 C   0  0  0  0  0  0  0  0  0  0  0  0
   28.4881  -18.8570   -5.1404 S   0  0  0  0  0  0  0  0  0  0  0  0
   27.4523  -20.2135   -5.8131 C   0  0  0  0  0  0  0  0  0  0  0  0
   26.9411  -19.7403   -7.1605 C   0  0  0  0  0  0  0  0  0  0  0  0
   26.1813  -20.8273   -7.8928 C   0  0  2  0  0  0  0  0  0  0  0  0
   25.7313  -20.2685   -9.1542 N   0  0  0  0  0  0  0  0  0  0  0  0
   25.0243  -21.1970   -7.0189 C   0  0  0  0  0  0  0  0  0  0  0  0
   23.8657  -20.8240   -7.2461 O   0  0  0  0  0  0  0  0  0  0  0  0
   25.2637  -21.9890   -5.9069 O   0  0  0  0  0  0  0  0  0  0  0  0
  2  3  1  6
  2  1  1  0
  4  2  1  0
  4  5  1  6
  6  7  2  0
  6  4  1  0
  8  6  1  0
  9  8  1  0
  9 10  1  6
 10 11  1  0
 11 12  2  0
 11 15  1  0
 13  9  1  0
 14 13  2  0
 17 16  1  0
 17 18  1  0
 18 19  1  0
 20 19  1  1
 20 21  1  0
 21 13  1  0
 22 20  1  0
 22 24  1  0
 23 22  2  0
M  END
$$$$
