VDM.pdb
     RDKit          3D

 24 23  0  0  1  0  0  0  0  0999 V2000
   12.2612  -11.4433   -9.8984 C   0  0  0  0  0  0  0  0  0  0  0  0
   12.5162  -11.5081  -11.3824 C   0  0  2  0  0  0  0  0  0  0  0  0
   11.6702  -12.6381  -11.9702 C   0  0  0  0  0  0  0  0  0  0  0  0
   13.9669  -11.8066  -11.6307 C   0  0  2  0  0  0  0  0  0  0  0  0
   14.2859  -13.0715  -10.9965 N   0  0  0  0  0  0  0  0  0  0  0  0
   14.8524  -10.7193  -11.1317 C   0  0  0  0  0  0  0  0  0  0  0  0
   15.2304  -10.7849   -9.9319 O   0  0  0  0  0  0  0  0  0  0  0  0
   15.2583   -9.6549  -11.9495 N   0  0  0  0  0  0  0  0  0  0  0  0
   16.1659   -8.6263  -11.4701 C   0  0  1  0  0  0  0  0  0  0  0  0
   17.0437   -8.1456  -12.6383 C   0  0  0  0  0  0  0  0  0  0  0  0
   18.0413   -7.1984  -12.0995 C   0  0  0  0  0  0  0  0  0  0  0  0
   18.6988   -7.4023  -11.0432 O   0  0  0  0  0  0  0  0  0  0  0  0
   15.3930   -7.4212  -11.0271 C   0  0  0  0  0  0  0  0  0  0  0  0
   14.4442   -6.9548  -11.7051 O   0  0  0  0  0  0  0  0  0  0  0  0
   18.2691   -6.0157  -12.7900 O   0  0  0  0  0  0  0  0  0  0  0  0
   12.8010   -3.6553   -4.7162 C   0  0  0  0  0  0  0  0  0  0  0  0
   13.8301   -4.9529   -5.4723 S   0  0  0  0  0  0  0  0  0  0  0  0
   14.0392   -4.5958   -7.2596 C   0  0  0  0  0  0  0  0  0  0  0  0
   14.7811   -5.7782   -7.8533 C   0  0  0  0  0  0  0  0  0  0  0  0
   15.0603   -5.5893   -9.3304 C   0  0  2  0  0  0  0  0  0  0  0  0
   15.7449   -6.7801   -9.7988 N   0  0  0  0  0  0  0  0  0  0  0  0
   15.9340   -4.3800   -9.4446 C   0  0  0  0  0  0  0  0  0  0  0  0
   17.1532   -4.4500   -9.6491 O   0  0  0  0  0  0  0  0  0  0  0  0
   15.3508   -3.1296   -9.3128 O   0  0  0  0  0  0  0  0  0  0  0  0
  2  3  1  1
  2  1  1  0
  4  2  1  0
  4  5  1  1
  6  7  2  0
  6  4  1  0
  8  6  1  0
  9  8  1  0
  9 10  1  6
 10 11  1  0
 11 12  2  0
 11 15  1  0
 13  9  1  0
 14 13  2  0
 17 16  1  0
 17 18  1  0
 18 19  1  0
 20 19  1  1
 20 21  1  0
 21 13  1  0
 22 20  1  0
 22 24  1  0
 23 22  2  0
M  END
$$$$
