VDM.pdb
     RDKit          3D

 24 23  0  0  1  0  0  0  0  0999 V2000
   29.6476  -19.2333  -15.7328 C   0  0  0  0  0  0  0  0  0  0  0  0
   28.6623  -19.1440  -14.5959 C   0  0  2  0  0  0  0  0  0  0  0  0
   28.9047  -20.3220  -13.6515 C   0  0  0  0  0  0  0  0  0  0  0  0
   27.2634  -19.2323  -15.1348 C   0  0  2  0  0  0  0  0  0  0  0  0
   27.0634  -18.1355  -16.0626 N   0  0  0  0  0  0  0  0  0  0  0  0
   26.2458  -19.2071  -14.0488 C   0  0  0  0  0  0  0  0  0  0  0  0
   25.9719  -18.0888  -13.5377 O   0  0  0  0  0  0  0  0  0  0  0  0
   25.6085  -20.3720  -13.5980 N   0  0  0  0  0  0  0  0  0  0  0  0
   24.6289  -20.3402  -12.5251 C   0  0  1  0  0  0  0  0  0  0  0  0
   23.3930  -21.1527  -12.9481 C   0  0  0  0  0  0  0  0  0  0  0  0
   22.2735  -20.7749  -12.0612 C   0  0  0  0  0  0  0  0  0  0  0  0
   22.3746  -19.9320  -11.1291 O   0  0  0  0  0  0  0  0  0  0  0  0
   25.1691  -21.0347  -11.3119 C   0  0  0  0  0  0  0  0  0  0  0  0
   25.4544  -22.2578  -11.3189 O   0  0  0  0  0  0  0  0  0  0  0  0
   21.0402  -21.3808  -12.2601 O   0  0  0  0  0  0  0  0  0  0  0  0
   29.2602  -18.7778   -6.8865 C   0  0  0  0  0  0  0  0  0  0  0  0
   27.8415  -19.1887   -5.8221 S   0  0  0  0  0  0  0  0  0  0  0  0
   26.8148  -20.4658   -6.6471 C   0  0  0  0  0  0  0  0  0  0  0  0
   26.4642  -19.9201   -8.0182 C   0  0  0  0  0  0  0  0  0  0  0  0
   25.7000  -20.9283   -8.8518 C   0  0  2  0  0  0  0  0  0  0  0  0
   25.3640  -20.2867  -10.1094 N   0  0  0  0  0  0  0  0  0  0  0  0
   24.4700  -21.2753   -8.0735 C   0  0  0  0  0  0  0  0  0  0  0  0
   24.5068  -21.8929   -7.0009 O   0  0  0  0  0  0  0  0  0  0  0  0
   23.2384  -20.8897   -8.5789 O   0  0  0  0  0  0  0  0  0  0  0  0
  2  3  1  1
  2  1  1  0
  4  2  1  0
  4  5  1  6
  6  7  2  0
  6  4  1  0
  8  6  1  0
  9  8  1  0
  9 10  1  6
 10 11  1  0
 11 12  2  0
 11 15  1  0
 13  9  1  0
 14 13  2  0
 17 16  1  0
 17 18  1  0
 18 19  1  0
 20 19  1  1
 20 21  1  0
 21 13  1  0
 22 20  1  0
 22 24  1  0
 23 22  2  0
M  END
$$$$
