FWS.pdb
     RDKit          3D

 32 34  0  0  1  0  0  0  0  0999 V2000
    8.4776  -17.3517   19.6277 N   0  0  0  0  0  0  0  0  0  0  0  0
    9.7898  -16.7743   19.8150 C   0  0  1  0  0  0  0  0  0  0  0  0
   10.0130  -15.5514   18.9349 C   0  0  0  0  0  0  0  0  0  0  0  0
    9.0769  -14.5065   19.3565 C   0  0  0  0  0  0  0  0  0  0  0  0
    7.7129  -14.6376   19.1705 C   0  0  0  0  0  0  0  0  0  0  0  0
    6.8209  -13.6615   19.5616 C   0  0  0  0  0  0  0  0  0  0  0  0
    7.3109  -12.5226   20.1556 C   0  0  0  0  0  0  0  0  0  0  0  0
    8.6812  -12.3647   20.3552 C   0  0  0  0  0  0  0  0  0  0  0  0
    9.5523  -13.3665   19.9498 C   0  0  0  0  0  0  0  0  0  0  0  0
    9.8954  -16.2924   21.2169 C   0  0  0  0  0  0  0  0  0  0  0  0
   10.9378  -15.6876   21.6025 O   0  0  0  0  0  0  0  0  0  0  0  0
    8.8476  -16.5054   22.1091 N   0  0  0  0  0  0  0  0  0  0  0  0
    8.9268  -15.9766   23.4873 C   0  0  1  0  0  0  0  0  0  0  0  0
    7.5454  -15.6840   23.9335 C   0  0  0  0  0  0  0  0  0  0  0  0
    7.4278  -15.1591   25.2909 C   0  0  0  0  0  0  0  0  0  0  0  0
    7.3832  -15.9301   26.4589 C   0  0  0  0  0  0  0  0  0  0  0  0
    7.2709  -15.0656   27.4621 N   0  0  0  0  0  0  0  0  0  0  0  0
    7.2408  -13.7979   27.0188 C   0  0  0  0  0  0  0  0  0  0  0  0
    7.1584  -12.5638   27.6550 C   0  0  0  0  0  0  0  0  0  0  0  0
    7.1752  -11.4054   26.9132 C   0  0  0  0  0  0  0  0  0  0  0  0
    7.2718  -11.4120   25.5331 C   0  0  0  0  0  0  0  0  0  0  0  0
    7.3526  -12.6373   24.9070 C   0  0  0  0  0  0  0  0  0  0  0  0
    7.3370  -13.8067   25.6443 C   0  0  0  0  0  0  0  0  0  0  0  0
    9.7269  -16.9217   24.2622 C   0  0  0  0  0  0  0  0  0  0  0  0
    9.5839  -18.1899   24.1041 O   0  0  0  0  0  0  0  0  0  0  0  0
   12.8999  -15.8678   26.5773 O   0  0  0  0  0  0  0  0  0  0  0  0
   12.9353  -17.1709   26.0888 C   0  0  0  0  0  0  0  0  0  0  0  0
   11.4653  -17.6058   25.9436 C   0  0  2  0  0  0  0  0  0  0  0  0
   10.7227  -16.5842   25.2319 N   0  0  0  0  0  0  0  0  0  0  0  0
   10.9756  -17.8919   27.2933 C   0  0  0  0  0  0  0  0  0  0  0  0
   11.5796  -18.8546   28.0677 O   0  0  0  0  0  0  0  0  0  0  0  0
   10.0016  -17.2646   27.7538 O   0  0  0  0  0  0  0  0  0  0  0  0
  2  1  1  1
  2 10  1  0
  3  2  1  0
  3  4  1  0
  4  9  1  0
  4  5  2  0
  5  6  1  0
  6  7  2  0
  8  7  1  0
  9  8  2  0
 10 11  2  0
 12 10  1  0
 12 13  1  0
 13 14  1  1
 15 14  1  0
 16 15  2  0
 17 18  1  0
 17 16  1  0
 18 23  2  0
 19 20  2  0
 19 18  1  0
 20 21  1  0
 21 22  2  0
 23 22  1  0
 23 15  1  0
 24 13  1  0
 24 25  2  0
 26 27  1  0
 28 27  1  1
 28 30  1  0
 29 28  1  0
 29 24  1  0
 30 32  2  0
 30 31  1  0
M  END
$$$$
