FWS.pdb
     RDKit          3D

 32 34  0  0  1  0  0  0  0  0999 V2000
    7.1224  -15.8707   21.6566 N   0  0  0  0  0  0  0  0  0  0  0  0
    8.5158  -16.2472   21.5729 C   0  0  1  0  0  0  0  0  0  0  0  0
    9.2671  -15.4471   20.5168 C   0  0  0  0  0  0  0  0  0  0  0  0
    8.3625  -14.4234   19.9880 C   0  0  0  0  0  0  0  0  0  0  0  0
    8.4574  -13.1005   20.3794 C   0  0  0  0  0  0  0  0  0  0  0  0
    7.6119  -12.1271   19.8904 C   0  0  0  0  0  0  0  0  0  0  0  0
    6.6447  -12.4911   18.9838 C   0  0  0  0  0  0  0  0  0  0  0  0
    6.5269  -13.8175   18.5721 C   0  0  0  0  0  0  0  0  0  0  0  0
    7.3942  -14.7729   19.0837 C   0  0  0  0  0  0  0  0  0  0  0  0
    9.1682  -15.9252   22.8688 C   0  0  0  0  0  0  0  0  0  0  0  0
    9.8099  -14.8430   23.0039 O   0  0  0  0  0  0  0  0  0  0  0  0
    9.0748  -16.8137   23.9371 N   0  0  0  0  0  0  0  0  0  0  0  0
    9.8597  -16.5802   25.1678 C   0  0  1  0  0  0  0  0  0  0  0  0
    8.9235  -16.6437   26.3135 C   0  0  0  0  0  0  0  0  0  0  0  0
    7.7836  -15.7345   26.2368 C   0  0  0  0  0  0  0  0  0  0  0  0
    6.4963  -16.0803   25.8078 C   0  0  0  0  0  0  0  0  0  0  0  0
    5.7739  -14.9677   25.8895 N   0  0  0  0  0  0  0  0  0  0  0  0
    6.5072  -13.9364   26.3403 C   0  0  0  0  0  0  0  0  0  0  0  0
    6.2168  -12.6041   26.6151 C   0  0  0  0  0  0  0  0  0  0  0  0
    7.1981  -11.7734   27.1045 C   0  0  0  0  0  0  0  0  0  0  0  0
    8.4889  -12.2119   27.3403 C   0  0  0  0  0  0  0  0  0  0  0  0
    8.7721  -13.5327   27.0658 C   0  0  0  0  0  0  0  0  0  0  0  0
    7.7922  -14.3751   26.5744 C   0  0  0  0  0  0  0  0  0  0  0  0
   10.9898  -17.5053   25.1356 C   0  0  0  0  0  0  0  0  0  0  0  0
   10.8230  -18.7570   25.3782 O   0  0  0  0  0  0  0  0  0  0  0  0
   14.7410  -16.2791   24.4870 O   0  0  0  0  0  0  0  0  0  0  0  0
   14.6405  -17.6195   24.1248 C   0  0  0  0  0  0  0  0  0  0  0  0
   13.4002  -18.1617   24.8588 C   0  0  2  0  0  0  0  0  0  0  0  0
   12.3469  -17.1657   24.8374 N   0  0  0  0  0  0  0  0  0  0  0  0
   13.8425  -18.5581   26.1969 C   0  0  0  0  0  0  0  0  0  0  0  0
   13.2613  -18.0111   27.3168 O   0  0  0  0  0  0  0  0  0  0  0  0
   14.7549  -19.3965   26.3337 O   0  0  0  0  0  0  0  0  0  0  0  0
  2  1  1  1
  2 10  1  0
  3  2  1  0
  3  4  1  0
  4  9  1  0
  4  5  2  0
  5  6  1  0
  6  7  2  0
  8  7  1  0
  9  8  2  0
 10 11  2  0
 12 10  1  0
 12 13  1  0
 13 14  1  1
 15 14  1  0
 16 15  2  0
 17 18  1  0
 17 16  1  0
 18 23  2  0
 19 20  2  0
 19 18  1  0
 20 21  1  0
 21 22  2  0
 23 22  1  0
 23 15  1  0
 24 13  1  0
 24 25  2  0
 26 27  1  0
 28 27  1  6
 28 30  1  0
 29 28  1  0
 29 24  1  0
 30 32  2  0
 30 31  1  0
M  END
$$$$
