FWS.pdb
     RDKit          3D

 32 34  0  0  1  0  0  0  0  0999 V2000
    6.1223  -16.4388   21.5505 N   0  0  0  0  0  0  0  0  0  0  0  0
    7.4803  -16.8291   21.2444 C   0  0  1  0  0  0  0  0  0  0  0  0
    7.9575  -16.2622   19.9138 C   0  0  0  0  0  0  0  0  0  0  0  0
    7.8598  -14.8019   19.9764 C   0  0  0  0  0  0  0  0  0  0  0  0
    6.6653  -14.1450   19.7445 C   0  0  0  0  0  0  0  0  0  0  0  0
    6.5596  -12.7712   19.7992 C   0  0  0  0  0  0  0  0  0  0  0  0
    7.6833  -12.0364   20.0947 C   0  0  0  0  0  0  0  0  0  0  0  0
    8.9001  -12.6731   20.3328 C   0  0  0  0  0  0  0  0  0  0  0  0
    8.9724  -14.0578   20.2700 C   0  0  0  0  0  0  0  0  0  0  0  0
    8.3791  -16.2534   22.2787 C   0  0  0  0  0  0  0  0  0  0  0  0
    8.8671  -15.0966   22.1215 O   0  0  0  0  0  0  0  0  0  0  0  0
    8.6861  -16.9858   23.4227 N   0  0  0  0  0  0  0  0  0  0  0  0
    9.6302  -16.4415   24.4215 C   0  0  1  0  0  0  0  0  0  0  0  0
    8.9503  -16.4629   25.7369 C   0  0  0  0  0  0  0  0  0  0  0  0
    7.7978  -15.5744   25.8563 C   0  0  0  0  0  0  0  0  0  0  0  0
    6.4598  -15.9527   25.6903 C   0  0  0  0  0  0  0  0  0  0  0  0
    5.7431  -14.8497   25.8800 N   0  0  0  0  0  0  0  0  0  0  0  0
    6.5270  -13.7943   26.1556 C   0  0  0  0  0  0  0  0  0  0  0  0
    6.2665  -12.4593   26.4466 C   0  0  0  0  0  0  0  0  0  0  0  0
    7.3054  -11.5993   26.7178 C   0  0  0  0  0  0  0  0  0  0  0  0
    8.6264  -12.0104   26.7137 C   0  0  0  0  0  0  0  0  0  0  0  0
    8.8797  -13.3340   26.4242 C   0  0  0  0  0  0  0  0  0  0  0  0
    7.8420  -14.2057   26.1509 C   0  0  0  0  0  0  0  0  0  0  0  0
   10.8834  -17.1766   24.2696 C   0  0  0  0  0  0  0  0  0  0  0  0
   10.9323  -18.4445   24.4785 O   0  0  0  0  0  0  0  0  0  0  0  0
   13.9233  -16.3838   21.8963 O   0  0  0  0  0  0  0  0  0  0  0  0
   14.4717  -16.6794   23.1411 C   0  0  0  0  0  0  0  0  0  0  0  0
   13.3633  -17.4026   23.9282 C   0  0  2  0  0  0  0  0  0  0  0  0
   12.1430  -16.6212   23.8814 N   0  0  0  0  0  0  0  0  0  0  0  0
   13.8886  -17.6397   25.2740 C   0  0  0  0  0  0  0  0  0  0  0  0
   15.0244  -18.3927   25.4594 O   0  0  0  0  0  0  0  0  0  0  0  0
   13.3078  -17.1612   26.2679 O   0  0  0  0  0  0  0  0  0  0  0  0
  2  1  1  1
  2 10  1  0
  3  2  1  0
  3  4  1  0
  4  9  1  0
  4  5  2  0
  5  6  1  0
  6  7  2  0
  8  7  1  0
  9  8  2  0
 10 11  2  0
 12 10  1  0
 12 13  1  0
 13 14  1  1
 15 14  1  0
 16 15  2  0
 17 18  1  0
 17 16  1  0
 18 23  2  0
 19 20  2  0
 19 18  1  0
 20 21  1  0
 21 22  2  0
 23 22  1  0
 23 15  1  0
 24 13  1  0
 24 25  2  0
 26 27  1  0
 28 27  1  6
 28 30  1  0
 29 28  1  0
 29 24  1  0
 30 32  2  0
 30 31  1  0
M  END
$$$$
