FWS.pdb
     RDKit          3D

 32 34  0  0  1  0  0  0  0  0999 V2000
    6.4585  -16.4760   21.6874 N   0  0  0  0  0  0  0  0  0  0  0  0
    7.8573  -16.8342   21.6155 C   0  0  1  0  0  0  0  0  0  0  0  0
    8.5266  -16.2964   20.3574 C   0  0  0  0  0  0  0  0  0  0  0  0
    8.2526  -14.8599   20.2709 C   0  0  0  0  0  0  0  0  0  0  0  0
    9.2045  -13.9186   20.6173 C   0  0  0  0  0  0  0  0  0  0  0  0
    8.9596  -12.5637   20.5417 C   0  0  0  0  0  0  0  0  0  0  0  0
    7.7257  -12.1418   20.1065 C   0  0  0  0  0  0  0  0  0  0  0  0
    6.7479  -13.0692   19.7510 C   0  0  0  0  0  0  0  0  0  0  0  0
    7.0268  -14.4262   19.8387 C   0  0  0  0  0  0  0  0  0  0  0  0
    8.5646  -16.1979   22.7572 C   0  0  0  0  0  0  0  0  0  0  0  0
    8.8459  -14.9647   22.7209 O   0  0  0  0  0  0  0  0  0  0  0  0
    8.9193  -16.9573   23.8694 N   0  0  0  0  0  0  0  0  0  0  0  0
    9.7851  -16.3782   24.9184 C   0  0  1  0  0  0  0  0  0  0  0  0
    8.9969  -16.3289   26.1711 C   0  0  0  0  0  0  0  0  0  0  0  0
    7.8263  -15.4569   26.1359 C   0  0  0  0  0  0  0  0  0  0  0  0
    6.5082  -15.8751   25.9155 C   0  0  0  0  0  0  0  0  0  0  0  0
    5.7645  -14.7745   25.9603 N   0  0  0  0  0  0  0  0  0  0  0  0
    6.5127  -13.6836   26.1939 C   0  0  0  0  0  0  0  0  0  0  0  0
    6.2139  -12.3341   26.3492 C   0  0  0  0  0  0  0  0  0  0  0  0
    7.2197  -11.4330   26.6122 C   0  0  0  0  0  0  0  0  0  0  0  0
    8.5437  -11.8162   26.7314 C   0  0  0  0  0  0  0  0  0  0  0  0
    8.8350  -13.1544   26.5760 C   0  0  0  0  0  0  0  0  0  0  0  0
    7.8308  -14.0673   26.3120 C   0  0  0  0  0  0  0  0  0  0  0  0
   11.0344  -17.1353   24.9072 C   0  0  0  0  0  0  0  0  0  0  0  0
   11.9215  -16.9551   25.8205 O   0  0  0  0  0  0  0  0  0  0  0  0
   12.0230  -19.7000   21.9516 O   0  0  0  0  0  0  0  0  0  0  0  0
   12.6779  -20.0487   23.1295 C   0  0  0  0  0  0  0  0  0  0  0  0
   12.7069  -18.7713   23.9888 C   0  0  2  0  0  0  0  0  0  0  0  0
   11.4100  -18.1249   23.9452 N   0  0  0  0  0  0  0  0  0  0  0  0
   13.8161  -17.9550   23.4924 C   0  0  0  0  0  0  0  0  0  0  0  0
   13.5841  -16.7086   22.9594 O   0  0  0  0  0  0  0  0  0  0  0  0
   14.9852  -18.3847   23.5464 O   0  0  0  0  0  0  0  0  0  0  0  0
  2  1  1  6
  2 10  1  0
  3  2  1  0
  3  4  1  0
  4  9  1  0
  4  5  2  0
  5  6  1  0
  6  7  2  0
  8  7  1  0
  9  8  2  0
 10 11  2  0
 12 10  1  0
 12 13  1  0
 13 14  1  1
 15 14  1  0
 16 15  2  0
 17 18  1  0
 17 16  1  0
 18 23  2  0
 19 20  2  0
 19 18  1  0
 20 21  1  0
 21 22  2  0
 23 22  1  0
 23 15  1  0
 24 13  1  0
 24 25  2  0
 26 27  1  0
 28 27  1  6
 28 30  1  0
 29 28  1  0
 29 24  1  0
 30 32  2  0
 30 31  1  0
M  END
$$$$
