FWS.pdb
     RDKit          3D

 32 34  0  0  1  0  0  0  0  0999 V2000
    8.2736  -16.5333   21.4906 N   0  0  0  0  0  0  0  0  0  0  0  0
    8.9676  -15.2828   21.7019 C   0  0  1  0  0  0  0  0  0  0  0  0
    8.0113  -14.1012   21.7978 C   0  0  0  0  0  0  0  0  0  0  0  0
    7.5707  -13.7571   20.4438 C   0  0  0  0  0  0  0  0  0  0  0  0
    8.2390  -12.8167   19.6815 C   0  0  0  0  0  0  0  0  0  0  0  0
    7.8345  -12.4826   18.4062 C   0  0  0  0  0  0  0  0  0  0  0  0
    6.7292  -13.1095   17.8815 C   0  0  0  0  0  0  0  0  0  0  0  0
    6.0370  -14.0613   18.6282 C   0  0  0  0  0  0  0  0  0  0  0  0
    6.4706  -14.3746   19.9091 C   0  0  0  0  0  0  0  0  0  0  0  0
    9.6668  -15.3488   23.0117 C   0  0  0  0  0  0  0  0  0  0  0  0
   10.4760  -14.4349   23.3451 O   0  0  0  0  0  0  0  0  0  0  0  0
    9.4328  -16.4163   23.8748 N   0  0  0  0  0  0  0  0  0  0  0  0
   10.1020  -16.4665   25.1920 C   0  0  1  0  0  0  0  0  0  0  0  0
    9.0546  -16.6781   26.2173 C   0  0  0  0  0  0  0  0  0  0  0  0
    7.8964  -15.7949   26.1153 C   0  0  0  0  0  0  0  0  0  0  0  0
    6.6050  -16.1884   25.7437 C   0  0  0  0  0  0  0  0  0  0  0  0
    5.8645  -15.0852   25.7758 N   0  0  0  0  0  0  0  0  0  0  0  0
    6.5901  -14.0155   26.1415 C   0  0  0  0  0  0  0  0  0  0  0  0
    6.2824  -12.6737   26.3408 C   0  0  0  0  0  0  0  0  0  0  0  0
    7.2606  -11.7976   26.7507 C   0  0  0  0  0  0  0  0  0  0  0  0
    8.5650  -12.1987   26.9781 C   0  0  0  0  0  0  0  0  0  0  0  0
    8.8653  -13.5290   26.7787 C   0  0  0  0  0  0  0  0  0  0  0  0
    7.8887  -14.4170   26.3673 C   0  0  0  0  0  0  0  0  0  0  0  0
   11.1835  -17.4428   25.0848 C   0  0  0  0  0  0  0  0  0  0  0  0
   10.9282  -18.6967   24.9582 O   0  0  0  0  0  0  0  0  0  0  0  0
   15.1052  -16.4336   25.0635 O   0  0  0  0  0  0  0  0  0  0  0  0
   14.8938  -17.6909   24.5048 C   0  0  0  0  0  0  0  0  0  0  0  0
   13.5777  -18.2068   25.1156 C   0  0  2  0  0  0  0  0  0  0  0  0
   12.5838  -17.1516   25.0942 N   0  0  0  0  0  0  0  0  0  0  0  0
   13.9034  -18.7157   26.4491 C   0  0  0  0  0  0  0  0  0  0  0  0
   14.8221  -19.7268   26.6072 O   0  0  0  0  0  0  0  0  0  0  0  0
   13.3473  -18.2369   27.4569 O   0  0  0  0  0  0  0  0  0  0  0  0
  2  1  1  1
  2 10  1  0
  3  2  1  0
  3  4  1  0
  4  9  1  0
  4  5  2  0
  5  6  1  0
  6  7  2  0
  8  7  1  0
  9  8  2  0
 10 11  2  0
 12 10  1  0
 12 13  1  0
 13 14  1  1
 15 14  1  0
 16 15  2  0
 17 18  1  0
 17 16  1  0
 18 23  2  0
 19 20  2  0
 19 18  1  0
 20 21  1  0
 21 22  2  0
 23 22  1  0
 23 15  1  0
 24 13  1  0
 24 25  2  0
 26 27  1  0
 28 27  1  1
 28 30  1  0
 29 28  1  0
 29 24  1  0
 30 32  2  0
 30 31  1  0
M  END
$$$$
