FWS.pdb
     RDKit          3D

 32 34  0  0  1  0  0  0  0  0999 V2000
    5.8715  -16.0630   21.7694 N   0  0  0  0  0  0  0  0  0  0  0  0
    7.1753  -16.6711   21.6264 C   0  0  1  0  0  0  0  0  0  0  0  0
    7.8162  -16.3524   20.2820 C   0  0  0  0  0  0  0  0  0  0  0  0
    7.7128  -14.9088   20.0557 C   0  0  0  0  0  0  0  0  0  0  0  0
    8.1977  -14.3195   18.9026 C   0  0  0  0  0  0  0  0  0  0  0  0
    8.1078  -12.9620   18.6774 C   0  0  0  0  0  0  0  0  0  0  0  0
    7.5150  -12.1743   19.6355 C   0  0  0  0  0  0  0  0  0  0  0  0
    7.0177  -12.7423   20.8071 C   0  0  0  0  0  0  0  0  0  0  0  0
    7.1241  -14.1124   21.0028 C   0  0  0  0  0  0  0  0  0  0  0  0
    8.0785  -16.0937   22.6557 C   0  0  0  0  0  0  0  0  0  0  0  0
    8.3610  -14.8605   22.6314 O   0  0  0  0  0  0  0  0  0  0  0  0
    8.6160  -16.9084   23.6491 N   0  0  0  0  0  0  0  0  0  0  0  0
    9.6836  -16.3951   24.5333 C   0  0  1  0  0  0  0  0  0  0  0  0
    9.1056  -16.2400   25.8879 C   0  0  0  0  0  0  0  0  0  0  0  0
    7.8698  -15.4651   25.9522 C   0  0  0  0  0  0  0  0  0  0  0  0
    6.5840  -15.9650   25.7121 C   0  0  0  0  0  0  0  0  0  0  0  0
    5.7575  -14.9365   25.8716 N   0  0  0  0  0  0  0  0  0  0  0  0
    6.4229  -13.8158   26.1967 C   0  0  0  0  0  0  0  0  0  0  0  0
    6.0228  -12.5149   26.4835 C   0  0  0  0  0  0  0  0  0  0  0  0
    6.9603  -11.5648   26.8164 C   0  0  0  0  0  0  0  0  0  0  0  0
    8.3126  -11.8502   26.8797 C   0  0  0  0  0  0  0  0  0  0  0  0
    8.7044  -13.1404   26.5941 C   0  0  0  0  0  0  0  0  0  0  0  0
    7.7693  -14.1021   26.2592 C   0  0  0  0  0  0  0  0  0  0  0  0
   10.8390  -17.2725   24.3619 C   0  0  0  0  0  0  0  0  0  0  0  0
   10.7033  -18.4494   23.8619 O   0  0  0  0  0  0  0  0  0  0  0  0
   12.7549  -16.9857   21.4195 O   0  0  0  0  0  0  0  0  0  0  0  0
   12.8863  -16.1236   22.5046 C   0  0  0  0  0  0  0  0  0  0  0  0
   13.2517  -17.0135   23.7070 C   0  0  2  0  0  0  0  0  0  0  0  0
   12.1931  -16.9555   24.6959 N   0  0  0  0  0  0  0  0  0  0  0  0
   14.5606  -16.5620   24.1826 C   0  0  0  0  0  0  0  0  0  0  0  0
   15.7118  -16.9517   23.5388 O   0  0  0  0  0  0  0  0  0  0  0  0
   14.6441  -15.8193   25.1804 O   0  0  0  0  0  0  0  0  0  0  0  0
  2  1  1  6
  2 10  1  0
  3  2  1  0
  3  4  1  0
  4  9  1  0
  4  5  2  0
  5  6  1  0
  6  7  2  0
  8  7  1  0
  9  8  2  0
 10 11  2  0
 12 10  1  0
 12 13  1  0
 13 14  1  1
 15 14  1  0
 16 15  2  0
 17 18  1  0
 17 16  1  0
 18 23  2  0
 19 20  2  0
 19 18  1  0
 20 21  1  0
 21 22  2  0
 23 22  1  0
 23 15  1  0
 24 13  1  0
 24 25  2  0
 26 27  1  0
 28 27  1  6
 28 30  1  0
 29 28  1  0
 29 24  1  0
 30 32  2  0
 30 31  1  0
M  END
$$$$
