FWS.pdb
     RDKit          3D

 32 34  0  0  1  0  0  0  0  0999 V2000
    5.9577  -16.3456   21.5209 N   0  0  0  0  0  0  0  0  0  0  0  0
    7.3225  -16.7920   21.3531 C   0  0  1  0  0  0  0  0  0  0  0  0
    7.9208  -16.3336   20.0295 C   0  0  0  0  0  0  0  0  0  0  0  0
    7.7405  -14.8838   19.9228 C   0  0  0  0  0  0  0  0  0  0  0  0
    6.4849  -14.3164   19.8060 C   0  0  0  0  0  0  0  0  0  0  0  0
    6.3010  -12.9536   19.7037 C   0  0  0  0  0  0  0  0  0  0  0  0
    7.4074  -12.1378   19.7191 C   0  0  0  0  0  0  0  0  0  0  0  0
    8.6847  -12.6833   19.8358 C   0  0  0  0  0  0  0  0  0  0  0  0
    8.8350  -14.0595   19.9369 C   0  0  0  0  0  0  0  0  0  0  0  0
    8.1549  -16.1679   22.4145 C   0  0  0  0  0  0  0  0  0  0  0  0
    8.3792  -14.9228   22.3941 O   0  0  0  0  0  0  0  0  0  0  0  0
    8.6896  -16.9521   23.4335 N   0  0  0  0  0  0  0  0  0  0  0  0
    9.6411  -16.3649   24.4006 C   0  0  1  0  0  0  0  0  0  0  0  0
    8.9817  -16.3561   25.7266 C   0  0  0  0  0  0  0  0  0  0  0  0
    7.8014  -15.5026   25.8292 C   0  0  0  0  0  0  0  0  0  0  0  0
    6.4798  -15.9156   25.6205 C   0  0  0  0  0  0  0  0  0  0  0  0
    5.7270  -14.8366   25.8088 N   0  0  0  0  0  0  0  0  0  0  0  0
    6.4727  -13.7645   26.1231 C   0  0  0  0  0  0  0  0  0  0  0  0
    6.1663  -12.4426   26.4289 C   0  0  0  0  0  0  0  0  0  0  0  0
    7.1725  -11.5585   26.7425 C   0  0  0  0  0  0  0  0  0  0  0  0
    8.5044  -11.9320   26.7676 C   0  0  0  0  0  0  0  0  0  0  0  0
    8.8031  -13.2427   26.4633 C   0  0  0  0  0  0  0  0  0  0  0  0
    7.7986  -14.1385   26.1475 C   0  0  0  0  0  0  0  0  0  0  0  0
   10.9022  -17.0867   24.2511 C   0  0  0  0  0  0  0  0  0  0  0  0
   10.9892  -18.3314   24.5621 O   0  0  0  0  0  0  0  0  0  0  0  0
   14.3045  -15.2476   23.1632 O   0  0  0  0  0  0  0  0  0  0  0  0
   14.4281  -16.6144   22.9297 C   0  0  0  0  0  0  0  0  0  0  0  0
   13.3701  -17.2908   23.8209 C   0  0  2  0  0  0  0  0  0  0  0  0
   12.1299  -16.5425   23.7588 N   0  0  0  0  0  0  0  0  0  0  0  0
   13.9542  -17.4001   25.1589 C   0  0  0  0  0  0  0  0  0  0  0  0
   15.1058  -18.1236   25.3629 O   0  0  0  0  0  0  0  0  0  0  0  0
   13.4097  -16.8381   26.1294 O   0  0  0  0  0  0  0  0  0  0  0  0
  2  1  1  1
  2 10  1  0
  3  2  1  0
  3  4  1  0
  4  9  1  0
  4  5  2  0
  5  6  1  0
  6  7  2  0
  8  7  1  0
  9  8  2  0
 10 11  2  0
 12 10  1  0
 12 13  1  0
 13 14  1  1
 15 14  1  0
 16 15  2  0
 17 18  1  0
 17 16  1  0
 18 23  2  0
 19 20  2  0
 19 18  1  0
 20 21  1  0
 21 22  2  0
 23 22  1  0
 23 15  1  0
 24 13  1  0
 24 25  2  0
 26 27  1  0
 28 27  1  6
 28 30  1  0
 29 28  1  0
 29 24  1  0
 30 32  2  0
 30 31  1  0
M  END
$$$$
