FWS.pdb
     RDKit          3D

 32 34  0  0  1  0  0  0  0  0999 V2000
    8.3383  -16.1685   22.0427 N   0  0  0  0  0  0  0  0  0  0  0  0
    9.6863  -15.6564   22.1470 C   0  0  1  0  0  0  0  0  0  0  0  0
    9.7467  -14.1470   21.9525 C   0  0  0  0  0  0  0  0  0  0  0  0
    8.6500  -13.7552   21.0639 C   0  0  0  0  0  0  0  0  0  0  0  0
    8.5286  -12.4621   20.5894 C   0  0  0  0  0  0  0  0  0  0  0  0
    7.5008  -12.0796   19.7534 C   0  0  0  0  0  0  0  0  0  0  0  0
    6.5693  -13.0206   19.3834 C   0  0  0  0  0  0  0  0  0  0  0  0
    6.6679  -14.3313   19.8471 C   0  0  0  0  0  0  0  0  0  0  0  0
    7.7150  -14.6835   20.6875 C   0  0  0  0  0  0  0  0  0  0  0  0
   10.1797  -15.9098   23.5259 C   0  0  0  0  0  0  0  0  0  0  0  0
   11.3000  -15.4499   23.8927 O   0  0  0  0  0  0  0  0  0  0  0  0
    9.4104  -16.6538   24.4169 N   0  0  0  0  0  0  0  0  0  0  0  0
    9.8370  -16.7983   25.8249 C   0  0  1  0  0  0  0  0  0  0  0  0
    8.6158  -16.8105   26.6625 C   0  0  0  0  0  0  0  0  0  0  0  0
    7.6197  -15.7976   26.3254 C   0  0  0  0  0  0  0  0  0  0  0  0
    6.3737  -16.0477   25.7373 C   0  0  0  0  0  0  0  0  0  0  0  0
    5.7904  -14.8613   25.6012 N   0  0  0  0  0  0  0  0  0  0  0  0
    6.5739  -13.8716   26.0604 C   0  0  0  0  0  0  0  0  0  0  0  0
    6.4146  -12.4934   26.1602 C   0  0  0  0  0  0  0  0  0  0  0  0
    7.4115  -11.7244   26.7145 C   0  0  0  0  0  0  0  0  0  0  0  0
    8.5913  -12.2710   27.1871 C   0  0  0  0  0  0  0  0  0  0  0  0
    8.7450  -13.6369   27.0855 C   0  0  0  0  0  0  0  0  0  0  0  0
    7.7483  -14.4179   26.5304 C   0  0  0  0  0  0  0  0  0  0  0  0
   10.7366  -17.9478   25.8828 C   0  0  0  0  0  0  0  0  0  0  0  0
   11.2599  -18.3186   26.9973 O   0  0  0  0  0  0  0  0  0  0  0  0
   12.3563  -19.6931   22.6053 O   0  0  0  0  0  0  0  0  0  0  0  0
   12.1960  -20.6349   23.6178 C   0  0  0  0  0  0  0  0  0  0  0  0
   12.0993  -19.8316   24.9280 C   0  0  2  0  0  0  0  0  0  0  0  0
   11.1230  -18.7704   24.7783 N   0  0  0  0  0  0  0  0  0  0  0  0
   13.4547  -19.3779   25.2447 C   0  0  0  0  0  0  0  0  0  0  0  0
   14.4449  -20.2848   25.5419 O   0  0  0  0  0  0  0  0  0  0  0  0
   13.7240  -18.1606   25.2501 O   0  0  0  0  0  0  0  0  0  0  0  0
  2  1  1  1
  2 10  1  0
  3  2  1  0
  3  4  1  0
  4  9  1  0
  4  5  2  0
  5  6  1  0
  6  7  2  0
  8  7  1  0
  9  8  2  0
 10 11  2  0
 12 10  1  0
 12 13  1  0
 13 14  1  1
 15 14  1  0
 16 15  2  0
 17 18  1  0
 17 16  1  0
 18 23  2  0
 19 20  2  0
 19 18  1  0
 20 21  1  0
 21 22  2  0
 23 22  1  0
 23 15  1  0
 24 13  1  0
 24 25  2  0
 26 27  1  0
 28 27  1  6
 28 30  1  0
 29 28  1  0
 29 24  1  0
 30 32  2  0
 30 31  1  0
M  END
$$$$
