FWS.pdb
     RDKit          3D

 32 34  0  0  1  0  0  0  0  0999 V2000
    7.0361  -15.4068   21.6429 N   0  0  0  0  0  0  0  0  0  0  0  0
    8.3881  -15.9188   21.6294 C   0  0  1  0  0  0  0  0  0  0  0  0
    9.2983  -15.1201   20.7056 C   0  0  0  0  0  0  0  0  0  0  0  0
    8.4569  -14.3651   19.7739 C   0  0  0  0  0  0  0  0  0  0  0  0
    8.0502  -14.9026   18.5664 C   0  0  0  0  0  0  0  0  0  0  0  0
    7.2593  -14.2027   17.6798 C   0  0  0  0  0  0  0  0  0  0  0  0
    6.8656  -12.9286   18.0140 C   0  0  0  0  0  0  0  0  0  0  0  0
    7.2611  -12.3626   19.2247 C   0  0  0  0  0  0  0  0  0  0  0  0
    8.0576  -13.0943   20.0949 C   0  0  0  0  0  0  0  0  0  0  0  0
    8.9602  -15.7709   22.9930 C   0  0  0  0  0  0  0  0  0  0  0  0
    9.3892  -14.6458   23.3819 O   0  0  0  0  0  0  0  0  0  0  0  0
    9.0254  -16.8701   23.8457 N   0  0  0  0  0  0  0  0  0  0  0  0
    9.7139  -16.7588   25.1491 C   0  0  1  0  0  0  0  0  0  0  0  0
    8.6749  -16.7557   26.2043 C   0  0  0  0  0  0  0  0  0  0  0  0
    7.6675  -15.7057   26.0826 C   0  0  0  0  0  0  0  0  0  0  0  0
    6.3675  -15.8802   25.5925 C   0  0  0  0  0  0  0  0  0  0  0  0
    5.7928  -14.6831   25.6497 N   0  0  0  0  0  0  0  0  0  0  0  0
    6.6322  -13.7569   26.1415 C   0  0  0  0  0  0  0  0  0  0  0  0
    6.5050  -12.3987   26.4131 C   0  0  0  0  0  0  0  0  0  0  0  0
    7.5622  -11.7036   26.9532 C   0  0  0  0  0  0  0  0  0  0  0  0
    8.7728  -12.3068   27.2444 C   0  0  0  0  0  0  0  0  0  0  0  0
    8.8943  -13.6527   26.9729 C   0  0  0  0  0  0  0  0  0  0  0  0
    7.8371  -14.3595   26.4307 C   0  0  0  0  0  0  0  0  0  0  0  0
   10.7397  -17.7984   25.1804 C   0  0  0  0  0  0  0  0  0  0  0  0
   10.4196  -19.0416   25.1058 O   0  0  0  0  0  0  0  0  0  0  0  0
   14.5943  -16.9102   25.5904 O   0  0  0  0  0  0  0  0  0  0  0  0
   14.5044  -18.2355   25.1742 C   0  0  0  0  0  0  0  0  0  0  0  0
   13.0693  -18.6842   25.5060 C   0  0  2  0  0  0  0  0  0  0  0  0
   12.1506  -17.5855   25.2806 N   0  0  0  0  0  0  0  0  0  0  0  0
   13.0936  -19.1916   26.8790 C   0  0  0  0  0  0  0  0  0  0  0  0
   13.9106  -20.2433   27.2222 O   0  0  0  0  0  0  0  0  0  0  0  0
   12.3696  -18.6745   27.7523 O   0  0  0  0  0  0  0  0  0  0  0  0
  2  1  1  1
  2 10  1  0
  3  2  1  0
  3  4  1  0
  4  9  1  0
  4  5  2  0
  5  6  1  0
  6  7  2  0
  8  7  1  0
  9  8  2  0
 10 11  2  0
 12 10  1  0
 12 13  1  0
 13 14  1  1
 15 14  1  0
 16 15  2  0
 17 18  1  0
 17 16  1  0
 18 23  2  0
 19 20  2  0
 19 18  1  0
 20 21  1  0
 21 22  2  0
 23 22  1  0
 23 15  1  0
 24 13  1  0
 24 25  2  0
 26 27  1  0
 28 27  1  1
 28 30  1  0
 29 28  1  0
 29 24  1  0
 30 32  2  0
 30 31  1  0
M  END
$$$$
