FWS.pdb
     RDKit          3D

 32 34  0  0  1  0  0  0  0  0999 V2000
    5.4776  -15.8040   21.5115 N   0  0  0  0  0  0  0  0  0  0  0  0
    6.6893  -16.5886   21.4304 C   0  0  1  0  0  0  0  0  0  0  0  0
    7.3576  -16.4786   20.0662 C   0  0  0  0  0  0  0  0  0  0  0  0
    7.6065  -15.0615   19.7908 C   0  0  0  0  0  0  0  0  0  0  0  0
    7.2578  -14.0755   20.6954 C   0  0  0  0  0  0  0  0  0  0  0  0
    7.4853  -12.7380   20.4484 C   0  0  0  0  0  0  0  0  0  0  0  0
    8.0790  -12.3802   19.2612 C   0  0  0  0  0  0  0  0  0  0  0  0
    8.4407  -13.3538   18.3316 C   0  0  0  0  0  0  0  0  0  0  0  0
    8.1976  -14.6915   18.6113 C   0  0  0  0  0  0  0  0  0  0  0  0
    7.6674  -16.0450   22.4085 C   0  0  0  0  0  0  0  0  0  0  0  0
    7.9048  -14.8027   22.4439 O   0  0  0  0  0  0  0  0  0  0  0  0
    8.3246  -16.9017   23.2880 N   0  0  0  0  0  0  0  0  0  0  0  0
    9.3397  -16.3707   24.2223 C   0  0  1  0  0  0  0  0  0  0  0  0
    8.7608  -16.4174   25.5845 C   0  0  0  0  0  0  0  0  0  0  0  0
    7.6622  -15.4865   25.8262 C   0  0  0  0  0  0  0  0  0  0  0  0
    6.3022  -15.7733   25.6563 C   0  0  0  0  0  0  0  0  0  0  0  0
    5.6520  -14.6600   25.9791 N   0  0  0  0  0  0  0  0  0  0  0  0
    6.4989  -13.6830   26.3433 C   0  0  0  0  0  0  0  0  0  0  0  0
    6.3191  -12.3744   26.7791 C   0  0  0  0  0  0  0  0  0  0  0  0
    7.4096  -11.6045   27.1118 C   0  0  0  0  0  0  0  0  0  0  0  0
    8.7053  -12.0826   27.0303 C   0  0  0  0  0  0  0  0  0  0  0  0
    8.8785  -13.3797   26.5973 C   0  0  0  0  0  0  0  0  0  0  0  0
    7.7886  -14.1610   26.2613 C   0  0  0  0  0  0  0  0  0  0  0  0
   10.5801  -17.0978   23.9638 C   0  0  0  0  0  0  0  0  0  0  0  0
   10.6361  -18.3747   24.1047 O   0  0  0  0  0  0  0  0  0  0  0  0
   13.8419  -15.3373   22.4960 O   0  0  0  0  0  0  0  0  0  0  0  0
   13.9690  -16.7196   22.3907 C   0  0  0  0  0  0  0  0  0  0  0  0
   13.0335  -17.3108   23.4614 C   0  0  2  0  0  0  0  0  0  0  0  0
   11.8181  -16.5240   23.5351 N   0  0  0  0  0  0  0  0  0  0  0  0
   13.8023  -17.3701   24.7059 C   0  0  0  0  0  0  0  0  0  0  0  0
   14.9537  -18.1182   24.7825 O   0  0  0  0  0  0  0  0  0  0  0  0
   13.4174  -16.7424   25.7120 O   0  0  0  0  0  0  0  0  0  0  0  0
  2  1  1  6
  2 10  1  0
  3  2  1  0
  3  4  1  0
  4  9  1  0
  4  5  2  0
  5  6  1  0
  6  7  2  0
  8  7  1  0
  9  8  2  0
 10 11  2  0
 12 10  1  0
 12 13  1  0
 13 14  1  1
 15 14  1  0
 16 15  2  0
 17 18  1  0
 17 16  1  0
 18 23  2  0
 19 20  2  0
 19 18  1  0
 20 21  1  0
 21 22  2  0
 23 22  1  0
 23 15  1  0
 24 13  1  0
 24 25  2  0
 26 27  1  0
 28 27  1  6
 28 30  1  0
 29 28  1  0
 29 24  1  0
 30 32  2  0
 30 31  1  0
M  END
$$$$
