FWS.pdb
     RDKit          3D

 32 34  0  0  1  0  0  0  0  0999 V2000
    8.0024  -17.0752   21.6448 N   0  0  0  0  0  0  0  0  0  0  0  0
    9.4324  -16.8702   21.7015 C   0  0  1  0  0  0  0  0  0  0  0  0
    9.8819  -15.6985   20.8383 C   0  0  0  0  0  0  0  0  0  0  0  0
    8.8996  -14.6212   20.9806 C   0  0  0  0  0  0  0  0  0  0  0  0
    7.7585  -14.5734   20.2010 C   0  0  0  0  0  0  0  0  0  0  0  0
    6.8263  -13.5647   20.3238 C   0  0  0  0  0  0  0  0  0  0  0  0
    7.0452  -12.5768   21.2545 C   0  0  0  0  0  0  0  0  0  0  0  0
    8.1870  -12.6007   22.0535 C   0  0  0  0  0  0  0  0  0  0  0  0
    9.1057  -13.6305   21.9045 C   0  0  0  0  0  0  0  0  0  0  0  0
    9.8012  -16.5139   23.0964 C   0  0  0  0  0  0  0  0  0  0  0  0
   10.7693  -15.7291   23.3154 O   0  0  0  0  0  0  0  0  0  0  0  0
    9.0822  -17.0429   24.1653 N   0  0  0  0  0  0  0  0  0  0  0  0
    9.6489  -17.0097   25.5302 C   0  0  1  0  0  0  0  0  0  0  0  0
    8.5794  -16.5527   26.4469 C   0  0  0  0  0  0  0  0  0  0  0  0
    7.6422  -15.5883   25.8782 C   0  0  0  0  0  0  0  0  0  0  0  0
    6.5783  -15.8975   25.0218 C   0  0  0  0  0  0  0  0  0  0  0  0
    5.9879  -14.7401   24.7418 N   0  0  0  0  0  0  0  0  0  0  0  0
    6.5980  -13.7142   25.3580 C   0  0  0  0  0  0  0  0  0  0  0  0
    6.3564  -12.3451   25.4030 C   0  0  0  0  0  0  0  0  0  0  0  0
    7.1621  -11.5295   26.1634 C   0  0  0  0  0  0  0  0  0  0  0  0
    8.2251  -12.0193   26.9010 C   0  0  0  0  0  0  0  0  0  0  0  0
    8.4610  -13.3765   26.8528 C   0  0  0  0  0  0  0  0  0  0  0  0
    7.6563  -14.2040   26.0919 C   0  0  0  0  0  0  0  0  0  0  0  0
   10.2653  -18.3125   25.7686 C   0  0  0  0  0  0  0  0  0  0  0  0
   10.1462  -19.2638   24.9116 O   0  0  0  0  0  0  0  0  0  0  0  0
   14.4427  -19.2835   25.8170 O   0  0  0  0  0  0  0  0  0  0  0  0
   13.2838  -18.5226   25.9426 C   0  0  0  0  0  0  0  0  0  0  0  0
   12.3086  -19.3756   26.7747 C   0  0  2  0  0  0  0  0  0  0  0  0
   11.0449  -18.6782   26.9107 N   0  0  0  0  0  0  0  0  0  0  0  0
   12.9836  -19.6740   28.0390 C   0  0  0  0  0  0  0  0  0  0  0  0
   14.0636  -20.5248   28.0721 O   0  0  0  0  0  0  0  0  0  0  0  0
   12.5827  -19.1595   29.1014 O   0  0  0  0  0  0  0  0  0  0  0  0
  2  1  1  1
  2 10  1  0
  3  2  1  0
  3  4  1  0
  4  9  1  0
  4  5  2  0
  5  6  1  0
  6  7  2  0
  8  7  1  0
  9  8  2  0
 10 11  2  0
 12 10  1  0
 12 13  1  0
 13 14  1  1
 15 14  1  0
 16 15  2  0
 17 18  1  0
 17 16  1  0
 18 23  2  0
 19 20  2  0
 19 18  1  0
 20 21  1  0
 21 22  2  0
 23 22  1  0
 23 15  1  0
 24 13  1  0
 24 25  2  0
 26 27  1  0
 28 27  1  6
 28 30  1  0
 29 28  1  0
 29 24  1  0
 30 32  2  0
 30 31  1  0
M  END
$$$$
