FYT.pdb
     RDKit          3D

 31 32  0  0  1  0  0  0  0  0999 V2000
    5.8517  -18.0512   26.2856 N   0  0  0  0  0  0  0  0  0  0  0  0
    6.3666  -16.7452   26.0338 C   0  0  1  0  0  0  0  0  0  0  0  0
    7.2398  -16.2079   27.1445 C   0  0  0  0  0  0  0  0  0  0  0  0
    7.1868  -14.7312   27.0716 C   0  0  0  0  0  0  0  0  0  0  0  0
    8.3576  -14.0086   27.1060 C   0  0  0  0  0  0  0  0  0  0  0  0
    8.3186  -12.6259   27.0388 C   0  0  0  0  0  0  0  0  0  0  0  0
    7.0943  -12.0365   26.9398 C   0  0  0  0  0  0  0  0  0  0  0  0
    5.8970  -12.7213   26.9022 C   0  0  0  0  0  0  0  0  0  0  0  0
    5.9471  -14.1149   26.9705 C   0  0  0  0  0  0  0  0  0  0  0  0
    7.0094  -16.6174   24.7043 C   0  0  0  0  0  0  0  0  0  0  0  0
    7.5815  -17.6620   24.2435 O   0  0  0  0  0  0  0  0  0  0  0  0
    8.9701  -12.7652   16.7522 O   0  0  0  0  0  0  0  0  0  0  0  0
    8.5193  -13.1213   18.0381 C   0  0  0  0  0  0  0  0  0  0  0  0
    7.5858  -14.1237   18.2090 C   0  0  0  0  0  0  0  0  0  0  0  0
    7.1273  -14.4926   19.4603 C   0  0  0  0  0  0  0  0  0  0  0  0
    7.5979  -13.8584   20.5904 C   0  0  0  0  0  0  0  0  0  0  0  0
    7.1116  -14.2096   21.9110 C   0  0  0  0  0  0  0  0  0  0  0  0
    7.6254  -15.4387   22.5546 C   0  0  2  0  0  0  0  0  0  0  0  0
    7.0370  -15.4488   23.9227 N   0  0  0  0  0  0  0  0  0  0  0  0
    9.0839  -15.5206   22.7549 C   0  0  0  0  0  0  0  0  0  0  0  0
    9.6617  -14.8431   23.6557 O   0  0  0  0  0  0  0  0  0  0  0  0
    8.5279  -12.8583   20.4324 C   0  0  0  0  0  0  0  0  0  0  0  0
    8.9902  -12.4871   19.1652 C   0  0  0  0  0  0  0  0  0  0  0  0
   11.4307  -18.0899   23.8850 C   0  0  0  0  0  0  0  0  0  0  0  0
   11.9219  -17.7225   22.5009 C   0  0  1  0  0  0  0  0  0  0  0  0
   11.3984  -18.6724   21.6243 O   0  0  0  0  0  0  0  0  0  0  0  0
   11.3740  -16.3385   22.1731 C   0  0  2  0  0  0  0  0  0  0  0  0
    9.9597  -16.3490   21.9836 N   0  0  0  0  0  0  0  0  0  0  0  0
   12.1238  -15.7144   21.0772 C   0  0  0  0  0  0  0  0  0  0  0  0
   11.6299  -15.6130   19.8980 O   0  0  0  0  0  0  0  0  0  0  0  0
   13.3908  -15.1992   21.2281 O   0  0  0  0  0  0  0  0  0  0  0  0
  2  1  1  1
  3  2  1  0
  3  4  1  0
  4  9  1  0
  4  5  2  0
  5  6  1  0
  6  7  2  0
  8  7  1  0
  9  8  2  0
 10 19  1  0
 10  2  1  0
 11 10  2  0
 12 13  1  0
 13 14  2  0
 14 15  1  0
 16 17  1  0
 16 15  2  0
 18 17  1  1
 18 19  1  0
 20 18  1  0
 21 20  2  0
 22 16  1  0
 23 22  2  0
 23 13  1  0
 25 27  1  0
 25 24  1  1
 25 26  1  0
 27 28  1  6
 28 20  1  0
 29 27  1  0
 29 31  1  0
 30 29  2  0
M  END
$$$$
