FYT.pdb
     RDKit          3D

 31 32  0  0  1  0  0  0  0  0999 V2000
    6.1265  -18.3074   26.3536 N   0  0  0  0  0  0  0  0  0  0  0  0
    6.5454  -16.9559   26.1745 C   0  0  1  0  0  0  0  0  0  0  0  0
    7.3933  -16.4238   27.3071 C   0  0  0  0  0  0  0  0  0  0  0  0
    7.3787  -14.9474   27.2126 C   0  0  0  0  0  0  0  0  0  0  0  0
    6.1788  -14.2896   27.0656 C   0  0  0  0  0  0  0  0  0  0  0  0
    6.1545  -12.9078   26.9758 C   0  0  0  0  0  0  0  0  0  0  0  0
    7.3479  -12.2537   27.0390 C   0  0  0  0  0  0  0  0  0  0  0  0
    8.5725  -12.8723   27.1855 C   0  0  0  0  0  0  0  0  0  0  0  0
    8.5862  -14.2655   27.2752 C   0  0  0  0  0  0  0  0  0  0  0  0
    7.1604  -16.7061   24.8491 C   0  0  0  0  0  0  0  0  0  0  0  0
    8.0173  -17.5628   24.4463 O   0  0  0  0  0  0  0  0  0  0  0  0
    8.4847  -12.8312   16.8184 O   0  0  0  0  0  0  0  0  0  0  0  0
    8.0720  -13.1993   18.1136 C   0  0  0  0  0  0  0  0  0  0  0  0
    8.3744  -12.4094   19.2045 C   0  0  0  0  0  0  0  0  0  0  0  0
    7.9806  -12.7480   20.4861 C   0  0  0  0  0  0  0  0  0  0  0  0
    7.2633  -13.9032   20.7130 C   0  0  0  0  0  0  0  0  0  0  0  0
    6.8630  -14.2926   22.0516 C   0  0  0  0  0  0  0  0  0  0  0  0
    7.5196  -15.4607   22.6788 C   0  0  2  0  0  0  0  0  0  0  0  0
    6.8756  -15.6118   24.0133 N   0  0  0  0  0  0  0  0  0  0  0  0
    8.9635  -15.3405   22.9522 C   0  0  0  0  0  0  0  0  0  0  0  0
    9.3924  -14.6474   23.9216 O   0  0  0  0  0  0  0  0  0  0  0  0
    6.9565  -14.6979   19.6340 C   0  0  0  0  0  0  0  0  0  0  0  0
    7.3560  -14.3531   18.3383 C   0  0  0  0  0  0  0  0  0  0  0  0
   11.6143  -18.3172   22.6567 C   0  0  0  0  0  0  0  0  0  0  0  0
   11.8143  -17.0304   23.4287 C   0  0  1  0  0  0  0  0  0  0  0  0
   13.1790  -16.9326   23.6989 O   0  0  0  0  0  0  0  0  0  0  0  0
   11.3675  -15.8832   22.5302 C   0  0  2  0  0  0  0  0  0  0  0  0
    9.9871  -15.9774   22.1810 N   0  0  0  0  0  0  0  0  0  0  0  0
   12.2690  -15.7220   21.3838 C   0  0  0  0  0  0  0  0  0  0  0  0
   11.8427  -15.8071   20.1772 O   0  0  0  0  0  0  0  0  0  0  0  0
   13.6158  -15.4714   21.5131 O   0  0  0  0  0  0  0  0  0  0  0  0
  2  1  1  1
  3  2  1  0
  3  4  1  0
  4  9  1  0
  4  5  2  0
  5  6  1  0
  6  7  2  0
  8  7  1  0
  9  8  2  0
 10 19  1  0
 10  2  1  0
 11 10  2  0
 12 13  1  0
 13 14  2  0
 14 15  1  0
 16 17  1  0
 16 15  2  0
 18 17  1  1
 18 19  1  0
 20 18  1  0
 21 20  2  0
 22 16  1  0
 23 22  2  0
 23 13  1  0
 25 27  1  0
 25 24  1  6
 25 26  1  0
 27 28  1  6
 28 20  1  0
 29 27  1  0
 29 31  1  0
 30 29  2  0
M  END
$$$$
