FYT.pdb
     RDKit          3D

 31 32  0  0  1  0  0  0  0  0999 V2000
   10.2274  -17.3369   19.4685 N   0  0  0  0  0  0  0  0  0  0  0  0
    9.3126  -17.7647   20.4757 C   0  0  1  0  0  0  0  0  0  0  0  0
    9.3003  -19.2603   20.6948 C   0  0  0  0  0  0  0  0  0  0  0  0
    8.2677  -19.5479   21.7144 C   0  0  0  0  0  0  0  0  0  0  0  0
    6.9374  -19.4934   21.3658 C   0  0  0  0  0  0  0  0  0  0  0  0
    5.9631  -19.7605   22.3131 C   0  0  0  0  0  0  0  0  0  0  0  0
    6.3804  -20.0712   23.5723 C   0  0  0  0  0  0  0  0  0  0  0  0
    7.7015  -20.1370   23.9648 C   0  0  0  0  0  0  0  0  0  0  0  0
    8.6760  -19.8660   23.0024 C   0  0  0  0  0  0  0  0  0  0  0  0
    9.4500  -17.0135   21.7462 C   0  0  0  0  0  0  0  0  0  0  0  0
   10.6379  -16.8382   22.1806 O   0  0  0  0  0  0  0  0  0  0  0  0
    6.8022  -11.2766   28.2095 O   0  0  0  0  0  0  0  0  0  0  0  0
    6.9646  -12.1337   27.1039 C   0  0  0  0  0  0  0  0  0  0  0  0
    7.9056  -11.8637   26.1306 C   0  0  0  0  0  0  0  0  0  0  0  0
    8.0853  -12.6892   25.0360 C   0  0  0  0  0  0  0  0  0  0  0  0
    7.3165  -13.8234   24.8840 C   0  0  0  0  0  0  0  0  0  0  0  0
    7.4683  -14.6894   23.7305 C   0  0  0  0  0  0  0  0  0  0  0  0
    8.6236  -15.6123   23.6810 C   0  0  2  0  0  0  0  0  0  0  0  0
    8.3857  -16.4868   22.4992 N   0  0  0  0  0  0  0  0  0  0  0  0
    8.7855  -16.5316   24.8223 C   0  0  0  0  0  0  0  0  0  0  0  0
    7.8421  -17.2920   25.1914 O   0  0  0  0  0  0  0  0  0  0  0  0
    6.3759  -14.1023   25.8470 C   0  0  0  0  0  0  0  0  0  0  0  0
    6.1961  -13.2656   26.9538 C   0  0  0  0  0  0  0  0  0  0  0  0
   10.6460  -19.4036   25.2754 C   0  0  0  0  0  0  0  0  0  0  0  0
   11.0654  -18.6511   26.5203 C   0  0  1  0  0  0  0  0  0  0  0  0
   12.3372  -18.1372   26.2690 O   0  0  0  0  0  0  0  0  0  0  0  0
   10.0668  -17.5188   26.7291 C   0  0  2  0  0  0  0  0  0  0  0  0
    9.9836  -16.6567   25.5949 N   0  0  0  0  0  0  0  0  0  0  0  0
   10.3079  -16.8229   27.9980 C   0  0  0  0  0  0  0  0  0  0  0  0
   10.5249  -15.5595   28.0404 O   0  0  0  0  0  0  0  0  0  0  0  0
   10.3191  -17.4605   29.2174 O   0  0  0  0  0  0  0  0  0  0  0  0
  2  1  1  6
  3  2  1  0
  3  4  1  0
  4  9  1  0
  4  5  2  0
  5  6  1  0
  6  7  2  0
  8  7  1  0
  9  8  2  0
 10 19  1  0
 10  2  1  0
 11 10  2  0
 12 13  1  0
 13 14  2  0
 14 15  1  0
 16 17  1  0
 16 15  2  0
 18 17  1  1
 18 19  1  0
 20 18  1  0
 21 20  2  0
 22 16  1  0
 23 22  2  0
 23 13  1  0
 25 27  1  0
 25 24  1  6
 25 26  1  0
 27 28  1  6
 28 20  1  0
 29 27  1  0
 29 31  1  0
 30 29  2  0
M  END
$$$$
