FYT.pdb
     RDKit          3D

 31 32  0  0  1  0  0  0  0  0999 V2000
   10.8261  -17.0242   19.4775 N   0  0  0  0  0  0  0  0  0  0  0  0
    9.9623  -16.1864   20.2431 C   0  0  1  0  0  0  0  0  0  0  0  0
    8.5420  -16.1397   19.7280 C   0  0  0  0  0  0  0  0  0  0  0  0
    7.8689  -15.0028   20.3935 C   0  0  0  0  0  0  0  0  0  0  0  0
    6.9187  -15.2483   21.3585 C   0  0  0  0  0  0  0  0  0  0  0  0
    6.2826  -14.1908   21.9870 C   0  0  0  0  0  0  0  0  0  0  0  0
    6.6378  -12.9308   21.6096 C   0  0  0  0  0  0  0  0  0  0  0  0
    7.5836  -12.6393   20.6483 C   0  0  0  0  0  0  0  0  0  0  0  0
    8.2192  -13.7124   20.0205 C   0  0  0  0  0  0  0  0  0  0  0  0
   10.0216  -16.4613   21.6985 C   0  0  0  0  0  0  0  0  0  0  0  0
   10.4764  -17.6028   22.0462 O   0  0  0  0  0  0  0  0  0  0  0  0
   10.3816  -14.2298   30.4512 O   0  0  0  0  0  0  0  0  0  0  0  0
   10.1736  -14.3046   29.0603 C   0  0  0  0  0  0  0  0  0  0  0  0
   10.4901  -15.4496   28.3573 C   0  0  0  0  0  0  0  0  0  0  0  0
   10.2952  -15.5487   26.9920 C   0  0  0  0  0  0  0  0  0  0  0  0
    9.7706  -14.4887   26.2836 C   0  0  0  0  0  0  0  0  0  0  0  0
    9.5827  -14.5598   24.8471 C   0  0  0  0  0  0  0  0  0  0  0  0
   10.0065  -15.7849   24.1341 C   0  0  2  0  0  0  0  0  0  0  0  0
    9.6201  -15.5726   22.7114 N   0  0  0  0  0  0  0  0  0  0  0  0
    9.3512  -17.0436   24.5342 C   0  0  0  0  0  0  0  0  0  0  0  0
    8.0931  -17.1770   24.4727 O   0  0  0  0  0  0  0  0  0  0  0  0
    9.4517  -13.3430   26.9732 C   0  0  0  0  0  0  0  0  0  0  0  0
    9.6499  -13.2452   28.3547 C   0  0  0  0  0  0  0  0  0  0  0  0
    8.7677  -20.1481   23.2939 C   0  0  0  0  0  0  0  0  0  0  0  0
    9.4397  -20.5381   24.5932 C   0  0  1  0  0  0  0  0  0  0  0  0
   10.7692  -20.8261   24.2865 O   0  0  0  0  0  0  0  0  0  0  0  0
    9.3587  -19.3377   25.5289 C   0  0  2  0  0  0  0  0  0  0  0  0
   10.0467  -18.2007   25.0089 N   0  0  0  0  0  0  0  0  0  0  0  0
    9.7446  -19.7013   26.8969 C   0  0  0  0  0  0  0  0  0  0  0  0
   10.7143  -19.1165   27.4990 O   0  0  0  0  0  0  0  0  0  0  0  0
    9.1071  -20.6792   27.6254 O   0  0  0  0  0  0  0  0  0  0  0  0
  2  1  1  6
  3  2  1  0
  3  4  1  0
  4  9  1  0
  4  5  2  0
  5  6  1  0
  6  7  2  0
  8  7  1  0
  9  8  2  0
 10 19  1  0
 10  2  1  0
 11 10  2  0
 12 13  1  0
 13 14  2  0
 14 15  1  0
 16 17  1  0
 16 15  2  0
 18 17  1  1
 18 19  1  0
 20 18  1  0
 21 20  2  0
 22 16  1  0
 23 22  2  0
 23 13  1  0
 25 27  1  0
 25 24  1  6
 25 26  1  0
 27 28  1  6
 28 20  1  0
 29 27  1  0
 29 31  1  0
 30 29  2  0
M  END
$$$$
