FYT.pdb
     RDKit          3D

 31 32  0  0  1  0  0  0  0  0999 V2000
    9.6781  -17.1438   19.8363 N   0  0  0  0  0  0  0  0  0  0  0  0
    9.2189  -16.1900   20.7921 C   0  0  1  0  0  0  0  0  0  0  0  0
    7.7237  -15.9696   20.7658 C   0  0  0  0  0  0  0  0  0  0  0  0
    7.4893  -14.5179   20.9270 C   0  0  0  0  0  0  0  0  0  0  0  0
    7.7322  -13.6706   19.8699 C   0  0  0  0  0  0  0  0  0  0  0  0
    7.5163  -12.3100   20.0110 C   0  0  0  0  0  0  0  0  0  0  0  0
    7.0636  -11.8680   21.2176 C   0  0  0  0  0  0  0  0  0  0  0  0
    6.8073  -12.6808   22.3027 C   0  0  0  0  0  0  0  0  0  0  0  0
    7.0281  -14.0510   22.1503 C   0  0  0  0  0  0  0  0  0  0  0  0
    9.7232  -16.4472   22.1621 C   0  0  0  0  0  0  0  0  0  0  0  0
   10.6571  -17.3108   22.2743 O   0  0  0  0  0  0  0  0  0  0  0  0
   10.6554  -14.9670   31.0367 O   0  0  0  0  0  0  0  0  0  0  0  0
   10.3331  -14.9693   29.6658 C   0  0  0  0  0  0  0  0  0  0  0  0
   10.6668  -13.9008   28.8580 C   0  0  0  0  0  0  0  0  0  0  0  0
   10.3624  -13.8786   27.5093 C   0  0  0  0  0  0  0  0  0  0  0  0
    9.7059  -14.9408   26.9249 C   0  0  0  0  0  0  0  0  0  0  0  0
    9.3520  -14.9280   25.5184 C   0  0  0  0  0  0  0  0  0  0  0  0
   10.0234  -15.8810   24.6073 C   0  0  2  0  0  0  0  0  0  0  0  0
    9.2571  -15.8209   23.3316 N   0  0  0  0  0  0  0  0  0  0  0  0
   10.0086  -17.3003   25.0065 C   0  0  0  0  0  0  0  0  0  0  0  0
    8.9271  -17.9581   25.0521 O   0  0  0  0  0  0  0  0  0  0  0  0
    9.3684  -16.0105   27.7197 C   0  0  0  0  0  0  0  0  0  0  0  0
    9.6777  -16.0306   29.0840 C   0  0  0  0  0  0  0  0  0  0  0  0
   11.1438  -20.3886   23.6538 C   0  0  0  0  0  0  0  0  0  0  0  0
   11.8206  -20.3876   25.0079 C   0  0  1  0  0  0  0  0  0  0  0  0
   13.1389  -19.9846   24.7972 O   0  0  0  0  0  0  0  0  0  0  0  0
   11.0901  -19.3769   25.8842 C   0  0  2  0  0  0  0  0  0  0  0  0
   11.1737  -18.0510   25.3632 N   0  0  0  0  0  0  0  0  0  0  0  0
   11.4952  -19.4985   27.2891 C   0  0  0  0  0  0  0  0  0  0  0  0
   12.0724  -18.5344   27.9074 O   0  0  0  0  0  0  0  0  0  0  0  0
   11.2904  -20.6350   28.0372 O   0  0  0  0  0  0  0  0  0  0  0  0
  2  1  1  6
  3  2  1  0
  3  4  1  0
  4  9  1  0
  4  5  2  0
  5  6  1  0
  6  7  2  0
  8  7  1  0
  9  8  2  0
 10 19  1  0
 10  2  1  0
 11 10  2  0
 12 13  1  0
 13 14  2  0
 14 15  1  0
 16 17  1  0
 16 15  2  0
 18 17  1  1
 18 19  1  0
 20 18  1  0
 21 20  2  0
 22 16  1  0
 23 22  2  0
 23 13  1  0
 25 27  1  0
 25 24  1  6
 25 26  1  0
 27 28  1  6
 28 20  1  0
 29 27  1  0
 29 31  1  0
 30 29  2  0
M  END
$$$$
