FYT.pdb
     RDKit          3D

 31 32  0  0  1  0  0  0  0  0999 V2000
    9.8767  -17.2604   19.7589 N   0  0  0  0  0  0  0  0  0  0  0  0
    9.3604  -16.3191   20.6979 C   0  0  1  0  0  0  0  0  0  0  0  0
    7.8585  -16.1589   20.6398 C   0  0  0  0  0  0  0  0  0  0  0  0
    7.5696  -14.7079   20.6422 C   0  0  0  0  0  0  0  0  0  0  0  0
    7.7802  -13.9731   19.4977 C   0  0  0  0  0  0  0  0  0  0  0  0
    7.5133  -12.6142   19.4899 C   0  0  0  0  0  0  0  0  0  0  0  0
    7.0445  -12.0600   20.6428 C   0  0  0  0  0  0  0  0  0  0  0  0
    6.8192  -12.7581   21.8114 C   0  0  0  0  0  0  0  0  0  0  0  0
    7.0914  -14.1275   21.8089 C   0  0  0  0  0  0  0  0  0  0  0  0
    9.8465  -16.5464   22.0796 C   0  0  0  0  0  0  0  0  0  0  0  0
   10.8494  -17.3257   22.2115 O   0  0  0  0  0  0  0  0  0  0  0  0
   10.5291  -14.7933   30.9341 O   0  0  0  0  0  0  0  0  0  0  0  0
   10.2256  -14.8615   29.5606 C   0  0  0  0  0  0  0  0  0  0  0  0
   10.6783  -13.8939   28.6863 C   0  0  0  0  0  0  0  0  0  0  0  0
   10.3947  -13.9380   27.3336 C   0  0  0  0  0  0  0  0  0  0  0  0
    9.6392  -14.9667   26.8126 C   0  0  0  0  0  0  0  0  0  0  0  0
    9.3061  -15.0193   25.4019 C   0  0  0  0  0  0  0  0  0  0  0  0
   10.0303  -15.9750   24.5352 C   0  0  2  0  0  0  0  0  0  0  0  0
    9.2940  -15.9768   23.2405 N   0  0  0  0  0  0  0  0  0  0  0  0
   10.0518  -17.3821   24.9754 C   0  0  0  0  0  0  0  0  0  0  0  0
    8.9864  -18.0632   25.0486 O   0  0  0  0  0  0  0  0  0  0  0  0
    9.1827  -15.9360   27.6739 C   0  0  0  0  0  0  0  0  0  0  0  0
    9.4711  -15.8892   29.0421 C   0  0  0  0  0  0  0  0  0  0  0  0
   11.4375  -20.4264   23.6573 C   0  0  0  0  0  0  0  0  0  0  0  0
   12.0185  -20.3990   25.0550 C   0  0  1  0  0  0  0  0  0  0  0  0
   13.3313  -19.9444   24.9349 O   0  0  0  0  0  0  0  0  0  0  0  0
   11.1899  -19.4181   25.8761 C   0  0  2  0  0  0  0  0  0  0  0  0
   11.2368  -18.0948   25.3442 N   0  0  0  0  0  0  0  0  0  0  0  0
   11.5201  -19.5056   27.3030 C   0  0  0  0  0  0  0  0  0  0  0  0
   12.2185  -18.6024   27.8873 O   0  0  0  0  0  0  0  0  0  0  0  0
   11.1130  -20.5441   28.1089 O   0  0  0  0  0  0  0  0  0  0  0  0
  2  1  1  6
  3  2  1  0
  3  4  1  0
  4  9  1  0
  4  5  2  0
  5  6  1  0
  6  7  2  0
  8  7  1  0
  9  8  2  0
 10 19  1  0
 10  2  1  0
 11 10  2  0
 12 13  1  0
 13 14  2  0
 14 15  1  0
 16 17  1  0
 16 15  2  0
 18 17  1  1
 18 19  1  0
 20 18  1  0
 21 20  2  0
 22 16  1  0
 23 22  2  0
 23 13  1  0
 25 27  1  0
 25 24  1  6
 25 26  1  0
 27 28  1  6
 28 20  1  0
 29 27  1  0
 29 31  1  0
 30 29  2  0
M  END
$$$$
