CYE.pdb
     RDKit          3D

 28 28  0  0  1  0  0  0  0  0999 V2000
   34.7456   -9.9834  -16.8733 N   0  0  0  0  0  0  0  0  0  0  0  0
   34.4492  -10.1186  -18.3003 C   0  0  1  0  0  0  0  0  0  0  0  0
   35.5174  -11.0464  -18.8659 C   0  0  0  0  0  0  0  0  0  0  0  0
   37.1708  -10.3429  -18.6991 S   0  0  0  0  0  0  0  0  0  0  0  0
   33.1016  -10.6743  -18.4890 C   0  0  0  0  0  0  0  0  0  0  0  0
   32.6740  -10.7857  -19.6708 O   0  0  0  0  0  0  0  0  0  0  0  0
   25.5341  -14.9911  -16.5016 O   0  0  0  0  0  0  0  0  0  0  0  0
   26.7919  -14.3896  -16.4789 C   0  0  0  0  0  0  0  0  0  0  0  0
   27.2924  -13.7870  -15.3508 C   0  0  0  0  0  0  0  0  0  0  0  0
   28.5544  -13.2035  -15.3893 C   0  0  0  0  0  0  0  0  0  0  0  0
   29.3453  -13.1941  -16.5107 C   0  0  0  0  0  0  0  0  0  0  0  0
   30.6766  -12.5853  -16.5517 C   0  0  0  0  0  0  0  0  0  0  0  0
   30.9073  -11.5319  -17.5914 C   0  0  2  0  0  0  0  0  0  0  0  0
   32.3087  -11.0707  -17.4022 N   0  0  0  0  0  0  0  0  0  0  0  0
   30.0453  -10.3551  -17.5235 C   0  0  0  0  0  0  0  0  0  0  0  0
   30.4711   -9.3387  -16.8467 O   0  0  0  0  0  0  0  0  0  0  0  0
   28.8140  -13.8144  -17.6491 C   0  0  0  0  0  0  0  0  0  0  0  0
   27.5638  -14.3889  -17.6000 C   0  0  0  0  0  0  0  0  0  0  0  0
   28.7787  -10.1907  -18.1283 N   0  0  0  0  0  0  0  0  0  0  0  0
   28.1633   -8.8824  -18.1735 C   0  0  1  0  0  0  0  0  0  0  0  0
   28.9849   -7.9595  -19.0632 C   0  0  0  0  0  0  0  0  0  0  0  0
   29.5709   -6.8256  -18.3032 C   0  0  0  0  0  0  0  0  0  0  0  0
   30.3577   -5.9062  -19.1624 C   0  0  0  0  0  0  0  0  0  0  0  0
   31.5990   -5.9808  -19.1531 O   0  0  0  0  0  0  0  0  0  0  0  0
   26.7555   -9.0029  -18.5943 C   0  0  0  0  0  0  0  0  0  0  0  0
   25.9097   -8.1242  -18.2914 O   0  0  0  0  0  0  0  0  0  0  0  0
   29.7315   -4.9812  -19.9615 O   0  0  0  0  0  0  0  0  0  0  0  0
   26.2475  -10.0605  -19.3413 O   0  0  0  0  0  0  0  0  0  0  0  0
  2  1  1  1
  3  2  1  0
  3  4  1  0
  5  6  2  0
  5  2  1  0
  8  7  1  0
  9  8  2  0
 10  9  1  0
 11 10  2  0
 11 17  1  0
 12 11  1  0
 13 12  1  1
 13 14  1  0
 14  5  1  0
 15 19  1  0
 15 13  1  0
 16 15  2  0
 17 18  2  0
 18  8  1  0
 20 19  1  0
 20 25  1  0
 20 21  1  6
 22 21  1  0
 23 22  1  0
 23 24  2  0
 25 28  1  0
 26 25  2  0
 27 23  1  0
M  END
$$$$
