CYE.pdb
     RDKit          3D

 28 28  0  0  1  0  0  0  0  0999 V2000
   27.5193  -22.6350  -18.5490 N   0  0  0  0  0  0  0  0  0  0  0  0
   27.3819  -21.3925  -17.7877 C   0  0  1  0  0  0  0  0  0  0  0  0
   26.5724  -20.4474  -18.6671 C   0  0  0  0  0  0  0  0  0  0  0  0
   27.5078  -19.9160  -20.1159 S   0  0  0  0  0  0  0  0  0  0  0  0
   26.7018  -21.6514  -16.5106 C   0  0  0  0  0  0  0  0  0  0  0  0
   25.8559  -22.5869  -16.4765 O   0  0  0  0  0  0  0  0  0  0  0  0
   25.0134  -20.4169   -7.7456 O   0  0  0  0  0  0  0  0  0  0  0  0
   25.5404  -20.5001   -9.0340 C   0  0  0  0  0  0  0  0  0  0  0  0
   25.8494  -21.7034   -9.6197 C   0  0  0  0  0  0  0  0  0  0  0  0
   26.3726  -21.7227  -10.9084 C   0  0  0  0  0  0  0  0  0  0  0  0
   26.6028  -20.5876  -11.6443 C   0  0  0  0  0  0  0  0  0  0  0  0
   27.1482  -20.6061  -13.0033 C   0  0  0  0  0  0  0  0  0  0  0  0
   26.2556  -21.1351  -14.0836 C   0  0  2  0  0  0  0  0  0  0  0  0
   26.9743  -20.8927  -15.3631 N   0  0  0  0  0  0  0  0  0  0  0  0
   24.9381  -20.5157  -14.1964 C   0  0  0  0  0  0  0  0  0  0  0  0
   24.8835  -19.2979  -14.6285 O   0  0  0  0  0  0  0  0  0  0  0  0
   26.2801  -19.3722  -11.0264 C   0  0  0  0  0  0  0  0  0  0  0  0
   25.7629  -19.3645   -9.7505 C   0  0  0  0  0  0  0  0  0  0  0  0
   23.6906  -21.1046  -13.8896 N   0  0  0  0  0  0  0  0  0  0  0  0
   22.5074  -20.2790  -13.7850 C   0  0  1  0  0  0  0  0  0  0  0  0
   21.5832  -20.5554  -14.9629 C   0  0  0  0  0  0  0  0  0  0  0  0
   22.2365  -20.2690  -16.2659 C   0  0  0  0  0  0  0  0  0  0  0  0
   21.3047  -20.3969  -17.4140 C   0  0  0  0  0  0  0  0  0  0  0  0
   21.1022  -21.5199  -17.9084 O   0  0  0  0  0  0  0  0  0  0  0  0
   21.8650  -20.4844  -12.4741 C   0  0  0  0  0  0  0  0  0  0  0  0
   20.9390  -19.7319  -12.0796 O   0  0  0  0  0  0  0  0  0  0  0  0
   20.6692  -19.2945  -17.9307 O   0  0  0  0  0  0  0  0  0  0  0  0
   22.2078  -21.4949  -11.5819 O   0  0  0  0  0  0  0  0  0  0  0  0
  2  1  1  6
  3  2  1  0
  3  4  1  0
  5  6  2  0
  5  2  1  0
  8  7  1  0
  9  8  2  0
 10  9  1  0
 11 10  2  0
 11 17  1  0
 12 11  1  0
 13 12  1  1
 13 14  1  0
 14  5  1  0
 15 19  1  0
 15 13  1  0
 16 15  2  0
 17 18  2  0
 18  8  1  0
 20 19  1  0
 20 25  1  0
 20 21  1  6
 22 21  1  0
 23 22  1  0
 23 24  2  0
 25 28  1  0
 26 25  2  0
 27 23  1  0
M  END
$$$$
