CYE.pdb
     RDKit          3D

 28 28  0  0  1  0  0  0  0  0999 V2000
   25.7356  -13.6167  -16.5117 N   0  0  0  0  0  0  0  0  0  0  0  0
   25.7566  -12.3118  -15.8491 C   0  0  1  0  0  0  0  0  0  0  0  0
   26.9223  -11.5465  -16.4635 C   0  0  0  0  0  0  0  0  0  0  0  0
   28.5128  -12.1748  -15.8873 S   0  0  0  0  0  0  0  0  0  0  0  0
   24.4823  -11.6117  -16.0648 C   0  0  0  0  0  0  0  0  0  0  0  0
   23.9782  -11.6553  -17.2205 O   0  0  0  0  0  0  0  0  0  0  0  0
   19.3600  -15.7368  -16.5175 O   0  0  0  0  0  0  0  0  0  0  0  0
   19.8783  -14.5372  -16.0307 C   0  0  0  0  0  0  0  0  0  0  0  0
   19.6077  -13.3300  -16.6272 C   0  0  0  0  0  0  0  0  0  0  0  0
   20.1538  -12.1665  -16.0955 C   0  0  0  0  0  0  0  0  0  0  0  0
   20.9633  -12.1530  -14.9874 C   0  0  0  0  0  0  0  0  0  0  0  0
   21.5345  -10.9286  -14.4227 C   0  0  0  0  0  0  0  0  0  0  0  0
   22.5501  -10.2087  -15.2558 C   0  0  2  0  0  0  0  0  0  0  0  0
   23.8391  -10.9160  -15.0308 N   0  0  0  0  0  0  0  0  0  0  0  0
   22.7631   -8.7985  -14.9423 C   0  0  0  0  0  0  0  0  0  0  0  0
   23.3964   -8.5164  -13.8505 O   0  0  0  0  0  0  0  0  0  0  0  0
   21.2253  -13.3959  -14.3961 C   0  0  0  0  0  0  0  0  0  0  0  0
   20.6798  -14.5414  -14.9307 C   0  0  0  0  0  0  0  0  0  0  0  0
   22.3566   -7.6840  -15.7104 N   0  0  0  0  0  0  0  0  0  0  0  0
   22.6345   -6.3436  -15.2430 C   0  0  1  0  0  0  0  0  0  0  0  0
   22.5744   -5.3700  -16.4120 C   0  0  0  0  0  0  0  0  0  0  0  0
   23.8960   -4.7539  -16.6957 C   0  0  0  0  0  0  0  0  0  0  0  0
   23.8496   -3.7945  -17.8270 C   0  0  0  0  0  0  0  0  0  0  0  0
   22.7579   -3.5494  -18.3698 O   0  0  0  0  0  0  0  0  0  0  0  0
   21.7191   -5.9951  -14.1412 C   0  0  0  0  0  0  0  0  0  0  0  0
   20.5860   -6.5299  -14.0445 O   0  0  0  0  0  0  0  0  0  0  0  0
   24.9928   -3.1801  -18.2760 O   0  0  0  0  0  0  0  0  0  0  0  0
   22.0118   -5.0766  -13.1386 O   0  0  0  0  0  0  0  0  0  0  0  0
  2  1  1  6
  3  2  1  0
  3  4  1  0
  5  6  2  0
  5  2  1  0
  8  7  1  0
  9  8  2  0
 10  9  1  0
 11 10  2  0
 11 17  1  0
 12 11  1  0
 13 12  1  1
 13 14  1  0
 14  5  1  0
 15 19  1  0
 15 13  1  0
 16 15  2  0
 17 18  2  0
 18  8  1  0
 20 19  1  0
 20 25  1  0
 20 21  1  6
 22 21  1  0
 23 22  1  0
 23 24  2  0
 25 28  1  0
 26 25  2  0
 27 23  1  0
M  END
$$$$
