CYE.pdb
     RDKit          3D

 28 28  0  0  1  0  0  0  0  0999 V2000
   27.1602  -22.9583  -16.8760 N   0  0  0  0  0  0  0  0  0  0  0  0
   27.1692  -21.6662  -16.1886 C   0  0  1  0  0  0  0  0  0  0  0  0
   26.3171  -20.7314  -17.0384 C   0  0  0  0  0  0  0  0  0  0  0  0
   27.1053  -20.3592  -18.6185 S   0  0  0  0  0  0  0  0  0  0  0  0
   26.6201  -21.8081  -14.8325 C   0  0  0  0  0  0  0  0  0  0  0  0
   25.6590  -22.6093  -14.6706 O   0  0  0  0  0  0  0  0  0  0  0  0
   25.8750  -19.6505   -6.1269 O   0  0  0  0  0  0  0  0  0  0  0  0
   26.3125  -19.9429   -7.4183 C   0  0  0  0  0  0  0  0  0  0  0  0
   27.0697  -21.0539   -7.6982 C   0  0  0  0  0  0  0  0  0  0  0  0
   27.4766  -21.2927   -9.0067 C   0  0  0  0  0  0  0  0  0  0  0  0
   27.1596  -20.4672  -10.0560 C   0  0  0  0  0  0  0  0  0  0  0  0
   27.5821  -20.7199  -11.4352 C   0  0  0  0  0  0  0  0  0  0  0  0
   26.5240  -21.1687  -12.3957 C   0  0  2  0  0  0  0  0  0  0  0  0
   27.1372  -21.0844  -13.7482 N   0  0  0  0  0  0  0  0  0  0  0  0
   25.2955  -20.3798  -12.4212 C   0  0  0  0  0  0  0  0  0  0  0  0
   25.3757  -19.1594  -12.8415 O   0  0  0  0  0  0  0  0  0  0  0  0
   26.3866  -19.3403   -9.7465 C   0  0  0  0  0  0  0  0  0  0  0  0
   25.9893  -19.1134   -8.4479 C   0  0  0  0  0  0  0  0  0  0  0  0
   24.0025  -20.8038  -12.0395 N   0  0  0  0  0  0  0  0  0  0  0  0
   22.8911  -19.8801  -12.1009 C   0  0  1  0  0  0  0  0  0  0  0  0
   22.3051  -19.8751  -13.5062 C   0  0  0  0  0  0  0  0  0  0  0  0
   22.0308  -21.2480  -14.0028 C   0  0  0  0  0  0  0  0  0  0  0  0
   22.2973  -21.3954  -15.4554 C   0  0  0  0  0  0  0  0  0  0  0  0
   22.6366  -20.3966  -16.1140 O   0  0  0  0  0  0  0  0  0  0  0  0
   21.9053  -20.2089  -11.0552 C   0  0  0  0  0  0  0  0  0  0  0  0
   22.0746  -21.1902  -10.2885 O   0  0  0  0  0  0  0  0  0  0  0  0
   22.1735  -22.6156  -16.0733 O   0  0  0  0  0  0  0  0  0  0  0  0
   20.7376  -19.4897  -10.8236 O   0  0  0  0  0  0  0  0  0  0  0  0
  2  1  1  6
  3  2  1  0
  3  4  1  0
  5  6  2  0
  5  2  1  0
  8  7  1  0
  9  8  2  0
 10  9  1  0
 11 10  2  0
 11 17  1  0
 12 11  1  0
 13 12  1  1
 13 14  1  0
 14  5  1  0
 15 19  1  0
 15 13  1  0
 16 15  2  0
 17 18  2  0
 18  8  1  0
 20 19  1  0
 20 25  1  0
 20 21  1  6
 22 21  1  0
 23 22  1  0
 23 24  2  0
 25 28  1  0
 26 25  2  0
 27 23  1  0
M  END
$$$$
