CYE.pdb
     RDKit          3D

 28 28  0  0  1  0  0  0  0  0999 V2000
   26.6372  -24.1062  -16.4853 N   0  0  0  0  0  0  0  0  0  0  0  0
   25.2239  -23.8460  -16.7634 C   0  0  1  0  0  0  0  0  0  0  0  0
   24.5033  -25.1727  -16.5577 C   0  0  0  0  0  0  0  0  0  0  0  0
   22.7141  -24.9924  -16.7080 S   0  0  0  0  0  0  0  0  0  0  0  0
   24.7097  -22.8101  -15.8561 C   0  0  0  0  0  0  0  0  0  0  0  0
   25.1945  -22.7574  -14.6925 O   0  0  0  0  0  0  0  0  0  0  0  0
   29.0791  -18.5744  -16.4177 O   0  0  0  0  0  0  0  0  0  0  0  0
   27.7116  -18.8247  -16.3095 C   0  0  0  0  0  0  0  0  0  0  0  0
   26.9476  -19.1841  -17.3927 C   0  0  0  0  0  0  0  0  0  0  0  0
   25.5876  -19.4211  -17.2224 C   0  0  0  0  0  0  0  0  0  0  0  0
   24.9510  -19.3150  -16.0113 C   0  0  0  0  0  0  0  0  0  0  0  0
   23.5205  -19.5695  -15.8288 C   0  0  0  0  0  0  0  0  0  0  0  0
   23.1344  -20.9197  -15.3077 C   0  0  2  0  0  0  0  0  0  0  0  0
   23.7155  -21.9061  -16.2574 N   0  0  0  0  0  0  0  0  0  0  0  0
   21.7030  -21.1925  -15.2133 C   0  0  0  0  0  0  0  0  0  0  0  0
   20.9834  -20.9897  -16.2686 O   0  0  0  0  0  0  0  0  0  0  0  0
   25.7504  -18.9470  -14.9211 C   0  0  0  0  0  0  0  0  0  0  0  0
   27.0955  -18.7148  -15.1008 C   0  0  0  0  0  0  0  0  0  0  0  0
   20.9989  -21.6682  -14.0841 N   0  0  0  0  0  0  0  0  0  0  0  0
   19.5629  -21.8316  -14.1433 C   0  0  1  0  0  0  0  0  0  0  0  0
   19.1433  -23.0033  -13.2661 C   0  0  0  0  0  0  0  0  0  0  0  0
   18.8881  -22.5882  -11.8628 C   0  0  0  0  0  0  0  0  0  0  0  0
   18.3644  -23.6953  -11.0245 C   0  0  0  0  0  0  0  0  0  0  0  0
   18.2363  -24.8265  -11.5250 O   0  0  0  0  0  0  0  0  0  0  0  0
   18.8973  -20.5649  -13.7885 C   0  0  0  0  0  0  0  0  0  0  0  0
   19.4518  -19.7302  -13.0302 O   0  0  0  0  0  0  0  0  0  0  0  0
   18.0227  -23.4828   -9.7114 O   0  0  0  0  0  0  0  0  0  0  0  0
   17.6393  -20.1850  -14.2441 O   0  0  0  0  0  0  0  0  0  0  0  0
  2  1  1  1
  3  2  1  0
  3  4  1  0
  5  6  2  0
  5  2  1  0
  8  7  1  0
  9  8  2  0
 10  9  1  0
 11 10  2  0
 11 17  1  0
 12 11  1  0
 13 12  1  6
 13 14  1  0
 14  5  1  0
 15 19  1  0
 15 13  1  0
 16 15  2  0
 17 18  2  0
 18  8  1  0
 20 19  1  0
 20 25  1  0
 20 21  1  1
 22 21  1  0
 23 22  1  0
 23 24  2  0
 25 28  1  0
 26 25  2  0
 27 23  1  0
M  END
$$$$
