CYE.pdb
     RDKit          3D

 28 28  0  0  1  0  0  0  0  0999 V2000
   27.8435  -20.5617   -9.7631 N   0  0  0  0  0  0  0  0  0  0  0  0
   26.4065  -20.8177   -9.8722 C   0  0  1  0  0  0  0  0  0  0  0  0
   25.7229  -19.7432   -9.0356 C   0  0  0  0  0  0  0  0  0  0  0  0
   25.8252  -20.1040   -7.2704 S   0  0  0  0  0  0  0  0  0  0  0  0
   25.9839  -20.7522  -11.2784 C   0  0  0  0  0  0  0  0  0  0  0  0
   26.3680  -19.7625  -11.9601 O   0  0  0  0  0  0  0  0  0  0  0  0
   23.8128  -24.4307  -19.1238 O   0  0  0  0  0  0  0  0  0  0  0  0
   24.2300  -24.0402  -17.8518 C   0  0  0  0  0  0  0  0  0  0  0  0
   24.9129  -22.8684  -17.6356 C   0  0  0  0  0  0  0  0  0  0  0  0
   25.3031  -22.5323  -16.3435 C   0  0  0  0  0  0  0  0  0  0  0  0
   25.0408  -23.3183  -15.2496 C   0  0  0  0  0  0  0  0  0  0  0  0
   25.4457  -22.9636  -13.8877 C   0  0  0  0  0  0  0  0  0  0  0  0
   24.8373  -21.7269  -13.3012 C   0  0  2  0  0  0  0  0  0  0  0  0
   25.1820  -21.7482  -11.8544 N   0  0  0  0  0  0  0  0  0  0  0  0
   23.3857  -21.6074  -13.4046 C   0  0  0  0  0  0  0  0  0  0  0  0
   22.6665  -22.3459  -12.6235 O   0  0  0  0  0  0  0  0  0  0  0  0
   24.3433  -24.5086  -15.4945 C   0  0  0  0  0  0  0  0  0  0  0  0
   23.9619  -24.8315  -16.7774 C   0  0  0  0  0  0  0  0  0  0  0  0
   22.6601  -20.7579  -14.2701 N   0  0  0  0  0  0  0  0  0  0  0  0
   21.2151  -20.8175  -14.2979 C   0  0  1  0  0  0  0  0  0  0  0  0
   20.6528  -19.4565  -14.6849 C   0  0  0  0  0  0  0  0  0  0  0  0
   19.1780  -19.4895  -14.8595 C   0  0  0  0  0  0  0  0  0  0  0  0
   18.4482  -19.0228  -13.6544 C   0  0  0  0  0  0  0  0  0  0  0  0
   18.8062  -17.9694  -13.0988 O   0  0  0  0  0  0  0  0  0  0  0  0
   20.7737  -21.9088  -15.1854 C   0  0  0  0  0  0  0  0  0  0  0  0
   21.4586  -22.2534  -16.1812 O   0  0  0  0  0  0  0  0  0  0  0  0
   17.3895  -19.7387  -13.1517 O   0  0  0  0  0  0  0  0  0  0  0  0
   19.6013  -22.6366  -15.0110 O   0  0  0  0  0  0  0  0  0  0  0  0
  2  1  1  6
  3  2  1  0
  3  4  1  0
  5  6  2  0
  5  2  1  0
  8  7  1  0
  9  8  2  0
 10  9  1  0
 11 10  2  0
 11 17  1  0
 12 11  1  0
 13 12  1  1
 13 14  1  0
 14  5  1  0
 15 19  1  0
 15 13  1  0
 16 15  2  0
 17 18  2  0
 18  8  1  0
 20 19  1  0
 20 25  1  0
 20 21  1  6
 22 21  1  0
 23 22  1  0
 23 24  2  0
 25 28  1  0
 26 25  2  0
 27 23  1  0
M  END
$$$$
