FYN.pdb
     RDKit          3D

 32 33  0  0  1  0  0  0  0  0999 V2000
   25.8847  -19.4631  -18.0986 N   0  0  0  0  0  0  0  0  0  0  0  0
   25.7182  -19.2856  -16.6900 C   0  0  1  0  0  0  0  0  0  0  0  0
   26.0080  -17.8647  -16.2449 C   0  0  0  0  0  0  0  0  0  0  0  0
   27.4272  -17.5301  -16.5273 C   0  0  0  0  0  0  0  0  0  0  0  0
   27.7795  -16.4433  -17.3007 C   0  0  0  0  0  0  0  0  0  0  0  0
   29.0765  -16.1333  -17.5596 C   0  0  0  0  0  0  0  0  0  0  0  0
   30.0925  -16.9094  -17.0478 C   0  0  0  0  0  0  0  0  0  0  0  0
   29.7857  -17.9925  -16.2784 C   0  0  0  0  0  0  0  0  0  0  0  0
   28.4695  -18.2989  -16.0214 C   0  0  0  0  0  0  0  0  0  0  0  0
   24.2970  -19.6513  -16.3611 C   0  0  0  0  0  0  0  0  0  0  0  0
   23.4320  -19.3851  -17.2352 O   0  0  0  0  0  0  0  0  0  0  0  0
   18.0505  -24.1447  -11.6445 O   0  0  0  0  0  0  0  0  0  0  0  0
   19.1927  -23.5768  -12.2050 C   0  0  0  0  0  0  0  0  0  0  0  0
   19.9215  -22.6643  -11.4973 C   0  0  0  0  0  0  0  0  0  0  0  0
   21.0372  -22.1030  -12.0333 C   0  0  0  0  0  0  0  0  0  0  0  0
   21.5136  -22.4083  -13.3175 C   0  0  0  0  0  0  0  0  0  0  0  0
   22.6698  -21.7851  -13.9096 C   0  0  0  0  0  0  0  0  0  0  0  0
   22.5422  -20.6803  -14.8687 C   0  0  2  0  0  0  0  0  0  0  0  0
   23.9438  -20.2601  -15.1422 N   0  0  0  0  0  0  0  0  0  0  0  0
   21.8445  -19.4865  -14.3869 C   0  0  0  0  0  0  0  0  0  0  0  0
   22.3755  -18.7423  -13.5059 O   0  0  0  0  0  0  0  0  0  0  0  0
   20.7699  -23.3288  -14.0173 C   0  0  0  0  0  0  0  0  0  0  0  0
   19.6195  -23.9111  -13.4725 C   0  0  0  0  0  0  0  0  0  0  0  0
   19.2672  -14.9143  -14.0967 N   0  0  0  0  0  0  0  0  0  0  0  0
   18.6252  -15.9644  -14.8571 C   0  0  0  0  0  0  0  0  0  0  0  0
   17.4032  -15.8880  -15.0244 O   0  0  0  0  0  0  0  0  0  0  0  0
   19.4203  -17.0581  -15.3922 C   0  0  0  0  0  0  0  0  0  0  0  0
   19.8601  -17.9893  -14.2696 C   0  0  2  0  0  0  0  0  0  0  0  0
   20.5652  -19.1351  -14.9025 N   0  0  0  0  0  0  0  0  0  0  0  0
   18.6435  -18.5314  -13.6429 C   0  0  0  0  0  0  0  0  0  0  0  0
   18.0620  -19.5935  -13.9693 O   0  0  0  0  0  0  0  0  0  0  0  0
   18.0412  -17.8352  -12.5769 O   0  0  0  0  0  0  0  0  0  0  0  0
  2  1  1  6
  2  3  1  0
  3  4  1  0
  4  9  1  0
  4  5  2  0
  5  6  1  0
  7  6  2  0
  8  7  1  0
  9  8  2  0
 10  2  1  0
 11 10  2  0
 13 12  1  0
 13 23  2  0
 14 13  1  0
 15 14  2  0
 15 16  1  0
 16 22  2  0
 17 16  1  0
 18 19  1  0
 18 17  1  1
 19 10  1  0
 20 18  1  0
 21 20  2  0
 22 23  1  0
 24 25  1  0
 25 26  2  0
 28 27  1  6
 27 25  1  0
 28 29  1  0
 29 20  1  0
 30 32  1  0
 30 28  1  0
 31 30  2  0
M  END
$$$$
