FYN.pdb
     RDKit          3D

 32 33  0  0  1  0  0  0  0  0999 V2000
   28.4072  -19.9000  -17.5574 N   0  0  0  0  0  0  0  0  0  0  0  0
   27.9062  -19.0788  -16.5001 C   0  0  1  0  0  0  0  0  0  0  0  0
   26.9290  -18.0284  -16.9930 C   0  0  0  0  0  0  0  0  0  0  0  0
   27.6627  -16.9653  -17.7261 C   0  0  0  0  0  0  0  0  0  0  0  0
   28.2917  -15.9283  -17.0686 C   0  0  0  0  0  0  0  0  0  0  0  0
   28.9650  -14.9552  -17.7358 C   0  0  0  0  0  0  0  0  0  0  0  0
   29.0392  -14.9784  -19.1108 C   0  0  0  0  0  0  0  0  0  0  0  0
   28.4307  -15.9869  -19.7976 C   0  0  0  0  0  0  0  0  0  0  0  0
   27.7509  -16.9681  -19.1138 C   0  0  0  0  0  0  0  0  0  0  0  0
   27.2318  -19.9898  -15.5116 C   0  0  0  0  0  0  0  0  0  0  0  0
   26.6934  -21.0261  -15.9796 O   0  0  0  0  0  0  0  0  0  0  0  0
   23.9340  -21.7029   -7.2622 O   0  0  0  0  0  0  0  0  0  0  0  0
   24.6628  -21.3348   -8.3913 C   0  0  0  0  0  0  0  0  0  0  0  0
   24.6239  -20.0461   -8.8413 C   0  0  0  0  0  0  0  0  0  0  0  0
   25.3300  -19.6749   -9.9416 C   0  0  0  0  0  0  0  0  0  0  0  0
   26.1306  -20.5603  -10.6794 C   0  0  0  0  0  0  0  0  0  0  0  0
   26.8467  -20.1852  -11.8720 C   0  0  0  0  0  0  0  0  0  0  0  0
   26.3123  -20.4654  -13.2108 C   0  0  2  0  0  0  0  0  0  0  0  0
   27.2001  -19.7061  -14.1333 N   0  0  0  0  0  0  0  0  0  0  0  0
   24.9512  -19.9932  -13.4729 C   0  0  0  0  0  0  0  0  0  0  0  0
   24.7310  -18.7663  -13.7138 O   0  0  0  0  0  0  0  0  0  0  0  0
   26.1602  -21.8536  -10.2139 C   0  0  0  0  0  0  0  0  0  0  0  0
   25.4355  -22.2439   -9.0817 C   0  0  0  0  0  0  0  0  0  0  0  0
   23.4269  -20.4456  -17.0388 N   0  0  0  0  0  0  0  0  0  0  0  0
   22.6154  -19.8488  -16.0005 C   0  0  0  0  0  0  0  0  0  0  0  0
   22.4862  -18.6197  -16.0070 O   0  0  0  0  0  0  0  0  0  0  0  0
   21.9871  -20.6951  -14.9987 C   0  0  0  0  0  0  0  0  0  0  0  0
   22.4890  -20.3284  -13.6079 C   0  0  2  0  0  0  0  0  0  0  0  0
   23.8545  -20.9004  -13.4705 N   0  0  0  0  0  0  0  0  0  0  0  0
   21.6351  -21.0250  -12.6320 C   0  0  0  0  0  0  0  0  0  0  0  0
   21.8260  -22.1812  -12.1850 O   0  0  0  0  0  0  0  0  0  0  0  0
   20.4921  -20.3791  -12.1223 O   0  0  0  0  0  0  0  0  0  0  0  0
  2  1  1  6
  2  3  1  0
  3  4  1  0
  4  9  1  0
  4  5  2  0
  5  6  1  0
  7  6  2  0
  8  7  1  0
  9  8  2  0
 10  2  1  0
 11 10  2  0
 13 12  1  0
 13 23  2  0
 14 13  1  0
 15 14  2  0
 15 16  1  0
 16 22  2  0
 17 16  1  0
 18 19  1  0
 18 17  1  1
 19 10  1  0
 20 18  1  0
 21 20  2  0
 22 23  1  0
 24 25  1  0
 25 26  2  0
 28 27  1  6
 27 25  1  0
 28 29  1  0
 29 20  1  0
 30 32  1  0
 30 28  1  0
 31 30  2  0
M  END
$$$$
