FYN.pdb
     RDKit          3D

 32 33  0  0  1  0  0  0  0  0999 V2000
   24.9267  -19.8378   -7.5496 N   0  0  0  0  0  0  0  0  0  0  0  0
   26.1618  -20.0891   -8.2238 C   0  0  1  0  0  0  0  0  0  0  0  0
   26.9895  -21.1610   -7.5405 C   0  0  0  0  0  0  0  0  0  0  0  0
   27.5482  -20.6301   -6.2708 C   0  0  0  0  0  0  0  0  0  0  0  0
   28.5527  -19.6846   -6.2558 C   0  0  0  0  0  0  0  0  0  0  0  0
   29.0648  -19.1957   -5.0965 C   0  0  0  0  0  0  0  0  0  0  0  0
   28.5862  -19.6385   -3.8835 C   0  0  0  0  0  0  0  0  0  0  0  0
   27.5933  -20.5726   -3.8556 C   0  0  0  0  0  0  0  0  0  0  0  0
   27.0808  -21.0623   -5.0346 C   0  0  0  0  0  0  0  0  0  0  0  0
   25.8239  -20.5121   -9.6269 C   0  0  0  0  0  0  0  0  0  0  0  0
   24.6728  -20.9863   -9.8086 O   0  0  0  0  0  0  0  0  0  0  0  0
   27.8066  -16.5800  -17.5313 O   0  0  0  0  0  0  0  0  0  0  0  0
   27.7279  -17.2020  -16.2871 C   0  0  0  0  0  0  0  0  0  0  0  0
   27.1176  -16.5689  -15.2424 C   0  0  0  0  0  0  0  0  0  0  0  0
   27.0349  -17.1651  -14.0239 C   0  0  0  0  0  0  0  0  0  0  0  0
   27.5546  -18.4399  -13.7519 C   0  0  0  0  0  0  0  0  0  0  0  0
   27.5102  -19.0600  -12.4521 C   0  0  0  0  0  0  0  0  0  0  0  0
   26.3313  -19.8072  -11.9957 C   0  0  2  0  0  0  0  0  0  0  0  0
   26.7409  -20.3874  -10.6875 N   0  0  0  0  0  0  0  0  0  0  0  0
   25.9206  -20.9364  -12.8327 C   0  0  0  0  0  0  0  0  0  0  0  0
   26.1336  -22.1292  -12.4539 O   0  0  0  0  0  0  0  0  0  0  0  0
   28.1654  -19.0648  -14.8133 C   0  0  0  0  0  0  0  0  0  0  0  0
   28.2549  -18.4574  -16.0712 C   0  0  0  0  0  0  0  0  0  0  0  0
   22.0067  -23.2310  -14.8312 N   0  0  0  0  0  0  0  0  0  0  0  0
   21.9899  -22.4148  -13.6368 C   0  0  0  0  0  0  0  0  0  0  0  0
   21.0195  -22.5243  -12.8795 O   0  0  0  0  0  0  0  0  0  0  0  0
   23.0934  -21.5071  -13.3667 C   0  0  0  0  0  0  0  0  0  0  0  0
   24.1605  -21.6376  -14.4461 C   0  0  2  0  0  0  0  0  0  0  0  0
   25.2691  -20.7175  -14.0791 N   0  0  0  0  0  0  0  0  0  0  0  0
   23.5834  -21.1299  -15.7016 C   0  0  0  0  0  0  0  0  0  0  0  0
   23.1714  -21.8323  -16.6554 O   0  0  0  0  0  0  0  0  0  0  0  0
   23.4589  -19.7408  -15.8978 O   0  0  0  0  0  0  0  0  0  0  0  0
  2  1  1  1
  2  3  1  0
  3  4  1  0
  4  9  1  0
  4  5  2  0
  5  6  1  0
  7  6  2  0
  8  7  1  0
  9  8  2  0
 10  2  1  0
 11 10  2  0
 13 12  1  0
 13 23  2  0
 14 13  1  0
 15 14  2  0
 15 16  1  0
 16 22  2  0
 17 16  1  0
 18 19  1  0
 18 17  1  6
 19 10  1  0
 20 18  1  0
 21 20  2  0
 22 23  1  0
 24 25  1  0
 25 26  2  0
 28 27  1  1
 27 25  1  0
 28 29  1  0
 29 20  1  0
 30 32  1  0
 30 28  1  0
 31 30  2  0
M  END
$$$$
