FYN.pdb
     RDKit          3D

 32 33  0  0  1  0  0  0  0  0999 V2000
   28.9003  -23.0544  -17.4890 N   0  0  0  0  0  0  0  0  0  0  0  0
   28.6781  -24.4636  -17.3997 C   0  0  1  0  0  0  0  0  0  0  0  0
   27.3950  -24.8943  -18.0847 C   0  0  0  0  0  0  0  0  0  0  0  0
   26.2250  -24.3863  -17.3237 C   0  0  0  0  0  0  0  0  0  0  0  0
   25.8600  -24.9215  -16.1056 C   0  0  0  0  0  0  0  0  0  0  0  0
   24.7917  -24.4582  -15.4061 C   0  0  0  0  0  0  0  0  0  0  0  0
   24.0309  -23.4233  -15.9030 C   0  0  0  0  0  0  0  0  0  0  0  0
   24.3590  -22.8670  -17.1038 C   0  0  0  0  0  0  0  0  0  0  0  0
   25.4425  -23.3427  -17.8054 C   0  0  0  0  0  0  0  0  0  0  0  0
   29.8587  -25.1409  -18.0392 C   0  0  0  0  0  0  0  0  0  0  0  0
   30.3691  -24.5606  -19.0321 O   0  0  0  0  0  0  0  0  0  0  0  0
   36.7324  -31.0331  -18.0047 O   0  0  0  0  0  0  0  0  0  0  0  0
   35.6175  -30.2236  -17.7972 C   0  0  0  0  0  0  0  0  0  0  0  0
   35.6543  -28.9044  -18.1478 C   0  0  0  0  0  0  0  0  0  0  0  0
   34.5734  -28.1046  -17.9501 C   0  0  0  0  0  0  0  0  0  0  0  0
   33.3707  -28.5582  -17.3870 C   0  0  0  0  0  0  0  0  0  0  0  0
   32.2363  -27.7070  -17.1334 C   0  0  0  0  0  0  0  0  0  0  0  0
   31.5274  -27.0243  -18.2233 C   0  0  2  0  0  0  0  0  0  0  0  0
   30.3729  -26.3600  -17.5588 N   0  0  0  0  0  0  0  0  0  0  0  0
   30.9601  -27.8864  -19.2621 C   0  0  0  0  0  0  0  0  0  0  0  0
   29.7293  -28.1973  -19.2391 O   0  0  0  0  0  0  0  0  0  0  0  0
   33.3487  -29.8883  -17.0398 C   0  0  0  0  0  0  0  0  0  0  0  0
   34.4578  -30.7185  -17.2399 C   0  0  0  0  0  0  0  0  0  0  0  0
   28.1545  -28.8098  -23.5841 N   0  0  0  0  0  0  0  0  0  0  0  0
   29.4988  -29.1366  -23.1609 C   0  0  0  0  0  0  0  0  0  0  0  0
   30.0727  -30.0670  -23.7375 O   0  0  0  0  0  0  0  0  0  0  0  0
   30.1241  -28.3762  -22.0907 C   0  0  0  0  0  0  0  0  0  0  0  0
   31.1243  -29.2461  -21.3399 C   0  0  2  0  0  0  0  0  0  0  0  0
   31.7744  -28.3834  -20.3184 N   0  0  0  0  0  0  0  0  0  0  0  0
   32.1729  -29.6390  -22.2954 C   0  0  0  0  0  0  0  0  0  0  0  0
   33.3946  -29.7533  -22.0365 O   0  0  0  0  0  0  0  0  0  0  0  0
   31.8256  -29.9250  -23.6300 O   0  0  0  0  0  0  0  0  0  0  0  0
  2  1  1  6
  2  3  1  0
  3  4  1  0
  4  9  1  0
  4  5  2  0
  5  6  1  0
  7  6  2  0
  8  7  1  0
  9  8  2  0
 10  2  1  0
 11 10  2  0
 13 12  1  0
 13 23  2  0
 14 13  1  0
 15 14  2  0
 15 16  1  0
 16 22  2  0
 17 16  1  0
 18 19  1  0
 18 17  1  1
 19 10  1  0
 20 18  1  0
 21 20  2  0
 22 23  1  0
 24 25  1  0
 25 26  2  0
 28 27  1  6
 27 25  1  0
 28 29  1  0
 29 20  1  0
 30 32  1  0
 30 28  1  0
 31 30  2  0
M  END
$$$$
