FYN.pdb
     RDKit          3D

 32 33  0  0  1  0  0  0  0  0999 V2000
   28.5685  -19.9363  -19.2159 N   0  0  0  0  0  0  0  0  0  0  0  0
   27.8144  -19.0556  -18.3799 C   0  0  1  0  0  0  0  0  0  0  0  0
   26.7721  -18.2704  -19.1533 C   0  0  0  0  0  0  0  0  0  0  0  0
   27.4431  -17.3247  -20.0814 C   0  0  0  0  0  0  0  0  0  0  0  0
   28.0492  -16.1697  -19.6322 C   0  0  0  0  0  0  0  0  0  0  0  0
   28.6652  -15.3034  -20.4780 C   0  0  0  0  0  0  0  0  0  0  0  0
   28.7019  -15.5596  -21.8307 C   0  0  0  0  0  0  0  0  0  0  0  0
   28.1142  -16.6909  -22.3144 C   0  0  0  0  0  0  0  0  0  0  0  0
   27.4925  -17.5625  -21.4506 C   0  0  0  0  0  0  0  0  0  0  0  0
   27.1503  -19.9013  -17.3284 C   0  0  0  0  0  0  0  0  0  0  0  0
   26.8769  -21.0863  -17.6511 O   0  0  0  0  0  0  0  0  0  0  0  0
   24.3971  -21.2901   -8.7850 O   0  0  0  0  0  0  0  0  0  0  0  0
   24.9366  -20.9076  -10.0113 C   0  0  0  0  0  0  0  0  0  0  0  0
   26.0450  -21.5390  -10.4987 C   0  0  0  0  0  0  0  0  0  0  0  0
   26.5808  -21.1746  -11.6933 C   0  0  0  0  0  0  0  0  0  0  0  0
   26.0527  -20.1517  -12.4958 C   0  0  0  0  0  0  0  0  0  0  0  0
   26.6404  -19.7299  -13.7418 C   0  0  0  0  0  0  0  0  0  0  0  0
   26.1679  -20.2507  -15.0310 C   0  0  2  0  0  0  0  0  0  0  0  0
   26.8473  -19.4020  -16.0478 N   0  0  0  0  0  0  0  0  0  0  0  0
   24.7318  -20.1262  -15.2886 C   0  0  0  0  0  0  0  0  0  0  0  0
   24.2157  -18.9896  -15.5203 O   0  0  0  0  0  0  0  0  0  0  0  0
   24.9369  -19.5260  -11.9924 C   0  0  0  0  0  0  0  0  0  0  0  0
   24.3792  -19.8951  -10.7627 C   0  0  0  0  0  0  0  0  0  0  0  0
   19.8639  -22.5562  -17.4734 N   0  0  0  0  0  0  0  0  0  0  0  0
   20.4201  -22.2811  -16.1665 C   0  0  0  0  0  0  0  0  0  0  0  0
   19.6396  -21.9466  -15.2685 O   0  0  0  0  0  0  0  0  0  0  0  0
   21.8529  -22.4036  -15.9509 C   0  0  0  0  0  0  0  0  0  0  0  0
   22.4386  -21.0641  -15.5226 C   0  0  2  0  0  0  0  0  0  0  0  0
   23.8922  -21.2755  -15.2923 N   0  0  0  0  0  0  0  0  0  0  0  0
   21.8466  -20.7191  -14.2198 C   0  0  0  0  0  0  0  0  0  0  0  0
   21.9948  -21.3632  -13.1540 O   0  0  0  0  0  0  0  0  0  0  0  0
   21.0359  -19.5730  -14.1061 O   0  0  0  0  0  0  0  0  0  0  0  0
  2  1  1  6
  2  3  1  0
  3  4  1  0
  4  9  1  0
  4  5  2  0
  5  6  1  0
  7  6  2  0
  8  7  1  0
  9  8  2  0
 10  2  1  0
 11 10  2  0
 13 12  1  0
 13 23  2  0
 14 13  1  0
 15 14  2  0
 15 16  1  0
 16 22  2  0
 17 16  1  0
 18 19  1  0
 18 17  1  1
 19 10  1  0
 20 18  1  0
 21 20  2  0
 22 23  1  0
 24 25  1  0
 25 26  2  0
 28 27  1  1
 27 25  1  0
 28 29  1  0
 29 20  1  0
 30 32  1  0
 30 28  1  0
 31 30  2  0
M  END
$$$$
