FYN.pdb
     RDKit          3D

 32 33  0  0  1  0  0  0  0  0999 V2000
   27.7854  -10.9136  -16.9019 N   0  0  0  0  0  0  0  0  0  0  0  0
   27.0879  -10.1752  -17.9076 C   0  0  1  0  0  0  0  0  0  0  0  0
   25.8236  -10.8742  -18.3703 C   0  0  0  0  0  0  0  0  0  0  0  0
   26.1780  -12.0825  -19.1579 C   0  0  0  0  0  0  0  0  0  0  0  0
   26.7363  -11.9939  -20.4164 C   0  0  0  0  0  0  0  0  0  0  0  0
   27.0632  -13.0968  -21.1389 C   0  0  0  0  0  0  0  0  0  0  0  0
   26.8423  -14.3554  -20.6251 C   0  0  0  0  0  0  0  0  0  0  0  0
   26.2923  -14.4855  -19.3843 C   0  0  0  0  0  0  0  0  0  0  0  0
   25.9642  -13.3630  -18.6598 C   0  0  0  0  0  0  0  0  0  0  0  0
   26.7512   -8.8325  -17.3196 C   0  0  0  0  0  0  0  0  0  0  0  0
   26.4890   -8.8080  -16.0893 O   0  0  0  0  0  0  0  0  0  0  0  0
   26.5130    0.2300  -17.8664 O   0  0  0  0  0  0  0  0  0  0  0  0
   26.6587   -1.1512  -17.9778 C   0  0  0  0  0  0  0  0  0  0  0  0
   27.6775   -1.7870  -17.3278 C   0  0  0  0  0  0  0  0  0  0  0  0
   27.8303   -3.1336  -17.4290 C   0  0  0  0  0  0  0  0  0  0  0  0
   26.9785   -3.9519  -18.1867 C   0  0  0  0  0  0  0  0  0  0  0  0
   27.1599   -5.3735  -18.3348 C   0  0  0  0  0  0  0  0  0  0  0  0
   26.4463   -6.3333  -17.4827 C   0  0  2  0  0  0  0  0  0  0  0  0
   26.7287   -7.6594  -18.0971 N   0  0  0  0  0  0  0  0  0  0  0  0
   24.9884   -6.2023  -17.4459 C   0  0  0  0  0  0  0  0  0  0  0  0
   24.2898   -6.4975  -18.4641 O   0  0  0  0  0  0  0  0  0  0  0  0
   25.9575   -3.2977  -18.8347 C   0  0  0  0  0  0  0  0  0  0  0  0
   25.7936   -1.9111  -18.7358 C   0  0  0  0  0  0  0  0  0  0  0  0
   20.3641   -6.3166  -17.0278 N   0  0  0  0  0  0  0  0  0  0  0  0
   20.8824   -6.8489  -15.7865 C   0  0  0  0  0  0  0  0  0  0  0  0
   20.1599   -7.6203  -15.1458 O   0  0  0  0  0  0  0  0  0  0  0  0
   22.2121   -6.4690  -15.3370 C   0  0  0  0  0  0  0  0  0  0  0  0
   22.8611   -5.5285  -16.3444 C   0  0  2  0  0  0  0  0  0  0  0  0
   24.3291   -5.7508  -16.2681 N   0  0  0  0  0  0  0  0  0  0  0  0
   22.6143   -4.1515  -15.8861 C   0  0  0  0  0  0  0  0  0  0  0  0
   23.4408   -3.4171  -15.2942 O   0  0  0  0  0  0  0  0  0  0  0  0
   21.3561   -3.5593  -16.1096 O   0  0  0  0  0  0  0  0  0  0  0  0
  2  1  1  1
  2  3  1  0
  3  4  1  0
  4  9  1  0
  4  5  2  0
  5  6  1  0
  7  6  2  0
  8  7  1  0
  9  8  2  0
 10  2  1  0
 11 10  2  0
 13 12  1  0
 13 23  2  0
 14 13  1  0
 15 14  2  0
 15 16  1  0
 16 22  2  0
 17 16  1  0
 18 19  1  0
 18 17  1  6
 19 10  1  0
 20 18  1  0
 21 20  2  0
 22 23  1  0
 24 25  1  0
 25 26  2  0
 28 27  1  1
 27 25  1  0
 28 29  1  0
 29 20  1  0
 30 32  1  0
 30 28  1  0
 31 30  2  0
M  END
$$$$
