FYN.pdb
     RDKit          3D

 32 33  0  0  1  0  0  0  0  0999 V2000
   28.2166  -20.1005  -19.1214 N   0  0  0  0  0  0  0  0  0  0  0  0
   27.5724  -19.2223  -18.1957 C   0  0  1  0  0  0  0  0  0  0  0  0
   26.3701  -18.5215  -18.7995 C   0  0  0  0  0  0  0  0  0  0  0  0
   26.8169  -17.5835  -19.8609 C   0  0  0  0  0  0  0  0  0  0  0  0
   26.4396  -17.7411  -21.1785 C   0  0  0  0  0  0  0  0  0  0  0  0
   26.8449  -16.8842  -22.1515 C   0  0  0  0  0  0  0  0  0  0  0  0
   27.6577  -15.8161  -21.8431 C   0  0  0  0  0  0  0  0  0  0  0  0
   28.0527  -15.6256  -20.5521 C   0  0  0  0  0  0  0  0  0  0  0  0
   27.6375  -16.4984  -19.5732 C   0  0  0  0  0  0  0  0  0  0  0  0
   27.1486  -20.0534  -17.0162 C   0  0  0  0  0  0  0  0  0  0  0  0
   26.6464  -21.1780  -17.2731 O   0  0  0  0  0  0  0  0  0  0  0  0
   25.5674  -20.9994   -8.1112 O   0  0  0  0  0  0  0  0  0  0  0  0
   25.9822  -20.6884   -9.4045 C   0  0  0  0  0  0  0  0  0  0  0  0
   26.2481  -21.6870  -10.2971 C   0  0  0  0  0  0  0  0  0  0  0  0
   26.6538  -21.3964  -11.5612 C   0  0  0  0  0  0  0  0  0  0  0  0
   26.8259  -20.0865  -12.0342 C   0  0  0  0  0  0  0  0  0  0  0  0
   27.2980  -19.7709  -13.3584 C   0  0  0  0  0  0  0  0  0  0  0  0
   26.6451  -20.3117  -14.5574 C   0  0  2  0  0  0  0  0  0  0  0  0
   27.3023  -19.6050  -15.6908 N   0  0  0  0  0  0  0  0  0  0  0  0
   25.2111  -20.0446  -14.6859 C   0  0  0  0  0  0  0  0  0  0  0  0
   24.7997  -18.8992  -15.0474 O   0  0  0  0  0  0  0  0  0  0  0  0
   26.5539  -19.0922  -11.1245 C   0  0  0  0  0  0  0  0  0  0  0  0
   26.1361  -19.3832   -9.8207 C   0  0  0  0  0  0  0  0  0  0  0  0
   20.1401  -20.3512  -14.7136 N   0  0  0  0  0  0  0  0  0  0  0  0
   20.6643  -21.6032  -15.2145 C   0  0  0  0  0  0  0  0  0  0  0  0
   19.8575  -22.4282  -15.6568 O   0  0  0  0  0  0  0  0  0  0  0  0
   22.0970  -21.8501  -15.1841 C   0  0  0  0  0  0  0  0  0  0  0  0
   22.8169  -20.6966  -14.4971 C   0  0  2  0  0  0  0  0  0  0  0  0
   24.2553  -21.0642  -14.4166 N   0  0  0  0  0  0  0  0  0  0  0  0
   22.3175  -20.6249  -13.1142 C   0  0  0  0  0  0  0  0  0  0  0  0
   21.2142  -20.1471  -12.7575 O   0  0  0  0  0  0  0  0  0  0  0  0
   23.1091  -21.1253  -12.0623 O   0  0  0  0  0  0  0  0  0  0  0  0
  2  1  1  6
  2  3  1  0
  3  4  1  0
  4  9  1  0
  4  5  2  0
  5  6  1  0
  7  6  2  0
  8  7  1  0
  9  8  2  0
 10  2  1  0
 11 10  2  0
 13 12  1  0
 13 23  2  0
 14 13  1  0
 15 14  2  0
 15 16  1  0
 16 22  2  0
 17 16  1  0
 18 19  1  0
 18 17  1  1
 19 10  1  0
 20 18  1  0
 21 20  2  0
 22 23  1  0
 24 25  1  0
 25 26  2  0
 28 27  1  6
 27 25  1  0
 28 29  1  0
 29 20  1  0
 30 32  1  0
 30 28  1  0
 31 30  2  0
M  END
$$$$
