FYN.pdb
     RDKit          3D

 32 33  0  0  1  0  0  0  0  0999 V2000
   24.3313  -11.7720  -17.5257 N   0  0  0  0  0  0  0  0  0  0  0  0
   24.2121  -11.0963  -16.2717 C   0  0  1  0  0  0  0  0  0  0  0  0
   25.4579  -10.3076  -15.9156 C   0  0  0  0  0  0  0  0  0  0  0  0
   26.6380  -11.2095  -15.9092 C   0  0  0  0  0  0  0  0  0  0  0  0
   27.6980  -11.0285  -16.7735 C   0  0  0  0  0  0  0  0  0  0  0  0
   28.7795  -11.8504  -16.7693 C   0  0  0  0  0  0  0  0  0  0  0  0
   28.8480  -12.9050  -15.8862 C   0  0  0  0  0  0  0  0  0  0  0  0
   27.8205  -13.1177  -15.0155 C   0  0  0  0  0  0  0  0  0  0  0  0
   26.7292  -12.2803  -15.0269 C   0  0  0  0  0  0  0  0  0  0  0  0
   23.0279  -10.1748  -16.3744 C   0  0  0  0  0  0  0  0  0  0  0  0
   22.7122   -9.7931  -17.5309 O   0  0  0  0  0  0  0  0  0  0  0  0
   17.2611  -14.1264  -16.6661 O   0  0  0  0  0  0  0  0  0  0  0  0
   17.9520  -13.0219  -16.1722 C   0  0  0  0  0  0  0  0  0  0  0  0
   18.9472  -13.1918  -15.2527 C   0  0  0  0  0  0  0  0  0  0  0  0
   19.6281  -12.1223  -14.7632 C   0  0  0  0  0  0  0  0  0  0  0  0
   19.3697  -10.7992  -15.1528 C   0  0  0  0  0  0  0  0  0  0  0  0
   20.0566   -9.6568  -14.6059 C   0  0  0  0  0  0  0  0  0  0  0  0
   21.0742   -8.9296  -15.3755 C   0  0  2  0  0  0  0  0  0  0  0  0
   22.3046   -9.7566  -15.2416 N   0  0  0  0  0  0  0  0  0  0  0  0
   21.4231   -7.5956  -14.8827 C   0  0  0  0  0  0  0  0  0  0  0  0
   22.5521   -7.3842  -14.3418 O   0  0  0  0  0  0  0  0  0  0  0  0
   18.3659  -10.6442  -16.0792 C   0  0  0  0  0  0  0  0  0  0  0  0
   17.6597  -11.7405  -16.5880 C   0  0  0  0  0  0  0  0  0  0  0  0
   24.0062   -3.2744  -15.5150 N   0  0  0  0  0  0  0  0  0  0  0  0
   22.5959   -3.5208  -15.7235 C   0  0  0  0  0  0  0  0  0  0  0  0
   21.8480   -2.5409  -15.8108 O   0  0  0  0  0  0  0  0  0  0  0  0
   22.1084   -4.8873  -15.8225 C   0  0  0  0  0  0  0  0  0  0  0  0
   21.0312   -5.1404  -14.7755 C   0  0  2  0  0  0  0  0  0  0  0  0
   20.5082   -6.5126  -15.0085 N   0  0  0  0  0  0  0  0  0  0  0  0
   19.9231   -4.2103  -15.0476 C   0  0  0  0  0  0  0  0  0  0  0  0
   19.0980   -4.3084  -15.9869 O   0  0  0  0  0  0  0  0  0  0  0  0
   19.7276   -3.0971  -14.2072 O   0  0  0  0  0  0  0  0  0  0  0  0
  2  1  1  6
  2  3  1  0
  3  4  1  0
  4  9  1  0
  4  5  2  0
  5  6  1  0
  7  6  2  0
  8  7  1  0
  9  8  2  0
 10  2  1  0
 11 10  2  0
 13 12  1  0
 13 23  2  0
 14 13  1  0
 15 14  2  0
 15 16  1  0
 16 22  2  0
 17 16  1  0
 18 19  1  0
 18 17  1  1
 19 10  1  0
 20 18  1  0
 21 20  2  0
 22 23  1  0
 24 25  1  0
 25 26  2  0
 28 27  1  6
 27 25  1  0
 28 29  1  0
 29 20  1  0
 30 32  1  0
 30 28  1  0
 31 30  2  0
M  END
$$$$
