FYN.pdb
     RDKit          3D

 32 33  0  0  1  0  0  0  0  0999 V2000
   25.6964  -19.5337  -18.2690 N   0  0  0  0  0  0  0  0  0  0  0  0
   24.4921  -18.9818  -17.7321 C   0  0  1  0  0  0  0  0  0  0  0  0
   23.3504  -18.9960  -18.7307 C   0  0  0  0  0  0  0  0  0  0  0  0
   23.6434  -18.0543  -19.8412 C   0  0  0  0  0  0  0  0  0  0  0  0
   23.6607  -16.6878  -19.6522 C   0  0  0  0  0  0  0  0  0  0  0  0
   23.9300  -15.8237  -20.6652 C   0  0  0  0  0  0  0  0  0  0  0  0
   24.1979  -16.2971  -21.9304 C   0  0  0  0  0  0  0  0  0  0  0  0
   24.1905  -17.6414  -22.1583 C   0  0  0  0  0  0  0  0  0  0  0  0
   23.9166  -18.5091  -21.1265 C   0  0  0  0  0  0  0  0  0  0  0  0
   24.1309  -19.7974  -16.5212 C   0  0  0  0  0  0  0  0  0  0  0  0
   24.2836  -21.0426  -16.6170 O   0  0  0  0  0  0  0  0  0  0  0  0
   22.1685  -20.9818   -7.8053 O   0  0  0  0  0  0  0  0  0  0  0  0
   22.5062  -20.5324   -9.0802 C   0  0  0  0  0  0  0  0  0  0  0  0
   21.5993  -19.8302   -9.8213 C   0  0  0  0  0  0  0  0  0  0  0  0
   21.9167  -19.3869  -11.0662 C   0  0  0  0  0  0  0  0  0  0  0  0
   23.1640  -19.6093  -11.6696 C   0  0  0  0  0  0  0  0  0  0  0  0
   23.4927  -19.1812  -13.0055 C   0  0  0  0  0  0  0  0  0  0  0  0
   23.2449  -20.0391  -14.1713 C   0  0  2  0  0  0  0  0  0  0  0  0
   23.6470  -19.2073  -15.3385 N   0  0  0  0  0  0  0  0  0  0  0  0
   21.8510  -20.4228  -14.4040 C   0  0  0  0  0  0  0  0  0  0  0  0
   21.0551  -19.6293  -14.9946 O   0  0  0  0  0  0  0  0  0  0  0  0
   24.0664  -20.3168  -10.9113 C   0  0  0  0  0  0  0  0  0  0  0  0
   23.7471  -20.7771   -9.6284 C   0  0  0  0  0  0  0  0  0  0  0  0
   17.7686  -24.7686  -14.7801 N   0  0  0  0  0  0  0  0  0  0  0  0
   18.3681  -23.5202  -15.1985 C   0  0  0  0  0  0  0  0  0  0  0  0
   17.6517  -22.7109  -15.7978 O   0  0  0  0  0  0  0  0  0  0  0  0
   19.7685  -23.2581  -14.9075 C   0  0  0  0  0  0  0  0  0  0  0  0
   19.9112  -21.9570  -14.1282 C   0  0  2  0  0  0  0  0  0  0  0  0
   21.3668  -21.6925  -13.9807 N   0  0  0  0  0  0  0  0  0  0  0  0
   19.3817  -22.1921  -12.7749 C   0  0  0  0  0  0  0  0  0  0  0  0
   19.9367  -22.8715  -11.8788 O   0  0  0  0  0  0  0  0  0  0  0  0
   18.1478  -21.6242  -12.4028 O   0  0  0  0  0  0  0  0  0  0  0  0
  2  1  1  6
  2  3  1  0
  3  4  1  0
  4  9  1  0
  4  5  2  0
  5  6  1  0
  7  6  2  0
  8  7  1  0
  9  8  2  0
 10  2  1  0
 11 10  2  0
 13 12  1  0
 13 23  2  0
 14 13  1  0
 15 14  2  0
 15 16  1  0
 16 22  2  0
 17 16  1  0
 18 19  1  0
 18 17  1  1
 19 10  1  0
 20 18  1  0
 21 20  2  0
 22 23  1  0
 24 25  1  0
 25 26  2  0
 28 27  1  6
 27 25  1  0
 28 29  1  0
 29 20  1  0
 30 32  1  0
 30 28  1  0
 31 30  2  0
M  END
$$$$
