GYV.pdb
     RDKit          3D

 24 24  0  0  1  0  0  0  0  0999 V2000
   15.0544   -9.8441  -10.3644 N   0  0  0  0  0  0  0  0  0  0  0  0
   15.4694   -9.5095  -11.6912 C   0  0  0  0  0  0  0  0  0  0  0  0
   16.9331   -9.1608  -11.7405 C   0  0  0  0  0  0  0  0  0  0  0  0
   17.7140   -9.5889  -10.8531 O   0  0  0  0  0  0  0  0  0  0  0  0
   17.4303  -11.7865  -17.9932 O   0  0  0  0  0  0  0  0  0  0  0  0
   17.9677  -11.2014  -16.8551 C   0  0  0  0  0  0  0  0  0  0  0  0
   17.9404  -11.9191  -15.6564 C   0  0  0  0  0  0  0  0  0  0  0  0
   18.4849  -11.3096  -14.5344 C   0  0  0  0  0  0  0  0  0  0  0  0
   19.0368  -10.0533  -14.5628 C   0  0  0  0  0  0  0  0  0  0  0  0
   19.6182   -9.3987  -13.3771 C   0  0  0  0  0  0  0  0  0  0  0  0
   18.9040   -8.1464  -12.9543 C   0  0  2  0  0  0  0  0  0  0  0  0
   17.4844   -8.3558  -12.7613 N   0  0  0  0  0  0  0  0  0  0  0  0
   19.1485   -7.0322  -13.9253 C   0  0  0  0  0  0  0  0  0  0  0  0
   18.3263   -6.7433  -14.8286 O   0  0  0  0  0  0  0  0  0  0  0  0
   19.0356   -9.3928  -15.7737 C   0  0  0  0  0  0  0  0  0  0  0  0
   18.5127   -9.9415  -16.9186 C   0  0  0  0  0  0  0  0  0  0  0  0
   21.3141   -2.7923  -14.9937 C   0  0  0  0  0  0  0  0  0  0  0  0
   21.2109   -3.9551  -14.0377 C   0  0  2  0  0  0  0  0  0  0  0  0
   22.6107   -4.3138  -13.5920 C   0  0  0  0  0  0  0  0  0  0  0  0
   20.5224   -5.1067  -14.7408 C   0  0  2  0  0  0  0  0  0  0  0  0
   20.3412   -6.2367  -13.8695 N   0  0  0  0  0  0  0  0  0  0  0  0
   21.2344   -5.4851  -15.9968 C   0  0  0  0  0  0  0  0  0  0  0  0
   22.0203   -6.6267  -16.0084 O   0  0  0  0  0  0  0  0  0  0  0  0
   21.1463   -4.8034  -17.0466 O   0  0  0  0  0  0  0  0  0  0  0  0
  2  1  1  0
  3  2  1  0
  4  3  2  0
  5  6  1  0
  6 16  2  0
  7  6  1  0
  7  8  2  0
  8  9  1  0
  9 15  2  0
  9 10  1  0
 11 10  1  6
 11 13  1  0
 11 12  1  0
 12  3  1  0
 13 21  1  0
 14 13  2  0
 16 15  1  0
 18 20  1  0
 18 17  1  6
 19 18  1  0
 20 22  1  0
 20 21  1  1
 22 24  2  0
 22 23  1  0
M  END
$$$$
