GYV.pdb
     RDKit          3D

 24 24  0  0  1  0  0  0  0  0999 V2000
   27.8428  -22.1956  -16.2914 N   0  0  0  0  0  0  0  0  0  0  0  0
   26.7792  -21.2425  -16.2220 C   0  0  0  0  0  0  0  0  0  0  0  0
   25.8240  -21.5617  -15.1029 C   0  0  0  0  0  0  0  0  0  0  0  0
   25.7988  -22.7157  -14.6046 O   0  0  0  0  0  0  0  0  0  0  0  0
   27.9522  -21.3828   -8.5593 O   0  0  0  0  0  0  0  0  0  0  0  0
   26.9951  -21.0313   -9.5011 C   0  0  0  0  0  0  0  0  0  0  0  0
   27.3945  -20.8558  -10.8287 C   0  0  0  0  0  0  0  0  0  0  0  0
   26.4164  -20.5045  -11.7488 C   0  0  0  0  0  0  0  0  0  0  0  0
   25.0994  -20.3278  -11.4056 C   0  0  0  0  0  0  0  0  0  0  0  0
   24.0538  -19.9563  -12.3756 C   0  0  0  0  0  0  0  0  0  0  0  0
   23.9474  -20.8860  -13.5509 C   0  0  2  0  0  0  0  0  0  0  0  0
   24.9330  -20.6029  -14.5732 N   0  0  0  0  0  0  0  0  0  0  0  0
   22.5650  -20.8696  -14.1281 C   0  0  0  0  0  0  0  0  0  0  0  0
   22.1682  -19.9468  -14.8805 O   0  0  0  0  0  0  0  0  0  0  0  0
   24.7640  -20.5146  -10.0807 C   0  0  0  0  0  0  0  0  0  0  0  0
   25.6848  -20.8623   -9.1233 C   0  0  0  0  0  0  0  0  0  0  0  0
   20.0345  -24.3201  -14.2375 C   0  0  0  0  0  0  0  0  0  0  0  0
   19.9647  -23.1357  -15.1698 C   0  0  2  0  0  0  0  0  0  0  0  0
   20.9424  -23.3764  -16.2980 C   0  0  0  0  0  0  0  0  0  0  0  0
   20.2907  -21.8791  -14.3894 C   0  0  2  0  0  0  0  0  0  0  0  0
   21.6224  -21.9140  -13.8470 N   0  0  0  0  0  0  0  0  0  0  0  0
   19.2702  -21.6105  -13.3339 C   0  0  0  0  0  0  0  0  0  0  0  0
   17.9631  -21.3465  -13.7117 O   0  0  0  0  0  0  0  0  0  0  0  0
   19.5551  -21.6153  -12.1119 O   0  0  0  0  0  0  0  0  0  0  0  0
  2  1  1  0
  3  2  1  0
  4  3  2  0
  5  6  1  0
  6 16  2  0
  7  6  1  0
  7  8  2  0
  8  9  1  0
  9 15  2  0
  9 10  1  0
 11 10  1  1
 11 13  1  0
 11 12  1  0
 12  3  1  0
 13 21  1  0
 14 13  2  0
 16 15  1  0
 18 20  1  0
 18 17  1  1
 19 18  1  0
 20 22  1  0
 20 21  1  1
 22 24  2  0
 22 23  1  0
M  END
$$$$
