GYV.pdb
     RDKit          3D

 24 24  0  0  1  0  0  0  0  0999 V2000
   27.6953  -19.8098  -15.8254 N   0  0  0  0  0  0  0  0  0  0  0  0
   28.3793  -20.1446  -14.6152 C   0  0  0  0  0  0  0  0  0  0  0  0
   27.5219  -19.8823  -13.4058 C   0  0  0  0  0  0  0  0  0  0  0  0
   27.1601  -18.7100  -13.1311 O   0  0  0  0  0  0  0  0  0  0  0  0
   21.7434  -19.1852  -15.8988 O   0  0  0  0  0  0  0  0  0  0  0  0
   22.5026  -19.7426  -14.8794 C   0  0  0  0  0  0  0  0  0  0  0  0
   22.4396  -19.1690  -13.6067 C   0  0  0  0  0  0  0  0  0  0  0  0
   23.2093  -19.7471  -12.6066 C   0  0  0  0  0  0  0  0  0  0  0  0
   24.0123  -20.8391  -12.8216 C   0  0  0  0  0  0  0  0  0  0  0  0
   24.8319  -21.4605  -11.7659 C   0  0  0  0  0  0  0  0  0  0  0  0
   26.1212  -20.7419  -11.4859 C   0  0  2  0  0  0  0  0  0  0  0  0
   27.0943  -20.9158  -12.5439 N   0  0  0  0  0  0  0  0  0  0  0  0
   26.6939  -21.1567  -10.1652 C   0  0  0  0  0  0  0  0  0  0  0  0
   27.3316  -22.2283  -10.0227 O   0  0  0  0  0  0  0  0  0  0  0  0
   24.0343  -21.3625  -14.0977 C   0  0  0  0  0  0  0  0  0  0  0  0
   23.2963  -20.8363  -15.1291 C   0  0  0  0  0  0  0  0  0  0  0  0
   27.0179  -18.6558   -6.7297 C   0  0  0  0  0  0  0  0  0  0  0  0
   27.5926  -20.0490   -6.8027 C   0  0  2  0  0  0  0  0  0  0  0  0
   28.9957  -19.9427   -7.3565 C   0  0  0  0  0  0  0  0  0  0  0  0
   26.6966  -20.9026   -7.6762 C   0  0  2  0  0  0  0  0  0  0  0  0
   26.5403  -20.3444   -8.9926 N   0  0  0  0  0  0  0  0  0  0  0  0
   25.3788  -21.1579   -7.0236 C   0  0  0  0  0  0  0  0  0  0  0  0
   25.3437  -21.8529   -5.8249 O   0  0  0  0  0  0  0  0  0  0  0  0
   24.2975  -20.7641   -7.5237 O   0  0  0  0  0  0  0  0  0  0  0  0
  2  1  1  0
  3  2  1  0
  4  3  2  0
  5  6  1  0
  6 16  2  0
  7  6  1  0
  7  8  2  0
  8  9  1  0
  9 15  2  0
  9 10  1  0
 11 10  1  6
 11 13  1  0
 11 12  1  0
 12  3  1  0
 13 21  1  0
 14 13  2  0
 16 15  1  0
 18 20  1  0
 18 17  1  6
 19 18  1  0
 20 22  1  0
 20 21  1  6
 22 24  2  0
 22 23  1  0
M  END
$$$$
