QVN.pdb
     RDKit          3D

 25 24  0  0  1  0  0  0  0  0999 V2000
   20.3584  -15.1389  -20.5199 N   0  0  0  0  0  0  0  0  0  0  0  0
   19.4183  -14.1840  -20.0351 C   0  0  0  0  0  0  0  0  0  0  0  0
   19.4033  -13.0462  -20.5914 O   0  0  0  0  0  0  0  0  0  0  0  0
   18.4841  -14.4880  -18.9238 C   0  0  0  0  0  0  0  0  0  0  0  0
   18.6927  -13.4498  -17.8333 C   0  0  0  0  0  0  0  0  0  0  0  0
   19.9209  -13.8093  -16.9922 C   0  0  2  0  0  0  0  0  0  0  0  0
   19.6395  -15.0184  -16.2315 N   0  0  0  0  0  0  0  0  0  0  0  0
   20.1569  -12.6557  -16.0769 C   0  0  0  0  0  0  0  0  0  0  0  0
   19.3951  -12.5375  -15.0881 O   0  0  0  0  0  0  0  0  0  0  0  0
   23.7639  -10.2853  -16.2226 C   0  0  0  0  0  0  0  0  0  0  0  0
   22.9097  -10.5486  -15.0036 C   0  0  2  0  0  0  0  0  0  0  0  0
   23.3942  -11.7941  -14.3191 C   0  0  0  0  0  0  0  0  0  0  0  0
   21.4682  -10.5905  -15.3993 C   0  0  2  0  0  0  0  0  0  0  0  0
   21.1791  -11.7131  -16.2749 N   0  0  0  0  0  0  0  0  0  0  0  0
   21.0155   -9.3051  -16.0474 C   0  0  0  0  0  0  0  0  0  0  0  0
   21.2709   -9.0876  -17.2592 O   0  0  0  0  0  0  0  0  0  0  0  0
   17.1369   -5.2401  -16.7032 N   0  0  0  0  0  0  0  0  0  0  0  0
   18.0084   -5.4316  -15.5841 C   0  0  0  0  0  0  0  0  0  0  0  0
   18.2754   -4.4084  -14.9085 O   0  0  0  0  0  0  0  0  0  0  0  0
   18.5518   -6.7559  -15.2546 C   0  0  0  0  0  0  0  0  0  0  0  0
   19.8852   -7.0460  -15.8795 C   0  0  2  0  0  0  0  0  0  0  0  0
   20.3036   -8.3363  -15.3054 N   0  0  0  0  0  0  0  0  0  0  0  0
   20.8887   -5.9995  -15.5198 C   0  0  0  0  0  0  0  0  0  0  0  0
   21.6985   -6.1922  -14.4134 O   0  0  0  0  0  0  0  0  0  0  0  0
   21.0139   -4.9577  -16.1891 O   0  0  0  0  0  0  0  0  0  0  0  0
  2  3  2  0
  2  1  1  0
  4  2  1  0
  5  4  1  0
  6  5  1  0
  6  7  1  1
  8  6  1  0
  9  8  2  0
 11 10  1  6
 11 13  1  0
 12 11  1  0
 13 15  1  0
 13 14  1  6
 14  8  1  0
 15 16  2  0
 18 17  1  0
 18 19  2  0
 21 20  1  1
 20 18  1  0
 22 15  1  0
 22 21  1  0
 23 21  1  0
 23 24  1  0
 25 23  2  0
M  END
$$$$
