QVN.pdb
     RDKit          3D

 25 24  0  0  1  0  0  0  0  0999 V2000
   29.0399  -17.7688  -17.4115 N   0  0  0  0  0  0  0  0  0  0  0  0
   28.1679  -18.6872  -18.0648 C   0  0  0  0  0  0  0  0  0  0  0  0
   28.2913  -18.8170  -19.3187 O   0  0  0  0  0  0  0  0  0  0  0  0
   27.1484  -19.4715  -17.3263 C   0  0  0  0  0  0  0  0  0  0  0  0
   27.1578  -19.0134  -15.8770 C   0  0  0  0  0  0  0  0  0  0  0  0
   27.8247  -20.0725  -14.9944 C   0  0  2  0  0  0  0  0  0  0  0  0
   28.4931  -21.0478  -15.8440 N   0  0  0  0  0  0  0  0  0  0  0  0
   26.7311  -20.7186  -14.2127 C   0  0  0  0  0  0  0  0  0  0  0  0
   26.1545  -21.7037  -14.7312 O   0  0  0  0  0  0  0  0  0  0  0  0
   26.7265  -20.9320  -10.1161 C   0  0  0  0  0  0  0  0  0  0  0  0
   25.4047  -20.4753  -10.6896 C   0  0  2  0  0  0  0  0  0  0  0  0
   24.2878  -20.9791   -9.8218 C   0  0  0  0  0  0  0  0  0  0  0  0
   25.3046  -20.8979  -12.1206 C   0  0  2  0  0  0  0  0  0  0  0  0
   26.3282  -20.2754  -12.9423 N   0  0  0  0  0  0  0  0  0  0  0  0
   23.9407  -20.6218  -12.7044 C   0  0  0  0  0  0  0  0  0  0  0  0
   23.5754  -19.4376  -12.9171 O   0  0  0  0  0  0  0  0  0  0  0  0
   19.1946  -21.6170  -14.8575 N   0  0  0  0  0  0  0  0  0  0  0  0
   19.9477  -22.8228  -14.6901 C   0  0  0  0  0  0  0  0  0  0  0  0
   19.4225  -23.8705  -15.1384 O   0  0  0  0  0  0  0  0  0  0  0  0
   21.2601  -22.8205  -14.0304 C   0  0  0  0  0  0  0  0  0  0  0  0
   21.7204  -21.4641  -13.5822 C   0  0  2  0  0  0  0  0  0  0  0  0
   23.0629  -21.6837  -13.0171 N   0  0  0  0  0  0  0  0  0  0  0  0
   20.8246  -20.9137  -12.5211 C   0  0  0  0  0  0  0  0  0  0  0  0
   20.0361  -19.8122  -12.8074 O   0  0  0  0  0  0  0  0  0  0  0  0
   20.7705  -21.4198  -11.3853 O   0  0  0  0  0  0  0  0  0  0  0  0
  2  3  2  0
  2  1  1  0
  4  2  1  0
  5  4  1  0
  6  5  1  0
  6  7  1  6
  8  6  1  0
  9  8  2  0
 11 10  1  1
 11 13  1  0
 12 11  1  0
 13 15  1  0
 13 14  1  6
 14  8  1  0
 15 16  2  0
 18 17  1  0
 18 19  2  0
 21 20  1  1
 20 18  1  0
 22 15  1  0
 22 21  1  0
 23 21  1  0
 23 24  1  0
 25 23  2  0
M  END
$$$$
