QVN.pdb
     RDKit          3D

 25 24  0  0  1  0  0  0  0  0999 V2000
   21.6202  -15.7334  -17.1808 N   0  0  0  0  0  0  0  0  0  0  0  0
   20.2146  -15.5794  -17.0039 C   0  0  0  0  0  0  0  0  0  0  0  0
   19.7136  -16.0018  -15.9199 O   0  0  0  0  0  0  0  0  0  0  0  0
   19.3519  -14.9522  -18.0347 C   0  0  0  0  0  0  0  0  0  0  0  0
   18.9410  -13.5769  -17.5344 C   0  0  0  0  0  0  0  0  0  0  0  0
   17.7079  -13.6912  -16.6334 C   0  0  2  0  0  0  0  0  0  0  0  0
   16.7659  -14.6258  -17.2323 N   0  0  0  0  0  0  0  0  0  0  0  0
   17.1151  -12.3248  -16.5558 C   0  0  0  0  0  0  0  0  0  0  0  0
   16.6337  -11.8433  -17.6086 O   0  0  0  0  0  0  0  0  0  0  0  0
   16.1072  -10.5560  -12.8343 C   0  0  0  0  0  0  0  0  0  0  0  0
   15.4705  -10.1879  -14.1549 C   0  0  2  0  0  0  0  0  0  0  0  0
   14.2783  -11.0692  -14.3926 C   0  0  0  0  0  0  0  0  0  0  0  0
   16.4972  -10.2433  -15.2408 C   0  0  2  0  0  0  0  0  0  0  0  0
   17.0756  -11.5694  -15.3724 N   0  0  0  0  0  0  0  0  0  0  0  0
   17.5923   -9.2236  -15.0451 C   0  0  0  0  0  0  0  0  0  0  0  0
   18.7576   -9.5991  -14.7587 O   0  0  0  0  0  0  0  0  0  0  0  0
   21.0589   -5.8392  -17.4689 N   0  0  0  0  0  0  0  0  0  0  0  0
   20.5000   -6.2124  -16.2052 C   0  0  0  0  0  0  0  0  0  0  0  0
   21.0201   -5.6853  -15.1921 O   0  0  0  0  0  0  0  0  0  0  0  0
   19.3803   -7.1586  -16.1126 C   0  0  0  0  0  0  0  0  0  0  0  0
   18.3703   -6.8145  -15.0571 C   0  0  2  0  0  0  0  0  0  0  0  0
   17.3233   -7.8433  -15.1802 N   0  0  0  0  0  0  0  0  0  0  0  0
   17.7691   -5.4695  -15.3038 C   0  0  0  0  0  0  0  0  0  0  0  0
   18.2365   -4.3794  -14.5894 O   0  0  0  0  0  0  0  0  0  0  0  0
   16.8570   -5.3045  -16.1344 O   0  0  0  0  0  0  0  0  0  0  0  0
  2  3  2  0
  2  1  1  0
  4  2  1  0
  5  4  1  0
  6  5  1  0
  6  7  1  6
  8  6  1  0
  9  8  2  0
 11 10  1  1
 11 13  1  0
 12 11  1  0
 13 15  1  0
 13 14  1  1
 14  8  1  0
 15 16  2  0
 18 17  1  0
 18 19  2  0
 21 20  1  6
 20 18  1  0
 22 15  1  0
 22 21  1  0
 23 21  1  0
 23 24  1  0
 25 23  2  0
M  END
$$$$
