QVN.pdb
     RDKit          3D

 25 24  0  0  1  0  0  0  0  0999 V2000
   22.1579  -10.9160  -21.0316 N   0  0  0  0  0  0  0  0  0  0  0  0
   20.9300  -11.6158  -21.2137 C   0  0  0  0  0  0  0  0  0  0  0  0
   20.6804  -12.0640  -22.3718 O   0  0  0  0  0  0  0  0  0  0  0  0
   19.9664  -11.8236  -20.1053 C   0  0  0  0  0  0  0  0  0  0  0  0
   20.4906  -11.0930  -18.8798 C   0  0  0  0  0  0  0  0  0  0  0  0
   21.5889  -11.9191  -18.2040 C   0  0  2  0  0  0  0  0  0  0  0  0
   21.0348  -13.2008  -17.7918 N   0  0  0  0  0  0  0  0  0  0  0  0
   22.0364  -11.1341  -17.0175 C   0  0  0  0  0  0  0  0  0  0  0  0
   21.2128  -10.9755  -16.0856 O   0  0  0  0  0  0  0  0  0  0  0  0
   26.1073   -9.5984  -16.6001 C   0  0  0  0  0  0  0  0  0  0  0  0
   25.2305  -10.0775  -15.4659 C   0  0  2  0  0  0  0  0  0  0  0  0
   25.5179  -11.5263  -15.1956 C   0  0  0  0  0  0  0  0  0  0  0  0
   23.7977   -9.7876  -15.7810 C   0  0  2  0  0  0  0  0  0  0  0  0
   23.3200  -10.5751  -16.9044 N   0  0  0  0  0  0  0  0  0  0  0  0
   23.5550   -8.3214  -16.0428 C   0  0  0  0  0  0  0  0  0  0  0  0
   23.7281   -7.8512  -17.1961 O   0  0  0  0  0  0  0  0  0  0  0  0
   21.6314   -3.5424  -15.8447 N   0  0  0  0  0  0  0  0  0  0  0  0
   21.0216   -4.7290  -16.3630 C   0  0  0  0  0  0  0  0  0  0  0  0
   19.9842   -4.5642  -17.0494 O   0  0  0  0  0  0  0  0  0  0  0  0
   21.5882   -6.0585  -16.1003 C   0  0  0  0  0  0  0  0  0  0  0  0
   22.8072   -6.0452  -15.2249 C   0  0  2  0  0  0  0  0  0  0  0  0
   23.1331   -7.4643  -15.0020 N   0  0  0  0  0  0  0  0  0  0  0  0
   22.5208   -5.3945  -13.9111 C   0  0  0  0  0  0  0  0  0  0  0  0
   22.3953   -6.1831  -12.7800 O   0  0  0  0  0  0  0  0  0  0  0  0
   22.3904   -4.1611  -13.8082 O   0  0  0  0  0  0  0  0  0  0  0  0
  2  3  2  0
  2  1  1  0
  4  2  1  0
  5  4  1  0
  6  5  1  0
  6  7  1  1
  8  6  1  0
  9  8  2  0
 11 10  1  6
 11 13  1  0
 12 11  1  0
 13 15  1  0
 13 14  1  6
 14  8  1  0
 15 16  2  0
 18 17  1  0
 18 19  2  0
 21 20  1  6
 20 18  1  0
 22 15  1  0
 22 21  1  0
 23 21  1  0
 23 24  1  0
 25 23  2  0
M  END
$$$$
