QVN.pdb
     RDKit          3D

 25 24  0  0  1  0  0  0  0  0999 V2000
   20.5267  -18.5054  -14.2529 N   0  0  0  0  0  0  0  0  0  0  0  0
   21.6794  -19.3423  -14.2949 C   0  0  0  0  0  0  0  0  0  0  0  0
   21.5912  -20.4838  -13.7531 O   0  0  0  0  0  0  0  0  0  0  0  0
   22.9437  -18.9149  -14.9421 C   0  0  0  0  0  0  0  0  0  0  0  0
   22.7430  -17.5118  -15.4914 C   0  0  0  0  0  0  0  0  0  0  0  0
   21.7283  -17.5356  -16.6382 C   0  0  2  0  0  0  0  0  0  0  0  0
   22.1774  -18.4796  -17.6515 N   0  0  0  0  0  0  0  0  0  0  0  0
   21.6859  -16.1513  -17.1917 C   0  0  0  0  0  0  0  0  0  0  0  0
   22.6500  -15.7842  -17.9043 O   0  0  0  0  0  0  0  0  0  0  0  0
   19.1855  -14.7129  -19.4812 C   0  0  0  0  0  0  0  0  0  0  0  0
   19.1950  -13.7947  -18.2805 C   0  0  2  0  0  0  0  0  0  0  0  0
   18.8981  -12.3922  -18.7271 C   0  0  0  0  0  0  0  0  0  0  0  0
   20.4896  -13.9407  -17.5461 C   0  0  2  0  0  0  0  0  0  0  0  0
   20.6290  -15.2583  -16.9505 N   0  0  0  0  0  0  0  0  0  0  0  0
   20.6704  -12.8788  -16.4893 C   0  0  0  0  0  0  0  0  0  0  0  0
   19.9963  -12.9252  -15.4289 O   0  0  0  0  0  0  0  0  0  0  0  0
   22.5759   -8.4556  -14.2252 N   0  0  0  0  0  0  0  0  0  0  0  0
   23.4831   -8.9931  -15.1933 C   0  0  0  0  0  0  0  0  0  0  0  0
   24.5930   -8.4163  -15.2924 O   0  0  0  0  0  0  0  0  0  0  0  0
   23.1238  -10.1550  -16.0170 C   0  0  0  0  0  0  0  0  0  0  0  0
   21.7883  -10.7543  -15.6854 C   0  0  2  0  0  0  0  0  0  0  0  0
   21.5936  -11.8260  -16.6770 N   0  0  0  0  0  0  0  0  0  0  0  0
   20.6945   -9.7472  -15.8290 C   0  0  0  0  0  0  0  0  0  0  0  0
   20.1123   -9.2154  -14.6908 O   0  0  0  0  0  0  0  0  0  0  0  0
   20.2921   -9.3754  -16.9465 O   0  0  0  0  0  0  0  0  0  0  0  0
  2  3  2  0
  2  1  1  0
  4  2  1  0
  5  4  1  0
  6  5  1  0
  6  7  1  6
  8  6  1  0
  9  8  2  0
 11 10  1  6
 11 13  1  0
 12 11  1  0
 13 15  1  0
 13 14  1  1
 14  8  1  0
 15 16  2  0
 18 17  1  0
 18 19  2  0
 21 20  1  6
 20 18  1  0
 22 15  1  0
 22 21  1  0
 23 21  1  0
 23 24  1  0
 25 23  2  0
M  END
$$$$
