QVN.pdb
     RDKit          3D

 25 24  0  0  1  0  0  0  0  0999 V2000
   16.7078  -15.3136  -15.3998 N   0  0  0  0  0  0  0  0  0  0  0  0
   15.7640  -14.4855  -16.0736 C   0  0  0  0  0  0  0  0  0  0  0  0
   14.7826  -15.0570  -16.6346 O   0  0  0  0  0  0  0  0  0  0  0  0
   15.9044  -13.0099  -16.1290 C   0  0  0  0  0  0  0  0  0  0  0  0
   17.1283  -12.6205  -15.3160 C   0  0  0  0  0  0  0  0  0  0  0  0
   18.2296  -12.0949  -16.2414 C   0  0  2  0  0  0  0  0  0  0  0  0
   18.8729  -13.2210  -16.9030 N   0  0  0  0  0  0  0  0  0  0  0  0
   19.2013  -11.3718  -15.3711 C   0  0  0  0  0  0  0  0  0  0  0  0
   19.6989  -12.0052  -14.4103 O   0  0  0  0  0  0  0  0  0  0  0  0
   21.3190   -8.0603  -16.7700 C   0  0  0  0  0  0  0  0  0  0  0  0
   21.7470   -8.9183  -15.6015 C   0  0  2  0  0  0  0  0  0  0  0  0
   22.5412  -10.0869  -16.1098 C   0  0  0  0  0  0  0  0  0  0  0  0
   20.5488   -9.2998  -14.7922 C   0  0  2  0  0  0  0  0  0  0  0  0
   19.5740  -10.0339  -15.5805 N   0  0  0  0  0  0  0  0  0  0  0  0
   19.8908   -8.1052  -14.1465 C   0  0  0  0  0  0  0  0  0  0  0  0
   18.9558   -7.5064  -14.7367 O   0  0  0  0  0  0  0  0  0  0  0  0
   18.8083   -4.3962  -10.5305 N   0  0  0  0  0  0  0  0  0  0  0  0
   18.8801   -5.7367  -10.0337 C   0  0  0  0  0  0  0  0  0  0  0  0
   18.4694   -5.9158   -8.8616 O   0  0  0  0  0  0  0  0  0  0  0  0
   19.4055   -6.8321  -10.8593 C   0  0  0  0  0  0  0  0  0  0  0  0
   19.7776   -6.4257  -12.2554 C   0  0  2  0  0  0  0  0  0  0  0  0
   20.3144   -7.6476  -12.8787 N   0  0  0  0  0  0  0  0  0  0  0  0
   20.8367   -5.3724  -12.2465 C   0  0  0  0  0  0  0  0  0  0  0  0
   20.4663   -4.0431  -12.1335 O   0  0  0  0  0  0  0  0  0  0  0  0
   22.0441   -5.6599  -12.3399 O   0  0  0  0  0  0  0  0  0  0  0  0
  2  3  2  0
  2  1  1  0
  4  2  1  0
  5  4  1  0
  6  5  1  0
  6  7  1  1
  8  6  1  0
  9  8  2  0
 11 10  1  6
 11 13  1  0
 12 11  1  0
 13 15  1  0
 13 14  1  6
 14  8  1  0
 15 16  2  0
 18 17  1  0
 18 19  2  0
 21 20  1  1
 20 18  1  0
 22 15  1  0
 22 21  1  0
 23 21  1  0
 23 24  1  0
 25 23  2  0
M  END
$$$$
