THG.pdb
     RDKit          3D

 22 22  0  0  1  0  0  0  0  0999 V2000
   18.6145  -10.9520  -17.2833 C   0  0  0  0  0  0  0  0  0  0  0  0
   19.1781  -12.1749  -16.6298 C   0  0  1  0  0  0  0  0  0  0  0  0
   18.7897  -13.3519  -17.2342 O   0  0  0  0  0  0  0  0  0  0  0  0
   20.6871  -12.1116  -16.5880 C   0  0  2  0  0  0  0  0  0  0  0  0
   21.2520  -13.2953  -15.9698 N   0  0  0  0  0  0  0  0  0  0  0  0
   21.1816  -10.9332  -15.8330 C   0  0  0  0  0  0  0  0  0  0  0  0
   21.0924  -10.8884  -14.5797 O   0  0  0  0  0  0  0  0  0  0  0  0
   21.7714   -9.8169  -16.4942 N   0  0  0  0  0  0  0  0  0  0  0  0
   22.2157   -8.6330  -15.7746 C   0  0  1  0  0  0  0  0  0  0  0  0
   23.5917   -8.2029  -16.2101 C   0  0  0  0  0  0  0  0  0  0  0  0
   24.6602   -9.1527  -15.8544 C   0  0  0  0  0  0  0  0  0  0  0  0
   24.4743  -10.2986  -15.1312 C   0  0  0  0  0  0  0  0  0  0  0  0
   25.6640  -10.9497  -14.9785 N   0  0  0  0  0  0  0  0  0  0  0  0
   26.5596  -10.1752  -15.6208 C   0  0  0  0  0  0  0  0  0  0  0  0
   25.9674   -9.0936  -16.1503 N   0  0  0  0  0  0  0  0  0  0  0  0
   21.2786   -7.5372  -16.1183 C   0  0  0  0  0  0  0  0  0  0  0  0
   20.9548   -7.2713  -17.3092 O   0  0  0  0  0  0  0  0  0  0  0  0
   20.6975   -6.7301  -15.1197 N   0  0  0  0  0  0  0  0  0  0  0  0
   19.7513   -5.6677  -15.4121 C   0  0  0  0  0  0  0  0  0  0  0  0
   20.4170   -4.3882  -15.6733 C   0  0  0  0  0  0  0  0  0  0  0  0
   21.6656   -4.3523  -15.6855 O   0  0  0  0  0  0  0  0  0  0  0  0
   19.6383   -3.2641  -15.8975 O   0  0  0  0  0  0  0  0  0  0  0  0
  2  1  1  6
  2  4  1  0
  2  3  1  0
  4  6  1  0
  4  5  1  1
  6  7  2  0
  8  9  1  0
  8  6  1  0
  9 16  1  0
  9 10  1  6
 11 10  1  0
 11 15  1  0
 12 13  1  0
 12 11  2  0
 13 14  1  0
 14 15  2  0
 16 17  2  0
 18 16  1  0
 18 19  1  0
 19 20  1  0
 20 21  2  0
 20 22  1  0
M  END
$$$$
