THG.pdb
     RDKit          3D

 22 22  0  0  1  0  0  0  0  0999 V2000
   19.3572   -8.6265  -17.2089 C   0  0  0  0  0  0  0  0  0  0  0  0
   19.3551  -10.0454  -16.7325 C   0  0  1  0  0  0  0  0  0  0  0  0
   18.4769  -10.8565  -17.4198 O   0  0  0  0  0  0  0  0  0  0  0  0
   20.7430  -10.6374  -16.8094 C   0  0  2  0  0  0  0  0  0  0  0  0
   20.7551  -12.0220  -16.3789 N   0  0  0  0  0  0  0  0  0  0  0  0
   21.7185   -9.8990  -15.9690 C   0  0  0  0  0  0  0  0  0  0  0  0
   21.7436  -10.0579  -14.7221 O   0  0  0  0  0  0  0  0  0  0  0  0
   22.6563   -8.9894  -16.5385 N   0  0  0  0  0  0  0  0  0  0  0  0
   23.5704   -8.2036  -15.7237 C   0  0  1  0  0  0  0  0  0  0  0  0
   24.9777   -8.2607  -16.2567 C   0  0  0  0  0  0  0  0  0  0  0  0
   25.5951   -9.5963  -16.1850 C   0  0  0  0  0  0  0  0  0  0  0  0
   26.4075  -10.0252  -15.1717 C   0  0  0  0  0  0  0  0  0  0  0  0
   26.8097  -11.3074  -15.4099 N   0  0  0  0  0  0  0  0  0  0  0  0
   26.2254  -11.6349  -16.5785 C   0  0  0  0  0  0  0  0  0  0  0  0
   25.4938  -10.6146  -17.0526 N   0  0  0  0  0  0  0  0  0  0  0  0
   23.1222   -6.7930  -15.8037 C   0  0  0  0  0  0  0  0  0  0  0  0
   22.7769   -6.2525  -16.8910 O   0  0  0  0  0  0  0  0  0  0  0  0
   23.0598   -5.9781  -14.6555 N   0  0  0  0  0  0  0  0  0  0  0  0
   22.5838   -4.6062  -14.6838 C   0  0  0  0  0  0  0  0  0  0  0  0
   21.1264   -4.5218  -14.5520 C   0  0  0  0  0  0  0  0  0  0  0  0
   20.4679   -5.5806  -14.4768 O   0  0  0  0  0  0  0  0  0  0  0  0
   20.5307   -3.2711  -14.5153 O   0  0  0  0  0  0  0  0  0  0  0  0
  2  1  1  6
  2  4  1  0
  2  3  1  0
  4  6  1  0
  4  5  1  1
  6  7  2  0
  8  9  1  0
  8  6  1  0
  9 16  1  0
  9 10  1  6
 11 10  1  0
 11 15  1  0
 12 13  1  0
 12 11  2  0
 13 14  1  0
 14 15  2  0
 16 17  2  0
 18 16  1  0
 18 19  1  0
 19 20  1  0
 20 21  2  0
 20 22  1  0
M  END
$$$$
