THG.pdb
     RDKit          3D

 22 22  0  0  1  0  0  0  0  0999 V2000
   23.9650   -9.6938  -19.6110 C   0  0  0  0  0  0  0  0  0  0  0  0
   23.1065  -10.8190  -20.0979 C   0  0  1  0  0  0  0  0  0  0  0  0
   23.8003  -11.7731  -20.8118 O   0  0  0  0  0  0  0  0  0  0  0  0
   22.3909  -11.4832  -18.9449 C   0  0  2  0  0  0  0  0  0  0  0  0
   21.5772  -12.5962  -19.3942 N   0  0  0  0  0  0  0  0  0  0  0  0
   21.5017  -10.5442  -18.2165 C   0  0  0  0  0  0  0  0  0  0  0  0
   20.4632  -10.0892  -18.7599 O   0  0  0  0  0  0  0  0  0  0  0  0
   21.7885  -10.1259  -16.8846 N   0  0  0  0  0  0  0  0  0  0  0  0
   20.8835   -9.2773  -16.1245 C   0  0  1  0  0  0  0  0  0  0  0  0
   20.3386   -9.9905  -14.9152 C   0  0  0  0  0  0  0  0  0  0  0  0
   19.3003  -10.9894  -15.2223 C   0  0  0  0  0  0  0  0  0  0  0  0
   18.8547  -11.2877  -16.4805 C   0  0  0  0  0  0  0  0  0  0  0  0
   17.8928  -12.2536  -16.4158 N   0  0  0  0  0  0  0  0  0  0  0  0
   17.7726  -12.5255  -15.1020 C   0  0  0  0  0  0  0  0  0  0  0  0
   18.6132  -11.7719  -14.3764 N   0  0  0  0  0  0  0  0  0  0  0  0
   21.6747   -8.1216  -15.6392 C   0  0  0  0  0  0  0  0  0  0  0  0
   22.8502   -8.2438  -15.1955 O   0  0  0  0  0  0  0  0  0  0  0  0
   21.1456   -6.8154  -15.6501 N   0  0  0  0  0  0  0  0  0  0  0  0
   21.8998   -5.6525  -15.2162 C   0  0  0  0  0  0  0  0  0  0  0  0
   21.7370   -5.3886  -13.7836 C   0  0  0  0  0  0  0  0  0  0  0  0
   21.0360   -6.1687  -13.1051 O   0  0  0  0  0  0  0  0  0  0  0  0
   22.3662   -4.2836  -13.2326 O   0  0  0  0  0  0  0  0  0  0  0  0
  2  1  1  1
  2  4  1  0
  2  3  1  0
  4  6  1  0
  4  5  1  6
  6  7  2  0
  8  9  1  0
  8  6  1  0
  9 16  1  0
  9 10  1  1
 11 10  1  0
 11 15  1  0
 12 13  1  0
 12 11  2  0
 13 14  1  0
 14 15  2  0
 16 17  2  0
 18 16  1  0
 18 19  1  0
 19 20  1  0
 20 21  2  0
 20 22  1  0
M  END
$$$$
