THG.pdb
     RDKit          3D

 22 22  0  0  1  0  0  0  0  0999 V2000
   26.1007  -19.3361  -14.3823 C   0  0  0  0  0  0  0  0  0  0  0  0
   26.5815  -20.4784  -13.5431 C   0  0  1  0  0  0  0  0  0  0  0  0
   27.9169  -20.3940  -13.2099 O   0  0  0  0  0  0  0  0  0  0  0  0
   25.7603  -20.5971  -12.2805 C   0  0  2  0  0  0  0  0  0  0  0  0
   26.2804  -21.6276  -11.4030 N   0  0  0  0  0  0  0  0  0  0  0  0
   24.3395  -20.9227  -12.5602 C   0  0  0  0  0  0  0  0  0  0  0  0
   23.9661  -22.1164  -12.6879 O   0  0  0  0  0  0  0  0  0  0  0  0
   23.3524  -19.9034  -12.6936 N   0  0  0  0  0  0  0  0  0  0  0  0
   21.9444  -20.2068  -12.8994 C   0  0  1  0  0  0  0  0  0  0  0  0
   21.0777  -19.5536  -11.8553 C   0  0  0  0  0  0  0  0  0  0  0  0
   21.0605  -20.2569  -10.5610 C   0  0  0  0  0  0  0  0  0  0  0  0
   21.7250  -21.4235  -10.2999 C   0  0  0  0  0  0  0  0  0  0  0  0
   21.5008  -21.8070   -9.0094 N   0  0  0  0  0  0  0  0  0  0  0  0
   20.6939  -20.8526   -8.5070 C   0  0  0  0  0  0  0  0  0  0  0  0
   20.4233  -19.9170   -9.4303 N   0  0  0  0  0  0  0  0  0  0  0  0
   21.5634  -19.6360  -14.2132 C   0  0  0  0  0  0  0  0  0  0  0  0
   21.5003  -18.3920  -14.4187 O   0  0  0  0  0  0  0  0  0  0  0  0
   21.2495  -20.4652  -15.3088 N   0  0  0  0  0  0  0  0  0  0  0  0
   20.9417  -19.9473  -16.6304 C   0  0  0  0  0  0  0  0  0  0  0  0
   22.1500  -19.6561  -17.4073 C   0  0  0  0  0  0  0  0  0  0  0  0
   22.6727  -20.5755  -18.0721 O   0  0  0  0  0  0  0  0  0  0  0  0
   22.6697  -18.3718  -17.3771 O   0  0  0  0  0  0  0  0  0  0  0  0
  2  1  1  1
  2  4  1  0
  2  3  1  0
  4  6  1  0
  4  5  1  1
  6  7  2  0
  8  9  1  0
  8  6  1  0
  9 16  1  0
  9 10  1  1
 11 10  1  0
 11 15  1  0
 12 13  1  0
 12 11  2  0
 13 14  1  0
 14 15  2  0
 16 17  2  0
 18 16  1  0
 18 19  1  0
 19 20  1  0
 20 21  2  0
 20 22  1  0
M  END
$$$$
