THG.pdb
     RDKit          3D

 22 22  0  0  1  0  0  0  0  0999 V2000
   21.3389  -11.2638  -18.7752 C   0  0  0  0  0  0  0  0  0  0  0  0
   20.7553  -10.6637  -17.5344 C   0  0  1  0  0  0  0  0  0  0  0  0
   20.9051  -11.4558  -16.4157 O   0  0  0  0  0  0  0  0  0  0  0  0
   21.3555   -9.3037  -17.2649 C   0  0  2  0  0  0  0  0  0  0  0  0
   22.7670   -9.3991  -16.9463 N   0  0  0  0  0  0  0  0  0  0  0  0
   20.6885   -8.6061  -16.1373 C   0  0  0  0  0  0  0  0  0  0  0  0
   19.4396   -8.4628  -16.1178 O   0  0  0  0  0  0  0  0  0  0  0  0
   21.4319   -8.0764  -15.0428 N   0  0  0  0  0  0  0  0  0  0  0  0
   20.8188   -7.2503  -14.0139 C   0  0  1  0  0  0  0  0  0  0  0  0
   21.3064   -7.6236  -12.6389 C   0  0  0  0  0  0  0  0  0  0  0  0
   20.6721   -6.8635  -11.5481 C   0  0  0  0  0  0  0  0  0  0  0  0
   19.5584   -7.2660  -10.8636 C   0  0  0  0  0  0  0  0  0  0  0  0
   19.2315   -6.3358   -9.9200 N   0  0  0  0  0  0  0  0  0  0  0  0
   20.1660   -5.3748  -10.0529 C   0  0  0  0  0  0  0  0  0  0  0  0
   21.0359   -5.6816  -11.0276 N   0  0  0  0  0  0  0  0  0  0  0  0
   21.2398   -5.8523  -14.2698 C   0  0  0  0  0  0  0  0  0  0  0  0
   22.4483   -5.4900  -14.2264 O   0  0  0  0  0  0  0  0  0  0  0  0
   20.2992   -4.8487  -14.5773 N   0  0  0  0  0  0  0  0  0  0  0  0
   20.6678   -3.4633  -14.8101 C   0  0  0  0  0  0  0  0  0  0  0  0
   20.3160   -2.5983  -13.6803 C   0  0  0  0  0  0  0  0  0  0  0  0
   19.6682   -3.0854  -12.7298 O   0  0  0  0  0  0  0  0  0  0  0  0
   20.7142   -1.2712  -13.7063 O   0  0  0  0  0  0  0  0  0  0  0  0
  2  1  1  6
  2  4  1  0
  2  3  1  0
  4  6  1  0
  4  5  1  1
  6  7  2  0
  8  9  1  0
  8  6  1  0
  9 16  1  0
  9 10  1  1
 11 10  1  0
 11 15  1  0
 12 13  1  0
 12 11  2  0
 13 14  1  0
 14 15  2  0
 16 17  2  0
 18 16  1  0
 18 19  1  0
 19 20  1  0
 20 21  2  0
 20 22  1  0
M  END
$$$$
