THG.pdb
     RDKit          3D

 22 22  0  0  1  0  0  0  0  0999 V2000
   18.7110  -11.0242  -17.2695 C   0  0  0  0  0  0  0  0  0  0  0  0
   19.4819  -10.1551  -16.3258 C   0  0  1  0  0  0  0  0  0  0  0  0
   18.9710  -10.1428  -15.0451 O   0  0  0  0  0  0  0  0  0  0  0  0
   20.9331  -10.5727  -16.2784 C   0  0  2  0  0  0  0  0  0  0  0  0
   21.0987  -11.8441  -15.6011 N   0  0  0  0  0  0  0  0  0  0  0  0
   21.7838   -9.5784  -15.5778 C   0  0  0  0  0  0  0  0  0  0  0  0
   21.9649   -9.6482  -14.3356 O   0  0  0  0  0  0  0  0  0  0  0  0
   22.4224   -8.5155  -16.2804 N   0  0  0  0  0  0  0  0  0  0  0  0
   23.2905   -7.5555  -15.6158 C   0  0  1  0  0  0  0  0  0  0  0  0
   24.6585   -7.5167  -16.2441 C   0  0  0  0  0  0  0  0  0  0  0  0
   25.3895   -8.7939  -16.1746 C   0  0  0  0  0  0  0  0  0  0  0  0
   25.7870   -9.4014  -15.0155 C   0  0  0  0  0  0  0  0  0  0  0  0
   26.4382  -10.5662  -15.3012 N   0  0  0  0  0  0  0  0  0  0  0  0
   26.4224  -10.6429  -16.6459 C   0  0  0  0  0  0  0  0  0  0  0  0
   25.7951   -9.5838  -17.1804 N   0  0  0  0  0  0  0  0  0  0  0  0
   22.6800   -6.2172  -15.7984 C   0  0  0  0  0  0  0  0  0  0  0  0
   22.0451   -5.8989  -16.8421 O   0  0  0  0  0  0  0  0  0  0  0  0
   22.7809   -5.2241  -14.8033 N   0  0  0  0  0  0  0  0  0  0  0  0
   22.0356   -3.9784  -14.8502 C   0  0  0  0  0  0  0  0  0  0  0  0
   22.5331   -3.0731  -15.8901 C   0  0  0  0  0  0  0  0  0  0  0  0
   23.5089   -3.4321  -16.5823 O   0  0  0  0  0  0  0  0  0  0  0  0
   21.9037   -1.8514  -16.0685 O   0  0  0  0  0  0  0  0  0  0  0  0
  2  1  1  6
  2  4  1  0
  2  3  1  0
  4  6  1  0
  4  5  1  1
  6  7  2  0
  8  9  1  0
  8  6  1  0
  9 16  1  0
  9 10  1  6
 11 10  1  0
 11 15  1  0
 12 13  1  0
 12 11  2  0
 13 14  1  0
 14 15  2  0
 16 17  2  0
 18 16  1  0
 18 19  1  0
 19 20  1  0
 20 21  2  0
 20 22  1  0
M  END
$$$$
