NEY.pdb
     RDKit          3D

 30 30  0  0  1  0  0  0  0  0999 V2000
    7.4676  -16.8060   17.4042 N   0  0  0  0  0  0  0  0  0  0  0  0
    7.1216  -17.9597   18.1452 C   0  0  0  0  0  0  0  0  0  0  0  0
    6.4985  -18.9139   17.6332 O   0  0  0  0  0  0  0  0  0  0  0  0
    7.5027  -18.0484   19.5631 C   0  0  0  0  0  0  0  0  0  0  0  0
    8.0822  -16.7256   20.0483 C   0  0  2  0  0  0  0  0  0  0  0  0
    8.9087  -16.1440   19.0259 N   0  0  0  0  0  0  0  0  0  0  0  0
    8.9075  -17.0562   21.2645 C   0  0  0  0  0  0  0  0  0  0  0  0
    8.2902  -17.5698   22.2481 O   0  0  0  0  0  0  0  0  0  0  0  0
   10.2827  -16.7772   21.2264 N   0  0  0  0  0  0  0  0  0  0  0  0
   11.1471  -16.9645   22.3394 C   0  0  1  0  0  0  0  0  0  0  0  0
   12.6302  -16.8641   22.0184 C   0  0  0  0  0  0  0  0  0  0  0  0
   13.5128  -17.2430   23.1777 C   0  0  0  0  0  0  0  0  0  0  0  0
   14.9361  -17.0886   22.7376 C   0  0  0  0  0  0  0  0  0  0  0  0
   15.6966  -18.0841   22.6476 O   0  0  0  0  0  0  0  0  0  0  0  0
   10.8424  -16.1670   23.5167 C   0  0  0  0  0  0  0  0  0  0  0  0
   10.8607  -14.8878   23.5119 O   0  0  0  0  0  0  0  0  0  0  0  0
   15.4429  -15.8304   22.4189 O   0  0  0  0  0  0  0  0  0  0  0  0
    6.2465  -10.9053   26.7500 O   0  0  0  0  0  0  0  0  0  0  0  0
    6.7541  -12.1158   26.2888 C   0  0  0  0  0  0  0  0  0  0  0  0
    8.0880  -12.4029   26.4598 C   0  0  0  0  0  0  0  0  0  0  0  0
    8.6039  -13.5908   26.0113 C   0  0  0  0  0  0  0  0  0  0  0  0
    7.8045  -14.5133   25.3858 C   0  0  0  0  0  0  0  0  0  0  0  0
    8.3655  -15.7743   24.9123 C   0  0  0  0  0  0  0  0  0  0  0  0
    9.5945  -16.1391   25.7086 C   0  0  2  0  0  0  0  0  0  0  0  0
   10.5054  -16.7679   24.7405 N   0  0  0  0  0  0  0  0  0  0  0  0
    9.3541  -17.0042   26.8572 C   0  0  0  0  0  0  0  0  0  0  0  0
    9.0957  -16.4742   28.1036 O   0  0  0  0  0  0  0  0  0  0  0  0
    6.4415  -14.2635   25.1902 C   0  0  0  0  0  0  0  0  0  0  0  0
    5.9700  -13.0556   25.6585 C   0  0  0  0  0  0  0  0  0  0  0  0
    9.3793  -18.2520   26.7323 O   0  0  0  0  0  0  0  0  0  0  0  0
  2  1  1  0
  3  2  2  0
  4  5  1  0
  4  2  1  0
  5  6  1  6
  7  8  2  0
  7  5  1  0
  9  7  1  0
 10  9  1  0
 11 12  1  0
 10 11  1  6
 12 13  1  0
 13 14  2  0
 13 17  1  0
 15 16  2  0
 15 10  1  0
 18 19  1  0
 19 20  2  0
 20 21  1  0
 22 23  1  0
 22 21  2  0
 24 23  1  6
 24 25  1  0
 25 15  1  0
 26 24  1  0
 27 26  1  0
 28 22  1  0
 29 28  2  0
 29 19  1  0
 30 26  2  0
M  END
$$$$
