NEY.pdb
     RDKit          3D

 30 30  0  0  1  0  0  0  0  0999 V2000
    6.9819  -12.4049   16.3898 N   0  0  0  0  0  0  0  0  0  0  0  0
    7.1698  -13.7651   16.7278 C   0  0  0  0  0  0  0  0  0  0  0  0
    7.3874  -14.6391   15.8620 O   0  0  0  0  0  0  0  0  0  0  0  0
    7.1091  -14.1734   18.1396 C   0  0  0  0  0  0  0  0  0  0  0  0
    8.4487  -13.9380   18.8260 C   0  0  2  0  0  0  0  0  0  0  0  0
    9.5248  -14.1731   17.9022 N   0  0  0  0  0  0  0  0  0  0  0  0
    8.5099  -14.9234   19.9639 C   0  0  0  0  0  0  0  0  0  0  0  0
    7.6288  -14.8011   20.8700 O   0  0  0  0  0  0  0  0  0  0  0  0
    9.5228  -15.8950   19.9436 N   0  0  0  0  0  0  0  0  0  0  0  0
    9.6970  -16.8609   20.9721 C   0  0  1  0  0  0  0  0  0  0  0  0
   10.3493  -18.1593   20.5231 C   0  0  0  0  0  0  0  0  0  0  0  0
   10.4709  -19.1730   21.6295 C   0  0  0  0  0  0  0  0  0  0  0  0
   10.9995  -20.4404   21.0316 C   0  0  0  0  0  0  0  0  0  0  0  0
   10.2207  -21.3457   20.6424 O   0  0  0  0  0  0  0  0  0  0  0  0
   10.3374  -16.3816   22.1866 C   0  0  0  0  0  0  0  0  0  0  0  0
   11.5291  -15.9166   22.2054 O   0  0  0  0  0  0  0  0  0  0  0  0
   12.3723  -20.6370   20.8963 O   0  0  0  0  0  0  0  0  0  0  0  0
   10.9453  -14.6494   30.8046 O   0  0  0  0  0  0  0  0  0  0  0  0
   10.5233  -14.8018   29.4877 C   0  0  0  0  0  0  0  0  0  0  0  0
   10.4039  -16.0635   28.9538 C   0  0  0  0  0  0  0  0  0  0  0  0
    9.9894  -16.2310   27.6582 C   0  0  0  0  0  0  0  0  0  0  0  0
    9.6865  -15.1492   26.8712 C   0  0  0  0  0  0  0  0  0  0  0  0
    9.2467  -15.3404   25.4932 C   0  0  0  0  0  0  0  0  0  0  0  0
   10.3243  -16.0179   24.6826 C   0  0  2  0  0  0  0  0  0  0  0  0
    9.6711  -16.4028   23.4227 N   0  0  0  0  0  0  0  0  0  0  0  0
   10.9583  -17.1613   25.3278 C   0  0  0  0  0  0  0  0  0  0  0  0
   10.3349  -18.3905   25.3664 O   0  0  0  0  0  0  0  0  0  0  0  0
    9.7935  -13.8471   27.3727 C   0  0  0  0  0  0  0  0  0  0  0  0
   10.2142  -13.7303   28.6804 C   0  0  0  0  0  0  0  0  0  0  0  0
   12.0869  -17.0468   25.8628 O   0  0  0  0  0  0  0  0  0  0  0  0
  2  1  1  0
  3  2  2  0
  4  5  1  0
  4  2  1  0
  5  6  1  6
  7  8  2  0
  7  5  1  0
  9  7  1  0
 10  9  1  0
 11 12  1  0
 10 11  1  6
 12 13  1  0
 13 14  2  0
 13 17  1  0
 15 16  2  0
 15 10  1  0
 18 19  1  0
 19 20  2  0
 20 21  1  0
 22 23  1  0
 22 21  2  0
 24 23  1  1
 24 25  1  0
 25 15  1  0
 26 24  1  0
 27 26  1  0
 28 22  1  0
 29 28  2  0
 29 19  1  0
 30 26  2  0
M  END
$$$$
