NEY.pdb
     RDKit          3D

 30 30  0  0  1  0  0  0  0  0999 V2000
    7.3060  -12.0571   17.7428 N   0  0  0  0  0  0  0  0  0  0  0  0
    7.4994  -13.4314   17.4709 C   0  0  0  0  0  0  0  0  0  0  0  0
    7.5033  -13.8822   16.3058 O   0  0  0  0  0  0  0  0  0  0  0  0
    7.7032  -14.3666   18.5877 C   0  0  0  0  0  0  0  0  0  0  0  0
    9.1270  -14.2667   19.1205 C   0  0  2  0  0  0  0  0  0  0  0  0
   10.0685  -14.5094   18.0615 N   0  0  0  0  0  0  0  0  0  0  0  0
    9.2474  -15.3282   20.1826 C   0  0  0  0  0  0  0  0  0  0  0  0
    8.4211  -15.2662   21.1448 O   0  0  0  0  0  0  0  0  0  0  0  0
   10.2509  -16.2989   20.0368 N   0  0  0  0  0  0  0  0  0  0  0  0
   10.5911  -17.2276   21.0579 C   0  0  1  0  0  0  0  0  0  0  0  0
   11.5745  -18.3078   20.6349 C   0  0  0  0  0  0  0  0  0  0  0  0
   11.8061  -19.3462   21.7002 C   0  0  0  0  0  0  0  0  0  0  0  0
   12.8491  -20.2946   21.1944 C   0  0  0  0  0  0  0  0  0  0  0  0
   14.0677  -19.9917   21.2248 O   0  0  0  0  0  0  0  0  0  0  0  0
   11.0097  -16.6484   22.3245 C   0  0  0  0  0  0  0  0  0  0  0  0
   11.9730  -15.8120   22.4202 O   0  0  0  0  0  0  0  0  0  0  0  0
   12.4825  -21.5360   20.6787 O   0  0  0  0  0  0  0  0  0  0  0  0
   10.4248  -14.3176   30.7710 O   0  0  0  0  0  0  0  0  0  0  0  0
   10.1867  -14.8102   29.4918 C   0  0  0  0  0  0  0  0  0  0  0  0
    9.9244  -13.9350   28.4641 C   0  0  0  0  0  0  0  0  0  0  0  0
    9.6878  -14.4040   27.1982 C   0  0  0  0  0  0  0  0  0  0  0  0
    9.7076  -15.7493   26.9314 C   0  0  0  0  0  0  0  0  0  0  0  0
    9.4538  -16.2364   25.5797 C   0  0  0  0  0  0  0  0  0  0  0  0
   10.7487  -16.3886   24.8198 C   0  0  2  0  0  0  0  0  0  0  0  0
   10.3680  -16.9805   23.5288 N   0  0  0  0  0  0  0  0  0  0  0  0
   11.7715  -17.1815   25.4912 C   0  0  0  0  0  0  0  0  0  0  0  0
   11.7192  -18.5593   25.4856 O   0  0  0  0  0  0  0  0  0  0  0  0
    9.9702  -16.6763   27.9464 C   0  0  0  0  0  0  0  0  0  0  0  0
   10.2018  -16.1561   29.2020 C   0  0  0  0  0  0  0  0  0  0  0  0
   12.7212  -16.6222   26.0898 O   0  0  0  0  0  0  0  0  0  0  0  0
  2  1  1  0
  3  2  2  0
  4  5  1  0
  4  2  1  0
  5  6  1  6
  7  8  2  0
  7  5  1  0
  9  7  1  0
 10  9  1  0
 11 12  1  0
 10 11  1  6
 12 13  1  0
 13 14  2  0
 13 17  1  0
 15 16  2  0
 15 10  1  0
 18 19  1  0
 19 20  2  0
 20 21  1  0
 22 23  1  0
 22 21  2  0
 24 23  1  1
 24 25  1  0
 25 15  1  0
 26 24  1  0
 27 26  1  0
 28 22  1  0
 29 28  2  0
 29 19  1  0
 30 26  2  0
M  END
$$$$
