NEY.pdb
     RDKit          3D

 30 30  0  0  1  0  0  0  0  0999 V2000
    9.0255  -13.9800   15.9129 N   0  0  0  0  0  0  0  0  0  0  0  0
    7.8075  -14.6501   16.1723 C   0  0  0  0  0  0  0  0  0  0  0  0
    7.1236  -15.1592   15.2591 O   0  0  0  0  0  0  0  0  0  0  0  0
    7.3225  -14.7563   17.5569 C   0  0  0  0  0  0  0  0  0  0  0  0
    8.3147  -14.1237   18.5246 C   0  0  2  0  0  0  0  0  0  0  0  0
    9.5470  -13.8288   17.8456 N   0  0  0  0  0  0  0  0  0  0  0  0
    8.5445  -15.1446   19.6084 C   0  0  0  0  0  0  0  0  0  0  0  0
    7.5222  -15.5218   20.2603 O   0  0  0  0  0  0  0  0  0  0  0  0
    9.8549  -15.6016   19.8193 N   0  0  0  0  0  0  0  0  0  0  0  0
   10.2086  -16.4998   20.8629 C   0  0  1  0  0  0  0  0  0  0  0  0
   11.5595  -17.1768   20.6906 C   0  0  0  0  0  0  0  0  0  0  0  0
   11.8622  -18.1764   21.7749 C   0  0  0  0  0  0  0  0  0  0  0  0
   13.2057  -18.7716   21.4851 C   0  0  0  0  0  0  0  0  0  0  0  0
   14.1861  -18.5529   22.2390 O   0  0  0  0  0  0  0  0  0  0  0  0
   10.0882  -15.9764   22.2143 C   0  0  0  0  0  0  0  0  0  0  0  0
   10.9029  -15.1185   22.7012 O   0  0  0  0  0  0  0  0  0  0  0  0
   13.3910  -19.5828   20.3673 O   0  0  0  0  0  0  0  0  0  0  0  0
    6.5853  -10.9678   27.8977 O   0  0  0  0  0  0  0  0  0  0  0  0
    6.7815  -11.9812   26.9649 C   0  0  0  0  0  0  0  0  0  0  0  0
    7.5946  -11.7573   25.8787 C   0  0  0  0  0  0  0  0  0  0  0  0
    7.7983  -12.7451   24.9506 C   0  0  0  0  0  0  0  0  0  0  0  0
    7.1985  -13.9712   25.0852 C   0  0  0  0  0  0  0  0  0  0  0  0
    7.4227  -15.0146   24.0903 C   0  0  0  0  0  0  0  0  0  0  0  0
    8.7450  -15.7008   24.3315 C   0  0  2  0  0  0  0  0  0  0  0  0
    9.0545  -16.3903   23.0702 N   0  0  0  0  0  0  0  0  0  0  0  0
    8.7690  -16.6193   25.4634 C   0  0  0  0  0  0  0  0  0  0  0  0
    8.9015  -17.9784   25.2724 O   0  0  0  0  0  0  0  0  0  0  0  0
    6.3631  -14.2435   26.1746 C   0  0  0  0  0  0  0  0  0  0  0  0
    6.1895  -13.2188   27.0804 C   0  0  0  0  0  0  0  0  0  0  0  0
    8.6679  -16.1881   26.6369 O   0  0  0  0  0  0  0  0  0  0  0  0
  2  1  1  0
  3  2  2  0
  4  5  1  0
  4  2  1  0
  5  6  1  6
  7  8  2  0
  7  5  1  0
  9  7  1  0
 10  9  1  0
 11 12  1  0
 10 11  1  6
 12 13  1  0
 13 14  2  0
 13 17  1  0
 15 16  2  0
 15 10  1  0
 18 19  1  0
 19 20  2  0
 20 21  1  0
 22 23  1  0
 22 21  2  0
 24 23  1  6
 24 25  1  0
 25 15  1  0
 26 24  1  0
 27 26  1  0
 28 22  1  0
 29 28  2  0
 29 19  1  0
 30 26  2  0
M  END
$$$$
