NEY.pdb
     RDKit          3D

 30 30  0  0  1  0  0  0  0  0999 V2000
    7.5501  -12.5826   17.3753 N   0  0  0  0  0  0  0  0  0  0  0  0
    7.9543  -13.9372   17.4146 C   0  0  0  0  0  0  0  0  0  0  0  0
    8.5543  -14.4776   16.4612 O   0  0  0  0  0  0  0  0  0  0  0  0
    7.6639  -14.7430   18.6103 C   0  0  0  0  0  0  0  0  0  0  0  0
    8.4383  -14.2192   19.8133 C   0  0  2  0  0  0  0  0  0  0  0  0
    9.7850  -13.8937   19.4299 N   0  0  0  0  0  0  0  0  0  0  0  0
    8.4364  -15.3354   20.8251 C   0  0  0  0  0  0  0  0  0  0  0  0
    7.3018  -15.7944   21.1632 O   0  0  0  0  0  0  0  0  0  0  0  0
    9.6722  -15.7841   21.3170 N   0  0  0  0  0  0  0  0  0  0  0  0
    9.7956  -16.7975   22.3063 C   0  0  1  0  0  0  0  0  0  0  0  0
   10.4612  -18.0782   21.8271 C   0  0  0  0  0  0  0  0  0  0  0  0
   11.5816  -17.8328   20.8518 C   0  0  0  0  0  0  0  0  0  0  0  0
   12.1562  -19.1629   20.4725 C   0  0  0  0  0  0  0  0  0  0  0  0
   12.2228  -20.1000   21.3061 O   0  0  0  0  0  0  0  0  0  0  0  0
   10.3834  -16.3791   23.5689 C   0  0  0  0  0  0  0  0  0  0  0  0
   11.4612  -16.8873   24.0347 O   0  0  0  0  0  0  0  0  0  0  0  0
   12.6294  -19.3838   19.1806 O   0  0  0  0  0  0  0  0  0  0  0  0
    6.0059  -10.2843   26.4689 O   0  0  0  0  0  0  0  0  0  0  0  0
    6.4114  -11.5920   26.2214 C   0  0  0  0  0  0  0  0  0  0  0  0
    7.7489  -11.9087   26.2646 C   0  0  0  0  0  0  0  0  0  0  0  0
    8.1649  -13.1921   26.0233 C   0  0  0  0  0  0  0  0  0  0  0  0
    7.2605  -14.1823   25.7352 C   0  0  0  0  0  0  0  0  0  0  0  0
    7.7157  -15.5447   25.4797 C   0  0  0  0  0  0  0  0  0  0  0  0
    9.2080  -15.6505   25.6784 C   0  0  2  0  0  0  0  0  0  0  0  0
    9.7908  -15.3783   24.3562 N   0  0  0  0  0  0  0  0  0  0  0  0
    9.6726  -16.9233   26.2164 C   0  0  0  0  0  0  0  0  0  0  0  0
    9.5655  -18.0858   25.4826 O   0  0  0  0  0  0  0  0  0  0  0  0
    5.8897  -13.9056   25.6807 C   0  0  0  0  0  0  0  0  0  0  0  0
    5.5210  -12.6009   25.9305 C   0  0  0  0  0  0  0  0  0  0  0  0
   10.1796  -16.9846   27.3620 O   0  0  0  0  0  0  0  0  0  0  0  0
  2  1  1  0
  3  2  2  0
  4  5  1  0
  4  2  1  0
  5  6  1  6
  7  8  2  0
  7  5  1  0
  9  7  1  0
 10  9  1  0
 11 12  1  0
 10 11  1  6
 12 13  1  0
 13 14  2  0
 13 17  1  0
 15 16  2  0
 15 10  1  0
 18 19  1  0
 19 20  2  0
 20 21  1  0
 22 23  1  0
 22 21  2  0
 24 23  1  6
 24 25  1  0
 25 15  1  0
 26 24  1  0
 27 26  1  0
 28 22  1  0
 29 28  2  0
 29 19  1  0
 30 26  2  0
M  END
$$$$
