WGK.pdb
     RDKit          3D

 28 29  0  0  1  0  0  0  0  0999 V2000
   26.5204  -21.7653  -13.7188 N   0  0  0  0  0  0  0  0  0  0  0  0
   25.6453  -21.4770  -12.6088 C   0  0  1  0  0  0  0  0  0  0  0  0
   26.1593  -20.2478  -11.8878 C   0  0  0  0  0  0  0  0  0  0  0  0
   27.3437  -20.5757  -11.0642 C   0  0  0  0  0  0  0  0  0  0  0  0
   28.6151  -20.7504  -11.5096 C   0  0  0  0  0  0  0  0  0  0  0  0
   29.4084  -21.0417  -10.4582 N   0  0  0  0  0  0  0  0  0  0  0  0
   28.6569  -21.0560   -9.3376 C   0  0  0  0  0  0  0  0  0  0  0  0
   28.9711  -21.2960   -8.0046 C   0  0  0  0  0  0  0  0  0  0  0  0
   27.9846  -21.2422   -7.0557 C   0  0  0  0  0  0  0  0  0  0  0  0
   26.7046  -20.9562   -7.4104 C   0  0  0  0  0  0  0  0  0  0  0  0
   26.3820  -20.7172   -8.7252 C   0  0  0  0  0  0  0  0  0  0  0  0
   27.3605  -20.7649   -9.7074 C   0  0  0  0  0  0  0  0  0  0  0  0
   24.2650  -21.1726  -13.0775 C   0  0  0  0  0  0  0  0  0  0  0  0
   24.0284  -20.0628  -13.6307 O   0  0  0  0  0  0  0  0  0  0  0  0
   23.2363  -22.1423  -12.8925 N   0  0  0  0  0  0  0  0  0  0  0  0
   21.8794  -21.6862  -12.9238 C   0  0  0  0  0  0  0  0  0  0  0  0
   20.8974  -22.7640  -12.6749 C   0  0  0  0  0  0  0  0  0  0  0  0
   21.1784  -23.9883  -12.6813 O   0  0  0  0  0  0  0  0  0  0  0  0
   19.5546  -22.3904  -12.4123 N   0  0  0  0  0  0  0  0  0  0  0  0
   18.5663  -23.3080  -11.8518 C   0  0  1  0  0  0  0  0  0  0  0  0
   17.7540  -22.5294  -10.8347 C   0  0  0  0  0  0  0  0  0  0  0  0
   17.1053  -23.3964   -9.8053 C   0  0  0  0  0  0  0  0  0  0  0  0
   18.1115  -23.8935   -8.8066 C   0  0  0  0  0  0  0  0  0  0  0  0
   17.4394  -24.7470   -7.7480 C   0  0  0  0  0  0  0  0  0  0  0  0
   18.4798  -25.2051   -6.8448 N   0  0  0  0  0  0  0  0  0  0  0  0
   17.7285  -23.8585  -12.9330 C   0  0  0  0  0  0  0  0  0  0  0  0
   17.1424  -24.9566  -12.8150 O   0  0  0  0  0  0  0  0  0  0  0  0
   17.5860  -23.1477  -14.1030 O   0  0  0  0  0  0  0  0  0  0  0  0
  2  1  1  6
  2 13  1  0
  2  3  1  0
  4  3  1  0
  5  4  2  0
  6  5  1  0
  7  6  1  0
  7 12  2  0
  8  7  1  0
  9  8  2  0
  9 10  1  0
 10 11  2  0
 11 12  1  0
 12  4  1  0
 13 14  2  0
 15 13  1  0
 15 16  1  0
 17 16  1  0
 17 18  2  0
 19 17  1  0
 20 26  1  0
 20 19  1  0
 20 21  1  1
 22 21  1  0
 23 24  1  0
 23 22  1  0
 24 25  1  0
 26 27  2  0
 26 28  1  0
M  END
$$$$
