WGK.pdb
     RDKit          3D

 28 29  0  0  1  0  0  0  0  0999 V2000
   25.5903  -23.3230  -15.6240 N   0  0  0  0  0  0  0  0  0  0  0  0
   24.3301  -23.1024  -14.9573 C   0  0  1  0  0  0  0  0  0  0  0  0
   23.8910  -24.3959  -14.3024 C   0  0  0  0  0  0  0  0  0  0  0  0
   23.7085  -25.4627  -15.3109 C   0  0  0  0  0  0  0  0  0  0  0  0
   24.5329  -26.5205  -15.5272 C   0  0  0  0  0  0  0  0  0  0  0  0
   24.0295  -27.2662  -16.5324 N   0  0  0  0  0  0  0  0  0  0  0  0
   22.8859  -26.6961  -16.9657 C   0  0  0  0  0  0  0  0  0  0  0  0
   21.9843  -27.0509  -17.9630 C   0  0  0  0  0  0  0  0  0  0  0  0
   20.8823  -26.2693  -18.1893 C   0  0  0  0  0  0  0  0  0  0  0  0
   20.6672  -25.1527  -17.4457 C   0  0  0  0  0  0  0  0  0  0  0  0
   21.5517  -24.7919  -16.4571 C   0  0  0  0  0  0  0  0  0  0  0  0
   22.6761  -25.5645  -16.2058 C   0  0  0  0  0  0  0  0  0  0  0  0
   24.4630  -22.0820  -13.8809 C   0  0  0  0  0  0  0  0  0  0  0  0
   23.4459  -21.7520  -13.2100 O   0  0  0  0  0  0  0  0  0  0  0  0
   25.7386  -21.4972  -13.6284 N   0  0  0  0  0  0  0  0  0  0  0  0
   25.8259  -20.5154  -12.5899 C   0  0  0  0  0  0  0  0  0  0  0  0
   25.9865  -21.1058  -11.2431 C   0  0  0  0  0  0  0  0  0  0  0  0
   25.7895  -22.3176  -10.9771 O   0  0  0  0  0  0  0  0  0  0  0  0
   26.3882  -20.2489  -10.1867 N   0  0  0  0  0  0  0  0  0  0  0  0
   26.4140  -20.6659   -8.7873 C   0  0  1  0  0  0  0  0  0  0  0  0
   27.0383  -19.5356   -7.9915 C   0  0  0  0  0  0  0  0  0  0  0  0
   27.2208  -19.8598   -6.5446 C   0  0  0  0  0  0  0  0  0  0  0  0
   27.8705  -18.7191   -5.8138 C   0  0  0  0  0  0  0  0  0  0  0  0
   28.0212  -19.0434   -4.3398 C   0  0  0  0  0  0  0  0  0  0  0  0
   28.6408  -17.8911   -3.7102 N   0  0  0  0  0  0  0  0  0  0  0  0
   25.0457  -20.9783   -8.3355 C   0  0  0  0  0  0  0  0  0  0  0  0
   24.0418  -20.4751   -8.8853 O   0  0  0  0  0  0  0  0  0  0  0  0
   24.8658  -21.8458   -7.2820 O   0  0  0  0  0  0  0  0  0  0  0  0
  2  1  1  1
  2 13  1  0
  2  3  1  0
  4  3  1  0
  5  4  2  0
  6  5  1  0
  7  6  1  0
  7 12  2  0
  8  7  1  0
  9  8  2  0
  9 10  1  0
 10 11  2  0
 11 12  1  0
 12  4  1  0
 13 14  2  0
 15 13  1  0
 15 16  1  0
 17 16  1  0
 17 18  2  0
 19 17  1  0
 20 26  1  0
 20 19  1  0
 20 21  1  1
 22 21  1  0
 23 24  1  0
 23 22  1  0
 24 25  1  0
 26 27  2  0
 26 28  1  0
M  END
$$$$
