WGK.pdb
     RDKit          3D

 28 29  0  0  1  0  0  0  0  0999 V2000
   24.7976  -19.4416   -9.1028 N   0  0  0  0  0  0  0  0  0  0  0  0
   26.1047  -19.8732   -9.5348 C   0  0  1  0  0  0  0  0  0  0  0  0
   26.4820  -21.1266   -8.7723 C   0  0  0  0  0  0  0  0  0  0  0  0
   26.6423  -20.8388   -7.3300 C   0  0  0  0  0  0  0  0  0  0  0  0
   25.7128  -21.0329   -6.3586 C   0  0  0  0  0  0  0  0  0  0  0  0
   26.2328  -20.6463   -5.1754 N   0  0  0  0  0  0  0  0  0  0  0  0
   27.4915  -20.2042   -5.3775 C   0  0  0  0  0  0  0  0  0  0  0  0
   28.4561  -19.7021   -4.5110 C   0  0  0  0  0  0  0  0  0  0  0  0
   29.6767  -19.3220   -5.0030 C   0  0  0  0  0  0  0  0  0  0  0  0
   29.9480  -19.4334   -6.3297 C   0  0  0  0  0  0  0  0  0  0  0  0
   29.0022  -19.9284   -7.1959 C   0  0  0  0  0  0  0  0  0  0  0  0
   27.7575  -20.3210   -6.7257 C   0  0  0  0  0  0  0  0  0  0  0  0
   26.1054  -20.2173  -10.9837 C   0  0  0  0  0  0  0  0  0  0  0  0
   25.0069  -20.3935  -11.5800 O   0  0  0  0  0  0  0  0  0  0  0  0
   27.3490  -20.3406  -11.6701 N   0  0  0  0  0  0  0  0  0  0  0  0
   27.3092  -20.5296  -13.0889 C   0  0  0  0  0  0  0  0  0  0  0  0
   26.6472  -21.7903  -13.4896 C   0  0  0  0  0  0  0  0  0  0  0  0
   26.9545  -22.9217  -13.0385 O   0  0  0  0  0  0  0  0  0  0  0  0
   25.5998  -21.7156  -14.4429 N   0  0  0  0  0  0  0  0  0  0  0  0
   24.8406  -22.8817  -14.8869 C   0  0  1  0  0  0  0  0  0  0  0  0
   23.6139  -22.3695  -15.6173 C   0  0  0  0  0  0  0  0  0  0  0  0
   22.5698  -23.4169  -15.8290 C   0  0  0  0  0  0  0  0  0  0  0  0
   21.4489  -22.8966  -16.6834 C   0  0  0  0  0  0  0  0  0  0  0  0
   20.4098  -23.9760  -16.9201 C   0  0  0  0  0  0  0  0  0  0  0  0
   19.3791  -23.3989  -17.7642 N   0  0  0  0  0  0  0  0  0  0  0  0
   25.6879  -23.7306  -15.7444 C   0  0  0  0  0  0  0  0  0  0  0  0
   26.5803  -23.2443  -16.4728 O   0  0  0  0  0  0  0  0  0  0  0  0
   25.4941  -25.0933  -15.7450 O   0  0  0  0  0  0  0  0  0  0  0  0
  2  1  1  1
  2 13  1  0
  2  3  1  0
  4  3  1  0
  5  4  2  0
  6  5  1  0
  7  6  1  0
  7 12  2  0
  8  7  1  0
  9  8  2  0
  9 10  1  0
 10 11  2  0
 11 12  1  0
 12  4  1  0
 13 14  2  0
 15 13  1  0
 15 16  1  0
 17 16  1  0
 17 18  2  0
 19 17  1  0
 20 26  1  0
 20 19  1  0
 20 21  1  6
 22 21  1  0
 23 24  1  0
 23 22  1  0
 24 25  1  0
 26 27  2  0
 26 28  1  0
M  END
$$$$
