WGK.pdb
     RDKit          3D

 28 29  0  0  1  0  0  0  0  0999 V2000
   24.7233  -20.6118   -8.9098 N   0  0  0  0  0  0  0  0  0  0  0  0
   26.0753  -20.3693   -9.3510 C   0  0  1  0  0  0  0  0  0  0  0  0
   27.0106  -21.2808   -8.5833 C   0  0  0  0  0  0  0  0  0  0  0  0
   26.9834  -20.9683   -7.1375 C   0  0  0  0  0  0  0  0  0  0  0  0
   25.9416  -21.1627   -6.2878 C   0  0  0  0  0  0  0  0  0  0  0  0
   26.3023  -20.7495   -5.0554 N   0  0  0  0  0  0  0  0  0  0  0  0
   27.5700  -20.2899   -5.1048 C   0  0  0  0  0  0  0  0  0  0  0  0
   28.4101  -19.7587   -4.1326 C   0  0  0  0  0  0  0  0  0  0  0  0
   29.6776  -19.3662   -4.4733 C   0  0  0  0  0  0  0  0  0  0  0  0
   30.1157  -19.4935   -5.7531 C   0  0  0  0  0  0  0  0  0  0  0  0
   29.2941  -20.0172   -6.7229 C   0  0  0  0  0  0  0  0  0  0  0  0
   28.0058  -20.4230   -6.4066 C   0  0  0  0  0  0  0  0  0  0  0  0
   26.2336  -20.6864  -10.7974 C   0  0  0  0  0  0  0  0  0  0  0  0
   27.3654  -20.5557  -11.3408 O   0  0  0  0  0  0  0  0  0  0  0  0
   25.1019  -21.1326  -11.5410 N   0  0  0  0  0  0  0  0  0  0  0  0
   25.1431  -20.9879  -12.9650 C   0  0  0  0  0  0  0  0  0  0  0  0
   23.8964  -20.4262  -13.5290 C   0  0  0  0  0  0  0  0  0  0  0  0
   23.3630  -19.3594  -13.1350 O   0  0  0  0  0  0  0  0  0  0  0  0
   23.2647  -21.1376  -14.5808 N   0  0  0  0  0  0  0  0  0  0  0  0
   21.9999  -20.7195  -15.1797 C   0  0  1  0  0  0  0  0  0  0  0  0
   21.8916  -21.4046  -16.5286 C   0  0  0  0  0  0  0  0  0  0  0  0
   21.3533  -20.5167  -17.6027 C   0  0  0  0  0  0  0  0  0  0  0  0
   21.1888  -21.2690  -18.8927 C   0  0  0  0  0  0  0  0  0  0  0  0
   20.7157  -20.3427  -19.9968 C   0  0  0  0  0  0  0  0  0  0  0  0
   20.7207  -21.1100  -21.2294 N   0  0  0  0  0  0  0  0  0  0  0  0
   20.8839  -21.0715  -14.2827 C   0  0  0  0  0  0  0  0  0  0  0  0
   20.9252  -22.0832  -13.5491 O   0  0  0  0  0  0  0  0  0  0  0  0
   19.7670  -20.2678  -14.2499 O   0  0  0  0  0  0  0  0  0  0  0  0
  2  1  1  1
  2 13  1  0
  2  3  1  0
  4  3  1  0
  5  4  2  0
  6  5  1  0
  7  6  1  0
  7 12  2  0
  8  7  1  0
  9  8  2  0
  9 10  1  0
 10 11  2  0
 11 12  1  0
 12  4  1  0
 13 14  2  0
 15 13  1  0
 15 16  1  0
 17 16  1  0
 17 18  2  0
 19 17  1  0
 20 26  1  0
 20 19  1  0
 20 21  1  6
 22 21  1  0
 23 24  1  0
 23 22  1  0
 24 25  1  0
 26 27  2  0
 26 28  1  0
M  END
$$$$
