WGK.pdb
     RDKit          3D

 28 29  0  0  1  0  0  0  0  0999 V2000
   22.9274  -20.0320  -15.7194 N   0  0  0  0  0  0  0  0  0  0  0  0
   23.6515  -20.2076  -14.4841 C   0  0  1  0  0  0  0  0  0  0  0  0
   23.8815  -18.8488  -13.8552 C   0  0  0  0  0  0  0  0  0  0  0  0
   24.6971  -17.9887  -14.7404 C   0  0  0  0  0  0  0  0  0  0  0  0
   24.3082  -16.8211  -15.3155 C   0  0  0  0  0  0  0  0  0  0  0  0
   25.3288  -16.3386  -16.0539 N   0  0  0  0  0  0  0  0  0  0  0  0
   26.3733  -17.1875  -15.9589 C   0  0  0  0  0  0  0  0  0  0  0  0
   27.6487  -17.1657  -16.5122 C   0  0  0  0  0  0  0  0  0  0  0  0
   28.5239  -18.1831  -16.2373 C   0  0  0  0  0  0  0  0  0  0  0  0
   28.1522  -19.2099  -15.4289 C   0  0  0  0  0  0  0  0  0  0  0  0
   26.8939  -19.2423  -14.8762 C   0  0  0  0  0  0  0  0  0  0  0  0
   25.9869  -18.2256  -15.1371 C   0  0  0  0  0  0  0  0  0  0  0  0
   22.8679  -21.0201  -13.5127 C   0  0  0  0  0  0  0  0  0  0  0  0
   23.3505  -21.2570  -12.3705 O   0  0  0  0  0  0  0  0  0  0  0  0
   21.5857  -21.5148  -13.8923 N   0  0  0  0  0  0  0  0  0  0  0  0
   21.2832  -22.8806  -13.5867 C   0  0  0  0  0  0  0  0  0  0  0  0
   20.1666  -23.0288  -12.6279 C   0  0  0  0  0  0  0  0  0  0  0  0
   19.5193  -22.0659  -12.1462 O   0  0  0  0  0  0  0  0  0  0  0  0
   19.8049  -24.3406  -12.2284 N   0  0  0  0  0  0  0  0  0  0  0  0
   18.7304  -24.6175  -11.2787 C   0  0  1  0  0  0  0  0  0  0  0  0
   18.5905  -26.1248  -11.1833 C   0  0  0  0  0  0  0  0  0  0  0  0
   17.4854  -26.5613  -10.2776 C   0  0  0  0  0  0  0  0  0  0  0  0
   17.4406  -28.0588  -10.1638 C   0  0  0  0  0  0  0  0  0  0  0  0
   16.3410  -28.4914   -9.2128 C   0  0  0  0  0  0  0  0  0  0  0  0
   16.3327  -29.9432   -9.2016 N   0  0  0  0  0  0  0  0  0  0  0  0
   19.0457  -24.0019   -9.9766 C   0  0  0  0  0  0  0  0  0  0  0  0
   20.2196  -23.9273   -9.5528 O   0  0  0  0  0  0  0  0  0  0  0  0
   18.0238  -23.4954   -9.2060 O   0  0  0  0  0  0  0  0  0  0  0  0
  2  1  1  6
  2 13  1  0
  2  3  1  0
  4  3  1  0
  5  4  2  0
  6  5  1  0
  7  6  1  0
  7 12  2  0
  8  7  1  0
  9  8  2  0
  9 10  1  0
 10 11  2  0
 11 12  1  0
 12  4  1  0
 13 14  2  0
 15 13  1  0
 15 16  1  0
 17 16  1  0
 17 18  2  0
 19 17  1  0
 20 26  1  0
 20 19  1  0
 20 21  1  1
 22 21  1  0
 23 24  1  0
 23 22  1  0
 24 25  1  0
 26 27  2  0
 26 28  1  0
M  END
$$$$
