WGK.pdb
     RDKit          3D

 28 29  0  0  1  0  0  0  0  0999 V2000
   25.3802  -19.3191  -12.1779 N   0  0  0  0  0  0  0  0  0  0  0  0
   26.6361  -20.0278  -12.1376 C   0  0  1  0  0  0  0  0  0  0  0  0
   26.4799  -21.2490  -11.2549 C   0  0  0  0  0  0  0  0  0  0  0  0
   26.2165  -20.8567   -9.8530 C   0  0  0  0  0  0  0  0  0  0  0  0
   24.9987  -20.6721   -9.2802 C   0  0  0  0  0  0  0  0  0  0  0  0
   25.1736  -20.3154   -7.9911 N   0  0  0  0  0  0  0  0  0  0  0  0
   26.4964  -20.2687   -7.7288 C   0  0  0  0  0  0  0  0  0  0  0  0
   27.2102  -19.9619   -6.5757 C   0  0  0  0  0  0  0  0  0  0  0  0
   28.5795  -19.9965   -6.5973 C   0  0  0  0  0  0  0  0  0  0  0  0
   29.2408  -20.3283   -7.7369 C   0  0  0  0  0  0  0  0  0  0  0  0
   28.5457  -20.6334   -8.8831 C   0  0  0  0  0  0  0  0  0  0  0  0
   27.1587  -20.6066   -8.8903 C   0  0  0  0  0  0  0  0  0  0  0  0
   27.0271  -20.5060  -13.4927 C   0  0  0  0  0  0  0  0  0  0  0  0
   26.1652  -20.5301  -14.4146 O   0  0  0  0  0  0  0  0  0  0  0  0
   28.3697  -20.9273  -13.7226 N   0  0  0  0  0  0  0  0  0  0  0  0
   28.8537  -20.8991  -15.0698 C   0  0  0  0  0  0  0  0  0  0  0  0
   28.1383  -21.8346  -15.9648 C   0  0  0  0  0  0  0  0  0  0  0  0
   28.0543  -23.0725  -15.7681 O   0  0  0  0  0  0  0  0  0  0  0  0
   27.5077  -21.2992  -17.1169 N   0  0  0  0  0  0  0  0  0  0  0  0
   26.7563  -22.1152  -18.0669 C   0  0  1  0  0  0  0  0  0  0  0  0
   25.6584  -21.2410  -18.6424 C   0  0  0  0  0  0  0  0  0  0  0  0
   24.2989  -21.5778  -18.1225 C   0  0  0  0  0  0  0  0  0  0  0  0
   23.2404  -20.7661  -18.8137 C   0  0  0  0  0  0  0  0  0  0  0  0
   21.8744  -21.0473  -18.2174 C   0  0  0  0  0  0  0  0  0  0  0  0
   20.9229  -20.1969  -18.9096 N   0  0  0  0  0  0  0  0  0  0  0  0
   27.6643  -22.6303  -19.1082 C   0  0  0  0  0  0  0  0  0  0  0  0
   28.7710  -22.0956  -19.3372 O   0  0  0  0  0  0  0  0  0  0  0  0
   27.2867  -23.7276  -19.8483 O   0  0  0  0  0  0  0  0  0  0  0  0
  2  1  1  6
  2 13  1  0
  2  3  1  0
  4  3  1  0
  5  4  2  0
  6  5  1  0
  7  6  1  0
  7 12  2  0
  8  7  1  0
  9  8  2  0
  9 10  1  0
 10 11  2  0
 11 12  1  0
 12  4  1  0
 13 14  2  0
 15 13  1  0
 15 16  1  0
 17 16  1  0
 17 18  2  0
 19 17  1  0
 20 26  1  0
 20 19  1  0
 20 21  1  6
 22 21  1  0
 23 24  1  0
 23 22  1  0
 24 25  1  0
 26 27  2  0
 26 28  1  0
M  END
$$$$
