WGK.pdb
     RDKit          3D

 28 29  0  0  1  0  0  0  0  0999 V2000
   21.4274  -17.9384  -15.8997 N   0  0  0  0  0  0  0  0  0  0  0  0
   21.7898  -19.2775  -15.5037 C   0  0  1  0  0  0  0  0  0  0  0  0
   23.2856  -19.4485  -15.6712 C   0  0  0  0  0  0  0  0  0  0  0  0
   23.6764  -19.3154  -17.0918 C   0  0  0  0  0  0  0  0  0  0  0  0
   24.4036  -18.3071  -17.6393 C   0  0  0  0  0  0  0  0  0  0  0  0
   24.5458  -18.5407  -18.9603 N   0  0  0  0  0  0  0  0  0  0  0  0
   23.9150  -19.6930  -19.2682 C   0  0  0  0  0  0  0  0  0  0  0  0
   23.7574  -20.3808  -20.4663 C   0  0  0  0  0  0  0  0  0  0  0  0
   23.0525  -21.5553  -20.4855 C   0  0  0  0  0  0  0  0  0  0  0  0
   22.5086  -22.0492  -19.3426 C   0  0  0  0  0  0  0  0  0  0  0  0
   22.6578  -21.3779  -18.1522 C   0  0  0  0  0  0  0  0  0  0  0  0
   23.3667  -20.1865  -18.1029 C   0  0  0  0  0  0  0  0  0  0  0  0
   21.4728  -19.5179  -14.0687 C   0  0  0  0  0  0  0  0  0  0  0  0
   21.6254  -18.5828  -13.2346 O   0  0  0  0  0  0  0  0  0  0  0  0
   21.0019  -20.8016  -13.6645 N   0  0  0  0  0  0  0  0  0  0  0  0
   20.6168  -20.9675  -12.2954 C   0  0  0  0  0  0  0  0  0  0  0  0
   19.9894  -22.2789  -12.0223 C   0  0  0  0  0  0  0  0  0  0  0  0
   19.7573  -23.1455  -12.9016 O   0  0  0  0  0  0  0  0  0  0  0  0
   19.6277  -22.5753  -10.6834 N   0  0  0  0  0  0  0  0  0  0  0  0
   18.9261  -23.7970  -10.2984 C   0  0  1  0  0  0  0  0  0  0  0  0
   18.8411  -23.8098   -8.7840 C   0  0  0  0  0  0  0  0  0  0  0  0
   18.1165  -24.9983   -8.2411 C   0  0  0  0  0  0  0  0  0  0  0  0
   17.9000  -24.8681   -6.7601 C   0  0  0  0  0  0  0  0  0  0  0  0
   17.0284  -25.9974   -6.2446 C   0  0  0  0  0  0  0  0  0  0  0  0
   16.7073  -25.6920   -4.8620 N   0  0  0  0  0  0  0  0  0  0  0  0
   17.5957  -23.8284  -10.9332 C   0  0  0  0  0  0  0  0  0  0  0  0
   17.0953  -24.8931  -11.3566 O   0  0  0  0  0  0  0  0  0  0  0  0
   16.8842  -22.6575  -11.0643 O   0  0  0  0  0  0  0  0  0  0  0  0
  2  1  1  1
  2 13  1  0
  2  3  1  0
  4  3  1  0
  5  4  2  0
  6  5  1  0
  7  6  1  0
  7 12  2  0
  8  7  1  0
  9  8  2  0
  9 10  1  0
 10 11  2  0
 11 12  1  0
 12  4  1  0
 13 14  2  0
 15 13  1  0
 15 16  1  0
 17 16  1  0
 17 18  2  0
 19 17  1  0
 20 26  1  0
 20 19  1  0
 20 21  1  1
 22 21  1  0
 23 24  1  0
 23 22  1  0
 24 25  1  0
 26 27  2  0
 26 28  1  0
M  END
$$$$
