WGK.pdb
     RDKit          3D

 28 29  0  0  1  0  0  0  0  0999 V2000
   20.6839  -21.7155  -14.1756 N   0  0  0  0  0  0  0  0  0  0  0  0
   21.6048  -21.4611  -13.0946 C   0  0  1  0  0  0  0  0  0  0  0  0
   22.2878  -20.1309  -13.3375 C   0  0  0  0  0  0  0  0  0  0  0  0
   23.0764  -20.1632  -14.5887 C   0  0  0  0  0  0  0  0  0  0  0  0
   22.9347  -19.3342  -15.6554 C   0  0  0  0  0  0  0  0  0  0  0  0
   23.8319  -19.6836  -16.6003 N   0  0  0  0  0  0  0  0  0  0  0  0
   24.5512  -20.7326  -16.1499 C   0  0  0  0  0  0  0  0  0  0  0  0
   25.5866  -21.4678  -16.7162 C   0  0  0  0  0  0  0  0  0  0  0  0
   26.1443  -22.5038  -16.0146 C   0  0  0  0  0  0  0  0  0  0  0  0
   25.6915  -22.8148  -14.7718 C   0  0  0  0  0  0  0  0  0  0  0  0
   24.6684  -22.0950  -14.2018 C   0  0  0  0  0  0  0  0  0  0  0  0
   24.0848  -21.0407  -14.8890 C   0  0  0  0  0  0  0  0  0  0  0  0
   20.8901  -21.3625  -11.7918 C   0  0  0  0  0  0  0  0  0  0  0  0
   20.8954  -20.2681  -11.1627 O   0  0  0  0  0  0  0  0  0  0  0  0
   20.2124  -22.5078  -11.2802 N   0  0  0  0  0  0  0  0  0  0  0  0
   19.6760  -22.4260   -9.9551 C   0  0  0  0  0  0  0  0  0  0  0  0
   19.0227  -23.6774   -9.5136 C   0  0  0  0  0  0  0  0  0  0  0  0
   18.7707  -24.6463  -10.2724 O   0  0  0  0  0  0  0  0  0  0  0  0
   18.6585  -23.7894   -8.1474 N   0  0  0  0  0  0  0  0  0  0  0  0
   18.0183  -24.9765   -7.5872 C   0  0  1  0  0  0  0  0  0  0  0  0
   17.9867  -24.8032   -6.0807 C   0  0  0  0  0  0  0  0  0  0  0  0
   17.4500  -25.9955   -5.3580 C   0  0  0  0  0  0  0  0  0  0  0  0
   18.4560  -26.5313   -4.3793 C   0  0  0  0  0  0  0  0  0  0  0  0
   17.9037  -27.7422   -3.6516 C   0  0  0  0  0  0  0  0  0  0  0  0
   18.9544  -28.2308   -2.7769 N   0  0  0  0  0  0  0  0  0  0  0  0
   16.6687  -25.1318   -8.1605 C   0  0  0  0  0  0  0  0  0  0  0  0
   15.9398  -24.1447   -8.4003 O   0  0  0  0  0  0  0  0  0  0  0  0
   16.1968  -26.3943   -8.4398 O   0  0  0  0  0  0  0  0  0  0  0  0
  2  1  1  6
  2 13  1  0
  2  3  1  0
  4  3  1  0
  5  4  2  0
  6  5  1  0
  7  6  1  0
  7 12  2  0
  8  7  1  0
  9  8  2  0
  9 10  1  0
 10 11  2  0
 11 12  1  0
 12  4  1  0
 13 14  2  0
 15 13  1  0
 15 16  1  0
 17 16  1  0
 17 18  2  0
 19 17  1  0
 20 26  1  0
 20 19  1  0
 20 21  1  1
 22 21  1  0
 23 24  1  0
 23 22  1  0
 24 25  1  0
 26 27  2  0
 26 28  1  0
M  END
$$$$
