FDI.pdb
     RDKit          3D

 28 28  0  0  1  0  0  0  0  0999 V2000
    6.0724  -17.7541   23.1860 N   0  0  0  0  0  0  0  0  0  0  0  0
    6.8997  -16.7248   23.7646 C   0  0  1  0  0  0  0  0  0  0  0  0
    6.1430  -16.1639   24.9565 C   0  0  0  0  0  0  0  0  0  0  0  0
    6.4404  -14.7241   25.0179 C   0  0  0  0  0  0  0  0  0  0  0  0
    7.2645  -14.1060   24.1100 C   0  0  0  0  0  0  0  0  0  0  0  0
    7.5435  -12.7518   24.1705 C   0  0  0  0  0  0  0  0  0  0  0  0
    6.9508  -12.0205   25.2008 C   0  0  0  0  0  0  0  0  0  0  0  0
    6.1213  -12.6085   26.1254 C   0  0  0  0  0  0  0  0  0  0  0  0
    5.8813  -13.9612   26.0132 C   0  0  0  0  0  0  0  0  0  0  0  0
    8.1637  -17.3578   24.2206 C   0  0  0  0  0  0  0  0  0  0  0  0
    8.1825  -18.2160   25.1419 O   0  0  0  0  0  0  0  0  0  0  0  0
    9.4148  -16.9972   23.6078 N   0  0  0  0  0  0  0  0  0  0  0  0
   10.6663  -17.4754   24.0952 C   0  0  1  0  0  0  0  0  0  0  0  0
   11.7255  -17.6258   23.0391 C   0  0  0  0  0  0  0  0  0  0  0  0
   11.8279  -16.4763   22.1365 C   0  0  0  0  0  0  0  0  0  0  0  0
   12.7341  -15.6091   22.1782 O   0  0  0  0  0  0  0  0  0  0  0  0
   11.1612  -16.6885   25.2652 C   0  0  0  0  0  0  0  0  0  0  0  0
   12.1555  -15.9650   25.1020 O   0  0  0  0  0  0  0  0  0  0  0  0
   10.8524  -16.3300   21.1599 O   0  0  0  0  0  0  0  0  0  0  0  0
    9.7571  -12.6491   27.5328 C   0  0  0  0  0  0  0  0  0  0  0  0
   10.5470  -13.8724   27.1496 C   0  0  0  0  0  0  0  0  0  0  0  0
   10.4644  -14.9597   28.1802 C   0  0  2  0  0  0  0  0  0  0  0  0
   11.0028  -14.4129   29.4817 C   0  0  0  0  0  0  0  0  0  0  0  0
   11.1345  -16.2171   27.7486 C   0  0  2  0  0  0  0  0  0  0  0  0
   10.5253  -16.7549   26.5309 N   0  0  0  0  0  0  0  0  0  0  0  0
   11.2198  -17.2637   28.7898 C   0  0  0  0  0  0  0  0  0  0  0  0
   12.3081  -17.4333   29.5825 O   0  0  0  0  0  0  0  0  0  0  0  0
   10.2308  -18.0424   28.9507 O   0  0  0  0  0  0  0  0  0  0  0  0
  2  1  1  1
  2  3  1  0
  2 10  1  0
  3  4  1  0
  4  9  2  0
  5  6  2  0
  5  4  1  0
  6  7  1  0
  7  8  2  0
  9  8  1  0
 10 12  1  0
 10 11  2  0
 12 13  1  0
 13 14  1  6
 15 14  1  0
 15 19  1  0
 16 15  2  0
 17 13  1  0
 17 18  2  0
 20 21  1  0
 22 24  1  0
 22 21  1  0
 22 23  1  1
 24 25  1  6
 25 17  1  0
 26 24  1  0
 27 26  1  0
 28 26  2  0
M  END
$$$$
