FDI.pdb
     RDKit          3D

 28 28  0  0  1  0  0  0  0  0999 V2000
    5.9701  -17.9546   23.0204 N   0  0  0  0  0  0  0  0  0  0  0  0
    6.7292  -16.7892   23.4002 C   0  0  1  0  0  0  0  0  0  0  0  0
    6.0808  -16.2251   24.6529 C   0  0  0  0  0  0  0  0  0  0  0  0
    6.7746  -14.9665   24.9687 C   0  0  0  0  0  0  0  0  0  0  0  0
    7.5709  -14.3190   24.0565 C   0  0  0  0  0  0  0  0  0  0  0  0
    8.2232  -13.1358   24.3562 C   0  0  0  0  0  0  0  0  0  0  0  0
    8.0438  -12.6116   25.6370 C   0  0  0  0  0  0  0  0  0  0  0  0
    7.2538  -13.2346   26.5733 C   0  0  0  0  0  0  0  0  0  0  0  0
    6.6298  -14.4104   26.2157 C   0  0  0  0  0  0  0  0  0  0  0  0
    8.1163  -17.2264   23.7019 C   0  0  0  0  0  0  0  0  0  0  0  0
    8.3654  -18.0745   24.5988 O   0  0  0  0  0  0  0  0  0  0  0  0
    9.2234  -16.6803   22.9624 N   0  0  0  0  0  0  0  0  0  0  0  0
   10.5787  -16.9223   23.3325 C   0  0  1  0  0  0  0  0  0  0  0  0
   11.5739  -16.6776   22.2328 C   0  0  0  0  0  0  0  0  0  0  0  0
   12.9442  -17.0640   22.5786 C   0  0  0  0  0  0  0  0  0  0  0  0
   13.2524  -17.9180   23.4450 O   0  0  0  0  0  0  0  0  0  0  0  0
   10.9615  -16.2136   24.5912 C   0  0  0  0  0  0  0  0  0  0  0  0
   11.3085  -15.0256   24.5083 O   0  0  0  0  0  0  0  0  0  0  0  0
   13.9837  -16.4425   21.9005 O   0  0  0  0  0  0  0  0  0  0  0  0
    9.0764  -13.4008   28.8415 C   0  0  0  0  0  0  0  0  0  0  0  0
   10.1789  -14.4030   28.6239 C   0  0  0  0  0  0  0  0  0  0  0  0
   10.0558  -15.1216   27.3126 C   0  0  2  0  0  0  0  0  0  0  0  0
    8.6571  -15.6849   27.2169 C   0  0  0  0  0  0  0  0  0  0  0  0
   11.1173  -16.1463   27.1134 C   0  0  2  0  0  0  0  0  0  0  0  0
   10.9346  -16.8645   25.8508 N   0  0  0  0  0  0  0  0  0  0  0  0
   11.2768  -17.1001   28.2322 C   0  0  0  0  0  0  0  0  0  0  0  0
   11.0664  -18.4346   28.1038 O   0  0  0  0  0  0  0  0  0  0  0  0
   11.6252  -16.6522   29.3672 O   0  0  0  0  0  0  0  0  0  0  0  0
  2  1  1  1
  2  3  1  0
  2 10  1  0
  3  4  1  0
  4  9  2  0
  5  6  2  0
  5  4  1  0
  6  7  1  0
  7  8  2  0
  9  8  1  0
 10 12  1  0
 10 11  2  0
 12 13  1  0
 13 14  1  6
 15 14  1  0
 15 19  1  0
 16 15  2  0
 17 13  1  0
 17 18  2  0
 20 21  1  0
 22 24  1  0
 22 21  1  0
 22 23  1  1
 24 25  1  6
 25 17  1  0
 26 24  1  0
 27 26  1  0
 28 26  2  0
M  END
$$$$
