ESA.pdb
     RDKit          3D

 21 20  0  0  1  0  0  0  0  0999 V2000
    8.8956  -13.3195   18.9417 N   0  0  0  0  0  0  0  0  0  0  0  0
    9.0559  -14.5233   19.7750 C   0  0  1  0  0  0  0  0  0  0  0  0
   10.4564  -15.0191   19.6330 C   0  0  0  0  0  0  0  0  0  0  0  0
   11.5042  -13.9595   19.6238 C   0  0  0  0  0  0  0  0  0  0  0  0
   12.8566  -14.5034   19.5930 C   0  0  0  0  0  0  0  0  0  0  0  0
   13.8813  -13.8015   19.4951 O   0  0  0  0  0  0  0  0  0  0  0  0
    8.6594  -14.2431   21.1570 C   0  0  0  0  0  0  0  0  0  0  0  0
    8.8338  -13.1198   21.6612 O   0  0  0  0  0  0  0  0  0  0  0  0
   13.0275  -15.8988   19.6779 O   0  0  0  0  0  0  0  0  0  0  0  0
    6.7292  -17.1394   23.6388 O   0  0  0  0  0  0  0  0  0  0  0  0
    6.3994  -15.7926   23.7299 C   0  0  0  0  0  0  0  0  0  0  0  0
    7.5655  -14.9060   23.3220 C   0  0  2  0  0  0  0  0  0  0  0  0
    8.0507  -15.2379   22.0070 N   0  0  0  0  0  0  0  0  0  0  0  0
    8.6544  -14.9617   24.3432 C   0  0  0  0  0  0  0  0  0  0  0  0
    9.7167  -15.6151   24.1712 O   0  0  0  0  0  0  0  0  0  0  0  0
    9.3547  -13.2137   27.6261 C   0  0  0  0  0  0  0  0  0  0  0  0
    9.4595  -14.3527   26.6592 C   0  0  2  0  0  0  0  0  0  0  0  0
    8.5155  -14.2583   25.5713 N   0  0  0  0  0  0  0  0  0  0  0  0
    9.3412  -15.6209   27.4067 C   0  0  0  0  0  0  0  0  0  0  0  0
    8.3430  -16.3446   27.1592 O   0  0  0  0  0  0  0  0  0  0  0  0
   10.2585  -16.0487   28.3519 O   0  0  0  0  0  0  0  0  0  0  0  0
  2  1  1  6
  2  3  1  0
  3  4  1  0
  4  5  1  0
  5  6  2  0
  5  9  1  0
  7 13  1  0
  7  2  1  0
  8  7  2  0
 12 11  1  1
 11 10  1  0
 12 14  1  0
 12 13  1  0
 14 18  1  0
 15 14  2  0
 17 16  1  1
 18 17  1  0
 19 17  1  0
 19 21  1  0
 20 19  2  0
M  END
$$$$
