ESA.pdb
     RDKit          3D

 21 20  0  0  1  0  0  0  0  0999 V2000
   10.6061  -17.1886   20.3673 N   0  0  0  0  0  0  0  0  0  0  0  0
   11.2765  -17.0886   21.6749 C   0  0  1  0  0  0  0  0  0  0  0  0
   12.5518  -16.3332   21.5009 C   0  0  0  0  0  0  0  0  0  0  0  0
   13.7846  -17.0773   21.8848 C   0  0  0  0  0  0  0  0  0  0  0  0
   15.0037  -16.3192   21.6299 C   0  0  0  0  0  0  0  0  0  0  0  0
   15.4855  -15.4961   22.4315 O   0  0  0  0  0  0  0  0  0  0  0  0
   10.3704  -16.5090   22.6692 C   0  0  0  0  0  0  0  0  0  0  0  0
    9.8210  -15.4104   22.4759 O   0  0  0  0  0  0  0  0  0  0  0  0
   15.6839  -16.5196   20.4131 O   0  0  0  0  0  0  0  0  0  0  0  0
    8.7638  -18.6461   26.0071 O   0  0  0  0  0  0  0  0  0  0  0  0
    8.1610  -17.5435   25.4138 C   0  0  0  0  0  0  0  0  0  0  0  0
    9.1951  -16.5586   24.8917 C   0  0  2  0  0  0  0  0  0  0  0  0
   10.0635  -17.1667   23.9166 N   0  0  0  0  0  0  0  0  0  0  0  0
    9.9672  -15.9554   26.0194 C   0  0  0  0  0  0  0  0  0  0  0  0
   11.1043  -16.3707   26.3652 O   0  0  0  0  0  0  0  0  0  0  0  0
    9.4157  -13.0442   28.3960 C   0  0  0  0  0  0  0  0  0  0  0  0
    9.9906  -14.3635   27.9811 C   0  0  2  0  0  0  0  0  0  0  0  0
    9.4225  -14.8656   26.7528 N   0  0  0  0  0  0  0  0  0  0  0  0
    9.8517  -15.3143   29.1026 C   0  0  0  0  0  0  0  0  0  0  0  0
    9.0758  -16.2902   28.9378 O   0  0  0  0  0  0  0  0  0  0  0  0
   10.5213  -15.1894   30.3083 O   0  0  0  0  0  0  0  0  0  0  0  0
  2  1  1  6
  2  3  1  0
  3  4  1  0
  4  5  1  0
  5  6  2  0
  5  9  1  0
  7 13  1  0
  7  2  1  0
  8  7  2  0
 12 11  1  1
 11 10  1  0
 12 14  1  0
 12 13  1  0
 14 18  1  0
 15 14  2  0
 17 16  1  1
 18 17  1  0
 19 17  1  0
 19 21  1  0
 20 19  2  0
M  END
$$$$
