ESA.pdb
     RDKit          3D

 21 20  0  0  1  0  0  0  0  0999 V2000
    9.3165  -16.1232   19.9801 N   0  0  0  0  0  0  0  0  0  0  0  0
    9.8463  -16.7665   21.1944 C   0  0  1  0  0  0  0  0  0  0  0  0
   11.3333  -16.8362   21.0876 C   0  0  0  0  0  0  0  0  0  0  0  0
   11.8497  -17.7908   20.0664 C   0  0  0  0  0  0  0  0  0  0  0  0
   13.3038  -17.8962   20.0766 C   0  0  0  0  0  0  0  0  0  0  0  0
   14.0530  -17.1831   19.3820 O   0  0  0  0  0  0  0  0  0  0  0  0
    9.3659  -16.0711   22.3907 C   0  0  0  0  0  0  0  0  0  0  0  0
    9.3853  -14.8300   22.4647 O   0  0  0  0  0  0  0  0  0  0  0  0
   13.9075  -18.8538   20.9144 O   0  0  0  0  0  0  0  0  0  0  0  0
    7.4866  -18.1007   25.6391 O   0  0  0  0  0  0  0  0  0  0  0  0
    7.1587  -16.7896   25.3155 C   0  0  0  0  0  0  0  0  0  0  0  0
    8.3354  -16.0621   24.6845 C   0  0  2  0  0  0  0  0  0  0  0  0
    8.8478  -16.7722   23.5408 N   0  0  0  0  0  0  0  0  0  0  0  0
    9.4020  -15.8034   25.6979 C   0  0  0  0  0  0  0  0  0  0  0  0
   10.4920  -16.4330   25.7152 O   0  0  0  0  0  0  0  0  0  0  0  0
    9.8875  -13.2751   28.4860 C   0  0  0  0  0  0  0  0  0  0  0  0
   10.1357  -14.5712   27.7779 C   0  0  2  0  0  0  0  0  0  0  0  0
    9.2085  -14.8109   26.6979 N   0  0  0  0  0  0  0  0  0  0  0  0
   10.1427  -15.6614   28.7742 C   0  0  0  0  0  0  0  0  0  0  0  0
    9.2141  -16.5070   28.7095 O   0  0  0  0  0  0  0  0  0  0  0  0
   11.1041  -15.7993   29.7613 O   0  0  0  0  0  0  0  0  0  0  0  0
  2  1  1  6
  2  3  1  0
  3  4  1  0
  4  5  1  0
  5  6  2  0
  5  9  1  0
  7 13  1  0
  7  2  1  0
  8  7  2  0
 12 11  1  1
 11 10  1  0
 12 14  1  0
 12 13  1  0
 14 18  1  0
 15 14  2  0
 17 16  1  1
 18 17  1  0
 19 17  1  0
 19 21  1  0
 20 19  2  0
M  END
$$$$
