ESA.pdb
     RDKit          3D

 21 20  0  0  1  0  0  0  0  0999 V2000
   10.8743  -19.1173   21.2767 N   0  0  0  0  0  0  0  0  0  0  0  0
   11.7640  -18.1267   21.9063 C   0  0  1  0  0  0  0  0  0  0  0  0
   12.5504  -17.4439   20.8372 C   0  0  0  0  0  0  0  0  0  0  0  0
   13.3955  -18.3433   20.0019 C   0  0  0  0  0  0  0  0  0  0  0  0
   14.0962  -17.6327   18.9389 C   0  0  0  0  0  0  0  0  0  0  0  0
   15.2112  -17.0964   19.0851 O   0  0  0  0  0  0  0  0  0  0  0  0
   10.9927  -17.2149   22.7544 C   0  0  0  0  0  0  0  0  0  0  0  0
   10.8734  -16.0118   22.4636 O   0  0  0  0  0  0  0  0  0  0  0  0
   13.4891  -17.5406   17.6715 O   0  0  0  0  0  0  0  0  0  0  0  0
    8.3963  -18.6138   25.7959 O   0  0  0  0  0  0  0  0  0  0  0  0
    8.1761  -17.4292   25.1037 C   0  0  0  0  0  0  0  0  0  0  0  0
    9.4856  -16.7608   24.7154 C   0  0  2  0  0  0  0  0  0  0  0  0
   10.3329  -17.6493   23.9621 N   0  0  0  0  0  0  0  0  0  0  0  0
   10.1827  -16.2231   25.9222 C   0  0  0  0  0  0  0  0  0  0  0  0
   11.1934  -16.7774   26.4284 O   0  0  0  0  0  0  0  0  0  0  0  0
    9.6654  -13.1904   28.1624 C   0  0  0  0  0  0  0  0  0  0  0  0
   10.2300  -14.5280   27.7951 C   0  0  2  0  0  0  0  0  0  0  0  0
    9.7096  -15.0374   26.5488 N   0  0  0  0  0  0  0  0  0  0  0  0
   10.0173  -15.4578   28.9228 C   0  0  0  0  0  0  0  0  0  0  0  0
    9.1639  -16.3680   28.7660 O   0  0  0  0  0  0  0  0  0  0  0  0
   10.6985  -15.3808   30.1260 O   0  0  0  0  0  0  0  0  0  0  0  0
  2  1  1  6
  2  3  1  0
  3  4  1  0
  4  5  1  0
  5  6  2  0
  5  9  1  0
  7 13  1  0
  7  2  1  0
  8  7  2  0
 12 11  1  1
 11 10  1  0
 12 14  1  0
 12 13  1  0
 14 18  1  0
 15 14  2  0
 17 16  1  1
 18 17  1  0
 19 17  1  0
 19 21  1  0
 20 19  2  0
M  END
$$$$
