MAY.pdb
     RDKit          3D

 26 26  0  0  1  0  0  0  0  0999 V2000
    9.4610  -11.7472   20.7084 C   0  0  0  0  0  0  0  0  0  0  0  0
    7.8798  -12.1012   19.8949 S   0  0  0  0  0  0  0  0  0  0  0  0
    7.6492  -13.9109   19.9368 C   0  0  0  0  0  0  0  0  0  0  0  0
    7.8119  -14.4387   21.3399 C   0  0  0  0  0  0  0  0  0  0  0  0
    7.7245  -15.9487   21.2869 C   0  0  2  0  0  0  0  0  0  0  0  0
    6.4927  -16.3568   20.6952 N   0  0  0  0  0  0  0  0  0  0  0  0
    8.0352  -16.5657   22.5882 C   0  0  0  0  0  0  0  0  0  0  0  0
    7.1137  -16.6155   23.4390 O   0  0  0  0  0  0  0  0  0  0  0  0
   10.6105  -18.8255   24.0309 C   0  0  0  0  0  0  0  0  0  0  0  0
    9.6405  -17.6736   24.1811 C   0  0  2  0  0  0  0  0  0  0  0  0
    9.3030  -17.0875   22.8955 N   0  0  0  0  0  0  0  0  0  0  0  0
   10.1690  -16.6893   25.1294 C   0  0  0  0  0  0  0  0  0  0  0  0
   10.9449  -15.8080   24.7363 O   0  0  0  0  0  0  0  0  0  0  0  0
    6.0290  -11.7497   24.9914 O   0  0  0  0  0  0  0  0  0  0  0  0
    6.7892  -12.6090   25.7885 C   0  0  0  0  0  0  0  0  0  0  0  0
    7.9309  -12.1529   26.4229 C   0  0  0  0  0  0  0  0  0  0  0  0
    8.7016  -12.9721   27.2145 C   0  0  0  0  0  0  0  0  0  0  0  0
    8.3520  -14.3081   27.4060 C   0  0  0  0  0  0  0  0  0  0  0  0
    9.1533  -15.2066   28.2307 C   0  0  0  0  0  0  0  0  0  0  0  0
   10.3088  -15.7961   27.4387 C   0  0  2  0  0  0  0  0  0  0  0  0
    9.7695  -16.7782   26.4866 N   0  0  0  0  0  0  0  0  0  0  0  0
   11.3034  -16.4887   28.2588 C   0  0  0  0  0  0  0  0  0  0  0  0
   12.1625  -15.8020   29.1161 O   0  0  0  0  0  0  0  0  0  0  0  0
    7.2160  -14.7618   26.7744 C   0  0  0  0  0  0  0  0  0  0  0  0
    6.4380  -13.9303   25.9740 C   0  0  0  0  0  0  0  0  0  0  0  0
   11.4380  -17.7350   28.2348 O   0  0  0  0  0  0  0  0  0  0  0  0
  2  1  1  0
  3  2  1  0
  4  3  1  0
  4  5  1  0
  5  6  1  1
  5  7  1  0
  7  8  2  0
 10  9  1  6
 11  7  1  0
 11 10  1  0
 12 10  1  0
 12 21  1  0
 13 12  2  0
 15 14  1  0
 16 15  2  0
 17 16  1  0
 18 24  1  0
 18 17  2  0
 19 18  1  0
 20 22  1  0
 20 21  1  0
 20 19  1  1
 22 23  1  0
 24 25  2  0
 25 15  1  0
 26 22  2  0
M  END
$$$$
