MAY.pdb
     RDKit          3D

 26 26  0  0  1  0  0  0  0  0999 V2000
    3.2035  -21.2574   19.4476 C   0  0  0  0  0  0  0  0  0  0  0  0
    2.1209  -19.8216   19.6793 S   0  0  0  0  0  0  0  0  0  0  0  0
    2.8489  -18.8117   21.0136 C   0  0  0  0  0  0  0  0  0  0  0  0
    4.3491  -18.7461   20.8772 C   0  0  0  0  0  0  0  0  0  0  0  0
    4.8891  -17.9173   22.0227 C   0  0  2  0  0  0  0  0  0  0  0  0
    3.8624  -17.0916   22.5686 N   0  0  0  0  0  0  0  0  0  0  0  0
    6.1350  -17.2194   21.6599 C   0  0  0  0  0  0  0  0  0  0  0  0
    7.1134  -17.9257   21.3144 O   0  0  0  0  0  0  0  0  0  0  0  0
    7.3015  -13.8866   20.5995 C   0  0  0  0  0  0  0  0  0  0  0  0
    7.5046  -15.1159   21.4585 C   0  0  2  0  0  0  0  0  0  0  0  0
    6.2550  -15.8199   21.6888 N   0  0  0  0  0  0  0  0  0  0  0  0
    8.1870  -14.7541   22.7039 C   0  0  0  0  0  0  0  0  0  0  0  0
    7.9342  -13.6748   23.2553 O   0  0  0  0  0  0  0  0  0  0  0  0
    6.0548  -10.9299   27.4524 O   0  0  0  0  0  0  0  0  0  0  0  0
    6.5484  -12.1373   26.9523 C   0  0  0  0  0  0  0  0  0  0  0  0
    7.7746  -12.6223   27.3707 C   0  0  0  0  0  0  0  0  0  0  0  0
    8.2896  -13.8070   26.8987 C   0  0  0  0  0  0  0  0  0  0  0  0
    7.5820  -14.5686   25.9696 C   0  0  0  0  0  0  0  0  0  0  0  0
    8.1044  -15.8244   25.4407 C   0  0  0  0  0  0  0  0  0  0  0  0
    9.4067  -15.6048   24.6885 C   0  0  2  0  0  0  0  0  0  0  0  0
    9.1286  -15.6646   23.2459 N   0  0  0  0  0  0  0  0  0  0  0  0
   10.4367  -16.6046   24.9731 C   0  0  0  0  0  0  0  0  0  0  0  0
   11.3837  -16.4245   25.9806 O   0  0  0  0  0  0  0  0  0  0  0  0
    6.3619  -14.0857   25.5532 C   0  0  0  0  0  0  0  0  0  0  0  0
    5.8434  -12.8864   26.0329 C   0  0  0  0  0  0  0  0  0  0  0  0
   10.5247  -17.6755   24.3268 O   0  0  0  0  0  0  0  0  0  0  0  0
  2  1  1  0
  3  2  1  0
  4  3  1  0
  4  5  1  0
  5  6  1  6
  5  7  1  0
  7  8  2  0
 10  9  1  1
 11  7  1  0
 11 10  1  0
 12 10  1  0
 12 21  1  0
 13 12  2  0
 15 14  1  0
 16 15  2  0
 17 16  1  0
 18 24  1  0
 18 17  2  0
 19 18  1  0
 20 22  1  0
 20 21  1  0
 20 19  1  1
 22 23  1  0
 24 25  2  0
 25 15  1  0
 26 22  2  0
M  END
$$$$
