MAY.pdb
     RDKit          3D

 26 26  0  0  1  0  0  0  0  0999 V2000
    8.9316  -11.5172   20.9528 C   0  0  0  0  0  0  0  0  0  0  0  0
    7.3629  -12.1242   20.2759 S   0  0  0  0  0  0  0  0  0  0  0  0
    7.4774  -13.9441   20.2079 C   0  0  0  0  0  0  0  0  0  0  0  0
    7.7225  -14.5165   21.5812 C   0  0  0  0  0  0  0  0  0  0  0  0
    7.8477  -16.0190   21.4485 C   0  0  2  0  0  0  0  0  0  0  0  0
    6.6687  -16.5682   20.8635 N   0  0  0  0  0  0  0  0  0  0  0  0
    8.2814  -16.6502   22.7072 C   0  0  0  0  0  0  0  0  0  0  0  0
    7.3877  -17.0000   23.5161 O   0  0  0  0  0  0  0  0  0  0  0  0
   11.2804  -18.3630   24.0531 C   0  0  0  0  0  0  0  0  0  0  0  0
   10.0862  -17.4581   24.2664 C   0  0  2  0  0  0  0  0  0  0  0  0
    9.6341  -16.8663   23.0191 N   0  0  0  0  0  0  0  0  0  0  0  0
   10.3900  -16.4547   25.2902 C   0  0  0  0  0  0  0  0  0  0  0  0
   11.0303  -15.4388   24.9883 O   0  0  0  0  0  0  0  0  0  0  0  0
    6.1482  -12.0621   24.4225 O   0  0  0  0  0  0  0  0  0  0  0  0
    6.8607  -12.8110   25.3623 C   0  0  0  0  0  0  0  0  0  0  0  0
    6.4856  -14.1097   25.6563 C   0  0  0  0  0  0  0  0  0  0  0  0
    7.1650  -14.8743   26.5758 C   0  0  0  0  0  0  0  0  0  0  0  0
    8.2698  -14.3575   27.2511 C   0  0  0  0  0  0  0  0  0  0  0  0
    9.0063  -15.1380   28.2401 C   0  0  0  0  0  0  0  0  0  0  0  0
   10.2886  -15.7024   27.6512 C   0  0  2  0  0  0  0  0  0  0  0  0
    9.9345  -16.6819   26.6133 N   0  0  0  0  0  0  0  0  0  0  0  0
   11.1405  -16.3895   28.6227 C   0  0  0  0  0  0  0  0  0  0  0  0
   11.4683  -17.7388   28.4947 O   0  0  0  0  0  0  0  0  0  0  0  0
    8.6428  -13.0650   26.9586 C   0  0  0  0  0  0  0  0  0  0  0  0
    7.9532  -12.2938   26.0274 C   0  0  0  0  0  0  0  0  0  0  0  0
   11.6204  -15.8038   29.6221 O   0  0  0  0  0  0  0  0  0  0  0  0
  2  1  1  0
  3  2  1  0
  4  3  1  0
  4  5  1  0
  5  6  1  1
  5  7  1  0
  7  8  2  0
 10  9  1  6
 11  7  1  0
 11 10  1  0
 12 10  1  0
 12 21  1  0
 13 12  2  0
 15 14  1  0
 16 15  2  0
 17 16  1  0
 18 24  1  0
 18 17  2  0
 19 18  1  0
 20 22  1  0
 20 21  1  0
 20 19  1  1
 22 23  1  0
 24 25  2  0
 25 15  1  0
 26 22  2  0
M  END
$$$$
