MAY.pdb
     RDKit          3D

 26 26  0  0  1  0  0  0  0  0999 V2000
    7.8773  -11.1459   21.0968 C   0  0  0  0  0  0  0  0  0  0  0  0
    9.0104  -12.2279   20.1842 S   0  0  0  0  0  0  0  0  0  0  0  0
    8.1629  -13.8293   19.9665 C   0  0  0  0  0  0  0  0  0  0  0  0
    9.0388  -14.8005   19.2160 C   0  0  0  0  0  0  0  0  0  0  0  0
    8.3336  -16.1393   19.1816 C   0  0  2  0  0  0  0  0  0  0  0  0
    7.1473  -16.0584   18.3942 N   0  0  0  0  0  0  0  0  0  0  0  0
    8.1593  -16.7062   20.5303 C   0  0  0  0  0  0  0  0  0  0  0  0
    6.9947  -17.0173   20.8803 O   0  0  0  0  0  0  0  0  0  0  0  0
    9.6786  -19.0727   22.4707 C   0  0  0  0  0  0  0  0  0  0  0  0
    9.1330  -17.6716   22.6425 C   0  0  2  0  0  0  0  0  0  0  0  0
    9.2339  -16.9038   21.4134 N   0  0  0  0  0  0  0  0  0  0  0  0
    9.7859  -17.0113   23.7762 C   0  0  0  0  0  0  0  0  0  0  0  0
   10.8863  -16.4649   23.6223 O   0  0  0  0  0  0  0  0  0  0  0  0
    5.4453  -11.7027   25.2545 O   0  0  0  0  0  0  0  0  0  0  0  0
    6.2329  -12.7558   25.7259 C   0  0  0  0  0  0  0  0  0  0  0  0
    7.5399  -12.5335   26.1212 C   0  0  0  0  0  0  0  0  0  0  0  0
    8.3422  -13.5475   26.5900 C   0  0  0  0  0  0  0  0  0  0  0  0
    7.8570  -14.8512   26.6834 C   0  0  0  0  0  0  0  0  0  0  0  0
    8.6849  -15.9517   27.1663 C   0  0  0  0  0  0  0  0  0  0  0  0
    9.7610  -16.3146   26.1562 C   0  0  2  0  0  0  0  0  0  0  0  0
    9.1275  -17.0189   25.0316 N   0  0  0  0  0  0  0  0  0  0  0  0
   10.8049  -17.1933   26.6850 C   0  0  0  0  0  0  0  0  0  0  0  0
   11.8476  -16.7105   27.4750 O   0  0  0  0  0  0  0  0  0  0  0  0
    6.5564  -15.0723   26.2898 C   0  0  0  0  0  0  0  0  0  0  0  0
    5.7470  -14.0439   25.8159 C   0  0  0  0  0  0  0  0  0  0  0  0
   10.8194  -18.4260   26.4562 O   0  0  0  0  0  0  0  0  0  0  0  0
  2  1  1  0
  3  2  1  0
  4  3  1  0
  4  5  1  0
  5  6  1  1
  5  7  1  0
  7  8  2  0
 10  9  1  6
 11  7  1  0
 11 10  1  0
 12 10  1  0
 12 21  1  0
 13 12  2  0
 15 14  1  0
 16 15  2  0
 17 16  1  0
 18 24  1  0
 18 17  2  0
 19 18  1  0
 20 22  1  0
 20 21  1  0
 20 19  1  1
 22 23  1  0
 24 25  2  0
 25 15  1  0
 26 22  2  0
M  END
$$$$
