MAY.pdb
     RDKit          3D

 26 26  0  0  1  0  0  0  0  0999 V2000
    8.6322  -17.5416   15.6678 C   0  0  0  0  0  0  0  0  0  0  0  0
    7.4699  -18.8519   16.1364 S   0  0  0  0  0  0  0  0  0  0  0  0
    7.2251  -18.7306   17.9406 C   0  0  0  0  0  0  0  0  0  0  0  0
    8.5467  -18.5817   18.6511 C   0  0  0  0  0  0  0  0  0  0  0  0
    8.2672  -18.3654   20.1227 C   0  0  2  0  0  0  0  0  0  0  0  0
    6.8830  -18.5649   20.4024 N   0  0  0  0  0  0  0  0  0  0  0  0
    8.8339  -17.0963   20.6116 C   0  0  0  0  0  0  0  0  0  0  0  0
   10.0759  -16.9428   20.5151 O   0  0  0  0  0  0  0  0  0  0  0  0
    7.5310  -13.7040   21.5178 C   0  0  0  0  0  0  0  0  0  0  0  0
    8.5714  -14.7992   21.6095 C   0  0  2  0  0  0  0  0  0  0  0  0
    8.0421  -16.0781   21.1687 N   0  0  0  0  0  0  0  0  0  0  0  0
    9.1275  -14.8547   22.9642 C   0  0  0  0  0  0  0  0  0  0  0  0
    9.8337  -13.9268   23.3803 O   0  0  0  0  0  0  0  0  0  0  0  0
    5.8133  -10.8383   26.6726 O   0  0  0  0  0  0  0  0  0  0  0  0
    6.3776  -12.1079   26.5261 C   0  0  0  0  0  0  0  0  0  0  0  0
    5.6437  -13.1438   25.9763 C   0  0  0  0  0  0  0  0  0  0  0  0
    6.1686  -14.4051   25.8178 C   0  0  0  0  0  0  0  0  0  0  0  0
    7.4764  -14.6845   26.2119 C   0  0  0  0  0  0  0  0  0  0  0  0
    8.0603  -16.0142   26.0676 C   0  0  0  0  0  0  0  0  0  0  0  0
    9.2844  -15.9824   25.1674 C   0  0  2  0  0  0  0  0  0  0  0  0
    8.8350  -15.9856   23.7674 N   0  0  0  0  0  0  0  0  0  0  0  0
   10.1807  -17.1267   25.3373 C   0  0  0  0  0  0  0  0  0  0  0  0
   10.9237  -17.3174   26.5018 O   0  0  0  0  0  0  0  0  0  0  0  0
    8.2065  -13.6536   26.7592 C   0  0  0  0  0  0  0  0  0  0  0  0
    7.6724  -12.3782   26.9182 C   0  0  0  0  0  0  0  0  0  0  0  0
   10.3301  -17.9961   24.4462 O   0  0  0  0  0  0  0  0  0  0  0  0
  2  1  1  0
  3  2  1  0
  4  3  1  0
  4  5  1  0
  5  6  1  6
  5  7  1  0
  7  8  2  0
 10  9  1  1
 11  7  1  0
 11 10  1  0
 12 10  1  0
 12 21  1  0
 13 12  2  0
 15 14  1  0
 16 15  2  0
 17 16  1  0
 18 24  1  0
 18 17  2  0
 19 18  1  0
 20 22  1  0
 20 21  1  0
 20 19  1  1
 22 23  1  0
 24 25  2  0
 25 15  1  0
 26 22  2  0
M  END
$$$$
