MAY.pdb
     RDKit          3D

 26 26  0  0  1  0  0  0  0  0999 V2000
    8.9522  -12.2924   18.9315 C   0  0  0  0  0  0  0  0  0  0  0  0
    7.7020  -13.2342   18.0165 S   0  0  0  0  0  0  0  0  0  0  0  0
    7.7479  -14.9441   18.6523 C   0  0  0  0  0  0  0  0  0  0  0  0
    9.0725  -15.2342   19.3120 C   0  0  0  0  0  0  0  0  0  0  0  0
    9.0600  -16.6743   19.7773 C   0  0  2  0  0  0  0  0  0  0  0  0
    8.2033  -17.4588   18.9499 N   0  0  0  0  0  0  0  0  0  0  0  0
    8.8135  -16.7844   21.2257 C   0  0  0  0  0  0  0  0  0  0  0  0
    9.5956  -16.1721   21.9932 O   0  0  0  0  0  0  0  0  0  0  0  0
    7.1193  -19.1963   23.4506 C   0  0  0  0  0  0  0  0  0  0  0  0
    7.5746  -17.7787   23.1796 C   0  0  2  0  0  0  0  0  0  0  0  0
    7.7534  -17.5368   21.7584 N   0  0  0  0  0  0  0  0  0  0  0  0
    8.7781  -17.4775   23.9596 C   0  0  0  0  0  0  0  0  0  0  0  0
    9.8889  -17.8305   23.5420 O   0  0  0  0  0  0  0  0  0  0  0  0
    5.3635  -12.4309   28.1050 O   0  0  0  0  0  0  0  0  0  0  0  0
    6.5073  -13.0356   27.5779 C   0  0  0  0  0  0  0  0  0  0  0  0
    6.4893  -13.5869   26.3092 C   0  0  0  0  0  0  0  0  0  0  0  0
    7.5972  -14.1894   25.7603 C   0  0  0  0  0  0  0  0  0  0  0  0
    8.7917  -14.2649   26.4755 C   0  0  0  0  0  0  0  0  0  0  0  0
    9.9822  -14.9064   25.9269 C   0  0  0  0  0  0  0  0  0  0  0  0
    9.8437  -16.4199   25.9335 C   0  0  2  0  0  0  0  0  0  0  0  0
    8.6304  -16.7812   25.1856 N   0  0  0  0  0  0  0  0  0  0  0  0
    9.7183  -17.0025   27.2701 C   0  0  0  0  0  0  0  0  0  0  0  0
   10.7244  -16.8793   28.2277 O   0  0  0  0  0  0  0  0  0  0  0  0
    8.8093  -13.7165   27.7380 C   0  0  0  0  0  0  0  0  0  0  0  0
    7.6864  -13.1074   28.2906 C   0  0  0  0  0  0  0  0  0  0  0  0
    8.7016  -17.6441   27.6263 O   0  0  0  0  0  0  0  0  0  0  0  0
  2  1  1  0
  3  2  1  0
  4  3  1  0
  4  5  1  0
  5  6  1  6
  5  7  1  0
  7  8  2  0
 10  9  1  6
 11  7  1  0
 11 10  1  0
 12 10  1  0
 12 21  1  0
 13 12  2  0
 15 14  1  0
 16 15  2  0
 17 16  1  0
 18 24  1  0
 18 17  2  0
 19 18  1  0
 20 22  1  0
 20 21  1  0
 20 19  1  1
 22 23  1  0
 24 25  2  0
 25 15  1  0
 26 22  2  0
M  END
$$$$
