MNQ.pdb
     RDKit          3D

 26 25  0  0  1  0  0  0  0  0999 V2000
    6.5557  -11.2863   27.4639 C   0  0  0  0  0  0  0  0  0  0  0  0
    7.3495  -12.2258   26.1322 S   0  0  0  0  0  0  0  0  0  0  0  0
    6.0892  -13.2624   25.2981 C   0  0  0  0  0  0  0  0  0  0  0  0
    6.7309  -14.0669   24.1987 C   0  0  0  0  0  0  0  0  0  0  0  0
    7.2229  -15.3991   24.6183 C   0  0  2  0  0  0  0  0  0  0  0  0
    7.7575  -15.2269   25.9972 N   0  0  0  0  0  0  0  0  0  0  0  0
    8.2757  -16.0238   23.8409 C   0  0  0  0  0  0  0  0  0  0  0  0
    8.0702  -16.2745   22.5982 O   0  0  0  0  0  0  0  0  0  0  0  0
   11.5985  -17.6501   20.5138 N   0  0  0  0  0  0  0  0  0  0  0  0
   11.6080  -16.3738   21.1400 C   0  0  0  0  0  0  0  0  0  0  0  0
   12.4945  -15.5763   20.8096 O   0  0  0  0  0  0  0  0  0  0  0  0
   10.5897  -16.0752   22.1227 C   0  0  0  0  0  0  0  0  0  0  0  0
   10.5695  -16.9557   23.3694 C   0  0  2  0  0  0  0  0  0  0  0  0
    9.5722  -16.4086   24.2999 N   0  0  0  0  0  0  0  0  0  0  0  0
   11.8853  -17.0616   24.0209 C   0  0  0  0  0  0  0  0  0  0  0  0
   12.8168  -17.7151   23.4925 O   0  0  0  0  0  0  0  0  0  0  0  0
   10.8895  -16.0023   30.0582 N   0  0  0  0  0  0  0  0  0  0  0  0
   10.6951  -15.1324   28.9513 C   0  0  0  0  0  0  0  0  0  0  0  0
   10.3095  -13.9593   29.2116 O   0  0  0  0  0  0  0  0  0  0  0  0
   10.9338  -15.5818   27.5562 C   0  0  0  0  0  0  0  0  0  0  0  0
   11.4212  -17.0118   27.5181 C   0  0  0  0  0  0  0  0  0  0  0  0
   12.4355  -17.2389   26.4233 C   0  0  2  0  0  0  0  0  0  0  0  0
   12.2054  -16.4513   25.2635 N   0  0  0  0  0  0  0  0  0  0  0  0
   12.4898  -18.6954   26.1499 C   0  0  0  0  0  0  0  0  0  0  0  0
   11.9253  -19.2655   25.1832 O   0  0  0  0  0  0  0  0  0  0  0  0
   13.2143  -19.4980   27.0184 O   0  0  0  0  0  0  0  0  0  0  0  0
  2  1  1  0
  3  2  1  0
  4  5  1  0
  4  3  1  0
  5  7  1  0
  5  6  1  1
  7  8  2  0
 10  9  1  0
 11 10  2  0
 13 12  1  6
 12 10  1  0
 14  7  1  0
 14 13  1  0
 15 13  1  0
 15 16  2  0
 18 17  1  0
 18 19  2  0
 20 21  1  0
 20 18  1  0
 22 21  1  1
 22 23  1  0
 22 24  1  0
 23 15  1  0
 24 25  2  0
 24 26  1  0
M  END
$$$$
