MNQ.pdb
     RDKit          3D

 26 25  0  0  1  0  0  0  0  0999 V2000
    6.2091  -11.7655   26.4705 C   0  0  0  0  0  0  0  0  0  0  0  0
    6.9175  -11.1807   24.9077 S   0  0  0  0  0  0  0  0  0  0  0  0
    6.8142  -12.5235   23.6647 C   0  0  0  0  0  0  0  0  0  0  0  0
    7.7534  -13.6407   24.0356 C   0  0  0  0  0  0  0  0  0  0  0  0
    7.7913  -14.7595   23.0662 C   0  0  2  0  0  0  0  0  0  0  0  0
    6.4499  -15.4030   23.1247 N   0  0  0  0  0  0  0  0  0  0  0  0
    8.7659  -15.8147   23.2659 C   0  0  0  0  0  0  0  0  0  0  0  0
    8.4563  -16.8202   24.0024 O   0  0  0  0  0  0  0  0  0  0  0  0
   10.8899  -18.9923   20.3906 N   0  0  0  0  0  0  0  0  0  0  0  0
   11.2182  -17.6264   20.6092 C   0  0  0  0  0  0  0  0  0  0  0  0
   10.9191  -16.8132   19.7260 O   0  0  0  0  0  0  0  0  0  0  0  0
   11.8792  -17.2603   21.8425 C   0  0  0  0  0  0  0  0  0  0  0  0
   10.9772  -17.0042   23.0470 C   0  0  2  0  0  0  0  0  0  0  0  0
   10.0836  -15.8843   22.7195 N   0  0  0  0  0  0  0  0  0  0  0  0
   11.7297  -16.7252   24.2809 C   0  0  0  0  0  0  0  0  0  0  0  0
   12.2918  -15.6177   24.4581 O   0  0  0  0  0  0  0  0  0  0  0  0
   10.6908  -14.1130   28.7876 N   0  0  0  0  0  0  0  0  0  0  0  0
   10.0426  -15.3768   28.7415 C   0  0  0  0  0  0  0  0  0  0  0  0
    8.9789  -15.4946   29.4102 O   0  0  0  0  0  0  0  0  0  0  0  0
   10.5902  -16.5044   27.9452 C   0  0  0  0  0  0  0  0  0  0  0  0
   11.8730  -16.1106   27.2498 C   0  0  0  0  0  0  0  0  0  0  0  0
   12.5256  -17.2803   26.5534 C   0  0  2  0  0  0  0  0  0  0  0  0
   11.8790  -17.6548   25.3451 N   0  0  0  0  0  0  0  0  0  0  0  0
   12.6378  -18.3872   27.5338 C   0  0  0  0  0  0  0  0  0  0  0  0
   13.3306  -18.3506   28.5811 O   0  0  0  0  0  0  0  0  0  0  0  0
   11.9301  -19.5542   27.2873 O   0  0  0  0  0  0  0  0  0  0  0  0
  2  1  1  0
  3  2  1  0
  4  5  1  0
  4  3  1  0
  5  7  1  0
  5  6  1  1
  7  8  2  0
 10  9  1  0
 11 10  2  0
 13 12  1  6
 12 10  1  0
 14  7  1  0
 14 13  1  0
 15 13  1  0
 15 16  2  0
 18 17  1  0
 18 19  2  0
 20 21  1  0
 20 18  1  0
 22 21  1  1
 22 23  1  0
 22 24  1  0
 23 15  1  0
 24 25  2  0
 24 26  1  0
M  END
$$$$
