MNQ.pdb
     RDKit          3D

 26 25  0  0  1  0  0  0  0  0999 V2000
    7.8093  -12.1324   27.5015 C   0  0  0  0  0  0  0  0  0  0  0  0
    6.1655  -12.0231   26.7451 S   0  0  0  0  0  0  0  0  0  0  0  0
    5.6407  -13.6957   26.2105 C   0  0  0  0  0  0  0  0  0  0  0  0
    6.0043  -13.9111   24.7651 C   0  0  0  0  0  0  0  0  0  0  0  0
    7.0552  -14.9298   24.5405 C   0  0  2  0  0  0  0  0  0  0  0  0
    8.2362  -14.4870   25.3317 N   0  0  0  0  0  0  0  0  0  0  0  0
    7.5239  -15.1529   23.1864 C   0  0  0  0  0  0  0  0  0  0  0  0
    6.7079  -15.6201   22.3116 O   0  0  0  0  0  0  0  0  0  0  0  0
    7.0502  -12.5939   20.3609 N   0  0  0  0  0  0  0  0  0  0  0  0
    7.6125  -13.8514   20.0090 C   0  0  0  0  0  0  0  0  0  0  0  0
    6.8957  -14.6519   19.3957 O   0  0  0  0  0  0  0  0  0  0  0  0
    8.9821  -14.1282   20.3826 C   0  0  0  0  0  0  0  0  0  0  0  0
    9.2053  -15.3154   21.3158 C   0  0  2  0  0  0  0  0  0  0  0  0
    8.8347  -14.9034   22.6769 N   0  0  0  0  0  0  0  0  0  0  0  0
   10.5874  -15.8209   21.2838 C   0  0  0  0  0  0  0  0  0  0  0  0
   11.5283  -15.1608   21.7866 O   0  0  0  0  0  0  0  0  0  0  0  0
   10.1757  -19.2059   25.2047 N   0  0  0  0  0  0  0  0  0  0  0  0
   11.3507  -18.4066   25.1872 C   0  0  0  0  0  0  0  0  0  0  0  0
   11.8526  -18.1099   26.3064 O   0  0  0  0  0  0  0  0  0  0  0  0
   11.9584  -17.9427   23.9141 C   0  0  0  0  0  0  0  0  0  0  0  0
   11.1718  -18.4353   22.7213 C   0  0  0  0  0  0  0  0  0  0  0  0
   11.7765  -17.9831   21.4141 C   0  0  2  0  0  0  0  0  0  0  0  0
   10.9640  -17.0610   20.7013 N   0  0  0  0  0  0  0  0  0  0  0  0
   12.1253  -19.1939   20.6323 C   0  0  0  0  0  0  0  0  0  0  0  0
   13.1800  -19.3382   19.9653 O   0  0  0  0  0  0  0  0  0  0  0  0
   11.2288  -20.2520   20.6295 O   0  0  0  0  0  0  0  0  0  0  0  0
  2  1  1  0
  3  2  1  0
  4  5  1  0
  4  3  1  0
  5  7  1  0
  5  6  1  1
  7  8  2  0
 10  9  1  0
 11 10  2  0
 13 12  1  6
 12 10  1  0
 14  7  1  0
 14 13  1  0
 15 13  1  0
 15 16  2  0
 18 17  1  0
 18 19  2  0
 20 21  1  0
 20 18  1  0
 22 21  1  1
 22 23  1  0
 22 24  1  0
 23 15  1  0
 24 25  2  0
 24 26  1  0
M  END
$$$$
