MNQ.pdb
     RDKit          3D

 26 25  0  0  1  0  0  0  0  0999 V2000
    6.5170  -11.7743   19.8175 C   0  0  0  0  0  0  0  0  0  0  0  0
    7.6701  -13.0976   19.3646 S   0  0  0  0  0  0  0  0  0  0  0  0
    7.9197  -13.0781   17.5491 C   0  0  0  0  0  0  0  0  0  0  0  0
    8.8264  -14.2096   17.1426 C   0  0  0  0  0  0  0  0  0  0  0  0
    9.5743  -14.8303   18.2599 C   0  0  2  0  0  0  0  0  0  0  0  0
    9.4595  -13.8889   19.4077 N   0  0  0  0  0  0  0  0  0  0  0  0
   10.9888  -15.0960   18.0820 C   0  0  0  0  0  0  0  0  0  0  0  0
   11.3904  -15.6370   16.9887 O   0  0  0  0  0  0  0  0  0  0  0  0
   15.4524  -14.9222   15.8279 N   0  0  0  0  0  0  0  0  0  0  0  0
   15.1550  -14.1726   16.9987 C   0  0  0  0  0  0  0  0  0  0  0  0
   16.0889  -13.5875   17.5612 O   0  0  0  0  0  0  0  0  0  0  0  0
   13.7877  -14.1324   17.4685 C   0  0  0  0  0  0  0  0  0  0  0  0
   13.4455  -15.0457   18.6428 C   0  0  2  0  0  0  0  0  0  0  0  0
   12.0403  -14.8157   19.0069 N   0  0  0  0  0  0  0  0  0  0  0  0
   14.3241  -14.8414   19.8060 C   0  0  0  0  0  0  0  0  0  0  0  0
   14.7071  -13.6921   20.1321 O   0  0  0  0  0  0  0  0  0  0  0  0
   10.1304  -15.4030   22.2156 N   0  0  0  0  0  0  0  0  0  0  0  0
   10.8028  -15.8554   23.3830 C   0  0  0  0  0  0  0  0  0  0  0  0
   10.1644  -15.7860   24.4694 O   0  0  0  0  0  0  0  0  0  0  0  0
   12.1895  -16.3840   23.3276 C   0  0  0  0  0  0  0  0  0  0  0  0
   12.7538  -16.2935   21.9285 C   0  0  0  0  0  0  0  0  0  0  0  0
   14.2513  -16.1028   21.9296 C   0  0  2  0  0  0  0  0  0  0  0  0
   14.7982  -15.8934   20.6352 N   0  0  0  0  0  0  0  0  0  0  0  0
   14.8545  -17.2502   22.6497 C   0  0  0  0  0  0  0  0  0  0  0  0
   15.0784  -18.3777   22.1430 O   0  0  0  0  0  0  0  0  0  0  0  0
   15.2013  -17.0781   23.9814 O   0  0  0  0  0  0  0  0  0  0  0  0
  2  1  1  0
  3  2  1  0
  4  5  1  0
  4  3  1  0
  5  7  1  0
  5  6  1  1
  7  8  2  0
 10  9  1  0
 11 10  2  0
 13 12  1  6
 12 10  1  0
 14  7  1  0
 14 13  1  0
 15 13  1  0
 15 16  2  0
 18 17  1  0
 18 19  2  0
 20 21  1  0
 20 18  1  0
 22 21  1  6
 22 23  1  0
 22 24  1  0
 23 15  1  0
 24 25  2  0
 24 26  1  0
M  END
$$$$
