MNQ.pdb
     RDKit          3D

 26 25  0  0  1  0  0  0  0  0999 V2000
    7.2656  -11.5648   19.1471 C   0  0  0  0  0  0  0  0  0  0  0  0
    8.9687  -12.1841   19.1929 S   0  0  0  0  0  0  0  0  0  0  0  0
    8.9521  -13.9422   19.7099 C   0  0  0  0  0  0  0  0  0  0  0  0
    8.7332  -14.8283   18.5121 C   0  0  0  0  0  0  0  0  0  0  0  0
    9.8866  -14.9080   17.5869 C   0  0  2  0  0  0  0  0  0  0  0  0
    9.5261  -15.9274   16.5634 N   0  0  0  0  0  0  0  0  0  0  0  0
   11.1770  -15.2970   18.1223 C   0  0  0  0  0  0  0  0  0  0  0  0
   11.2821  -16.4113   18.7521 O   0  0  0  0  0  0  0  0  0  0  0  0
   15.0683  -14.0763   15.3943 N   0  0  0  0  0  0  0  0  0  0  0  0
   14.9617  -15.0266   16.4463 C   0  0  0  0  0  0  0  0  0  0  0  0
   14.9979  -16.2262   16.1453 O   0  0  0  0  0  0  0  0  0  0  0  0
   14.8177  -14.5467   17.8031 C   0  0  0  0  0  0  0  0  0  0  0  0
   13.6442  -15.1083   18.6017 C   0  0  2  0  0  0  0  0  0  0  0  0
   12.4022  -14.5689   18.0304 N   0  0  0  0  0  0  0  0  0  0  0  0
   13.7292  -14.8059   20.0398 C   0  0  0  0  0  0  0  0  0  0  0  0
   13.8930  -13.6295   20.4438 O   0  0  0  0  0  0  0  0  0  0  0  0
   10.5891  -16.2190   25.0201 N   0  0  0  0  0  0  0  0  0  0  0  0
   10.6994  -16.9701   23.8188 C   0  0  0  0  0  0  0  0  0  0  0  0
    9.8179  -17.8501   23.6159 O   0  0  0  0  0  0  0  0  0  0  0  0
   11.7986  -16.7314   22.8491 C   0  0  0  0  0  0  0  0  0  0  0  0
   12.7367  -15.6532   23.3404 C   0  0  0  0  0  0  0  0  0  0  0  0
   13.9141  -15.4580   22.4160 C   0  0  2  0  0  0  0  0  0  0  0  0
   13.6345  -15.7877   21.0626 N   0  0  0  0  0  0  0  0  0  0  0  0
   15.0643  -16.2033   22.9823 C   0  0  0  0  0  0  0  0  0  0  0  0
   15.6376  -17.1712   22.4232 O   0  0  0  0  0  0  0  0  0  0  0  0
   15.5523  -15.8121   24.2202 O   0  0  0  0  0  0  0  0  0  0  0  0
  2  1  1  0
  3  2  1  0
  4  5  1  0
  4  3  1  0
  5  7  1  0
  5  6  1  6
  7  8  2  0
 10  9  1  0
 11 10  2  0
 13 12  1  6
 12 10  1  0
 14  7  1  0
 14 13  1  0
 15 13  1  0
 15 16  2  0
 18 17  1  0
 18 19  2  0
 20 21  1  0
 20 18  1  0
 22 21  1  1
 22 23  1  0
 22 24  1  0
 23 15  1  0
 24 25  2  0
 24 26  1  0
M  END
$$$$
