MNQ.pdb
     RDKit          3D

 26 25  0  0  1  0  0  0  0  0999 V2000
    7.3356  -12.8580   19.0213 C   0  0  0  0  0  0  0  0  0  0  0  0
    8.0102  -12.5641   20.6780 S   0  0  0  0  0  0  0  0  0  0  0  0
    6.8558  -13.2516   21.9243 C   0  0  0  0  0  0  0  0  0  0  0  0
    7.4640  -14.4668   22.5734 C   0  0  0  0  0  0  0  0  0  0  0  0
    8.1793  -15.3685   21.6417 C   0  0  2  0  0  0  0  0  0  0  0  0
    7.1267  -16.1039   20.8880 N   0  0  0  0  0  0  0  0  0  0  0  0
    9.0687  -16.3710   22.1958 C   0  0  0  0  0  0  0  0  0  0  0  0
    8.5735  -17.3287   22.8936 O   0  0  0  0  0  0  0  0  0  0  0  0
   13.5603  -19.9443   22.2053 N   0  0  0  0  0  0  0  0  0  0  0  0
   13.5135  -18.5915   22.6398 C   0  0  0  0  0  0  0  0  0  0  0  0
   14.2968  -18.2456   23.5329 O   0  0  0  0  0  0  0  0  0  0  0  0
   12.5610  -17.6962   22.0208 C   0  0  0  0  0  0  0  0  0  0  0  0
   11.2762  -17.4267   22.7999 C   0  0  2  0  0  0  0  0  0  0  0  0
   10.4884  -16.4352   22.0541 N   0  0  0  0  0  0  0  0  0  0  0  0
   11.5232  -16.9661   24.1759 C   0  0  0  0  0  0  0  0  0  0  0  0
   11.8232  -15.7712   24.4130 O   0  0  0  0  0  0  0  0  0  0  0  0
    9.3790  -13.6463   27.1544 N   0  0  0  0  0  0  0  0  0  0  0  0
    9.8981  -14.2839   28.3135 C   0  0  0  0  0  0  0  0  0  0  0  0
    9.8945  -13.6115   29.3815 O   0  0  0  0  0  0  0  0  0  0  0  0
   10.4197  -15.6736   28.2704 C   0  0  0  0  0  0  0  0  0  0  0  0
   10.3802  -16.2293   26.8655 C   0  0  0  0  0  0  0  0  0  0  0  0
   11.4603  -17.2571   26.6289 C   0  0  2  0  0  0  0  0  0  0  0  0
   11.4443  -17.8066   25.3189 N   0  0  0  0  0  0  0  0  0  0  0  0
   11.3592  -18.2767   27.7010 C   0  0  0  0  0  0  0  0  0  0  0  0
   11.0166  -19.4723   27.5240 O   0  0  0  0  0  0  0  0  0  0  0  0
   11.6630  -17.8942   28.9990 O   0  0  0  0  0  0  0  0  0  0  0  0
  2  1  1  0
  3  2  1  0
  4  5  1  0
  4  3  1  0
  5  7  1  0
  5  6  1  1
  7  8  2  0
 10  9  1  0
 11 10  2  0
 13 12  1  6
 12 10  1  0
 14  7  1  0
 14 13  1  0
 15 13  1  0
 15 16  2  0
 18 17  1  0
 18 19  2  0
 20 21  1  0
 20 18  1  0
 22 21  1  6
 22 23  1  0
 22 24  1  0
 23 15  1  0
 24 25  2  0
 24 26  1  0
M  END
$$$$
