MNQ.pdb
     RDKit          3D

 26 25  0  0  1  0  0  0  0  0999 V2000
    7.5075  -12.4292   28.0858 C   0  0  0  0  0  0  0  0  0  0  0  0
    6.0942  -12.1180   26.9941 S   0  0  0  0  0  0  0  0  0  0  0  0
    5.7103  -13.6483   26.0617 C   0  0  0  0  0  0  0  0  0  0  0  0
    6.9761  -14.4198   25.7963 C   0  0  0  0  0  0  0  0  0  0  0  0
    6.8596  -15.4465   24.7356 C   0  0  2  0  0  0  0  0  0  0  0  0
    5.8547  -16.4316   25.2223 N   0  0  0  0  0  0  0  0  0  0  0  0
    8.0417  -16.2049   24.3745 C   0  0  0  0  0  0  0  0  0  0  0  0
    8.2884  -17.3068   24.9864 O   0  0  0  0  0  0  0  0  0  0  0  0
   12.3847  -18.1758   22.1637 N   0  0  0  0  0  0  0  0  0  0  0  0
   11.8153  -17.2257   21.2725 C   0  0  0  0  0  0  0  0  0  0  0  0
   12.3042  -17.1328   20.1397 O   0  0  0  0  0  0  0  0  0  0  0  0
   10.7031  -16.4231   21.7317 C   0  0  0  0  0  0  0  0  0  0  0  0
   10.1613  -16.7446   23.1221 C   0  0  2  0  0  0  0  0  0  0  0  0
    9.0076  -15.8707   23.3769 N   0  0  0  0  0  0  0  0  0  0  0  0
   11.1714  -16.5946   24.1823 C   0  0  0  0  0  0  0  0  0  0  0  0
   11.4250  -15.4705   24.6783 O   0  0  0  0  0  0  0  0  0  0  0  0
   11.3683  -13.5301   28.5966 N   0  0  0  0  0  0  0  0  0  0  0  0
   11.2911  -14.9252   28.3371 C   0  0  0  0  0  0  0  0  0  0  0  0
   10.9191  -15.6610   29.2926 O   0  0  0  0  0  0  0  0  0  0  0  0
   11.6316  -15.4901   27.0066 C   0  0  0  0  0  0  0  0  0  0  0  0
   11.7756  -16.9931   27.0712 C   0  0  0  0  0  0  0  0  0  0  0  0
   12.6255  -17.5327   25.9462 C   0  0  2  0  0  0  0  0  0  0  0  0
   11.9216  -17.6748   24.7203 N   0  0  0  0  0  0  0  0  0  0  0  0
   13.2566  -18.7895   26.4167 C   0  0  0  0  0  0  0  0  0  0  0  0
   13.0608  -19.9232   25.9122 O   0  0  0  0  0  0  0  0  0  0  0  0
   14.1293  -18.7210   27.4924 O   0  0  0  0  0  0  0  0  0  0  0  0
  2  1  1  0
  3  2  1  0
  4  5  1  0
  4  3  1  0
  5  7  1  0
  5  6  1  1
  7  8  2  0
 10  9  1  0
 11 10  2  0
 13 12  1  6
 12 10  1  0
 14  7  1  0
 14 13  1  0
 15 13  1  0
 15 16  2  0
 18 17  1  0
 18 19  2  0
 20 21  1  0
 20 18  1  0
 22 21  1  1
 22 23  1  0
 22 24  1  0
 23 15  1  0
 24 25  2  0
 24 26  1  0
M  END
$$$$
