QFS.pdb
     RDKit          3D

 27 27  0  0  1  0  0  0  0  0999 V2000
   26.4880  -18.5743  -19.4201 N   0  0  0  0  0  0  0  0  0  0  0  0
   27.5681  -19.3177  -20.0077 C   0  0  0  0  0  0  0  0  0  0  0  0
   27.8629  -19.0181  -21.1718 O   0  0  0  0  0  0  0  0  0  0  0  0
   28.1919  -20.3391  -19.1542 C   0  0  0  0  0  0  0  0  0  0  0  0
   27.5751  -20.5013  -17.8120 C   0  0  0  0  0  0  0  0  0  0  0  0
   28.1969  -21.5203  -16.9298 C   0  0  2  0  0  0  0  0  0  0  0  0
   28.5326  -22.7787  -17.5301 N   0  0  0  0  0  0  0  0  0  0  0  0
   27.3945  -21.7632  -15.6968 C   0  0  0  0  0  0  0  0  0  0  0  0
   26.5832  -22.7270  -15.6077 O   0  0  0  0  0  0  0  0  0  0  0  0
   27.5021  -20.9318  -14.5759 N   0  0  0  0  0  0  0  0  0  0  0  0
   26.7496  -21.1156  -13.3360 C   0  0  1  0  0  0  0  0  0  0  0  0
   27.3982  -20.4759  -12.1853 C   0  0  0  0  0  0  0  0  0  0  0  0
   26.6522  -20.5122  -10.9295 C   0  0  0  0  0  0  0  0  0  0  0  0
   25.7682  -19.4585  -10.6401 C   0  0  0  0  0  0  0  0  0  0  0  0
   24.9945  -19.4436   -9.4943 C   0  0  0  0  0  0  0  0  0  0  0  0
   25.0635  -20.4624   -8.5964 C   0  0  0  0  0  0  0  0  0  0  0  0
   25.9091  -21.5047   -8.8398 C   0  0  0  0  0  0  0  0  0  0  0  0
   26.6708  -21.5073   -9.9797 C   0  0  0  0  0  0  0  0  0  0  0  0
   25.4103  -20.6037  -13.6327 C   0  0  0  0  0  0  0  0  0  0  0  0
   25.3058  -19.4093  -14.1178 O   0  0  0  0  0  0  0  0  0  0  0  0
   22.1602  -22.7286  -14.3765 O   0  0  0  0  0  0  0  0  0  0  0  0
   22.1282  -21.3807  -14.8003 C   0  0  0  0  0  0  0  0  0  0  0  0
   22.9126  -20.6262  -13.7242 C   0  0  2  0  0  0  0  0  0  0  0  0
   24.1720  -21.2707  -13.4587 N   0  0  0  0  0  0  0  0  0  0  0  0
   22.0445  -20.5259  -12.5583 C   0  0  0  0  0  0  0  0  0  0  0  0
   22.3728  -21.1037  -11.3623 O   0  0  0  0  0  0  0  0  0  0  0  0
   20.9673  -19.8926  -12.6570 O   0  0  0  0  0  0  0  0  0  0  0  0
  2  1  1  0
  3  2  2  0
  4  2  1  0
  5  4  1  0
  6  8  1  0
  6  5  1  0
  6  7  1  6
  8 10  1  0
  9  8  2  0
 10 11  1  0
 11 12  1  1
 12 13  1  0
 13 18  2  0
 14 15  2  0
 14 13  1  0
 15 16  1  0
 16 17  2  0
 18 17  1  0
 19 20  2  0
 19 11  1  0
 21 22  1  0
 23 22  1  6
 23 25  1  0
 23 24  1  0
 24 19  1  0
 25 26  1  0
 27 25  2  0
M  END
$$$$
