QFS.pdb
     RDKit          3D

 27 27  0  0  1  0  0  0  0  0999 V2000
   26.7046  -16.3352  -15.4953 N   0  0  0  0  0  0  0  0  0  0  0  0
   27.6206  -17.0507  -16.3400 C   0  0  0  0  0  0  0  0  0  0  0  0
   28.2692  -16.3649  -17.1406 O   0  0  0  0  0  0  0  0  0  0  0  0
   27.6775  -18.5069  -16.1477 C   0  0  0  0  0  0  0  0  0  0  0  0
   26.8871  -19.0224  -14.9997 C   0  0  0  0  0  0  0  0  0  0  0  0
   27.5709  -20.0149  -14.1332 C   0  0  2  0  0  0  0  0  0  0  0  0
   28.4099  -20.9766  -14.7872 N   0  0  0  0  0  0  0  0  0  0  0  0
   26.6195  -20.7259  -13.2319 C   0  0  0  0  0  0  0  0  0  0  0  0
   26.2575  -21.9162  -13.4492 O   0  0  0  0  0  0  0  0  0  0  0  0
   26.0803  -20.1062  -12.0985 N   0  0  0  0  0  0  0  0  0  0  0  0
   25.0973  -20.7226  -11.2091 C   0  0  1  0  0  0  0  0  0  0  0  0
   25.1691  -20.1955   -9.8412 C   0  0  0  0  0  0  0  0  0  0  0  0
   26.4123  -20.4573   -9.1198 C   0  0  0  0  0  0  0  0  0  0  0  0
   26.6989  -19.6970   -7.9730 C   0  0  0  0  0  0  0  0  0  0  0  0
   27.8323  -19.9159   -7.2119 C   0  0  0  0  0  0  0  0  0  0  0  0
   28.7203  -20.8878   -7.5521 C   0  0  0  0  0  0  0  0  0  0  0  0
   28.4792  -21.6486   -8.6583 C   0  0  0  0  0  0  0  0  0  0  0  0
   27.3517  -21.4214   -9.4043 C   0  0  0  0  0  0  0  0  0  0  0  0
   23.8087  -20.5067  -11.8700 C   0  0  0  0  0  0  0  0  0  0  0  0
   23.5067  -19.3059  -12.2434 O   0  0  0  0  0  0  0  0  0  0  0  0
   21.5019  -23.4470  -13.3234 O   0  0  0  0  0  0  0  0  0  0  0  0
   21.3935  -22.2196  -14.0156 C   0  0  0  0  0  0  0  0  0  0  0  0
   21.6473  -21.1564  -12.9442 C   0  0  2  0  0  0  0  0  0  0  0  0
   22.8186  -21.4752  -12.1705 N   0  0  0  0  0  0  0  0  0  0  0  0
   20.4285  -21.0523  -12.1526 C   0  0  0  0  0  0  0  0  0  0  0  0
   20.4158  -21.3129  -10.8095 O   0  0  0  0  0  0  0  0  0  0  0  0
   19.3634  -20.7150  -12.7210 O   0  0  0  0  0  0  0  0  0  0  0  0
  2  1  1  0
  3  2  2  0
  4  2  1  0
  5  4  1  0
  6  8  1  0
  6  5  1  0
  6  7  1  6
  8 10  1  0
  9  8  2  0
 10 11  1  0
 11 12  1  1
 12 13  1  0
 13 18  2  0
 14 15  2  0
 14 13  1  0
 15 16  1  0
 16 17  2  0
 18 17  1  0
 19 20  2  0
 19 11  1  0
 21 22  1  0
 23 22  1  6
 23 25  1  0
 23 24  1  0
 24 19  1  0
 25 26  1  0
 27 25  2  0
M  END
$$$$
