QFS.pdb
     RDKit          3D

 27 27  0  0  1  0  0  0  0  0999 V2000
   17.4511  -14.1033  -16.1955 N   0  0  0  0  0  0  0  0  0  0  0  0
   17.2099  -13.6511  -17.5379 C   0  0  0  0  0  0  0  0  0  0  0  0
   16.8591  -14.5186  -18.3480 O   0  0  0  0  0  0  0  0  0  0  0  0
   17.4058  -12.2150  -17.7832 C   0  0  0  0  0  0  0  0  0  0  0  0
   17.8893  -11.4360  -16.6138 C   0  0  0  0  0  0  0  0  0  0  0  0
   19.2989  -10.9750  -16.6778 C   0  0  2  0  0  0  0  0  0  0  0  0
   20.3141  -11.9622  -16.4512 N   0  0  0  0  0  0  0  0  0  0  0  0
   19.5487   -9.8019  -15.7921 C   0  0  0  0  0  0  0  0  0  0  0  0
   19.1472   -9.7721  -14.5950 O   0  0  0  0  0  0  0  0  0  0  0  0
   20.2419   -8.6740  -16.2465 N   0  0  0  0  0  0  0  0  0  0  0  0
   20.4829   -7.4747  -15.4461 C   0  0  1  0  0  0  0  0  0  0  0  0
   21.8927   -7.0665  -15.4562 C   0  0  0  0  0  0  0  0  0  0  0  0
   22.1659   -5.7015  -15.0127 C   0  0  0  0  0  0  0  0  0  0  0  0
   22.6362   -4.7688  -15.9531 C   0  0  0  0  0  0  0  0  0  0  0  0
   22.8748   -3.4481  -15.6205 C   0  0  0  0  0  0  0  0  0  0  0  0
   22.6594   -3.0008  -14.3547 C   0  0  0  0  0  0  0  0  0  0  0  0
   22.2028   -3.8742  -13.4115 C   0  0  0  0  0  0  0  0  0  0  0  0
   21.9702   -5.1810  -13.7543 C   0  0  0  0  0  0  0  0  0  0  0  0
   19.5629   -6.4729  -15.9882 C   0  0  0  0  0  0  0  0  0  0  0  0
   19.4636   -6.3659  -17.2733 O   0  0  0  0  0  0  0  0  0  0  0  0
   15.7823   -3.7646  -16.3025 O   0  0  0  0  0  0  0  0  0  0  0  0
   16.4622   -4.6959  -15.4851 C   0  0  0  0  0  0  0  0  0  0  0  0
   17.9253   -4.5858  -15.9210 C   0  0  2  0  0  0  0  0  0  0  0  0
   18.7337   -5.5797  -15.2649 N   0  0  0  0  0  0  0  0  0  0  0  0
   18.3450   -3.2160  -15.6560 C   0  0  0  0  0  0  0  0  0  0  0  0
   19.2468   -2.9151  -14.6721 O   0  0  0  0  0  0  0  0  0  0  0  0
   17.8643   -2.2895  -16.3500 O   0  0  0  0  0  0  0  0  0  0  0  0
  2  1  1  0
  3  2  2  0
  4  2  1  0
  5  4  1  0
  6  8  1  0
  6  5  1  0
  6  7  1  1
  8 10  1  0
  9  8  2  0
 10 11  1  0
 11 12  1  6
 12 13  1  0
 13 18  2  0
 14 15  2  0
 14 13  1  0
 15 16  1  0
 16 17  2  0
 18 17  1  0
 19 20  2  0
 19 11  1  0
 21 22  1  0
 23 22  1  1
 23 25  1  0
 23 24  1  0
 24 19  1  0
 25 26  1  0
 27 25  2  0
M  END
$$$$
