QFS.pdb
     RDKit          3D

 27 27  0  0  1  0  0  0  0  0999 V2000
   21.1747  -19.4215  -16.7391 N   0  0  0  0  0  0  0  0  0  0  0  0
   20.1479  -18.8194  -15.9343 C   0  0  0  0  0  0  0  0  0  0  0  0
   19.5607  -19.5750  -15.1494 O   0  0  0  0  0  0  0  0  0  0  0  0
   19.9237  -17.3812  -16.1390 C   0  0  0  0  0  0  0  0  0  0  0  0
   20.8124  -16.7414  -17.1436 C   0  0  0  0  0  0  0  0  0  0  0  0
   21.8613  -15.8406  -16.6034 C   0  0  2  0  0  0  0  0  0  0  0  0
   21.6062  -14.4313  -16.6782 N   0  0  0  0  0  0  0  0  0  0  0  0
   23.2042  -16.1277  -17.1841 C   0  0  0  0  0  0  0  0  0  0  0  0
   23.7036  -15.4116  -18.0967 O   0  0  0  0  0  0  0  0  0  0  0  0
   23.9778  -17.2082  -16.7444 N   0  0  0  0  0  0  0  0  0  0  0  0
   25.2852  -17.5651  -17.2925 C   0  0  1  0  0  0  0  0  0  0  0  0
   26.3648  -17.4224  -16.3085 C   0  0  0  0  0  0  0  0  0  0  0  0
   26.9426  -16.0863  -16.1831 C   0  0  0  0  0  0  0  0  0  0  0  0
   26.6490  -15.3302  -15.0353 C   0  0  0  0  0  0  0  0  0  0  0  0
   27.1930  -14.0769  -14.8233 C   0  0  0  0  0  0  0  0  0  0  0  0
   28.0426  -13.5259  -15.7308 C   0  0  0  0  0  0  0  0  0  0  0  0
   28.3538  -14.2272  -16.8587 C   0  0  0  0  0  0  0  0  0  0  0  0
   27.8075  -15.4689  -17.0569 C   0  0  0  0  0  0  0  0  0  0  0  0
   25.1159  -18.9257  -17.8063 C   0  0  0  0  0  0  0  0  0  0  0  0
   24.9235  -19.8809  -16.9558 O   0  0  0  0  0  0  0  0  0  0  0  0
   24.7531  -21.2085  -21.8070 O   0  0  0  0  0  0  0  0  0  0  0  0
   23.9332  -20.7874  -20.7355 C   0  0  0  0  0  0  0  0  0  0  0  0
   24.8830  -20.7133  -19.5377 C   0  0  2  0  0  0  0  0  0  0  0  0
   25.1286  -19.3463  -19.1596 N   0  0  0  0  0  0  0  0  0  0  0  0
   26.0863  -21.4486  -19.9042 C   0  0  0  0  0  0  0  0  0  0  0  0
   26.0618  -22.7931  -20.1565 O   0  0  0  0  0  0  0  0  0  0  0  0
   27.1729  -20.8295  -19.9894 O   0  0  0  0  0  0  0  0  0  0  0  0
  2  1  1  0
  3  2  2  0
  4  2  1  0
  5  4  1  0
  6  8  1  0
  6  5  1  0
  6  7  1  6
  8 10  1  0
  9  8  2  0
 10 11  1  0
 11 12  1  1
 12 13  1  0
 13 18  2  0
 14 15  2  0
 14 13  1  0
 15 16  1  0
 16 17  2  0
 18 17  1  0
 19 20  2  0
 19 11  1  0
 21 22  1  0
 23 22  1  6
 23 25  1  0
 23 24  1  0
 24 19  1  0
 25 26  1  0
 27 25  2  0
M  END
$$$$
