QFS.pdb
     RDKit          3D

 27 27  0  0  1  0  0  0  0  0999 V2000
   34.2106  -29.6516  -18.6116 N   0  0  0  0  0  0  0  0  0  0  0  0
   35.5898  -29.5821  -18.2149 C   0  0  0  0  0  0  0  0  0  0  0  0
   36.3813  -30.2604  -18.8823 O   0  0  0  0  0  0  0  0  0  0  0  0
   35.8918  -28.7126  -17.0688 C   0  0  0  0  0  0  0  0  0  0  0  0
   34.7085  -28.0864  -16.4237 C   0  0  0  0  0  0  0  0  0  0  0  0
   34.9966  -27.1377  -15.3190 C   0  0  2  0  0  0  0  0  0  0  0  0
   35.6471  -27.6731  -14.1585 N   0  0  0  0  0  0  0  0  0  0  0  0
   33.7838  -26.3803  -14.8963 C   0  0  0  0  0  0  0  0  0  0  0  0
   33.0040  -26.8141  -14.0026 O   0  0  0  0  0  0  0  0  0  0  0  0
   33.4505  -25.1486  -15.4718 N   0  0  0  0  0  0  0  0  0  0  0  0
   32.2843  -24.3506  -15.0973 C   0  0  1  0  0  0  0  0  0  0  0  0
   32.6512  -23.0220  -14.5931 C   0  0  0  0  0  0  0  0  0  0  0  0
   32.3686  -22.7738  -13.1813 C   0  0  0  0  0  0  0  0  0  0  0  0
   33.3718  -23.0460  -12.2352 C   0  0  0  0  0  0  0  0  0  0  0  0
   33.1963  -22.7955  -10.8869 C   0  0  0  0  0  0  0  0  0  0  0  0
   32.0308  -22.2697  -10.4241 C   0  0  0  0  0  0  0  0  0  0  0  0
   31.0315  -21.9907  -11.3096 C   0  0  0  0  0  0  0  0  0  0  0  0
   31.2183  -22.2438  -12.6440 C   0  0  0  0  0  0  0  0  0  0  0  0
   31.4463  -24.3280  -16.2977 C   0  0  0  0  0  0  0  0  0  0  0  0
   32.0109  -24.0722  -17.4328 O   0  0  0  0  0  0  0  0  0  0  0  0
   27.8186  -25.9049  -16.4874 O   0  0  0  0  0  0  0  0  0  0  0  0
   28.4636  -25.8361  -17.7431 C   0  0  0  0  0  0  0  0  0  0  0  0
   29.3570  -24.5974  -17.6430 C   0  0  2  0  0  0  0  0  0  0  0  0
   30.0515  -24.5645  -16.3826 N   0  0  0  0  0  0  0  0  0  0  0  0
   28.5043  -23.4392  -17.8763 C   0  0  0  0  0  0  0  0  0  0  0  0
   27.8241  -23.2687  -19.0512 O   0  0  0  0  0  0  0  0  0  0  0  0
   28.3933  -22.5764  -16.9739 O   0  0  0  0  0  0  0  0  0  0  0  0
  2  1  1  0
  3  2  2  0
  4  2  1  0
  5  4  1  0
  6  8  1  0
  6  5  1  0
  6  7  1  1
  8 10  1  0
  9  8  2  0
 10 11  1  0
 11 12  1  6
 12 13  1  0
 13 18  2  0
 14 15  2  0
 14 13  1  0
 15 16  1  0
 16 17  2  0
 18 17  1  0
 19 20  2  0
 19 11  1  0
 21 22  1  0
 23 22  1  1
 23 25  1  0
 23 24  1  0
 24 19  1  0
 25 26  1  0
 27 25  2  0
M  END
$$$$
