QFS.pdb
     RDKit          3D

 27 27  0  0  1  0  0  0  0  0999 V2000
   17.1400  -20.5098    2.7334 N   0  0  0  0  0  0  0  0  0  0  0  0
   16.1638  -19.4564    2.7756 C   0  0  0  0  0  0  0  0  0  0  0  0
   16.2462  -18.6040    1.8820 O   0  0  0  0  0  0  0  0  0  0  0  0
   15.1861  -19.5221    3.8713 C   0  0  0  0  0  0  0  0  0  0  0  0
   15.3812  -20.6462    4.8235 C   0  0  0  0  0  0  0  0  0  0  0  0
   16.2975  -20.3827    5.9611 C   0  0  2  0  0  0  0  0  0  0  0  0
   17.4811  -19.6243    5.6773 N   0  0  0  0  0  0  0  0  0  0  0  0
   16.6763  -21.6326    6.6805 C   0  0  0  0  0  0  0  0  0  0  0  0
   15.8115  -22.3879    7.2065 O   0  0  0  0  0  0  0  0  0  0  0  0
   18.0125  -22.0295    6.8078 N   0  0  0  0  0  0  0  0  0  0  0  0
   18.4517  -23.2433    7.4941 C   0  0  1  0  0  0  0  0  0  0  0  0
   19.3998  -24.0286    6.6951 C   0  0  0  0  0  0  0  0  0  0  0  0
   19.9451  -25.2208    7.3400 C   0  0  0  0  0  0  0  0  0  0  0  0
   19.3190  -26.4579    7.1093 C   0  0  0  0  0  0  0  0  0  0  0  0
   19.8020  -27.6364    7.6474 C   0  0  0  0  0  0  0  0  0  0  0  0
   20.9148  -27.6383    8.4288 C   0  0  0  0  0  0  0  0  0  0  0  0
   21.5527  -26.4585    8.6773 C   0  0  0  0  0  0  0  0  0  0  0  0
   21.0635  -25.2970    8.1376 C   0  0  0  0  0  0  0  0  0  0  0  0
   18.9871  -22.7755    8.7741 C   0  0  0  0  0  0  0  0  0  0  0  0
   19.8419  -21.8050    8.7614 O   0  0  0  0  0  0  0  0  0  0  0  0
   18.9929  -22.2196   13.5124 O   0  0  0  0  0  0  0  0  0  0  0  0
   18.4344  -23.0246   12.4937 C   0  0  0  0  0  0  0  0  0  0  0  0
   19.2772  -22.7083   11.2558 C   0  0  2  0  0  0  0  0  0  0  0  0
   18.6755  -23.2585   10.0696 N   0  0  0  0  0  0  0  0  0  0  0  0
   20.6214  -23.2049   11.5194 C   0  0  0  0  0  0  0  0  0  0  0  0
   21.4523  -22.5955   12.4195 O   0  0  0  0  0  0  0  0  0  0  0  0
   21.0251  -24.2185   10.9024 O   0  0  0  0  0  0  0  0  0  0  0  0
  2  1  1  0
  3  2  2  0
  4  2  1  0
  5  4  1  0
  6  8  1  0
  6  5  1  0
  6  7  1  6
  8 10  1  0
  9  8  2  0
 10 11  1  0
 11 12  1  6
 12 13  1  0
 13 18  2  0
 14 15  2  0
 14 13  1  0
 15 16  1  0
 16 17  2  0
 18 17  1  0
 19 20  2  0
 19 11  1  0
 21 22  1  0
 23 22  1  1
 23 25  1  0
 23 24  1  0
 24 19  1  0
 25 26  1  0
 27 25  2  0
M  END
$$$$
