QFS.pdb
     RDKit          3D

 27 27  0  0  1  0  0  0  0  0999 V2000
   23.6878  -18.9271  -18.1814 N   0  0  0  0  0  0  0  0  0  0  0  0
   24.3961  -19.9163  -18.9457 C   0  0  0  0  0  0  0  0  0  0  0  0
   23.8147  -20.9971  -19.1060 O   0  0  0  0  0  0  0  0  0  0  0  0
   25.7212  -19.5228  -19.4459 C   0  0  0  0  0  0  0  0  0  0  0  0
   26.7476  -19.2910  -18.3966 C   0  0  0  0  0  0  0  0  0  0  0  0
   27.3608  -20.5076  -17.8073 C   0  0  2  0  0  0  0  0  0  0  0  0
   27.6035  -21.6063  -18.6964 N   0  0  0  0  0  0  0  0  0  0  0  0
   26.6091  -20.9968  -16.6162 C   0  0  0  0  0  0  0  0  0  0  0  0
   26.0656  -22.1366  -16.5920 O   0  0  0  0  0  0  0  0  0  0  0  0
   26.4692  -20.2137  -15.4645 N   0  0  0  0  0  0  0  0  0  0  0  0
   25.9084  -20.6935  -14.2026 C   0  0  1  0  0  0  0  0  0  0  0  0
   26.5392  -20.0687  -13.0339 C   0  0  0  0  0  0  0  0  0  0  0  0
   25.9197  -20.3575  -11.7426 C   0  0  0  0  0  0  0  0  0  0  0  0
   26.4466  -21.3995  -10.9603 C   0  0  0  0  0  0  0  0  0  0  0  0
   25.9440  -21.7038   -9.7087 C   0  0  0  0  0  0  0  0  0  0  0  0
   24.9085  -20.9950   -9.1850 C   0  0  0  0  0  0  0  0  0  0  0  0
   24.3683  -19.9751   -9.9120 C   0  0  0  0  0  0  0  0  0  0  0  0
   24.8759  -19.6836  -11.1517 C   0  0  0  0  0  0  0  0  0  0  0  0
   24.4699  -20.4444  -14.3145 C   0  0  0  0  0  0  0  0  0  0  0  0
   24.0810  -19.2818  -14.7268 O   0  0  0  0  0  0  0  0  0  0  0  0
   21.6591  -23.1620  -14.7107 O   0  0  0  0  0  0  0  0  0  0  0  0
   21.2540  -21.8542  -15.0617 C   0  0  0  0  0  0  0  0  0  0  0  0
   22.0305  -20.9469  -14.1044 C   0  0  2  0  0  0  0  0  0  0  0  0
   23.4122  -21.3430  -14.0274 N   0  0  0  0  0  0  0  0  0  0  0  0
   21.3343  -20.9853  -12.8250 C   0  0  0  0  0  0  0  0  0  0  0  0
   20.0348  -20.5767  -12.6979 O   0  0  0  0  0  0  0  0  0  0  0  0
   21.9460  -21.4043  -11.8142 O   0  0  0  0  0  0  0  0  0  0  0  0
  2  1  1  0
  3  2  2  0
  4  2  1  0
  5  4  1  0
  6  8  1  0
  6  5  1  0
  6  7  1  6
  8 10  1  0
  9  8  2  0
 10 11  1  0
 11 12  1  1
 12 13  1  0
 13 18  2  0
 14 15  2  0
 14 13  1  0
 15 16  1  0
 16 17  2  0
 18 17  1  0
 19 20  2  0
 19 11  1  0
 21 22  1  0
 23 22  1  6
 23 25  1  0
 23 24  1  0
 24 19  1  0
 25 26  1  0
 27 25  2  0
M  END
$$$$
