QFS.pdb
     RDKit          3D

 27 27  0  0  1  0  0  0  0  0999 V2000
   26.9449  -18.5130  -17.0966 N   0  0  0  0  0  0  0  0  0  0  0  0
   28.0744  -17.7886  -16.5828 C   0  0  0  0  0  0  0  0  0  0  0  0
   28.7128  -17.1224  -17.4078 O   0  0  0  0  0  0  0  0  0  0  0  0
   28.3309  -17.9247  -15.1418 C   0  0  0  0  0  0  0  0  0  0  0  0
   27.3711  -18.7915  -14.4099 C   0  0  0  0  0  0  0  0  0  0  0  0
   27.9682  -19.7756  -13.4726 C   0  0  2  0  0  0  0  0  0  0  0  0
   28.9088  -20.7072  -14.0241 N   0  0  0  0  0  0  0  0  0  0  0  0
   26.9316  -20.5219  -12.7036 C   0  0  0  0  0  0  0  0  0  0  0  0
   26.5800  -21.6929  -13.0202 O   0  0  0  0  0  0  0  0  0  0  0  0
   26.2964  -19.9586  -11.5907 N   0  0  0  0  0  0  0  0  0  0  0  0
   25.3436  -20.6665  -10.7374 C   0  0  1  0  0  0  0  0  0  0  0  0
   25.2490  -20.0808   -9.3949 C   0  0  0  0  0  0  0  0  0  0  0  0
   26.4771  -20.0945   -8.6037 C   0  0  0  0  0  0  0  0  0  0  0  0
   27.3993  -21.1352   -8.8087 C   0  0  0  0  0  0  0  0  0  0  0  0
   28.6033  -21.1927   -8.1313 C   0  0  0  0  0  0  0  0  0  0  0  0
   28.9406  -20.2306   -7.2315 C   0  0  0  0  0  0  0  0  0  0  0  0
   28.0734  -19.2028   -7.0033 C   0  0  0  0  0  0  0  0  0  0  0  0
   26.8828  -19.1575   -7.6815 C   0  0  0  0  0  0  0  0  0  0  0  0
   24.0873  -20.6531  -11.4893 C   0  0  0  0  0  0  0  0  0  0  0  0
   23.7618  -19.5700  -12.1167 O   0  0  0  0  0  0  0  0  0  0  0  0
   20.5449  -22.6016  -13.9744 O   0  0  0  0  0  0  0  0  0  0  0  0
   21.6607  -22.9015  -13.1602 C   0  0  0  0  0  0  0  0  0  0  0  0
   21.9747  -21.5840  -12.4472 C   0  0  2  0  0  0  0  0  0  0  0  0
   23.1531  -21.7095  -11.6302 N   0  0  0  0  0  0  0  0  0  0  0  0
   20.7793  -21.2086  -11.7036 C   0  0  0  0  0  0  0  0  0  0  0  0
   20.5283  -21.6924  -10.4487 O   0  0  0  0  0  0  0  0  0  0  0  0
   19.9595  -20.4207  -12.2313 O   0  0  0  0  0  0  0  0  0  0  0  0
  2  1  1  0
  3  2  2  0
  4  2  1  0
  5  4  1  0
  6  8  1  0
  6  5  1  0
  6  7  1  6
  8 10  1  0
  9  8  2  0
 10 11  1  0
 11 12  1  1
 12 13  1  0
 13 18  2  0
 14 15  2  0
 14 13  1  0
 15 16  1  0
 16 17  2  0
 18 17  1  0
 19 20  2  0
 19 11  1  0
 21 22  1  0
 23 22  1  1
 23 25  1  0
 23 24  1  0
 24 19  1  0
 25 26  1  0
 27 25  2  0
M  END
$$$$
