AYL.pdb
     RDKit          3D

 26 26  0  0  1  0  0  0  0  0999 V2000
    5.9444  -18.7394   22.9300 C   0  0  0  0  0  0  0  0  0  0  0  0
    6.5374  -18.1691   21.6565 C   0  0  2  0  0  0  0  0  0  0  0  0
    6.9845  -19.2753   20.8489 N   0  0  0  0  0  0  0  0  0  0  0  0
    7.6710  -17.2508   21.9670 C   0  0  0  0  0  0  0  0  0  0  0  0
    8.8617  -17.6419   21.9681 O   0  0  0  0  0  0  0  0  0  0  0  0
    8.0494  -13.8035   16.2437 O   0  0  0  0  0  0  0  0  0  0  0  0
    8.0865  -13.7567   17.6440 C   0  0  0  0  0  0  0  0  0  0  0  0
    9.2622  -13.5456   18.3319 C   0  0  0  0  0  0  0  0  0  0  0  0
    9.3064  -13.4981   19.7138 C   0  0  0  0  0  0  0  0  0  0  0  0
    8.1431  -13.6656   20.4576 C   0  0  0  0  0  0  0  0  0  0  0  0
    8.1968  -13.6535   21.9228 C   0  0  0  0  0  0  0  0  0  0  0  0
    8.5031  -14.9321   22.5860 C   0  0  2  0  0  0  0  0  0  0  0  0
    7.4224  -15.9015   22.2707 N   0  0  0  0  0  0  0  0  0  0  0  0
    8.8051  -14.9659   24.0033 C   0  0  0  0  0  0  0  0  0  0  0  0
    9.9239  -14.4285   24.3540 O   0  0  0  0  0  0  0  0  0  0  0  0
    6.9829  -13.8748   19.7491 C   0  0  0  0  0  0  0  0  0  0  0  0
    6.9359  -13.9224   18.3758 C   0  0  0  0  0  0  0  0  0  0  0  0
    8.4151  -12.2288   27.2832 C   0  0  0  0  0  0  0  0  0  0  0  0
    7.2403  -13.0615   26.7626 C   0  0  2  0  0  0  0  0  0  0  0  0
    5.9494  -12.3825   26.9874 C   0  0  0  0  0  0  0  0  0  0  0  0
    7.3615  -14.4920   27.0884 C   0  0  0  0  0  0  0  0  0  0  0  0
    8.4510  -15.2887   26.4696 C   0  0  2  0  0  0  0  0  0  0  0  0
    8.0547  -15.4939   25.0600 N   0  0  0  0  0  0  0  0  0  0  0  0
    8.7468  -16.5872   27.0489 C   0  0  0  0  0  0  0  0  0  0  0  0
    9.5201  -16.7849   28.1916 O   0  0  0  0  0  0  0  0  0  0  0  0
    8.3012  -17.6497   26.5220 O   0  0  0  0  0  0  0  0  0  0  0  0
  2  1  1  1
  3  2  1  0
  4 13  1  0
  4  2  1  0
  5  4  2  0
  7  6  1  0
  8  7  2  0
  9  8  1  0
 10 16  1  0
 10  9  2  0
 11 10  1  0
 12 11  1  1
 12 13  1  0
 14 23  1  0
 14 12  1  0
 15 14  2  0
 16 17  2  0
 17  7  1  0
 19 18  1  1
 19 21  1  0
 20 19  1  0
 22 21  1  1
 22 23  1  0
 22 24  1  0
 24 25  1  0
 26 24  2  0
M  END
$$$$
