AYL.pdb
     RDKit          3D

 26 26  0  0  1  0  0  0  0  0999 V2000
    6.8391  -19.1727   22.3142 C   0  0  0  0  0  0  0  0  0  0  0  0
    7.3511  -18.3956   21.1172 C   0  0  2  0  0  0  0  0  0  0  0  0
    7.9957  -19.3316   20.2317 N   0  0  0  0  0  0  0  0  0  0  0  0
    8.3055  -17.3328   21.5466 C   0  0  0  0  0  0  0  0  0  0  0  0
    9.5442  -17.5221   21.5696 O   0  0  0  0  0  0  0  0  0  0  0  0
    8.0632  -13.8144   16.0881 O   0  0  0  0  0  0  0  0  0  0  0  0
    8.1206  -13.7818   17.4882 C   0  0  0  0  0  0  0  0  0  0  0  0
    9.3069  -13.5823   18.1612 C   0  0  0  0  0  0  0  0  0  0  0  0
    9.3712  -13.5489   19.5427 C   0  0  0  0  0  0  0  0  0  0  0  0
    8.2180  -13.7191   20.3014 C   0  0  0  0  0  0  0  0  0  0  0  0
    8.2927  -13.7220   21.7658 C   0  0  0  0  0  0  0  0  0  0  0  0
    8.7172  -14.9783   22.4060 C   0  0  2  0  0  0  0  0  0  0  0  0
    7.8259  -16.0725   21.9420 N   0  0  0  0  0  0  0  0  0  0  0  0
    8.8819  -15.0458   23.8445 C   0  0  0  0  0  0  0  0  0  0  0  0
   10.0211  -14.6484   24.3005 O   0  0  0  0  0  0  0  0  0  0  0  0
    7.0468  -13.9166   19.6077 C   0  0  0  0  0  0  0  0  0  0  0  0
    6.9800  -13.9503   18.2347 C   0  0  0  0  0  0  0  0  0  0  0  0
    8.0996  -12.2229   27.0117 C   0  0  0  0  0  0  0  0  0  0  0  0
    6.9673  -13.0848   26.4463 C   0  0  2  0  0  0  0  0  0  0  0  0
    5.6543  -12.4288   26.6003 C   0  0  0  0  0  0  0  0  0  0  0  0
    7.1001  -14.5086   26.7959 C   0  0  0  0  0  0  0  0  0  0  0  0
    8.2497  -15.2835   26.2644 C   0  0  2  0  0  0  0  0  0  0  0  0
    7.9793  -15.4760   24.8236 N   0  0  0  0  0  0  0  0  0  0  0  0
    8.5125  -16.5853   26.8523 C   0  0  0  0  0  0  0  0  0  0  0  0
    9.0819  -16.7844   28.1088 O   0  0  0  0  0  0  0  0  0  0  0  0
    8.2284  -17.6495   26.2261 O   0  0  0  0  0  0  0  0  0  0  0  0
  2  1  1  1
  3  2  1  0
  4 13  1  0
  4  2  1  0
  5  4  2  0
  7  6  1  0
  8  7  2  0
  9  8  1  0
 10 16  1  0
 10  9  2  0
 11 10  1  0
 12 11  1  1
 12 13  1  0
 14 23  1  0
 14 12  1  0
 15 14  2  0
 16 17  2  0
 17  7  1  0
 19 18  1  1
 19 21  1  0
 20 19  1  0
 22 21  1  1
 22 23  1  0
 22 24  1  0
 24 25  1  0
 26 24  2  0
M  END
$$$$
