AYL.pdb
     RDKit          3D

 26 26  0  0  1  0  0  0  0  0999 V2000
    8.2613  -12.3130   19.8009 C   0  0  0  0  0  0  0  0  0  0  0  0
    8.4640  -13.7742   19.4507 C   0  0  2  0  0  0  0  0  0  0  0  0
    7.5154  -14.1123   18.4204 N   0  0  0  0  0  0  0  0  0  0  0  0
    8.2682  -14.6370   20.6516 C   0  0  0  0  0  0  0  0  0  0  0  0
    7.1347  -15.0415   21.0013 O   0  0  0  0  0  0  0  0  0  0  0  0
    8.6870  -20.9365   18.3689 O   0  0  0  0  0  0  0  0  0  0  0  0
    9.0527  -19.9859   19.3318 C   0  0  0  0  0  0  0  0  0  0  0  0
   10.0274  -19.0427   19.0864 C   0  0  0  0  0  0  0  0  0  0  0  0
   10.3936  -18.1015   20.0319 C   0  0  0  0  0  0  0  0  0  0  0  0
    9.7753  -18.0834   21.2776 C   0  0  0  0  0  0  0  0  0  0  0  0
   10.1905  -17.1102   22.2927 C   0  0  0  0  0  0  0  0  0  0  0  0
    9.2710  -15.9899   22.5531 C   0  0  2  0  0  0  0  0  0  0  0  0
    9.3724  -15.0217   21.4308 N   0  0  0  0  0  0  0  0  0  0  0  0
    9.3140  -15.2892   23.8213 C   0  0  0  0  0  0  0  0  0  0  0  0
   10.3856  -14.6102   24.0539 O   0  0  0  0  0  0  0  0  0  0  0  0
    8.8061  -19.0340   21.4989 C   0  0  0  0  0  0  0  0  0  0  0  0
    8.4402  -19.9706   20.5612 C   0  0  0  0  0  0  0  0  0  0  0  0
    8.1027  -11.6401   25.9777 C   0  0  0  0  0  0  0  0  0  0  0  0
    7.0014  -12.7038   25.9566 C   0  0  2  0  0  0  0  0  0  0  0  0
    5.6819  -12.1283   26.2818 C   0  0  0  0  0  0  0  0  0  0  0  0
    7.4087  -13.9647   26.5980 C   0  0  0  0  0  0  0  0  0  0  0  0
    8.6582  -14.6344   26.1565 C   0  0  2  0  0  0  0  0  0  0  0  0
    8.3551  -15.2333   24.8391 N   0  0  0  0  0  0  0  0  0  0  0  0
    9.2014  -15.6753   27.0114 C   0  0  0  0  0  0  0  0  0  0  0  0
    9.0282  -17.0420   26.7996 O   0  0  0  0  0  0  0  0  0  0  0  0
    9.8859  -15.3818   28.0363 O   0  0  0  0  0  0  0  0  0  0  0  0
  2  1  1  1
  3  2  1  0
  4 13  1  0
  4  2  1  0
  5  4  2  0
  7  6  1  0
  8  7  2  0
  9  8  1  0
 10 16  1  0
 10  9  2  0
 11 10  1  0
 12 11  1  1
 12 13  1  0
 14 23  1  0
 14 12  1  0
 15 14  2  0
 16 17  2  0
 17  7  1  0
 19 18  1  1
 19 21  1  0
 20 19  1  0
 22 21  1  1
 22 23  1  0
 22 24  1  0
 24 25  1  0
 26 24  2  0
M  END
$$$$
