AYL.pdb
     RDKit          3D

 26 26  0  0  1  0  0  0  0  0999 V2000
    7.6781  -13.4791   19.2887 C   0  0  0  0  0  0  0  0  0  0  0  0
    7.8209  -14.9882   19.2547 C   0  0  2  0  0  0  0  0  0  0  0  0
    6.9305  -15.4886   18.2386 N   0  0  0  0  0  0  0  0  0  0  0  0
    7.4905  -15.5799   20.5834 C   0  0  0  0  0  0  0  0  0  0  0  0
    6.4818  -16.3032   20.7562 O   0  0  0  0  0  0  0  0  0  0  0  0
    7.7056  -20.6457   27.4999 O   0  0  0  0  0  0  0  0  0  0  0  0
    7.7289  -19.8313   26.3594 C   0  0  0  0  0  0  0  0  0  0  0  0
    6.5773  -19.5107   25.6733 C   0  0  0  0  0  0  0  0  0  0  0  0
    6.5926  -18.7075   24.5470 C   0  0  0  0  0  0  0  0  0  0  0  0
    7.7938  -18.1938   24.0699 C   0  0  0  0  0  0  0  0  0  0  0  0
    7.8140  -17.3743   22.8542 C   0  0  0  0  0  0  0  0  0  0  0  0
    8.0829  -15.9369   23.0274 C   0  0  2  0  0  0  0  0  0  0  0  0
    8.3199  -15.3336   21.6907 N   0  0  0  0  0  0  0  0  0  0  0  0
    9.0967  -15.4909   23.9624 C   0  0  0  0  0  0  0  0  0  0  0  0
   10.0376  -14.7606   23.4675 O   0  0  0  0  0  0  0  0  0  0  0  0
    8.9291  -18.5275   24.7710 C   0  0  0  0  0  0  0  0  0  0  0  0
    8.9169  -19.3255   25.8907 C   0  0  0  0  0  0  0  0  0  0  0  0
    5.6817  -12.9236   27.0646 C   0  0  0  0  0  0  0  0  0  0  0  0
    7.2078  -12.9879   26.9569 C   0  0  2  0  0  0  0  0  0  0  0  0
    7.7974  -11.6485   26.7664 C   0  0  0  0  0  0  0  0  0  0  0  0
    7.6777  -14.1016   26.1166 C   0  0  0  0  0  0  0  0  0  0  0  0
    9.0428  -14.6459   26.3279 C   0  0  2  0  0  0  0  0  0  0  0  0
    9.2060  -15.7310   25.3369 N   0  0  0  0  0  0  0  0  0  0  0  0
    9.3571  -15.1824   27.6405 C   0  0  0  0  0  0  0  0  0  0  0  0
    8.9227  -16.4196   28.1130 O   0  0  0  0  0  0  0  0  0  0  0  0
   10.0687  -14.5250   28.4569 O   0  0  0  0  0  0  0  0  0  0  0  0
  2  1  1  1
  3  2  1  0
  4 13  1  0
  4  2  1  0
  5  4  2  0
  7  6  1  0
  8  7  2  0
  9  8  1  0
 10 16  1  0
 10  9  2  0
 11 10  1  0
 12 11  1  6
 12 13  1  0
 14 23  1  0
 14 12  1  0
 15 14  2  0
 16 17  2  0
 17  7  1  0
 19 18  1  6
 19 21  1  0
 20 19  1  0
 22 21  1  1
 22 23  1  0
 22 24  1  0
 24 25  1  0
 26 24  2  0
M  END
$$$$
