AYL.pdb
     RDKit          3D

 26 26  0  0  1  0  0  0  0  0999 V2000
    7.8308  -12.6654   20.3004 C   0  0  0  0  0  0  0  0  0  0  0  0
    8.0879  -14.0824   19.8262 C   0  0  2  0  0  0  0  0  0  0  0  0
    6.9609  -14.4864   19.0248 N   0  0  0  0  0  0  0  0  0  0  0  0
    8.2672  -15.0030   20.9861 C   0  0  0  0  0  0  0  0  0  0  0  0
    7.3006  -15.5971   21.5183 O   0  0  0  0  0  0  0  0  0  0  0  0
   12.2914  -21.3846   25.6230 O   0  0  0  0  0  0  0  0  0  0  0  0
   11.9757  -20.2839   24.8147 C   0  0  0  0  0  0  0  0  0  0  0  0
   10.8312  -20.2520   24.0472 C   0  0  0  0  0  0  0  0  0  0  0  0
   10.5131  -19.1692   23.2471 C   0  0  0  0  0  0  0  0  0  0  0  0
   11.3566  -18.0645   23.1964 C   0  0  0  0  0  0  0  0  0  0  0  0
   11.0385  -16.9336   22.3190 C   0  0  0  0  0  0  0  0  0  0  0  0
    9.8090  -16.1827   22.6240 C   0  0  2  0  0  0  0  0  0  0  0  0
    9.5491  -15.2274   21.5164 N   0  0  0  0  0  0  0  0  0  0  0  0
    9.6580  -15.5167   23.9025 C   0  0  0  0  0  0  0  0  0  0  0  0
   10.4195  -14.4944   24.0987 O   0  0  0  0  0  0  0  0  0  0  0  0
   12.4922  -18.1196   23.9707 C   0  0  0  0  0  0  0  0  0  0  0  0
   12.8108  -19.1944   24.7668 C   0  0  0  0  0  0  0  0  0  0  0  0
    8.2389  -12.0664   26.0254 C   0  0  0  0  0  0  0  0  0  0  0  0
    7.1896  -13.1298   25.6893 C   0  0  2  0  0  0  0  0  0  0  0  0
    5.8215  -12.5782   25.7331 C   0  0  0  0  0  0  0  0  0  0  0  0
    7.4585  -14.4257   26.3340 C   0  0  0  0  0  0  0  0  0  0  0  0
    8.8099  -15.0294   26.2167 C   0  0  2  0  0  0  0  0  0  0  0  0
    8.7969  -15.8155   24.9645 N   0  0  0  0  0  0  0  0  0  0  0  0
    9.2532  -15.8999   27.2915 C   0  0  0  0  0  0  0  0  0  0  0  0
    9.7997  -15.4549   28.4940 O   0  0  0  0  0  0  0  0  0  0  0  0
    9.1644  -17.1592   27.1852 O   0  0  0  0  0  0  0  0  0  0  0  0
  2  1  1  1
  3  2  1  0
  4 13  1  0
  4  2  1  0
  5  4  2  0
  7  6  1  0
  8  7  2  0
  9  8  1  0
 10 16  1  0
 10  9  2  0
 11 10  1  0
 12 11  1  6
 12 13  1  0
 14 23  1  0
 14 12  1  0
 15 14  2  0
 16 17  2  0
 17  7  1  0
 19 18  1  1
 19 21  1  0
 20 19  1  0
 22 21  1  1
 22 23  1  0
 22 24  1  0
 24 25  1  0
 26 24  2  0
M  END
$$$$
