AYL.pdb
     RDKit          3D

 26 26  0  0  1  0  0  0  0  0999 V2000
   10.2925  -17.8876   18.2446 C   0  0  0  0  0  0  0  0  0  0  0  0
   11.0922  -18.7319   17.2717 C   0  0  2  0  0  0  0  0  0  0  0  0
   10.2483  -19.8158   16.8375 N   0  0  0  0  0  0  0  0  0  0  0  0
   12.3300  -19.2542   17.9196 C   0  0  0  0  0  0  0  0  0  0  0  0
   12.3589  -20.3659   18.4975 O   0  0  0  0  0  0  0  0  0  0  0  0
   20.9580  -20.4353   19.4945 O   0  0  0  0  0  0  0  0  0  0  0  0
   19.7174  -19.9169   19.0988 C   0  0  0  0  0  0  0  0  0  0  0  0
   19.4108  -18.5805   19.2410 C   0  0  0  0  0  0  0  0  0  0  0  0
   18.1885  -18.0618   18.8527 C   0  0  0  0  0  0  0  0  0  0  0  0
   17.2200  -18.8920   18.2985 C   0  0  0  0  0  0  0  0  0  0  0  0
   15.9109  -18.3490   17.9227 C   0  0  0  0  0  0  0  0  0  0  0  0
   14.7398  -18.8883   18.6342 C   0  0  2  0  0  0  0  0  0  0  0  0
   13.5126  -18.4956   17.8948 N   0  0  0  0  0  0  0  0  0  0  0  0
   14.5684  -18.6401   20.0519 C   0  0  0  0  0  0  0  0  0  0  0  0
   14.3426  -19.6787   20.7825 O   0  0  0  0  0  0  0  0  0  0  0  0
   17.5489  -20.2211   18.1668 C   0  0  0  0  0  0  0  0  0  0  0  0
   18.7629  -20.7394   18.5518 C   0  0  0  0  0  0  0  0  0  0  0  0
   11.7423  -16.1902   22.1507 C   0  0  0  0  0  0  0  0  0  0  0  0
   11.8707  -17.7130   22.0548 C   0  0  2  0  0  0  0  0  0  0  0  0
   10.6596  -18.3943   22.5519 C   0  0  0  0  0  0  0  0  0  0  0  0
   13.1921  -18.2055   22.4777 C   0  0  0  0  0  0  0  0  0  0  0  0
   14.3951  -17.3756   22.2160 C   0  0  2  0  0  0  0  0  0  0  0  0
   14.6178  -17.4313   20.7553 N   0  0  0  0  0  0  0  0  0  0  0  0
   15.6314  -17.7566   22.8760 C   0  0  0  0  0  0  0  0  0  0  0  0
   16.6915  -18.4111   22.2510 O   0  0  0  0  0  0  0  0  0  0  0  0
   15.8156  -17.5055   24.1041 O   0  0  0  0  0  0  0  0  0  0  0  0
  2  1  1  1
  3  2  1  0
  4 13  1  0
  4  2  1  0
  5  4  2  0
  7  6  1  0
  8  7  2  0
  9  8  1  0
 10 16  1  0
 10  9  2  0
 11 10  1  0
 12 11  1  6
 12 13  1  0
 14 23  1  0
 14 12  1  0
 15 14  2  0
 16 17  2  0
 17  7  1  0
 19 18  1  1
 19 21  1  0
 20 19  1  0
 22 21  1  6
 22 23  1  0
 22 24  1  0
 24 25  1  0
 26 24  2  0
M  END
$$$$
