AYL.pdb
     RDKit          3D

 26 26  0  0  1  0  0  0  0  0999 V2000
    8.1348  -13.0687   19.3350 C   0  0  0  0  0  0  0  0  0  0  0  0
    8.0286  -14.5803   19.2850 C   0  0  2  0  0  0  0  0  0  0  0  0
    7.0477  -14.9167   18.2849 N   0  0  0  0  0  0  0  0  0  0  0  0
    7.6336  -15.1262   20.6157 C   0  0  0  0  0  0  0  0  0  0  0  0
    6.4934  -15.6017   20.8268 O   0  0  0  0  0  0  0  0  0  0  0  0
    7.5947  -21.1174   26.6990 O   0  0  0  0  0  0  0  0  0  0  0  0
    7.7631  -20.1996   25.6533 C   0  0  0  0  0  0  0  0  0  0  0  0
    9.0104  -19.8855   25.1575 C   0  0  0  0  0  0  0  0  0  0  0  0
    9.1843  -18.9806   24.1256 C   0  0  0  0  0  0  0  0  0  0  0  0
    8.0837  -18.3532   23.5518 C   0  0  0  0  0  0  0  0  0  0  0  0
    8.2715  -17.3658   22.4842 C   0  0  0  0  0  0  0  0  0  0  0  0
    8.3828  -15.9564   22.8963 C   0  0  2  0  0  0  0  0  0  0  0  0
    8.5498  -15.1182   21.6811 N   0  0  0  0  0  0  0  0  0  0  0  0
    9.3443  -15.5649   23.9078 C   0  0  0  0  0  0  0  0  0  0  0  0
    9.9742  -16.5284   24.4895 O   0  0  0  0  0  0  0  0  0  0  0  0
    6.8500  -18.6827   24.0631 C   0  0  0  0  0  0  0  0  0  0  0  0
    6.6741  -19.5816   25.0885 C   0  0  0  0  0  0  0  0  0  0  0  0
    5.6574  -11.9233   25.6117 C   0  0  0  0  0  0  0  0  0  0  0  0
    6.9752  -12.4542   26.1829 C   0  0  2  0  0  0  0  0  0  0  0  0
    7.5890  -11.4937   27.1201 C   0  0  0  0  0  0  0  0  0  0  0  0
    7.8216  -13.1019   25.1672 C   0  0  0  0  0  0  0  0  0  0  0  0
    9.1184  -13.6990   25.5750 C   0  0  2  0  0  0  0  0  0  0  0  0
    9.7000  -14.2851   24.3485 N   0  0  0  0  0  0  0  0  0  0  0  0
    9.0922  -14.7287   26.5989 C   0  0  0  0  0  0  0  0  0  0  0  0
    9.8820  -14.7213   27.7473 O   0  0  0  0  0  0  0  0  0  0  0  0
    8.3207  -15.7283   26.4945 O   0  0  0  0  0  0  0  0  0  0  0  0
  2  1  1  1
  3  2  1  0
  4 13  1  0
  4  2  1  0
  5  4  2  0
  7  6  1  0
  8  7  2  0
  9  8  1  0
 10 16  1  0
 10  9  2  0
 11 10  1  0
 12 11  1  6
 12 13  1  0
 14 23  1  0
 14 12  1  0
 15 14  2  0
 16 17  2  0
 17  7  1  0
 19 18  1  6
 19 21  1  0
 20 19  1  0
 22 21  1  6
 22 23  1  0
 22 24  1  0
 24 25  1  0
 26 24  2  0
M  END
$$$$
