AYL.pdb
     RDKit          3D

 26 26  0  0  1  0  0  0  0  0999 V2000
    8.1443  -12.7303   19.1305 C   0  0  0  0  0  0  0  0  0  0  0  0
    8.4159  -14.1969   18.8580 C   0  0  2  0  0  0  0  0  0  0  0  0
    7.4623  -14.6425   17.8742 N   0  0  0  0  0  0  0  0  0  0  0  0
    8.2950  -14.9979   20.1104 C   0  0  0  0  0  0  0  0  0  0  0  0
    7.1965  -15.4573   20.5017 O   0  0  0  0  0  0  0  0  0  0  0  0
   11.1203  -20.3784   26.6776 O   0  0  0  0  0  0  0  0  0  0  0  0
   10.9418  -19.5614   25.5529 C   0  0  0  0  0  0  0  0  0  0  0  0
    9.9036  -19.7613   24.6684 C   0  0  0  0  0  0  0  0  0  0  0  0
    9.7211  -18.9590   23.5562 C   0  0  0  0  0  0  0  0  0  0  0  0
   10.5976  -17.9105   23.2981 C   0  0  0  0  0  0  0  0  0  0  0  0
   10.4262  -17.0845   22.0988 C   0  0  0  0  0  0  0  0  0  0  0  0
    9.3837  -16.0459   22.1520 C   0  0  2  0  0  0  0  0  0  0  0  0
    9.4326  -15.2590   20.8928 N   0  0  0  0  0  0  0  0  0  0  0  0
    9.2967  -15.1560   23.2928 C   0  0  0  0  0  0  0  0  0  0  0  0
   10.2059  -14.2442   23.3668 O   0  0  0  0  0  0  0  0  0  0  0  0
   11.6253  -17.7308   24.1945 C   0  0  0  0  0  0  0  0  0  0  0  0
   11.8091  -18.5265   25.3007 C   0  0  0  0  0  0  0  0  0  0  0  0
    5.4945  -11.9886   26.6335 C   0  0  0  0  0  0  0  0  0  0  0  0
    6.9638  -12.4005   26.5059 C   0  0  2  0  0  0  0  0  0  0  0  0
    7.8639  -11.2323   26.5619 C   0  0  0  0  0  0  0  0  0  0  0  0
    7.1853  -13.4243   25.4716 C   0  0  0  0  0  0  0  0  0  0  0  0
    8.4687  -14.1706   25.4505 C   0  0  2  0  0  0  0  0  0  0  0  0
    8.3613  -15.1333   24.3335 N   0  0  0  0  0  0  0  0  0  0  0  0
    8.8384  -14.9066   26.6468 C   0  0  0  0  0  0  0  0  0  0  0  0
   10.1262  -14.9561   27.1776 O   0  0  0  0  0  0  0  0  0  0  0  0
    7.9743  -15.5703   27.2933 O   0  0  0  0  0  0  0  0  0  0  0  0
  2  1  1  1
  3  2  1  0
  4 13  1  0
  4  2  1  0
  5  4  2  0
  7  6  1  0
  8  7  2  0
  9  8  1  0
 10 16  1  0
 10  9  2  0
 11 10  1  0
 12 11  1  1
 12 13  1  0
 14 23  1  0
 14 12  1  0
 15 14  2  0
 16 17  2  0
 17  7  1  0
 19 18  1  6
 19 21  1  0
 20 19  1  0
 22 21  1  1
 22 23  1  0
 22 24  1  0
 24 25  1  0
 26 24  2  0
M  END
$$$$
