AYL.pdb
     RDKit          3D

 26 26  0  0  1  0  0  0  0  0999 V2000
    7.9058  -13.2519   19.9865 C   0  0  0  0  0  0  0  0  0  0  0  0
    7.9685  -14.7650   19.9125 C   0  0  2  0  0  0  0  0  0  0  0  0
    7.0796  -15.1884   18.8607 N   0  0  0  0  0  0  0  0  0  0  0  0
    7.5721  -15.3741   21.2151 C   0  0  0  0  0  0  0  0  0  0  0  0
    6.3711  -15.5172   21.5435 O   0  0  0  0  0  0  0  0  0  0  0  0
    7.8754  -20.3777   28.5030 O   0  0  0  0  0  0  0  0  0  0  0  0
    8.0686  -19.7407   27.2696 C   0  0  0  0  0  0  0  0  0  0  0  0
    9.3210  -19.3586   26.8387 C   0  0  0  0  0  0  0  0  0  0  0  0
    9.5193  -18.7295   25.6227 C   0  0  0  0  0  0  0  0  0  0  0  0
    8.4389  -18.4616   24.7887 C   0  0  0  0  0  0  0  0  0  0  0  0
    8.6449  -17.7605   23.5175 C   0  0  0  0  0  0  0  0  0  0  0  0
    8.2357  -16.3469   23.4657 C   0  0  2  0  0  0  0  0  0  0  0  0
    8.5567  -15.8087   22.1187 N   0  0  0  0  0  0  0  0  0  0  0  0
    8.6758  -15.4209   24.4903 C   0  0  0  0  0  0  0  0  0  0  0  0
    9.8367  -14.8893   24.3083 O   0  0  0  0  0  0  0  0  0  0  0  0
    7.1997  -18.8520   25.2402 C   0  0  0  0  0  0  0  0  0  0  0  0
    6.9996  -19.4775   26.4482 C   0  0  0  0  0  0  0  0  0  0  0  0
    7.6846  -11.4784   25.6192 C   0  0  0  0  0  0  0  0  0  0  0  0
    6.8326  -12.4494   26.4414 C   0  0  2  0  0  0  0  0  0  0  0  0
    5.6513  -11.7813   27.0210 C   0  0  0  0  0  0  0  0  0  0  0  0
    7.6380  -13.3415   27.2916 C   0  0  0  0  0  0  0  0  0  0  0  0
    8.6995  -14.1740   26.6713 C   0  0  2  0  0  0  0  0  0  0  0  0
    8.0212  -15.0082   25.6563 N   0  0  0  0  0  0  0  0  0  0  0  0
    9.4602  -15.0524   27.5425 C   0  0  0  0  0  0  0  0  0  0  0  0
    9.3856  -16.4441   27.5216 O   0  0  0  0  0  0  0  0  0  0  0  0
   10.2608  -14.5789   28.4028 O   0  0  0  0  0  0  0  0  0  0  0  0
  2  1  1  1
  3  2  1  0
  4 13  1  0
  4  2  1  0
  5  4  2  0
  7  6  1  0
  8  7  2  0
  9  8  1  0
 10 16  1  0
 10  9  2  0
 11 10  1  0
 12 11  1  1
 12 13  1  0
 14 23  1  0
 14 12  1  0
 15 14  2  0
 16 17  2  0
 17  7  1  0
 19 18  1  1
 19 21  1  0
 20 19  1  0
 22 21  1  1
 22 23  1  0
 22 24  1  0
 24 25  1  0
 26 24  2  0
M  END
$$$$
