AYL.pdb
     RDKit          3D

 26 26  0  0  1  0  0  0  0  0999 V2000
    6.7877  -15.5491   19.2296 C   0  0  0  0  0  0  0  0  0  0  0  0
    7.9976  -15.3435   20.1199 C   0  0  2  0  0  0  0  0  0  0  0  0
    9.0086  -16.2834   19.7076 N   0  0  0  0  0  0  0  0  0  0  0  0
    7.6394  -15.5492   21.5532 C   0  0  0  0  0  0  0  0  0  0  0  0
    6.6990  -14.9260   22.0990 O   0  0  0  0  0  0  0  0  0  0  0  0
    7.9737  -20.1105   29.3301 O   0  0  0  0  0  0  0  0  0  0  0  0
    8.0430  -19.6340   28.0138 C   0  0  0  0  0  0  0  0  0  0  0  0
    6.9210  -19.5299   27.2199 C   0  0  0  0  0  0  0  0  0  0  0  0
    6.9818  -19.0605   25.9200 C   0  0  0  0  0  0  0  0  0  0  0  0
    8.2001  -18.6744   25.3714 C   0  0  0  0  0  0  0  0  0  0  0  0
    8.2697  -18.2133   23.9813 C   0  0  0  0  0  0  0  0  0  0  0  0
    8.0053  -16.7845   23.7422 C   0  0  2  0  0  0  0  0  0  0  0  0
    8.3635  -16.4640   22.3365 N   0  0  0  0  0  0  0  0  0  0  0  0
    8.5491  -15.7815   24.6362 C   0  0  0  0  0  0  0  0  0  0  0  0
    9.7300  -15.3504   24.3479 O   0  0  0  0  0  0  0  0  0  0  0  0
    9.3052  -18.7872   26.1826 C   0  0  0  0  0  0  0  0  0  0  0  0
    9.2478  -19.2534   27.4749 C   0  0  0  0  0  0  0  0  0  0  0  0
    7.6062  -11.6916   25.0269 C   0  0  0  0  0  0  0  0  0  0  0  0
    6.7802  -12.5023   26.0294 C   0  0  2  0  0  0  0  0  0  0  0  0
    5.6023  -11.7483   26.5006 C   0  0  0  0  0  0  0  0  0  0  0  0
    7.6106  -13.2176   27.0122 C   0  0  0  0  0  0  0  0  0  0  0  0
    8.6719  -14.1391   26.5335 C   0  0  2  0  0  0  0  0  0  0  0  0
    7.9770  -15.2000   25.7734 N   0  0  0  0  0  0  0  0  0  0  0  0
    9.5107  -14.7760   27.5336 C   0  0  0  0  0  0  0  0  0  0  0  0
   10.5729  -14.1531   28.1868 O   0  0  0  0  0  0  0  0  0  0  0  0
    9.3132  -15.9800   27.8751 O   0  0  0  0  0  0  0  0  0  0  0  0
  2  1  1  6
  3  2  1  0
  4 13  1  0
  4  2  1  0
  5  4  2  0
  7  6  1  0
  8  7  2  0
  9  8  1  0
 10 16  1  0
 10  9  2  0
 11 10  1  0
 12 11  1  1
 12 13  1  0
 14 23  1  0
 14 12  1  0
 15 14  2  0
 16 17  2  0
 17  7  1  0
 19 18  1  1
 19 21  1  0
 20 19  1  0
 22 21  1  1
 22 23  1  0
 22 24  1  0
 24 25  1  0
 26 24  2  0
M  END
$$$$
