AYL.pdb
     RDKit          3D

 26 26  0  0  1  0  0  0  0  0999 V2000
   10.2548  -18.8872   19.2839 C   0  0  0  0  0  0  0  0  0  0  0  0
    9.9551  -18.6729   20.7547 C   0  0  2  0  0  0  0  0  0  0  0  0
    8.6259  -19.1684   21.0066 N   0  0  0  0  0  0  0  0  0  0  0  0
   10.0549  -17.2274   21.1087 C   0  0  0  0  0  0  0  0  0  0  0  0
   11.1204  -16.5819   20.9714 O   0  0  0  0  0  0  0  0  0  0  0  0
    7.4277  -13.7705   15.9323 O   0  0  0  0  0  0  0  0  0  0  0  0
    7.5049  -13.9306   17.3225 C   0  0  0  0  0  0  0  0  0  0  0  0
    7.9967  -12.9365   18.1411 C   0  0  0  0  0  0  0  0  0  0  0  0
    8.0759  -13.0875   19.5139 C   0  0  0  0  0  0  0  0  0  0  0  0
    7.6532  -14.2689   20.1138 C   0  0  0  0  0  0  0  0  0  0  0  0
    7.7730  -14.4430   21.5648 C   0  0  0  0  0  0  0  0  0  0  0  0
    8.9817  -15.1279   22.0532 C   0  0  2  0  0  0  0  0  0  0  0  0
    8.9343  -16.5461   21.6133 N   0  0  0  0  0  0  0  0  0  0  0  0
    9.3486  -15.0523   23.4534 C   0  0  0  0  0  0  0  0  0  0  0  0
   10.2236  -14.1554   23.7590 O   0  0  0  0  0  0  0  0  0  0  0  0
    7.1665  -15.2459   19.2768 C   0  0  0  0  0  0  0  0  0  0  0  0
    7.0866  -15.0986   17.9120 C   0  0  0  0  0  0  0  0  0  0  0  0
    5.9463  -12.6914   26.7542 C   0  0  0  0  0  0  0  0  0  0  0  0
    7.2996  -13.3854   26.9318 C   0  0  2  0  0  0  0  0  0  0  0  0
    8.2786  -12.5069   27.6011 C   0  0  0  0  0  0  0  0  0  0  0  0
    7.7168  -14.1435   25.7408 C   0  0  0  0  0  0  0  0  0  0  0  0
    8.7291  -15.2204   25.8824 C   0  0  2  0  0  0  0  0  0  0  0  0
    8.8870  -15.8099   24.5357 N   0  0  0  0  0  0  0  0  0  0  0  0
    8.4408  -16.2958   26.8150 C   0  0  0  0  0  0  0  0  0  0  0  0
    7.7996  -17.4858   26.4750 O   0  0  0  0  0  0  0  0  0  0  0  0
    8.7683  -16.2019   28.0353 O   0  0  0  0  0  0  0  0  0  0  0  0
  2  1  1  6
  3  2  1  0
  4 13  1  0
  4  2  1  0
  5  4  2  0
  7  6  1  0
  8  7  2  0
  9  8  1  0
 10 16  1  0
 10  9  2  0
 11 10  1  0
 12 11  1  1
 12 13  1  0
 14 23  1  0
 14 12  1  0
 15 14  2  0
 16 17  2  0
 17  7  1  0
 19 18  1  6
 19 21  1  0
 20 19  1  0
 22 21  1  6
 22 23  1  0
 22 24  1  0
 24 25  1  0
 26 24  2  0
M  END
$$$$
