FAF.pdb
     RDKit          3D

 28 29  0  0  1  0  0  0  0  0999 V2000
   26.1416  -18.8305   -8.0769 N   0  0  0  0  0  0  0  0  0  0  0  0
   27.1724  -19.5851   -8.7464 C   0  0  1  0  0  0  0  0  0  0  0  0
   27.3833  -20.8729   -7.9465 C   0  0  0  0  0  0  0  0  0  0  0  0
   28.0473  -20.6009   -6.6469 C   0  0  0  0  0  0  0  0  0  0  0  0
   29.4056  -20.3333   -6.5701 C   0  0  0  0  0  0  0  0  0  0  0  0
   29.9647  -20.0886   -5.3348 C   0  0  0  0  0  0  0  0  0  0  0  0
   29.1985  -20.1058   -4.1818 C   0  0  0  0  0  0  0  0  0  0  0  0
   27.8532  -20.3709   -4.2590 C   0  0  0  0  0  0  0  0  0  0  0  0
   27.3028  -20.6151   -5.5044 C   0  0  0  0  0  0  0  0  0  0  0  0
   26.7558  -19.9930  -10.1129 C   0  0  0  0  0  0  0  0  0  0  0  0
   25.5663  -20.3474  -10.2718 O   0  0  0  0  0  0  0  0  0  0  0  0
   28.3742  -19.8715  -13.5407 C   0  0  0  0  0  0  0  0  0  0  0  0
   27.1843  -19.9177  -12.5777 C   0  0  2  0  0  0  0  0  0  0  0  0
   27.6361  -19.9944  -11.2141 N   0  0  0  0  0  0  0  0  0  0  0  0
   26.3593  -21.0689  -12.9756 C   0  0  0  0  0  0  0  0  0  0  0  0
   26.6792  -22.2048  -12.5494 O   0  0  0  0  0  0  0  0  0  0  0  0
   25.2224  -21.0228  -13.8046 N   0  0  0  0  0  0  0  0  0  0  0  0
   24.3172  -22.1005  -14.0042 C   0  0  1  0  0  0  0  0  0  0  0  0
   23.5692  -22.6256  -12.8736 C   0  0  0  0  0  0  0  0  0  0  0  0
   22.6652  -21.6157  -12.2265 C   0  0  0  0  0  0  0  0  0  0  0  0
   22.9636  -20.9828  -11.0403 C   0  0  0  0  0  0  0  0  0  0  0  0
   22.1278  -20.0639  -10.4517 C   0  0  0  0  0  0  0  0  0  0  0  0
   20.9347  -19.7357  -11.0410 C   0  0  0  0  0  0  0  0  0  0  0  0
   20.6276  -20.3640  -12.2286 C   0  0  0  0  0  0  0  0  0  0  0  0
   21.4530  -21.2841  -12.8282 C   0  0  0  0  0  0  0  0  0  0  0  0
   23.3650  -21.7361  -15.0831 C   0  0  0  0  0  0  0  0  0  0  0  0
   23.2991  -20.5598  -15.5486 O   0  0  0  0  0  0  0  0  0  0  0  0
   22.4797  -22.6452  -15.6650 O   0  0  0  0  0  0  0  0  0  0  0  0
  2  1  1  1
  2 10  1  0
  3  2  1  0
  3  4  1  0
  4  9  1  0
  5  4  2  0
  5  6  1  0
  6  7  2  0
  7  8  1  0
  9  8  2  0
 10 14  1  0
 10 11  2  0
 13 12  1  6
 13 15  1  0
 14 13  1  0
 15 16  2  0
 17 18  1  0
 17 15  1  0
 18 19  1  1
 20 19  1  0
 21 20  2  0
 22 21  1  0
 23 24  1  0
 23 22  2  0
 24 25  2  0
 25 20  1  0
 26 18  1  0
 26 28  1  0
 27 26  2  0
M  END
$$$$
