FAF.pdb
     RDKit          3D

 28 29  0  0  1  0  0  0  0  0999 V2000
   19.5476  -16.6627  -17.5686 N   0  0  0  0  0  0  0  0  0  0  0  0
   20.9843  -16.6898  -17.6919 C   0  0  1  0  0  0  0  0  0  0  0  0
   21.5032  -15.3206  -17.2460 C   0  0  0  0  0  0  0  0  0  0  0  0
   21.5685  -14.3691  -18.3837 C   0  0  0  0  0  0  0  0  0  0  0  0
   20.6326  -13.3574  -18.5359 C   0  0  0  0  0  0  0  0  0  0  0  0
   20.7461  -12.5053  -19.6127 C   0  0  0  0  0  0  0  0  0  0  0  0
   21.7696  -12.6429  -20.5347 C   0  0  0  0  0  0  0  0  0  0  0  0
   22.6961  -13.6453  -20.3830 C   0  0  0  0  0  0  0  0  0  0  0  0
   22.5722  -14.4948  -19.2982 C   0  0  0  0  0  0  0  0  0  0  0  0
   21.5953  -17.6956  -16.7851 C   0  0  0  0  0  0  0  0  0  0  0  0
   21.1090  -17.8088  -15.6378 O   0  0  0  0  0  0  0  0  0  0  0  0
   22.9487  -20.9224  -16.8778 C   0  0  0  0  0  0  0  0  0  0  0  0
   23.2326  -19.5283  -16.3111 C   0  0  2  0  0  0  0  0  0  0  0  0
   22.6816  -18.5100  -17.1648 N   0  0  0  0  0  0  0  0  0  0  0  0
   24.6917  -19.4211  -16.1563 C   0  0  0  0  0  0  0  0  0  0  0  0
   25.3668  -19.0337  -17.1404 O   0  0  0  0  0  0  0  0  0  0  0  0
   25.4221  -19.7158  -14.9895 N   0  0  0  0  0  0  0  0  0  0  0  0
   26.8197  -19.5092  -14.8308 C   0  0  1  0  0  0  0  0  0  0  0  0
   27.3325  -19.0324  -13.5568 C   0  0  0  0  0  0  0  0  0  0  0  0
   26.7177  -19.7113  -12.3665 C   0  0  0  0  0  0  0  0  0  0  0  0
   27.2861  -20.7959  -11.7363 C   0  0  0  0  0  0  0  0  0  0  0  0
   26.7137  -21.4153  -10.6508 C   0  0  0  0  0  0  0  0  0  0  0  0
   25.5240  -20.9626  -10.1430 C   0  0  0  0  0  0  0  0  0  0  0  0
   24.9476  -19.8774  -10.7671 C   0  0  0  0  0  0  0  0  0  0  0  0
   25.5080  -19.2486  -11.8525 C   0  0  0  0  0  0  0  0  0  0  0  0
   27.5358  -20.7556  -15.2012 C   0  0  0  0  0  0  0  0  0  0  0  0
   26.9930  -21.8954  -15.0977 O   0  0  0  0  0  0  0  0  0  0  0  0
   28.8442  -20.7735  -15.6876 O   0  0  0  0  0  0  0  0  0  0  0  0
  2  1  1  1
  2 10  1  0
  3  2  1  0
  3  4  1  0
  4  9  1  0
  5  4  2  0
  5  6  1  0
  6  7  2  0
  7  8  1  0
  9  8  2  0
 10 14  1  0
 10 11  2  0
 13 12  1  6
 13 15  1  0
 14 13  1  0
 15 16  2  0
 17 18  1  0
 17 15  1  0
 18 19  1  1
 20 19  1  0
 21 20  2  0
 22 21  1  0
 23 24  1  0
 23 22  2  0
 24 25  2  0
 25 20  1  0
 26 18  1  0
 26 28  1  0
 27 26  2  0
M  END
$$$$
