FAF.pdb
     RDKit          3D

 28 29  0  0  1  0  0  0  0  0999 V2000
   18.4833   -8.5498  -13.8369 N   0  0  0  0  0  0  0  0  0  0  0  0
   18.7177   -8.3932  -12.4225 C   0  0  1  0  0  0  0  0  0  0  0  0
   20.0304   -7.6223  -12.2634 C   0  0  0  0  0  0  0  0  0  0  0  0
   21.1762   -8.3816  -12.8244 C   0  0  0  0  0  0  0  0  0  0  0  0
   21.7996   -7.9884  -13.9988 C   0  0  0  0  0  0  0  0  0  0  0  0
   22.8582   -8.7342  -14.4697 C   0  0  0  0  0  0  0  0  0  0  0  0
   23.3035   -9.8579  -13.7948 C   0  0  0  0  0  0  0  0  0  0  0  0
   22.6853  -10.2465  -12.6316 C   0  0  0  0  0  0  0  0  0  0  0  0
   21.6237   -9.4902  -12.1683 C   0  0  0  0  0  0  0  0  0  0  0  0
   17.6592   -7.5747  -11.7768 C   0  0  0  0  0  0  0  0  0  0  0  0
   17.2491   -6.5684  -12.3972 O   0  0  0  0  0  0  0  0  0  0  0  0
   15.3385   -7.8872   -8.8339 C   0  0  0  0  0  0  0  0  0  0  0  0
   16.1162   -7.0721   -9.8713 C   0  0  2  0  0  0  0  0  0  0  0  0
   17.1122   -7.8861  -10.5153 N   0  0  0  0  0  0  0  0  0  0  0  0
   16.6884   -5.9168   -9.1626 C   0  0  0  0  0  0  0  0  0  0  0  0
   17.6150   -6.1224   -8.3420 O   0  0  0  0  0  0  0  0  0  0  0  0
   16.2919   -4.5747   -9.3163 N   0  0  0  0  0  0  0  0  0  0  0  0
   16.9850   -3.4554   -8.7800 C   0  0  1  0  0  0  0  0  0  0  0  0
   18.0352   -2.8227   -9.5613 C   0  0  0  0  0  0  0  0  0  0  0  0
   17.5431   -2.1833  -10.8281 C   0  0  0  0  0  0  0  0  0  0  0  0
   17.2708   -0.8380  -10.9410 C   0  0  0  0  0  0  0  0  0  0  0  0
   16.8150   -0.2617  -12.1027 C   0  0  0  0  0  0  0  0  0  0  0  0
   16.6099   -1.0269  -13.2211 C   0  0  0  0  0  0  0  0  0  0  0  0
   16.8799   -2.3744  -13.1177 C   0  0  0  0  0  0  0  0  0  0  0  0
   17.3357   -2.9639  -11.9635 C   0  0  0  0  0  0  0  0  0  0  0  0
   15.9961   -2.4236   -8.3790 C   0  0  0  0  0  0  0  0  0  0  0  0
   14.7750   -2.5036   -8.7063 O   0  0  0  0  0  0  0  0  0  0  0  0
   16.3249   -1.2995   -7.6191 O   0  0  0  0  0  0  0  0  0  0  0  0
  2  1  1  6
  2 10  1  0
  3  2  1  0
  3  4  1  0
  4  9  1  0
  5  4  2  0
  5  6  1  0
  6  7  2  0
  7  8  1  0
  9  8  2  0
 10 14  1  0
 10 11  2  0
 13 12  1  1
 13 15  1  0
 14 13  1  0
 15 16  2  0
 17 18  1  0
 17 15  1  0
 18 19  1  6
 20 19  1  0
 21 20  2  0
 22 21  1  0
 23 24  1  0
 23 22  2  0
 24 25  2  0
 25 20  1  0
 26 18  1  0
 26 28  1  0
 27 26  2  0
M  END
$$$$
