FAF.pdb
     RDKit          3D

 28 29  0  0  1  0  0  0  0  0999 V2000
   26.1616  -20.1981  -14.6707 N   0  0  0  0  0  0  0  0  0  0  0  0
   25.6253  -21.0776  -13.6613 C   0  0  1  0  0  0  0  0  0  0  0  0
   26.4942  -22.3376  -13.6501 C   0  0  0  0  0  0  0  0  0  0  0  0
   26.0658  -23.3005  -14.6958 C   0  0  0  0  0  0  0  0  0  0  0  0
   24.9512  -24.1072  -14.5240 C   0  0  0  0  0  0  0  0  0  0  0  0
   24.6036  -24.9815  -15.5306 C   0  0  0  0  0  0  0  0  0  0  0  0
   25.3428  -25.0653  -16.6981 C   0  0  0  0  0  0  0  0  0  0  0  0
   26.4466  -24.2658  -16.8673 C   0  0  0  0  0  0  0  0  0  0  0  0
   26.7860  -23.3919  -15.8501 C   0  0  0  0  0  0  0  0  0  0  0  0
   25.7198  -20.4799  -12.3044 C   0  0  0  0  0  0  0  0  0  0  0  0
   26.7622  -19.8469  -12.0242 O   0  0  0  0  0  0  0  0  0  0  0  0
   23.4385  -20.0506   -9.3194 C   0  0  0  0  0  0  0  0  0  0  0  0
   24.8029  -20.0523  -10.0152 C   0  0  2  0  0  0  0  0  0  0  0  0
   24.6969  -20.5989  -11.3416 N   0  0  0  0  0  0  0  0  0  0  0  0
   25.7198  -20.8125   -9.1517 C   0  0  0  0  0  0  0  0  0  0  0  0
   25.7065  -22.0648   -9.2278 O   0  0  0  0  0  0  0  0  0  0  0  0
   26.6303  -20.2639   -8.2287 N   0  0  0  0  0  0  0  0  0  0  0  0
   27.4957  -21.0204   -7.3922 C   0  0  1  0  0  0  0  0  0  0  0  0
   28.8034  -20.4872   -7.0468 C   0  0  0  0  0  0  0  0  0  0  0  0
   28.8007  -19.6371   -5.8086 C   0  0  0  0  0  0  0  0  0  0  0  0
   29.2863  -20.0674   -4.5938 C   0  0  0  0  0  0  0  0  0  0  0  0
   29.2747  -19.2849   -3.4637 C   0  0  0  0  0  0  0  0  0  0  0  0
   28.7655  -18.0132   -3.5072 C   0  0  0  0  0  0  0  0  0  0  0  0
   28.2774  -17.5738   -4.7189 C   0  0  0  0  0  0  0  0  0  0  0  0
   28.2824  -18.3446   -5.8561 C   0  0  0  0  0  0  0  0  0  0  0  0
   26.7738  -21.3700   -6.1431 C   0  0  0  0  0  0  0  0  0  0  0  0
   27.2708  -22.1519   -5.2793 O   0  0  0  0  0  0  0  0  0  0  0  0
   25.5094  -20.8727   -5.8224 O   0  0  0  0  0  0  0  0  0  0  0  0
  2  1  1  6
  2 10  1  0
  3  2  1  0
  3  4  1  0
  4  9  1  0
  5  4  2  0
  5  6  1  0
  6  7  2  0
  7  8  1  0
  9  8  2  0
 10 14  1  0
 10 11  2  0
 13 12  1  1
 13 15  1  0
 14 13  1  0
 15 16  2  0
 17 18  1  0
 17 15  1  0
 18 19  1  1
 20 19  1  0
 21 20  2  0
 22 21  1  0
 23 24  1  0
 23 22  2  0
 24 25  2  0
 25 20  1  0
 26 18  1  0
 26 28  1  0
 27 26  2  0
M  END
$$$$
