FAF.pdb
     RDKit          3D

 28 29  0  0  1  0  0  0  0  0999 V2000
   26.6345  -19.7624  -19.2164 N   0  0  0  0  0  0  0  0  0  0  0  0
   25.4281  -19.8023  -18.4269 C   0  0  1  0  0  0  0  0  0  0  0  0
   24.8127  -21.1918  -18.6097 C   0  0  0  0  0  0  0  0  0  0  0  0
   24.2601  -21.3641  -19.9767 C   0  0  0  0  0  0  0  0  0  0  0  0
   23.2650  -20.5314  -20.4655 C   0  0  0  0  0  0  0  0  0  0  0  0
   22.7922  -20.7414  -21.7425 C   0  0  0  0  0  0  0  0  0  0  0  0
   23.2908  -21.7603  -22.5361 C   0  0  0  0  0  0  0  0  0  0  0  0
   24.2765  -22.5846  -22.0510 C   0  0  0  0  0  0  0  0  0  0  0  0
   24.7434  -22.3644  -20.7676 C   0  0  0  0  0  0  0  0  0  0  0  0
   25.7140  -19.6476  -16.9773 C   0  0  0  0  0  0  0  0  0  0  0  0
   26.8277  -20.0405  -16.5637 O   0  0  0  0  0  0  0  0  0  0  0  0
   24.2107  -17.7215  -14.1274 C   0  0  0  0  0  0  0  0  0  0  0  0
   25.1116  -18.8237  -14.6919 C   0  0  2  0  0  0  0  0  0  0  0  0
   24.7930  -19.0851  -16.0702 N   0  0  0  0  0  0  0  0  0  0  0  0
   24.9356  -20.0013  -13.8279 C   0  0  0  0  0  0  0  0  0  0  0  0
   24.0472  -20.8336  -14.1316 O   0  0  0  0  0  0  0  0  0  0  0  0
   25.6800  -20.2942  -12.6695 N   0  0  0  0  0  0  0  0  0  0  0  0
   25.4990  -21.4458  -11.8559 C   0  0  1  0  0  0  0  0  0  0  0  0
   26.6012  -21.9242  -11.0376 C   0  0  0  0  0  0  0  0  0  0  0  0
   26.7740  -21.1643   -9.7536 C   0  0  0  0  0  0  0  0  0  0  0  0
   26.6596  -21.7439   -8.5096 C   0  0  0  0  0  0  0  0  0  0  0  0
   26.8134  -21.0397   -7.3391 C   0  0  0  0  0  0  0  0  0  0  0  0
   27.0940  -19.6986   -7.3696 C   0  0  0  0  0  0  0  0  0  0  0  0
   27.2106  -19.1099   -8.6102 C   0  0  0  0  0  0  0  0  0  0  0  0
   27.0595  -19.8009   -9.7880 C   0  0  0  0  0  0  0  0  0  0  0  0
   24.3106  -21.2418  -10.9901 C   0  0  0  0  0  0  0  0  0  0  0  0
   23.7856  -20.0998  -10.8322 O   0  0  0  0  0  0  0  0  0  0  0  0
   23.6834  -22.2749  -10.2915 O   0  0  0  0  0  0  0  0  0  0  0  0
  2  1  1  6
  2 10  1  0
  3  2  1  0
  3  4  1  0
  4  9  1  0
  5  4  2  0
  5  6  1  0
  6  7  2  0
  7  8  1  0
  9  8  2  0
 10 14  1  0
 10 11  2  0
 13 12  1  1
 13 15  1  0
 14 13  1  0
 15 16  2  0
 17 18  1  0
 17 15  1  0
 18 19  1  1
 20 19  1  0
 21 20  2  0
 22 21  1  0
 23 24  1  0
 23 22  2  0
 24 25  2  0
 25 20  1  0
 26 18  1  0
 26 28  1  0
 27 26  2  0
M  END
$$$$
