FAF.pdb
     RDKit          3D

 28 29  0  0  1  0  0  0  0  0999 V2000
   23.1933  -20.0215  -17.5016 N   0  0  0  0  0  0  0  0  0  0  0  0
   24.1446  -19.1748  -16.8247 C   0  0  1  0  0  0  0  0  0  0  0  0
   23.3455  -18.1907  -15.9670 C   0  0  0  0  0  0  0  0  0  0  0  0
   22.5393  -17.2700  -16.8075 C   0  0  0  0  0  0  0  0  0  0  0  0
   21.1532  -17.3048  -16.7947 C   0  0  0  0  0  0  0  0  0  0  0  0
   20.4601  -16.4249  -17.5970 C   0  0  0  0  0  0  0  0  0  0  0  0
   21.1201  -15.5166  -18.4069 C   0  0  0  0  0  0  0  0  0  0  0  0
   22.4930  -15.4829  -18.4189 C   0  0  0  0  0  0  0  0  0  0  0  0
   23.1783  -16.3710  -17.6093 C   0  0  0  0  0  0  0  0  0  0  0  0
   25.0076  -19.9496  -15.8963 C   0  0  0  0  0  0  0  0  0  0  0  0
   24.4394  -20.6916  -15.0642 O   0  0  0  0  0  0  0  0  0  0  0  0
   28.7234  -20.4734  -15.3778 C   0  0  0  0  0  0  0  0  0  0  0  0
   27.2497  -20.5690  -14.9723 C   0  0  2  0  0  0  0  0  0  0  0  0
   26.4154  -19.8793  -15.9197 N   0  0  0  0  0  0  0  0  0  0  0  0
   27.1468  -20.0218  -13.6105 C   0  0  0  0  0  0  0  0  0  0  0  0
   27.2620  -18.7818  -13.4581 O   0  0  0  0  0  0  0  0  0  0  0  0
   26.9272  -20.7662  -12.4360 N   0  0  0  0  0  0  0  0  0  0  0  0
   26.9334  -20.2292  -11.1197 C   0  0  1  0  0  0  0  0  0  0  0  0
   25.8816  -19.3100  -10.7169 C   0  0  0  0  0  0  0  0  0  0  0  0
   24.4968  -19.8684  -10.8800 C   0  0  0  0  0  0  0  0  0  0  0  0
   23.9051  -20.0794  -12.1055 C   0  0  0  0  0  0  0  0  0  0  0  0
   22.6348  -20.5853  -12.2459 C   0  0  0  0  0  0  0  0  0  0  0  0
   21.8915  -20.9069  -11.1403 C   0  0  0  0  0  0  0  0  0  0  0  0
   22.4755  -20.6994   -9.9093 C   0  0  0  0  0  0  0  0  0  0  0  0
   23.7437  -20.1945   -9.7540 C   0  0  0  0  0  0  0  0  0  0  0  0
   26.9952  -21.3464  -10.1441 C   0  0  0  0  0  0  0  0  0  0  0  0
   27.0500  -21.1421   -8.8952 O   0  0  0  0  0  0  0  0  0  0  0  0
   26.9963  -22.6917  -10.5168 O   0  0  0  0  0  0  0  0  0  0  0  0
  2  1  1  1
  2 10  1  0
  3  2  1  0
  3  4  1  0
  4  9  1  0
  5  4  2  0
  5  6  1  0
  6  7  2  0
  7  8  1  0
  9  8  2  0
 10 14  1  0
 10 11  2  0
 13 12  1  6
 13 15  1  0
 14 13  1  0
 15 16  2  0
 17 18  1  0
 17 15  1  0
 18 19  1  1
 20 19  1  0
 21 20  2  0
 22 21  1  0
 23 24  1  0
 23 22  2  0
 24 25  2  0
 25 20  1  0
 26 18  1  0
 26 28  1  0
 27 26  2  0
M  END
$$$$
