FAF.pdb
     RDKit          3D

 28 29  0  0  1  0  0  0  0  0999 V2000
   25.6605  -18.3897  -15.6724 N   0  0  0  0  0  0  0  0  0  0  0  0
   26.4784  -18.6926  -14.5238 C   0  0  1  0  0  0  0  0  0  0  0  0
   27.3488  -17.4635  -14.2505 C   0  0  0  0  0  0  0  0  0  0  0  0
   28.4126  -17.3142  -15.2752 C   0  0  0  0  0  0  0  0  0  0  0  0
   29.4331  -18.2446  -15.4000 C   0  0  0  0  0  0  0  0  0  0  0  0
   30.3919  -18.0513  -16.3704 C   0  0  0  0  0  0  0  0  0  0  0  0
   30.3518  -16.9538  -17.2133 C   0  0  0  0  0  0  0  0  0  0  0  0
   29.3406  -16.0328  -17.0889 C   0  0  0  0  0  0  0  0  0  0  0  0
   28.3835  -16.2372  -16.1112 C   0  0  0  0  0  0  0  0  0  0  0  0
   25.6564  -18.9147  -13.3064 C   0  0  0  0  0  0  0  0  0  0  0  0
   24.8577  -18.0097  -12.9764 O   0  0  0  0  0  0  0  0  0  0  0  0
   23.9540  -21.5359  -11.7083 C   0  0  0  0  0  0  0  0  0  0  0  0
   24.8747  -20.3490  -11.4100 C   0  0  2  0  0  0  0  0  0  0  0  0
   25.7432  -20.0857  -12.5262 N   0  0  0  0  0  0  0  0  0  0  0  0
   25.6069  -20.6779  -10.1771 C   0  0  0  0  0  0  0  0  0  0  0  0
   26.5783  -21.4681  -10.2557 O   0  0  0  0  0  0  0  0  0  0  0  0
   25.3206  -20.1842   -8.8901 N   0  0  0  0  0  0  0  0  0  0  0  0
   25.7738  -20.7679   -7.6757 C   0  0  1  0  0  0  0  0  0  0  0  0
   25.9149  -19.9368   -6.4913 C   0  0  0  0  0  0  0  0  0  0  0  0
   27.3335  -19.7952   -6.0188 C   0  0  0  0  0  0  0  0  0  0  0  0
   28.0053  -20.7829   -5.3331 C   0  0  0  0  0  0  0  0  0  0  0  0
   29.3019  -20.6429   -4.8989 C   0  0  0  0  0  0  0  0  0  0  0  0
   29.9915  -19.4832   -5.1399 C   0  0  0  0  0  0  0  0  0  0  0  0
   29.3274  -18.4892   -5.8256 C   0  0  0  0  0  0  0  0  0  0  0  0
   28.0320  -18.6150   -6.2654 C   0  0  0  0  0  0  0  0  0  0  0  0
   24.9096  -21.9295   -7.3478 C   0  0  0  0  0  0  0  0  0  0  0  0
   23.6968  -21.9846   -7.7092 O   0  0  0  0  0  0  0  0  0  0  0  0
   25.3557  -23.0390   -6.6275 O   0  0  0  0  0  0  0  0  0  0  0  0
  2  1  1  6
  2 10  1  0
  3  2  1  0
  3  4  1  0
  4  9  1  0
  5  4  2  0
  5  6  1  0
  6  7  2  0
  7  8  1  0
  9  8  2  0
 10 14  1  0
 10 11  2  0
 13 12  1  6
 13 15  1  0
 14 13  1  0
 15 16  2  0
 17 18  1  0
 17 15  1  0
 18 19  1  1
 20 19  1  0
 21 20  2  0
 22 21  1  0
 23 24  1  0
 23 22  2  0
 24 25  2  0
 25 20  1  0
 26 18  1  0
 26 28  1  0
 27 26  2  0
M  END
$$$$
