FAF.pdb
     RDKit          3D

 28 29  0  0  1  0  0  0  0  0999 V2000
   25.0500  -17.9500  -15.3035 N   0  0  0  0  0  0  0  0  0  0  0  0
   26.1229  -18.5202  -14.5265 C   0  0  1  0  0  0  0  0  0  0  0  0
   27.0476  -17.3707  -14.1187 C   0  0  0  0  0  0  0  0  0  0  0  0
   27.8220  -16.8608  -15.2782 C   0  0  0  0  0  0  0  0  0  0  0  0
   27.5879  -15.6008  -15.8073 C   0  0  0  0  0  0  0  0  0  0  0  0
   28.3392  -15.1835  -16.8842 C   0  0  0  0  0  0  0  0  0  0  0  0
   29.3137  -15.9949  -17.4396 C   0  0  0  0  0  0  0  0  0  0  0  0
   29.5448  -17.2428  -16.9148 C   0  0  0  0  0  0  0  0  0  0  0  0
   28.7845  -17.6512  -15.8337 C   0  0  0  0  0  0  0  0  0  0  0  0
   25.6248  -19.1359  -13.2695 C   0  0  0  0  0  0  0  0  0  0  0  0
   24.7389  -18.5192  -12.6366 O   0  0  0  0  0  0  0  0  0  0  0  0
   25.5523  -22.4754  -11.6730 C   0  0  0  0  0  0  0  0  0  0  0  0
   25.6400  -20.9517  -11.5469 C   0  0  2  0  0  0  0  0  0  0  0  0
   26.1058  -20.3655  -12.7752 N   0  0  0  0  0  0  0  0  0  0  0  0
   26.5226  -20.6694  -10.4043 C   0  0  0  0  0  0  0  0  0  0  0  0
   27.7551  -20.8579  -10.5446 O   0  0  0  0  0  0  0  0  0  0  0  0
   26.1141  -20.1989   -9.1419 N   0  0  0  0  0  0  0  0  0  0  0  0
   26.9083  -20.2375   -7.9635 C   0  0  1  0  0  0  0  0  0  0  0  0
   27.0459  -19.0381   -7.1536 C   0  0  0  0  0  0  0  0  0  0  0  0
   27.8957  -19.2300   -5.9302 C   0  0  0  0  0  0  0  0  0  0  0  0
   29.2629  -19.0647   -5.9246 C   0  0  0  0  0  0  0  0  0  0  0  0
   30.0342  -19.2482   -4.8016 C   0  0  0  0  0  0  0  0  0  0  0  0
   29.4536  -19.6121   -3.6147 C   0  0  0  0  0  0  0  0  0  0  0  0
   28.0857  -19.7797   -3.6106 C   0  0  0  0  0  0  0  0  0  0  0  0
   27.3024  -19.5999   -4.7249 C   0  0  0  0  0  0  0  0  0  0  0  0
   26.4354  -21.3488   -7.1003 C   0  0  0  0  0  0  0  0  0  0  0  0
   27.2394  -22.0764   -6.4455 O   0  0  0  0  0  0  0  0  0  0  0  0
   25.0879  -21.6769   -6.9408 O   0  0  0  0  0  0  0  0  0  0  0  0
  2  1  1  6
  2 10  1  0
  3  2  1  0
  3  4  1  0
  4  9  1  0
  5  4  2  0
  5  6  1  0
  6  7  2  0
  7  8  1  0
  9  8  2  0
 10 14  1  0
 10 11  2  0
 13 12  1  6
 13 15  1  0
 14 13  1  0
 15 16  2  0
 17 18  1  0
 17 15  1  0
 18 19  1  1
 20 19  1  0
 21 20  2  0
 22 21  1  0
 23 24  1  0
 23 22  2  0
 24 25  2  0
 25 20  1  0
 26 18  1  0
 26 28  1  0
 27 26  2  0
M  END
$$$$
