HSF.pdb
     RDKit          3D

 28 29  0  0  1  0  0  0  0  0999 V2000
    9.0049  -16.1175   19.7094 N   0  0  0  0  0  0  0  0  0  0  0  0
    8.4628  -15.0951   20.5459 C   0  0  1  0  0  0  0  0  0  0  0  0
    7.2698  -14.4752   19.8583 C   0  0  0  0  0  0  0  0  0  0  0  0
    7.6261  -14.0755   18.4750 C   0  0  0  0  0  0  0  0  0  0  0  0
    8.2776  -12.9414   18.0412 C   0  0  0  0  0  0  0  0  0  0  0  0
    8.3789  -13.0095   16.7028 N   0  0  0  0  0  0  0  0  0  0  0  0
    7.8069  -14.1537   16.3119 C   0  0  0  0  0  0  0  0  0  0  0  0
    7.3529  -14.7961   17.3829 N   0  0  0  0  0  0  0  0  0  0  0  0
    8.0619  -15.6103   21.8881 C   0  0  0  0  0  0  0  0  0  0  0  0
    6.9890  -15.2805   22.4196 O   0  0  0  0  0  0  0  0  0  0  0  0
   10.1157  -18.8789   23.5201 O   0  0  0  0  0  0  0  0  0  0  0  0
    8.7875  -18.5949   23.8777 C   0  0  0  0  0  0  0  0  0  0  0  0
    8.6249  -17.1087   23.8425 C   0  0  2  0  0  0  0  0  0  0  0  0
    8.9054  -16.4973   22.5946 N   0  0  0  0  0  0  0  0  0  0  0  0
    9.3805  -16.4214   24.9167 C   0  0  0  0  0  0  0  0  0  0  0  0
   10.4912  -15.9295   24.6583 O   0  0  0  0  0  0  0  0  0  0  0  0
    8.8622  -16.3138   26.2330 N   0  0  0  0  0  0  0  0  0  0  0  0
    9.5684  -15.5839   27.2723 C   0  0  1  0  0  0  0  0  0  0  0  0
    8.6001  -14.7397   28.0527 C   0  0  0  0  0  0  0  0  0  0  0  0
    7.9434  -13.6838   27.2825 C   0  0  0  0  0  0  0  0  0  0  0  0
    8.6232  -12.5384   26.9432 C   0  0  0  0  0  0  0  0  0  0  0  0
    7.9995  -11.5533   26.2152 C   0  0  0  0  0  0  0  0  0  0  0  0
    6.6688  -11.7279   25.8240 C   0  0  0  0  0  0  0  0  0  0  0  0
    5.9929  -12.8917   26.1740 C   0  0  0  0  0  0  0  0  0  0  0  0
    6.6161  -13.8795   26.9031 C   0  0  0  0  0  0  0  0  0  0  0  0
   10.3265  -16.5364   28.1065 C   0  0  0  0  0  0  0  0  0  0  0  0
   10.1103  -17.7891   28.0051 O   0  0  0  0  0  0  0  0  0  0  0  0
   11.2876  -16.1513   29.0207 O   0  0  0  0  0  0  0  0  0  0  0  0
  2  9  1  0
  2  1  1  6
  3  2  1  0
  4  3  1  0
  5  4  2  0
  6  7  1  0
  6  5  1  0
  7  8  2  0
  8  4  1  0
  9 10  2  0
 12 11  1  0
 13 12  1  6
 14 13  1  0
 14  9  1  0
 15 13  1  0
 16 15  2  0
 17 15  1  0
 18 17  1  0
 18 19  1  1
 20 19  1  0
 21 20  2  0
 22 21  1  0
 23 24  1  0
 23 22  2  0
 24 25  2  0
 25 20  1  0
 26 18  1  0
 26 28  1  0
 27 26  2  0
M  END
$$$$
