HSF.pdb
     RDKit          3D

 28 29  0  0  1  0  0  0  0  0999 V2000
    9.4697  -15.7741   20.0409 N   0  0  0  0  0  0  0  0  0  0  0  0
    8.7312  -14.8485   20.8390 C   0  0  1  0  0  0  0  0  0  0  0  0
    7.4485  -14.4944   20.1252 C   0  0  0  0  0  0  0  0  0  0  0  0
    7.7294  -14.1377   18.7131 C   0  0  0  0  0  0  0  0  0  0  0  0
    8.0675  -12.9131   18.1794 C   0  0  0  0  0  0  0  0  0  0  0  0
    8.2265  -13.0697   16.8541 N   0  0  0  0  0  0  0  0  0  0  0  0
    7.9943  -14.3557   16.5683 C   0  0  0  0  0  0  0  0  0  0  0  0
    7.6943  -14.9990   17.6916 N   0  0  0  0  0  0  0  0  0  0  0  0
    8.4229  -15.3865   22.1966 C   0  0  0  0  0  0  0  0  0  0  0  0
    7.5157  -14.9085   22.8971 O   0  0  0  0  0  0  0  0  0  0  0  0
   10.6270  -18.7023   23.6583 O   0  0  0  0  0  0  0  0  0  0  0  0
    9.2816  -18.5491   24.0315 C   0  0  0  0  0  0  0  0  0  0  0  0
    8.9696  -17.0873   23.9827 C   0  0  2  0  0  0  0  0  0  0  0  0
    9.1663  -16.4670   22.7233 N   0  0  0  0  0  0  0  0  0  0  0  0
    9.6699  -16.3138   25.0356 C   0  0  0  0  0  0  0  0  0  0  0  0
   10.7599  -15.7798   24.7728 O   0  0  0  0  0  0  0  0  0  0  0  0
    9.1218  -16.1708   26.3363 N   0  0  0  0  0  0  0  0  0  0  0  0
    9.7946  -15.3962   27.3654 C   0  0  1  0  0  0  0  0  0  0  0  0
    8.7889  -14.5903   28.1388 C   0  0  0  0  0  0  0  0  0  0  0  0
    8.0218  -13.6333   27.3417 C   0  0  0  0  0  0  0  0  0  0  0  0
    6.7116  -13.8871   27.0128 C   0  0  0  0  0  0  0  0  0  0  0  0
    5.9969  -12.9801   26.2672 C   0  0  0  0  0  0  0  0  0  0  0  0
    6.6151  -11.7986   25.8474 C   0  0  0  0  0  0  0  0  0  0  0  0
    7.9413  -11.5545   26.1873 C   0  0  0  0  0  0  0  0  0  0  0  0
    8.6587  -12.4619   26.9341 C   0  0  0  0  0  0  0  0  0  0  0  0
   10.5992  -16.3017   28.2082 C   0  0  0  0  0  0  0  0  0  0  0  0
   10.4278  -17.5634   28.1371 O   0  0  0  0  0  0  0  0  0  0  0  0
   11.5586  -15.8618   29.0991 O   0  0  0  0  0  0  0  0  0  0  0  0
  2  9  1  0
  2  1  1  6
  3  2  1  0
  4  3  1  0
  5  4  2  0
  6  7  1  0
  6  5  1  0
  7  8  2  0
  8  4  1  0
  9 10  2  0
 12 11  1  0
 13 12  1  6
 14 13  1  0
 14  9  1  0
 15 13  1  0
 16 15  2  0
 17 15  1  0
 18 17  1  0
 18 19  1  1
 20 19  1  0
 21 20  2  0
 22 21  1  0
 23 24  1  0
 23 22  2  0
 24 25  2  0
 25 20  1  0
 26 18  1  0
 26 28  1  0
 27 26  2  0
M  END
$$$$
