HSF.pdb
     RDKit          3D

 28 29  0  0  1  0  0  0  0  0999 V2000
    9.0738  -16.9977   19.1617 N   0  0  0  0  0  0  0  0  0  0  0  0
    9.9307  -16.5683   20.2202 C   0  0  1  0  0  0  0  0  0  0  0  0
   10.4032  -15.1630   19.9340 C   0  0  0  0  0  0  0  0  0  0  0  0
    9.2570  -14.3066   19.5430 C   0  0  0  0  0  0  0  0  0  0  0  0
    8.7746  -14.0264   18.2830 C   0  0  0  0  0  0  0  0  0  0  0  0
    7.7211  -13.2030   18.4175 N   0  0  0  0  0  0  0  0  0  0  0  0
    7.5503  -12.9753   19.7245 C   0  0  0  0  0  0  0  0  0  0  0  0
    8.4783  -13.6422   20.4026 N   0  0  0  0  0  0  0  0  0  0  0  0
    9.2580  -16.6147   21.5518 C   0  0  0  0  0  0  0  0  0  0  0  0
    8.0826  -16.2431   21.7021 O   0  0  0  0  0  0  0  0  0  0  0  0
   10.9026  -19.1439   24.3440 O   0  0  0  0  0  0  0  0  0  0  0  0
    9.5312  -18.8410   24.3646 C   0  0  0  0  0  0  0  0  0  0  0  0
    9.3843  -17.4131   23.9452 C   0  0  2  0  0  0  0  0  0  0  0  0
    9.9526  -17.0888   22.6876 N   0  0  0  0  0  0  0  0  0  0  0  0
    9.8660  -16.4590   24.9723 C   0  0  0  0  0  0  0  0  0  0  0  0
   10.9644  -15.9011   24.8149 O   0  0  0  0  0  0  0  0  0  0  0  0
    9.0995  -16.1698   26.1306 N   0  0  0  0  0  0  0  0  0  0  0  0
    9.6557  -15.4202   27.2443 C   0  0  1  0  0  0  0  0  0  0  0  0
    8.5638  -14.6648   27.9487 C   0  0  0  0  0  0  0  0  0  0  0  0
    7.9452  -13.5986   27.1611 C   0  0  0  0  0  0  0  0  0  0  0  0
    8.6226  -12.4289   26.9119 C   0  0  0  0  0  0  0  0  0  0  0  0
    8.0353  -11.4342   26.1670 C   0  0  0  0  0  0  0  0  0  0  0  0
    6.7440  -11.6239   25.6661 C   0  0  0  0  0  0  0  0  0  0  0  0
    6.0700  -12.8122   25.9258 C   0  0  0  0  0  0  0  0  0  0  0  0
    6.6568  -13.8097   26.6717 C   0  0  0  0  0  0  0  0  0  0  0  0
   10.4008  -16.3396   28.1261 C   0  0  0  0  0  0  0  0  0  0  0  0
   11.0570  -15.8825   29.1194 O   0  0  0  0  0  0  0  0  0  0  0  0
   10.4371  -17.7082   27.9436 O   0  0  0  0  0  0  0  0  0  0  0  0
  2  9  1  0
  2  1  1  6
  3  2  1  0
  4  3  1  0
  5  4  2  0
  6  7  1  0
  6  5  1  0
  7  8  2  0
  8  4  1  0
  9 10  2  0
 12 11  1  0
 13 12  1  1
 14 13  1  0
 14  9  1  0
 15 13  1  0
 16 15  2  0
 17 15  1  0
 18 17  1  0
 18 19  1  1
 20 19  1  0
 21 20  2  0
 22 21  1  0
 23 24  1  0
 23 22  2  0
 24 25  2  0
 25 20  1  0
 26 18  1  0
 26 28  1  0
 27 26  2  0
M  END
$$$$
