HSF.pdb
     RDKit          3D

 28 29  0  0  1  0  0  0  0  0999 V2000
    9.9655  -20.2363   18.0888 N   0  0  0  0  0  0  0  0  0  0  0  0
   10.4643  -19.1830   18.9139 C   0  0  1  0  0  0  0  0  0  0  0  0
   10.1393  -17.8559   18.2712 C   0  0  0  0  0  0  0  0  0  0  0  0
   10.8883  -17.7050   16.9998 C   0  0  0  0  0  0  0  0  0  0  0  0
   10.4012  -17.5415   15.7212 C   0  0  0  0  0  0  0  0  0  0  0  0
   11.4514  -17.4479   14.8878 N   0  0  0  0  0  0  0  0  0  0  0  0
   12.5628  -17.5502   15.6251 C   0  0  0  0  0  0  0  0  0  0  0  0
   12.2212  -17.7054   16.8998 N   0  0  0  0  0  0  0  0  0  0  0  0
    9.9020  -19.2272   20.2957 C   0  0  0  0  0  0  0  0  0  0  0  0
    8.6906  -19.0604   20.5126 O   0  0  0  0  0  0  0  0  0  0  0  0
   12.2212  -20.8607   23.3744 O   0  0  0  0  0  0  0  0  0  0  0  0
   10.8174  -20.8741   23.4202 C   0  0  0  0  0  0  0  0  0  0  0  0
   10.3381  -19.6250   22.7520 C   0  0  2  0  0  0  0  0  0  0  0  0
   10.7465  -19.4632   21.4042 N   0  0  0  0  0  0  0  0  0  0  0  0
   10.6606  -18.4002   23.5223 C   0  0  0  0  0  0  0  0  0  0  0  0
   11.5773  -17.6601   23.1298 O   0  0  0  0  0  0  0  0  0  0  0  0
    9.9445  -18.0558   24.6977 N   0  0  0  0  0  0  0  0  0  0  0  0
   10.3333  -16.9241   25.5222 C   0  0  1  0  0  0  0  0  0  0  0  0
    9.1685  -16.4780   26.3609 C   0  0  0  0  0  0  0  0  0  0  0  0
    9.4514  -15.3644   27.2660 C   0  0  0  0  0  0  0  0  0  0  0  0
   10.0733  -15.5828   28.4721 C   0  0  0  0  0  0  0  0  0  0  0  0
   10.3394  -14.5297   29.3144 C   0  0  0  0  0  0  0  0  0  0  0  0
    9.9718  -13.2361   28.9325 C   0  0  0  0  0  0  0  0  0  0  0  0
    9.3433  -13.0293   27.7094 C   0  0  0  0  0  0  0  0  0  0  0  0
    9.0760  -14.0830   26.8644 C   0  0  0  0  0  0  0  0  0  0  0  0
   11.5259  -17.2850   26.3129 C   0  0  0  0  0  0  0  0  0  0  0  0
   11.5929  -18.4213   26.8880 O   0  0  0  0  0  0  0  0  0  0  0  0
   12.6123  -16.4483   26.4783 O   0  0  0  0  0  0  0  0  0  0  0  0
  2  9  1  0
  2  1  1  6
  3  2  1  0
  4  3  1  0
  5  4  2  0
  6  7  1  0
  6  5  1  0
  7  8  2  0
  8  4  1  0
  9 10  2  0
 12 11  1  0
 13 12  1  1
 14 13  1  0
 14  9  1  0
 15 13  1  0
 16 15  2  0
 17 15  1  0
 18 17  1  0
 18 19  1  1
 20 19  1  0
 21 20  2  0
 22 21  1  0
 23 24  1  0
 23 22  2  0
 24 25  2  0
 25 20  1  0
 26 18  1  0
 26 28  1  0
 27 26  2  0
M  END
$$$$
