HSF.pdb
     RDKit          3D

 28 29  0  0  1  0  0  0  0  0999 V2000
    5.1699  -19.9457   20.6107 N   0  0  0  0  0  0  0  0  0  0  0  0
    5.5053  -18.6570   21.1260 C   0  0  1  0  0  0  0  0  0  0  0  0
    4.5832  -18.3295   22.2760 C   0  0  0  0  0  0  0  0  0  0  0  0
    3.1778  -18.6277   21.9069 C   0  0  0  0  0  0  0  0  0  0  0  0
    2.6857  -19.1816   20.7451 C   0  0  0  0  0  0  0  0  0  0  0  0
    1.3492  -19.2626   20.8598 N   0  0  0  0  0  0  0  0  0  0  0  0
    1.0159  -18.7731   22.0593 C   0  0  0  0  0  0  0  0  0  0  0  0
    2.1210  -18.3902   22.6901 N   0  0  0  0  0  0  0  0  0  0  0  0
    6.9256  -18.5762   21.5775 C   0  0  0  0  0  0  0  0  0  0  0  0
    7.4732  -19.5146   22.1791 O   0  0  0  0  0  0  0  0  0  0  0  0
    9.5804  -16.0517   19.6577 O   0  0  0  0  0  0  0  0  0  0  0  0
    9.9597  -17.1806   20.4025 C   0  0  0  0  0  0  0  0  0  0  0  0
    9.0702  -17.2414   21.6031 C   0  0  2  0  0  0  0  0  0  0  0  0
    7.6904  -17.4143   21.3275 N   0  0  0  0  0  0  0  0  0  0  0  0
    9.2567  -16.0889   22.5165 C   0  0  0  0  0  0  0  0  0  0  0  0
    9.2799  -14.9395   22.0466 O   0  0  0  0  0  0  0  0  0  0  0  0
    9.4091  -16.2708   23.9153 N   0  0  0  0  0  0  0  0  0  0  0  0
    9.1682  -15.1887   24.8547 C   0  0  1  0  0  0  0  0  0  0  0  0
    7.8413  -14.5450   24.5643 C   0  0  0  0  0  0  0  0  0  0  0  0
    7.4251  -13.5284   25.5301 C   0  0  0  0  0  0  0  0  0  0  0  0
    6.4068  -13.7813   26.4180 C   0  0  0  0  0  0  0  0  0  0  0  0
    6.0253  -12.8217   27.3253 C   0  0  0  0  0  0  0  0  0  0  0  0
    6.6824  -11.5879   27.3357 C   0  0  0  0  0  0  0  0  0  0  0  0
    7.7110  -11.3454   26.4319 C   0  0  0  0  0  0  0  0  0  0  0  0
    8.0945  -12.3054   25.5225 C   0  0  0  0  0  0  0  0  0  0  0  0
    9.2847  -15.7052   26.2322 C   0  0  0  0  0  0  0  0  0  0  0  0
   10.1037  -15.1691   27.0497 O   0  0  0  0  0  0  0  0  0  0  0  0
    8.5420  -16.7653   26.7139 O   0  0  0  0  0  0  0  0  0  0  0  0
  2  9  1  0
  2  1  1  1
  3  2  1  0
  4  3  1  0
  5  4  2  0
  6  7  1  0
  6  5  1  0
  7  8  2  0
  8  4  1  0
  9 10  2  0
 12 11  1  0
 13 12  1  6
 14 13  1  0
 14  9  1  0
 15 13  1  0
 16 15  2  0
 17 15  1  0
 18 17  1  0
 18 19  1  1
 20 19  1  0
 21 20  2  0
 22 21  1  0
 23 24  1  0
 23 22  2  0
 24 25  2  0
 25 20  1  0
 26 18  1  0
 26 28  1  0
 27 26  2  0
M  END
$$$$
