WWK.pdb
     RDKit          3D

 38 41  0  0  1  0  0  0  0  0999 V2000
   26.4222  -21.1727  -14.2843 N   0  0  0  0  0  0  0  0  0  0  0  0
   26.6529  -20.3267  -13.1266 C   0  0  1  0  0  0  0  0  0  0  0  0
   25.7510  -19.1117  -13.3329 C   0  0  0  0  0  0  0  0  0  0  0  0
   26.0763  -18.4367  -14.5978 C   0  0  0  0  0  0  0  0  0  0  0  0
   25.1888  -17.8248  -15.4932 C   0  0  0  0  0  0  0  0  0  0  0  0
   25.8653  -17.3259  -16.5203 N   0  0  0  0  0  0  0  0  0  0  0  0
   27.1659  -17.6005  -16.3094 C   0  0  0  0  0  0  0  0  0  0  0  0
   28.2764  -17.3141  -17.0522 C   0  0  0  0  0  0  0  0  0  0  0  0
   29.5301  -17.7067  -16.6229 C   0  0  0  0  0  0  0  0  0  0  0  0
   29.7229  -18.3956  -15.4440 C   0  0  0  0  0  0  0  0  0  0  0  0
   28.5789  -18.6812  -14.6958 C   0  0  0  0  0  0  0  0  0  0  0  0
   27.3365  -18.2908  -15.1237 C   0  0  0  0  0  0  0  0  0  0  0  0
   26.2638  -21.0739  -11.9220 C   0  0  0  0  0  0  0  0  0  0  0  0
   25.5860  -22.1248  -12.0414 O   0  0  0  0  0  0  0  0  0  0  0  0
   26.5863  -20.7156  -10.6002 N   0  0  0  0  0  0  0  0  0  0  0  0
   26.1476  -21.4566   -9.4413 C   0  0  1  0  0  0  0  0  0  0  0  0
   27.1648  -21.6338   -8.3883 C   0  0  0  0  0  0  0  0  0  0  0  0
   27.2682  -20.3888   -7.5945 C   0  0  0  0  0  0  0  0  0  0  0  0
   26.8529  -19.1053   -7.8321 C   0  0  0  0  0  0  0  0  0  0  0  0
   27.2051  -18.3323   -6.7881 N   0  0  0  0  0  0  0  0  0  0  0  0
   27.8436  -19.0651   -5.8614 C   0  0  0  0  0  0  0  0  0  0  0  0
   28.4102  -18.7850   -4.6219 C   0  0  0  0  0  0  0  0  0  0  0  0
   29.0246  -19.7508   -3.8524 C   0  0  0  0  0  0  0  0  0  0  0  0
   29.0702  -21.0337   -4.3435 C   0  0  0  0  0  0  0  0  0  0  0  0
   28.5003  -21.3154   -5.5903 C   0  0  0  0  0  0  0  0  0  0  0  0
   27.8903  -20.3350   -6.3442 C   0  0  0  0  0  0  0  0  0  0  0  0
   24.9894  -20.7187   -8.8809 C   0  0  0  0  0  0  0  0  0  0  0  0
   25.0136  -19.4676   -8.8924 O   0  0  0  0  0  0  0  0  0  0  0  0
   23.8857  -21.4078   -8.3474 N   0  0  0  0  0  0  0  0  0  0  0  0
   22.5072  -20.7985   -8.3092 C   0  0  1  0  0  0  0  0  0  0  0  0
   22.0923  -20.5475   -9.6977 C   0  0  0  0  0  0  0  0  0  0  0  0
   21.6099  -21.5414  -10.6297 C   0  0  0  0  0  0  0  0  0  0  0  0
   21.1237  -21.2591  -11.9841 C   0  0  0  0  0  0  0  0  0  0  0  0
   20.7150  -22.6668  -12.5606 C   0  0  0  0  0  0  0  0  0  0  0  0
   20.1487  -22.3694  -13.8628 N   0  0  0  0  0  0  0  0  0  0  0  0
   21.6551  -21.7919   -7.6244 C   0  0  0  0  0  0  0  0  0  0  0  0
   20.4544  -21.6768   -7.3240 O   0  0  0  0  0  0  0  0  0  0  0  0
   22.2344  -23.0285   -7.2518 O   0  0  0  0  0  0  0  0  0  0  0  0
  2  1  1  6
  2  3  1  0
  3  4  1  0
  4  5  2  0
  6  5  1  0
  7  6  1  0
  8  7  2  0
  9  8  1  0
 10  9  2  0
 10 11  1  0
 11 12  2  0
 12  7  1  0
 12  4  1  0
 13  2  1  0
 13 15  1  0
 14 13  2  0
 16 15  1  0
 16 17  1  1
 18 17  1  0
 18 26  1  0
 19 18  2  0
 20 19  1  0
 20 21  1  0
 21 22  1  0
 21 26  2  0
 22 23  2  0
 23 24  1  0
 25 24  2  0
 26 25  1  0
 27 16  1  0
 28 27  2  0
 29 27  1  0
 30 31  1  6
 30 29  1  0
 32 31  1  0
 33 32  1  0
 34 33  1  0
 35 34  1  0
 36 38  1  0
 36 30  1  0
 37 36  2  0
M  END
$$$$
