WWK.pdb
     RDKit          3D

 38 41  0  0  1  0  0  0  0  0999 V2000
   29.1016  -20.4648  -15.6300 N   0  0  0  0  0  0  0  0  0  0  0  0
   28.0084  -19.8926  -14.8641 C   0  0  1  0  0  0  0  0  0  0  0  0
   27.0573  -19.3034  -15.9035 C   0  0  0  0  0  0  0  0  0  0  0  0
   27.6397  -18.0978  -16.5110 C   0  0  0  0  0  0  0  0  0  0  0  0
   28.2624  -17.9862  -17.7614 C   0  0  0  0  0  0  0  0  0  0  0  0
   28.6575  -16.7336  -17.9522 N   0  0  0  0  0  0  0  0  0  0  0  0
   28.3052  -16.0354  -16.8568 C   0  0  0  0  0  0  0  0  0  0  0  0
   28.4739  -14.7174  -16.5389 C   0  0  0  0  0  0  0  0  0  0  0  0
   28.0194  -14.2214  -15.3316 C   0  0  0  0  0  0  0  0  0  0  0  0
   27.3833  -15.0159  -14.4012 C   0  0  0  0  0  0  0  0  0  0  0  0
   27.2182  -16.3605  -14.7400 C   0  0  0  0  0  0  0  0  0  0  0  0
   27.6699  -16.8502  -15.9381 C   0  0  0  0  0  0  0  0  0  0  0  0
   27.3588  -20.9719  -14.1066 C   0  0  0  0  0  0  0  0  0  0  0  0
   27.2685  -22.1155  -14.6186 O   0  0  0  0  0  0  0  0  0  0  0  0
   26.8073  -20.8467  -12.8184 N   0  0  0  0  0  0  0  0  0  0  0  0
   25.9764  -21.8545  -12.2030 C   0  0  1  0  0  0  0  0  0  0  0  0
   26.4154  -22.2992  -10.8671 C   0  0  0  0  0  0  0  0  0  0  0  0
   26.4145  -21.1433   -9.9427 C   0  0  0  0  0  0  0  0  0  0  0  0
   25.5270  -20.1184   -9.7471 C   0  0  0  0  0  0  0  0  0  0  0  0
   26.0022  -19.3076   -8.7837 N   0  0  0  0  0  0  0  0  0  0  0  0
   27.1817  -19.7637   -8.3318 C   0  0  0  0  0  0  0  0  0  0  0  0
   28.0880  -19.3286   -7.3700 C   0  0  0  0  0  0  0  0  0  0  0  0
   29.2600  -20.0026   -7.0972 C   0  0  0  0  0  0  0  0  0  0  0  0
   29.5275  -21.1458   -7.8118 C   0  0  0  0  0  0  0  0  0  0  0  0
   28.6159  -21.5834   -8.7793 C   0  0  0  0  0  0  0  0  0  0  0  0
   27.4492  -20.8948   -9.0367 C   0  0  0  0  0  0  0  0  0  0  0  0
   24.6147  -21.2755  -12.1008 C   0  0  0  0  0  0  0  0  0  0  0  0
   24.5001  -20.0519  -11.8650 O   0  0  0  0  0  0  0  0  0  0  0  0
   23.4745  -22.0820  -12.2652 N   0  0  0  0  0  0  0  0  0  0  0  0
   22.0982  -21.4919  -12.4390 C   0  0  1  0  0  0  0  0  0  0  0  0
   21.2987  -22.4482  -13.2196 C   0  0  0  0  0  0  0  0  0  0  0  0
   19.8843  -22.3407  -13.4972 C   0  0  0  0  0  0  0  0  0  0  0  0
   19.0957  -23.3271  -14.2426 C   0  0  0  0  0  0  0  0  0  0  0  0
   17.6465  -22.7129  -14.3033 C   0  0  0  0  0  0  0  0  0  0  0  0
   16.8835  -23.6723  -15.0792 N   0  0  0  0  0  0  0  0  0  0  0  0
   21.5794  -21.2897  -11.0708 C   0  0  0  0  0  0  0  0  0  0  0  0
   21.8704  -21.9368  -10.0502 O   0  0  0  0  0  0  0  0  0  0  0  0
   20.6426  -20.2504  -10.8561 O   0  0  0  0  0  0  0  0  0  0  0  0
  2  1  1  6
  2  3  1  0
  3  4  1  0
  4  5  2  0
  6  5  1  0
  7  6  1  0
  8  7  2  0
  9  8  1  0
 10  9  2  0
 10 11  1  0
 11 12  2  0
 12  7  1  0
 12  4  1  0
 13  2  1  0
 13 15  1  0
 14 13  2  0
 16 15  1  0
 16 17  1  1
 18 17  1  0
 18 26  1  0
 19 18  2  0
 20 19  1  0
 20 21  1  0
 21 22  1  0
 21 26  2  0
 22 23  2  0
 23 24  1  0
 25 24  2  0
 26 25  1  0
 27 16  1  0
 28 27  2  0
 29 27  1  0
 30 31  1  6
 30 29  1  0
 32 31  1  0
 33 32  1  0
 34 33  1  0
 35 34  1  0
 36 38  1  0
 36 30  1  0
 37 36  2  0
M  END
$$$$
