WWK.pdb
     RDKit          3D

 38 41  0  0  1  0  0  0  0  0999 V2000
   27.6110  -21.3854  -15.6485 N   0  0  0  0  0  0  0  0  0  0  0  0
   26.3809  -20.6996  -15.2939 C   0  0  1  0  0  0  0  0  0  0  0  0
   25.4199  -20.9801  -16.4472 C   0  0  0  0  0  0  0  0  0  0  0  0
   25.7697  -20.1652  -17.6199 C   0  0  0  0  0  0  0  0  0  0  0  0
   26.5255  -20.5516  -18.7349 C   0  0  0  0  0  0  0  0  0  0  0  0
   26.6217  -19.5347  -19.5822 N   0  0  0  0  0  0  0  0  0  0  0  0
   25.9472  -18.5030  -19.0417 C   0  0  0  0  0  0  0  0  0  0  0  0
   25.7343  -17.2322  -19.4962 C   0  0  0  0  0  0  0  0  0  0  0  0
   24.9953  -16.3332  -18.7506 C   0  0  0  0  0  0  0  0  0  0  0  0
   24.4440  -16.6652  -17.5310 C   0  0  0  0  0  0  0  0  0  0  0  0
   24.6701  -17.9671  -17.0796 C   0  0  0  0  0  0  0  0  0  0  0  0
   25.4034  -18.8570  -17.8208 C   0  0  0  0  0  0  0  0  0  0  0  0
   25.8775  -21.2716  -14.0370 C   0  0  0  0  0  0  0  0  0  0  0  0
   25.7356  -22.5160  -13.9400 O   0  0  0  0  0  0  0  0  0  0  0  0
   25.5253  -20.5370  -12.8899 N   0  0  0  0  0  0  0  0  0  0  0  0
   24.9828  -21.1349  -11.6929 C   0  0  1  0  0  0  0  0  0  0  0  0
   25.3714  -20.4767  -10.4316 C   0  0  0  0  0  0  0  0  0  0  0  0
   26.7983  -20.7557  -10.1544 C   0  0  0  0  0  0  0  0  0  0  0  0
   27.7240  -21.5447  -10.7845 C   0  0  0  0  0  0  0  0  0  0  0  0
   28.8917  -21.4625  -10.1204 N   0  0  0  0  0  0  0  0  0  0  0  0
   28.7699  -20.6408   -9.0652 C   0  0  0  0  0  0  0  0  0  0  0  0
   29.6354  -20.2076   -8.0658 C   0  0  0  0  0  0  0  0  0  0  0  0
   29.2421  -19.3375   -7.0704 C   0  0  0  0  0  0  0  0  0  0  0  0
   27.9423  -18.8910   -7.0810 C   0  0  0  0  0  0  0  0  0  0  0  0
   27.0717  -19.3268   -8.0863 C   0  0  0  0  0  0  0  0  0  0  0  0
   27.4850  -20.1972   -9.0729 C   0  0  0  0  0  0  0  0  0  0  0  0
   23.5066  -21.0923  -11.8303 C   0  0  0  0  0  0  0  0  0  0  0  0
   22.9557  -19.9876  -12.0356 O   0  0  0  0  0  0  0  0  0  0  0  0
   22.7396  -22.2669  -11.7326 N   0  0  0  0  0  0  0  0  0  0  0  0
   21.2557  -22.2752  -11.9985 C   0  0  1  0  0  0  0  0  0  0  0  0
   20.8047  -23.6747  -11.9643 C   0  0  0  0  0  0  0  0  0  0  0  0
   19.4386  -24.1272  -12.0995 C   0  0  0  0  0  0  0  0  0  0  0  0
   19.0187  -25.5311  -12.1544 C   0  0  0  0  0  0  0  0  0  0  0  0
   17.4625  -25.4712  -12.3901 C   0  0  0  0  0  0  0  0  0  0  0  0
   17.0449  -26.8605  -12.3772 N   0  0  0  0  0  0  0  0  0  0  0  0
   20.6579  -21.4514  -10.9281 C   0  0  0  0  0  0  0  0  0  0  0  0
   21.0784  -21.3007   -9.7681 O   0  0  0  0  0  0  0  0  0  0  0  0
   19.4708  -20.7363  -11.2166 O   0  0  0  0  0  0  0  0  0  0  0  0
  2  1  1  6
  2  3  1  0
  3  4  1  0
  4  5  2  0
  6  5  1  0
  7  6  1  0
  8  7  2  0
  9  8  1  0
 10  9  2  0
 10 11  1  0
 11 12  2  0
 12  7  1  0
 12  4  1  0
 13  2  1  0
 13 15  1  0
 14 13  2  0
 16 15  1  0
 16 17  1  1
 18 17  1  0
 18 26  1  0
 19 18  2  0
 20 19  1  0
 20 21  1  0
 21 22  1  0
 21 26  2  0
 22 23  2  0
 23 24  1  0
 25 24  2  0
 26 25  1  0
 27 16  1  0
 28 27  2  0
 29 27  1  0
 30 31  1  1
 30 29  1  0
 32 31  1  0
 33 32  1  0
 34 33  1  0
 35 34  1  0
 36 38  1  0
 36 30  1  0
 37 36  2  0
M  END
$$$$
