WWK.pdb
     RDKit          3D

 38 41  0  0  1  0  0  0  0  0999 V2000
   24.2203  -20.4002  -10.6528 N   0  0  0  0  0  0  0  0  0  0  0  0
   25.6243  -20.0646  -10.8113 C   0  0  1  0  0  0  0  0  0  0  0  0
   26.3820  -21.1319  -10.0246 C   0  0  0  0  0  0  0  0  0  0  0  0
   26.3700  -20.8195   -8.5880 C   0  0  0  0  0  0  0  0  0  0  0  0
   25.2898  -20.9182   -7.7007 C   0  0  0  0  0  0  0  0  0  0  0  0
   25.6753  -20.5469   -6.4862 N   0  0  0  0  0  0  0  0  0  0  0  0
   26.9763  -20.2116   -6.5684 C   0  0  0  0  0  0  0  0  0  0  0  0
   27.8507  -19.7654   -5.6180 C   0  0  0  0  0  0  0  0  0  0  0  0
   29.1625  -19.4812   -5.9474 C   0  0  0  0  0  0  0  0  0  0  0  0
   29.6492  -19.6302   -7.2289 C   0  0  0  0  0  0  0  0  0  0  0  0
   28.7441  -20.0869   -8.1892 C   0  0  0  0  0  0  0  0  0  0  0  0
   27.4434  -20.3681   -7.8602 C   0  0  0  0  0  0  0  0  0  0  0  0
   25.9571  -20.1281  -12.2417 C   0  0  0  0  0  0  0  0  0  0  0  0
   25.3791  -20.9715  -12.9715 O   0  0  0  0  0  0  0  0  0  0  0  0
   26.8934  -19.3086  -12.8985 N   0  0  0  0  0  0  0  0  0  0  0  0
   26.9060  -19.0948  -14.3264 C   0  0  1  0  0  0  0  0  0  0  0  0
   27.4194  -17.7819  -14.7594 C   0  0  0  0  0  0  0  0  0  0  0  0
   27.2924  -17.6684  -16.2296 C   0  0  0  0  0  0  0  0  0  0  0  0
   26.2050  -17.6175  -17.0611 C   0  0  0  0  0  0  0  0  0  0  0  0
   26.6329  -17.5259  -18.3339 N   0  0  0  0  0  0  0  0  0  0  0  0
   27.9752  -17.5144  -18.3737 C   0  0  0  0  0  0  0  0  0  0  0  0
   28.9165  -17.4387  -19.3954 C   0  0  0  0  0  0  0  0  0  0  0  0
   30.2746  -17.4485  -19.1542 C   0  0  0  0  0  0  0  0  0  0  0  0
   30.6970  -17.5369  -17.8493 C   0  0  0  0  0  0  0  0  0  0  0  0
   29.7500  -17.6130  -16.8217 C   0  0  0  0  0  0  0  0  0  0  0  0
   28.3962  -17.6016  -17.0842 C   0  0  0  0  0  0  0  0  0  0  0  0
   27.7533  -20.1650  -14.9068 C   0  0  0  0  0  0  0  0  0  0  0  0
   28.9287  -20.2878  -14.4957 O   0  0  0  0  0  0  0  0  0  0  0  0
   27.2488  -21.0253  -15.8983 N   0  0  0  0  0  0  0  0  0  0  0  0
   28.0981  -22.0982  -16.5311 C   0  0  1  0  0  0  0  0  0  0  0  0
   27.3897  -23.3775  -16.3744 C   0  0  0  0  0  0  0  0  0  0  0  0
   27.9250  -24.6845  -16.6817 C   0  0  0  0  0  0  0  0  0  0  0  0
   27.1955  -25.9482  -16.5355 C   0  0  0  0  0  0  0  0  0  0  0  0
   28.1980  -27.0475  -17.0530 C   0  0  0  0  0  0  0  0  0  0  0  0
   27.5308  -28.3034  -16.7665 N   0  0  0  0  0  0  0  0  0  0  0  0
   28.2547  -21.6961  -17.9438 C   0  0  0  0  0  0  0  0  0  0  0  0
   27.3541  -21.4070  -18.7502 O   0  0  0  0  0  0  0  0  0  0  0  0
   29.5635  -21.6189  -18.4774 O   0  0  0  0  0  0  0  0  0  0  0  0
  2  1  1  6
  2  3  1  0
  3  4  1  0
  4  5  2  0
  6  5  1  0
  7  6  1  0
  8  7  2  0
  9  8  1  0
 10  9  2  0
 10 11  1  0
 11 12  2  0
 12  7  1  0
 12  4  1  0
 13  2  1  0
 13 15  1  0
 14 13  2  0
 16 15  1  0
 16 17  1  1
 18 17  1  0
 18 26  1  0
 19 18  2  0
 20 19  1  0
 20 21  1  0
 21 22  1  0
 21 26  2  0
 22 23  2  0
 23 24  1  0
 25 24  2  0
 26 25  1  0
 27 16  1  0
 28 27  2  0
 29 27  1  0
 30 31  1  6
 30 29  1  0
 32 31  1  0
 33 32  1  0
 34 33  1  0
 35 34  1  0
 36 38  1  0
 36 30  1  0
 37 36  2  0
M  END
$$$$
