WWK.pdb
     RDKit          3D

 38 41  0  0  1  0  0  0  0  0999 V2000
   25.5576  -22.4649  -12.5130 N   0  0  0  0  0  0  0  0  0  0  0  0
   25.1373  -21.4287  -11.5863 C   0  0  1  0  0  0  0  0  0  0  0  0
   26.1676  -20.3121  -11.7408 C   0  0  0  0  0  0  0  0  0  0  0  0
   27.4368  -20.6893  -11.1018 C   0  0  0  0  0  0  0  0  0  0  0  0
   28.6408  -21.0347  -11.7301 C   0  0  0  0  0  0  0  0  0  0  0  0
   29.5588  -21.3118  -10.8126 N   0  0  0  0  0  0  0  0  0  0  0  0
   28.9771  -21.1538   -9.6092 C   0  0  0  0  0  0  0  0  0  0  0  0
   29.4712  -21.3105   -8.3451 C   0  0  0  0  0  0  0  0  0  0  0  0
   28.6676  -21.0869   -7.2431 C   0  0  0  0  0  0  0  0  0  0  0  0
   27.3489  -20.7007   -7.3591 C   0  0  0  0  0  0  0  0  0  0  0  0
   26.8581  -20.5446   -8.6571 C   0  0  0  0  0  0  0  0  0  0  0  0
   27.6570  -20.7671   -9.7486 C   0  0  0  0  0  0  0  0  0  0  0  0
   23.7982  -20.9692  -11.9817 C   0  0  0  0  0  0  0  0  0  0  0  0
   23.3538  -19.8916  -11.5134 O   0  0  0  0  0  0  0  0  0  0  0  0
   22.9328  -21.6411  -12.8644 N   0  0  0  0  0  0  0  0  0  0  0  0
   21.5428  -21.2930  -13.0410 C   0  0  1  0  0  0  0  0  0  0  0  0
   21.1682  -20.8808  -14.4066 C   0  0  0  0  0  0  0  0  0  0  0  0
   21.5845  -19.4773  -14.6248 C   0  0  0  0  0  0  0  0  0  0  0  0
   22.5978  -18.9184  -15.3577 C   0  0  0  0  0  0  0  0  0  0  0  0
   22.5545  -17.5809  -15.2130 N   0  0  0  0  0  0  0  0  0  0  0  0
   21.5406  -17.2332  -14.4040 C   0  0  0  0  0  0  0  0  0  0  0  0
   21.0514  -16.0223  -13.9244 C   0  0  0  0  0  0  0  0  0  0  0  0
   19.9641  -15.9446  -13.0791 C   0  0  0  0  0  0  0  0  0  0  0  0
   19.3525  -17.1175  -12.7061 C   0  0  0  0  0  0  0  0  0  0  0  0
   19.8447  -18.3355  -13.1885 C   0  0  0  0  0  0  0  0  0  0  0  0
   20.9333  -18.3914  -14.0333 C   0  0  0  0  0  0  0  0  0  0  0  0
   20.7551  -22.4906  -12.6600 C   0  0  0  0  0  0  0  0  0  0  0  0
   20.9638  -23.5637  -13.2690 O   0  0  0  0  0  0  0  0  0  0  0  0
   19.7933  -22.4247  -11.6361 N   0  0  0  0  0  0  0  0  0  0  0  0
   19.1012  -23.6568  -11.1111 C   0  0  1  0  0  0  0  0  0  0  0  0
   18.9309  -23.4881   -9.6600 C   0  0  0  0  0  0  0  0  0  0  0  0
   18.3793  -24.4689   -8.7530 C   0  0  0  0  0  0  0  0  0  0  0  0
   18.2908  -24.3132   -7.2975 C   0  0  0  0  0  0  0  0  0  0  0  0
   17.5980  -25.6366   -6.7979 C   0  0  0  0  0  0  0  0  0  0  0  0
   17.5773  -25.5062   -5.3532 N   0  0  0  0  0  0  0  0  0  0  0  0
   17.8168  -23.7281  -11.8371 C   0  0  0  0  0  0  0  0  0  0  0  0
   17.0646  -22.7841  -12.1341 O   0  0  0  0  0  0  0  0  0  0  0  0
   17.3557  -24.9977  -12.2602 O   0  0  0  0  0  0  0  0  0  0  0  0
  2  1  1  6
  2  3  1  0
  3  4  1  0
  4  5  2  0
  6  5  1  0
  7  6  1  0
  8  7  2  0
  9  8  1  0
 10  9  2  0
 10 11  1  0
 11 12  2  0
 12  7  1  0
 12  4  1  0
 13  2  1  0
 13 15  1  0
 14 13  2  0
 16 15  1  0
 16 17  1  6
 18 17  1  0
 18 26  1  0
 19 18  2  0
 20 19  1  0
 20 21  1  0
 21 22  1  0
 21 26  2  0
 22 23  2  0
 23 24  1  0
 25 24  2  0
 26 25  1  0
 27 16  1  0
 28 27  2  0
 29 27  1  0
 30 31  1  1
 30 29  1  0
 32 31  1  0
 33 32  1  0
 34 33  1  0
 35 34  1  0
 36 38  1  0
 36 30  1  0
 37 36  2  0
M  END
$$$$
