WWK.pdb
     RDKit          3D

 38 41  0  0  1  0  0  0  0  0999 V2000
   18.0202  -17.5989    2.7421 N   0  0  0  0  0  0  0  0  0  0  0  0
   18.0887  -18.4100    3.9449 C   0  0  1  0  0  0  0  0  0  0  0  0
   18.7450  -19.7180    3.5083 C   0  0  0  0  0  0  0  0  0  0  0  0
   17.9119  -20.4053    2.5107 C   0  0  0  0  0  0  0  0  0  0  0  0
   17.8532  -20.1616    1.1320 C   0  0  0  0  0  0  0  0  0  0  0  0
   16.9811  -20.9892    0.5699 N   0  0  0  0  0  0  0  0  0  0  0  0
   16.4765  -21.7599    1.5513 C   0  0  0  0  0  0  0  0  0  0  0  0
   15.5508  -22.7643    1.5186 C   0  0  0  0  0  0  0  0  0  0  0  0
   15.1856  -23.4221    2.6778 C   0  0  0  0  0  0  0  0  0  0  0  0
   15.7263  -23.1054    3.9062 C   0  0  0  0  0  0  0  0  0  0  0  0
   16.6708  -22.0770    3.9239 C   0  0  0  0  0  0  0  0  0  0  0  0
   17.0314  -21.4259    2.7728 C   0  0  0  0  0  0  0  0  0  0  0  0
   18.9206  -17.7061    4.9314 C   0  0  0  0  0  0  0  0  0  0  0  0
   20.1544  -17.5904    4.7259 O   0  0  0  0  0  0  0  0  0  0  0  0
   18.4553  -17.1285    6.1270 N   0  0  0  0  0  0  0  0  0  0  0  0
   19.3195  -16.5162    7.1083 C   0  0  1  0  0  0  0  0  0  0  0  0
   18.8200  -15.2530    7.6826 C   0  0  0  0  0  0  0  0  0  0  0  0
   19.4319  -14.1135    6.9628 C   0  0  0  0  0  0  0  0  0  0  0  0
   20.4334  -13.2409    7.2973 C   0  0  0  0  0  0  0  0  0  0  0  0
   20.6065  -12.3677    6.2879 N   0  0  0  0  0  0  0  0  0  0  0  0
   19.7483  -12.6342    5.2899 C   0  0  0  0  0  0  0  0  0  0  0  0
   19.4974  -12.0645    4.0457 C   0  0  0  0  0  0  0  0  0  0  0  0
   18.5280  -12.5471    3.1913 C   0  0  0  0  0  0  0  0  0  0  0  0
   17.7908  -13.6326    3.6002 C   0  0  0  0  0  0  0  0  0  0  0  0
   18.0431  -14.2055    4.8518 C   0  0  0  0  0  0  0  0  0  0  0  0
   19.0174  -13.7078    5.6913 C   0  0  0  0  0  0  0  0  0  0  0  0
   19.4957  -17.5098    8.1954 C   0  0  0  0  0  0  0  0  0  0  0  0
   18.7294  -18.4983    8.2335 O   0  0  0  0  0  0  0  0  0  0  0  0
   20.5020  -17.3470    9.1641 N   0  0  0  0  0  0  0  0  0  0  0  0
   20.7701  -18.3902   10.2190 C   0  0  1  0  0  0  0  0  0  0  0  0
   22.2230  -18.6140   10.2651 C   0  0  0  0  0  0  0  0  0  0  0  0
   22.9175  -19.4749   11.1955 C   0  0  0  0  0  0  0  0  0  0  0  0
   24.3678  -19.6905   11.2207 C   0  0  0  0  0  0  0  0  0  0  0  0
   24.5973  -20.7105   12.3989 C   0  0  0  0  0  0  0  0  0  0  0  0
   26.0264  -20.9592   12.3835 N   0  0  0  0  0  0  0  0  0  0  0  0
   20.2340  -17.8285   11.4755 C   0  0  0  0  0  0  0  0  0  0  0  0
   19.9952  -18.4372   12.5327 O   0  0  0  0  0  0  0  0  0  0  0  0
   19.9469  -16.4431   11.5215 O   0  0  0  0  0  0  0  0  0  0  0  0
  2  1  1  6
  2  3  1  0
  3  4  1  0
  4  5  2  0
  6  5  1  0
  7  6  1  0
  8  7  2  0
  9  8  1  0
 10  9  2  0
 10 11  1  0
 11 12  2  0
 12  7  1  0
 12  4  1  0
 13  2  1  0
 13 15  1  0
 14 13  2  0
 16 15  1  0
 16 17  1  1
 18 17  1  0
 18 26  1  0
 19 18  2  0
 20 19  1  0
 20 21  1  0
 21 22  1  0
 21 26  2  0
 22 23  2  0
 23 24  1  0
 25 24  2  0
 26 25  1  0
 27 16  1  0
 28 27  2  0
 29 27  1  0
 30 31  1  1
 30 29  1  0
 32 31  1  0
 33 32  1  0
 34 33  1  0
 35 34  1  0
 36 38  1  0
 36 30  1  0
 37 36  2  0
M  END
$$$$
