WWK.pdb
     RDKit          3D

 38 41  0  0  1  0  0  0  0  0999 V2000
   23.0543  -18.8097  -16.7128 N   0  0  0  0  0  0  0  0  0  0  0  0
   21.6479  -18.5750  -16.4372 C   0  0  1  0  0  0  0  0  0  0  0  0
   21.5331  -18.5765  -14.9143 C   0  0  0  0  0  0  0  0  0  0  0  0
   21.5015  -19.9538  -14.4009 C   0  0  0  0  0  0  0  0  0  0  0  0
   22.5895  -20.7452  -14.0088 C   0  0  0  0  0  0  0  0  0  0  0  0
   22.1543  -21.9312  -13.6021 N   0  0  0  0  0  0  0  0  0  0  0  0
   20.8138  -21.9241  -13.7220 C   0  0  0  0  0  0  0  0  0  0  0  0
   19.8819  -22.8838  -13.4437 C   0  0  0  0  0  0  0  0  0  0  0  0
   18.5376  -22.6404  -13.6528 C   0  0  0  0  0  0  0  0  0  0  0  0
   18.0743  -21.4382  -14.1444 C   0  0  0  0  0  0  0  0  0  0  0  0
   19.0382  -20.4673  -14.4242 C   0  0  0  0  0  0  0  0  0  0  0  0
   20.3710  -20.7111  -14.2160 C   0  0  0  0  0  0  0  0  0  0  0  0
   21.2795  -17.2648  -16.9925 C   0  0  0  0  0  0  0  0  0  0  0  0
   22.0535  -16.2885  -16.8325 O   0  0  0  0  0  0  0  0  0  0  0  0
   20.1027  -16.9852  -17.7112 N   0  0  0  0  0  0  0  0  0  0  0  0
   19.7717  -15.6773  -18.2255 C   0  0  1  0  0  0  0  0  0  0  0  0
   19.6078  -15.6020  -19.6892 C   0  0  0  0  0  0  0  0  0  0  0  0
   20.9419  -15.5473  -20.3279 C   0  0  0  0  0  0  0  0  0  0  0  0
   21.9004  -16.5011  -20.5467 C   0  0  0  0  0  0  0  0  0  0  0  0
   22.9521  -15.9297  -21.1624 N   0  0  0  0  0  0  0  0  0  0  0  0
   22.7210  -14.6216  -21.3599 C   0  0  0  0  0  0  0  0  0  0  0  0
   23.4469  -13.5821  -21.9327 C   0  0  0  0  0  0  0  0  0  0  0  0
   22.9625  -12.2928  -22.0074 C   0  0  0  0  0  0  0  0  0  0  0  0
   21.7134  -12.0426  -21.4916 C   0  0  0  0  0  0  0  0  0  0  0  0
   20.9832  -13.0883  -20.9154 C   0  0  0  0  0  0  0  0  0  0  0  0
   21.4858  -14.3709  -20.8508 C   0  0  0  0  0  0  0  0  0  0  0  0
   18.5028  -15.2745  -17.5716 C   0  0  0  0  0  0  0  0  0  0  0  0
   17.6913  -16.1666  -17.2377 O   0  0  0  0  0  0  0  0  0  0  0  0
   18.2149  -13.9193  -17.3305 N   0  0  0  0  0  0  0  0  0  0  0  0
   16.9336  -13.4814  -16.6677 C   0  0  1  0  0  0  0  0  0  0  0  0
   17.0042  -12.0243  -16.4803 C   0  0  0  0  0  0  0  0  0  0  0  0
   15.9460  -11.1850  -15.9657 C   0  0  0  0  0  0  0  0  0  0  0  0
   16.0201   -9.7270  -15.8278 C   0  0  0  0  0  0  0  0  0  0  0  0
   14.6005   -9.3063  -15.2902 C   0  0  0  0  0  0  0  0  0  0  0  0
   14.6081   -7.8571  -15.3561 N   0  0  0  0  0  0  0  0  0  0  0  0
   15.8529  -13.8919  -17.5872 C   0  0  0  0  0  0  0  0  0  0  0  0
   15.7957  -13.7061  -18.8149 O   0  0  0  0  0  0  0  0  0  0  0  0
   14.7383  -14.5776  -17.0476 O   0  0  0  0  0  0  0  0  0  0  0  0
  2  1  1  1
  2  3  1  0
  3  4  1  0
  4  5  2  0
  6  5  1  0
  7  6  1  0
  8  7  2  0
  9  8  1  0
 10  9  2  0
 10 11  1  0
 11 12  2  0
 12  7  1  0
 12  4  1  0
 13  2  1  0
 13 15  1  0
 14 13  2  0
 16 15  1  0
 16 17  1  6
 18 17  1  0
 18 26  1  0
 19 18  2  0
 20 19  1  0
 20 21  1  0
 21 22  1  0
 21 26  2  0
 22 23  2  0
 23 24  1  0
 25 24  2  0
 26 25  1  0
 27 16  1  0
 28 27  2  0
 29 27  1  0
 30 31  1  6
 30 29  1  0
 32 31  1  0
 33 32  1  0
 34 33  1  0
 35 34  1  0
 36 38  1  0
 36 30  1  0
 37 36  2  0
M  END
$$$$
