FIN.pdb
     RDKit          3D

 28 28  0  0  1  0  0  0  0  0999 V2000
    6.6721  -19.0274   27.2791 N   0  0  0  0  0  0  0  0  0  0  0  0
    7.3827  -17.7729   27.3889 C   0  0  1  0  0  0  0  0  0  0  0  0
    8.8339  -17.9521   27.7715 C   0  0  0  0  0  0  0  0  0  0  0  0
    9.4703  -16.6944   28.2141 C   0  0  0  0  0  0  0  0  0  0  0  0
   10.3812  -16.7756   29.2653 C   0  0  0  0  0  0  0  0  0  0  0  0
   11.0409  -15.6733   29.7669 C   0  0  0  0  0  0  0  0  0  0  0  0
   10.7535  -14.4490   29.1672 C   0  0  0  0  0  0  0  0  0  0  0  0
    9.8596  -14.3570   28.1331 C   0  0  0  0  0  0  0  0  0  0  0  0
    9.2042  -15.4808   27.6417 C   0  0  0  0  0  0  0  0  0  0  0  0
    7.3285  -17.0876   26.0693 C   0  0  0  0  0  0  0  0  0  0  0  0
    6.9072  -17.7058   25.0530 O   0  0  0  0  0  0  0  0  0  0  0  0
    6.3317  -12.0006   26.3437 C   0  0  0  0  0  0  0  0  0  0  0  0
    6.0968  -13.1682   25.4171 C   0  0  0  0  0  0  0  0  0  0  0  0
    7.4158  -13.5740   24.7936 C   0  0  2  0  0  0  0  0  0  0  0  0
    7.5436  -12.9653   23.4031 C   0  0  0  0  0  0  0  0  0  0  0  0
    7.5053  -15.0798   24.6321 C   0  0  2  0  0  0  0  0  0  0  0  0
    7.7333  -15.7446   25.8762 N   0  0  0  0  0  0  0  0  0  0  0  0
    8.6173  -15.3659   23.6528 C   0  0  0  0  0  0  0  0  0  0  0  0
    8.6274  -14.8758   22.4956 O   0  0  0  0  0  0  0  0  0  0  0  0
   10.2663  -19.1553   22.6653 N   0  0  0  0  0  0  0  0  0  0  0  0
    9.9220  -18.2203   21.6617 C   0  0  0  0  0  0  0  0  0  0  0  0
    9.1951  -18.5861   20.7125 O   0  0  0  0  0  0  0  0  0  0  0  0
   10.3922  -16.8181   21.6987 C   0  0  0  0  0  0  0  0  0  0  0  0
   10.8106  -16.5309   23.1243 C   0  0  2  0  0  0  0  0  0  0  0  0
    9.7123  -16.2057   23.9912 N   0  0  0  0  0  0  0  0  0  0  0  0
   11.8183  -15.4397   23.0605 C   0  0  0  0  0  0  0  0  0  0  0  0
   12.9930  -15.5488   22.3298 O   0  0  0  0  0  0  0  0  0  0  0  0
   11.5759  -14.3755   23.7075 O   0  0  0  0  0  0  0  0  0  0  0  0
  2  1  1  6
  2  3  1  0
  4  3  1  0
  4  9  2  0
  5  4  1  0
  6  5  2  0
  6  7  1  0
  7  8  2  0
  8  9  1  0
 10  2  1  0
 11 10  2  0
 13 12  1  0
 14 13  1  0
 14 16  1  0
 14 15  1  6
 16 17  1  1
 17 10  1  0
 18 25  1  0
 18 16  1  0
 19 18  2  0
 21 22  2  0
 21 20  1  0
 23 21  1  0
 24 26  1  0
 24 23  1  6
 24 25  1  0
 26 27  1  0
 28 26  2  0
M  END
$$$$
