FIN.pdb
     RDKit          3D

 28 28  0  0  1  0  0  0  0  0999 V2000
    7.2111  -18.9699   26.9544 N   0  0  0  0  0  0  0  0  0  0  0  0
    7.7851  -17.6647   27.1950 C   0  0  1  0  0  0  0  0  0  0  0  0
    9.2392  -17.7293   27.6025 C   0  0  0  0  0  0  0  0  0  0  0  0
    9.7399  -16.4507   28.1476 C   0  0  0  0  0  0  0  0  0  0  0  0
    9.9953  -16.3968   29.5163 C   0  0  0  0  0  0  0  0  0  0  0  0
   10.4659  -15.2618   30.1426 C   0  0  0  0  0  0  0  0  0  0  0  0
   10.6801  -14.1475   29.3342 C   0  0  0  0  0  0  0  0  0  0  0  0
   10.4323  -14.1887   27.9874 C   0  0  0  0  0  0  0  0  0  0  0  0
    9.9574  -15.3432   27.3746 C   0  0  0  0  0  0  0  0  0  0  0  0
    7.6864  -16.8718   25.9398 C   0  0  0  0  0  0  0  0  0  0  0  0
    7.5398  -17.4579   24.8320 O   0  0  0  0  0  0  0  0  0  0  0  0
    6.0911  -11.6294   26.3253 C   0  0  0  0  0  0  0  0  0  0  0  0
    6.0043  -12.9669   25.6323 C   0  0  0  0  0  0  0  0  0  0  0  0
    7.3232  -13.2505   24.9443 C   0  0  2  0  0  0  0  0  0  0  0  0
    7.3592  -12.5647   23.5847 C   0  0  0  0  0  0  0  0  0  0  0  0
    7.5054  -14.7367   24.7002 C   0  0  2  0  0  0  0  0  0  0  0  0
    7.7494  -15.4576   25.9095 N   0  0  0  0  0  0  0  0  0  0  0  0
    8.6506  -14.9003   23.7310 C   0  0  0  0  0  0  0  0  0  0  0  0
    8.5334  -14.6266   22.5101 O   0  0  0  0  0  0  0  0  0  0  0  0
   11.2924  -17.6741   24.8375 N   0  0  0  0  0  0  0  0  0  0  0  0
   12.3522  -16.7419   24.9245 C   0  0  0  0  0  0  0  0  0  0  0  0
   13.2933  -16.9622   25.7177 O   0  0  0  0  0  0  0  0  0  0  0  0
   12.3868  -15.5116   24.1035 C   0  0  0  0  0  0  0  0  0  0  0  0
   11.0918  -15.4666   23.3221 C   0  0  2  0  0  0  0  0  0  0  0  0
    9.9229  -15.3728   24.1517 N   0  0  0  0  0  0  0  0  0  0  0  0
   11.0728  -16.6773   22.4595 C   0  0  0  0  0  0  0  0  0  0  0  0
   10.0775  -17.6406   22.5450 O   0  0  0  0  0  0  0  0  0  0  0  0
   12.0133  -16.8168   21.6194 O   0  0  0  0  0  0  0  0  0  0  0  0
  2  1  1  6
  2  3  1  0
  4  3  1  0
  4  9  2  0
  5  4  1  0
  6  5  2  0
  6  7  1  0
  7  8  2  0
  8  9  1  0
 10  2  1  0
 11 10  2  0
 13 12  1  0
 14 13  1  0
 14 16  1  0
 14 15  1  6
 16 17  1  1
 17 10  1  0
 18 25  1  0
 18 16  1  0
 19 18  2  0
 21 22  2  0
 21 20  1  0
 23 21  1  0
 24 26  1  0
 24 23  1  1
 24 25  1  0
 26 27  1  0
 28 26  2  0
M  END
$$$$
