FIN.pdb
     RDKit          3D

 28 28  0  0  1  0  0  0  0  0999 V2000
    8.8237  -16.3043   25.8949 N   0  0  0  0  0  0  0  0  0  0  0  0
    7.4391  -16.6154   25.6174 C   0  0  1  0  0  0  0  0  0  0  0  0
    6.4758  -15.7553   26.4028 C   0  0  0  0  0  0  0  0  0  0  0  0
    6.9085  -14.3455   26.4943 C   0  0  0  0  0  0  0  0  0  0  0  0
    5.9140  -13.3699   26.4703 C   0  0  0  0  0  0  0  0  0  0  0  0
    6.1909  -12.0212   26.5498 C   0  0  0  0  0  0  0  0  0  0  0  0
    7.5338  -11.6661   26.6574 C   0  0  0  0  0  0  0  0  0  0  0  0
    8.5201  -12.6167   26.6818 C   0  0  0  0  0  0  0  0  0  0  0  0
    8.2203  -13.9721   26.6000 C   0  0  0  0  0  0  0  0  0  0  0  0
    7.1908  -16.3909   24.1677 C   0  0  0  0  0  0  0  0  0  0  0  0
    6.0658  -16.6696   23.6687 O   0  0  0  0  0  0  0  0  0  0  0  0
    8.0969  -11.8584   21.6830 C   0  0  0  0  0  0  0  0  0  0  0  0
    7.5693  -13.1943   22.1454 C   0  0  0  0  0  0  0  0  0  0  0  0
    8.3135  -14.2949   21.4189 C   0  0  2  0  0  0  0  0  0  0  0  0
    8.0144  -14.2287   19.9268 C   0  0  0  0  0  0  0  0  0  0  0  0
    7.8749  -15.6644   21.9022 C   0  0  2  0  0  0  0  0  0  0  0  0
    8.1679  -15.8692   23.2856 N   0  0  0  0  0  0  0  0  0  0  0  0
    8.5692  -16.6927   21.0429 C   0  0  0  0  0  0  0  0  0  0  0  0
    8.4827  -16.6802   19.7893 O   0  0  0  0  0  0  0  0  0  0  0  0
   13.9038  -17.1914   22.4081 N   0  0  0  0  0  0  0  0  0  0  0  0
   12.9637  -16.8624   21.4042 C   0  0  0  0  0  0  0  0  0  0  0  0
   13.3401  -16.8037   20.2134 O   0  0  0  0  0  0  0  0  0  0  0  0
   11.5439  -16.5871   21.7162 C   0  0  0  0  0  0  0  0  0  0  0  0
   10.7803  -17.8685   21.4617 C   0  0  2  0  0  0  0  0  0  0  0  0
    9.3584  -17.7293   21.6101 N   0  0  0  0  0  0  0  0  0  0  0  0
   11.3440  -18.8900   22.3832 C   0  0  0  0  0  0  0  0  0  0  0  0
   12.3621  -19.7550   22.0075 O   0  0  0  0  0  0  0  0  0  0  0  0
   10.8606  -18.9577   23.5542 O   0  0  0  0  0  0  0  0  0  0  0  0
  2  1  1  1
  2  3  1  0
  4  3  1  0
  4  9  2  0
  5  4  1  0
  6  5  2  0
  6  7  1  0
  7  8  2  0
  8  9  1  0
 10  2  1  0
 11 10  2  0
 13 12  1  0
 14 13  1  0
 14 16  1  0
 14 15  1  6
 16 17  1  1
 17 10  1  0
 18 25  1  0
 18 16  1  0
 19 18  2  0
 21 22  2  0
 21 20  1  0
 23 21  1  0
 24 26  1  0
 24 23  1  1
 24 25  1  0
 26 27  1  0
 28 26  2  0
M  END
$$$$
