FIN.pdb
     RDKit          3D

 28 28  0  0  1  0  0  0  0  0999 V2000
    6.6388  -17.4264   22.6448 N   0  0  0  0  0  0  0  0  0  0  0  0
    7.2947  -16.2779   22.0604 C   0  0  1  0  0  0  0  0  0  0  0  0
    6.3209  -15.2796   21.4777 C   0  0  0  0  0  0  0  0  0  0  0  0
    6.9898  -14.1913   20.7354 C   0  0  0  0  0  0  0  0  0  0  0  0
    7.0085  -12.9311   21.3295 C   0  0  0  0  0  0  0  0  0  0  0  0
    7.6025  -11.8364   20.7371 C   0  0  0  0  0  0  0  0  0  0  0  0
    8.1958  -12.0462   19.4941 C   0  0  0  0  0  0  0  0  0  0  0  0
    8.1834  -13.2807   18.9003 C   0  0  0  0  0  0  0  0  0  0  0  0
    7.5787  -14.3723   19.5139 C   0  0  0  0  0  0  0  0  0  0  0  0
    8.0815  -15.5971   23.1240 C   0  0  0  0  0  0  0  0  0  0  0  0
    9.2177  -15.1160   22.8596 O   0  0  0  0  0  0  0  0  0  0  0  0
    6.0814  -12.1579   26.6007 C   0  0  0  0  0  0  0  0  0  0  0  0
    7.0186  -12.8760   25.6611 C   0  0  0  0  0  0  0  0  0  0  0  0
    7.7121  -13.9910   26.4155 C   0  0  2  0  0  0  0  0  0  0  0  0
    8.7318  -13.4079   27.3852 C   0  0  0  0  0  0  0  0  0  0  0  0
    8.4671  -14.9056   25.4695 C   0  0  2  0  0  0  0  0  0  0  0  0
    7.6216  -15.4518   24.4553 N   0  0  0  0  0  0  0  0  0  0  0  0
    9.0941  -15.9991   26.2995 C   0  0  0  0  0  0  0  0  0  0  0  0
    8.4074  -16.7572   27.0295 O   0  0  0  0  0  0  0  0  0  0  0  0
   13.1950  -17.0229   24.1091 N   0  0  0  0  0  0  0  0  0  0  0  0
   12.4738  -17.7905   25.0527 C   0  0  0  0  0  0  0  0  0  0  0  0
   11.7287  -18.7094   24.6481 O   0  0  0  0  0  0  0  0  0  0  0  0
   12.5736  -17.5440   26.5081 C   0  0  0  0  0  0  0  0  0  0  0  0
   11.1700  -17.2783   27.0074 C   0  0  2  0  0  0  0  0  0  0  0  0
   10.4966  -16.2272   26.2967 N   0  0  0  0  0  0  0  0  0  0  0  0
   11.2830  -16.9905   28.4616 C   0  0  0  0  0  0  0  0  0  0  0  0
   11.6701  -17.9507   29.3858 O   0  0  0  0  0  0  0  0  0  0  0  0
   11.0094  -15.8149   28.8524 O   0  0  0  0  0  0  0  0  0  0  0  0
  2  1  1  1
  2  3  1  0
  4  3  1  0
  4  9  2  0
  5  4  1  0
  6  5  2  0
  6  7  1  0
  7  8  2  0
  8  9  1  0
 10  2  1  0
 11 10  2  0
 13 12  1  0
 14 13  1  0
 14 16  1  0
 14 15  1  1
 16 17  1  6
 17 10  1  0
 18 25  1  0
 18 16  1  0
 19 18  2  0
 21 22  2  0
 21 20  1  0
 23 21  1  0
 24 26  1  0
 24 23  1  6
 24 25  1  0
 26 27  1  0
 28 26  2  0
M  END
$$$$
