FIN.pdb
     RDKit          3D

 28 28  0  0  1  0  0  0  0  0999 V2000
    6.7378  -17.6684   26.1037 N   0  0  0  0  0  0  0  0  0  0  0  0
    6.7911  -16.4411   25.3410 C   0  0  1  0  0  0  0  0  0  0  0  0
    7.9482  -15.5534   25.7381 C   0  0  0  0  0  0  0  0  0  0  0  0
    7.5124  -14.2459   26.2702 C   0  0  0  0  0  0  0  0  0  0  0  0
    8.4681  -13.4735   26.9271 C   0  0  0  0  0  0  0  0  0  0  0  0
    8.1845  -12.2360   27.4657 C   0  0  0  0  0  0  0  0  0  0  0  0
    6.8759  -11.7796   27.3233 C   0  0  0  0  0  0  0  0  0  0  0  0
    5.9278  -12.5304   26.6796 C   0  0  0  0  0  0  0  0  0  0  0  0
    6.2337  -13.7765   26.1435 C   0  0  0  0  0  0  0  0  0  0  0  0
    6.9423  -16.7904   23.9027 C   0  0  0  0  0  0  0  0  0  0  0  0
    5.9218  -17.0280   23.1994 O   0  0  0  0  0  0  0  0  0  0  0  0
    7.1218  -12.6037   22.1381 C   0  0  0  0  0  0  0  0  0  0  0  0
    7.0446  -14.1100   22.0941 C   0  0  0  0  0  0  0  0  0  0  0  0
    8.4437  -14.6776   22.2107 C   0  0  2  0  0  0  0  0  0  0  0  0
    9.3344  -14.0951   21.1210 C   0  0  0  0  0  0  0  0  0  0  0  0
    8.4410  -16.1836   22.0281 C   0  0  2  0  0  0  0  0  0  0  0  0
    8.1979  -16.8767   23.2538 N   0  0  0  0  0  0  0  0  0  0  0  0
    9.7762  -16.5720   21.4414 C   0  0  0  0  0  0  0  0  0  0  0  0
   10.1814  -16.1091   20.3456 O   0  0  0  0  0  0  0  0  0  0  0  0
   14.5389  -15.2642   22.4537 N   0  0  0  0  0  0  0  0  0  0  0  0
   13.5689  -15.6107   23.4227 C   0  0  0  0  0  0  0  0  0  0  0  0
   13.9263  -15.7779   24.6091 O   0  0  0  0  0  0  0  0  0  0  0  0
   12.1398  -15.7798   23.0795 C   0  0  0  0  0  0  0  0  0  0  0  0
   11.9780  -17.1867   22.5464 C   0  0  2  0  0  0  0  0  0  0  0  0
   10.6449  -17.4827   22.1009 N   0  0  0  0  0  0  0  0  0  0  0  0
   12.4264  -18.1051   23.6261 C   0  0  0  0  0  0  0  0  0  0  0  0
   11.6041  -18.4778   24.6800 O   0  0  0  0  0  0  0  0  0  0  0  0
   13.6115  -18.5538   23.5633 O   0  0  0  0  0  0  0  0  0  0  0  0
  2  1  1  1
  2  3  1  0
  4  3  1  0
  4  9  2  0
  5  4  1  0
  6  5  2  0
  6  7  1  0
  7  8  2  0
  8  9  1  0
 10  2  1  0
 11 10  2  0
 13 12  1  0
 14 13  1  0
 14 16  1  0
 14 15  1  6
 16 17  1  1
 17 10  1  0
 18 25  1  0
 18 16  1  0
 19 18  2  0
 21 22  2  0
 21 20  1  0
 23 21  1  0
 24 26  1  0
 24 23  1  1
 24 25  1  0
 26 27  1  0
 28 26  2  0
M  END
$$$$
