FIN.pdb
     RDKit          3D

 28 28  0  0  1  0  0  0  0  0999 V2000
    5.2181  -17.7464   24.9948 N   0  0  0  0  0  0  0  0  0  0  0  0
    5.8668  -16.4547   25.0325 C   0  0  1  0  0  0  0  0  0  0  0  0
    6.4655  -16.1381   26.3838 C   0  0  0  0  0  0  0  0  0  0  0  0
    6.9215  -14.7372   26.4956 C   0  0  0  0  0  0  0  0  0  0  0  0
    5.9408  -13.7484   26.5396 C   0  0  0  0  0  0  0  0  0  0  0  0
    6.2398  -12.4062   26.6443 C   0  0  0  0  0  0  0  0  0  0  0  0
    7.5910  -12.0718   26.7056 C   0  0  0  0  0  0  0  0  0  0  0  0
    8.5639  -13.0355   26.6630 C   0  0  0  0  0  0  0  0  0  0  0  0
    8.2417  -14.3841   26.5568 C   0  0  0  0  0  0  0  0  0  0  0  0
    6.9609  -16.4511   24.0242 C   0  0  0  0  0  0  0  0  0  0  0  0
    7.6998  -17.4652   23.8899 O   0  0  0  0  0  0  0  0  0  0  0  0
    7.2056  -12.4673   20.0390 C   0  0  0  0  0  0  0  0  0  0  0  0
    7.1194  -13.8389   20.6621 C   0  0  0  0  0  0  0  0  0  0  0  0
    8.4018  -14.1168   21.4181 C   0  0  2  0  0  0  0  0  0  0  0  0
    9.5545  -14.2984   20.4390 C   0  0  0  0  0  0  0  0  0  0  0  0
    8.2955  -15.3967   22.2255 C   0  0  2  0  0  0  0  0  0  0  0  0
    7.2341  -15.3470   23.1808 N   0  0  0  0  0  0  0  0  0  0  0  0
    9.6255  -15.6172   22.9038 C   0  0  0  0  0  0  0  0  0  0  0  0
   10.0321  -14.8711   23.8297 O   0  0  0  0  0  0  0  0  0  0  0  0
   13.4834  -19.3781   25.1126 N   0  0  0  0  0  0  0  0  0  0  0  0
   13.3011  -18.6897   23.8909 C   0  0  0  0  0  0  0  0  0  0  0  0
   14.2987  -18.2176   23.3034 O   0  0  0  0  0  0  0  0  0  0  0  0
   11.9653  -18.5112   23.2805 C   0  0  0  0  0  0  0  0  0  0  0  0
   11.7235  -17.0210   23.1771 C   0  0  2  0  0  0  0  0  0  0  0  0
   10.4872  -16.6829   22.5287 N   0  0  0  0  0  0  0  0  0  0  0  0
   12.9015  -16.4464   22.4753 C   0  0  0  0  0  0  0  0  0  0  0  0
   14.0018  -15.9403   23.1528 O   0  0  0  0  0  0  0  0  0  0  0  0
   12.8796  -16.4266   21.2069 O   0  0  0  0  0  0  0  0  0  0  0  0
  2  1  1  1
  2  3  1  0
  4  3  1  0
  4  9  2  0
  5  4  1  0
  6  5  2  0
  6  7  1  0
  7  8  2  0
  8  9  1  0
 10  2  1  0
 11 10  2  0
 13 12  1  0
 14 13  1  0
 14 16  1  0
 14 15  1  6
 16 17  1  1
 17 10  1  0
 18 25  1  0
 18 16  1  0
 19 18  2  0
 21 22  2  0
 21 20  1  0
 23 21  1  0
 24 26  1  0
 24 23  1  6
 24 25  1  0
 26 27  1  0
 28 26  2  0
M  END
$$$$
