FIN.pdb
     RDKit          3D

 28 28  0  0  1  0  0  0  0  0999 V2000
    6.6761  -16.5119   22.0655 N   0  0  0  0  0  0  0  0  0  0  0  0
    8.1142  -16.6496   22.0039 C   0  0  1  0  0  0  0  0  0  0  0  0
    8.7065  -16.0613   20.7440 C   0  0  0  0  0  0  0  0  0  0  0  0
    8.2633  -14.6741   20.4948 C   0  0  0  0  0  0  0  0  0  0  0  0
    6.9309  -14.4848   20.1339 C   0  0  0  0  0  0  0  0  0  0  0  0
    6.3980  -13.2390   19.8768 C   0  0  0  0  0  0  0  0  0  0  0  0
    7.2644  -12.1543   19.9950 C   0  0  0  0  0  0  0  0  0  0  0  0
    8.5764  -12.3284   20.3490 C   0  0  0  0  0  0  0  0  0  0  0  0
    9.0949  -13.5933   20.6039 C   0  0  0  0  0  0  0  0  0  0  0  0
    8.7024  -15.9404   23.1722 C   0  0  0  0  0  0  0  0  0  0  0  0
    9.9493  -15.7583   23.2386 O   0  0  0  0  0  0  0  0  0  0  0  0
    6.1242  -12.1119   26.1121 C   0  0  0  0  0  0  0  0  0  0  0  0
    7.1397  -12.9193   25.3416 C   0  0  0  0  0  0  0  0  0  0  0  0
    7.6578  -14.0324   26.2281 C   0  0  2  0  0  0  0  0  0  0  0  0
    8.5007  -13.4505   27.3556 C   0  0  0  0  0  0  0  0  0  0  0  0
    8.5474  -14.9834   25.4500 C   0  0  2  0  0  0  0  0  0  0  0  0
    7.9272  -15.4427   24.2475 N   0  0  0  0  0  0  0  0  0  0  0  0
    8.8841  -16.1381   26.3616 C   0  0  0  0  0  0  0  0  0  0  0  0
    7.9949  -16.7980   26.9558 O   0  0  0  0  0  0  0  0  0  0  0  0
   12.4313  -18.1052   24.4108 N   0  0  0  0  0  0  0  0  0  0  0  0
   11.6268  -18.6519   25.4373 C   0  0  0  0  0  0  0  0  0  0  0  0
   10.6798  -19.4085   25.1309 O   0  0  0  0  0  0  0  0  0  0  0  0
   11.8706  -18.3602   26.8671 C   0  0  0  0  0  0  0  0  0  0  0  0
   10.6348  -17.6618   27.3914 C   0  0  2  0  0  0  0  0  0  0  0  0
   10.2274  -16.5386   26.5940 N   0  0  0  0  0  0  0  0  0  0  0  0
   10.9278  -17.2762   28.7970 C   0  0  0  0  0  0  0  0  0  0  0  0
   10.9238  -15.9566   29.2265 O   0  0  0  0  0  0  0  0  0  0  0  0
   11.1905  -18.2053   29.6201 O   0  0  0  0  0  0  0  0  0  0  0  0
  2  1  1  6
  2  3  1  0
  4  3  1  0
  4  9  2  0
  5  4  1  0
  6  5  2  0
  6  7  1  0
  7  8  2  0
  8  9  1  0
 10  2  1  0
 11 10  2  0
 13 12  1  0
 14 13  1  0
 14 16  1  0
 14 15  1  1
 16 17  1  6
 17 10  1  0
 18 25  1  0
 18 16  1  0
 19 18  2  0
 21 22  2  0
 21 20  1  0
 23 21  1  0
 24 26  1  0
 24 23  1  6
 24 25  1  0
 26 27  1  0
 28 26  2  0
M  END
$$$$
