RPY.pdb
     RDKit          3D

 31 32  0  0  1  0  0  0  0  0999 V2000
   20.3843  -14.6870  -18.3260 N   0  0  0  0  0  0  0  0  0  0  0  0
   20.7873  -15.1526  -17.0654 C   0  0  0  0  0  0  0  0  0  0  0  0
   20.6096  -14.4303  -16.0274 N   0  0  0  0  0  0  0  0  0  0  0  0
   21.3965  -16.4263  -16.9227 N   0  0  0  0  0  0  0  0  0  0  0  0
   21.8381  -17.1991  -18.0865 C   0  0  0  0  0  0  0  0  0  0  0  0
   23.3238  -17.1105  -18.1166 C   0  0  0  0  0  0  0  0  0  0  0  0
   24.0631  -17.7479  -17.0040 C   0  0  0  0  0  0  0  0  0  0  0  0
   24.7848  -19.0271  -17.3357 C   0  0  2  0  0  0  0  0  0  0  0  0
   24.0763  -19.8287  -18.2895 N   0  0  0  0  0  0  0  0  0  0  0  0
   25.2687  -19.7308  -16.1491 C   0  0  0  0  0  0  0  0  0  0  0  0
   24.4753  -20.5294  -15.5884 O   0  0  0  0  0  0  0  0  0  0  0  0
   20.9279  -14.7481  -15.1100 N   0  0  0  0  0  0  0  0  0  0  0  0
   26.5788  -19.5896  -15.5636 C   0  0  0  0  0  0  0  0  0  0  0  0
   27.6743  -18.9404  -16.2272 C   0  0  0  0  0  0  0  0  0  0  0  0
   28.8977  -19.2989  -15.3838 C   0  0  0  0  0  0  0  0  0  0  0  0
   28.3253  -19.4422  -13.9962 C   0  0  2  0  0  0  0  0  0  0  0  0
   26.9972  -20.0711  -14.2801 C   0  0  0  0  0  0  0  0  0  0  0  0
   26.0816  -19.6310  -13.1861 O   0  0  0  0  0  0  0  0  0  0  0  0
   25.5065  -18.5301  -13.3055 O   0  0  0  0  0  0  0  0  0  0  0  0
   18.9065  -19.7888   -8.5729 C   0  0  0  0  0  0  0  0  0  0  0  0
   20.0278  -19.9217   -9.3811 C   0  0  0  0  0  0  0  0  0  0  0  0
   20.7996  -21.0587   -9.2930 C   0  0  0  0  0  0  0  0  0  0  0  0
   21.9269  -21.2309  -10.0816 C   0  0  0  0  0  0  0  0  0  0  0  0
   22.3291  -20.2734  -10.9904 C   0  0  0  0  0  0  0  0  0  0  0  0
   23.5364  -20.4728  -11.8122 C   0  0  1  0  0  0  0  0  0  0  0  0
   24.8316  -20.2128  -11.0788 N   0  0  0  0  0  0  0  0  0  0  0  0
   25.9005  -20.4729  -12.0615 C   0  0  0  0  0  0  0  0  0  0  0  0
   24.9469  -21.1833   -9.9616 O   0  0  0  0  0  0  0  0  0  0  0  0
   24.6246  -20.9343   -8.7903 C   0  0  0  0  0  0  0  0  0  0  0  0
   21.5526  -19.1258  -11.0814 C   0  0  0  0  0  0  0  0  0  0  0  0
   20.4362  -18.9711  -10.2910 O   0  0  0  0  0  0  0  0  0  0  0  0
  2  1  1  0
  3  2  2  0
  4  2  1  0
  5  4  1  0
  6  5  1  0
  7  6  1  0
  8  7  1  0
  8  9  1  1
 10  8  1  0
 11 10  2  0
 12 10  1  0
 12 16  1  0
 13 14  1  0
 13 12  1  0
 14 15  1  0
 15 16  1  0
 16 17  1  1
 17 18  2  0
 19 20  1  0
 20 30  2  0
 21 20  1  0
 21 22  2  0
 22 23  1  0
 23 29  2  0
 23 24  1  0
 25 24  1  6
 25 27  1  0
 26 17  1  0
 26 25  1  0
 27 28  2  0
 27 31  1  0
 30 29  1  0
M  END
$$$$
