RPY.pdb
     RDKit          3D

 31 32  0  0  1  0  0  0  0  0999 V2000
   25.4035  -16.6185  -16.1360 N   0  0  0  0  0  0  0  0  0  0  0  0
   24.4684  -17.6593  -16.0319 C   0  0  0  0  0  0  0  0  0  0  0  0
   23.2815  -17.5026  -16.4764 N   0  0  0  0  0  0  0  0  0  0  0  0
   24.8228  -18.8965  -15.4341 N   0  0  0  0  0  0  0  0  0  0  0  0
   26.1942  -19.1719  -14.9982 C   0  0  0  0  0  0  0  0  0  0  0  0
   26.2933  -18.7069  -13.5875 C   0  0  0  0  0  0  0  0  0  0  0  0
   25.7313  -19.5909  -12.5419 C   0  0  0  0  0  0  0  0  0  0  0  0
   26.3158  -20.9762  -12.4619 C   0  0  2  0  0  0  0  0  0  0  0  0
   25.4857  -21.9622  -13.0889 N   0  0  0  0  0  0  0  0  0  0  0  0
   26.8010  -21.3120  -11.1242 C   0  0  0  0  0  0  0  0  0  0  0  0
   25.9427  -21.6325  -10.2627 O   0  0  0  0  0  0  0  0  0  0  0  0
   22.6130  -18.2751  -16.4624 N   0  0  0  0  0  0  0  0  0  0  0  0
   28.1805  -21.3080  -10.7047 C   0  0  0  0  0  0  0  0  0  0  0  0
   29.2847  -21.2791  -11.6223 C   0  0  0  0  0  0  0  0  0  0  0  0
   30.5063  -21.5947  -10.7593 C   0  0  0  0  0  0  0  0  0  0  0  0
   30.1255  -21.0358   -9.4116 C   0  0  2  0  0  0  0  0  0  0  0  0
   28.6632  -21.3502   -9.3558 C   0  0  0  0  0  0  0  0  0  0  0  0
   28.0397  -20.2977   -8.4999 O   0  0  0  0  0  0  0  0  0  0  0  0
   27.0166  -19.7228   -8.9235 O   0  0  0  0  0  0  0  0  0  0  0  0
   23.0690  -20.8520   -1.7784 C   0  0  0  0  0  0  0  0  0  0  0  0
   24.0845  -20.9121   -2.7236 C   0  0  0  0  0  0  0  0  0  0  0  0
   23.7810  -20.7676   -4.0589 C   0  0  0  0  0  0  0  0  0  0  0  0
   24.7648  -20.8212   -5.0344 C   0  0  0  0  0  0  0  0  0  0  0  0
   26.0923  -21.0220   -4.7151 C   0  0  0  0  0  0  0  0  0  0  0  0
   27.1208  -21.0851   -5.7690 C   0  0  2  0  0  0  0  0  0  0  0  0
   27.7970  -19.7636   -6.0509 N   0  0  0  0  0  0  0  0  0  0  0  0
   28.6279  -19.9929   -7.2479 C   0  0  0  0  0  0  0  0  0  0  0  0
   28.6750  -19.4258   -4.9028 O   0  0  0  0  0  0  0  0  0  0  0  0
   28.5542  -18.4008   -4.2152 C   0  0  0  0  0  0  0  0  0  0  0  0
   26.4012  -21.1679   -3.3692 C   0  0  0  0  0  0  0  0  0  0  0  0
   25.4121  -21.1118   -2.4134 O   0  0  0  0  0  0  0  0  0  0  0  0
  2  1  1  0
  3  2  2  0
  4  2  1  0
  5  4  1  0
  6  5  1  0
  7  6  1  0
  8  7  1  0
  8  9  1  1
 10  8  1  0
 11 10  2  0
 12 10  1  0
 12 16  1  0
 13 14  1  0
 13 12  1  0
 14 15  1  0
 15 16  1  0
 16 17  1  6
 17 18  2  0
 19 20  1  0
 20 30  2  0
 21 20  1  0
 21 22  2  0
 22 23  1  0
 23 29  2  0
 23 24  1  0
 25 24  1  6
 25 27  1  0
 26 17  1  0
 26 25  1  0
 27 28  2  0
 27 31  1  0
 30 29  1  0
M  END
$$$$
