RPY.pdb
     RDKit          3D

 31 32  0  0  1  0  0  0  0  0999 V2000
   21.1639  -22.9572  -13.6095 N   0  0  0  0  0  0  0  0  0  0  0  0
   21.4863  -21.9079  -14.4833 C   0  0  0  0  0  0  0  0  0  0  0  0
   21.0098  -20.7395  -14.2867 N   0  0  0  0  0  0  0  0  0  0  0  0
   22.3418  -22.1253  -15.5945 N   0  0  0  0  0  0  0  0  0  0  0  0
   22.9694  -23.4273  -15.8350 C   0  0  0  0  0  0  0  0  0  0  0  0
   24.4394  -23.1935  -15.8533 C   0  0  0  0  0  0  0  0  0  0  0  0
   24.9237  -21.9798  -16.5484 C   0  0  0  0  0  0  0  0  0  0  0  0
   26.4108  -21.7460  -16.5136 C   0  0  2  0  0  0  0  0  0  0  0  0
   27.1430  -22.7435  -17.2370 N   0  0  0  0  0  0  0  0  0  0  0  0
   26.9070  -21.4416  -15.1726 C   0  0  0  0  0  0  0  0  0  0  0  0
   27.2175  -22.4138  -14.4377 O   0  0  0  0  0  0  0  0  0  0  0  0
   21.2418  -19.9688  -14.9162 N   0  0  0  0  0  0  0  0  0  0  0  0
   27.0722  -20.1213  -14.6168 C   0  0  0  0  0  0  0  0  0  0  0  0
   26.8717  -18.9163  -15.3715 C   0  0  0  0  0  0  0  0  0  0  0  0
   27.4477  -17.8113  -14.4861 C   0  0  0  0  0  0  0  0  0  0  0  0
   27.2192  -18.3377  -13.0917 C   0  0  2  0  0  0  0  0  0  0  0  0
   27.4673  -19.8021  -13.2765 C   0  0  0  0  0  0  0  0  0  0  0  0
   26.6286  -20.5019  -12.2588 O   0  0  0  0  0  0  0  0  0  0  0  0
   25.4232  -20.6928  -12.5184 O   0  0  0  0  0  0  0  0  0  0  0  0
   27.9103  -18.6245   -4.4489 C   0  0  0  0  0  0  0  0  0  0  0  0
   27.7614  -19.4743   -5.5369 C   0  0  0  0  0  0  0  0  0  0  0  0
   28.7639  -19.5588   -6.4771 C   0  0  0  0  0  0  0  0  0  0  0  0
   28.6549  -20.3946   -7.5780 C   0  0  0  0  0  0  0  0  0  0  0  0
   27.5391  -21.1799   -7.7845 C   0  0  0  0  0  0  0  0  0  0  0  0
   27.4399  -22.0543   -8.9669 C   0  0  1  0  0  0  0  0  0  0  0  0
   26.4358  -21.5891   -9.9956 N   0  0  0  0  0  0  0  0  0  0  0  0
   27.2274  -20.9203  -11.0453 C   0  0  0  0  0  0  0  0  0  0  0  0
   25.5299  -20.5996   -9.3603 O   0  0  0  0  0  0  0  0  0  0  0  0
   24.5165  -20.9023   -8.7130 C   0  0  0  0  0  0  0  0  0  0  0  0
   26.5265  -21.0967   -6.8379 C   0  0  0  0  0  0  0  0  0  0  0  0
   26.6511  -20.2618   -5.7504 O   0  0  0  0  0  0  0  0  0  0  0  0
  2  1  1  0
  3  2  2  0
  4  2  1  0
  5  4  1  0
  6  5  1  0
  7  6  1  0
  8  7  1  0
  8  9  1  1
 10  8  1  0
 11 10  2  0
 12 10  1  0
 12 16  1  0
 13 14  1  0
 13 12  1  0
 14 15  1  0
 15 16  1  0
 16 17  1  1
 17 18  2  0
 19 20  1  0
 20 30  2  0
 21 20  1  0
 21 22  2  0
 22 23  1  0
 23 29  2  0
 23 24  1  0
 25 24  1  6
 25 27  1  0
 26 17  1  0
 26 25  1  0
 27 28  2  0
 27 31  1  0
 30 29  1  0
M  END
$$$$
