RPY.pdb
     RDKit          3D

 31 32  0  0  1  0  0  0  0  0999 V2000
   20.6406  -20.3596  -18.6671 N   0  0  0  0  0  0  0  0  0  0  0  0
   20.4109  -20.1170  -17.3044 C   0  0  0  0  0  0  0  0  0  0  0  0
   19.2179  -20.0910  -16.8493 N   0  0  0  0  0  0  0  0  0  0  0  0
   21.4934  -19.8971  -16.4136 N   0  0  0  0  0  0  0  0  0  0  0  0
   22.8130  -19.4848  -16.8986 C   0  0  0  0  0  0  0  0  0  0  0  0
   23.3464  -20.6219  -17.6977 C   0  0  0  0  0  0  0  0  0  0  0  0
   24.0942  -21.6706  -16.9683 C   0  0  0  0  0  0  0  0  0  0  0  0
   25.5947  -21.6108  -17.0776 C   0  0  2  0  0  0  0  0  0  0  0  0
   26.1238  -22.6102  -17.9584 N   0  0  0  0  0  0  0  0  0  0  0  0
   26.2551  -21.4953  -15.7783 C   0  0  0  0  0  0  0  0  0  0  0  0
   26.3220  -22.5329  -15.0709 O   0  0  0  0  0  0  0  0  0  0  0  0
   19.0408  -19.9032  -15.8607 N   0  0  0  0  0  0  0  0  0  0  0  0
   26.8379  -20.2934  -15.2353 C   0  0  0  0  0  0  0  0  0  0  0  0
   27.0322  -19.0944  -16.0012 C   0  0  0  0  0  0  0  0  0  0  0  0
   27.9361  -18.2255  -15.1269 C   0  0  0  0  0  0  0  0  0  0  0  0
   27.5562  -18.6384  -13.7273 C   0  0  2  0  0  0  0  0  0  0  0  0
   27.3199  -20.1064  -13.8985 C   0  0  0  0  0  0  0  0  0  0  0  0
   26.3048  -20.4908  -12.8734 O   0  0  0  0  0  0  0  0  0  0  0  0
   25.1011  -20.2843  -13.1290 O   0  0  0  0  0  0  0  0  0  0  0  0
   28.5655  -18.2875   -5.8133 C   0  0  0  0  0  0  0  0  0  0  0  0
   28.1256  -19.2328   -6.7303 C   0  0  0  0  0  0  0  0  0  0  0  0
   26.7753  -19.3961   -6.9451 C   0  0  0  0  0  0  0  0  0  0  0  0
   26.2943  -20.3285   -7.8516 C   0  0  0  0  0  0  0  0  0  0  0  0
   27.1435  -21.1361   -8.5804 C   0  0  0  0  0  0  0  0  0  0  0  0
   26.6104  -22.1275   -9.5320 C   0  0  1  0  0  0  0  0  0  0  0  0
   25.7764  -21.5308  -10.6417 N   0  0  0  0  0  0  0  0  0  0  0  0
   26.7421  -21.0714  -11.6577 C   0  0  0  0  0  0  0  0  0  0  0  0
   25.0382  -20.3609  -10.1035 O   0  0  0  0  0  0  0  0  0  0  0  0
   23.9680  -20.4419   -9.4821 C   0  0  0  0  0  0  0  0  0  0  0  0
   28.5057  -20.9734   -8.3659 C   0  0  0  0  0  0  0  0  0  0  0  0
   28.9663  -20.0427   -7.4622 O   0  0  0  0  0  0  0  0  0  0  0  0
  2  1  1  0
  3  2  2  0
  4  2  1  0
  5  4  1  0
  6  5  1  0
  7  6  1  0
  8  7  1  0
  8  9  1  1
 10  8  1  0
 11 10  2  0
 12 10  1  0
 12 16  1  0
 13 14  1  0
 13 12  1  0
 14 15  1  0
 15 16  1  0
 16 17  1  1
 17 18  2  0
 19 20  1  0
 20 30  2  0
 21 20  1  0
 21 22  2  0
 22 23  1  0
 23 29  2  0
 23 24  1  0
 25 24  1  6
 25 27  1  0
 26 17  1  0
 26 25  1  0
 27 28  2  0
 27 31  1  0
 30 29  1  0
M  END
$$$$
