RPY.pdb
     RDKit          3D

 31 32  0  0  1  0  0  0  0  0999 V2000
   29.1193  -17.2383  -18.9325 N   0  0  0  0  0  0  0  0  0  0  0  0
   27.7606  -17.4186  -18.6329 C   0  0  0  0  0  0  0  0  0  0  0  0
   26.8916  -17.4198  -19.5687 N   0  0  0  0  0  0  0  0  0  0  0  0
   27.3306  -17.6009  -17.2929 N   0  0  0  0  0  0  0  0  0  0  0  0
   28.2783  -17.5872  -16.1755 C   0  0  0  0  0  0  0  0  0  0  0  0
   28.3634  -18.9860  -15.6733 C   0  0  0  0  0  0  0  0  0  0  0  0
   27.0994  -19.6350  -15.2589 C   0  0  0  0  0  0  0  0  0  0  0  0
   27.2326  -20.9785  -14.5923 C   0  0  2  0  0  0  0  0  0  0  0  0
   27.7056  -21.9936  -15.4870 N   0  0  0  0  0  0  0  0  0  0  0  0
   26.0631  -21.3335  -13.7901 C   0  0  0  0  0  0  0  0  0  0  0  0
   25.1028  -21.8877  -14.3838 O   0  0  0  0  0  0  0  0  0  0  0  0
   25.9035  -17.5783  -19.3628 N   0  0  0  0  0  0  0  0  0  0  0  0
   25.9132  -21.1037  -12.3746 C   0  0  0  0  0  0  0  0  0  0  0  0
   27.0067  -20.7567  -11.5109 C   0  0  0  0  0  0  0  0  0  0  0  0
   26.4438  -20.9181  -10.0990 C   0  0  0  0  0  0  0  0  0  0  0  0
   24.9812  -20.5971  -10.2760 C   0  0  2  0  0  0  0  0  0  0  0  0
   24.6997  -21.1979  -11.6177 C   0  0  0  0  0  0  0  0  0  0  0  0
   23.5965  -20.3898  -12.2167 O   0  0  0  0  0  0  0  0  0  0  0  0
   23.8816  -19.2845  -12.7204 O   0  0  0  0  0  0  0  0  0  0  0  0
   17.4881  -17.9778  -17.6874 C   0  0  0  0  0  0  0  0  0  0  0  0
   18.4431  -18.5730  -16.8737 C   0  0  0  0  0  0  0  0  0  0  0  0
   19.4389  -17.8022  -16.3167 C   0  0  0  0  0  0  0  0  0  0  0  0
   20.4115  -18.3570  -15.4989 C   0  0  0  0  0  0  0  0  0  0  0  0
   20.4286  -19.7051  -15.2047 C   0  0  0  0  0  0  0  0  0  0  0  0
   21.4775  -20.2757  -14.3405 C   0  0  1  0  0  0  0  0  0  0  0  0
   21.1703  -20.1963  -12.8633 N   0  0  0  0  0  0  0  0  0  0  0  0
   22.2768  -20.9037  -12.1915 C   0  0  0  0  0  0  0  0  0  0  0  0
   19.8991  -20.9174  -12.6039 O   0  0  0  0  0  0  0  0  0  0  0  0
   19.7885  -22.1525  -12.6101 C   0  0  0  0  0  0  0  0  0  0  0  0
   19.4255  -20.4849  -15.7650 C   0  0  0  0  0  0  0  0  0  0  0  0
   18.4673  -19.9178  -16.5746 O   0  0  0  0  0  0  0  0  0  0  0  0
  2  1  1  0
  3  2  2  0
  4  2  1  0
  5  4  1  0
  6  5  1  0
  7  6  1  0
  8  7  1  0
  8  9  1  6
 10  8  1  0
 11 10  2  0
 12 10  1  0
 12 16  1  0
 13 14  1  0
 13 12  1  0
 14 15  1  0
 15 16  1  0
 16 17  1  1
 17 18  2  0
 19 20  1  0
 20 30  2  0
 21 20  1  0
 21 22  2  0
 22 23  1  0
 23 29  2  0
 23 24  1  0
 25 24  1  1
 25 27  1  0
 26 17  1  0
 26 25  1  0
 27 28  2  0
 27 31  1  0
 30 29  1  0
M  END
$$$$
