RPY.pdb
     RDKit          3D

 31 32  0  0  1  0  0  0  0  0999 V2000
   26.9192  -22.1153  -18.6467 N   0  0  0  0  0  0  0  0  0  0  0  0
   27.9609  -22.9888  -18.2997 C   0  0  0  0  0  0  0  0  0  0  0  0
   28.5343  -23.6927  -19.1978 N   0  0  0  0  0  0  0  0  0  0  0  0
   28.3926  -23.1051  -16.9529 N   0  0  0  0  0  0  0  0  0  0  0  0
   27.8043  -22.2903  -15.8867 C   0  0  0  0  0  0  0  0  0  0  0  0
   26.8103  -23.1533  -15.1916 C   0  0  0  0  0  0  0  0  0  0  0  0
   25.5530  -22.5133  -14.7441 C   0  0  0  0  0  0  0  0  0  0  0  0
   25.6863  -21.4822  -13.6550 C   0  0  2  0  0  0  0  0  0  0  0  0
   25.1903  -21.9459  -12.3927 N   0  0  0  0  0  0  0  0  0  0  0  0
   25.2296  -20.1563  -14.0686 C   0  0  0  0  0  0  0  0  0  0  0  0
   24.0238  -19.8691  -13.8560 O   0  0  0  0  0  0  0  0  0  0  0  0
   29.3371  -24.2806  -18.9662 N   0  0  0  0  0  0  0  0  0  0  0  0
   26.0421  -19.1464  -14.7005 C   0  0  0  0  0  0  0  0  0  0  0  0
   27.4632  -19.2668  -14.8671 C   0  0  0  0  0  0  0  0  0  0  0  0
   27.9179  -17.8689  -15.2864 C   0  0  0  0  0  0  0  0  0  0  0  0
   26.7218  -17.3297  -16.0295 C   0  0  2  0  0  0  0  0  0  0  0  0
   25.5893  -17.8940  -15.2301 C   0  0  0  0  0  0  0  0  0  0  0  0
   24.4483  -18.0613  -16.1783 O   0  0  0  0  0  0  0  0  0  0  0  0
   24.4195  -19.0847  -16.8916 O   0  0  0  0  0  0  0  0  0  0  0  0
   19.9402  -22.0728  -13.6399 C   0  0  0  0  0  0  0  0  0  0  0  0
   20.2179  -20.8932  -14.3179 C   0  0  0  0  0  0  0  0  0  0  0  0
   20.3931  -19.7257  -13.6092 C   0  0  0  0  0  0  0  0  0  0  0  0
   20.6716  -18.5267  -14.2474 C   0  0  0  0  0  0  0  0  0  0  0  0
   20.7859  -18.4456  -15.6202 C   0  0  0  0  0  0  0  0  0  0  0  0
   21.0732  -17.1586  -16.2789 C   0  0  2  0  0  0  0  0  0  0  0  0
   22.3032  -17.1757  -17.1561 N   0  0  0  0  0  0  0  0  0  0  0  0
   23.4479  -17.0601  -16.2329 C   0  0  0  0  0  0  0  0  0  0  0  0
   22.2687  -15.9870  -18.0444 O   0  0  0  0  0  0  0  0  0  0  0  0
   22.9418  -14.9623  -17.8585 C   0  0  0  0  0  0  0  0  0  0  0  0
   20.6098  -19.6215  -16.3374 C   0  0  0  0  0  0  0  0  0  0  0  0
   20.3341  -20.8035  -15.6879 O   0  0  0  0  0  0  0  0  0  0  0  0
  2  1  1  0
  3  2  2  0
  4  2  1  0
  5  4  1  0
  6  5  1  0
  7  6  1  0
  8  7  1  0
  8  9  1  1
 10  8  1  0
 11 10  2  0
 12 10  1  0
 12 16  1  0
 13 14  1  0
 13 12  1  0
 14 15  1  0
 15 16  1  0
 16 17  1  6
 17 18  2  0
 19 20  1  0
 20 30  2  0
 21 20  1  0
 21 22  2  0
 22 23  1  0
 23 29  2  0
 23 24  1  0
 25 24  1  1
 25 27  1  0
 26 17  1  0
 26 25  1  0
 27 28  2  0
 27 31  1  0
 30 29  1  0
M  END
$$$$
