RPY.pdb
     RDKit          3D

 31 32  0  0  1  0  0  0  0  0999 V2000
   23.2375  -20.0127  -19.3461 N   0  0  0  0  0  0  0  0  0  0  0  0
   23.5461  -18.8187  -20.0151 C   0  0  0  0  0  0  0  0  0  0  0  0
   22.8017  -18.4053  -20.9669 N   0  0  0  0  0  0  0  0  0  0  0  0
   24.6843  -18.0545  -19.6486 N   0  0  0  0  0  0  0  0  0  0  0  0
   25.5397  -18.4447  -18.5249 C   0  0  0  0  0  0  0  0  0  0  0  0
   24.8772  -17.9395  -17.2911 C   0  0  0  0  0  0  0  0  0  0  0  0
   24.7422  -18.8839  -16.1595 C   0  0  0  0  0  0  0  0  0  0  0  0
   25.5442  -20.1545  -16.2585 C   0  0  2  0  0  0  0  0  0  0  0  0
   24.9464  -21.1170  -17.1364 N   0  0  0  0  0  0  0  0  0  0  0  0
   25.9689  -20.6615  -14.9547 C   0  0  0  0  0  0  0  0  0  0  0  0
   25.1263  -21.3143  -14.2871 O   0  0  0  0  0  0  0  0  0  0  0  0
   23.0207  -17.5386  -21.4617 N   0  0  0  0  0  0  0  0  0  0  0  0
   27.2721  -20.4787  -14.3652 C   0  0  0  0  0  0  0  0  0  0  0  0
   28.3921  -19.9332  -15.0794 C   0  0  0  0  0  0  0  0  0  0  0  0
   29.5935  -20.2146  -14.1773 C   0  0  0  0  0  0  0  0  0  0  0  0
   28.9957  -20.1834  -12.7933 C   0  0  2  0  0  0  0  0  0  0  0  0
   27.6590  -20.8149  -13.0268 C   0  0  0  0  0  0  0  0  0  0  0  0
   26.7355  -20.2320  -12.0088 O   0  0  0  0  0  0  0  0  0  0  0  0
   26.3083  -19.0744  -12.1943 O   0  0  0  0  0  0  0  0  0  0  0  0
   20.7336  -20.3478  -13.9091 C   0  0  0  0  0  0  0  0  0  0  0  0
   21.6070  -20.5195  -12.8434 C   0  0  0  0  0  0  0  0  0  0  0  0
   22.5514  -21.5204  -12.8915 C   0  0  0  0  0  0  0  0  0  0  0  0
   23.4420  -21.7257  -11.8489 C   0  0  0  0  0  0  0  0  0  0  0  0
   23.4249  -20.9390  -10.7152 C   0  0  0  0  0  0  0  0  0  0  0  0
   24.3748  -21.1808   -9.6144 C   0  0  2  0  0  0  0  0  0  0  0  0
   25.6679  -20.4086   -9.7349 N   0  0  0  0  0  0  0  0  0  0  0  0
   26.3807  -21.0085  -10.8785 C   0  0  0  0  0  0  0  0  0  0  0  0
   26.4622  -20.6180   -8.4985 O   0  0  0  0  0  0  0  0  0  0  0  0
   27.5041  -21.2885   -8.4487 C   0  0  0  0  0  0  0  0  0  0  0  0
   22.4736  -19.9288  -10.6640 C   0  0  0  0  0  0  0  0  0  0  0  0
   21.5969  -19.7385  -11.7082 O   0  0  0  0  0  0  0  0  0  0  0  0
  2  1  1  0
  3  2  2  0
  4  2  1  0
  5  4  1  0
  6  5  1  0
  7  6  1  0
  8  7  1  0
  8  9  1  1
 10  8  1  0
 11 10  2  0
 12 10  1  0
 12 16  1  0
 13 14  1  0
 13 12  1  0
 14 15  1  0
 15 16  1  0
 16 17  1  1
 17 18  2  0
 19 20  1  0
 20 30  2  0
 21 20  1  0
 21 22  2  0
 22 23  1  0
 23 29  2  0
 23 24  1  0
 25 24  1  6
 25 27  1  0
 26 17  1  0
 26 25  1  0
 27 28  2  0
 27 31  1  0
 30 29  1  0
M  END
$$$$
