NHE.pdb
     RDKit          3D

 28 28  0  0  1  0  0  0  0  0999 V2000
   13.2889  -14.0622  -15.8242 N   0  0  0  0  0  0  0  0  0  0  0  0
   13.0048  -12.9201  -14.9819 C   0  0  0  0  0  0  0  0  0  0  0  0
   11.7930  -12.6730  -14.7525 O   0  0  0  0  0  0  0  0  0  0  0  0
   14.0988  -12.1085  -14.4375 C   0  0  0  0  0  0  0  0  0  0  0  0
   15.4436  -12.5568  -14.9236 C   0  0  2  0  0  0  0  0  0  0  0  0
   15.7233  -13.8443  -14.2757 N   0  0  0  0  0  0  0  0  0  0  0  0
   16.5420  -11.6352  -14.4719 C   0  0  0  0  0  0  0  0  0  0  0  0
   16.8423  -11.5551  -13.2570 O   0  0  0  0  0  0  0  0  0  0  0  0
   17.2639  -10.8374  -15.3918 N   0  0  0  0  0  0  0  0  0  0  0  0
   18.1856   -9.8177  -15.0368 C   0  0  1  0  0  0  0  0  0  0  0  0
   19.2690   -9.5595  -16.0565 C   0  0  0  0  0  0  0  0  0  0  0  0
   20.2355   -8.5292  -15.5627 C   0  0  0  0  0  0  0  0  0  0  0  0
   21.2887   -8.6963  -14.6924 C   0  0  0  0  0  0  0  0  0  0  0  0
   21.8917   -7.4889  -14.5320 N   0  0  0  0  0  0  0  0  0  0  0  0
   21.2520   -6.5753  -15.2711 C   0  0  0  0  0  0  0  0  0  0  0  0
   20.2432   -7.2203  -15.8962 N   0  0  0  0  0  0  0  0  0  0  0  0
   17.5538   -8.5095  -14.6542 C   0  0  0  0  0  0  0  0  0  0  0  0
   16.5678   -8.0805  -15.3017 O   0  0  0  0  0  0  0  0  0  0  0  0
   18.0183   -7.7321  -13.5917 N   0  0  0  0  0  0  0  0  0  0  0  0
   17.4090   -6.4300  -13.1999 C   0  0  1  0  0  0  0  0  0  0  0  0
   17.0759   -6.5785  -11.7550 C   0  0  0  0  0  0  0  0  0  0  0  0
   16.6349   -5.4262  -10.9668 C   0  0  0  0  0  0  0  0  0  0  0  0
   16.3644   -5.5807   -9.5511 C   0  0  0  0  0  0  0  0  0  0  0  0
   16.5161   -6.6178   -8.8731 O   0  0  0  0  0  0  0  0  0  0  0  0
   18.3605   -5.3850  -13.4970 C   0  0  0  0  0  0  0  0  0  0  0  0
   19.6186   -5.5547  -13.5558 O   0  0  0  0  0  0  0  0  0  0  0  0
   15.8794   -4.4546   -8.8528 O   0  0  0  0  0  0  0  0  0  0  0  0
   17.9273   -4.0926  -13.7429 O   0  0  0  0  0  0  0  0  0  0  0  0
  2  1  1  0
  2  3  2  0
  4  2  1  0
  5  4  1  0
  5  6  1  1
  7  5  1  0
  7  8  2  0
  9  7  1  0
 10 17  1  0
 10  9  1  0
 10 11  1  6
 12 11  1  0
 12 16  1  0
 13 14  1  0
 13 12  2  0
 14 15  1  0
 15 16  2  0
 17 19  1  0
 18 17  2  0
 19 20  1  0
 20 25  1  0
 20 21  1  1
 22 21  1  0
 23 22  1  0
 24 23  2  0
 25 26  2  0
 25 28  1  0
 27 23  1  0
M  END
$$$$
