NHE.pdb
     RDKit          3D

 28 28  0  0  1  0  0  0  0  0999 V2000
   35.4300  -39.3940   -7.8891 N   0  0  0  0  0  0  0  0  0  0  0  0
   35.8087  -39.2679   -6.4981 C   0  0  0  0  0  0  0  0  0  0  0  0
   36.6085  -40.1284   -6.0486 O   0  0  0  0  0  0  0  0  0  0  0  0
   35.2685  -38.1788   -5.6772 C   0  0  0  0  0  0  0  0  0  0  0  0
   34.3620  -37.2709   -6.4517 C   0  0  2  0  0  0  0  0  0  0  0  0
   35.2213  -36.4211   -7.2855 N   0  0  0  0  0  0  0  0  0  0  0  0
   33.6128  -36.3244   -5.5556 C   0  0  0  0  0  0  0  0  0  0  0  0
   34.1065  -35.9638   -4.4607 O   0  0  0  0  0  0  0  0  0  0  0  0
   32.3413  -35.8160   -5.9140 N   0  0  0  0  0  0  0  0  0  0  0  0
   31.5677  -34.9265   -5.1231 C   0  0  1  0  0  0  0  0  0  0  0  0
   30.7020  -33.9700   -5.9078 C   0  0  0  0  0  0  0  0  0  0  0  0
   31.5394  -33.0024   -6.6838 C   0  0  0  0  0  0  0  0  0  0  0  0
   32.9121  -32.9234   -6.7477 C   0  0  0  0  0  0  0  0  0  0  0  0
   33.2316  -31.8938   -7.5754 N   0  0  0  0  0  0  0  0  0  0  0  0
   32.1073  -31.3283   -8.0295 C   0  0  0  0  0  0  0  0  0  0  0  0
   31.0805  -32.0121   -7.4796 N   0  0  0  0  0  0  0  0  0  0  0  0
   30.7280  -35.5943   -4.0714 C   0  0  0  0  0  0  0  0  0  0  0  0
   30.1091  -36.6512   -4.3462 O   0  0  0  0  0  0  0  0  0  0  0  0
   30.6001  -35.0872   -2.7770 N   0  0  0  0  0  0  0  0  0  0  0  0
   29.9388  -35.8290   -1.6667 C   0  0  1  0  0  0  0  0  0  0  0  0
   30.7515  -37.0657   -1.4905 C   0  0  0  0  0  0  0  0  0  0  0  0
   30.5158  -37.9601   -0.3555 C   0  0  0  0  0  0  0  0  0  0  0  0
   29.4131  -38.9001   -0.3939 C   0  0  0  0  0  0  0  0  0  0  0  0
   28.2361  -38.6819   -0.0398 O   0  0  0  0  0  0  0  0  0  0  0  0
   29.8990  -34.9619   -0.5126 C   0  0  0  0  0  0  0  0  0  0  0  0
   30.6650  -33.9629   -0.3380 O   0  0  0  0  0  0  0  0  0  0  0  0
   29.6793  -40.1987   -0.8775 O   0  0  0  0  0  0  0  0  0  0  0  0
   28.9837  -35.1881    0.5020 O   0  0  0  0  0  0  0  0  0  0  0  0
  2  1  1  0
  2  3  2  0
  4  2  1  0
  5  4  1  0
  5  6  1  6
  7  5  1  0
  7  8  2  0
  9  7  1  0
 10 17  1  0
 10  9  1  0
 10 11  1  6
 12 11  1  0
 12 16  1  0
 13 14  1  0
 13 12  2  0
 14 15  1  0
 15 16  2  0
 17 19  1  0
 18 17  2  0
 19 20  1  0
 20 25  1  0
 20 21  1  1
 22 21  1  0
 23 22  1  0
 24 23  2  0
 25 26  2  0
 25 28  1  0
 27 23  1  0
M  END
$$$$
