NHE.pdb
     RDKit          3D

 28 28  0  0  1  0  0  0  0  0999 V2000
   20.6701  -12.4467  -20.3036 N   0  0  0  0  0  0  0  0  0  0  0  0
   19.8201  -11.6615  -19.4346 C   0  0  0  0  0  0  0  0  0  0  0  0
   18.5864  -11.6822  -19.6794 O   0  0  0  0  0  0  0  0  0  0  0  0
   20.3987  -10.8883  -18.3304 C   0  0  0  0  0  0  0  0  0  0  0  0
   21.8971  -10.9173  -18.3321 C   0  0  2  0  0  0  0  0  0  0  0  0
   22.2968  -12.2924  -18.0076 N   0  0  0  0  0  0  0  0  0  0  0  0
   22.4785  -10.0638  -17.2396 C   0  0  0  0  0  0  0  0  0  0  0  0
   21.8680   -9.9224  -16.1534 O   0  0  0  0  0  0  0  0  0  0  0  0
   23.7184   -9.4000  -17.3996 N   0  0  0  0  0  0  0  0  0  0  0  0
   24.3011   -8.5229  -16.4474 C   0  0  1  0  0  0  0  0  0  0  0  0
   25.8103   -8.5454  -16.4053 C   0  0  0  0  0  0  0  0  0  0  0  0
   26.3193   -9.9318  -16.1633 C   0  0  0  0  0  0  0  0  0  0  0  0
   25.5929  -11.0867  -15.9810 C   0  0  0  0  0  0  0  0  0  0  0  0
   26.4721  -12.1065  -15.7962 N   0  0  0  0  0  0  0  0  0  0  0  0
   27.7203  -11.6286  -15.8569 C   0  0  0  0  0  0  0  0  0  0  0  0
   27.6161  -10.3007  -16.0813 N   0  0  0  0  0  0  0  0  0  0  0  0
   23.8366   -7.0975  -16.5443 C   0  0  0  0  0  0  0  0  0  0  0  0
   23.9440   -6.4794  -17.6315 O   0  0  0  0  0  0  0  0  0  0  0  0
   23.2795   -6.4128  -15.4627 N   0  0  0  0  0  0  0  0  0  0  0  0
   22.6231   -5.0807  -15.5850 C   0  0  1  0  0  0  0  0  0  0  0  0
   21.5225   -5.2811  -16.5695 C   0  0  0  0  0  0  0  0  0  0  0  0
   20.5228   -4.2359  -16.7968 C   0  0  0  0  0  0  0  0  0  0  0  0
   19.4327   -4.4688  -17.7234 C   0  0  0  0  0  0  0  0  0  0  0  0
   19.4748   -4.3565  -18.9659 O   0  0  0  0  0  0  0  0  0  0  0  0
   22.1905   -4.6742  -14.2685 C   0  0  0  0  0  0  0  0  0  0  0  0
   22.1045   -5.4535  -13.2683 O   0  0  0  0  0  0  0  0  0  0  0  0
   18.1901   -4.8628  -17.1831 O   0  0  0  0  0  0  0  0  0  0  0  0
   21.8339   -3.3585  -14.0237 O   0  0  0  0  0  0  0  0  0  0  0  0
  2  1  1  0
  2  3  2  0
  4  2  1  0
  5  4  1  0
  5  6  1  1
  7  5  1  0
  7  8  2  0
  9  7  1  0
 10 17  1  0
 10  9  1  0
 10 11  1  6
 12 11  1  0
 12 16  1  0
 13 14  1  0
 13 12  2  0
 14 15  1  0
 15 16  2  0
 17 19  1  0
 18 17  2  0
 19 20  1  0
 20 25  1  0
 20 21  1  6
 22 21  1  0
 23 22  1  0
 24 23  2  0
 25 26  2  0
 25 28  1  0
 27 23  1  0
M  END
$$$$
