NHE.pdb
     RDKit          3D

 28 28  0  0  1  0  0  0  0  0999 V2000
   18.8973  -13.1885  -17.6053 N   0  0  0  0  0  0  0  0  0  0  0  0
   19.7931  -13.6713  -16.5763 C   0  0  0  0  0  0  0  0  0  0  0  0
   19.4934  -14.7650  -16.0320 O   0  0  0  0  0  0  0  0  0  0  0  0
   20.9848  -12.8996  -16.2072 C   0  0  0  0  0  0  0  0  0  0  0  0
   21.0998  -11.6179  -16.9752 C   0  0  2  0  0  0  0  0  0  0  0  0
   21.8840  -11.9127  -18.1810 N   0  0  0  0  0  0  0  0  0  0  0  0
   21.8916  -10.5818  -16.2271 C   0  0  0  0  0  0  0  0  0  0  0  0
   21.5150  -10.1910  -15.0967 O   0  0  0  0  0  0  0  0  0  0  0  0
   23.0731  -10.0204  -16.7679 N   0  0  0  0  0  0  0  0  0  0  0  0
   23.8481   -9.0039  -16.1502 C   0  0  1  0  0  0  0  0  0  0  0  0
   25.3256   -9.0587  -16.4570 C   0  0  0  0  0  0  0  0  0  0  0  0
   25.9081  -10.3772  -16.0549 C   0  0  0  0  0  0  0  0  0  0  0  0
   25.2841  -11.4261  -15.4184 C   0  0  0  0  0  0  0  0  0  0  0  0
   26.1989  -12.4182  -15.2565 N   0  0  0  0  0  0  0  0  0  0  0  0
   27.3705  -12.0251  -15.7692 C   0  0  0  0  0  0  0  0  0  0  0  0
   27.1824  -10.7785  -16.2538 N   0  0  0  0  0  0  0  0  0  0  0  0
   23.3513   -7.6065  -16.3899 C   0  0  0  0  0  0  0  0  0  0  0  0
   23.1891   -7.1955  -17.5648 O   0  0  0  0  0  0  0  0  0  0  0  0
   23.0544   -6.7248  -15.3490 N   0  0  0  0  0  0  0  0  0  0  0  0
   22.4382   -5.3845  -15.5594 C   0  0  1  0  0  0  0  0  0  0  0  0
   21.0778   -5.6651  -16.0990 C   0  0  0  0  0  0  0  0  0  0  0  0
   20.0102   -6.1489  -15.2216 C   0  0  0  0  0  0  0  0  0  0  0  0
   18.6752   -6.3470  -15.7504 C   0  0  0  0  0  0  0  0  0  0  0  0
   17.9470   -5.4807  -16.2772 O   0  0  0  0  0  0  0  0  0  0  0  0
   22.4555   -4.6827  -14.2975 C   0  0  0  0  0  0  0  0  0  0  0  0
   22.8532   -5.1867  -13.2007 O   0  0  0  0  0  0  0  0  0  0  0  0
   18.1273   -7.6449  -15.6694 O   0  0  0  0  0  0  0  0  0  0  0  0
   22.0207   -3.3699  -14.2202 O   0  0  0  0  0  0  0  0  0  0  0  0
  2  1  1  0
  2  3  2  0
  4  2  1  0
  5  4  1  0
  5  6  1  6
  7  5  1  0
  7  8  2  0
  9  7  1  0
 10 17  1  0
 10  9  1  0
 10 11  1  6
 12 11  1  0
 12 16  1  0
 13 14  1  0
 13 12  2  0
 14 15  1  0
 15 16  2  0
 17 19  1  0
 18 17  2  0
 19 20  1  0
 20 25  1  0
 20 21  1  1
 22 21  1  0
 23 22  1  0
 24 23  2  0
 25 26  2  0
 25 28  1  0
 27 23  1  0
M  END
$$$$
