NHE.pdb
     RDKit          3D

 28 28  0  0  1  0  0  0  0  0999 V2000
   26.9039  -32.3122   -8.7902 N   0  0  0  0  0  0  0  0  0  0  0  0
   26.3332  -32.6402   -7.5013 C   0  0  0  0  0  0  0  0  0  0  0  0
   25.3095  -31.9966   -7.1548 O   0  0  0  0  0  0  0  0  0  0  0  0
   26.9425  -33.6772   -6.6616 C   0  0  0  0  0  0  0  0  0  0  0  0
   28.1964  -34.2383   -7.2607 C   0  0  2  0  0  0  0  0  0  0  0  0
   27.7940  -35.3618   -8.1160 N   0  0  0  0  0  0  0  0  0  0  0  0
   29.1015  -34.8337   -6.2184 C   0  0  0  0  0  0  0  0  0  0  0  0
   29.5897  -35.9771   -6.3817 O   0  0  0  0  0  0  0  0  0  0  0  0
   29.4278  -34.1318   -5.0333 N   0  0  0  0  0  0  0  0  0  0  0  0
   30.1635  -34.6698   -3.9448 C   0  0  1  0  0  0  0  0  0  0  0  0
   31.5749  -34.1493   -3.8148 C   0  0  0  0  0  0  0  0  0  0  0  0
   32.0960  -33.6771   -5.1359 C   0  0  0  0  0  0  0  0  0  0  0  0
   31.4409  -33.6381   -6.3459 C   0  0  0  0  0  0  0  0  0  0  0  0
   32.3016  -33.1338   -7.2690 N   0  0  0  0  0  0  0  0  0  0  0  0
   33.4695  -32.8572   -6.6777 C   0  0  0  0  0  0  0  0  0  0  0  0
   33.3336  -33.1922   -5.3763 N   0  0  0  0  0  0  0  0  0  0  0  0
   29.4782  -34.5604   -2.6123 C   0  0  0  0  0  0  0  0  0  0  0  0
   28.6426  -33.6449   -2.4144 O   0  0  0  0  0  0  0  0  0  0  0  0
   29.7297  -35.4453   -1.5623 N   0  0  0  0  0  0  0  0  0  0  0  0
   29.0400  -35.3710   -0.2435 C   0  0  1  0  0  0  0  0  0  0  0  0
   28.2292  -36.6185   -0.1607 C   0  0  0  0  0  0  0  0  0  0  0  0
   27.3515  -36.8655    0.9849 C   0  0  0  0  0  0  0  0  0  0  0  0
   27.6180  -37.9811    1.8712 C   0  0  0  0  0  0  0  0  0  0  0  0
   28.4862  -38.8645    1.7158 O   0  0  0  0  0  0  0  0  0  0  0  0
   30.0493  -35.2364    0.7806 C   0  0  0  0  0  0  0  0  0  0  0  0
   31.2331  -35.6890    0.6862 O   0  0  0  0  0  0  0  0  0  0  0  0
   26.8244  -38.0960    3.0323 O   0  0  0  0  0  0  0  0  0  0  0  0
   29.7617  -34.5787    1.9651 O   0  0  0  0  0  0  0  0  0  0  0  0
  2  1  1  0
  2  3  2  0
  4  2  1  0
  5  4  1  0
  5  6  1  6
  7  5  1  0
  7  8  2  0
  9  7  1  0
 10 17  1  0
 10  9  1  0
 10 11  1  1
 12 11  1  0
 12 16  1  0
 13 14  1  0
 13 12  2  0
 14 15  1  0
 15 16  2  0
 17 19  1  0
 18 17  2  0
 19 20  1  0
 20 25  1  0
 20 21  1  1
 22 21  1  0
 23 22  1  0
 24 23  2  0
 25 26  2  0
 25 28  1  0
 27 23  1  0
M  END
$$$$
