NHE.pdb
     RDKit          3D

 28 28  0  0  1  0  0  0  0  0999 V2000
   25.1994  -13.3320  -19.9187 N   0  0  0  0  0  0  0  0  0  0  0  0
   24.0491  -12.8829  -20.6732 C   0  0  0  0  0  0  0  0  0  0  0  0
   23.8979  -13.3740  -21.8213 O   0  0  0  0  0  0  0  0  0  0  0  0
   23.1224  -11.9007  -20.1002 C   0  0  0  0  0  0  0  0  0  0  0  0
   23.6110  -11.3411  -18.7986 C   0  0  2  0  0  0  0  0  0  0  0  0
   23.7045  -12.4661  -17.8597 N   0  0  0  0  0  0  0  0  0  0  0  0
   22.6199  -10.3910  -18.1863 C   0  0  0  0  0  0  0  0  0  0  0  0
   22.2962   -9.3390  -18.7871 O   0  0  0  0  0  0  0  0  0  0  0  0
   22.0276  -10.6494  -16.9269 N   0  0  0  0  0  0  0  0  0  0  0  0
   21.1070   -9.7921  -16.2688 C   0  0  1  0  0  0  0  0  0  0  0  0
   20.1478  -10.4897  -15.3344 C   0  0  0  0  0  0  0  0  0  0  0  0
   19.2588   -9.5033  -14.6443 C   0  0  0  0  0  0  0  0  0  0  0  0
   19.2693   -9.1269  -13.3204 C   0  0  0  0  0  0  0  0  0  0  0  0
   18.2870   -8.2047  -13.1420 N   0  0  0  0  0  0  0  0  0  0  0  0
   17.6647   -7.9929  -14.3073 C   0  0  0  0  0  0  0  0  0  0  0  0
   18.2652   -8.7900  -15.2175 N   0  0  0  0  0  0  0  0  0  0  0  0
   21.7369   -8.6348  -15.5471 C   0  0  0  0  0  0  0  0  0  0  0  0
   22.7024   -8.8354  -14.7705 O   0  0  0  0  0  0  0  0  0  0  0  0
   21.2924   -7.3204  -15.7012 N   0  0  0  0  0  0  0  0  0  0  0  0
   21.8753   -6.1651  -14.9623 C   0  0  1  0  0  0  0  0  0  0  0  0
   21.7832   -5.0162  -15.9068 C   0  0  0  0  0  0  0  0  0  0  0  0
   22.1670   -3.6679  -15.4843 C   0  0  0  0  0  0  0  0  0  0  0  0
   22.0049   -2.5522  -16.3954 C   0  0  0  0  0  0  0  0  0  0  0  0
   21.6747   -2.6148  -17.5976 O   0  0  0  0  0  0  0  0  0  0  0  0
   21.1323   -6.0001  -13.7350 C   0  0  0  0  0  0  0  0  0  0  0  0
   19.8978   -6.2706  -13.6008 O   0  0  0  0  0  0  0  0  0  0  0  0
   22.2407   -1.2565  -15.8887 O   0  0  0  0  0  0  0  0  0  0  0  0
   21.7580   -5.5188  -12.5969 O   0  0  0  0  0  0  0  0  0  0  0  0
  2  1  1  0
  2  3  2  0
  4  2  1  0
  5  4  1  0
  5  6  1  1
  7  5  1  0
  7  8  2  0
  9  7  1  0
 10 17  1  0
 10  9  1  0
 10 11  1  1
 12 11  1  0
 12 16  1  0
 13 14  1  0
 13 12  2  0
 14 15  1  0
 15 16  2  0
 17 19  1  0
 18 17  2  0
 19 20  1  0
 20 25  1  0
 20 21  1  6
 22 21  1  0
 23 22  1  0
 24 23  2  0
 25 26  2  0
 25 28  1  0
 27 23  1  0
M  END
$$$$
