NHE.pdb
     RDKit          3D

 28 28  0  0  1  0  0  0  0  0999 V2000
   11.1636  -15.4032    4.3935 N   0  0  0  0  0  0  0  0  0  0  0  0
   10.8331  -16.7014    3.8459 C   0  0  0  0  0  0  0  0  0  0  0  0
    9.6542  -16.8602    3.4370 O   0  0  0  0  0  0  0  0  0  0  0  0
   11.8455  -17.7612    3.7848 C   0  0  0  0  0  0  0  0  0  0  0  0
   13.1769  -17.3147    4.3083 C   0  0  2  0  0  0  0  0  0  0  0  0
   13.9074  -16.7343    3.1747 N   0  0  0  0  0  0  0  0  0  0  0  0
   14.0160  -18.4718    4.7742 C   0  0  0  0  0  0  0  0  0  0  0  0
   13.6372  -19.1828    5.7351 O   0  0  0  0  0  0  0  0  0  0  0  0
   15.2460  -18.7922    4.1512 N   0  0  0  0  0  0  0  0  0  0  0  0
   16.0919  -19.8692    4.5253 C   0  0  1  0  0  0  0  0  0  0  0  0
   16.9773  -20.3932    3.4200 C   0  0  0  0  0  0  0  0  0  0  0  0
   16.1644  -21.0424    2.3442 C   0  0  0  0  0  0  0  0  0  0  0  0
   15.5755  -22.2864    2.3542 C   0  0  0  0  0  0  0  0  0  0  0  0
   14.9375  -22.4545    1.1659 N   0  0  0  0  0  0  0  0  0  0  0  0
   15.1077  -21.3597    0.4158 C   0  0  0  0  0  0  0  0  0  0  0  0
   15.8576  -20.5042    1.1439 N   0  0  0  0  0  0  0  0  0  0  0  0
   16.9328  -19.6097    5.7428 C   0  0  0  0  0  0  0  0  0  0  0  0
   17.3989  -18.4620    5.9455 O   0  0  0  0  0  0  0  0  0  0  0  0
   17.2269  -20.6024    6.6794 N   0  0  0  0  0  0  0  0  0  0  0  0
   18.1202  -20.3854    7.8520 C   0  0  1  0  0  0  0  0  0  0  0  0
   17.5424  -21.2256    8.9387 C   0  0  0  0  0  0  0  0  0  0  0  0
   18.1583  -21.2585   10.2666 C   0  0  0  0  0  0  0  0  0  0  0  0
   17.5602  -22.0540   11.3203 C   0  0  0  0  0  0  0  0  0  0  0  0
   16.3463  -22.1230   11.6034 O   0  0  0  0  0  0  0  0  0  0  0  0
   19.4638  -20.7423    7.4611 C   0  0  0  0  0  0  0  0  0  0  0  0
   20.5158  -20.2196    7.9462 O   0  0  0  0  0  0  0  0  0  0  0  0
   18.4231  -22.8359   12.1174 O   0  0  0  0  0  0  0  0  0  0  0  0
   19.6781  -21.7138    6.4974 O   0  0  0  0  0  0  0  0  0  0  0  0
  2  1  1  0
  2  3  2  0
  4  2  1  0
  5  4  1  0
  5  6  1  6
  7  5  1  0
  7  8  2  0
  9  7  1  0
 10 17  1  0
 10  9  1  0
 10 11  1  6
 12 11  1  0
 12 16  1  0
 13 14  1  0
 13 12  2  0
 14 15  1  0
 15 16  2  0
 17 19  1  0
 18 17  2  0
 19 20  1  0
 20 25  1  0
 20 21  1  1
 22 21  1  0
 23 22  1  0
 24 23  2  0
 25 26  2  0
 25 28  1  0
 27 23  1  0
M  END
$$$$
