NHE.pdb
     RDKit          3D

 28 28  0  0  1  0  0  0  0  0999 V2000
   27.1219  -22.0302  -10.1413 N   0  0  0  0  0  0  0  0  0  0  0  0
   26.5397  -20.7678   -9.7390 C   0  0  0  0  0  0  0  0  0  0  0  0
   26.8417  -20.3443   -8.5937 O   0  0  0  0  0  0  0  0  0  0  0  0
   25.6435  -20.0411  -10.6448 C   0  0  0  0  0  0  0  0  0  0  0  0
   25.3197  -20.8227  -11.8818 C   0  0  2  0  0  0  0  0  0  0  0  0
   26.5958  -21.1171  -12.5458 N   0  0  0  0  0  0  0  0  0  0  0  0
   24.5323  -20.0103  -12.8717 C   0  0  0  0  0  0  0  0  0  0  0  0
   23.4599  -19.4585  -12.5281 O   0  0  0  0  0  0  0  0  0  0  0  0
   24.9701  -19.8441  -14.2075 N   0  0  0  0  0  0  0  0  0  0  0  0
   24.2602  -19.1399  -15.2153 C   0  0  1  0  0  0  0  0  0  0  0  0
   24.9996  -18.9882  -16.5231 C   0  0  0  0  0  0  0  0  0  0  0  0
   24.2707  -18.0636  -17.4469 C   0  0  0  0  0  0  0  0  0  0  0  0
   23.0825  -17.4037  -17.2296 C   0  0  0  0  0  0  0  0  0  0  0  0
   22.8023  -16.6740  -18.3415 N   0  0  0  0  0  0  0  0  0  0  0  0
   23.7732  -16.8556  -19.2439 C   0  0  0  0  0  0  0  0  0  0  0  0
   24.6643  -17.7051  -18.6883 N   0  0  0  0  0  0  0  0  0  0  0  0
   22.8810  -19.6670  -15.4926 C   0  0  0  0  0  0  0  0  0  0  0  0
   22.7155  -20.8900  -15.7215 O   0  0  0  0  0  0  0  0  0  0  0  0
   21.7513  -18.8469  -15.5079 N   0  0  0  0  0  0  0  0  0  0  0  0
   20.3793  -19.3456  -15.8064 C   0  0  1  0  0  0  0  0  0  0  0  0
   19.6603  -19.3030  -14.5019 C   0  0  0  0  0  0  0  0  0  0  0  0
   20.0013  -20.2391  -13.4289 C   0  0  0  0  0  0  0  0  0  0  0  0
   19.2627  -20.2081  -12.1821 C   0  0  0  0  0  0  0  0  0  0  0  0
   19.2996  -19.3087  -11.3171 O   0  0  0  0  0  0  0  0  0  0  0  0
   19.8139  -18.5060  -16.8364 C   0  0  0  0  0  0  0  0  0  0  0  0
   20.0946  -17.2767  -16.9954 O   0  0  0  0  0  0  0  0  0  0  0  0
   18.4110  -21.2975  -11.9009 O   0  0  0  0  0  0  0  0  0  0  0  0
   18.8998  -19.0240  -17.7388 O   0  0  0  0  0  0  0  0  0  0  0  0
  2  1  1  0
  2  3  2  0
  4  2  1  0
  5  4  1  0
  5  6  1  6
  7  5  1  0
  7  8  2  0
  9  7  1  0
 10 17  1  0
 10  9  1  0
 10 11  1  6
 12 11  1  0
 12 16  1  0
 13 14  1  0
 13 12  2  0
 14 15  1  0
 15 16  2  0
 17 19  1  0
 18 17  2  0
 19 20  1  0
 20 25  1  0
 20 21  1  1
 22 21  1  0
 23 22  1  0
 24 23  2  0
 25 26  2  0
 25 28  1  0
 27 23  1  0
M  END
$$$$
