NHE.pdb
     RDKit          3D

 28 28  0  0  1  0  0  0  0  0999 V2000
   25.0674  -16.1400  -17.4774 N   0  0  0  0  0  0  0  0  0  0  0  0
   23.6270  -16.2001  -17.3508 C   0  0  0  0  0  0  0  0  0  0  0  0
   23.0345  -15.1182  -17.1043 O   0  0  0  0  0  0  0  0  0  0  0  0
   22.9204  -17.4761  -17.5067 C   0  0  0  0  0  0  0  0  0  0  0  0
   23.8544  -18.6262  -17.7324 C   0  0  2  0  0  0  0  0  0  0  0  0
   23.6120  -19.1102  -19.0972 N   0  0  0  0  0  0  0  0  0  0  0  0
   23.5420  -19.7904  -16.8341 C   0  0  0  0  0  0  0  0  0  0  0  0
   22.9778  -20.8117  -17.2936 O   0  0  0  0  0  0  0  0  0  0  0  0
   23.8702  -19.7719  -15.4573 N   0  0  0  0  0  0  0  0  0  0  0  0
   23.6726  -20.8530  -14.5586 C   0  0  1  0  0  0  0  0  0  0  0  0
   24.8749  -21.2037  -13.7150 C   0  0  0  0  0  0  0  0  0  0  0  0
   26.0564  -21.5282  -14.5742 C   0  0  0  0  0  0  0  0  0  0  0  0
   26.4477  -22.7564  -15.0568 C   0  0  0  0  0  0  0  0  0  0  0  0
   27.5760  -22.5743  -15.7925 N   0  0  0  0  0  0  0  0  0  0  0  0
   27.9017  -21.2767  -15.7857 C   0  0  0  0  0  0  0  0  0  0  0  0
   26.9683  -20.6470  -15.0397 N   0  0  0  0  0  0  0  0  0  0  0  0
   22.4735  -20.7115  -13.6646 C   0  0  0  0  0  0  0  0  0  0  0  0
   22.3487  -19.6900  -12.9461 O   0  0  0  0  0  0  0  0  0  0  0  0
   21.4705  -21.6799  -13.5929 N   0  0  0  0  0  0  0  0  0  0  0  0
   20.2081  -21.4981  -12.8223 C   0  0  1  0  0  0  0  0  0  0  0  0
   19.5611  -20.2956  -13.4189 C   0  0  0  0  0  0  0  0  0  0  0  0
   18.2360  -19.8606  -12.9733 C   0  0  0  0  0  0  0  0  0  0  0  0
   17.0485  -20.3996  -13.6062 C   0  0  0  0  0  0  0  0  0  0  0  0
   15.9440  -20.6067  -13.0626 O   0  0  0  0  0  0  0  0  0  0  0  0
   19.4394  -22.7157  -12.9322 C   0  0  0  0  0  0  0  0  0  0  0  0
   18.5126  -23.0548  -12.1313 O   0  0  0  0  0  0  0  0  0  0  0  0
   17.1318  -20.7297  -14.9756 O   0  0  0  0  0  0  0  0  0  0  0  0
   19.6868  -23.6097  -13.9607 O   0  0  0  0  0  0  0  0  0  0  0  0
  2  1  1  0
  2  3  2  0
  4  2  1  0
  5  4  1  0
  5  6  1  6
  7  5  1  0
  7  8  2  0
  9  7  1  0
 10 17  1  0
 10  9  1  0
 10 11  1  1
 12 11  1  0
 12 16  1  0
 13 14  1  0
 13 12  2  0
 14 15  1  0
 15 16  2  0
 17 19  1  0
 18 17  2  0
 19 20  1  0
 20 25  1  0
 20 21  1  6
 22 21  1  0
 23 22  1  0
 24 23  2  0
 25 26  2  0
 25 28  1  0
 27 23  1  0
M  END
$$$$
