NHE.pdb
     RDKit          3D

 28 28  0  0  1  0  0  0  0  0999 V2000
   19.9949  -12.2464  -19.4703 N   0  0  0  0  0  0  0  0  0  0  0  0
   19.1699  -11.0955  -19.1720 C   0  0  0  0  0  0  0  0  0  0  0  0
   18.0525  -11.0354  -19.7465 O   0  0  0  0  0  0  0  0  0  0  0  0
   19.6418  -10.0648  -18.2410 C   0  0  0  0  0  0  0  0  0  0  0  0
   21.0324  -10.3287  -17.7485 C   0  0  2  0  0  0  0  0  0  0  0  0
   20.9456  -11.4556  -16.8113 N   0  0  0  0  0  0  0  0  0  0  0  0
   21.5725   -9.1799  -16.9432 C   0  0  0  0  0  0  0  0  0  0  0  0
   21.0385   -8.8636  -15.8535 O   0  0  0  0  0  0  0  0  0  0  0  0
   22.6873   -8.4269  -17.3834 N   0  0  0  0  0  0  0  0  0  0  0  0
   23.2289   -7.3026  -16.7066 C   0  0  1  0  0  0  0  0  0  0  0  0
   24.7370   -7.2275  -16.7085 C   0  0  0  0  0  0  0  0  0  0  0  0
   25.3358   -8.4602  -16.1073 C   0  0  0  0  0  0  0  0  0  0  0  0
   24.6872   -9.5697  -15.6144 C   0  0  0  0  0  0  0  0  0  0  0  0
   25.6313  -10.4407  -15.1703 N   0  0  0  0  0  0  0  0  0  0  0  0
   26.8450   -9.9139  -15.3688 C   0  0  0  0  0  0  0  0  0  0  0  0
   26.6537   -8.7054  -15.9410 N   0  0  0  0  0  0  0  0  0  0  0  0
   22.6737   -5.9789  -17.1501 C   0  0  0  0  0  0  0  0  0  0  0  0
   22.7509   -5.6435  -18.3572 O   0  0  0  0  0  0  0  0  0  0  0  0
   22.0632   -5.0857  -16.2678 N   0  0  0  0  0  0  0  0  0  0  0  0
   21.4243   -3.8113  -16.7018 C   0  0  1  0  0  0  0  0  0  0  0  0
   20.1700   -3.7164  -15.9027 C   0  0  0  0  0  0  0  0  0  0  0  0
   19.2815   -2.5607  -16.0397 C   0  0  0  0  0  0  0  0  0  0  0  0
   17.9091   -2.6468  -15.5813 C   0  0  0  0  0  0  0  0  0  0  0  0
   17.5252   -2.7741  -14.4003 O   0  0  0  0  0  0  0  0  0  0  0  0
   22.3670   -2.7408  -16.4771 C   0  0  0  0  0  0  0  0  0  0  0  0
   23.3227   -2.7890  -15.6407 O   0  0  0  0  0  0  0  0  0  0  0  0
   16.8905   -2.5823  -16.5558 O   0  0  0  0  0  0  0  0  0  0  0  0
   22.2697   -1.5599  -17.1945 O   0  0  0  0  0  0  0  0  0  0  0  0
  2  1  1  0
  2  3  2  0
  4  2  1  0
  5  4  1  0
  5  6  1  1
  7  5  1  0
  7  8  2  0
  9  7  1  0
 10 17  1  0
 10  9  1  0
 10 11  1  6
 12 11  1  0
 12 16  1  0
 13 14  1  0
 13 12  2  0
 14 15  1  0
 15 16  2  0
 17 19  1  0
 18 17  2  0
 19 20  1  0
 20 25  1  0
 20 21  1  1
 22 21  1  0
 23 22  1  0
 24 23  2  0
 25 26  2  0
 25 28  1  0
 27 23  1  0
M  END
$$$$
