NHE.pdb
     RDKit          3D

 28 28  0  0  1  0  0  0  0  0999 V2000
   14.6529  -12.6361  -15.5067 N   0  0  0  0  0  0  0  0  0  0  0  0
   15.1373  -12.1558  -14.2303 C   0  0  0  0  0  0  0  0  0  0  0  0
   15.3158  -13.0176  -13.3316 O   0  0  0  0  0  0  0  0  0  0  0  0
   15.3974  -10.7269  -14.0248 C   0  0  0  0  0  0  0  0  0  0  0  0
   15.0484  -10.2728  -12.6399 C   0  0  2  0  0  0  0  0  0  0  0  0
   13.5887  -10.1207  -12.5967 N   0  0  0  0  0  0  0  0  0  0  0  0
   15.6015   -8.9078  -12.3382 C   0  0  0  0  0  0  0  0  0  0  0  0
   14.9617   -7.8792  -12.6624 O   0  0  0  0  0  0  0  0  0  0  0  0
   16.8471   -8.7414  -11.6868 N   0  0  0  0  0  0  0  0  0  0  0  0
   17.4750   -7.4927  -11.4374 C   0  0  1  0  0  0  0  0  0  0  0  0
   17.6664   -7.1601   -9.9770 C   0  0  0  0  0  0  0  0  0  0  0  0
   16.3485   -7.0189   -9.2821 C   0  0  0  0  0  0  0  0  0  0  0  0
   15.6874   -7.9482   -8.5114 C   0  0  0  0  0  0  0  0  0  0  0  0
   14.5274   -7.3843   -8.0831 N   0  0  0  0  0  0  0  0  0  0  0  0
   14.4418   -6.1369   -8.5593 C   0  0  0  0  0  0  0  0  0  0  0  0
   15.5579   -5.9237   -9.2894 N   0  0  0  0  0  0  0  0  0  0  0  0
   18.7778   -7.2931  -12.1583 C   0  0  0  0  0  0  0  0  0  0  0  0
   19.6153   -8.2270  -12.2025 O   0  0  0  0  0  0  0  0  0  0  0  0
   19.1092   -6.0957  -12.7952 N   0  0  0  0  0  0  0  0  0  0  0  0
   20.3721   -5.8955  -13.5602 C   0  0  1  0  0  0  0  0  0  0  0  0
   20.1892   -4.6013  -14.2759 C   0  0  0  0  0  0  0  0  0  0  0  0
   21.2746   -4.0281  -15.0742 C   0  0  0  0  0  0  0  0  0  0  0  0
   21.1065   -2.7284  -15.6935 C   0  0  0  0  0  0  0  0  0  0  0  0
   20.0673   -2.0368  -15.7026 O   0  0  0  0  0  0  0  0  0  0  0  0
   21.4700   -5.9181  -12.6223 C   0  0  0  0  0  0  0  0  0  0  0  0
   21.3772   -5.5837  -11.3997 O   0  0  0  0  0  0  0  0  0  0  0  0
   22.2206   -2.1737  -16.3586 O   0  0  0  0  0  0  0  0  0  0  0  0
   22.7304   -6.3235  -13.0291 O   0  0  0  0  0  0  0  0  0  0  0  0
  2  1  1  0
  2  3  2  0
  4  2  1  0
  5  4  1  0
  5  6  1  6
  7  5  1  0
  7  8  2  0
  9  7  1  0
 10 17  1  0
 10  9  1  0
 10 11  1  1
 12 11  1  0
 12 16  1  0
 13 14  1  0
 13 12  2  0
 14 15  1  0
 15 16  2  0
 17 19  1  0
 18 17  2  0
 19 20  1  0
 20 25  1  0
 20 21  1  1
 22 21  1  0
 23 22  1  0
 24 23  2  0
 25 26  2  0
 25 28  1  0
 27 23  1  0
M  END
$$$$
