NHE.pdb
     RDKit          3D

 28 28  0  0  1  0  0  0  0  0999 V2000
   24.5650  -25.0529  -14.3314 N   0  0  0  0  0  0  0  0  0  0  0  0
   23.3221  -24.5397  -13.7963 C   0  0  0  0  0  0  0  0  0  0  0  0
   22.4818  -25.3886  -13.4022 O   0  0  0  0  0  0  0  0  0  0  0  0
   23.0827  -23.0939  -13.7306 C   0  0  0  0  0  0  0  0  0  0  0  0
   24.2728  -22.2941  -14.1663 C   0  0  2  0  0  0  0  0  0  0  0  0
   25.2682  -22.3916  -13.0914 N   0  0  0  0  0  0  0  0  0  0  0  0
   23.9547  -20.8296  -14.2847 C   0  0  0  0  0  0  0  0  0  0  0  0
   23.6175  -20.1706  -13.2726 O   0  0  0  0  0  0  0  0  0  0  0  0
   24.0244  -20.1552  -15.5274 N   0  0  0  0  0  0  0  0  0  0  0  0
   23.8954  -18.7521  -15.7005 C   0  0  1  0  0  0  0  0  0  0  0  0
   24.9057  -18.1335  -16.6370 C   0  0  0  0  0  0  0  0  0  0  0  0
   26.3027  -18.4098  -16.1768 C   0  0  0  0  0  0  0  0  0  0  0  0
   27.2945  -19.1035  -16.8325 C   0  0  0  0  0  0  0  0  0  0  0  0
   28.3978  -19.1018  -16.0388 N   0  0  0  0  0  0  0  0  0  0  0  0
   28.1292  -18.4320  -14.9122 C   0  0  0  0  0  0  0  0  0  0  0  0
   26.8483  -18.0139  -15.0064 N   0  0  0  0  0  0  0  0  0  0  0  0
   22.5199  -18.2949  -16.0953 C   0  0  0  0  0  0  0  0  0  0  0  0
   21.9476  -18.8199  -17.0814 O   0  0  0  0  0  0  0  0  0  0  0  0
   21.8327  -17.2948  -15.4049 N   0  0  0  0  0  0  0  0  0  0  0  0
   20.4516  -16.8575  -15.7538 C   0  0  1  0  0  0  0  0  0  0  0  0
   19.6777  -16.9732  -14.4856 C   0  0  0  0  0  0  0  0  0  0  0  0
   19.3576  -18.2860  -13.9218 C   0  0  0  0  0  0  0  0  0  0  0  0
   18.5550  -18.3786  -12.7183 C   0  0  0  0  0  0  0  0  0  0  0  0
   18.8449  -17.9221  -11.5932 O   0  0  0  0  0  0  0  0  0  0  0  0
   20.5304  -15.5208  -16.2945 C   0  0  0  0  0  0  0  0  0  0  0  0
   21.5559  -14.7741  -16.2175 O   0  0  0  0  0  0  0  0  0  0  0  0
   17.3173  -19.0502  -12.8095 O   0  0  0  0  0  0  0  0  0  0  0  0
   19.4445  -14.9660  -16.9514 O   0  0  0  0  0  0  0  0  0  0  0  0
  2  1  1  0
  2  3  2  0
  4  2  1  0
  5  4  1  0
  5  6  1  1
  7  5  1  0
  7  8  2  0
  9  7  1  0
 10 17  1  0
 10  9  1  0
 10 11  1  6
 12 11  1  0
 12 16  1  0
 13 14  1  0
 13 12  2  0
 14 15  1  0
 15 16  2  0
 17 19  1  0
 18 17  2  0
 19 20  1  0
 20 25  1  0
 20 21  1  1
 22 21  1  0
 23 22  1  0
 24 23  2  0
 25 26  2  0
 25 28  1  0
 27 23  1  0
M  END
$$$$
