RID.pdb
     RDKit          3D

 28 27  0  0  1  0  0  0  0  0999 V2000
    9.5791  -12.5343   18.5087 N   0  0  0  0  0  0  0  0  0  0  0  0
    8.2221  -12.8830   18.2275 C   0  0  0  0  0  0  0  0  0  0  0  0
    7.3127  -11.9685   18.1457 N   0  0  0  0  0  0  0  0  0  0  0  0
    7.7917  -14.2200   18.0232 N   0  0  0  0  0  0  0  0  0  0  0  0
    8.7303  -15.3230   18.0642 C   0  0  0  0  0  0  0  0  0  0  0  0
    8.5027  -16.2570   19.2143 C   0  0  0  0  0  0  0  0  0  0  0  0
    8.1568  -15.5523   20.4995 C   0  0  0  0  0  0  0  0  0  0  0  0
    8.0837  -16.5040   21.6699 C   0  0  2  0  0  0  0  0  0  0  0  0
    6.8373  -17.1654   21.8343 N   0  0  0  0  0  0  0  0  0  0  0  0
    8.7109  -15.9746   22.8951 C   0  0  0  0  0  0  0  0  0  0  0  0
    9.9375  -15.7812   22.8892 O   0  0  0  0  0  0  0  0  0  0  0  0
    6.3336  -12.2561   17.9847 C   0  0  0  0  0  0  0  0  0  0  0  0
    7.5046  -11.9836   27.1202 C   0  0  0  0  0  0  0  0  0  0  0  0
    8.4192  -13.1933   26.9043 C   0  0  2  0  0  0  0  0  0  0  0  0
    7.9192  -13.9605   25.7346 C   0  0  0  0  0  0  0  0  0  0  0  0
    6.4152  -14.1891   25.7735 C   0  0  2  0  0  0  0  0  0  0  0  0
    8.6862  -15.1245   25.2836 N   0  0  0  0  0  0  0  0  0  0  0  0
    7.9798  -15.6727   24.1031 C   0  0  0  0  0  0  0  0  0  0  0  0
    9.1359  -16.1696   26.1677 O   0  0  0  0  0  0  0  0  0  0  0  0
    8.2507  -17.0020   26.5932 N   0  0  0  0  0  0  0  0  0  0  0  0
   10.4365  -16.4267   26.6420 C   0  0  1  0  0  0  0  0  0  0  0  0
   10.7520  -17.5101   27.5517 C   0  0  0  0  0  0  0  0  0  0  0  0
   12.1704  -18.0045   27.3285 C   0  0  0  0  0  0  0  0  0  0  0  0
   12.2906  -18.4037   25.9100 O   0  0  0  0  0  0  0  0  0  0  0  0
   13.2108  -17.9904   25.1589 C   0  0  0  0  0  0  0  0  0  0  0  0
   10.5276  -17.1710   28.9640 O   0  0  0  0  0  0  0  0  0  0  0  0
   10.4694  -15.9717   29.3723 O   0  0  0  0  0  0  0  0  0  0  0  0
   11.3437  -19.2723   25.3948 O   0  0  0  0  0  0  0  0  0  0  0  0
  2  1  1  0
  3  2  2  0
  4  2  1  0
  5  4  1  0
  6  5  1  0
  7  6  1  0
  8 10  1  0
  8  7  1  0
  8  9  1  1
 10 11  2  0
 13 14  1  0
 13 12  1  0
 14 16  1  0
 14 15  1  6
 16 17  1  1
 17 10  1  0
 18 16  1  0
 19 18  2  0
 20 18  1  0
 21 22  1  1
 21 20  1  0
 23 24  2  0
 23 22  1  0
 25 28  1  0
 25 21  1  0
 26 25  2  0
 27 23  1  0
M  END
$$$$
