RID.pdb
     RDKit          3D

 28 27  0  0  1  0  0  0  0  0999 V2000
    7.3809  -12.9867   17.7209 N   0  0  0  0  0  0  0  0  0  0  0  0
    8.0588  -14.0142   16.9951 C   0  0  0  0  0  0  0  0  0  0  0  0
    7.8905  -14.1374   15.7198 N   0  0  0  0  0  0  0  0  0  0  0  0
    8.9399  -14.9433   17.6073 N   0  0  0  0  0  0  0  0  0  0  0  0
    8.9582  -15.1221   19.0450 C   0  0  0  0  0  0  0  0  0  0  0  0
    8.0328  -16.1999   19.5235 C   0  0  0  0  0  0  0  0  0  0  0  0
    8.1324  -16.4622   21.0031 C   0  0  0  0  0  0  0  0  0  0  0  0
    7.4656  -15.3812   21.8202 C   0  0  2  0  0  0  0  0  0  0  0  0
    6.9650  -14.2812   21.0736 N   0  0  0  0  0  0  0  0  0  0  0  0
    8.1908  -15.0543   23.0619 C   0  0  0  0  0  0  0  0  0  0  0  0
    9.3577  -14.6404   22.9676 O   0  0  0  0  0  0  0  0  0  0  0  0
    8.3881  -14.8957   15.2252 C   0  0  0  0  0  0  0  0  0  0  0  0
    6.0134  -11.9613   26.3678 C   0  0  0  0  0  0  0  0  0  0  0  0
    7.0974  -12.6433   25.5273 C   0  0  2  0  0  0  0  0  0  0  0  0
    7.6316  -13.7987   26.2932 C   0  0  0  0  0  0  0  0  0  0  0  0
    8.2271  -13.3972   27.6349 C   0  0  2  0  0  0  0  0  0  0  0  0
    8.4103  -14.8115   25.5761 N   0  0  0  0  0  0  0  0  0  0  0  0
    7.6220  -15.1929   24.3819 C   0  0  0  0  0  0  0  0  0  0  0  0
    8.9972  -15.9614   26.2160 O   0  0  0  0  0  0  0  0  0  0  0  0
    8.1983  -16.9008   26.5858 N   0  0  0  0  0  0  0  0  0  0  0  0
   10.3523  -16.2200   26.4977 C   0  0  1  0  0  0  0  0  0  0  0  0
   10.8087  -17.4111   27.1860 C   0  0  0  0  0  0  0  0  0  0  0  0
   12.1054  -17.9191   26.5805 C   0  0  0  0  0  0  0  0  0  0  0  0
   11.7817  -18.5404   25.2785 O   0  0  0  0  0  0  0  0  0  0  0  0
   10.6136  -18.5872   24.8147 C   0  0  0  0  0  0  0  0  0  0  0  0
   10.9394  -17.2322   28.6390 O   0  0  0  0  0  0  0  0  0  0  0  0
   11.1074  -18.2091   29.4300 O   0  0  0  0  0  0  0  0  0  0  0  0
   12.8175  -19.0918   24.5438 O   0  0  0  0  0  0  0  0  0  0  0  0
  2  1  1  0
  3  2  2  0
  4  2  1  0
  5  4  1  0
  6  5  1  0
  7  6  1  0
  8 10  1  0
  8  7  1  0
  8  9  1  6
 10 11  2  0
 13 14  1  0
 13 12  1  0
 14 16  1  0
 14 15  1  6
 16 17  1  6
 17 10  1  0
 18 16  1  0
 19 18  2  0
 20 18  1  0
 21 22  1  1
 21 20  1  0
 23 24  2  0
 23 22  1  0
 25 28  1  0
 25 21  1  0
 26 25  2  0
 27 23  1  0
M  END
$$$$
