RID.pdb
     RDKit          3D

 28 27  0  0  1  0  0  0  0  0999 V2000
    6.1910  -21.1021   21.9099 N   0  0  0  0  0  0  0  0  0  0  0  0
    6.2869  -21.0056   20.4874 C   0  0  0  0  0  0  0  0  0  0  0  0
    5.2636  -21.2634   19.7414 N   0  0  0  0  0  0  0  0  0  0  0  0
    7.4786  -20.6293   19.8145 N   0  0  0  0  0  0  0  0  0  0  0  0
    8.4072  -19.6879   20.4067 C   0  0  0  0  0  0  0  0  0  0  0  0
    7.7740  -18.7842   21.4212 C   0  0  0  0  0  0  0  0  0  0  0  0
    8.7205  -17.7554   21.9812 C   0  0  0  0  0  0  0  0  0  0  0  0
    8.1623  -16.3553   21.8865 C   0  0  2  0  0  0  0  0  0  0  0  0
    8.1601  -15.7924   20.5822 N   0  0  0  0  0  0  0  0  0  0  0  0
    8.6074  -15.4721   22.9803 C   0  0  0  0  0  0  0  0  0  0  0  0
    9.6741  -14.8528   22.8365 O   0  0  0  0  0  0  0  0  0  0  0  0
    5.3668  -21.1907   18.7161 C   0  0  0  0  0  0  0  0  0  0  0  0
    5.7478  -12.0455   25.7207 C   0  0  0  0  0  0  0  0  0  0  0  0
    6.9099  -12.7243   24.9892 C   0  0  2  0  0  0  0  0  0  0  0  0
    7.5572  -13.6846   25.9196 C   0  0  0  0  0  0  0  0  0  0  0  0
    7.9962  -13.0405   27.2267 C   0  0  2  0  0  0  0  0  0  0  0  0
    8.5233  -14.6416   25.3743 N   0  0  0  0  0  0  0  0  0  0  0  0
    7.8752  -15.2902   24.2115 C   0  0  0  0  0  0  0  0  0  0  0  0
    9.2404  -15.5939   26.1838 O   0  0  0  0  0  0  0  0  0  0  0  0
    8.5794  -16.6065   26.6256 N   0  0  0  0  0  0  0  0  0  0  0  0
   10.5952  -15.5845   26.5671 C   0  0  1  0  0  0  0  0  0  0  0  0
   11.1922  -16.6058   27.4046 C   0  0  0  0  0  0  0  0  0  0  0  0
   12.7014  -16.6252   27.2365 C   0  0  0  0  0  0  0  0  0  0  0  0
   12.9927  -16.8907   25.8115 O   0  0  0  0  0  0  0  0  0  0  0  0
   12.1764  -17.4578   25.0409 C   0  0  0  0  0  0  0  0  0  0  0  0
   10.8206  -16.4897   28.8219 O   0  0  0  0  0  0  0  0  0  0  0  0
   10.4481  -15.3926   29.3374 O   0  0  0  0  0  0  0  0  0  0  0  0
   14.2210  -16.4927   25.3121 O   0  0  0  0  0  0  0  0  0  0  0  0
  2  1  1  0
  3  2  2  0
  4  2  1  0
  5  4  1  0
  6  5  1  0
  7  6  1  0
  8 10  1  0
  8  7  1  0
  8  9  1  6
 10 11  2  0
 13 14  1  0
 13 12  1  0
 14 16  1  0
 14 15  1  1
 16 17  1  6
 17 10  1  0
 18 16  1  0
 19 18  2  0
 20 18  1  0
 21 22  1  1
 21 20  1  0
 23 24  2  0
 23 22  1  0
 25 28  1  0
 25 21  1  0
 26 25  2  0
 27 23  1  0
M  END
$$$$
