RID.pdb
     RDKit          3D

 28 27  0  0  1  0  0  0  0  0999 V2000
    8.5889  -12.6478   14.9774 N   0  0  0  0  0  0  0  0  0  0  0  0
    8.2705  -13.6282   15.9670 C   0  0  0  0  0  0  0  0  0  0  0  0
    8.3784  -14.8883   15.7013 N   0  0  0  0  0  0  0  0  0  0  0  0
    7.8276  -13.2953   17.2737 N   0  0  0  0  0  0  0  0  0  0  0  0
    7.3995  -14.3213   18.2029 C   0  0  0  0  0  0  0  0  0  0  0  0
    8.5340  -14.9779   18.9300 C   0  0  0  0  0  0  0  0  0  0  0  0
    8.7065  -14.4845   20.3423 C   0  0  0  0  0  0  0  0  0  0  0  0
    8.1712  -15.4653   21.3584 C   0  0  2  0  0  0  0  0  0  0  0  0
    6.7912  -15.7766   21.2294 N   0  0  0  0  0  0  0  0  0  0  0  0
    8.6615  -15.2169   22.7269 C   0  0  0  0  0  0  0  0  0  0  0  0
    9.8806  -15.0467   22.8909 O   0  0  0  0  0  0  0  0  0  0  0  0
    8.2760  -15.5680   16.4724 C   0  0  0  0  0  0  0  0  0  0  0  0
    6.0968  -11.8889   25.7549 C   0  0  0  0  0  0  0  0  0  0  0  0
    7.2102  -12.6565   25.0356 C   0  0  2  0  0  0  0  0  0  0  0  0
    7.5544  -13.8555   25.8422 C   0  0  0  0  0  0  0  0  0  0  0  0
    7.9539  -13.5153   27.2707 C   0  0  2  0  0  0  0  0  0  0  0  0
    8.3793  -14.8980   25.2262 N   0  0  0  0  0  0  0  0  0  0  0  0
    7.8045  -15.1651   23.8878 C   0  0  0  0  0  0  0  0  0  0  0  0
    8.7509  -16.1168   25.8989 O   0  0  0  0  0  0  0  0  0  0  0  0
    7.8079  -16.9500   26.1707 N   0  0  0  0  0  0  0  0  0  0  0  0
   10.0281  -16.5463   26.3073 C   0  0  1  0  0  0  0  0  0  0  0  0
   10.2856  -17.8594   26.8646 C   0  0  0  0  0  0  0  0  0  0  0  0
   11.2116  -18.6552   25.9617 C   0  0  0  0  0  0  0  0  0  0  0  0
   11.4920  -19.9449   26.6280 O   0  0  0  0  0  0  0  0  0  0  0  0
   10.8378  -20.3588   27.6192 C   0  0  0  0  0  0  0  0  0  0  0  0
   10.7975  -17.8192   28.2417 O   0  0  0  0  0  0  0  0  0  0  0  0
   11.0968  -18.8705   28.8847 O   0  0  0  0  0  0  0  0  0  0  0  0
   12.5218  -20.7252   26.1309 O   0  0  0  0  0  0  0  0  0  0  0  0
  2  1  1  0
  3  2  2  0
  4  2  1  0
  5  4  1  0
  6  5  1  0
  7  6  1  0
  8 10  1  0
  8  7  1  0
  8  9  1  1
 10 11  2  0
 13 14  1  0
 13 12  1  0
 14 16  1  0
 14 15  1  6
 16 17  1  6
 17 10  1  0
 18 16  1  0
 19 18  2  0
 20 18  1  0
 21 22  1  1
 21 20  1  0
 23 24  2  0
 23 22  1  0
 25 28  1  0
 25 21  1  0
 26 25  2  0
 27 23  1  0
M  END
$$$$
