IFQ.pdb
     RDKit          3D

 29 29  0  0  1  0  0  0  0  0999 V2000
    8.3886  -19.8897   17.9421 C   0  0  0  0  0  0  0  0  0  0  0  0
    7.7843  -18.5498   18.2841 C   0  0  0  0  0  0  0  0  0  0  0  0
    8.2774  -18.0306   19.6091 C   0  0  2  0  0  0  0  0  0  0  0  0
    7.4090  -18.4848   20.7542 C   0  0  0  0  0  0  0  0  0  0  0  0
    8.2452  -16.5089   19.5260 C   0  0  2  0  0  0  0  0  0  0  0  0
    9.0610  -16.0013   18.4665 N   0  0  0  0  0  0  0  0  0  0  0  0
    8.5624  -15.8538   20.8061 C   0  0  0  0  0  0  0  0  0  0  0  0
    9.7434  -15.8838   21.2349 O   0  0  0  0  0  0  0  0  0  0  0  0
    7.5917  -15.1734   21.6099 N   0  0  0  0  0  0  0  0  0  0  0  0
    8.0207  -14.6009   22.8996 C   0  0  1  0  0  0  0  0  0  0  0  0
    6.9230  -13.6991   23.3476 C   0  0  0  0  0  0  0  0  0  0  0  0
    7.0864  -13.1373   24.7006 C   0  0  0  0  0  0  0  0  0  0  0  0
    6.5283  -13.7842   25.7786 C   0  0  0  0  0  0  0  0  0  0  0  0
    6.6236  -13.3296   27.0812 C   0  0  0  0  0  0  0  0  0  0  0  0
    7.3218  -12.1485   27.3386 C   0  0  0  0  0  0  0  0  0  0  0  0
    7.8860  -11.4937   26.2664 C   0  0  0  0  0  0  0  0  0  0  0  0
    7.7720  -11.9720   24.9813 C   0  0  0  0  0  0  0  0  0  0  0  0
    8.1416  -15.7115   23.8886 C   0  0  0  0  0  0  0  0  0  0  0  0
    7.1708  -16.4773   24.0224 O   0  0  0  0  0  0  0  0  0  0  0  0
   11.5011  -19.8099   23.4497 N   0  0  0  0  0  0  0  0  0  0  0  0
   12.3915  -18.7134   23.6551 C   0  0  0  0  0  0  0  0  0  0  0  0
   13.4890  -18.5982   23.1273 O   0  0  0  0  0  0  0  0  0  0  0  0
   11.8915  -17.6470   24.6056 C   0  0  0  0  0  0  0  0  0  0  0  0
   10.5013  -18.0518   25.0485 C   0  0  0  0  0  0  0  0  0  0  0  0
    9.6260  -16.9584   25.5227 C   0  0  2  0  0  0  0  0  0  0  0  0
    9.2906  -15.8979   24.6462 N   0  0  0  0  0  0  0  0  0  0  0  0
   10.1124  -16.5036   26.8734 C   0  0  0  0  0  0  0  0  0  0  0  0
   10.3185  -15.3090   27.0547 O   0  0  0  0  0  0  0  0  0  0  0  0
   10.2982  -17.4903   27.8301 O   0  0  0  0  0  0  0  0  0  0  0  0
  2  1  1  0
  3  2  1  0
  3  4  1  1
  5  3  1  0
  5  6  1  6
  7  5  1  0
  7  8  2  0
  9  7  1  0
 10  9  1  0
 11 12  1  0
 10 11  1  1
 12 13  2  0
 13 14  1  0
 15 14  2  0
 16 15  1  0
 17 12  1  0
 17 16  2  0
 18 10  1  0
 19 18  2  0
 20 21  1  0
 21 22  2  0
 21 23  1  0
 23 24  1  0
 25 24  1  6
 25 26  1  0
 25 27  1  0
 26 18  1  0
 27 29  1  0
 28 27  2  0
M  END
$$$$
