IFQ.pdb
     RDKit          3D

 29 29  0  0  1  0  0  0  0  0999 V2000
    8.6603  -16.6124   16.4665 C   0  0  0  0  0  0  0  0  0  0  0  0
    8.1028  -15.3979   17.1676 C   0  0  0  0  0  0  0  0  0  0  0  0
    8.6132  -15.2781   18.5795 C   0  0  2  0  0  0  0  0  0  0  0  0
    8.2632  -16.4843   19.4127 C   0  0  0  0  0  0  0  0  0  0  0  0
    7.9559  -14.0420   19.1826 C   0  0  2  0  0  0  0  0  0  0  0  0
    8.2338  -12.8547   18.4351 N   0  0  0  0  0  0  0  0  0  0  0  0
    8.2677  -13.8606   20.6103 C   0  0  0  0  0  0  0  0  0  0  0  0
    9.4065  -13.4448   20.9418 O   0  0  0  0  0  0  0  0  0  0  0  0
    7.3389  -14.1350   21.6653 N   0  0  0  0  0  0  0  0  0  0  0  0
    7.7624  -13.8953   23.0575 C   0  0  1  0  0  0  0  0  0  0  0  0
    6.5366  -13.5114   23.8118 C   0  0  0  0  0  0  0  0  0  0  0  0
    6.7527  -13.1795   25.2317 C   0  0  0  0  0  0  0  0  0  0  0  0
    6.5823  -14.1500   26.1915 C   0  0  0  0  0  0  0  0  0  0  0  0
    6.7561  -13.9302   27.5458 C   0  0  0  0  0  0  0  0  0  0  0  0
    7.1255  -12.6578   27.9851 C   0  0  0  0  0  0  0  0  0  0  0  0
    7.3005  -11.6791   27.0320 C   0  0  0  0  0  0  0  0  0  0  0  0
    7.1186  -11.9299   25.6914 C   0  0  0  0  0  0  0  0  0  0  0  0
    8.2705  -15.1800   23.6210 C   0  0  0  0  0  0  0  0  0  0  0  0
    7.5624  -16.1934   23.4848 O   0  0  0  0  0  0  0  0  0  0  0  0
   13.5124  -17.8916   21.6790 N   0  0  0  0  0  0  0  0  0  0  0  0
   13.2612  -16.8838   22.6580 C   0  0  0  0  0  0  0  0  0  0  0  0
   14.1267  -16.3002   23.2958 O   0  0  0  0  0  0  0  0  0  0  0  0
   11.8013  -16.5551   22.8843 C   0  0  0  0  0  0  0  0  0  0  0  0
   11.5264  -16.7135   24.3648 C   0  0  0  0  0  0  0  0  0  0  0  0
   10.1520  -16.3959   24.8084 C   0  0  2  0  0  0  0  0  0  0  0  0
    9.4894  -15.2606   24.2817 N   0  0  0  0  0  0  0  0  0  0  0  0
   10.0960  -16.4935   26.3101 C   0  0  0  0  0  0  0  0  0  0  0  0
   10.5586  -17.4895   26.8543 O   0  0  0  0  0  0  0  0  0  0  0  0
    9.5100  -15.4293   26.9792 O   0  0  0  0  0  0  0  0  0  0  0  0
  2  1  1  0
  3  2  1  0
  3  4  1  1
  5  3  1  0
  5  6  1  6
  7  5  1  0
  7  8  2  0
  9  7  1  0
 10  9  1  0
 11 12  1  0
 10 11  1  1
 12 13  2  0
 13 14  1  0
 15 14  2  0
 16 15  1  0
 17 12  1  0
 17 16  2  0
 18 10  1  0
 19 18  2  0
 20 21  1  0
 21 22  2  0
 21 23  1  0
 23 24  1  0
 25 24  1  1
 25 26  1  0
 25 27  1  0
 26 18  1  0
 27 29  1  0
 28 27  2  0
M  END
$$$$
