IFQ.pdb
     RDKit          3D

 29 29  0  0  1  0  0  0  0  0999 V2000
    8.2027  -15.0920   16.6483 C   0  0  0  0  0  0  0  0  0  0  0  0
    7.8708  -14.1602   17.7881 C   0  0  0  0  0  0  0  0  0  0  0  0
    8.5659  -14.5592   19.0631 C   0  0  2  0  0  0  0  0  0  0  0  0
    8.2239  -15.9671   19.4783 C   0  0  0  0  0  0  0  0  0  0  0  0
    8.0989  -13.5889   20.1421 C   0  0  2  0  0  0  0  0  0  0  0  0
    8.2993  -12.2218   19.7725 N   0  0  0  0  0  0  0  0  0  0  0  0
    8.6770  -13.8754   21.4658 C   0  0  0  0  0  0  0  0  0  0  0  0
    9.8340  -13.4632   21.7325 O   0  0  0  0  0  0  0  0  0  0  0  0
    7.9925  -14.6096   22.4873 N   0  0  0  0  0  0  0  0  0  0  0  0
    8.7080  -14.9056   23.7425 C   0  0  1  0  0  0  0  0  0  0  0  0
    7.6665  -15.0610   24.7961 C   0  0  0  0  0  0  0  0  0  0  0  0
    7.1097  -13.7997   25.3176 C   0  0  0  0  0  0  0  0  0  0  0  0
    7.8504  -13.0382   26.1915 C   0  0  0  0  0  0  0  0  0  0  0  0
    7.4088  -11.8464   26.7367 C   0  0  0  0  0  0  0  0  0  0  0  0
    6.1419  -11.3712   26.3937 C   0  0  0  0  0  0  0  0  0  0  0  0
    5.3927  -12.1252   25.5179 C   0  0  0  0  0  0  0  0  0  0  0  0
    5.8607  -13.3081   24.9936 C   0  0  0  0  0  0  0  0  0  0  0  0
    9.4083  -16.2137   23.5859 C   0  0  0  0  0  0  0  0  0  0  0  0
    8.8715  -17.0768   22.8691 O   0  0  0  0  0  0  0  0  0  0  0  0
   13.0636  -14.8003   19.6668 N   0  0  0  0  0  0  0  0  0  0  0  0
   13.5011  -15.4649   20.8517 C   0  0  0  0  0  0  0  0  0  0  0  0
   14.5883  -16.0099   20.9844 O   0  0  0  0  0  0  0  0  0  0  0  0
   12.5076  -15.4669   21.9935 C   0  0  0  0  0  0  0  0  0  0  0  0
   12.2246  -16.9125   22.3439 C   0  0  0  0  0  0  0  0  0  0  0  0
   11.7537  -17.1670   23.7224 C   0  0  2  0  0  0  0  0  0  0  0  0
   10.6182  -16.4785   24.2143 N   0  0  0  0  0  0  0  0  0  0  0  0
   12.9390  -17.1310   24.6505 C   0  0  0  0  0  0  0  0  0  0  0  0
   13.9047  -17.8438   24.4022 O   0  0  0  0  0  0  0  0  0  0  0  0
   12.8468  -16.2796   25.7415 O   0  0  0  0  0  0  0  0  0  0  0  0
  2  1  1  0
  3  2  1  0
  3  4  1  1
  5  3  1  0
  5  6  1  6
  7  5  1  0
  7  8  2  0
  9  7  1  0
 10  9  1  0
 11 12  1  0
 10 11  1  1
 12 13  2  0
 13 14  1  0
 15 14  2  0
 16 15  1  0
 17 12  1  0
 17 16  2  0
 18 10  1  0
 19 18  2  0
 20 21  1  0
 21 22  2  0
 21 23  1  0
 23 24  1  0
 25 24  1  6
 25 26  1  0
 25 27  1  0
 26 18  1  0
 27 29  1  0
 28 27  2  0
M  END
$$$$
