IFQ.pdb
     RDKit          3D

 29 29  0  0  1  0  0  0  0  0999 V2000
    8.4207  -19.9885   20.3715 C   0  0  0  0  0  0  0  0  0  0  0  0
    8.8297  -18.5523   20.1536 C   0  0  0  0  0  0  0  0  0  0  0  0
    7.6777  -17.7030   19.6845 C   0  0  2  0  0  0  0  0  0  0  0  0
    7.1090  -18.1918   18.3771 C   0  0  0  0  0  0  0  0  0  0  0  0
    8.2180  -16.2895   19.5011 C   0  0  2  0  0  0  0  0  0  0  0  0
    9.3199  -16.2388   18.5905 N   0  0  0  0  0  0  0  0  0  0  0  0
    8.5455  -15.6266   20.7746 C   0  0  0  0  0  0  0  0  0  0  0  0
    9.7264  -15.6690   21.2027 O   0  0  0  0  0  0  0  0  0  0  0  0
    7.5852  -14.9252   21.5726 N   0  0  0  0  0  0  0  0  0  0  0  0
    8.0074  -14.4004   22.8846 C   0  0  1  0  0  0  0  0  0  0  0  0
    6.8442  -13.6487   23.4332 C   0  0  0  0  0  0  0  0  0  0  0  0
    7.0126  -13.1514   24.8106 C   0  0  0  0  0  0  0  0  0  0  0  0
    7.8283  -12.0698   25.0492 C   0  0  0  0  0  0  0  0  0  0  0  0
    8.0516  -11.5383   26.3062 C   0  0  0  0  0  0  0  0  0  0  0  0
    7.4231  -12.1178   27.4097 C   0  0  0  0  0  0  0  0  0  0  0  0
    6.6029  -13.2004   27.1817 C   0  0  0  0  0  0  0  0  0  0  0  0
    6.4022  -13.7062   25.9180 C   0  0  0  0  0  0  0  0  0  0  0  0
    8.2796  -15.5570   23.7869 C   0  0  0  0  0  0  0  0  0  0  0  0
    7.4217  -16.4549   23.8538 O   0  0  0  0  0  0  0  0  0  0  0  0
   12.3873  -20.7402   24.5615 N   0  0  0  0  0  0  0  0  0  0  0  0
   12.6455  -19.3820   24.9163 C   0  0  0  0  0  0  0  0  0  0  0  0
   13.6823  -18.7818   24.6687 O   0  0  0  0  0  0  0  0  0  0  0  0
   11.5223  -18.6837   25.6520 C   0  0  0  0  0  0  0  0  0  0  0  0
   11.1289  -17.4729   24.8323 C   0  0  0  0  0  0  0  0  0  0  0  0
    9.9415  -16.7275   25.3023 C   0  0  2  0  0  0  0  0  0  0  0  0
    9.4450  -15.6441   24.5374 N   0  0  0  0  0  0  0  0  0  0  0  0
   10.1183  -16.4123   26.7642 C   0  0  0  0  0  0  0  0  0  0  0  0
   10.0753  -15.2417   27.1248 O   0  0  0  0  0  0  0  0  0  0  0  0
   10.3245  -17.4915   27.6107 O   0  0  0  0  0  0  0  0  0  0  0  0
  2  1  1  0
  3  2  1  0
  3  4  1  6
  5  3  1  0
  5  6  1  6
  7  5  1  0
  7  8  2  0
  9  7  1  0
 10  9  1  0
 11 12  1  0
 10 11  1  1
 12 13  2  0
 13 14  1  0
 15 14  2  0
 16 15  1  0
 17 12  1  0
 17 16  2  0
 18 10  1  0
 19 18  2  0
 20 21  1  0
 21 22  2  0
 21 23  1  0
 23 24  1  0
 25 24  1  6
 25 26  1  0
 25 27  1  0
 26 18  1  0
 27 29  1  0
 28 27  2  0
M  END
$$$$
