IFQ.pdb
     RDKit          3D

 29 29  0  0  1  0  0  0  0  0999 V2000
    9.3025  -16.8545   17.6928 C   0  0  0  0  0  0  0  0  0  0  0  0
    9.1952  -15.4689   18.2811 C   0  0  0  0  0  0  0  0  0  0  0  0
    7.7732  -14.9733   18.3006 C   0  0  2  0  0  0  0  0  0  0  0  0
    7.1843  -14.8868   16.9159 C   0  0  0  0  0  0  0  0  0  0  0  0
    7.7994  -13.5825   18.9239 C   0  0  2  0  0  0  0  0  0  0  0  0
    8.5945  -12.6611   18.1726 N   0  0  0  0  0  0  0  0  0  0  0  0
    8.1910  -13.5932   20.3435 C   0  0  0  0  0  0  0  0  0  0  0  0
    9.4070  -13.4948   20.6454 O   0  0  0  0  0  0  0  0  0  0  0  0
    7.2567  -13.7128   21.4223 N   0  0  0  0  0  0  0  0  0  0  0  0
    7.7703  -13.6980   22.8047 C   0  0  1  0  0  0  0  0  0  0  0  0
    6.6352  -13.2771   23.6726 C   0  0  0  0  0  0  0  0  0  0  0  0
    6.9415  -13.2028   25.1126 C   0  0  0  0  0  0  0  0  0  0  0  0
    7.6248  -12.1168   25.6083 C   0  0  0  0  0  0  0  0  0  0  0  0
    7.9616  -11.9638   26.9409 C   0  0  0  0  0  0  0  0  0  0  0  0
    7.5968  -12.9567   27.8517 C   0  0  0  0  0  0  0  0  0  0  0  0
    6.9106  -14.0476   27.3659 C   0  0  0  0  0  0  0  0  0  0  0  0
    6.5914  -14.1706   26.0332 C   0  0  0  0  0  0  0  0  0  0  0  0
    8.1489  -15.0917   23.1793 C   0  0  0  0  0  0  0  0  0  0  0  0
    7.3789  -16.0107   22.8486 O   0  0  0  0  0  0  0  0  0  0  0  0
   13.7011  -19.8105   23.9354 N   0  0  0  0  0  0  0  0  0  0  0  0
   13.0957  -18.5419   23.6879 C   0  0  0  0  0  0  0  0  0  0  0  0
   13.6448  -17.6055   23.1241 O   0  0  0  0  0  0  0  0  0  0  0  0
   11.6720  -18.4002   24.1817 C   0  0  0  0  0  0  0  0  0  0  0  0
   11.1589  -17.0585   23.7029 C   0  0  0  0  0  0  0  0  0  0  0  0
    9.8570  -16.6259   24.2548 C   0  0  2  0  0  0  0  0  0  0  0  0
    9.3164  -15.3727   23.8771 N   0  0  0  0  0  0  0  0  0  0  0  0
    9.8603  -16.8663   25.7414 C   0  0  0  0  0  0  0  0  0  0  0  0
    9.6158  -15.9282   26.4913 O   0  0  0  0  0  0  0  0  0  0  0  0
   10.1492  -18.1565   26.1603 O   0  0  0  0  0  0  0  0  0  0  0  0
  2  1  1  0
  3  2  1  0
  3  4  1  6
  5  3  1  0
  5  6  1  6
  7  5  1  0
  7  8  2  0
  9  7  1  0
 10  9  1  0
 11 12  1  0
 10 11  1  1
 12 13  2  0
 13 14  1  0
 15 14  2  0
 16 15  1  0
 17 12  1  0
 17 16  2  0
 18 10  1  0
 19 18  2  0
 20 21  1  0
 21 22  2  0
 21 23  1  0
 23 24  1  0
 25 24  1  1
 25 26  1  0
 25 27  1  0
 26 18  1  0
 27 29  1  0
 28 27  2  0
M  END
$$$$
