IFQ.pdb
     RDKit          3D

 29 29  0  0  1  0  0  0  0  0999 V2000
   10.2371  -20.3192   18.9394 C   0  0  0  0  0  0  0  0  0  0  0  0
    9.7495  -18.8912   18.9229 C   0  0  0  0  0  0  0  0  0  0  0  0
    9.8620  -18.2413   20.2769 C   0  0  2  0  0  0  0  0  0  0  0  0
    8.9436  -18.8773   21.2887 C   0  0  0  0  0  0  0  0  0  0  0  0
    9.4760  -16.7777   20.0969 C   0  0  2  0  0  0  0  0  0  0  0  0
   10.2470  -16.1293   19.0816 N   0  0  0  0  0  0  0  0  0  0  0  0
    9.5007  -16.0149   21.3563 C   0  0  0  0  0  0  0  0  0  0  0  0
   10.6002  -15.8154   21.9316 O   0  0  0  0  0  0  0  0  0  0  0  0
    8.3289  -15.4774   21.9802 N   0  0  0  0  0  0  0  0  0  0  0  0
    8.4731  -14.7898   23.2770 C   0  0  1  0  0  0  0  0  0  0  0  0
    7.2324  -13.9884   23.4705 C   0  0  0  0  0  0  0  0  0  0  0  0
    7.1067  -13.3359   24.7863 C   0  0  0  0  0  0  0  0  0  0  0  0
    7.8338  -12.1996   25.0551 C   0  0  0  0  0  0  0  0  0  0  0  0
    7.7857  -11.5239   26.2608 C   0  0  0  0  0  0  0  0  0  0  0  0
    6.9583  -12.0059   27.2765 C   0  0  0  0  0  0  0  0  0  0  0  0
    6.2245  -13.1421   27.0170 C   0  0  0  0  0  0  0  0  0  0  0  0
    6.2957  -13.7921   25.8064 C   0  0  0  0  0  0  0  0  0  0  0  0
    8.5305  -15.8229   24.3519 C   0  0  0  0  0  0  0  0  0  0  0  0
    7.6163  -16.6650   24.3964 O   0  0  0  0  0  0  0  0  0  0  0  0
   11.2311  -20.5420   23.9248 N   0  0  0  0  0  0  0  0  0  0  0  0
   11.8428  -19.5085   24.6961 C   0  0  0  0  0  0  0  0  0  0  0  0
   12.8906  -19.6284   25.3159 O   0  0  0  0  0  0  0  0  0  0  0  0
   11.0972  -18.1916   24.7151 C   0  0  0  0  0  0  0  0  0  0  0  0
   10.5104  -18.0242   26.1008 C   0  0  0  0  0  0  0  0  0  0  0  0
    9.7778  -16.7638   26.3487 C   0  0  2  0  0  0  0  0  0  0  0  0
    9.5607  -15.8572   25.2827 N   0  0  0  0  0  0  0  0  0  0  0  0
   10.3316  -16.1216   27.5931 C   0  0  0  0  0  0  0  0  0  0  0  0
   10.4336  -16.7975   28.6105 O   0  0  0  0  0  0  0  0  0  0  0  0
   10.6891  -14.7851   27.4948 O   0  0  0  0  0  0  0  0  0  0  0  0
  2  1  1  0
  3  2  1  0
  3  4  1  1
  5  3  1  0
  5  6  1  6
  7  5  1  0
  7  8  2  0
  9  7  1  0
 10  9  1  0
 11 12  1  0
 10 11  1  1
 12 13  2  0
 13 14  1  0
 15 14  2  0
 16 15  1  0
 17 12  1  0
 17 16  2  0
 18 10  1  0
 19 18  2  0
 20 21  1  0
 21 22  2  0
 21 23  1  0
 23 24  1  0
 25 24  1  6
 25 26  1  0
 25 27  1  0
 26 18  1  0
 27 29  1  0
 28 27  2  0
M  END
$$$$
