IFQ.pdb
     RDKit          3D

 29 29  0  0  1  0  0  0  0  0999 V2000
    7.1601  -12.4884   18.4583 C   0  0  0  0  0  0  0  0  0  0  0  0
    7.3686  -13.6610   19.3851 C   0  0  0  0  0  0  0  0  0  0  0  0
    8.5182  -14.5292   18.9460 C   0  0  2  0  0  0  0  0  0  0  0  0
    8.2922  -15.1191   17.5776 C   0  0  0  0  0  0  0  0  0  0  0  0
    8.6350  -15.6556   19.9664 C   0  0  2  0  0  0  0  0  0  0  0  0
    7.5542  -16.5883   19.8779 N   0  0  0  0  0  0  0  0  0  0  0  0
    8.8106  -15.1696   21.3454 C   0  0  0  0  0  0  0  0  0  0  0  0
    9.9040  -14.6462   21.6771 O   0  0  0  0  0  0  0  0  0  0  0  0
    7.7961  -15.2592   22.3523 N   0  0  0  0  0  0  0  0  0  0  0  0
    8.1070  -14.7778   23.7111 C   0  0  1  0  0  0  0  0  0  0  0  0
    6.8191  -14.3172   24.3012 C   0  0  0  0  0  0  0  0  0  0  0  0
    6.9218  -13.7310   25.6498 C   0  0  0  0  0  0  0  0  0  0  0  0
    7.1482  -12.3815   25.7903 C   0  0  0  0  0  0  0  0  0  0  0  0
    7.2655  -11.7452   27.0126 C   0  0  0  0  0  0  0  0  0  0  0  0
    7.1507  -12.4971   28.1831 C   0  0  0  0  0  0  0  0  0  0  0  0
    6.9222  -13.8491   28.0536 C   0  0  0  0  0  0  0  0  0  0  0  0
    6.8116  -14.4524   26.8220 C   0  0  0  0  0  0  0  0  0  0  0  0
    8.5996  -15.9330   24.5167 C   0  0  0  0  0  0  0  0  0  0  0  0
    7.9022  -16.9624   24.5412 O   0  0  0  0  0  0  0  0  0  0  0  0
   15.0081  -17.1662   24.1888 N   0  0  0  0  0  0  0  0  0  0  0  0
   13.7230  -16.5474   24.1343 C   0  0  0  0  0  0  0  0  0  0  0  0
   13.2243  -16.0636   23.1275 O   0  0  0  0  0  0  0  0  0  0  0  0
   12.9684  -16.5133   25.4458 C   0  0  0  0  0  0  0  0  0  0  0  0
   11.7643  -17.4195   25.2983 C   0  0  0  0  0  0  0  0  0  0  0  0
   10.4990  -16.9186   25.8766 C   0  0  2  0  0  0  0  0  0  0  0  0
    9.7931  -15.8782   25.2249 N   0  0  0  0  0  0  0  0  0  0  0  0
   10.7011  -16.6889   27.3511 C   0  0  0  0  0  0  0  0  0  0  0  0
   10.3895  -15.6033   27.8273 O   0  0  0  0  0  0  0  0  0  0  0  0
   11.2390  -17.7426   28.0749 O   0  0  0  0  0  0  0  0  0  0  0  0
  2  1  1  0
  3  2  1  0
  3  4  1  6
  5  3  1  0
  5  6  1  1
  7  5  1  0
  7  8  2  0
  9  7  1  0
 10  9  1  0
 11 12  1  0
 10 11  1  1
 12 13  2  0
 13 14  1  0
 15 14  2  0
 16 15  1  0
 17 12  1  0
 17 16  2  0
 18 10  1  0
 19 18  2  0
 20 21  1  0
 21 22  2  0
 21 23  1  0
 23 24  1  0
 25 24  1  6
 25 26  1  0
 25 27  1  0
 26 18  1  0
 27 29  1  0
 28 27  2  0
M  END
$$$$
