HKL.pdb
     RDKit          3D

 28 28  0  0  1  0  0  0  0  0999 V2000
    8.9654  -18.6419   19.6376 N   0  0  0  0  0  0  0  0  0  0  0  0
    9.6355  -17.6447   20.5123 C   0  0  1  0  0  0  0  0  0  0  0  0
    9.8758  -16.4056   19.7216 C   0  0  0  0  0  0  0  0  0  0  0  0
   11.0752  -16.4091   18.8737 C   0  0  0  0  0  0  0  0  0  0  0  0
   12.3797  -16.1360   19.2589 C   0  0  0  0  0  0  0  0  0  0  0  0
   13.1677  -16.2488   18.1809 N   0  0  0  0  0  0  0  0  0  0  0  0
   12.4223  -16.5824   17.1234 C   0  0  0  0  0  0  0  0  0  0  0  0
   11.1437  -16.6739   17.5772 N   0  0  0  0  0  0  0  0  0  0  0  0
    8.7458  -17.4293   21.7087 C   0  0  0  0  0  0  0  0  0  0  0  0
    7.6285  -16.8738   21.6531 O   0  0  0  0  0  0  0  0  0  0  0  0
    9.1551  -17.8659   23.0036 N   0  0  0  0  0  0  0  0  0  0  0  0
    8.2423  -17.7943   24.1641 C   0  0  1  0  0  0  0  0  0  0  0  0
    8.1169  -19.1225   24.8163 C   0  0  0  0  0  0  0  0  0  0  0  0
    7.3363  -19.0440   26.0956 C   0  0  0  0  0  0  0  0  0  0  0  0
    7.2330  -20.3748   26.8124 C   0  0  0  0  0  0  0  0  0  0  0  0
    6.4807  -20.1638   28.1137 C   0  0  0  0  0  0  0  0  0  0  0  0
    6.4011  -21.3951   28.8648 N   0  0  0  0  0  0  0  0  0  0  0  0
    8.8277  -16.7385   25.0325 C   0  0  0  0  0  0  0  0  0  0  0  0
   10.0750  -16.7026   25.3025 O   0  0  0  0  0  0  0  0  0  0  0  0
    8.0543  -12.3366   24.8235 C   0  0  0  0  0  0  0  0  0  0  0  0
    7.0516  -12.9193   25.8034 C   0  0  2  0  0  0  0  0  0  0  0  0
    5.9526  -11.9792   26.0960 C   0  0  0  0  0  0  0  0  0  0  0  0
    7.6519  -13.6953   26.9017 C   0  0  0  0  0  0  0  0  0  0  0  0
    8.6524  -14.7442   26.5453 C   0  0  2  0  0  0  0  0  0  0  0  0
    8.0581  -15.7089   25.6168 N   0  0  0  0  0  0  0  0  0  0  0  0
    9.2938  -15.4215   27.6675 C   0  0  0  0  0  0  0  0  0  0  0  0
   10.2497  -15.0156   28.3629 O   0  0  0  0  0  0  0  0  0  0  0  0
    8.7996  -16.7000   28.0458 O   0  0  0  0  0  0  0  0  0  0  0  0
  2  1  1  6
  3  2  1  0
  4  5  2  0
  4  3  1  0
  6  5  1  0
  7  8  2  0
  7  6  1  0
  8  4  1  0
  9 11  1  0
  9  2  1  0
 10  9  2  0
 12 11  1  0
 12 13  1  1
 13 14  1  0
 14 15  1  0
 15 16  1  0
 17 16  1  0
 18 12  1  0
 19 18  2  0
 21 23  1  0
 21 20  1  1
 22 21  1  0
 24 23  1  1
 24 26  1  0
 24 25  1  0
 25 18  1  0
 26 28  1  0
 27 26  2  0
M  END
$$$$
