HKL.pdb
     RDKit          3D

 28 28  0  0  1  0  0  0  0  0999 V2000
   12.6962  -17.8354   20.2036 N   0  0  0  0  0  0  0  0  0  0  0  0
   12.4112  -16.6111   20.9965 C   0  0  1  0  0  0  0  0  0  0  0  0
   12.3039  -15.4557   20.0630 C   0  0  0  0  0  0  0  0  0  0  0  0
   13.4984  -15.1695   19.2574 C   0  0  0  0  0  0  0  0  0  0  0  0
   14.6993  -14.6298   19.6944 C   0  0  0  0  0  0  0  0  0  0  0  0
   15.5232  -14.5331   18.6420 N   0  0  0  0  0  0  0  0  0  0  0  0
   14.8999  -14.9879   17.5513 C   0  0  0  0  0  0  0  0  0  0  0  0
   13.6603  -15.3715   17.9579 N   0  0  0  0  0  0  0  0  0  0  0  0
   11.1503  -16.8684   21.7795 C   0  0  0  0  0  0  0  0  0  0  0  0
   10.1768  -16.0864   21.8061 O   0  0  0  0  0  0  0  0  0  0  0  0
   11.0078  -18.0589   22.5524 N   0  0  0  0  0  0  0  0  0  0  0  0
    9.8502  -18.2604   23.4492 C   0  0  1  0  0  0  0  0  0  0  0  0
    9.6392  -19.7056   23.7177 C   0  0  0  0  0  0  0  0  0  0  0  0
    8.5900  -19.9305   24.7669 C   0  0  0  0  0  0  0  0  0  0  0  0
    7.4750  -20.8471   24.3066 C   0  0  0  0  0  0  0  0  0  0  0  0
    6.4550  -20.9638   25.4246 C   0  0  0  0  0  0  0  0  0  0  0  0
    5.3468  -21.7984   25.0220 N   0  0  0  0  0  0  0  0  0  0  0  0
   10.1709  -17.4537   24.6566 C   0  0  0  0  0  0  0  0  0  0  0  0
   11.3480  -17.4164   25.1494 O   0  0  0  0  0  0  0  0  0  0  0  0
    7.5585  -13.0943   28.2702 C   0  0  0  0  0  0  0  0  0  0  0  0
    8.7499  -13.9851   27.9663 C   0  0  2  0  0  0  0  0  0  0  0  0
   10.0319  -13.3087   28.2426 C   0  0  0  0  0  0  0  0  0  0  0  0
    8.6087  -14.7979   26.7464 C   0  0  0  0  0  0  0  0  0  0  0  0
    9.5508  -15.9406   26.5600 C   0  0  2  0  0  0  0  0  0  0  0  0
    9.2099  -16.6777   25.3408 N   0  0  0  0  0  0  0  0  0  0  0  0
    9.6917  -16.8433   27.6978 C   0  0  0  0  0  0  0  0  0  0  0  0
    8.9205  -17.7628   28.0468 O   0  0  0  0  0  0  0  0  0  0  0  0
   10.8313  -16.6897   28.5342 O   0  0  0  0  0  0  0  0  0  0  0  0
  2  1  1  6
  3  2  1  0
  4  5  2  0
  4  3  1  0
  6  5  1  0
  7  8  2  0
  7  6  1  0
  8  4  1  0
  9 11  1  0
  9  2  1  0
 10  9  2  0
 12 11  1  0
 12 13  1  1
 13 14  1  0
 14 15  1  0
 15 16  1  0
 17 16  1  0
 18 12  1  0
 19 18  2  0
 21 23  1  0
 21 20  1  6
 22 21  1  0
 24 23  1  1
 24 26  1  0
 24 25  1  0
 25 18  1  0
 26 28  1  0
 27 26  2  0
M  END
$$$$
