HKL.pdb
     RDKit          3D

 28 28  0  0  1  0  0  0  0  0999 V2000
    8.4596  -17.2216   18.5388 N   0  0  0  0  0  0  0  0  0  0  0  0
    8.3700  -15.9550   19.3108 C   0  0  1  0  0  0  0  0  0  0  0  0
    7.4619  -15.0219   18.5878 C   0  0  0  0  0  0  0  0  0  0  0  0
    7.9297  -14.5622   17.2734 C   0  0  0  0  0  0  0  0  0  0  0  0
    9.0908  -14.9385   16.6140 C   0  0  0  0  0  0  0  0  0  0  0  0
    9.1381  -14.2876   15.4436 N   0  0  0  0  0  0  0  0  0  0  0  0
    8.0568  -13.5115   15.3271 C   0  0  0  0  0  0  0  0  0  0  0  0
    7.3336  -13.6997   16.4632 N   0  0  0  0  0  0  0  0  0  0  0  0
    7.8896  -16.3071   20.6945 C   0  0  0  0  0  0  0  0  0  0  0  0
    6.7515  -16.0288   21.1270 O   0  0  0  0  0  0  0  0  0  0  0  0
    8.7441  -16.9987   21.6037 N   0  0  0  0  0  0  0  0  0  0  0  0
    8.2685  -17.4189   22.9387 C   0  0  1  0  0  0  0  0  0  0  0  0
    8.9570  -18.6603   23.3747 C   0  0  0  0  0  0  0  0  0  0  0  0
    8.6375  -19.0038   24.8002 C   0  0  0  0  0  0  0  0  0  0  0  0
    7.5747  -20.0757   24.9302 C   0  0  0  0  0  0  0  0  0  0  0  0
    7.2952  -20.3005   26.4052 C   0  0  0  0  0  0  0  0  0  0  0  0
    6.2321  -21.2618   26.5844 N   0  0  0  0  0  0  0  0  0  0  0  0
    8.5200  -16.2407   23.8104 C   0  0  0  0  0  0  0  0  0  0  0  0
    9.5833  -15.5415   23.7086 O   0  0  0  0  0  0  0  0  0  0  0  0
    5.6180  -12.2146   27.4867 C   0  0  0  0  0  0  0  0  0  0  0  0
    6.9191  -12.7296   26.8973 C   0  0  2  0  0  0  0  0  0  0  0  0
    7.8388  -11.6319   26.5417 C   0  0  0  0  0  0  0  0  0  0  0  0
    6.7636  -13.8700   25.9785 C   0  0  0  0  0  0  0  0  0  0  0  0
    7.9558  -14.7351   25.7370 C   0  0  2  0  0  0  0  0  0  0  0  0
    7.6133  -15.8115   24.8042 N   0  0  0  0  0  0  0  0  0  0  0  0
    8.6136  -15.2617   26.9284 C   0  0  0  0  0  0  0  0  0  0  0  0
    8.2614  -16.2323   27.6327 O   0  0  0  0  0  0  0  0  0  0  0  0
    9.8018  -14.6198   27.3732 O   0  0  0  0  0  0  0  0  0  0  0  0
  2  1  1  6
  3  2  1  0
  4  5  2  0
  4  3  1  0
  6  5  1  0
  7  8  2  0
  7  6  1  0
  8  4  1  0
  9 11  1  0
  9  2  1  0
 10  9  2  0
 12 11  1  0
 12 13  1  1
 13 14  1  0
 14 15  1  0
 15 16  1  0
 17 16  1  0
 18 12  1  0
 19 18  2  0
 21 23  1  0
 21 20  1  6
 22 21  1  0
 24 23  1  1
 24 26  1  0
 24 25  1  0
 25 18  1  0
 26 28  1  0
 27 26  2  0
M  END
$$$$
