HKL.pdb
     RDKit          3D

 28 28  0  0  1  0  0  0  0  0999 V2000
    8.8345  -17.2255   18.4520 N   0  0  0  0  0  0  0  0  0  0  0  0
    8.6695  -16.0554   19.3531 C   0  0  1  0  0  0  0  0  0  0  0  0
    7.6210  -15.1632   18.7849 C   0  0  0  0  0  0  0  0  0  0  0  0
    7.9149  -14.5882   17.4656 C   0  0  0  0  0  0  0  0  0  0  0  0
    8.7710  -13.5352   17.1777 C   0  0  0  0  0  0  0  0  0  0  0  0
    8.7505  -13.3280   15.8539 N   0  0  0  0  0  0  0  0  0  0  0  0
    7.9179  -14.2037   15.2838 C   0  0  0  0  0  0  0  0  0  0  0  0
    7.4198  -14.9638   16.2953 N   0  0  0  0  0  0  0  0  0  0  0  0
    8.3272  -16.5878   20.7201 C   0  0  0  0  0  0  0  0  0  0  0  0
    7.2466  -17.1497   20.9967 O   0  0  0  0  0  0  0  0  0  0  0  0
    9.2555  -16.4694   21.7968 N   0  0  0  0  0  0  0  0  0  0  0  0
    8.9921  -17.0908   23.1119 C   0  0  1  0  0  0  0  0  0  0  0  0
    9.8291  -18.3034   23.2969 C   0  0  0  0  0  0  0  0  0  0  0  0
   11.2934  -17.9913   23.1945 C   0  0  0  0  0  0  0  0  0  0  0  0
   12.1665  -19.2294   23.1836 C   0  0  0  0  0  0  0  0  0  0  0  0
   13.6188  -18.7940   23.1113 C   0  0  0  0  0  0  0  0  0  0  0  0
   14.5005  -19.9350   23.1958 N   0  0  0  0  0  0  0  0  0  0  0  0
    9.2586  -16.0071   24.0947 C   0  0  0  0  0  0  0  0  0  0  0  0
   10.0549  -15.0432   23.8362 O   0  0  0  0  0  0  0  0  0  0  0  0
    8.0402  -12.8495   28.2571 C   0  0  0  0  0  0  0  0  0  0  0  0
    7.2000  -12.8639   26.9925 C   0  0  2  0  0  0  0  0  0  0  0  0
    5.8438  -12.3300   27.2225 C   0  0  0  0  0  0  0  0  0  0  0  0
    7.3730  -14.0654   26.1586 C   0  0  0  0  0  0  0  0  0  0  0  0
    8.6990  -14.7499   26.1931 C   0  0  2  0  0  0  0  0  0  0  0  0
    8.6587  -15.9625   25.3722 N   0  0  0  0  0  0  0  0  0  0  0  0
    9.2372  -15.0313   27.5200 C   0  0  0  0  0  0  0  0  0  0  0  0
   10.0896  -14.3751   28.1564 O   0  0  0  0  0  0  0  0  0  0  0  0
    8.7588  -16.1826   28.2037 O   0  0  0  0  0  0  0  0  0  0  0  0
  2  1  1  6
  3  2  1  0
  4  5  2  0
  4  3  1  0
  6  5  1  0
  7  8  2  0
  7  6  1  0
  8  4  1  0
  9 11  1  0
  9  2  1  0
 10  9  2  0
 12 11  1  0
 12 13  1  1
 13 14  1  0
 14 15  1  0
 15 16  1  0
 17 16  1  0
 18 12  1  0
 19 18  2  0
 21 23  1  0
 21 20  1  1
 22 21  1  0
 24 23  1  1
 24 26  1  0
 24 25  1  0
 25 18  1  0
 26 28  1  0
 27 26  2  0
M  END
$$$$
