HKL.pdb
     RDKit          3D

 28 28  0  0  1  0  0  0  0  0999 V2000
    7.3868  -17.6795   18.7601 N   0  0  0  0  0  0  0  0  0  0  0  0
    7.9783  -16.5686   19.5503 C   0  0  1  0  0  0  0  0  0  0  0  0
    7.3509  -15.2900   19.1146 C   0  0  0  0  0  0  0  0  0  0  0  0
    7.8635  -14.7189   17.8621 C   0  0  0  0  0  0  0  0  0  0  0  0
    8.8299  -15.2568   17.0247 C   0  0  0  0  0  0  0  0  0  0  0  0
    9.0035  -14.4198   15.9926 N   0  0  0  0  0  0  0  0  0  0  0  0
    8.1892  -13.3702   16.1349 C   0  0  0  0  0  0  0  0  0  0  0  0
    7.5021  -13.5799   17.2895 N   0  0  0  0  0  0  0  0  0  0  0  0
    7.7495  -16.8833   21.0056 C   0  0  0  0  0  0  0  0  0  0  0  0
    6.6215  -16.9150   21.5409 O   0  0  0  0  0  0  0  0  0  0  0  0
    8.8504  -17.1690   21.8667 N   0  0  0  0  0  0  0  0  0  0  0  0
    8.6474  -17.4867   23.2959 C   0  0  1  0  0  0  0  0  0  0  0  0
    9.5825  -18.5536   23.7347 C   0  0  0  0  0  0  0  0  0  0  0  0
    9.4249  -18.8679   25.1936 C   0  0  0  0  0  0  0  0  0  0  0  0
   10.3221  -19.9962   25.6596 C   0  0  0  0  0  0  0  0  0  0  0  0
   10.0864  -20.2178   27.1427 C   0  0  0  0  0  0  0  0  0  0  0  0
   10.7733  -21.4038   27.5990 N   0  0  0  0  0  0  0  0  0  0  0  0
    8.8301  -16.1869   23.9949 C   0  0  0  0  0  0  0  0  0  0  0  0
    9.8903  -15.4895   23.8553 O   0  0  0  0  0  0  0  0  0  0  0  0
    5.4788  -12.0311   27.2194 C   0  0  0  0  0  0  0  0  0  0  0  0
    6.8338  -12.4956   26.7159 C   0  0  2  0  0  0  0  0  0  0  0  0
    7.6794  -11.3674   26.2808 C   0  0  0  0  0  0  0  0  0  0  0  0
    6.7953  -13.7255   25.9067 C   0  0  0  0  0  0  0  0  0  0  0  0
    8.0956  -14.3759   25.5690 C   0  0  2  0  0  0  0  0  0  0  0  0
    7.8570  -15.6326   24.8550 N   0  0  0  0  0  0  0  0  0  0  0  0
    9.0192  -14.5710   26.6818 C   0  0  0  0  0  0  0  0  0  0  0  0
   10.0663  -13.9350   26.9294 O   0  0  0  0  0  0  0  0  0  0  0  0
    8.7267  -15.5994   27.6192 O   0  0  0  0  0  0  0  0  0  0  0  0
  2  1  1  6
  3  2  1  0
  4  5  2  0
  4  3  1  0
  6  5  1  0
  7  8  2  0
  7  6  1  0
  8  4  1  0
  9 11  1  0
  9  2  1  0
 10  9  2  0
 12 11  1  0
 12 13  1  1
 13 14  1  0
 14 15  1  0
 15 16  1  0
 17 16  1  0
 18 12  1  0
 19 18  2  0
 21 23  1  0
 21 20  1  6
 22 21  1  0
 24 23  1  1
 24 26  1  0
 24 25  1  0
 25 18  1  0
 26 28  1  0
 27 26  2  0
M  END
$$$$
