CHN.pdb
     RDKit          3D

 25 25  0  0  1  0  0  0  0  0999 V2000
    8.3356  -13.1139   17.8472 N   0  0  0  0  0  0  0  0  0  0  0  0
    8.9329  -14.4058   17.9935 C   0  0  1  0  0  0  0  0  0  0  0  0
   10.4312  -14.4073   18.0401 C   0  0  0  0  0  0  0  0  0  0  0  0
   11.1193  -13.5382   19.4469 S   0  0  0  0  0  0  0  0  0  0  0  0
    8.3212  -15.0918   19.1872 C   0  0  0  0  0  0  0  0  0  0  0  0
    8.0236  -14.4509   20.2245 O   0  0  0  0  0  0  0  0  0  0  0  0
    8.0586  -16.4815   19.1881 N   0  0  0  0  0  0  0  0  0  0  0  0
    7.3961  -17.1071   20.2825 C   0  0  1  0  0  0  0  0  0  0  0  0
    6.4504  -18.1619   19.8108 C   0  0  0  0  0  0  0  0  0  0  0  0
    5.6918  -18.8278   20.8950 C   0  0  0  0  0  0  0  0  0  0  0  0
    4.6397  -18.3434   21.6411 C   0  0  0  0  0  0  0  0  0  0  0  0
    4.2279  -19.2610   22.5306 N   0  0  0  0  0  0  0  0  0  0  0  0
    5.0152  -20.3421   22.3602 C   0  0  0  0  0  0  0  0  0  0  0  0
    5.8929  -20.0767   21.3765 N   0  0  0  0  0  0  0  0  0  0  0  0
    8.2961  -17.5453   21.3540 C   0  0  0  0  0  0  0  0  0  0  0  0
    9.3898  -18.0652   21.0623 O   0  0  0  0  0  0  0  0  0  0  0  0
   11.0081  -16.4709   22.8191 N   0  0  0  0  0  0  0  0  0  0  0  0
   10.4579  -16.1333   24.0884 C   0  0  0  0  0  0  0  0  0  0  0  0
   11.0164  -15.2065   24.7264 O   0  0  0  0  0  0  0  0  0  0  0  0
    9.2856  -16.8159   24.6644 C   0  0  0  0  0  0  0  0  0  0  0  0
    8.7761  -17.9328   23.7987 C   0  0  2  0  0  0  0  0  0  0  0  0
    7.9407  -17.3862   22.7075 N   0  0  0  0  0  0  0  0  0  0  0  0
    7.9586  -18.9013   24.5867 C   0  0  0  0  0  0  0  0  0  0  0  0
    6.6070  -19.1122   24.3982 O   0  0  0  0  0  0  0  0  0  0  0  0
    8.4935  -19.6064   25.5088 O   0  0  0  0  0  0  0  0  0  0  0  0
  2  1  1  1
  3  2  1  0
  4  3  1  0
  5  2  1  0
  5  6  2  0
  7  5  1  0
  8  7  1  0
  8  9  1  6
 10  9  1  0
 10 14  1  0
 11 12  1  0
 11 10  2  0
 12 13  1  0
 13 14  2  0
 15  8  1  0
 16 15  2  0
 18 17  1  0
 19 18  2  0
 20 18  1  0
 21 20  1  1
 21 22  1  0
 22 15  1  0
 23 24  1  0
 23 21  1  0
 25 23  2  0
M  END
$$$$
