CHN.pdb
     RDKit          3D

 25 25  0  0  1  0  0  0  0  0999 V2000
    6.6837  -19.2888   19.9153 N   0  0  0  0  0  0  0  0  0  0  0  0
    6.3038  -18.0772   20.5749 C   0  0  1  0  0  0  0  0  0  0  0  0
    5.4124  -18.2595   21.7663 C   0  0  0  0  0  0  0  0  0  0  0  0
    6.1403  -19.2336   23.0813 S   0  0  0  0  0  0  0  0  0  0  0  0
    7.5470  -17.2922   20.9035 C   0  0  0  0  0  0  0  0  0  0  0  0
    8.6833  -17.8235   20.8581 O   0  0  0  0  0  0  0  0  0  0  0  0
    7.4849  -15.9292   21.2757 N   0  0  0  0  0  0  0  0  0  0  0  0
    8.6684  -15.1569   21.4511 C   0  0  1  0  0  0  0  0  0  0  0  0
    8.4186  -13.7124   21.1677 C   0  0  0  0  0  0  0  0  0  0  0  0
    8.0503  -13.4228   19.7625 C   0  0  0  0  0  0  0  0  0  0  0  0
    8.7762  -12.7650   18.7937 C   0  0  0  0  0  0  0  0  0  0  0  0
    8.0872  -12.7077   17.6427 N   0  0  0  0  0  0  0  0  0  0  0  0
    6.9123  -13.3298   17.8666 C   0  0  0  0  0  0  0  0  0  0  0  0
    6.8951  -13.7576   19.1415 N   0  0  0  0  0  0  0  0  0  0  0  0
    9.3628  -15.4074   22.7180 C   0  0  0  0  0  0  0  0  0  0  0  0
   10.3615  -14.7250   23.0156 O   0  0  0  0  0  0  0  0  0  0  0  0
   10.8879  -17.5040   27.2789 N   0  0  0  0  0  0  0  0  0  0  0  0
    9.6059  -16.8840   27.2771 C   0  0  0  0  0  0  0  0  0  0  0  0
    9.0578  -16.6990   28.3920 O   0  0  0  0  0  0  0  0  0  0  0  0
    8.9179  -16.4625   26.0438 C   0  0  0  0  0  0  0  0  0  0  0  0
    9.6948  -16.7897   24.8004 C   0  0  2  0  0  0  0  0  0  0  0  0
    8.9160  -16.4084   23.6023 N   0  0  0  0  0  0  0  0  0  0  0  0
   10.0075  -18.2470   24.7229 C   0  0  0  0  0  0  0  0  0  0  0  0
   10.9324  -18.8874   25.5237 O   0  0  0  0  0  0  0  0  0  0  0  0
    9.4106  -18.9973   23.8779 O   0  0  0  0  0  0  0  0  0  0  0  0
  2  1  1  1
  3  2  1  0
  4  3  1  0
  5  2  1  0
  5  6  2  0
  7  5  1  0
  8  7  1  0
  8  9  1  1
 10  9  1  0
 10 14  1  0
 11 12  1  0
 11 10  2  0
 12 13  1  0
 13 14  2  0
 15  8  1  0
 16 15  2  0
 18 17  1  0
 19 18  2  0
 20 18  1  0
 21 20  1  1
 21 22  1  0
 22 15  1  0
 23 24  1  0
 23 21  1  0
 25 23  2  0
M  END
$$$$
