CHN.pdb
     RDKit          3D

 25 25  0  0  1  0  0  0  0  0999 V2000
    9.4202  -17.9690   17.5913 N   0  0  0  0  0  0  0  0  0  0  0  0
    9.2647  -18.2714   18.9811 C   0  0  1  0  0  0  0  0  0  0  0  0
    9.9221  -19.5422   19.4284 C   0  0  0  0  0  0  0  0  0  0  0  0
    9.7114  -19.8998   21.1707 S   0  0  0  0  0  0  0  0  0  0  0  0
    9.7081  -17.0805   19.7903 C   0  0  0  0  0  0  0  0  0  0  0  0
   10.7643  -16.4618   19.5127 O   0  0  0  0  0  0  0  0  0  0  0  0
    8.9554  -16.6128   20.8925 N   0  0  0  0  0  0  0  0  0  0  0  0
    9.4078  -15.5198   21.6852 C   0  0  1  0  0  0  0  0  0  0  0  0
    8.3362  -14.4938   21.8539 C   0  0  0  0  0  0  0  0  0  0  0  0
    7.7611  -13.9997   20.5814 C   0  0  0  0  0  0  0  0  0  0  0  0
    6.4923  -14.1797   20.0755 C   0  0  0  0  0  0  0  0  0  0  0  0
    6.3660  -13.5703   18.8857 N   0  0  0  0  0  0  0  0  0  0  0  0
    7.5557  -12.9942   18.6206 C   0  0  0  0  0  0  0  0  0  0  0  0
    8.3903  -13.2552   19.6423 N   0  0  0  0  0  0  0  0  0  0  0  0
   10.0575  -15.9189   22.9377 C   0  0  0  0  0  0  0  0  0  0  0  0
    9.3574  -16.2235   23.9219 O   0  0  0  0  0  0  0  0  0  0  0  0
   11.8051  -19.7515   25.9539 N   0  0  0  0  0  0  0  0  0  0  0  0
   12.4766  -19.0887   24.8873 C   0  0  0  0  0  0  0  0  0  0  0  0
   13.7155  -19.2712   24.7894 O   0  0  0  0  0  0  0  0  0  0  0  0
   11.7858  -18.2186   23.9190 C   0  0  0  0  0  0  0  0  0  0  0  0
   12.1372  -16.7673   24.0831 C   0  0  2  0  0  0  0  0  0  0  0  0
   11.4613  -15.9624   23.0427 N   0  0  0  0  0  0  0  0  0  0  0  0
   13.6096  -16.5492   23.9743 C   0  0  0  0  0  0  0  0  0  0  0  0
   14.4709  -16.5052   25.0527 O   0  0  0  0  0  0  0  0  0  0  0  0
   14.1614  -16.3856   22.8332 O   0  0  0  0  0  0  0  0  0  0  0  0
  2  1  1  6
  3  2  1  0
  4  3  1  0
  5  2  1  0
  5  6  2  0
  7  5  1  0
  8  7  1  0
  8  9  1  1
 10  9  1  0
 10 14  1  0
 11 12  1  0
 11 10  2  0
 12 13  1  0
 13 14  2  0
 15  8  1  0
 16 15  2  0
 18 17  1  0
 19 18  2  0
 20 18  1  0
 21 20  1  6
 21 22  1  0
 22 15  1  0
 23 24  1  0
 23 21  1  0
 25 23  2  0
M  END
$$$$
