CHN.pdb
     RDKit          3D

 25 25  0  0  1  0  0  0  0  0999 V2000
    8.6365  -14.2449   16.8382 N   0  0  0  0  0  0  0  0  0  0  0  0
    8.7767  -13.8618   18.2096 C   0  0  1  0  0  0  0  0  0  0  0  0
    7.5190  -13.3686   18.8594 C   0  0  0  0  0  0  0  0  0  0  0  0
    6.5475  -12.2702   17.8309 S   0  0  0  0  0  0  0  0  0  0  0  0
    9.4073  -14.9992   18.9701 C   0  0  0  0  0  0  0  0  0  0  0  0
    9.4973  -14.9745   20.2218 O   0  0  0  0  0  0  0  0  0  0  0  0
    9.9223  -16.1373   18.3071 N   0  0  0  0  0  0  0  0  0  0  0  0
   10.6303  -17.1483   19.0174 C   0  0  1  0  0  0  0  0  0  0  0  0
   10.2511  -18.5113   18.5398 C   0  0  0  0  0  0  0  0  0  0  0  0
    8.8047  -18.8126   18.6460 C   0  0  0  0  0  0  0  0  0  0  0  0
    8.1045  -19.3398   19.7090 C   0  0  0  0  0  0  0  0  0  0  0  0
    6.8024  -19.4616   19.4048 N   0  0  0  0  0  0  0  0  0  0  0  0
    6.6590  -19.0123   18.1418 C   0  0  0  0  0  0  0  0  0  0  0  0
    7.8648  -18.6236   17.6905 N   0  0  0  0  0  0  0  0  0  0  0  0
   12.0769  -16.9219   19.0952 C   0  0  0  0  0  0  0  0  0  0  0  0
   12.7512  -16.8968   18.0481 O   0  0  0  0  0  0  0  0  0  0  0  0
   16.6050  -14.9494   19.9763 N   0  0  0  0  0  0  0  0  0  0  0  0
   15.4269  -14.2362   19.6142 C   0  0  0  0  0  0  0  0  0  0  0  0
   15.5807  -13.1060   19.0880 O   0  0  0  0  0  0  0  0  0  0  0  0
   14.0682  -14.7648   19.8298 C   0  0  0  0  0  0  0  0  0  0  0  0
   14.0654  -16.1403   20.4339 C   0  0  2  0  0  0  0  0  0  0  0  0
   12.7138  -16.7325   20.3371 N   0  0  0  0  0  0  0  0  0  0  0  0
   14.4692  -16.1036   21.8701 C   0  0  0  0  0  0  0  0  0  0  0  0
   13.6329  -16.4233   22.9214 O   0  0  0  0  0  0  0  0  0  0  0  0
   15.6537  -15.7600   22.2053 O   0  0  0  0  0  0  0  0  0  0  0  0
  2  1  1  6
  3  2  1  0
  4  3  1  0
  5  2  1  0
  5  6  2  0
  7  5  1  0
  8  7  1  0
  8  9  1  6
 10  9  1  0
 10 14  1  0
 11 12  1  0
 11 10  2  0
 12 13  1  0
 13 14  2  0
 15  8  1  0
 16 15  2  0
 18 17  1  0
 19 18  2  0
 20 18  1  0
 21 20  1  1
 21 22  1  0
 22 15  1  0
 23 24  1  0
 23 21  1  0
 25 23  2  0
M  END
$$$$
