CHN.pdb
     RDKit          3D

 25 25  0  0  1  0  0  0  0  0999 V2000
    5.1957  -13.4959   26.6594 N   0  0  0  0  0  0  0  0  0  0  0  0
    6.1973  -12.9458   25.7984 C   0  0  1  0  0  0  0  0  0  0  0  0
    7.1834  -12.0411   26.4740 C   0  0  0  0  0  0  0  0  0  0  0  0
    6.4721  -10.5192   27.0953 S   0  0  0  0  0  0  0  0  0  0  0  0
    6.8678  -14.0699   25.0523 C   0  0  0  0  0  0  0  0  0  0  0  0
    6.8700  -15.2409   25.5043 O   0  0  0  0  0  0  0  0  0  0  0  0
    7.5204  -13.8525   23.8166 N   0  0  0  0  0  0  0  0  0  0  0  0
    8.1264  -14.9253   23.1028 C   0  0  1  0  0  0  0  0  0  0  0  0
    8.2488  -14.6070   21.6491 C   0  0  0  0  0  0  0  0  0  0  0  0
    8.8285  -15.6994   20.8338 C   0  0  0  0  0  0  0  0  0  0  0  0
   10.0532  -16.3182   20.9583 C   0  0  0  0  0  0  0  0  0  0  0  0
   10.2029  -17.2654   20.0185 N   0  0  0  0  0  0  0  0  0  0  0  0
    9.0726  -17.2599   19.2836 C   0  0  0  0  0  0  0  0  0  0  0  0
    8.2503  -16.3174   19.7775 N   0  0  0  0  0  0  0  0  0  0  0  0
    9.3626  -15.4255   23.7125 C   0  0  0  0  0  0  0  0  0  0  0  0
   10.2020  -14.6159   24.1502 O   0  0  0  0  0  0  0  0  0  0  0  0
   12.3759  -18.6562   26.5567 N   0  0  0  0  0  0  0  0  0  0  0  0
   10.9705  -18.6827   26.7844 C   0  0  0  0  0  0  0  0  0  0  0  0
   10.5683  -19.2796   27.8139 O   0  0  0  0  0  0  0  0  0  0  0  0
    9.9965  -18.0498   25.8774 C   0  0  0  0  0  0  0  0  0  0  0  0
   10.6470  -17.3471   24.7199 C   0  0  2  0  0  0  0  0  0  0  0  0
    9.6134  -16.8080   23.8098 N   0  0  0  0  0  0  0  0  0  0  0  0
   11.5275  -18.2724   23.9479 C   0  0  0  0  0  0  0  0  0  0  0  0
   12.9073  -18.2568   23.9997 O   0  0  0  0  0  0  0  0  0  0  0  0
   11.0244  -19.1552   23.1727 O   0  0  0  0  0  0  0  0  0  0  0  0
  2  1  1  1
  3  2  1  0
  4  3  1  0
  5  2  1  0
  5  6  2  0
  7  5  1  0
  8  7  1  0
  8  9  1  6
 10  9  1  0
 10 14  1  0
 11 12  1  0
 11 10  2  0
 12 13  1  0
 13 14  2  0
 15  8  1  0
 16 15  2  0
 18 17  1  0
 19 18  2  0
 20 18  1  0
 21 20  1  1
 21 22  1  0
 22 15  1  0
 23 24  1  0
 23 21  1  0
 25 23  2  0
M  END
$$$$
