CHN.pdb
     RDKit          3D

 25 25  0  0  1  0  0  0  0  0999 V2000
    8.9782  -17.7756   16.9112 N   0  0  0  0  0  0  0  0  0  0  0  0
    8.8824  -18.1193   18.2968 C   0  0  1  0  0  0  0  0  0  0  0  0
    9.3532  -19.5008   18.6388 C   0  0  0  0  0  0  0  0  0  0  0  0
    8.9806  -20.0053   20.3165 S   0  0  0  0  0  0  0  0  0  0  0  0
    9.5775  -17.0586   19.1100 C   0  0  0  0  0  0  0  0  0  0  0  0
   10.7217  -16.6464   18.8000 O   0  0  0  0  0  0  0  0  0  0  0  0
    8.9715  -16.4862   20.2525 N   0  0  0  0  0  0  0  0  0  0  0  0
    9.6312  -15.4777   21.0112 C   0  0  1  0  0  0  0  0  0  0  0  0
    8.7678  -14.2701   21.1720 C   0  0  0  0  0  0  0  0  0  0  0  0
    8.1443  -13.7962   19.9146 C   0  0  0  0  0  0  0  0  0  0  0  0
    6.8214  -13.8408   19.5323 C   0  0  0  0  0  0  0  0  0  0  0  0
    6.6633  -13.3069   18.3104 N   0  0  0  0  0  0  0  0  0  0  0  0
    7.8867  -12.9157   17.9007 C   0  0  0  0  0  0  0  0  0  0  0  0
    8.7728  -13.2119   18.8680 N   0  0  0  0  0  0  0  0  0  0  0  0
   10.2222  -15.9623   22.2626 C   0  0  0  0  0  0  0  0  0  0  0  0
    9.4972  -16.1181   23.2635 O   0  0  0  0  0  0  0  0  0  0  0  0
   10.2999  -18.9995   24.3044 N   0  0  0  0  0  0  0  0  0  0  0  0
   11.3819  -19.0871   23.3827 C   0  0  0  0  0  0  0  0  0  0  0  0
   11.2996  -19.9613   22.4845 O   0  0  0  0  0  0  0  0  0  0  0  0
   12.5644  -18.2098   23.4446 C   0  0  0  0  0  0  0  0  0  0  0  0
   12.2079  -16.7585   23.5968 C   0  0  2  0  0  0  0  0  0  0  0  0
   11.5975  -16.2539   22.3479 N   0  0  0  0  0  0  0  0  0  0  0  0
   13.4118  -15.9330   23.9076 C   0  0  0  0  0  0  0  0  0  0  0  0
   13.9093  -14.9426   23.0839 O   0  0  0  0  0  0  0  0  0  0  0  0
   14.0630  -16.1134   24.9924 O   0  0  0  0  0  0  0  0  0  0  0  0
  2  1  1  6
  3  2  1  0
  4  3  1  0
  5  2  1  0
  5  6  2  0
  7  5  1  0
  8  7  1  0
  8  9  1  1
 10  9  1  0
 10 14  1  0
 11 12  1  0
 11 10  2  0
 12 13  1  0
 13 14  2  0
 15  8  1  0
 16 15  2  0
 18 17  1  0
 19 18  2  0
 20 18  1  0
 21 20  1  6
 21 22  1  0
 22 15  1  0
 23 24  1  0
 23 21  1  0
 25 23  2  0
M  END
$$$$
