CHN.pdb
     RDKit          3D

 25 25  0  0  1  0  0  0  0  0999 V2000
    5.0178  -18.5730   20.1560 N   0  0  0  0  0  0  0  0  0  0  0  0
    4.9156  -17.4606   21.0500 C   0  0  1  0  0  0  0  0  0  0  0  0
    4.1879  -17.7435   22.3297 C   0  0  0  0  0  0  0  0  0  0  0  0
    2.6472  -18.6309   22.1132 S   0  0  0  0  0  0  0  0  0  0  0  0
    6.2933  -16.8983   21.2859 C   0  0  0  0  0  0  0  0  0  0  0  0
    7.3222  -17.5817   21.0629 O   0  0  0  0  0  0  0  0  0  0  0  0
    6.4830  -15.5820   21.7670 N   0  0  0  0  0  0  0  0  0  0  0  0
    7.7836  -15.0090   21.8572 C   0  0  1  0  0  0  0  0  0  0  0  0
    7.7886  -13.5988   21.3666 C   0  0  0  0  0  0  0  0  0  0  0  0
    7.7743  -13.4678   19.8911 C   0  0  0  0  0  0  0  0  0  0  0  0
    8.8104  -13.1561   19.0382 C   0  0  0  0  0  0  0  0  0  0  0  0
    8.3855  -13.1351   17.7647 N   0  0  0  0  0  0  0  0  0  0  0  0
    7.0711  -13.4340   17.7930 C   0  0  0  0  0  0  0  0  0  0  0  0
    6.7089  -13.6330   19.0727 N   0  0  0  0  0  0  0  0  0  0  0  0
    8.4275  -15.1916   23.1618 C   0  0  0  0  0  0  0  0  0  0  0  0
    7.7577  -15.0475   24.2021 O   0  0  0  0  0  0  0  0  0  0  0  0
   11.3544  -18.0671   26.3618 N   0  0  0  0  0  0  0  0  0  0  0  0
   10.1821  -18.4194   25.6342 C   0  0  0  0  0  0  0  0  0  0  0  0
    9.6525  -19.5263   25.9029 O   0  0  0  0  0  0  0  0  0  0  0  0
    9.5839  -17.5523   24.6035 C   0  0  0  0  0  0  0  0  0  0  0  0
   10.3332  -16.2637   24.4173 C   0  0  2  0  0  0  0  0  0  0  0  0
    9.7922  -15.5275   23.2544 N   0  0  0  0  0  0  0  0  0  0  0  0
   11.7881  -16.5087   24.1929 C   0  0  0  0  0  0  0  0  0  0  0  0
   12.7364  -16.5332   25.1963 O   0  0  0  0  0  0  0  0  0  0  0  0
   12.2401  -16.7140   23.0152 O   0  0  0  0  0  0  0  0  0  0  0  0
  2  1  1  1
  3  2  1  0
  4  3  1  0
  5  2  1  0
  5  6  2  0
  7  5  1  0
  8  7  1  0
  8  9  1  1
 10  9  1  0
 10 14  1  0
 11 12  1  0
 11 10  2  0
 12 13  1  0
 13 14  2  0
 15  8  1  0
 16 15  2  0
 18 17  1  0
 19 18  2  0
 20 18  1  0
 21 20  1  6
 21 22  1  0
 22 15  1  0
 23 24  1  0
 23 21  1  0
 25 23  2  0
M  END
$$$$
