CHN.pdb
     RDKit          3D

 25 25  0  0  1  0  0  0  0  0999 V2000
    5.8363  -15.9638   21.3222 N   0  0  0  0  0  0  0  0  0  0  0  0
    6.8905  -15.2089   21.9272 C   0  0  1  0  0  0  0  0  0  0  0  0
    7.0229  -15.3850   23.4100 C   0  0  0  0  0  0  0  0  0  0  0  0
    8.0566  -14.1556   24.2024 S   0  0  0  0  0  0  0  0  0  0  0  0
    8.1765  -15.4990   21.1980 C   0  0  0  0  0  0  0  0  0  0  0  0
    8.4359  -16.6495   20.7686 O   0  0  0  0  0  0  0  0  0  0  0  0
    9.1410  -14.4904   20.9687 N   0  0  0  0  0  0  0  0  0  0  0  0
   10.3659  -14.7780   20.3018 C   0  0  1  0  0  0  0  0  0  0  0  0
   10.6415  -13.7826   19.2235 C   0  0  0  0  0  0  0  0  0  0  0  0
    9.6574  -13.7968   18.1165 C   0  0  0  0  0  0  0  0  0  0  0  0
    8.6555  -12.8938   17.8353 C   0  0  0  0  0  0  0  0  0  0  0  0
    7.9762  -13.2663   16.7386 N   0  0  0  0  0  0  0  0  0  0  0  0
    8.5395  -14.4132   16.3087 C   0  0  0  0  0  0  0  0  0  0  0  0
    9.5489  -14.7275   17.1398 N   0  0  0  0  0  0  0  0  0  0  0  0
   11.4973  -15.0112   21.2050 C   0  0  0  0  0  0  0  0  0  0  0  0
   11.9609  -14.0621   21.8653 O   0  0  0  0  0  0  0  0  0  0  0  0
   11.2354  -16.5488   24.2668 N   0  0  0  0  0  0  0  0  0  0  0  0
   11.9421  -17.7511   23.9792 C   0  0  0  0  0  0  0  0  0  0  0  0
   11.6127  -18.7772   24.6245 O   0  0  0  0  0  0  0  0  0  0  0  0
   13.0188  -17.8311   22.9761 C   0  0  0  0  0  0  0  0  0  0  0  0
   13.2182  -16.5432   22.2290 C   0  0  2  0  0  0  0  0  0  0  0  0
   12.0663  -16.2929   21.3359 N   0  0  0  0  0  0  0  0  0  0  0  0
   14.4621  -16.5800   21.4052 C   0  0  0  0  0  0  0  0  0  0  0  0
   14.4834  -16.5191   20.0259 O   0  0  0  0  0  0  0  0  0  0  0  0
   15.6091  -16.6743   21.9611 O   0  0  0  0  0  0  0  0  0  0  0  0
  2  1  1  6
  3  2  1  0
  4  3  1  0
  5  2  1  0
  5  6  2  0
  7  5  1  0
  8  7  1  0
  8  9  1  6
 10  9  1  0
 10 14  1  0
 11 12  1  0
 11 10  2  0
 12 13  1  0
 13 14  2  0
 15  8  1  0
 16 15  2  0
 18 17  1  0
 19 18  2  0
 20 18  1  0
 21 20  1  6
 21 22  1  0
 22 15  1  0
 23 24  1  0
 23 21  1  0
 25 23  2  0
M  END
$$$$
