CHN.pdb
     RDKit          3D

 25 25  0  0  1  0  0  0  0  0999 V2000
    9.6629  -18.6616   14.0949 N   0  0  0  0  0  0  0  0  0  0  0  0
    8.7305  -18.6234   15.1795 C   0  0  1  0  0  0  0  0  0  0  0  0
    8.5589  -19.9207   15.9109 C   0  0  0  0  0  0  0  0  0  0  0  0
   10.0605  -20.5366   16.6684 S   0  0  0  0  0  0  0  0  0  0  0  0
    9.1022  -17.4906   16.1005 C   0  0  0  0  0  0  0  0  0  0  0  0
   10.2422  -16.9667   16.0608 O   0  0  0  0  0  0  0  0  0  0  0  0
    8.1853  -16.9730   17.0447 N   0  0  0  0  0  0  0  0  0  0  0  0
    8.5529  -15.9207   17.9309 C   0  0  1  0  0  0  0  0  0  0  0  0
    7.3481  -15.2342   18.4847 C   0  0  0  0  0  0  0  0  0  0  0  0
    7.6505  -14.0213   19.2794 C   0  0  0  0  0  0  0  0  0  0  0  0
    7.4924  -13.8088   20.6315 C   0  0  0  0  0  0  0  0  0  0  0  0
    7.8839  -12.5685   20.9650 N   0  0  0  0  0  0  0  0  0  0  0  0
    8.2965  -11.9764   19.8262 C   0  0  0  0  0  0  0  0  0  0  0  0
    8.1542  -12.8533   18.8166 N   0  0  0  0  0  0  0  0  0  0  0  0
    9.5389  -16.3102   18.9440 C   0  0  0  0  0  0  0  0  0  0  0  0
    9.6396  -17.5072   19.2738 O   0  0  0  0  0  0  0  0  0  0  0  0
   15.0545  -15.5255   20.5782 N   0  0  0  0  0  0  0  0  0  0  0  0
   13.8003  -15.0948   21.0973 C   0  0  0  0  0  0  0  0  0  0  0  0
   13.7027  -14.9899   22.3452 O   0  0  0  0  0  0  0  0  0  0  0  0
   12.6428  -14.7758   20.2427 C   0  0  0  0  0  0  0  0  0  0  0  0
   11.5046  -15.7408   20.4166 C   0  0  2  0  0  0  0  0  0  0  0  0
   10.3729  -15.3497   19.5487 N   0  0  0  0  0  0  0  0  0  0  0  0
   11.0320  -15.7740   21.8319 C   0  0  0  0  0  0  0  0  0  0  0  0
    9.9653  -15.0408   22.3129 O   0  0  0  0  0  0  0  0  0  0  0  0
   11.6170  -16.5108   22.6969 O   0  0  0  0  0  0  0  0  0  0  0  0
  2  1  1  6
  3  2  1  0
  4  3  1  0
  5  2  1  0
  5  6  2  0
  7  5  1  0
  8  7  1  0
  8  9  1  1
 10  9  1  0
 10 14  1  0
 11 12  1  0
 11 10  2  0
 12 13  1  0
 13 14  2  0
 15  8  1  0
 16 15  2  0
 18 17  1  0
 19 18  2  0
 20 18  1  0
 21 20  1  1
 21 22  1  0
 22 15  1  0
 23 24  1  0
 23 21  1  0
 25 23  2  0
M  END
$$$$
