KEI.pdb
     RDKit          3D

 27 26  0  0  1  0  0  0  0  0999 V2000
   28.1232  -23.1982  -16.8905 N   0  0  0  0  0  0  0  0  0  0  0  0
   28.7156  -21.9071  -16.8070 C   0  0  1  0  0  0  0  0  0  0  0  0
   29.0599  -21.2805  -18.1388 C   0  0  0  0  0  0  0  0  0  0  0  0
   30.0283  -22.0630  -18.9389 C   0  0  0  0  0  0  0  0  0  0  0  0
   29.6166  -23.3935  -19.4388 C   0  0  0  0  0  0  0  0  0  0  0  0
   30.6349  -24.1600  -20.2108 C   0  0  0  0  0  0  0  0  0  0  0  0
   30.1976  -25.4877  -20.4918 N   0  0  0  0  0  0  0  0  0  0  0  0
   27.7984  -20.9962  -16.0582 C   0  0  0  0  0  0  0  0  0  0  0  0
   28.0858  -19.7487  -15.9798 O   0  0  0  0  0  0  0  0  0  0  0  0
   26.6394  -21.4904  -15.4505 N   0  0  0  0  0  0  0  0  0  0  0  0
   25.6359  -20.5769  -14.7992 C   0  0  1  0  0  0  0  0  0  0  0  0
   24.5085  -20.5110  -15.7461 C   0  0  0  0  0  0  0  0  0  0  0  0
   23.2092  -19.9481  -15.3851 C   0  0  0  0  0  0  0  0  0  0  0  0
   22.6777  -18.8298  -16.1508 C   0  0  0  0  0  0  0  0  0  0  0  0
   23.0056  -18.6172  -17.3391 O   0  0  0  0  0  0  0  0  0  0  0  0
   25.3554  -21.1538  -13.5021 C   0  0  0  0  0  0  0  0  0  0  0  0
   25.0472  -22.3983  -13.4150 O   0  0  0  0  0  0  0  0  0  0  0  0
   21.7745  -17.9528  -15.5652 O   0  0  0  0  0  0  0  0  0  0  0  0
   27.5996  -20.0209   -8.8025 C   0  0  0  0  0  0  0  0  0  0  0  0
   26.8175  -20.6368   -9.9268 C   0  0  0  0  0  0  0  0  0  0  0  0
   25.3548  -20.3292   -9.8605 C   0  0  2  0  0  0  0  0  0  0  0  0
   24.6750  -20.8529   -8.6439 C   0  0  0  0  0  0  0  0  0  0  0  0
   24.6908  -20.9707  -11.0895 C   0  0  2  0  0  0  0  0  0  0  0  0
   25.3985  -20.4611  -12.2413 N   0  0  0  0  0  0  0  0  0  0  0  0
   23.2564  -20.6867  -11.1173 C   0  0  0  0  0  0  0  0  0  0  0  0
   22.3300  -21.5518  -10.5763 O   0  0  0  0  0  0  0  0  0  0  0  0
   22.7893  -19.6350  -11.6393 O   0  0  0  0  0  0  0  0  0  0  0  0
  2  1  1  6
  3  2  1  0
  4  3  1  0
  4  5  1  0
  5  6  1  0
  7  6  1  0
  8  2  1  0
  8  9  2  0
 10  8  1  0
 11 10  1  0
 11 12  1  6
 13 12  1  0
 13 14  1  0
 14 15  2  0
 16 24  1  0
 16 11  1  0
 17 16  2  0
 18 14  1  0
 19 20  1  0
 20 21  1  0
 21 22  1  1
 23 24  1  6
 23 21  1  0
 25 23  1  0
 26 25  1  0
 27 25  2  0
M  END
$$$$
