KEI.pdb
     RDKit          3D

 27 26  0  0  1  0  0  0  0  0999 V2000
   19.6974  -21.1470  -16.4833 N   0  0  0  0  0  0  0  0  0  0  0  0
   20.5308  -20.1523  -15.8995 C   0  0  1  0  0  0  0  0  0  0  0  0
   19.8715  -19.3289  -14.8168 C   0  0  0  0  0  0  0  0  0  0  0  0
   19.1886  -18.1149  -15.3166 C   0  0  0  0  0  0  0  0  0  0  0  0
   18.2298  -18.2559  -16.4349 C   0  0  0  0  0  0  0  0  0  0  0  0
   16.8123  -17.8977  -16.1470 C   0  0  0  0  0  0  0  0  0  0  0  0
   15.9967  -17.9844  -17.3134 N   0  0  0  0  0  0  0  0  0  0  0  0
   21.7544  -20.8047  -15.3439 C   0  0  0  0  0  0  0  0  0  0  0  0
   21.6577  -21.4992  -14.2699 O   0  0  0  0  0  0  0  0  0  0  0  0
   22.9913  -20.6655  -15.9823 N   0  0  0  0  0  0  0  0  0  0  0  0
   24.2259  -21.3624  -15.4767 C   0  0  1  0  0  0  0  0  0  0  0  0
   24.9832  -21.7245  -16.6881 C   0  0  0  0  0  0  0  0  0  0  0  0
   26.3388  -22.2678  -16.6359 C   0  0  0  0  0  0  0  0  0  0  0  0
   27.0412  -22.5555  -17.8783 C   0  0  0  0  0  0  0  0  0  0  0  0
   26.5236  -22.3588  -19.0000 O   0  0  0  0  0  0  0  0  0  0  0  0
   24.8652  -20.4324  -14.5709 C   0  0  0  0  0  0  0  0  0  0  0  0
   24.6027  -19.1776  -14.6610 O   0  0  0  0  0  0  0  0  0  0  0  0
   28.3313  -23.0676  -17.8451 O   0  0  0  0  0  0  0  0  0  0  0  0
   29.2063  -21.3993  -10.6558 C   0  0  0  0  0  0  0  0  0  0  0  0
   28.4274  -21.0354  -11.8871 C   0  0  0  0  0  0  0  0  0  0  0  0
   27.1166  -20.3829  -11.5798 C   0  0  2  0  0  0  0  0  0  0  0  0
   26.0752  -21.3155  -11.0674 C   0  0  0  0  0  0  0  0  0  0  0  0
   26.5944  -19.7568  -12.8829 C   0  0  2  0  0  0  0  0  0  0  0  0
   25.7931  -20.7732  -13.5249 N   0  0  0  0  0  0  0  0  0  0  0  0
   27.6992  -19.2784  -13.7130 C   0  0  0  0  0  0  0  0  0  0  0  0
   28.3145  -18.0669  -13.4827 O   0  0  0  0  0  0  0  0  0  0  0  0
   28.1480  -19.9482  -14.6861 O   0  0  0  0  0  0  0  0  0  0  0  0
  2  1  1  1
  3  2  1  0
  4  3  1  0
  4  5  1  0
  5  6  1  0
  7  6  1  0
  8  2  1  0
  8  9  2  0
 10  8  1  0
 11 10  1  0
 11 12  1  6
 13 12  1  0
 13 14  1  0
 14 15  2  0
 16 24  1  0
 16 11  1  0
 17 16  2  0
 18 14  1  0
 19 20  1  0
 20 21  1  0
 21 22  1  6
 23 24  1  6
 23 21  1  0
 25 23  1  0
 26 25  1  0
 27 25  2  0
M  END
$$$$
