KEI.pdb
     RDKit          3D

 27 26  0  0  1  0  0  0  0  0999 V2000
   25.5867  -33.5089   -9.9670 N   0  0  0  0  0  0  0  0  0  0  0  0
   25.4372  -32.9284   -8.6765 C   0  0  1  0  0  0  0  0  0  0  0  0
   24.1411  -32.1799   -8.4646 C   0  0  0  0  0  0  0  0  0  0  0  0
   23.4374  -31.8295   -9.7185 C   0  0  0  0  0  0  0  0  0  0  0  0
   22.1168  -31.1686   -9.6239 C   0  0  0  0  0  0  0  0  0  0  0  0
   21.4376  -30.8489  -10.9110 C   0  0  0  0  0  0  0  0  0  0  0  0
   20.1970  -30.1774  -10.7028 N   0  0  0  0  0  0  0  0  0  0  0  0
   25.5609  -33.9989   -7.6420 C   0  0  0  0  0  0  0  0  0  0  0  0
   25.1095  -35.1712   -7.9008 O   0  0  0  0  0  0  0  0  0  0  0  0
   26.1614  -33.7335   -6.4068 N   0  0  0  0  0  0  0  0  0  0  0  0
   26.3611  -34.8118   -5.3757 C   0  0  1  0  0  0  0  0  0  0  0  0
   27.7048  -34.5666   -4.8221 C   0  0  0  0  0  0  0  0  0  0  0  0
   28.2204  -35.2858   -3.6592 C   0  0  0  0  0  0  0  0  0  0  0  0
   29.5194  -34.9214   -3.1122 C   0  0  0  0  0  0  0  0  0  0  0  0
   29.9878  -33.7660   -3.2147 O   0  0  0  0  0  0  0  0  0  0  0  0
   25.2524  -34.6913   -4.4537 C   0  0  0  0  0  0  0  0  0  0  0  0
   24.7327  -33.5366   -4.2344 O   0  0  0  0  0  0  0  0  0  0  0  0
   30.2861  -35.8707   -2.4498 O   0  0  0  0  0  0  0  0  0  0  0  0
   22.1290  -38.9910   -3.4108 C   0  0  0  0  0  0  0  0  0  0  0  0
   22.6529  -37.6037   -3.6475 C   0  0  0  0  0  0  0  0  0  0  0  0
   23.0145  -36.8904   -2.3831 C   0  0  2  0  0  0  0  0  0  0  0  0
   21.8698  -36.6703   -1.4570 C   0  0  0  0  0  0  0  0  0  0  0  0
   23.5816  -35.5159   -2.7730 C   0  0  2  0  0  0  0  0  0  0  0  0
   24.6304  -35.7710   -3.7334 N   0  0  0  0  0  0  0  0  0  0  0  0
   24.0409  -34.7852   -1.5924 C   0  0  0  0  0  0  0  0  0  0  0  0
   25.3096  -34.9491   -1.0798 O   0  0  0  0  0  0  0  0  0  0  0  0
   23.3000  -33.9662   -0.9783 O   0  0  0  0  0  0  0  0  0  0  0  0
  2  1  1  6
  3  2  1  0
  4  3  1  0
  4  5  1  0
  5  6  1  0
  7  6  1  0
  8  2  1  0
  8  9  2  0
 10  8  1  0
 11 10  1  0
 11 12  1  1
 13 12  1  0
 13 14  1  0
 14 15  2  0
 16 24  1  0
 16 11  1  0
 17 16  2  0
 18 14  1  0
 19 20  1  0
 20 21  1  0
 21 22  1  1
 23 24  1  6
 23 21  1  0
 25 23  1  0
 26 25  1  0
 27 25  2  0
M  END
$$$$
