KEI.pdb
     RDKit          3D

 27 26  0  0  1  0  0  0  0  0999 V2000
   15.8271  -12.2369  -13.6612 N   0  0  0  0  0  0  0  0  0  0  0  0
   15.9317  -11.2149  -14.6458 C   0  0  1  0  0  0  0  0  0  0  0  0
   14.6334  -10.5118  -14.9696 C   0  0  0  0  0  0  0  0  0  0  0  0
   13.5852  -11.4046  -15.5120 C   0  0  0  0  0  0  0  0  0  0  0  0
   13.8050  -12.0253  -16.8371 C   0  0  0  0  0  0  0  0  0  0  0  0
   12.6677  -12.8014  -17.4069 C   0  0  0  0  0  0  0  0  0  0  0  0
   12.9831  -13.3392  -18.6892 N   0  0  0  0  0  0  0  0  0  0  0  0
   16.9381  -10.2060  -14.1977 C   0  0  0  0  0  0  0  0  0  0  0  0
   16.8910   -9.7713  -12.9919 O   0  0  0  0  0  0  0  0  0  0  0  0
   17.9221   -9.7392  -15.0755 N   0  0  0  0  0  0  0  0  0  0  0  0
   18.9520   -8.7292  -14.6454 C   0  0  1  0  0  0  0  0  0  0  0  0
   20.2182   -9.2005  -15.2343 C   0  0  0  0  0  0  0  0  0  0  0  0
   21.4676   -8.4517  -15.1172 C   0  0  0  0  0  0  0  0  0  0  0  0
   22.6699   -8.9636  -15.7590 C   0  0  0  0  0  0  0  0  0  0  0  0
   23.1273  -10.1013  -15.5116 O   0  0  0  0  0  0  0  0  0  0  0  0
   18.4664   -7.4455  -15.1038 C   0  0  0  0  0  0  0  0  0  0  0  0
   17.9045   -7.3548  -16.2560 O   0  0  0  0  0  0  0  0  0  0  0  0
   23.3526   -8.1816  -16.6811 O   0  0  0  0  0  0  0  0  0  0  0  0
   14.8003   -3.1350  -15.0330 C   0  0  0  0  0  0  0  0  0  0  0  0
   16.2703   -3.4034  -15.1824 C   0  0  0  0  0  0  0  0  0  0  0  0
   16.6942   -4.7011  -14.5705 C   0  0  2  0  0  0  0  0  0  0  0  0
   16.6363   -4.7230  -13.0830 C   0  0  0  0  0  0  0  0  0  0  0  0
   18.1493   -4.9589  -14.9935 C   0  0  2  0  0  0  0  0  0  0  0  0
   18.5334   -6.2066  -14.3745 N   0  0  0  0  0  0  0  0  0  0  0  0
   19.0095   -3.8367  -14.6199 C   0  0  0  0  0  0  0  0  0  0  0  0
   19.8730   -3.9036  -13.5479 O   0  0  0  0  0  0  0  0  0  0  0  0
   19.0066   -2.7459  -15.2580 O   0  0  0  0  0  0  0  0  0  0  0  0
  2  1  1  1
  3  2  1  0
  4  3  1  0
  4  5  1  0
  5  6  1  0
  7  6  1  0
  8  2  1  0
  8  9  2  0
 10  8  1  0
 11 10  1  0
 11 12  1  6
 13 12  1  0
 13 14  1  0
 14 15  2  0
 16 24  1  0
 16 11  1  0
 17 16  2  0
 18 14  1  0
 19 20  1  0
 20 21  1  0
 21 22  1  1
 23 24  1  1
 23 21  1  0
 25 23  1  0
 26 25  1  0
 27 25  2  0
M  END
$$$$
