KEI.pdb
     RDKit          3D

 27 26  0  0  1  0  0  0  0  0999 V2000
   28.1085  -21.4351  -19.4020 N   0  0  0  0  0  0  0  0  0  0  0  0
   28.3699  -21.9143  -18.0879 C   0  0  1  0  0  0  0  0  0  0  0  0
   29.8342  -22.0931  -17.7582 C   0  0  0  0  0  0  0  0  0  0  0  0
   30.2610  -23.5070  -17.6640 C   0  0  0  0  0  0  0  0  0  0  0  0
   29.3876  -24.4598  -16.9436 C   0  0  0  0  0  0  0  0  0  0  0  0
   29.8454  -25.8769  -16.8933 C   0  0  0  0  0  0  0  0  0  0  0  0
   28.9848  -26.6836  -16.0923 N   0  0  0  0  0  0  0  0  0  0  0  0
   27.7535  -20.9823  -17.0964 C   0  0  0  0  0  0  0  0  0  0  0  0
   28.3948  -19.9267  -16.7506 O   0  0  0  0  0  0  0  0  0  0  0  0
   26.4939  -21.2504  -16.5504 N   0  0  0  0  0  0  0  0  0  0  0  0
   25.8177  -20.2888  -15.6102 C   0  0  1  0  0  0  0  0  0  0  0  0
   24.6440  -19.7925  -16.3506 C   0  0  0  0  0  0  0  0  0  0  0  0
   23.5921  -18.9993  -15.7182 C   0  0  0  0  0  0  0  0  0  0  0  0
   22.4134  -18.6317  -16.4896 C   0  0  0  0  0  0  0  0  0  0  0  0
   22.4394  -18.5134  -17.7347 O   0  0  0  0  0  0  0  0  0  0  0  0
   25.5481  -21.0371  -14.4014 C   0  0  0  0  0  0  0  0  0  0  0  0
   25.0521  -22.2196  -14.4851 O   0  0  0  0  0  0  0  0  0  0  0  0
   21.2060  -18.3975  -15.8454 O   0  0  0  0  0  0  0  0  0  0  0  0
   25.9495  -21.0595   -8.1990 C   0  0  0  0  0  0  0  0  0  0  0  0
   25.3309  -21.4716   -9.5039 C   0  0  0  0  0  0  0  0  0  0  0  0
   25.8953  -20.7362  -10.6781 C   0  0  2  0  0  0  0  0  0  0  0  0
   25.7489  -19.2567  -10.6003 C   0  0  0  0  0  0  0  0  0  0  0  0
   25.1493  -21.2225  -11.9310 C   0  0  2  0  0  0  0  0  0  0  0  0
   25.7976  -20.5896  -13.0565 N   0  0  0  0  0  0  0  0  0  0  0  0
   23.7211  -20.9215  -11.8395 C   0  0  0  0  0  0  0  0  0  0  0  0
   22.8139  -21.8298  -11.3382 O   0  0  0  0  0  0  0  0  0  0  0  0
   23.2418  -19.8144  -12.2158 O   0  0  0  0  0  0  0  0  0  0  0  0
  2  1  1  6
  3  2  1  0
  4  3  1  0
  4  5  1  0
  5  6  1  0
  7  6  1  0
  8  2  1  0
  8  9  2  0
 10  8  1  0
 11 10  1  0
 11 12  1  6
 13 12  1  0
 13 14  1  0
 14 15  2  0
 16 24  1  0
 16 11  1  0
 17 16  2  0
 18 14  1  0
 19 20  1  0
 20 21  1  0
 21 22  1  1
 23 24  1  6
 23 21  1  0
 25 23  1  0
 26 25  1  0
 27 25  2  0
M  END
$$$$
