KEI.pdb
     RDKit          3D

 27 26  0  0  1  0  0  0  0  0999 V2000
   29.2629  -23.4907  -18.4026 N   0  0  0  0  0  0  0  0  0  0  0  0
   29.2015  -23.4644  -16.9812 C   0  0  1  0  0  0  0  0  0  0  0  0
   30.5381  -23.3113  -16.2920 C   0  0  0  0  0  0  0  0  0  0  0  0
   31.6239  -24.1114  -16.9011 C   0  0  0  0  0  0  0  0  0  0  0  0
   31.7188  -25.5474  -16.5570 C   0  0  0  0  0  0  0  0  0  0  0  0
   32.8398  -26.3088  -17.1766 C   0  0  0  0  0  0  0  0  0  0  0  0
   32.9006  -27.6490  -16.6935 N   0  0  0  0  0  0  0  0  0  0  0  0
   28.2975  -22.3555  -16.5517 C   0  0  0  0  0  0  0  0  0  0  0  0
   28.7854  -21.1802  -16.3907 O   0  0  0  0  0  0  0  0  0  0  0  0
   26.9364  -22.5885  -16.3284 N   0  0  0  0  0  0  0  0  0  0  0  0
   26.0032  -21.4854  -15.9066 C   0  0  1  0  0  0  0  0  0  0  0  0
   24.9751  -21.4309  -16.9611 C   0  0  0  0  0  0  0  0  0  0  0  0
   23.7628  -20.6243  -16.8377 C   0  0  0  0  0  0  0  0  0  0  0  0
   22.7519  -20.6897  -17.8833 C   0  0  0  0  0  0  0  0  0  0  0  0
   21.6881  -20.0340  -17.8267 O   0  0  0  0  0  0  0  0  0  0  0  0
   25.5468  -21.8360  -14.5789 C   0  0  0  0  0  0  0  0  0  0  0  0
   25.2620  -23.0596  -14.3089 O   0  0  0  0  0  0  0  0  0  0  0  0
   22.9501  -21.5011  -18.9923 O   0  0  0  0  0  0  0  0  0  0  0  0
   25.9700  -20.8267   -8.6293 C   0  0  0  0  0  0  0  0  0  0  0  0
   25.1745  -21.3097   -9.8079 C   0  0  0  0  0  0  0  0  0  0  0  0
   25.7644  -20.9003  -11.1204 C   0  0  2  0  0  0  0  0  0  0  0  0
   25.9535  -19.4316  -11.2737 C   0  0  0  0  0  0  0  0  0  0  0  0
   24.8074  -21.3744  -12.2260 C   0  0  2  0  0  0  0  0  0  0  0  0
   25.3821  -20.9283  -13.4742 N   0  0  0  0  0  0  0  0  0  0  0  0
   23.4535  -20.8710  -11.9976 C   0  0  0  0  0  0  0  0  0  0  0  0
   22.5692  -21.5097  -11.1553 O   0  0  0  0  0  0  0  0  0  0  0  0
   23.0212  -19.8254  -12.5604 O   0  0  0  0  0  0  0  0  0  0  0  0
  2  1  1  6
  3  2  1  0
  4  3  1  0
  4  5  1  0
  5  6  1  0
  7  6  1  0
  8  2  1  0
  8  9  2  0
 10  8  1  0
 11 10  1  0
 11 12  1  6
 13 12  1  0
 13 14  1  0
 14 15  2  0
 16 24  1  0
 16 11  1  0
 17 16  2  0
 18 14  1  0
 19 20  1  0
 20 21  1  0
 21 22  1  1
 23 24  1  6
 23 21  1  0
 25 23  1  0
 26 25  1  0
 27 25  2  0
M  END
$$$$
