KEI.pdb
     RDKit          3D

 27 26  0  0  1  0  0  0  0  0999 V2000
   22.8885  -17.4228  -17.6175 N   0  0  0  0  0  0  0  0  0  0  0  0
   21.8923  -16.5549  -17.0892 C   0  0  1  0  0  0  0  0  0  0  0  0
   21.6283  -16.7195  -15.6100 C   0  0  0  0  0  0  0  0  0  0  0  0
   20.9327  -17.9779  -15.2598 C   0  0  0  0  0  0  0  0  0  0  0  0
   21.6771  -19.2512  -15.3801 C   0  0  0  0  0  0  0  0  0  0  0  0
   20.9497  -20.4890  -14.9813 C   0  0  0  0  0  0  0  0  0  0  0  0
   21.7577  -21.6529  -15.1409 N   0  0  0  0  0  0  0  0  0  0  0  0
   22.2822  -15.1392  -17.3639 C   0  0  0  0  0  0  0  0  0  0  0  0
   23.5130  -14.7976  -17.2473 O   0  0  0  0  0  0  0  0  0  0  0  0
   21.3233  -14.1948  -17.7453 N   0  0  0  0  0  0  0  0  0  0  0  0
   21.7099  -12.8107  -18.1932 C   0  0  1  0  0  0  0  0  0  0  0  0
   20.5960  -12.3607  -19.0470 C   0  0  0  0  0  0  0  0  0  0  0  0
   20.5251  -11.0106  -19.6016 C   0  0  0  0  0  0  0  0  0  0  0  0
   19.3758  -10.6301  -20.4103 C   0  0  0  0  0  0  0  0  0  0  0  0
   19.4779  -10.3411  -21.6230 O   0  0  0  0  0  0  0  0  0  0  0  0
   21.9424  -12.0513  -16.9836 C   0  0  0  0  0  0  0  0  0  0  0  0
   21.2022  -12.2572  -15.9535 O   0  0  0  0  0  0  0  0  0  0  0  0
   18.1111  -10.5773  -19.8398 O   0  0  0  0  0  0  0  0  0  0  0  0
   26.5920  -11.7612  -15.0162 C   0  0  0  0  0  0  0  0  0  0  0  0
   25.1109  -11.6829  -15.2516 C   0  0  0  0  0  0  0  0  0  0  0  0
   24.5868  -10.2818  -15.2258 C   0  0  2  0  0  0  0  0  0  0  0  0
   24.7539   -9.5910  -13.9176 C   0  0  0  0  0  0  0  0  0  0  0  0
   23.0837  -10.3439  -15.5420 C   0  0  2  0  0  0  0  0  0  0  0  0
   22.9648  -11.0564  -16.7932 N   0  0  0  0  0  0  0  0  0  0  0  0
   22.5010   -9.0032  -15.5798 C   0  0  0  0  0  0  0  0  0  0  0  0
   22.2241   -8.3604  -16.7670 O   0  0  0  0  0  0  0  0  0  0  0  0
   22.2217   -8.3616  -14.5276 O   0  0  0  0  0  0  0  0  0  0  0  0
  2  1  1  1
  3  2  1  0
  4  3  1  0
  4  5  1  0
  5  6  1  0
  7  6  1  0
  8  2  1  0
  8  9  2  0
 10  8  1  0
 11 10  1  0
 11 12  1  1
 13 12  1  0
 13 14  1  0
 14 15  2  0
 16 24  1  0
 16 11  1  0
 17 16  2  0
 18 14  1  0
 19 20  1  0
 20 21  1  0
 21 22  1  1
 23 24  1  6
 23 21  1  0
 25 23  1  0
 26 25  1  0
 27 25  2  0
M  END
$$$$
