KEI.pdb
     RDKit          3D

 27 26  0  0  1  0  0  0  0  0999 V2000
   27.1323  -22.0629  -15.8451 N   0  0  0  0  0  0  0  0  0  0  0  0
   27.4229  -20.6913  -15.6021 C   0  0  1  0  0  0  0  0  0  0  0  0
   27.2010  -19.7774  -16.7854 C   0  0  0  0  0  0  0  0  0  0  0  0
   27.8399  -20.2461  -18.0353 C   0  0  0  0  0  0  0  0  0  0  0  0
   29.2542  -20.6784  -17.9842 C   0  0  0  0  0  0  0  0  0  0  0  0
   29.9035  -20.9904  -19.2886 C   0  0  0  0  0  0  0  0  0  0  0  0
   31.2379  -21.4624  -19.1165 N   0  0  0  0  0  0  0  0  0  0  0  0
   26.5987  -20.2138  -14.4514 C   0  0  0  0  0  0  0  0  0  0  0  0
   26.5916  -18.9633  -14.1661 O   0  0  0  0  0  0  0  0  0  0  0  0
   25.8415  -21.1125  -13.6927 N   0  0  0  0  0  0  0  0  0  0  0  0
   24.8905  -20.6420  -12.6250 C   0  0  1  0  0  0  0  0  0  0  0  0
   23.5757  -21.1766  -13.0221 C   0  0  0  0  0  0  0  0  0  0  0  0
   22.6432  -20.4289  -13.8629 C   0  0  0  0  0  0  0  0  0  0  0  0
   21.4353  -19.8729  -13.2701 C   0  0  0  0  0  0  0  0  0  0  0  0
   20.8376  -20.4305  -12.3232 O   0  0  0  0  0  0  0  0  0  0  0  0
   25.4299  -21.1229  -11.3714 C   0  0  0  0  0  0  0  0  0  0  0  0
   25.6670  -22.3771  -11.2227 O   0  0  0  0  0  0  0  0  0  0  0  0
   20.9067  -18.6839  -13.7545 O   0  0  0  0  0  0  0  0  0  0  0  0
   28.4293  -19.6194   -6.2039 C   0  0  0  0  0  0  0  0  0  0  0  0
   27.5783  -20.5414   -7.0290 C   0  0  0  0  0  0  0  0  0  0  0  0
   26.9877  -19.8748   -8.2312 C   0  0  2  0  0  0  0  0  0  0  0  0
   26.1082  -18.7155   -7.9166 C   0  0  0  0  0  0  0  0  0  0  0  0
   26.1445  -20.9234   -8.9744 C   0  0  2  0  0  0  0  0  0  0  0  0
   25.7577  -20.3149  -10.2263 N   0  0  0  0  0  0  0  0  0  0  0  0
   25.0069  -21.3520   -8.1614 C   0  0  0  0  0  0  0  0  0  0  0  0
   25.1264  -22.3259   -7.1937 O   0  0  0  0  0  0  0  0  0  0  0  0
   23.8540  -20.8543   -8.3030 O   0  0  0  0  0  0  0  0  0  0  0  0
  2  1  1  6
  3  2  1  0
  4  3  1  0
  4  5  1  0
  5  6  1  0
  7  6  1  0
  8  2  1  0
  8  9  2  0
 10  8  1  0
 11 10  1  0
 11 12  1  6
 13 12  1  0
 13 14  1  0
 14 15  2  0
 16 24  1  0
 16 11  1  0
 17 16  2  0
 18 14  1  0
 19 20  1  0
 20 21  1  0
 21 22  1  1
 23 24  1  6
 23 21  1  0
 25 23  1  0
 26 25  1  0
 27 25  2  0
M  END
$$$$
