KEI.pdb
     RDKit          3D

 27 26  0  0  1  0  0  0  0  0999 V2000
   21.3894  -14.8600  -19.3500 N   0  0  0  0  0  0  0  0  0  0  0  0
   20.3933  -13.8454  -19.2951 C   0  0  1  0  0  0  0  0  0  0  0  0
   19.2234  -14.1544  -18.3891 C   0  0  0  0  0  0  0  0  0  0  0  0
   18.5490  -15.4359  -18.6939 C   0  0  0  0  0  0  0  0  0  0  0  0
   17.3797  -15.8284  -17.8764 C   0  0  0  0  0  0  0  0  0  0  0  0
   16.7023  -17.1019  -18.2500 C   0  0  0  0  0  0  0  0  0  0  0  0
   17.2037  -18.2078  -17.5024 N   0  0  0  0  0  0  0  0  0  0  0  0
   21.0253  -12.5633  -18.8611 C   0  0  0  0  0  0  0  0  0  0  0  0
   22.0511  -12.6027  -18.0921 O   0  0  0  0  0  0  0  0  0  0  0  0
   20.5114  -11.3334  -19.2855 N   0  0  0  0  0  0  0  0  0  0  0  0
   21.2113  -10.0358  -18.9818 C   0  0  1  0  0  0  0  0  0  0  0  0
   20.6369   -9.0618  -19.9270 C   0  0  0  0  0  0  0  0  0  0  0  0
   20.9296   -7.6317  -19.8585 C   0  0  0  0  0  0  0  0  0  0  0  0
   20.3166   -6.7302  -20.8234 C   0  0  0  0  0  0  0  0  0  0  0  0
   19.5950   -7.1421  -21.7585 O   0  0  0  0  0  0  0  0  0  0  0  0
   20.9841   -9.7806  -17.5757 C   0  0  0  0  0  0  0  0  0  0  0  0
   19.8414  -10.0581  -17.0575 O   0  0  0  0  0  0  0  0  0  0  0  0
   20.5249   -5.3610  -20.7256 O   0  0  0  0  0  0  0  0  0  0  0  0
   24.2208  -11.5592  -14.2143 C   0  0  0  0  0  0  0  0  0  0  0  0
   23.0529  -10.9278  -14.9160 C   0  0  0  0  0  0  0  0  0  0  0  0
   22.7524   -9.5463  -14.4267 C   0  0  2  0  0  0  0  0  0  0  0  0
   22.3553   -9.4787  -12.9934 C   0  0  0  0  0  0  0  0  0  0  0  0
   21.5882   -9.0000  -15.2688 C   0  0  2  0  0  0  0  0  0  0  0  0
   21.9428   -9.2392  -16.6488 N   0  0  0  0  0  0  0  0  0  0  0  0
   21.3419   -7.5900  -14.9688 C   0  0  0  0  0  0  0  0  0  0  0  0
   20.4188   -7.1945  -14.0250 O   0  0  0  0  0  0  0  0  0  0  0  0
   21.9601   -6.6592  -15.5590 O   0  0  0  0  0  0  0  0  0  0  0  0
  2  1  1  1
  3  2  1  0
  4  3  1  0
  4  5  1  0
  5  6  1  0
  7  6  1  0
  8  2  1  0
  8  9  2  0
 10  8  1  0
 11 10  1  0
 11 12  1  6
 13 12  1  0
 13 14  1  0
 14 15  2  0
 16 24  1  0
 16 11  1  0
 17 16  2  0
 18 14  1  0
 19 20  1  0
 20 21  1  0
 21 22  1  1
 23 24  1  6
 23 21  1  0
 25 23  1  0
 26 25  1  0
 27 25  2  0
M  END
$$$$
