KEI.pdb
     RDKit          3D

 27 26  0  0  1  0  0  0  0  0999 V2000
   27.4181  -19.1222  -15.2196 N   0  0  0  0  0  0  0  0  0  0  0  0
   27.7188  -20.0321  -14.1677 C   0  0  1  0  0  0  0  0  0  0  0  0
   29.1851  -20.1290  -13.8135 C   0  0  0  0  0  0  0  0  0  0  0  0
   30.0203  -20.7389  -14.8721 C   0  0  0  0  0  0  0  0  0  0  0  0
   30.0687  -22.2147  -14.9684 C   0  0  0  0  0  0  0  0  0  0  0  0
   31.0005  -22.7866  -15.9808 C   0  0  0  0  0  0  0  0  0  0  0  0
   30.9606  -24.2119  -15.9919 N   0  0  0  0  0  0  0  0  0  0  0  0
   26.9441  -19.6450  -12.9505 C   0  0  0  0  0  0  0  0  0  0  0  0
   26.7740  -18.4008  -12.6892 O   0  0  0  0  0  0  0  0  0  0  0  0
   26.4074  -20.6210  -12.1043 N   0  0  0  0  0  0  0  0  0  0  0  0
   25.4884  -20.2640  -10.9669 C   0  0  1  0  0  0  0  0  0  0  0  0
   24.1790  -20.8262  -11.3431 C   0  0  0  0  0  0  0  0  0  0  0  0
   23.0067  -20.7404  -10.4749 C   0  0  0  0  0  0  0  0  0  0  0  0
   21.7695  -20.1794  -10.9986 C   0  0  0  0  0  0  0  0  0  0  0  0
   21.1531  -20.6976  -11.9558 O   0  0  0  0  0  0  0  0  0  0  0  0
   26.1031  -20.8047   -9.7737 C   0  0  0  0  0  0  0  0  0  0  0  0
   26.4311  -22.0466   -9.7364 O   0  0  0  0  0  0  0  0  0  0  0  0
   21.2342  -19.0291  -10.4349 O   0  0  0  0  0  0  0  0  0  0  0  0
   29.2363  -19.5039   -4.6312 C   0  0  0  0  0  0  0  0  0  0  0  0
   28.3770  -20.4079   -5.4677 C   0  0  0  0  0  0  0  0  0  0  0  0
   27.7757  -19.7157   -6.6499 C   0  0  2  0  0  0  0  0  0  0  0  0
   26.9095  -18.5555   -6.3033 C   0  0  0  0  0  0  0  0  0  0  0  0
   26.9146  -20.7446   -7.4001 C   0  0  2  0  0  0  0  0  0  0  0  0
   26.4145  -20.0702   -8.5758 N   0  0  0  0  0  0  0  0  0  0  0  0
   25.8564  -21.2695   -6.5378 C   0  0  0  0  0  0  0  0  0  0  0  0
   26.1040  -22.2265   -5.5776 O   0  0  0  0  0  0  0  0  0  0  0  0
   24.6590  -20.8756   -6.6273 O   0  0  0  0  0  0  0  0  0  0  0  0
  2  1  1  6
  3  2  1  0
  4  3  1  0
  4  5  1  0
  5  6  1  0
  7  6  1  0
  8  2  1  0
  8  9  2  0
 10  8  1  0
 11 10  1  0
 11 12  1  6
 13 12  1  0
 13 14  1  0
 14 15  2  0
 16 24  1  0
 16 11  1  0
 17 16  2  0
 18 14  1  0
 19 20  1  0
 20 21  1  0
 21 22  1  1
 23 24  1  6
 23 21  1  0
 25 23  1  0
 26 25  1  0
 27 25  2  0
M  END
$$$$
