PMT.pdb
     RDKit          3D

 23 23  0  0  1  0  0  0  0  0999 V2000
    7.2457  -14.9196   19.7727 N   0  0  0  0  0  0  0  0  0  0  0  0
    6.5798  -14.0424   18.8659 C   0  0  0  0  0  0  0  0  0  0  0  0
    7.4429  -12.8417   18.6328 C   0  0  0  0  0  0  0  0  0  0  0  0
    8.7112  -13.1121   19.3933 C   0  0  0  0  0  0  0  0  0  0  0  0
    8.6001  -14.5065   19.9392 C   0  0  1  0  0  0  0  0  0  0  0  0
    8.9972  -14.4555   21.3859 C   0  0  0  0  0  0  0  0  0  0  0  0
   10.1807  -14.1828   21.6883 O   0  0  0  0  0  0  0  0  0  0  0  0
    6.6816  -11.6625   28.1826 C   0  0  0  0  0  0  0  0  0  0  0  0
    6.2775  -12.1167   26.4629 S   0  0  0  0  0  0  0  0  0  0  0  0
    7.5249  -13.3062   25.8706 C   0  0  0  0  0  0  0  0  0  0  0  0
    7.2894  -13.6337   24.4280 C   0  0  0  0  0  0  0  0  0  0  0  0
    8.3256  -14.5246   23.8292 C   0  0  2  0  0  0  0  0  0  0  0  0
    8.0563  -14.7103   22.4070 N   0  0  0  0  0  0  0  0  0  0  0  0
    8.4979  -15.8092   24.4988 C   0  0  0  0  0  0  0  0  0  0  0  0
    7.5554  -16.5946   24.7453 O   0  0  0  0  0  0  0  0  0  0  0  0
   10.9674  -18.5072   23.4048 C   0  0  0  0  0  0  0  0  0  0  0  0
   11.2370  -18.2027   24.8412 C   0  0  1  0  0  0  0  0  0  0  0  0
   12.3570  -17.3755   24.9992 O   0  0  0  0  0  0  0  0  0  0  0  0
   10.0774  -17.4908   25.5076 C   0  0  2  0  0  0  0  0  0  0  0  0
    9.8161  -16.2062   24.9029 N   0  0  0  0  0  0  0  0  0  0  0  0
   10.3271  -17.2821   26.9511 C   0  0  0  0  0  0  0  0  0  0  0  0
   10.4961  -18.3565   27.8095 O   0  0  0  0  0  0  0  0  0  0  0  0
   10.3973  -16.1233   27.4662 O   0  0  0  0  0  0  0  0  0  0  0  0
  2  3  1  0
  2  1  1  0
  4  3  1  0
  5  4  1  0
  5  6  1  1
  5  1  1  0
  6  7  2  0
  8  9  1  0
  9 10  1  0
 10 11  1  0
 12 11  1  1
 12 14  1  0
 13 12  1  0
 13  6  1  0
 14 15  2  0
 17 16  1  6
 17 19  1  0
 18 17  1  0
 19 21  1  0
 20 14  1  0
 19 20  1  6
 21 23  2  0
 21 22  1  0
M  END
$$$$
