PMT.pdb
     RDKit          3D

 23 23  0  0  1  0  0  0  0  0999 V2000
    7.2977  -15.0680   20.4188 N   0  0  0  0  0  0  0  0  0  0  0  0
    6.5831  -14.2150   19.5259 C   0  0  0  0  0  0  0  0  0  0  0  0
    7.2521  -12.8761   19.4972 C   0  0  0  0  0  0  0  0  0  0  0  0
    8.4704  -13.0234   20.3655 C   0  0  0  0  0  0  0  0  0  0  0  0
    8.5425  -14.4678   20.7695 C   0  0  1  0  0  0  0  0  0  0  0  0
    8.7875  -14.5085   22.2499 C   0  0  0  0  0  0  0  0  0  0  0  0
    9.8583  -14.0499   22.7076 O   0  0  0  0  0  0  0  0  0  0  0  0
    6.5330  -10.5659   27.1827 C   0  0  0  0  0  0  0  0  0  0  0  0
    5.9853  -12.2271   26.6653 S   0  0  0  0  0  0  0  0  0  0  0  0
    7.3246  -13.0043   25.7041 C   0  0  0  0  0  0  0  0  0  0  0  0
    6.9204  -14.3773   25.2622 C   0  0  0  0  0  0  0  0  0  0  0  0
    8.0040  -15.1397   24.5765 C   0  0  2  0  0  0  0  0  0  0  0  0
    7.8290  -15.0556   23.1302 N   0  0  0  0  0  0  0  0  0  0  0  0
    8.1492  -16.5270   25.0038 C   0  0  0  0  0  0  0  0  0  0  0  0
    7.1896  -17.3224   25.1146 O   0  0  0  0  0  0  0  0  0  0  0  0
   10.1176  -19.3529   23.5309 C   0  0  0  0  0  0  0  0  0  0  0  0
   10.6558  -19.1185   24.9035 C   0  0  1  0  0  0  0  0  0  0  0  0
   11.8357  -18.3628   24.8807 O   0  0  0  0  0  0  0  0  0  0  0  0
    9.6794  -18.3675   25.7857 C   0  0  2  0  0  0  0  0  0  0  0  0
    9.4596  -17.0194   25.3182 N   0  0  0  0  0  0  0  0  0  0  0  0
   10.1541  -18.3016   27.1857 C   0  0  0  0  0  0  0  0  0  0  0  0
   10.3708  -19.4554   27.9215 O   0  0  0  0  0  0  0  0  0  0  0  0
   10.3826  -17.1988   27.7726 O   0  0  0  0  0  0  0  0  0  0  0  0
  2  3  1  0
  2  1  1  0
  4  3  1  0
  5  4  1  0
  5  6  1  1
  5  1  1  0
  6  7  2  0
  8  9  1  0
  9 10  1  0
 10 11  1  0
 12 11  1  1
 12 14  1  0
 13 12  1  0
 13  6  1  0
 14 15  2  0
 17 16  1  6
 17 19  1  0
 18 17  1  0
 19 21  1  0
 20 14  1  0
 19 20  1  6
 21 23  2  0
 21 22  1  0
M  END
$$$$
