PMT.pdb
     RDKit          3D

 23 23  0  0  1  0  0  0  0  0999 V2000
    7.3799  -15.0020   20.0582 N   0  0  0  0  0  0  0  0  0  0  0  0
    6.7204  -14.2427   19.0463 C   0  0  0  0  0  0  0  0  0  0  0  0
    7.5049  -12.9936   18.7906 C   0  0  0  0  0  0  0  0  0  0  0  0
    8.7282  -13.1101   19.6567 C   0  0  0  0  0  0  0  0  0  0  0  0
    8.6822  -14.4703   20.2910 C   0  0  1  0  0  0  0  0  0  0  0  0
    8.9624  -14.2931   21.7549 C   0  0  0  0  0  0  0  0  0  0  0  0
   10.1145  -13.9736   22.1251 O   0  0  0  0  0  0  0  0  0  0  0  0
    6.8158  -10.7846   27.0127 C   0  0  0  0  0  0  0  0  0  0  0  0
    6.0224  -12.4271   27.0142 S   0  0  0  0  0  0  0  0  0  0  0  0
    7.1946  -13.6362   26.3174 C   0  0  0  0  0  0  0  0  0  0  0  0
    7.1271  -13.6252   24.8210 C   0  0  0  0  0  0  0  0  0  0  0  0
    8.1737  -14.4567   24.1584 C   0  0  2  0  0  0  0  0  0  0  0  0
    7.9466  -14.4815   22.7170 N   0  0  0  0  0  0  0  0  0  0  0  0
    8.3146  -15.8091   24.6868 C   0  0  0  0  0  0  0  0  0  0  0  0
    7.3823  -16.6432   24.7153 O   0  0  0  0  0  0  0  0  0  0  0  0
   12.2540  -17.2847   24.7402 C   0  0  0  0  0  0  0  0  0  0  0  0
   11.0219  -18.1198   24.6251 C   0  0  1  0  0  0  0  0  0  0  0  0
   11.2497  -19.4452   25.0188 O   0  0  0  0  0  0  0  0  0  0  0  0
    9.8907  -17.6014   25.4896 C   0  0  2  0  0  0  0  0  0  0  0  0
    9.5879  -16.2185   25.2064 N   0  0  0  0  0  0  0  0  0  0  0  0
   10.2105  -17.7210   26.9295 C   0  0  0  0  0  0  0  0  0  0  0  0
   10.1783  -16.6144   27.7627 O   0  0  0  0  0  0  0  0  0  0  0  0
   10.5259  -18.8291   27.4639 O   0  0  0  0  0  0  0  0  0  0  0  0
  2  3  1  0
  2  1  1  0
  4  3  1  0
  5  4  1  0
  5  6  1  1
  5  1  1  0
  6  7  2  0
  8  9  1  0
  9 10  1  0
 10 11  1  0
 12 11  1  1
 12 14  1  0
 13 12  1  0
 13  6  1  0
 14 15  2  0
 17 16  1  1
 17 19  1  0
 18 17  1  0
 19 21  1  0
 20 14  1  0
 19 20  1  6
 21 23  2  0
 21 22  1  0
M  END
$$$$
