PMT.pdb
     RDKit          3D

 23 23  0  0  1  0  0  0  0  0999 V2000
    7.2062  -14.7720   20.3725 N   0  0  0  0  0  0  0  0  0  0  0  0
    6.5135  -13.8738   19.5072 C   0  0  0  0  0  0  0  0  0  0  0  0
    7.3099  -12.6124   19.3819 C   0  0  0  0  0  0  0  0  0  0  0  0
    8.5716  -12.8617   20.1603 C   0  0  0  0  0  0  0  0  0  0  0  0
    8.5290  -14.2946   20.6073 C   0  0  1  0  0  0  0  0  0  0  0  0
    8.8843  -14.3211   22.0654 C   0  0  0  0  0  0  0  0  0  0  0  0
   10.0235  -13.9489   22.4264 O   0  0  0  0  0  0  0  0  0  0  0  0
    7.2209  -11.7707   27.7822 C   0  0  0  0  0  0  0  0  0  0  0  0
    6.1843  -11.8095   26.2818 S   0  0  0  0  0  0  0  0  0  0  0  0
    7.1113  -12.6556   24.9603 C   0  0  0  0  0  0  0  0  0  0  0  0
    7.1773  -14.1276   25.2300 C   0  0  0  0  0  0  0  0  0  0  0  0
    8.2388  -14.8402   24.4611 C   0  0  2  0  0  0  0  0  0  0  0  0
    7.9535  -14.7590   23.0322 N   0  0  0  0  0  0  0  0  0  0  0  0
    8.4745  -16.2213   24.8675 C   0  0  0  0  0  0  0  0  0  0  0  0
    7.5661  -17.0734   24.9879 O   0  0  0  0  0  0  0  0  0  0  0  0
   10.4879  -18.5619   22.9657 C   0  0  0  0  0  0  0  0  0  0  0  0
   11.1004  -18.5601   24.3271 C   0  0  1  0  0  0  0  0  0  0  0  0
   12.2536  -17.7657   24.3807 O   0  0  0  0  0  0  0  0  0  0  0  0
   10.1568  -18.0225   25.3836 C   0  0  2  0  0  0  0  0  0  0  0  0
    9.8182  -16.6389   25.1483 N   0  0  0  0  0  0  0  0  0  0  0  0
   10.7408  -18.1333   26.7387 C   0  0  0  0  0  0  0  0  0  0  0  0
   10.9622  -17.0075   27.5154 O   0  0  0  0  0  0  0  0  0  0  0  0
   11.0632  -19.2510   27.2484 O   0  0  0  0  0  0  0  0  0  0  0  0
  2  3  1  0
  2  1  1  0
  4  3  1  0
  5  4  1  0
  5  6  1  1
  5  1  1  0
  6  7  2  0
  8  9  1  0
  9 10  1  0
 10 11  1  0
 12 11  1  1
 12 14  1  0
 13 12  1  0
 13  6  1  0
 14 15  2  0
 17 16  1  6
 17 19  1  0
 18 17  1  0
 19 21  1  0
 20 14  1  0
 19 20  1  6
 21 23  2  0
 21 22  1  0
M  END
$$$$
