PMT.pdb
     RDKit          3D

 23 23  0  0  1  0  0  0  0  0999 V2000
    7.3161  -15.0067   19.9974 N   0  0  0  0  0  0  0  0  0  0  0  0
    6.6639  -14.1984   19.0194 C   0  0  0  0  0  0  0  0  0  0  0  0
    7.4704  -12.9558   18.8032 C   0  0  0  0  0  0  0  0  0  0  0  0
    8.6976  -13.1273   19.6545 C   0  0  0  0  0  0  0  0  0  0  0  0
    8.6301  -14.5088   20.2388 C   0  0  1  0  0  0  0  0  0  0  0  0
    8.9245  -14.3909   21.7060 C   0  0  0  0  0  0  0  0  0  0  0  0
   10.0579  -14.0103   22.0759 O   0  0  0  0  0  0  0  0  0  0  0  0
    6.8852  -10.8216   27.1253 C   0  0  0  0  0  0  0  0  0  0  0  0
    6.0092  -12.3939   26.8291 S   0  0  0  0  0  0  0  0  0  0  0  0
    7.2106  -13.6182   26.2134 C   0  0  0  0  0  0  0  0  0  0  0  0
    7.0942  -13.7611   24.7268 C   0  0  0  0  0  0  0  0  0  0  0  0
    8.1567  -14.6090   24.1119 C   0  0  2  0  0  0  0  0  0  0  0  0
    7.9428  -14.7027   22.6714 N   0  0  0  0  0  0  0  0  0  0  0  0
    8.3092  -15.9339   24.7031 C   0  0  0  0  0  0  0  0  0  0  0  0
    7.3542  -16.7162   24.9076 O   0  0  0  0  0  0  0  0  0  0  0  0
   10.4975  -18.5782   23.2521 C   0  0  0  0  0  0  0  0  0  0  0  0
   10.9313  -18.4095   24.6706 C   0  0  1  0  0  0  0  0  0  0  0  0
   12.0920  -17.6311   24.7735 O   0  0  0  0  0  0  0  0  0  0  0  0
    9.8776  -17.7270   25.5189 C   0  0  2  0  0  0  0  0  0  0  0  0
    9.6220  -16.3770   25.0757 N   0  0  0  0  0  0  0  0  0  0  0  0
   10.2755  -17.6804   26.9434 C   0  0  0  0  0  0  0  0  0  0  0  0
   10.4511  -16.4713   27.5968 O   0  0  0  0  0  0  0  0  0  0  0  0
   10.4727  -18.7326   27.6268 O   0  0  0  0  0  0  0  0  0  0  0  0
  2  3  1  0
  2  1  1  0
  4  3  1  0
  5  4  1  0
  5  6  1  1
  5  1  1  0
  6  7  2  0
  8  9  1  0
  9 10  1  0
 10 11  1  0
 12 11  1  1
 12 14  1  0
 13 12  1  0
 13  6  1  0
 14 15  2  0
 17 16  1  6
 17 19  1  0
 18 17  1  0
 19 21  1  0
 20 14  1  0
 19 20  1  6
 21 23  2  0
 21 22  1  0
M  END
$$$$
