PMT.pdb
     RDKit          3D

 23 23  0  0  1  0  0  0  0  0999 V2000
    7.3473  -15.0692   19.9598 N   0  0  0  0  0  0  0  0  0  0  0  0
    6.6620  -14.3045   18.9694 C   0  0  0  0  0  0  0  0  0  0  0  0
    7.4052  -13.0241   18.7472 C   0  0  0  0  0  0  0  0  0  0  0  0
    8.6330  -13.1244   19.6088 C   0  0  0  0  0  0  0  0  0  0  0  0
    8.6321  -14.5021   20.2059 C   0  0  1  0  0  0  0  0  0  0  0  0
    8.9087  -14.3557   21.6740 C   0  0  0  0  0  0  0  0  0  0  0  0
   10.0384  -13.9700   22.0502 O   0  0  0  0  0  0  0  0  0  0  0  0
    6.9508  -10.8701   27.2135 C   0  0  0  0  0  0  0  0  0  0  0  0
    6.0131  -12.3856   26.8245 S   0  0  0  0  0  0  0  0  0  0  0  0
    7.1765  -13.6404   26.1971 C   0  0  0  0  0  0  0  0  0  0  0  0
    7.0442  -13.7774   24.7113 C   0  0  0  0  0  0  0  0  0  0  0  0
    8.1286  -14.5808   24.0753 C   0  0  2  0  0  0  0  0  0  0  0  0
    7.9146  -14.6465   22.6332 N   0  0  0  0  0  0  0  0  0  0  0  0
    8.3189  -15.9145   24.6349 C   0  0  0  0  0  0  0  0  0  0  0  0
    7.3871  -16.7297   24.8168 O   0  0  0  0  0  0  0  0  0  0  0  0
   10.7105  -18.4957   23.2367 C   0  0  0  0  0  0  0  0  0  0  0  0
   11.0573  -18.3026   24.6759 C   0  0  1  0  0  0  0  0  0  0  0  0
   12.1743  -17.4721   24.8378 O   0  0  0  0  0  0  0  0  0  0  0  0
    9.9287  -17.6657   25.4608 C   0  0  2  0  0  0  0  0  0  0  0  0
    9.6432  -16.3270   25.0019 N   0  0  0  0  0  0  0  0  0  0  0  0
   10.2411  -17.6042   26.9060 C   0  0  0  0  0  0  0  0  0  0  0  0
   10.4250  -18.7605   27.6469 O   0  0  0  0  0  0  0  0  0  0  0  0
   10.3541  -16.5031   27.5286 O   0  0  0  0  0  0  0  0  0  0  0  0
  2  3  1  0
  2  1  1  0
  4  3  1  0
  5  4  1  0
  5  6  1  1
  5  1  1  0
  6  7  2  0
  8  9  1  0
  9 10  1  0
 10 11  1  0
 12 11  1  1
 12 14  1  0
 13 12  1  0
 13  6  1  0
 14 15  2  0
 17 16  1  6
 17 19  1  0
 18 17  1  0
 19 21  1  0
 20 14  1  0
 19 20  1  6
 21 23  2  0
 21 22  1  0
M  END
$$$$
