PMT.pdb
     RDKit          3D

 23 23  0  0  1  0  0  0  0  0999 V2000
    7.3573  -14.9495   20.0595 N   0  0  0  0  0  0  0  0  0  0  0  0
    6.6458  -14.1285   19.1349 C   0  0  0  0  0  0  0  0  0  0  0  0
    7.4103  -12.8580   18.9288 C   0  0  0  0  0  0  0  0  0  0  0  0
    8.6744  -13.0228   19.7255 C   0  0  0  0  0  0  0  0  0  0  0  0
    8.6664  -14.4237   20.2660 C   0  0  1  0  0  0  0  0  0  0  0  0
    9.0157  -14.3448   21.7237 C   0  0  0  0  0  0  0  0  0  0  0  0
   10.1872  -14.0596   22.0596 O   0  0  0  0  0  0  0  0  0  0  0  0
    5.7658  -11.3397   26.9071 C   0  0  0  0  0  0  0  0  0  0  0  0
    7.4837  -11.9524   26.9256 S   0  0  0  0  0  0  0  0  0  0  0  0
    7.4885  -13.6785   26.3405 C   0  0  0  0  0  0  0  0  0  0  0  0
    7.3160  -13.7254   24.8533 C   0  0  0  0  0  0  0  0  0  0  0  0
    8.3211  -14.5750   24.1506 C   0  0  2  0  0  0  0  0  0  0  0  0
    8.0434  -14.5873   22.7180 N   0  0  0  0  0  0  0  0  0  0  0  0
    8.4519  -15.9330   24.6675 C   0  0  0  0  0  0  0  0  0  0  0  0
    7.5019  -16.7448   24.7322 O   0  0  0  0  0  0  0  0  0  0  0  0
   10.4408  -18.4636   23.1066 C   0  0  0  0  0  0  0  0  0  0  0  0
   10.9774  -18.3914   24.4978 C   0  0  1  0  0  0  0  0  0  0  0  0
   12.1533  -17.6321   24.5661 O   0  0  0  0  0  0  0  0  0  0  0  0
    9.9968  -17.7557   25.4621 C   0  0  2  0  0  0  0  0  0  0  0  0
    9.7357  -16.3749   25.1312 N   0  0  0  0  0  0  0  0  0  0  0  0
   10.4922  -17.8133   26.8553 C   0  0  0  0  0  0  0  0  0  0  0  0
   10.6521  -19.0255   27.5070 O   0  0  0  0  0  0  0  0  0  0  0  0
   10.7907  -16.7682   27.5123 O   0  0  0  0  0  0  0  0  0  0  0  0
  2  3  1  0
  2  1  1  0
  4  3  1  0
  5  4  1  0
  5  6  1  1
  5  1  1  0
  6  7  2  0
  8  9  1  0
  9 10  1  0
 10 11  1  0
 12 11  1  1
 12 14  1  0
 13 12  1  0
 13  6  1  0
 14 15  2  0
 17 16  1  6
 17 19  1  0
 18 17  1  0
 19 21  1  0
 20 14  1  0
 19 20  1  6
 21 23  2  0
 21 22  1  0
M  END
$$$$
