PMT.pdb
     RDKit          3D

 23 23  0  0  1  0  0  0  0  0999 V2000
    7.1804  -14.8949   20.0113 N   0  0  0  0  0  0  0  0  0  0  0  0
    6.5855  -13.9924   19.0802 C   0  0  0  0  0  0  0  0  0  0  0  0
    7.4859  -12.8083   18.9118 C   0  0  0  0  0  0  0  0  0  0  0  0
    8.7032  -13.1158   19.7386 C   0  0  0  0  0  0  0  0  0  0  0  0
    8.5317  -14.5138   20.2591 C   0  0  1  0  0  0  0  0  0  0  0  0
    8.8476  -14.4888   21.7263 C   0  0  0  0  0  0  0  0  0  0  0  0
   10.0144  -14.2312   22.0987 O   0  0  0  0  0  0  0  0  0  0  0  0
    6.7519  -10.7325   26.5163 C   0  0  0  0  0  0  0  0  0  0  0  0
    5.9746  -12.3540   26.8221 S   0  0  0  0  0  0  0  0  0  0  0  0
    7.1001  -13.6568   26.2241 C   0  0  0  0  0  0  0  0  0  0  0  0
    7.0048  -13.7850   24.7347 C   0  0  0  0  0  0  0  0  0  0  0  0
    8.0584  -14.6508   24.1297 C   0  0  2  0  0  0  0  0  0  0  0  0
    7.8490  -14.7513   22.6890 N   0  0  0  0  0  0  0  0  0  0  0  0
    8.1913  -15.9736   24.7303 C   0  0  0  0  0  0  0  0  0  0  0  0
    7.2268  -16.7464   24.9261 O   0  0  0  0  0  0  0  0  0  0  0  0
   10.2015  -18.8129   23.4331 C   0  0  0  0  0  0  0  0  0  0  0  0
   10.7153  -18.5281   24.8056 C   0  0  1  0  0  0  0  0  0  0  0  0
   11.8911  -17.7662   24.7761 O   0  0  0  0  0  0  0  0  0  0  0  0
    9.7201  -17.7532   25.6450 C   0  0  2  0  0  0  0  0  0  0  0  0
    9.4949  -16.4260   25.1234 N   0  0  0  0  0  0  0  0  0  0  0  0
   10.1745  -17.6297   27.0478 C   0  0  0  0  0  0  0  0  0  0  0  0
   10.2823  -18.7438   27.8645 O   0  0  0  0  0  0  0  0  0  0  0  0
   10.4833  -16.5112   27.5642 O   0  0  0  0  0  0  0  0  0  0  0  0
  2  3  1  0
  2  1  1  0
  4  3  1  0
  5  4  1  0
  5  6  1  1
  5  1  1  0
  6  7  2  0
  8  9  1  0
  9 10  1  0
 10 11  1  0
 12 11  1  1
 12 14  1  0
 13 12  1  0
 13  6  1  0
 14 15  2  0
 17 16  1  6
 17 19  1  0
 18 17  1  0
 19 21  1  0
 20 14  1  0
 19 20  1  6
 21 23  2  0
 21 22  1  0
M  END
$$$$
