RSQ.pdb
     RDKit          3D

 27 26  0  0  1  0  0  0  0  0999 V2000
    8.2596  -12.4130   18.1308 N   0  0  0  0  0  0  0  0  0  0  0  0
    8.4553  -13.3823   17.1128 C   0  0  0  0  0  0  0  0  0  0  0  0
    8.5392  -13.1002   15.8729 N   0  0  0  0  0  0  0  0  0  0  0  0
    8.5588  -14.7456   17.5579 N   0  0  0  0  0  0  0  0  0  0  0  0
    8.0312  -15.1555   18.8427 C   0  0  0  0  0  0  0  0  0  0  0  0
    8.9504  -14.6269   19.9054 C   0  0  0  0  0  0  0  0  0  0  0  0
    9.8232  -15.6319   20.5595 C   0  0  0  0  0  0  0  0  0  0  0  0
    9.1684  -16.6690   21.3884 C   0  0  2  0  0  0  0  0  0  0  0  0
    7.8023  -16.9234   21.0664 N   0  0  0  0  0  0  0  0  0  0  0  0
    9.3691  -16.4132   22.8420 C   0  0  0  0  0  0  0  0  0  0  0  0
   10.5079  -16.2688   23.3500 O   0  0  0  0  0  0  0  0  0  0  0  0
    8.6317  -13.7440   15.0890 O   0  0  0  0  0  0  0  0  0  0  0  0
    6.0665  -16.7008   25.5790 C   0  0  0  0  0  0  0  0  0  0  0  0
    7.1318  -15.8271   25.8518 C   0  0  1  0  0  0  0  0  0  0  0  0
    8.3745  -16.2871   25.1570 N   0  0  0  0  0  0  0  0  0  0  0  0
    8.2521  -16.3221   23.7259 C   0  0  0  0  0  0  0  0  0  0  0  0
    8.9041  -17.5655   25.6614 O   0  0  0  0  0  0  0  0  0  0  0  0
    8.7738  -18.5790   24.9511 N   0  0  0  0  0  0  0  0  0  0  0  0
   13.6683  -18.7714   23.9834 C   0  0  0  0  0  0  0  0  0  0  0  0
   12.7496  -19.5103   24.7821 O   0  0  0  0  0  0  0  0  0  0  0  0
   12.6996  -20.7516   24.6066 C   0  0  0  0  0  0  0  0  0  0  0  0
   11.9218  -18.7845   25.7545 C   0  0  0  0  0  0  0  0  0  0  0  0
   10.9389  -19.6115   26.5030 C   0  0  1  0  0  0  0  0  0  0  0  0
   10.0917  -18.8895   27.4799 N   0  0  0  0  0  0  0  0  0  0  0  0
    9.5534  -17.6874   26.9169 C   0  0  0  0  0  0  0  0  0  0  0  0
   10.6932  -18.7190   28.8263 O   0  0  0  0  0  0  0  0  0  0  0  0
   10.7849  -17.4896   29.4571 O   0  0  0  0  0  0  0  0  0  0  0  0
  2  1  1  0
  3  2  2  0
  4  2  1  0
  5  4  1  0
  6  5  1  0
  7  6  1  0
  8  9  1  1
  8  7  1  0
 10  8  1  0
 11 10  2  0
 12 13  1  0
 14 13  1  6
 14 15  1  0
 15 10  1  0
 16 14  1  0
 16 17  2  0
 19 20  2  0
 19 18  1  0
 21 19  1  0
 23 22  1  6
 22 21  1  0
 23 24  1  0
 24 16  1  0
 25 23  1  0
 26 25  1  0
 27 25  2  0
M  END
$$$$
