RSQ.pdb
     RDKit          3D

 27 26  0  0  1  0  0  0  0  0999 V2000
   10.0819  -13.9298   19.4231 N   0  0  0  0  0  0  0  0  0  0  0  0
    9.0927  -12.9459   19.1630 C   0  0  0  0  0  0  0  0  0  0  0  0
    9.3563  -11.7650   18.7629 N   0  0  0  0  0  0  0  0  0  0  0  0
    7.7311  -13.3548   19.3780 N   0  0  0  0  0  0  0  0  0  0  0  0
    7.4188  -14.6577   19.9278 C   0  0  0  0  0  0  0  0  0  0  0  0
    7.2476  -14.5003   21.4109 C   0  0  0  0  0  0  0  0  0  0  0  0
    7.0347  -15.7559   22.1710 C   0  0  0  0  0  0  0  0  0  0  0  0
    7.5632  -17.0077   21.5837 C   0  0  2  0  0  0  0  0  0  0  0  0
    6.5751  -17.8850   21.0463 N   0  0  0  0  0  0  0  0  0  0  0  0
    8.4874  -17.7034   22.5220 C   0  0  0  0  0  0  0  0  0  0  0  0
    8.0753  -18.3979   23.4829 O   0  0  0  0  0  0  0  0  0  0  0  0
    8.7094  -10.9893   18.6314 O   0  0  0  0  0  0  0  0  0  0  0  0
   12.8361  -17.3912   22.2165 C   0  0  0  0  0  0  0  0  0  0  0  0
   12.1519  -18.5247   22.6852 C   0  0  1  0  0  0  0  0  0  0  0  0
   10.8483  -18.1284   23.3033 N   0  0  0  0  0  0  0  0  0  0  0  0
    9.9019  -17.6025   22.3588 C   0  0  0  0  0  0  0  0  0  0  0  0
   10.9836  -17.2231   24.4572 O   0  0  0  0  0  0  0  0  0  0  0  0
   10.9269  -15.9966   24.2542 N   0  0  0  0  0  0  0  0  0  0  0  0
    8.0331  -14.0886   27.2379 C   0  0  0  0  0  0  0  0  0  0  0  0
    8.9914  -14.0826   28.2913 O   0  0  0  0  0  0  0  0  0  0  0  0
    8.8281  -13.2507   29.2162 C   0  0  0  0  0  0  0  0  0  0  0  0
   10.1041  -15.0397   28.2347 C   0  0  0  0  0  0  0  0  0  0  0  0
   10.1394  -15.9111   27.0307 C   0  0  1  0  0  0  0  0  0  0  0  0
   11.2553  -16.8824   26.9633 N   0  0  0  0  0  0  0  0  0  0  0  0
   11.1744  -17.6902   25.7832 C   0  0  0  0  0  0  0  0  0  0  0  0
   11.4980  -17.6465   28.2127 O   0  0  0  0  0  0  0  0  0  0  0  0
   12.1957  -17.1239   29.2886 O   0  0  0  0  0  0  0  0  0  0  0  0
  2  1  1  0
  3  2  2  0
  4  2  1  0
  5  4  1  0
  6  5  1  0
  7  6  1  0
  8  9  1  1
  8  7  1  0
 10  8  1  0
 11 10  2  0
 12 13  1  0
 14 13  1  6
 14 15  1  0
 15 10  1  0
 16 14  1  0
 16 17  2  0
 19 20  2  0
 19 18  1  0
 21 19  1  0
 23 22  1  6
 22 21  1  0
 23 24  1  0
 24 16  1  0
 25 23  1  0
 26 25  1  0
 27 25  2  0
M  END
$$$$
