RSQ.pdb
     RDKit          3D

 27 26  0  0  1  0  0  0  0  0999 V2000
    6.6094  -12.6527   15.7500 N   0  0  0  0  0  0  0  0  0  0  0  0
    7.9807  -13.0163   15.7098 C   0  0  0  0  0  0  0  0  0  0  0  0
    8.6135  -13.2750   14.6343 N   0  0  0  0  0  0  0  0  0  0  0  0
    8.6486  -13.0818   16.9814 N   0  0  0  0  0  0  0  0  0  0  0  0
    8.9063  -14.3524   17.6268 C   0  0  0  0  0  0  0  0  0  0  0  0
    7.7585  -14.6379   18.5513 C   0  0  0  0  0  0  0  0  0  0  0  0
    8.1088  -14.7888   19.9846 C   0  0  0  0  0  0  0  0  0  0  0  0
    9.2714  -15.6425   20.3172 C   0  0  2  0  0  0  0  0  0  0  0  0
    9.6471  -16.5709   19.3016 N   0  0  0  0  0  0  0  0  0  0  0  0
    9.1079  -16.2938   21.6468 C   0  0  0  0  0  0  0  0  0  0  0  0
    8.6499  -15.6844   22.6441 O   0  0  0  0  0  0  0  0  0  0  0  0
    9.5637  -13.6286   14.5365 O   0  0  0  0  0  0  0  0  0  0  0  0
   10.9320  -20.0573   22.5287 C   0  0  0  0  0  0  0  0  0  0  0  0
    9.6388  -19.8060   23.0158 C   0  0  1  0  0  0  0  0  0  0  0  0
    9.3922  -18.3330   23.1047 N   0  0  0  0  0  0  0  0  0  0  0  0
    9.4738  -17.6602   21.8378 C   0  0  0  0  0  0  0  0  0  0  0  0
   10.2231  -17.6464   24.1085 O   0  0  0  0  0  0  0  0  0  0  0  0
   11.2526  -17.0634   23.7227 N   0  0  0  0  0  0  0  0  0  0  0  0
    9.9741  -14.1759   30.4172 C   0  0  0  0  0  0  0  0  0  0  0  0
   10.0528  -14.2001   28.9955 O   0  0  0  0  0  0  0  0  0  0  0  0
    9.5215  -13.2504   28.3711 C   0  0  0  0  0  0  0  0  0  0  0  0
   10.7434  -15.3236   28.3488 C   0  0  0  0  0  0  0  0  0  0  0  0
    9.9743  -16.0221   27.2853 C   0  0  2  0  0  0  0  0  0  0  0  0
   10.7031  -17.0741   26.5401 N   0  0  0  0  0  0  0  0  0  0  0  0
    9.8987  -17.6226   25.4894 C   0  0  0  0  0  0  0  0  0  0  0  0
   11.3789  -18.0889   27.3870 O   0  0  0  0  0  0  0  0  0  0  0  0
   12.5218  -17.8145   28.1193 O   0  0  0  0  0  0  0  0  0  0  0  0
  2  1  1  0
  3  2  2  0
  4  2  1  0
  5  4  1  0
  6  5  1  0
  7  6  1  0
  8  9  1  6
  8  7  1  0
 10  8  1  0
 11 10  2  0
 12 13  1  0
 14 13  1  6
 14 15  1  0
 15 10  1  0
 16 14  1  0
 16 17  2  0
 19 20  2  0
 19 18  1  0
 21 19  1  0
 23 22  1  6
 22 21  1  0
 23 24  1  0
 24 16  1  0
 25 23  1  0
 26 25  1  0
 27 25  2  0
M  END
$$$$
