RSQ.pdb
     RDKit          3D

 27 26  0  0  1  0  0  0  0  0999 V2000
    6.9705  -12.4619   18.8897 N   0  0  0  0  0  0  0  0  0  0  0  0
    7.5789  -13.4518   18.0748 C   0  0  0  0  0  0  0  0  0  0  0  0
    7.0439  -13.9285   17.0210 N   0  0  0  0  0  0  0  0  0  0  0  0
    8.8722  -13.9091   18.5056 N   0  0  0  0  0  0  0  0  0  0  0  0
    9.1191  -14.2614   19.8884 C   0  0  0  0  0  0  0  0  0  0  0  0
    8.0800  -15.2642   20.2985 C   0  0  0  0  0  0  0  0  0  0  0  0
    8.2389  -15.8366   21.6574 C   0  0  0  0  0  0  0  0  0  0  0  0
    9.5910  -16.2909   22.0533 C   0  0  2  0  0  0  0  0  0  0  0  0
   10.2327  -17.1572   21.1193 N   0  0  0  0  0  0  0  0  0  0  0  0
    9.5979  -16.8448   23.4359 C   0  0  0  0  0  0  0  0  0  0  0  0
    9.0641  -16.2491   24.4033 O   0  0  0  0  0  0  0  0  0  0  0  0
    7.4259  -14.6272   16.3859 O   0  0  0  0  0  0  0  0  0  0  0  0
   12.3869  -19.8601   24.5823 C   0  0  0  0  0  0  0  0  0  0  0  0
   11.0760  -19.9503   25.0784 C   0  0  1  0  0  0  0  0  0  0  0  0
   10.4122  -18.6099   25.0440 N   0  0  0  0  0  0  0  0  0  0  0  0
   10.2242  -18.0967   23.7153 C   0  0  0  0  0  0  0  0  0  0  0  0
   11.0568  -17.6004   25.9011 O   0  0  0  0  0  0  0  0  0  0  0  0
   11.7060  -16.6904   25.3543 N   0  0  0  0  0  0  0  0  0  0  0  0
    9.5896  -13.2651   26.5581 C   0  0  0  0  0  0  0  0  0  0  0  0
    9.2213  -13.5968   27.8932 O   0  0  0  0  0  0  0  0  0  0  0  0
    8.2880  -12.9406   28.4151 C   0  0  0  0  0  0  0  0  0  0  0  0
    9.9478  -14.6759   28.5753 C   0  0  0  0  0  0  0  0  0  0  0  0
   11.0767  -15.2706   27.8123 C   0  0  1  0  0  0  0  0  0  0  0  0
   11.4865  -16.6355   28.2152 N   0  0  0  0  0  0  0  0  0  0  0  0
   10.9679  -17.6233   27.3169 C   0  0  0  0  0  0  0  0  0  0  0  0
   11.2893  -16.9510   29.6522 O   0  0  0  0  0  0  0  0  0  0  0  0
   10.5510  -18.0388   30.0873 O   0  0  0  0  0  0  0  0  0  0  0  0
  2  1  1  0
  3  2  2  0
  4  2  1  0
  5  4  1  0
  6  5  1  0
  7  6  1  0
  8  9  1  6
  8  7  1  0
 10  8  1  0
 11 10  2  0
 12 13  1  0
 14 13  1  6
 14 15  1  0
 15 10  1  0
 16 14  1  0
 16 17  2  0
 19 20  2  0
 19 18  1  0
 21 19  1  0
 23 22  1  6
 22 21  1  0
 23 24  1  0
 24 16  1  0
 25 23  1  0
 26 25  1  0
 27 25  2  0
M  END
$$$$
