RSQ.pdb
     RDKit          3D

 27 26  0  0  1  0  0  0  0  0999 V2000
   10.3720  -16.0462   13.1862 N   0  0  0  0  0  0  0  0  0  0  0  0
    8.9912  -15.8639   12.9133 C   0  0  0  0  0  0  0  0  0  0  0  0
    8.5471  -15.1797   11.9341 N   0  0  0  0  0  0  0  0  0  0  0  0
    8.0828  -16.5086   13.8224 N   0  0  0  0  0  0  0  0  0  0  0  0
    8.2142  -16.3427   15.2550 C   0  0  0  0  0  0  0  0  0  0  0  0
    9.3203  -15.3585   15.5029 C   0  0  0  0  0  0  0  0  0  0  0  0
    9.5785  -15.0252   16.9249 C   0  0  0  0  0  0  0  0  0  0  0  0
    8.5335  -14.2671   17.6492 C   0  0  2  0  0  0  0  0  0  0  0  0
    8.0865  -13.0814   16.9942 N   0  0  0  0  0  0  0  0  0  0  0  0
    8.9218  -14.0191   19.0656 C   0  0  0  0  0  0  0  0  0  0  0  0
   10.0642  -13.6127   19.3901 O   0  0  0  0  0  0  0  0  0  0  0  0
    7.5759  -15.0040   11.6823 O   0  0  0  0  0  0  0  0  0  0  0  0
    6.5198  -15.8031   22.1663 C   0  0  0  0  0  0  0  0  0  0  0  0
    7.2239  -14.6156   22.4248 C   0  0  1  0  0  0  0  0  0  0  0  0
    8.3812  -14.4807   21.4862 N   0  0  0  0  0  0  0  0  0  0  0  0
    7.9906  -14.2395   20.1248 C   0  0  0  0  0  0  0  0  0  0  0  0
    9.3430  -15.5939   21.5579 O   0  0  0  0  0  0  0  0  0  0  0  0
    9.3844  -16.3994   20.6103 N   0  0  0  0  0  0  0  0  0  0  0  0
   13.2493  -14.3118   19.1348 C   0  0  0  0  0  0  0  0  0  0  0  0
   14.1989  -14.5670   20.1650 O   0  0  0  0  0  0  0  0  0  0  0  0
   15.4110  -14.3986   19.8882 C   0  0  0  0  0  0  0  0  0  0  0  0
   13.7101  -15.0085   21.4778 C   0  0  0  0  0  0  0  0  0  0  0  0
   12.2400  -14.9161   21.6786 C   0  0  2  0  0  0  0  0  0  0  0  0
   11.6442  -15.9175   22.5926 N   0  0  0  0  0  0  0  0  0  0  0  0
   10.2195  -15.7836   22.6573 C   0  0  0  0  0  0  0  0  0  0  0  0
   12.3087  -16.0335   23.9149 O   0  0  0  0  0  0  0  0  0  0  0  0
   13.5522  -16.6200   24.0811 O   0  0  0  0  0  0  0  0  0  0  0  0
  2  1  1  0
  3  2  2  0
  4  2  1  0
  5  4  1  0
  6  5  1  0
  7  6  1  0
  8  9  1  6
  8  7  1  0
 10  8  1  0
 11 10  2  0
 12 13  1  0
 14 13  1  1
 14 15  1  0
 15 10  1  0
 16 14  1  0
 16 17  2  0
 19 20  2  0
 19 18  1  0
 21 19  1  0
 23 22  1  6
 22 21  1  0
 23 24  1  0
 24 16  1  0
 25 23  1  0
 26 25  1  0
 27 25  2  0
M  END
$$$$
