RSQ.pdb
     RDKit          3D

 27 26  0  0  1  0  0  0  0  0999 V2000
    6.7055  -13.2080   19.1181 N   0  0  0  0  0  0  0  0  0  0  0  0
    7.9358  -13.4323   19.7891 C   0  0  0  0  0  0  0  0  0  0  0  0
    8.0219  -13.8034   21.0052 N   0  0  0  0  0  0  0  0  0  0  0  0
    9.1235  -13.2152   19.0083 N   0  0  0  0  0  0  0  0  0  0  0  0
   10.4348  -13.5276   19.5378 C   0  0  0  0  0  0  0  0  0  0  0  0
   10.8083  -14.8998   19.0569 C   0  0  0  0  0  0  0  0  0  0  0  0
   11.2684  -15.8451   20.1029 C   0  0  0  0  0  0  0  0  0  0  0  0
   10.5413  -17.1282   20.2314 C   0  0  2  0  0  0  0  0  0  0  0  0
    9.7204  -17.4695   19.1161 N   0  0  0  0  0  0  0  0  0  0  0  0
    9.8041  -17.2109   21.5231 C   0  0  0  0  0  0  0  0  0  0  0  0
    8.7481  -16.5676   21.7389 O   0  0  0  0  0  0  0  0  0  0  0  0
    8.8640  -14.0211   21.5354 O   0  0  0  0  0  0  0  0  0  0  0  0
   10.1075  -20.4537   24.1870 C   0  0  0  0  0  0  0  0  0  0  0  0
    9.0783  -19.4988   24.1452 C   0  0  1  0  0  0  0  0  0  0  0  0
    9.6384  -18.1406   23.8625 N   0  0  0  0  0  0  0  0  0  0  0  0
   10.2820  -18.0404   22.5819 C   0  0  0  0  0  0  0  0  0  0  0  0
   10.5181  -17.6229   24.9244 O   0  0  0  0  0  0  0  0  0  0  0  0
   11.7357  -17.8705   24.8542 N   0  0  0  0  0  0  0  0  0  0  0  0
    9.1067  -12.9017   28.8329 C   0  0  0  0  0  0  0  0  0  0  0  0
    9.1464  -13.0016   27.4129 O   0  0  0  0  0  0  0  0  0  0  0  0
    8.6564  -12.0537   26.7530 C   0  0  0  0  0  0  0  0  0  0  0  0
    9.7515  -14.1960   26.8089 C   0  0  0  0  0  0  0  0  0  0  0  0
   10.2452  -15.2190   27.7680 C   0  0  2  0  0  0  0  0  0  0  0  0
   10.7866  -16.4619   27.1717 N   0  0  0  0  0  0  0  0  0  0  0  0
   10.0363  -16.8575   26.0174 C   0  0  0  0  0  0  0  0  0  0  0  0
   11.0480  -17.5586   28.1373 O   0  0  0  0  0  0  0  0  0  0  0  0
   10.4976  -18.8224   28.0048 O   0  0  0  0  0  0  0  0  0  0  0  0
  2  1  1  0
  3  2  2  0
  4  2  1  0
  5  4  1  0
  6  5  1  0
  7  6  1  0
  8  9  1  6
  8  7  1  0
 10  8  1  0
 11 10  2  0
 12 13  1  0
 14 13  1  6
 14 15  1  0
 15 10  1  0
 16 14  1  0
 16 17  2  0
 19 20  2  0
 19 18  1  0
 21 19  1  0
 23 22  1  6
 22 21  1  0
 23 24  1  0
 24 16  1  0
 25 23  1  0
 26 25  1  0
 27 25  2  0
M  END
$$$$
