RSQ.pdb
     RDKit          3D

 27 26  0  0  1  0  0  0  0  0999 V2000
    8.9561  -14.5016   12.0725 N   0  0  0  0  0  0  0  0  0  0  0  0
    7.9136  -13.5542   11.8999 C   0  0  0  0  0  0  0  0  0  0  0  0
    7.6080  -13.0340   10.7774 N   0  0  0  0  0  0  0  0  0  0  0  0
    7.1910  -13.1947   13.0899 N   0  0  0  0  0  0  0  0  0  0  0  0
    7.6206  -13.6549   14.3941 C   0  0  0  0  0  0  0  0  0  0  0  0
    8.3909  -14.9286   14.1998 C   0  0  0  0  0  0  0  0  0  0  0  0
    8.9543  -15.5341   15.4309 C   0  0  0  0  0  0  0  0  0  0  0  0
    8.1853  -16.6267   16.0682 C   0  0  2  0  0  0  0  0  0  0  0  0
    6.9071  -16.8812   15.4884 N   0  0  0  0  0  0  0  0  0  0  0  0
    8.1120  -16.4531   17.5457 C   0  0  0  0  0  0  0  0  0  0  0  0
    7.2566  -15.7177   18.0964 O   0  0  0  0  0  0  0  0  0  0  0  0
    6.9130  -12.3134   10.5897 O   0  0  0  0  0  0  0  0  0  0  0  0
    7.5035  -18.9364   20.0706 C   0  0  0  0  0  0  0  0  0  0  0  0
    7.6769  -17.5822   20.4003 C   0  0  1  0  0  0  0  0  0  0  0  0
    8.9652  -17.0695   19.8385 N   0  0  0  0  0  0  0  0  0  0  0  0
    9.0300  -17.1294   18.4044 C   0  0  0  0  0  0  0  0  0  0  0  0
   10.1644  -17.6818   20.4355 O   0  0  0  0  0  0  0  0  0  0  0  0
   10.7746  -18.5451   19.7791 N   0  0  0  0  0  0  0  0  0  0  0  0
   13.2227  -13.7934   18.9336 C   0  0  0  0  0  0  0  0  0  0  0  0
   13.9713  -14.4231   19.9685 O   0  0  0  0  0  0  0  0  0  0  0  0
   15.1698  -14.7040   19.7259 C   0  0  0  0  0  0  0  0  0  0  0  0
   13.3044  -14.7051   21.2465 C   0  0  0  0  0  0  0  0  0  0  0  0
   12.0085  -15.4270   21.1476 C   0  0  2  0  0  0  0  0  0  0  0  0
   11.8646  -16.6256   22.0054 N   0  0  0  0  0  0  0  0  0  0  0  0
   10.6494  -17.3287   21.7211 C   0  0  0  0  0  0  0  0  0  0  0  0
   12.1156  -16.3965   23.4504 O   0  0  0  0  0  0  0  0  0  0  0  0
   11.1413  -16.5727   24.4186 O   0  0  0  0  0  0  0  0  0  0  0  0
  2  1  1  0
  3  2  2  0
  4  2  1  0
  5  4  1  0
  6  5  1  0
  7  6  1  0
  8  9  1  6
  8  7  1  0
 10  8  1  0
 11 10  2  0
 12 13  1  0
 14 13  1  6
 14 15  1  0
 15 10  1  0
 16 14  1  0
 16 17  2  0
 19 20  2  0
 19 18  1  0
 21 19  1  0
 23 22  1  6
 22 21  1  0
 23 24  1  0
 24 16  1  0
 25 23  1  0
 26 25  1  0
 27 25  2  0
M  END
$$$$
