RSQ.pdb
     RDKit          3D

 27 26  0  0  1  0  0  0  0  0999 V2000
    8.3069  -16.2733   14.3264 N   0  0  0  0  0  0  0  0  0  0  0  0
    9.1347  -16.6117   13.2243 C   0  0  0  0  0  0  0  0  0  0  0  0
    8.7701  -16.5109   12.0074 N   0  0  0  0  0  0  0  0  0  0  0  0
   10.4502  -17.0900   13.5530 N   0  0  0  0  0  0  0  0  0  0  0  0
   10.8561  -17.2772   14.9305 C   0  0  0  0  0  0  0  0  0  0  0  0
   11.1676  -15.9253   15.5042 C   0  0  0  0  0  0  0  0  0  0  0  0
   11.5617  -15.9082   16.9339 C   0  0  0  0  0  0  0  0  0  0  0  0
   11.9380  -14.6034   17.5230 C   0  0  2  0  0  0  0  0  0  0  0  0
   13.3380  -14.3306   17.5378 N   0  0  0  0  0  0  0  0  0  0  0  0
   11.3087  -14.4054   18.8585 C   0  0  0  0  0  0  0  0  0  0  0  0
   11.9313  -14.5952   19.9318 O   0  0  0  0  0  0  0  0  0  0  0  0
    9.3129  -16.7210   11.1716 O   0  0  0  0  0  0  0  0  0  0  0  0
    7.0648  -14.3383   19.4555 C   0  0  0  0  0  0  0  0  0  0  0  0
    7.8532  -13.3561   20.0771 C   0  0  1  0  0  0  0  0  0  0  0  0
    9.2638  -13.8338   20.2209 N   0  0  0  0  0  0  0  0  0  0  0  0
    9.9489  -13.9852   18.9671 C   0  0  0  0  0  0  0  0  0  0  0  0
    9.4028  -15.0527   21.0358 O   0  0  0  0  0  0  0  0  0  0  0  0
    9.7307  -16.1091   20.4655 N   0  0  0  0  0  0  0  0  0  0  0  0
   14.1615  -15.2568   22.7570 C   0  0  0  0  0  0  0  0  0  0  0  0
   13.6112  -16.5428   22.4900 O   0  0  0  0  0  0  0  0  0  0  0  0
   14.3907  -17.4270   22.0602 C   0  0  0  0  0  0  0  0  0  0  0  0
   12.1781  -16.7577   22.7298 C   0  0  0  0  0  0  0  0  0  0  0  0
   11.4167  -15.5618   23.1773 C   0  0  2  0  0  0  0  0  0  0  0  0
    9.9684  -15.7632   23.4120 N   0  0  0  0  0  0  0  0  0  0  0  0
    9.1799  -15.0710   22.4368 C   0  0  0  0  0  0  0  0  0  0  0  0
    9.5258  -15.5588   24.8141 O   0  0  0  0  0  0  0  0  0  0  0  0
    9.3406  -16.6046   25.7027 O   0  0  0  0  0  0  0  0  0  0  0  0
  2  1  1  0
  3  2  2  0
  4  2  1  0
  5  4  1  0
  6  5  1  0
  7  6  1  0
  8  9  1  1
  8  7  1  0
 10  8  1  0
 11 10  2  0
 12 13  1  0
 14 13  1  1
 14 15  1  0
 15 10  1  0
 16 14  1  0
 16 17  2  0
 19 20  2  0
 19 18  1  0
 21 19  1  0
 23 22  1  6
 22 21  1  0
 23 24  1  0
 24 16  1  0
 25 23  1  0
 26 25  1  0
 27 25  2  0
M  END
$$$$
