MCL.pdb
     RDKit          3D

 23 22  0  0  1  0  0  0  0  0999 V2000
   20.4010  -21.0432  -11.7763 C   0  0  0  0  0  0  0  0  0  0  0  0
   20.2740  -20.1227  -13.3101 S   0  0  0  0  0  0  0  0  0  0  0  0
   21.8666  -19.8192  -14.0990 C   0  0  0  0  0  0  0  0  0  0  0  0
   23.0182  -20.4433  -13.3168 C   0  0  0  0  0  0  0  0  0  0  0  0
   24.2848  -20.0261  -13.9846 C   0  0  2  0  0  0  0  0  0  0  0  0
   24.0849  -20.0229  -15.4136 N   0  0  0  0  0  0  0  0  0  0  0  0
   25.4652  -20.8325  -13.5887 C   0  0  0  0  0  0  0  0  0  0  0  0
   25.4569  -22.0714  -13.8298 O   0  0  0  0  0  0  0  0  0  0  0  0
   26.6012  -20.2830  -12.9536 N   0  0  0  0  0  0  0  0  0  0  0  0
   27.6174  -21.1136  -12.2752 C   0  0  1  0  0  0  0  0  0  0  0  0
   28.9328  -20.3639  -12.2484 C   0  0  0  0  0  0  0  0  0  0  0  0
   30.2240  -21.1856  -11.3273 S   0  0  0  0  0  0  0  0  0  0  0  0
   27.0849  -21.3995  -10.9221 C   0  0  0  0  0  0  0  0  0  0  0  0
   26.5082  -22.5208  -10.6706 O   0  0  0  0  0  0  0  0  0  0  0  0
   27.4818  -18.6317   -5.4371 C   0  0  0  0  0  0  0  0  0  0  0  0
   27.1121  -19.9703   -6.1290 C   0  0  2  0  0  0  0  0  0  0  0  0
   27.9490  -20.9887   -5.3855 C   0  0  0  0  0  0  0  0  0  0  0  0
   27.4680  -19.9006   -7.5753 C   0  0  0  0  0  0  0  0  0  0  0  0
   26.7427  -20.8251   -8.4909 C   0  0  2  0  0  0  0  0  0  0  0  0
   27.1660  -20.5047   -9.8501 N   0  0  0  0  0  0  0  0  0  0  0  0
   25.2829  -20.6935   -8.4586 C   0  0  0  0  0  0  0  0  0  0  0  0
   24.6793  -19.8303   -9.1386 O   0  0  0  0  0  0  0  0  0  0  0  0
   24.4530  -21.5158   -7.6658 O   0  0  0  0  0  0  0  0  0  0  0  0
  2  1  1  0
  3  2  1  0
  4  3  1  0
  5  4  1  0
  5  6  1  6
  7  5  1  0
  8  7  2  0
  9  7  1  0
 10 13  1  0
 10  9  1  0
 10 11  1  1
 12 11  1  0
 13 20  1  0
 14 13  2  0
 16 15  1  1
 16 17  1  0
 18 16  1  0
 19 18  1  1
 19 21  1  0
 20 19  1  0
 21 22  2  0
 21 23  1  0
M  END
$$$$
