MCL.pdb
     RDKit          3D

 23 22  0  0  1  0  0  0  0  0999 V2000
   32.6110  -22.4446  -10.1910 C   0  0  0  0  0  0  0  0  0  0  0  0
   33.2664  -22.8888  -11.8001 S   0  0  0  0  0  0  0  0  0  0  0  0
   32.0222  -22.8958  -13.1049 C   0  0  0  0  0  0  0  0  0  0  0  0
   31.0113  -21.7658  -12.9345 C   0  0  0  0  0  0  0  0  0  0  0  0
   29.9756  -21.9344  -13.9942 C   0  0  2  0  0  0  0  0  0  0  0  0
   30.5957  -21.7797  -15.2878 N   0  0  0  0  0  0  0  0  0  0  0  0
   28.7994  -21.0456  -13.8299 C   0  0  0  0  0  0  0  0  0  0  0  0
   28.8538  -19.8795  -14.3097 O   0  0  0  0  0  0  0  0  0  0  0  0
   27.6184  -21.4388  -13.1617 N   0  0  0  0  0  0  0  0  0  0  0  0
   26.5810  -20.4756  -12.7390 C   0  0  1  0  0  0  0  0  0  0  0  0
   25.5493  -20.3437  -13.8396 C   0  0  0  0  0  0  0  0  0  0  0  0
   23.9757  -19.6986  -13.2931 S   0  0  0  0  0  0  0  0  0  0  0  0
   26.0159  -21.0017  -11.4740 C   0  0  0  0  0  0  0  0  0  0  0  0
   25.5683  -22.2053  -11.4093 O   0  0  0  0  0  0  0  0  0  0  0  0
   28.0396  -20.9651   -7.5660 C   0  0  0  0  0  0  0  0  0  0  0  0
   27.2926  -19.6495   -7.9100 C   0  0  2  0  0  0  0  0  0  0  0  0
   27.6799  -18.7234   -6.7775 C   0  0  0  0  0  0  0  0  0  0  0  0
   25.8239  -19.9039   -7.9488 C   0  0  0  0  0  0  0  0  0  0  0  0
   25.3185  -20.7528   -9.0637 C   0  0  2  0  0  0  0  0  0  0  0  0
   25.9292  -20.2574  -10.2930 N   0  0  0  0  0  0  0  0  0  0  0  0
   23.8666  -20.7002   -9.2596 C   0  0  0  0  0  0  0  0  0  0  0  0
   23.3484  -20.0790  -10.2175 O   0  0  0  0  0  0  0  0  0  0  0  0
   22.9491  -21.3337   -8.3934 O   0  0  0  0  0  0  0  0  0  0  0  0
  2  1  1  0
  3  2  1  0
  4  3  1  0
  5  4  1  0
  5  6  1  6
  7  5  1  0
  8  7  2  0
  9  7  1  0
 10 13  1  0
 10  9  1  0
 10 11  1  6
 12 11  1  0
 13 20  1  0
 14 13  2  0
 16 15  1  1
 16 17  1  0
 18 16  1  0
 19 18  1  1
 19 21  1  0
 20 19  1  0
 21 22  2  0
 21 23  1  0
M  END
$$$$
