MCL.pdb
     RDKit          3D

 23 22  0  0  1  0  0  0  0  0999 V2000
   17.5169   -8.7626  -20.1744 C   0  0  0  0  0  0  0  0  0  0  0  0
   18.2468  -10.3666  -19.8422 S   0  0  0  0  0  0  0  0  0  0  0  0
   19.5088  -10.3281  -18.5551 C   0  0  0  0  0  0  0  0  0  0  0  0
   19.1522   -9.3541  -17.4362 C   0  0  0  0  0  0  0  0  0  0  0  0
   20.3047   -9.3251  -16.4902 C   0  0  2  0  0  0  0  0  0  0  0  0
   20.4260  -10.6153  -15.8558 N   0  0  0  0  0  0  0  0  0  0  0  0
   20.2409   -8.2214  -15.5012 C   0  0  0  0  0  0  0  0  0  0  0  0
   19.4337   -8.3229  -14.5363 O   0  0  0  0  0  0  0  0  0  0  0  0
   21.0397   -7.0591  -15.5846 N   0  0  0  0  0  0  0  0  0  0  0  0
   20.9267   -5.9413  -14.6252 C   0  0  1  0  0  0  0  0  0  0  0  0
   22.3100   -5.5649  -14.1376 C   0  0  0  0  0  0  0  0  0  0  0  0
   22.3791   -4.0078  -13.2649 S   0  0  0  0  0  0  0  0  0  0  0  0
   20.2467   -4.8404  -15.3477 C   0  0  0  0  0  0  0  0  0  0  0  0
   20.5919   -4.5358  -16.5483 O   0  0  0  0  0  0  0  0  0  0  0  0
   14.9007   -1.9554  -15.4217 C   0  0  0  0  0  0  0  0  0  0  0  0
   16.3749   -1.8624  -15.8963 C   0  0  2  0  0  0  0  0  0  0  0  0
   16.2692   -2.0384  -17.3957 C   0  0  0  0  0  0  0  0  0  0  0  0
   17.1746   -2.9479  -15.2594 C   0  0  0  0  0  0  0  0  0  0  0  0
   18.6519   -2.8897  -15.4424 C   0  0  2  0  0  0  0  0  0  0  0  0
   19.2121   -4.0745  -14.8007 N   0  0  0  0  0  0  0  0  0  0  0  0
   19.2969   -1.7271  -14.8250 C   0  0  0  0  0  0  0  0  0  0  0  0
   19.3957   -0.6285  -15.4212 O   0  0  0  0  0  0  0  0  0  0  0  0
   19.8541   -1.7540  -13.5279 O   0  0  0  0  0  0  0  0  0  0  0  0
  2  1  1  0
  3  2  1  0
  4  3  1  0
  5  4  1  0
  5  6  1  1
  7  5  1  0
  8  7  2  0
  9  7  1  0
 10 13  1  0
 10  9  1  0
 10 11  1  6
 12 11  1  0
 13 20  1  0
 14 13  2  0
 16 15  1  1
 16 17  1  0
 18 16  1  0
 19 18  1  1
 19 21  1  0
 20 19  1  0
 21 22  2  0
 21 23  1  0
M  END
$$$$
