MCL.pdb
     RDKit          3D

 23 22  0  0  1  0  0  0  0  0999 V2000
   24.9124  -16.0431  -16.7373 C   0  0  0  0  0  0  0  0  0  0  0  0
   25.9533  -14.5829  -16.7239 S   0  0  0  0  0  0  0  0  0  0  0  0
   25.1590  -13.1287  -17.4348 C   0  0  0  0  0  0  0  0  0  0  0  0
   23.8548  -12.7857  -16.7213 C   0  0  0  0  0  0  0  0  0  0  0  0
   23.2336  -11.6469  -17.4571 C   0  0  2  0  0  0  0  0  0  0  0  0
   24.2772  -10.8128  -18.0021 N   0  0  0  0  0  0  0  0  0  0  0  0
   22.2631  -10.8688  -16.6489 C   0  0  0  0  0  0  0  0  0  0  0  0
   21.2624  -11.4686  -16.1674 O   0  0  0  0  0  0  0  0  0  0  0  0
   22.4022   -9.4869  -16.3902 N   0  0  0  0  0  0  0  0  0  0  0  0
   21.4352   -8.7258  -15.5727 C   0  0  1  0  0  0  0  0  0  0  0  0
   22.0680   -8.3938  -14.2376 C   0  0  0  0  0  0  0  0  0  0  0  0
   20.9101   -8.3127  -12.8798 S   0  0  0  0  0  0  0  0  0  0  0  0
   21.0802   -7.5226  -16.3617 C   0  0  0  0  0  0  0  0  0  0  0  0
   21.9914   -6.8437  -16.9634 O   0  0  0  0  0  0  0  0  0  0  0  0
   15.9526   -5.1866  -18.8304 C   0  0  0  0  0  0  0  0  0  0  0  0
   17.4916   -5.0289  -18.7125 C   0  0  2  0  0  0  0  0  0  0  0  0
   17.9711   -5.2260  -20.1342 C   0  0  0  0  0  0  0  0  0  0  0  0
   18.0314   -6.0681  -17.7895 C   0  0  0  0  0  0  0  0  0  0  0  0
   19.4206   -5.8671  -17.2905 C   0  0  2  0  0  0  0  0  0  0  0  0
   19.7726   -7.0484  -16.5096 N   0  0  0  0  0  0  0  0  0  0  0  0
   19.5892   -4.7088  -16.4078 C   0  0  0  0  0  0  0  0  0  0  0  0
   19.2203   -4.7283  -15.2097 O   0  0  0  0  0  0  0  0  0  0  0  0
   20.1694   -3.4941  -16.8336 O   0  0  0  0  0  0  0  0  0  0  0  0
  2  1  1  0
  3  2  1  0
  4  3  1  0
  5  4  1  0
  5  6  1  1
  7  5  1  0
  8  7  2  0
  9  7  1  0
 10 13  1  0
 10  9  1  0
 10 11  1  1
 12 11  1  0
 13 20  1  0
 14 13  2  0
 16 15  1  6
 16 17  1  0
 18 16  1  0
 19 18  1  1
 19 21  1  0
 20 19  1  0
 21 22  2  0
 21 23  1  0
M  END
$$$$
