MCL.pdb
     RDKit          3D

 23 22  0  0  1  0  0  0  0  0999 V2000
   29.8138  -15.4232  -16.9078 C   0  0  0  0  0  0  0  0  0  0  0  0
   30.1473  -16.8373  -17.9590 S   0  0  0  0  0  0  0  0  0  0  0  0
   28.8926  -18.1271  -17.8465 C   0  0  0  0  0  0  0  0  0  0  0  0
   27.8863  -17.8479  -16.7342 C   0  0  0  0  0  0  0  0  0  0  0  0
   28.1021  -18.8739  -15.6737 C   0  0  2  0  0  0  0  0  0  0  0  0
   28.1001  -20.1840  -16.2783 N   0  0  0  0  0  0  0  0  0  0  0  0
   27.1449  -18.7795  -14.5445 C   0  0  0  0  0  0  0  0  0  0  0  0
   26.9428  -17.6501  -14.0187 O   0  0  0  0  0  0  0  0  0  0  0  0
   26.4460  -19.8926  -14.0261 N   0  0  0  0  0  0  0  0  0  0  0  0
   25.4325  -19.7729  -12.9579 C   0  0  1  0  0  0  0  0  0  0  0  0
   24.1716  -20.4926  -13.3882 C   0  0  0  0  0  0  0  0  0  0  0  0
   22.9778  -20.7220  -12.0793 S   0  0  0  0  0  0  0  0  0  0  0  0
   26.0435  -20.3520  -11.7382 C   0  0  0  0  0  0  0  0  0  0  0  0
   27.0583  -21.1369  -11.8256 O   0  0  0  0  0  0  0  0  0  0  0  0
   27.9148  -18.7703   -6.4611 C   0  0  0  0  0  0  0  0  0  0  0  0
   27.6342  -20.0504   -7.2916 C   0  0  2  0  0  0  0  0  0  0  0  0
   29.0104  -20.6509   -7.4804 C   0  0  0  0  0  0  0  0  0  0  0  0
   27.0030  -19.6759   -8.5896 C   0  0  0  0  0  0  0  0  0  0  0  0
   26.1503  -20.7072   -9.2442 C   0  0  2  0  0  0  0  0  0  0  0  0
   25.5819  -20.0984  -10.4425 N   0  0  0  0  0  0  0  0  0  0  0  0
   25.0240  -21.1730   -8.4295 C   0  0  0  0  0  0  0  0  0  0  0  0
   23.8960  -20.6286   -8.4836 O   0  0  0  0  0  0  0  0  0  0  0  0
   25.1213  -22.2555   -7.5282 O   0  0  0  0  0  0  0  0  0  0  0  0
  2  1  1  0
  3  2  1  0
  4  3  1  0
  5  4  1  0
  5  6  1  6
  7  5  1  0
  8  7  2  0
  9  7  1  0
 10 13  1  0
 10  9  1  0
 10 11  1  6
 12 11  1  0
 13 20  1  0
 14 13  2  0
 16 15  1  1
 16 17  1  0
 18 16  1  0
 19 18  1  1
 19 21  1  0
 20 19  1  0
 21 22  2  0
 21 23  1  0
M  END
$$$$
