MCL.pdb
     RDKit          3D

 23 22  0  0  1  0  0  0  0  0999 V2000
   22.4699  -16.1525  -21.2396 C   0  0  0  0  0  0  0  0  0  0  0  0
   24.1311  -16.5668  -20.7062 S   0  0  0  0  0  0  0  0  0  0  0  0
   25.0501  -15.1568  -20.0598 C   0  0  0  0  0  0  0  0  0  0  0  0
   24.3903  -14.5679  -18.8166 C   0  0  0  0  0  0  0  0  0  0  0  0
   24.4856  -13.0836  -18.9254 C   0  0  2  0  0  0  0  0  0  0  0  0
   25.8631  -12.7148  -19.1450 N   0  0  0  0  0  0  0  0  0  0  0  0
   23.8908  -12.3587  -17.7759 C   0  0  0  0  0  0  0  0  0  0  0  0
   22.6779  -12.5660  -17.4953 O   0  0  0  0  0  0  0  0  0  0  0  0
   24.6149  -11.4457  -16.9772 N   0  0  0  0  0  0  0  0  0  0  0  0
   24.0033  -10.7079  -15.8528 C   0  0  1  0  0  0  0  0  0  0  0  0
   25.0849  -10.3246  -14.8647 C   0  0  0  0  0  0  0  0  0  0  0  0
   26.2949   -9.1812  -15.5123 S   0  0  0  0  0  0  0  0  0  0  0  0
   23.3193   -9.5356  -16.4479 C   0  0  0  0  0  0  0  0  0  0  0  0
   23.8214   -8.9345  -17.4676 O   0  0  0  0  0  0  0  0  0  0  0  0
   17.7257   -7.5710  -17.3730 C   0  0  0  0  0  0  0  0  0  0  0  0
   19.2199   -7.1780  -17.5147 C   0  0  2  0  0  0  0  0  0  0  0  0
   19.4197   -7.1057  -19.0131 C   0  0  0  0  0  0  0  0  0  0  0  0
   20.0743   -8.2252  -16.8850 C   0  0  0  0  0  0  0  0  0  0  0  0
   21.4639   -7.8297  -16.5221 C   0  0  2  0  0  0  0  0  0  0  0  0
   22.1161   -9.0105  -15.9653 N   0  0  0  0  0  0  0  0  0  0  0  0
   21.5520   -6.7769  -15.5058 C   0  0  0  0  0  0  0  0  0  0  0  0
   21.6140   -7.0401  -14.2815 O   0  0  0  0  0  0  0  0  0  0  0  0
   21.5696   -5.4009  -15.8218 O   0  0  0  0  0  0  0  0  0  0  0  0
  2  1  1  0
  3  2  1  0
  4  3  1  0
  5  4  1  0
  5  6  1  1
  7  5  1  0
  8  7  2  0
  9  7  1  0
 10 13  1  0
 10  9  1  0
 10 11  1  1
 12 11  1  0
 13 20  1  0
 14 13  2  0
 16 15  1  6
 16 17  1  0
 18 16  1  0
 19 18  1  1
 19 21  1  0
 20 19  1  0
 21 22  2  0
 21 23  1  0
M  END
$$$$
