MCL.pdb
     RDKit          3D

 23 22  0  0  1  0  0  0  0  0999 V2000
   25.9849  -15.6785  -15.3042 C   0  0  0  0  0  0  0  0  0  0  0  0
   27.6042  -16.0853  -15.9584 S   0  0  0  0  0  0  0  0  0  0  0  0
   28.2356  -17.6708  -15.3769 C   0  0  0  0  0  0  0  0  0  0  0  0
   27.1384  -18.5263  -14.7508 C   0  0  0  0  0  0  0  0  0  0  0  0
   27.7576  -19.8262  -14.3621 C   0  0  2  0  0  0  0  0  0  0  0  0
   28.3084  -20.4557  -15.5378 N   0  0  0  0  0  0  0  0  0  0  0  0
   26.8417  -20.7293  -13.6233 C   0  0  0  0  0  0  0  0  0  0  0  0
   26.2705  -21.6588  -14.2580 O   0  0  0  0  0  0  0  0  0  0  0  0
   26.5755  -20.6017  -12.2417 N   0  0  0  0  0  0  0  0  0  0  0  0
   25.4632  -21.3084  -11.5737 C   0  0  1  0  0  0  0  0  0  0  0  0
   25.6327  -21.1929  -10.0734 C   0  0  0  0  0  0  0  0  0  0  0  0
   25.8125  -19.5159   -9.4849 S   0  0  0  0  0  0  0  0  0  0  0  0
   24.2152  -20.6793  -12.0668 C   0  0  0  0  0  0  0  0  0  0  0  0
   24.1789  -19.4222  -12.3342 O   0  0  0  0  0  0  0  0  0  0  0  0
   20.7808  -21.1287  -16.5621 C   0  0  0  0  0  0  0  0  0  0  0  0
   20.6570  -20.6247  -15.1000 C   0  0  2  0  0  0  0  0  0  0  0  0
   20.6915  -19.1189  -15.2473 C   0  0  0  0  0  0  0  0  0  0  0  0
   21.8041  -21.1358  -14.2960 C   0  0  0  0  0  0  0  0  0  0  0  0
   21.8204  -20.7828  -12.8489 C   0  0  2  0  0  0  0  0  0  0  0  0
   23.0219  -21.3788  -12.2739 N   0  0  0  0  0  0  0  0  0  0  0  0
   20.6819  -21.2990  -12.0831 C   0  0  0  0  0  0  0  0  0  0  0  0
   20.5997  -22.5043  -11.7476 O   0  0  0  0  0  0  0  0  0  0  0  0
   19.6002  -20.4902  -11.6716 O   0  0  0  0  0  0  0  0  0  0  0  0
  2  1  1  0
  3  2  1  0
  4  3  1  0
  5  4  1  0
  5  6  1  6
  7  5  1  0
  8  7  2  0
  9  7  1  0
 10 13  1  0
 10  9  1  0
 10 11  1  1
 12 11  1  0
 13 20  1  0
 14 13  2  0
 16 15  1  6
 16 17  1  0
 18 16  1  0
 19 18  1  6
 19 21  1  0
 20 19  1  0
 21 22  2  0
 21 23  1  0
M  END
$$$$
