MCL.pdb
     RDKit          3D

 23 22  0  0  1  0  0  0  0  0999 V2000
   26.9286  -16.0592  -16.6809 C   0  0  0  0  0  0  0  0  0  0  0  0
   28.2965  -17.2026  -16.8737 S   0  0  0  0  0  0  0  0  0  0  0  0
   28.2165  -18.6129  -15.7533 C   0  0  0  0  0  0  0  0  0  0  0  0
   27.4402  -18.2868  -14.4811 C   0  0  0  0  0  0  0  0  0  0  0  0
   27.4699  -19.5039  -13.6197 C   0  0  2  0  0  0  0  0  0  0  0  0
   26.8509  -20.5977  -14.3285 N   0  0  0  0  0  0  0  0  0  0  0  0
   26.8745  -19.3022  -12.2761 C   0  0  0  0  0  0  0  0  0  0  0  0
   26.8251  -18.1309  -11.8087 O   0  0  0  0  0  0  0  0  0  0  0  0
   26.3587  -20.3573  -11.4909 N   0  0  0  0  0  0  0  0  0  0  0  0
   25.6276  -20.1295  -10.2274 C   0  0  1  0  0  0  0  0  0  0  0  0
   24.3307  -20.9106  -10.2577 C   0  0  0  0  0  0  0  0  0  0  0  0
   23.1525  -20.3249  -11.4659 S   0  0  0  0  0  0  0  0  0  0  0  0
   26.5369  -20.5568   -9.1380 C   0  0  0  0  0  0  0  0  0  0  0  0
   27.2217  -21.6397   -9.2458 O   0  0  0  0  0  0  0  0  0  0  0  0
   28.9050  -18.1944   -3.9630 C   0  0  0  0  0  0  0  0  0  0  0  0
   28.5560  -19.5215   -4.6871 C   0  0  2  0  0  0  0  0  0  0  0  0
   29.9008  -20.1986   -4.8393 C   0  0  0  0  0  0  0  0  0  0  0  0
   27.9270  -19.2214   -6.0053 C   0  0  0  0  0  0  0  0  0  0  0  0
   27.3852  -20.3792   -6.7702 C   0  0  2  0  0  0  0  0  0  0  0  0
   26.7164  -19.8407   -7.9501 N   0  0  0  0  0  0  0  0  0  0  0  0
   26.3913  -21.1767   -6.0455 C   0  0  0  0  0  0  0  0  0  0  0  0
   25.1601  -20.9744   -6.1693 O   0  0  0  0  0  0  0  0  0  0  0  0
   26.7383  -22.2196   -5.1593 O   0  0  0  0  0  0  0  0  0  0  0  0
  2  1  1  0
  3  2  1  0
  4  3  1  0
  5  4  1  0
  5  6  1  6
  7  5  1  0
  8  7  2  0
  9  7  1  0
 10 13  1  0
 10  9  1  0
 10 11  1  6
 12 11  1  0
 13 20  1  0
 14 13  2  0
 16 15  1  6
 16 17  1  0
 18 16  1  0
 19 18  1  1
 19 21  1  0
 20 19  1  0
 21 22  2  0
 21 23  1  0
M  END
$$$$
