WGA.pdb
     RDKit          3D

 24 25  0  0  1  0  0  0  0  0999 V2000
   25.9673  -22.4240  -11.8369 N   0  0  0  0  0  0  0  0  0  0  0  0
   25.4187  -21.2167  -11.2734 C   0  0  1  0  0  0  0  0  0  0  0  0
   26.4456  -20.1501  -11.0233 C   0  0  0  0  0  0  0  0  0  0  0  0
   27.5510  -20.5600  -10.1407 C   0  0  0  0  0  0  0  0  0  0  0  0
   28.7137  -21.2341  -10.5021 C   0  0  0  0  0  0  0  0  0  0  0  0
   29.5084  -21.4223   -9.4404 N   0  0  0  0  0  0  0  0  0  0  0  0
   28.9100  -20.8911   -8.3675 C   0  0  0  0  0  0  0  0  0  0  0  0
   29.3151  -20.8307   -7.0557 C   0  0  0  0  0  0  0  0  0  0  0  0
   28.5428  -20.2405   -6.1040 C   0  0  0  0  0  0  0  0  0  0  0  0
   27.3395  -19.7049   -6.4993 C   0  0  0  0  0  0  0  0  0  0  0  0
   26.9169  -19.7574   -7.8172 C   0  0  0  0  0  0  0  0  0  0  0  0
   27.6917  -20.3509   -8.7839 C   0  0  0  0  0  0  0  0  0  0  0  0
   24.2364  -20.7136  -11.9968 C   0  0  0  0  0  0  0  0  0  0  0  0
   23.5717  -19.7746  -11.5136 O   0  0  0  0  0  0  0  0  0  0  0  0
   23.8153  -21.2596  -13.2380 N   0  0  0  0  0  0  0  0  0  0  0  0
   22.9702  -20.5049  -14.1394 C   0  0  0  0  0  0  0  0  0  0  0  0
   21.6387  -21.1438  -14.2167 C   0  0  0  0  0  0  0  0  0  0  0  0
   20.7384  -20.6676  -14.9473 O   0  0  0  0  0  0  0  0  0  0  0  0
   20.1487  -24.4184  -13.3447 C   0  0  0  0  0  0  0  0  0  0  0  0
   20.0476  -22.9268  -13.6045 C   0  0  2  0  0  0  0  0  0  0  0  0
   21.3407  -22.3136  -13.4670 N   0  0  0  0  0  0  0  0  0  0  0  0
   19.1209  -22.3029  -12.6339 C   0  0  0  0  0  0  0  0  0  0  0  0
   17.8888  -22.3282  -12.8412 O   0  0  0  0  0  0  0  0  0  0  0  0
   19.6192  -21.6851  -11.4859 O   0  0  0  0  0  0  0  0  0  0  0  0
  2  1  1  6
  2  3  1  0
  4  5  2  0
  4  3  1  0
  6  5  1  0
  7 12  2  0
  7  6  1  0
  8  7  1  0
  9 10  1  0
  9  8  2  0
 10 11  2  0
 11 12  1  0
 12  4  1  0
 13  2  1  0
 13 15  1  0
 14 13  2  0
 16 15  1  0
 17 16  1  0
 18 17  2  0
 20 19  1  1
 20 21  1  0
 20 22  1  0
 21 17  1  0
 22 24  1  0
 23 22  2  0
M  END
$$$$
