WGA.pdb
     RDKit          3D

 24 25  0  0  1  0  0  0  0  0999 V2000
   30.1332  -35.3811  -15.7140 N   0  0  0  0  0  0  0  0  0  0  0  0
   30.6943  -34.4753  -16.6839 C   0  0  1  0  0  0  0  0  0  0  0  0
   30.5742  -33.0298  -16.2956 C   0  0  0  0  0  0  0  0  0  0  0  0
   29.2040  -32.5939  -15.9765 C   0  0  0  0  0  0  0  0  0  0  0  0
   28.5628  -32.6614  -14.7432 C   0  0  0  0  0  0  0  0  0  0  0  0
   27.3262  -32.1522  -14.8174 N   0  0  0  0  0  0  0  0  0  0  0  0
   27.1150  -31.7415  -16.0736 C   0  0  0  0  0  0  0  0  0  0  0  0
   26.0123  -31.1583  -16.6504 C   0  0  0  0  0  0  0  0  0  0  0  0
   26.0012  -30.8162  -17.9670 C   0  0  0  0  0  0  0  0  0  0  0  0
   27.1333  -31.0744  -18.7039 C   0  0  0  0  0  0  0  0  0  0  0  0
   28.2527  -31.6612  -18.1375 C   0  0  0  0  0  0  0  0  0  0  0  0
   28.2716  -32.0086  -16.8085 C   0  0  0  0  0  0  0  0  0  0  0  0
   32.0573  -34.8410  -17.1118 C   0  0  0  0  0  0  0  0  0  0  0  0
   32.8181  -35.4246  -16.3133 O   0  0  0  0  0  0  0  0  0  0  0  0
   32.5486  -34.5535  -18.4125 N   0  0  0  0  0  0  0  0  0  0  0  0
   33.9135  -34.8642  -18.7825 C   0  0  0  0  0  0  0  0  0  0  0  0
   33.9479  -36.1612  -19.4924 C   0  0  0  0  0  0  0  0  0  0  0  0
   35.0180  -36.6033  -19.9724 O   0  0  0  0  0  0  0  0  0  0  0  0
   31.5523  -38.9806  -20.1277 C   0  0  0  0  0  0  0  0  0  0  0  0
   32.8647  -38.2336  -20.2778 C   0  0  2  0  0  0  0  0  0  0  0  0
   32.7720  -36.9430  -19.6513 N   0  0  0  0  0  0  0  0  0  0  0  0
   33.1811  -38.0437  -21.7110 C   0  0  0  0  0  0  0  0  0  0  0  0
   32.6961  -37.0757  -22.3351 O   0  0  0  0  0  0  0  0  0  0  0  0
   34.0206  -38.9436  -22.3690 O   0  0  0  0  0  0  0  0  0  0  0  0
  2  1  1  1
  2  3  1  0
  4  5  2  0
  4  3  1  0
  6  5  1  0
  7 12  2  0
  7  6  1  0
  8  7  1  0
  9 10  1  0
  9  8  2  0
 10 11  2  0
 11 12  1  0
 12  4  1  0
 13  2  1  0
 13 15  1  0
 14 13  2  0
 16 15  1  0
 17 16  1  0
 18 17  2  0
 20 19  1  6
 20 21  1  0
 20 22  1  0
 21 17  1  0
 22 24  1  0
 23 22  2  0
M  END
$$$$
