WGA.pdb
     RDKit          3D

 24 25  0  0  1  0  0  0  0  0999 V2000
   25.3951  -19.8935  -12.0583 N   0  0  0  0  0  0  0  0  0  0  0  0
   26.6325  -20.6217  -12.1789 C   0  0  1  0  0  0  0  0  0  0  0  0
   26.9037  -21.5407  -11.0228 C   0  0  0  0  0  0  0  0  0  0  0  0
   26.6966  -20.9335   -9.6971 C   0  0  0  0  0  0  0  0  0  0  0  0
   25.4913  -20.5203   -9.1373 C   0  0  0  0  0  0  0  0  0  0  0  0
   25.6778  -20.0335   -7.9035 N   0  0  0  0  0  0  0  0  0  0  0  0
   26.9826  -20.1073   -7.6148 C   0  0  0  0  0  0  0  0  0  0  0  0
   27.6712  -19.7350   -6.4852 C   0  0  0  0  0  0  0  0  0  0  0  0
   29.0193  -19.8931   -6.3951 C   0  0  0  0  0  0  0  0  0  0  0  0
   29.6723  -20.4392   -7.4752 C   0  0  0  0  0  0  0  0  0  0  0  0
   28.9929  -20.8197   -8.6206 C   0  0  0  0  0  0  0  0  0  0  0  0
   27.6315  -20.6640   -8.7186 C   0  0  0  0  0  0  0  0  0  0  0  0
   26.8019  -21.2824  -13.4863 C   0  0  0  0  0  0  0  0  0  0  0  0
   27.8641  -21.8866  -13.7384 O   0  0  0  0  0  0  0  0  0  0  0  0
   25.7935  -21.2605  -14.4856 N   0  0  0  0  0  0  0  0  0  0  0  0
   26.0007  -21.8917  -15.7719 C   0  0  0  0  0  0  0  0  0  0  0  0
   24.9826  -22.9456  -15.9728 C   0  0  0  0  0  0  0  0  0  0  0  0
   23.9697  -23.0095  -15.2374 O   0  0  0  0  0  0  0  0  0  0  0  0
   24.1946  -25.4903  -18.5912 C   0  0  0  0  0  0  0  0  0  0  0  0
   24.0753  -24.8788  -17.2076 C   0  0  2  0  0  0  0  0  0  0  0  0
   25.1220  -23.9147  -17.0026 N   0  0  0  0  0  0  0  0  0  0  0  0
   24.1911  -25.9318  -16.1742 C   0  0  0  0  0  0  0  0  0  0  0  0
   25.2738  -26.1019  -15.5738 O   0  0  0  0  0  0  0  0  0  0  0  0
   23.0932  -26.7370  -15.8674 O   0  0  0  0  0  0  0  0  0  0  0  0
  2  1  1  1
  2  3  1  0
  4  5  2  0
  4  3  1  0
  6  5  1  0
  7 12  2  0
  7  6  1  0
  8  7  1  0
  9 10  1  0
  9  8  2  0
 10 11  2  0
 11 12  1  0
 12  4  1  0
 13  2  1  0
 13 15  1  0
 14 13  2  0
 16 15  1  0
 17 16  1  0
 18 17  2  0
 20 19  1  6
 20 21  1  0
 20 22  1  0
 21 17  1  0
 22 24  1  0
 23 22  2  0
M  END
$$$$
