WGA.pdb
     RDKit          3D

 24 25  0  0  1  0  0  0  0  0999 V2000
   25.3343  -20.7377  -10.2813 N   0  0  0  0  0  0  0  0  0  0  0  0
   26.7547  -20.6768  -10.5155 C   0  0  1  0  0  0  0  0  0  0  0  0
   27.5718  -21.2858   -9.4127 C   0  0  0  0  0  0  0  0  0  0  0  0
   27.3462  -20.6914   -8.0842 C   0  0  0  0  0  0  0  0  0  0  0  0
   26.1683  -20.1303   -7.6000 C   0  0  0  0  0  0  0  0  0  0  0  0
   26.3221  -19.7072   -6.3385 N   0  0  0  0  0  0  0  0  0  0  0  0
   27.5781  -19.9686   -5.9572 C   0  0  0  0  0  0  0  0  0  0  0  0
   28.2204  -19.7255   -4.7668 C   0  0  0  0  0  0  0  0  0  0  0  0
   29.5233  -20.0711   -4.5834 C   0  0  0  0  0  0  0  0  0  0  0  0
   30.1784  -20.6734   -5.6319 C   0  0  0  0  0  0  0  0  0  0  0  0
   29.5453  -20.9254   -6.8377 C   0  0  0  0  0  0  0  0  0  0  0  0
   28.2296  -20.5802   -7.0300 C   0  0  0  0  0  0  0  0  0  0  0  0
   27.1522  -21.1551  -11.8525 C   0  0  0  0  0  0  0  0  0  0  0  0
   26.8969  -22.3295  -12.1879 O   0  0  0  0  0  0  0  0  0  0  0  0
   27.8227  -20.3246  -12.7888 N   0  0  0  0  0  0  0  0  0  0  0  0
   27.2455  -19.0703  -13.2245 C   0  0  0  0  0  0  0  0  0  0  0  0
   26.1880  -19.3359  -14.2237 C   0  0  0  0  0  0  0  0  0  0  0  0
   25.6722  -18.3997  -14.8783 O   0  0  0  0  0  0  0  0  0  0  0  0
   24.4996  -22.3077  -15.7501 C   0  0  0  0  0  0  0  0  0  0  0  0
   24.5830  -20.8549  -15.3200 C   0  0  2  0  0  0  0  0  0  0  0  0
   25.7260  -20.6568  -14.4708 N   0  0  0  0  0  0  0  0  0  0  0  0
   23.3642  -20.4751  -14.5714 C   0  0  0  0  0  0  0  0  0  0  0  0
   22.3359  -20.1236  -15.1884 O   0  0  0  0  0  0  0  0  0  0  0  0
   23.3593  -20.5082  -13.1762 O   0  0  0  0  0  0  0  0  0  0  0  0
  2  1  1  1
  2  3  1  0
  4  5  2  0
  4  3  1  0
  6  5  1  0
  7 12  2  0
  7  6  1  0
  8  7  1  0
  9 10  1  0
  9  8  2  0
 10 11  2  0
 11 12  1  0
 12  4  1  0
 13  2  1  0
 13 15  1  0
 14 13  2  0
 16 15  1  0
 17 16  1  0
 18 17  2  0
 20 19  1  1
 20 21  1  0
 20 22  1  0
 21 17  1  0
 22 24  1  0
 23 22  2  0
M  END
$$$$
