WGA.pdb
     RDKit          3D

 24 25  0  0  1  0  0  0  0  0999 V2000
   28.6187  -21.8680  -10.4283 N   0  0  0  0  0  0  0  0  0  0  0  0
   27.2837  -21.4053  -10.1459 C   0  0  1  0  0  0  0  0  0  0  0  0
   27.2449  -20.1277   -9.3579 C   0  0  0  0  0  0  0  0  0  0  0  0
   28.1262  -20.1097   -8.1780 C   0  0  0  0  0  0  0  0  0  0  0  0
   29.4956  -19.8632   -8.1515 C   0  0  0  0  0  0  0  0  0  0  0  0
   29.9661  -19.9056   -6.8981 N   0  0  0  0  0  0  0  0  0  0  0  0
   28.9461  -20.1757   -6.0748 C   0  0  0  0  0  0  0  0  0  0  0  0
   28.9145  -20.3247   -4.7089 C   0  0  0  0  0  0  0  0  0  0  0  0
   27.7553  -20.6076   -4.0555 C   0  0  0  0  0  0  0  0  0  0  0  0
   26.6128  -20.7402   -4.8094 C   0  0  0  0  0  0  0  0  0  0  0  0
   26.6279  -20.5928   -6.1864 C   0  0  0  0  0  0  0  0  0  0  0  0
   27.7944  -20.3063   -6.8531 C   0  0  0  0  0  0  0  0  0  0  0  0
   26.4087  -21.3721  -11.3323 C   0  0  0  0  0  0  0  0  0  0  0  0
   26.8856  -21.0561  -12.4411 O   0  0  0  0  0  0  0  0  0  0  0  0
   25.0262  -21.6888  -11.2665 N   0  0  0  0  0  0  0  0  0  0  0  0
   24.2241  -21.7925  -12.4674 C   0  0  0  0  0  0  0  0  0  0  0  0
   23.1744  -20.7508  -12.4497 C   0  0  0  0  0  0  0  0  0  0  0  0
   22.8785  -20.1541  -11.3879 O   0  0  0  0  0  0  0  0  0  0  0  0
   20.9186  -19.0817  -14.9467 C   0  0  0  0  0  0  0  0  0  0  0  0
   21.3933  -19.4485  -13.5529 C   0  0  2  0  0  0  0  0  0  0  0  0
   22.4715  -20.3962  -13.6326 N   0  0  0  0  0  0  0  0  0  0  0  0
   20.2854  -20.0542  -12.7809 C   0  0  0  0  0  0  0  0  0  0  0  0
   20.1533  -21.2964  -12.7471 O   0  0  0  0  0  0  0  0  0  0  0  0
   19.3861  -19.2413  -12.0894 O   0  0  0  0  0  0  0  0  0  0  0  0
  2  1  1  6
  2  3  1  0
  4  5  2  0
  4  3  1  0
  6  5  1  0
  7 12  2  0
  7  6  1  0
  8  7  1  0
  9 10  1  0
  9  8  2  0
 10 11  2  0
 11 12  1  0
 12  4  1  0
 13  2  1  0
 13 15  1  0
 14 13  2  0
 16 15  1  0
 17 16  1  0
 18 17  2  0
 20 19  1  6
 20 21  1  0
 20 22  1  0
 21 17  1  0
 22 24  1  0
 23 22  2  0
M  END
$$$$
