WGA.pdb
     RDKit          3D

 24 25  0  0  1  0  0  0  0  0999 V2000
   26.7160  -22.2028  -10.9305 N   0  0  0  0  0  0  0  0  0  0  0  0
   25.9536  -21.1430  -10.3208 C   0  0  1  0  0  0  0  0  0  0  0  0
   26.8035  -20.0580   -9.7248 C   0  0  0  0  0  0  0  0  0  0  0  0
   27.7966  -20.5280   -8.7441 C   0  0  0  0  0  0  0  0  0  0  0  0
   28.9347  -21.2890   -8.9942 C   0  0  0  0  0  0  0  0  0  0  0  0
   29.6195  -21.5125   -7.8650 N   0  0  0  0  0  0  0  0  0  0  0  0
   28.9707  -20.9204   -6.8552 C   0  0  0  0  0  0  0  0  0  0  0  0
   29.2648  -20.8639   -5.5139 C   0  0  0  0  0  0  0  0  0  0  0  0
   28.4578  -20.2029   -4.6407 C   0  0  0  0  0  0  0  0  0  0  0  0
   27.3344  -19.5915   -5.1461 C   0  0  0  0  0  0  0  0  0  0  0  0
   27.0242  -19.6390   -6.4951 C   0  0  0  0  0  0  0  0  0  0  0  0
   27.8347  -20.3038   -7.3830 C   0  0  0  0  0  0  0  0  0  0  0  0
   24.8794  -20.6185  -11.1842 C   0  0  0  0  0  0  0  0  0  0  0  0
   25.0740  -20.5083  -12.4117 O   0  0  0  0  0  0  0  0  0  0  0  0
   23.6144  -20.2278  -10.6714 N   0  0  0  0  0  0  0  0  0  0  0  0
   22.6009  -19.6577  -11.5339 C   0  0  0  0  0  0  0  0  0  0  0  0
   21.7010  -20.7298  -12.0114 C   0  0  0  0  0  0  0  0  0  0  0  0
   21.7255  -21.1047  -13.2072 O   0  0  0  0  0  0  0  0  0  0  0  0
   19.5395  -23.3392  -10.4824 C   0  0  0  0  0  0  0  0  0  0  0  0
   19.9607  -22.4351  -11.6260 C   0  0  2  0  0  0  0  0  0  0  0  0
   20.7841  -21.3654  -11.1314 N   0  0  0  0  0  0  0  0  0  0  0  0
   18.7678  -21.8523  -12.2797 C   0  0  0  0  0  0  0  0  0  0  0  0
   17.9751  -22.5889  -12.9047 O   0  0  0  0  0  0  0  0  0  0  0  0
   18.5247  -20.4803  -12.2006 O   0  0  0  0  0  0  0  0  0  0  0  0
  2  1  1  6
  2  3  1  0
  4  5  2  0
  4  3  1  0
  6  5  1  0
  7 12  2  0
  7  6  1  0
  8  7  1  0
  9 10  1  0
  9  8  2  0
 10 11  2  0
 11 12  1  0
 12  4  1  0
 13  2  1  0
 13 15  1  0
 14 13  2  0
 16 15  1  0
 17 16  1  0
 18 17  2  0
 20 19  1  1
 20 21  1  0
 20 22  1  0
 21 17  1  0
 22 24  1  0
 23 22  2  0
M  END
$$$$
