WGA.pdb
     RDKit          3D

 24 25  0  0  1  0  0  0  0  0999 V2000
   25.2335  -20.8812   -9.7950 N   0  0  0  0  0  0  0  0  0  0  0  0
   26.5487  -20.4186  -10.1591 C   0  0  1  0  0  0  0  0  0  0  0  0
   27.6133  -20.7962   -9.1698 C   0  0  0  0  0  0  0  0  0  0  0  0
   27.3584  -20.3401   -7.7929 C   0  0  0  0  0  0  0  0  0  0  0  0
   26.1441  -19.9286   -7.2515 C   0  0  0  0  0  0  0  0  0  0  0  0
   26.2810  -19.6033   -5.9594 N   0  0  0  0  0  0  0  0  0  0  0  0
   27.5611  -19.7847   -5.6132 C   0  0  0  0  0  0  0  0  0  0  0  0
   28.1991  -19.5889   -4.4118 C   0  0  0  0  0  0  0  0  0  0  0  0
   29.5299  -19.8327   -4.2704 C   0  0  0  0  0  0  0  0  0  0  0  0
   30.2178  -20.2827   -5.3729 C   0  0  0  0  0  0  0  0  0  0  0  0
   29.5895  -20.4853   -6.5905 C   0  0  0  0  0  0  0  0  0  0  0  0
   28.2458  -20.2422   -6.7407 C   0  0  0  0  0  0  0  0  0  0  0  0
   26.9212  -20.7380  -11.5496 C   0  0  0  0  0  0  0  0  0  0  0  0
   27.1748  -21.9185  -11.8641 O   0  0  0  0  0  0  0  0  0  0  0  0
   27.0049  -19.7453  -12.5614 N   0  0  0  0  0  0  0  0  0  0  0  0
   27.4574  -20.0742  -13.8968 C   0  0  0  0  0  0  0  0  0  0  0  0
   26.3174  -20.5791  -14.6924 C   0  0  0  0  0  0  0  0  0  0  0  0
   26.3632  -20.5925  -15.9448 O   0  0  0  0  0  0  0  0  0  0  0  0
   23.3563  -22.7004  -14.1394 C   0  0  0  0  0  0  0  0  0  0  0  0
   24.0700  -21.5799  -14.8726 C   0  0  2  0  0  0  0  0  0  0  0  0
   25.1391  -21.0628  -14.0624 N   0  0  0  0  0  0  0  0  0  0  0  0
   23.1236  -20.4809  -15.1672 C   0  0  0  0  0  0  0  0  0  0  0  0
   22.9548  -19.5622  -14.3370 O   0  0  0  0  0  0  0  0  0  0  0  0
   22.4178  -20.4669  -16.3711 O   0  0  0  0  0  0  0  0  0  0  0  0
  2  1  1  1
  2  3  1  0
  4  5  2  0
  4  3  1  0
  6  5  1  0
  7 12  2  0
  7  6  1  0
  8  7  1  0
  9 10  1  0
  9  8  2  0
 10 11  2  0
 11 12  1  0
 12  4  1  0
 13  2  1  0
 13 15  1  0
 14 13  2  0
 16 15  1  0
 17 16  1  0
 18 17  2  0
 20 19  1  1
 20 21  1  0
 20 22  1  0
 21 17  1  0
 22 24  1  0
 23 22  2  0
M  END
$$$$
