WGA.pdb
     RDKit          3D

 24 25  0  0  1  0  0  0  0  0999 V2000
   26.2214  -22.7339  -11.3915 N   0  0  0  0  0  0  0  0  0  0  0  0
   25.6528  -21.4964  -10.9211 C   0  0  1  0  0  0  0  0  0  0  0  0
   26.6319  -20.3583  -10.8919 C   0  0  0  0  0  0  0  0  0  0  0  0
   27.7579  -20.5437   -9.9609 C   0  0  0  0  0  0  0  0  0  0  0  0
   29.0159  -21.0633  -10.2511 C   0  0  0  0  0  0  0  0  0  0  0  0
   29.7972  -21.0633   -9.1631 N   0  0  0  0  0  0  0  0  0  0  0  0
   29.0965  -20.5557   -8.1420 C   0  0  0  0  0  0  0  0  0  0  0  0
   29.4491  -20.3507   -6.8296 C   0  0  0  0  0  0  0  0  0  0  0  0
   28.5715  -19.8181   -5.9369 C   0  0  0  0  0  0  0  0  0  0  0  0
   27.3160  -19.4909   -6.3927 C   0  0  0  0  0  0  0  0  0  0  0  0
   26.9452  -19.6910   -7.7121 C   0  0  0  0  0  0  0  0  0  0  0  0
   27.8261  -20.2275   -8.6194 C   0  0  0  0  0  0  0  0  0  0  0  0
   24.3839  -21.1420  -11.5835 C   0  0  0  0  0  0  0  0  0  0  0  0
   24.0402  -21.7457  -12.6200 O   0  0  0  0  0  0  0  0  0  0  0  0
   23.5234  -20.1285  -11.0853 N   0  0  0  0  0  0  0  0  0  0  0  0
   22.0968  -20.3475  -10.9708 C   0  0  0  0  0  0  0  0  0  0  0  0
   21.4357  -19.9553  -12.2343 C   0  0  0  0  0  0  0  0  0  0  0  0
   20.2529  -19.5407  -12.2394 O   0  0  0  0  0  0  0  0  0  0  0  0
   22.4412  -19.4904  -15.8148 C   0  0  0  0  0  0  0  0  0  0  0  0
   21.4440  -19.6313  -14.6798 C   0  0  2  0  0  0  0  0  0  0  0  0
   22.1196  -20.0367  -13.4772 N   0  0  0  0  0  0  0  0  0  0  0  0
   20.4272  -20.6515  -15.0196 C   0  0  0  0  0  0  0  0  0  0  0  0
   20.6227  -21.8505  -14.7269 O   0  0  0  0  0  0  0  0  0  0  0  0
   19.2485  -20.2783  -15.6670 O   0  0  0  0  0  0  0  0  0  0  0  0
  2  1  1  6
  2  3  1  0
  4  5  2  0
  4  3  1  0
  6  5  1  0
  7 12  2  0
  7  6  1  0
  8  7  1  0
  9 10  1  0
  9  8  2  0
 10 11  2  0
 11 12  1  0
 12  4  1  0
 13  2  1  0
 13 15  1  0
 14 13  2  0
 16 15  1  0
 17 16  1  0
 18 17  2  0
 20 19  1  6
 20 21  1  0
 20 22  1  0
 21 17  1  0
 22 24  1  0
 23 22  2  0
M  END
$$$$
