CGS.pdb
     RDKit          3D

 17 16  0  0  1  0  0  0  0  0999 V2000
   27.4604  -22.1051  -16.8602 N   0  0  0  0  0  0  0  0  0  0  0  0
   28.0146  -23.2641  -17.4992 C   0  0  1  0  0  0  0  0  0  0  0  0
   29.4884  -23.0703  -17.8375 C   0  0  0  0  0  0  0  0  0  0  0  0
   29.6133  -22.1561  -19.3985 S   0  0  0  0  0  0  0  0  0  0  0  0
   27.9031  -24.4704  -16.6038 C   0  0  0  0  0  0  0  0  0  0  0  0
   27.5979  -24.3666  -15.3871 O   0  0  0  0  0  0  0  0  0  0  0  0
   28.1407  -25.7787  -17.1059 N   0  0  0  0  0  0  0  0  0  0  0  0
   28.0534  -26.9658  -16.2997 C   0  0  0  0  0  0  0  0  0  0  0  0
   28.3716  -28.1418  -17.1840 C   0  0  0  0  0  0  0  0  0  0  0  0
   28.5659  -28.0042  -18.4121 O   0  0  0  0  0  0  0  0  0  0  0  0
   29.8880  -31.6288  -15.5972 O   0  0  0  0  0  0  0  0  0  0  0  0
   28.8356  -31.8071  -16.5160 C   0  0  0  0  0  0  0  0  0  0  0  0
   28.8098  -30.6106  -17.4726 C   0  0  2  0  0  0  0  0  0  0  0  0
   28.4643  -29.4616  -16.6566 N   0  0  0  0  0  0  0  0  0  0  0  0
   27.8165  -30.8876  -18.5092 C   0  0  0  0  0  0  0  0  0  0  0  0
   26.6061  -30.6457  -18.3048 O   0  0  0  0  0  0  0  0  0  0  0  0
   28.1812  -31.4192  -19.7324 O   0  0  0  0  0  0  0  0  0  0  0  0
  2  1  1  1
  2  3  1  0
  3  4  1  0
  5  6  2  0
  5  2  1  0
  7  5  1  0
  8  9  1  0
  8  7  1  0
  9 10  2  0
 11 12  1  0
 13 12  1  1
 14  9  1  0
 14 13  1  0
 15 13  1  0
 15 17  1  0
 16 15  2  0
M  END
$$$$
