CGS.pdb
     RDKit          3D

 17 16  0  0  1  0  0  0  0  0999 V2000
   21.5838  -11.9967  -16.7964 N   0  0  0  0  0  0  0  0  0  0  0  0
   22.5277  -11.7489  -15.7445 C   0  0  1  0  0  0  0  0  0  0  0  0
   23.7065  -12.7137  -15.8065 C   0  0  0  0  0  0  0  0  0  0  0  0
   23.1472  -14.3532  -15.2706 S   0  0  0  0  0  0  0  0  0  0  0  0
   23.0743  -10.3484  -15.8385 C   0  0  0  0  0  0  0  0  0  0  0  0
   23.8995   -9.9014  -14.9998 O   0  0  0  0  0  0  0  0  0  0  0  0
   22.6738   -9.4756  -16.8865 N   0  0  0  0  0  0  0  0  0  0  0  0
   23.0976   -8.1053  -16.9831 C   0  0  0  0  0  0  0  0  0  0  0  0
   22.0183   -7.2503  -16.3746 C   0  0  0  0  0  0  0  0  0  0  0  0
   20.8330   -7.3119  -16.7699 O   0  0  0  0  0  0  0  0  0  0  0  0
   22.0978   -6.0957  -12.6161 O   0  0  0  0  0  0  0  0  0  0  0  0
   20.9337   -6.0104  -13.4042 C   0  0  0  0  0  0  0  0  0  0  0  0
   21.3078   -5.4333  -14.7733 C   0  0  2  0  0  0  0  0  0  0  0  0
   22.3040   -6.3347  -15.3216 N   0  0  0  0  0  0  0  0  0  0  0  0
   21.8228   -4.0810  -14.5634 C   0  0  0  0  0  0  0  0  0  0  0  0
   23.0218   -3.8172  -14.8053 O   0  0  0  0  0  0  0  0  0  0  0  0
   21.0094   -3.0650  -14.0966 O   0  0  0  0  0  0  0  0  0  0  0  0
  2  1  1  6
  2  3  1  0
  3  4  1  0
  5  6  2  0
  5  2  1  0
  7  5  1  0
  8  9  1  0
  8  7  1  0
  9 10  2  0
 11 12  1  0
 13 12  1  1
 14  9  1  0
 14 13  1  0
 15 13  1  0
 15 17  1  0
 16 15  2  0
M  END
$$$$
