CGS.pdb
     RDKit          3D

 17 16  0  0  1  0  0  0  0  0999 V2000
   25.2089  -20.5070   -7.0987 N   0  0  0  0  0  0  0  0  0  0  0  0
   26.1095  -20.0017   -8.0949 C   0  0  1  0  0  0  0  0  0  0  0  0
   27.5634  -20.1194   -7.6517 C   0  0  0  0  0  0  0  0  0  0  0  0
   27.8615  -18.9372   -6.3095 S   0  0  0  0  0  0  0  0  0  0  0  0
   25.9589  -20.7648   -9.3850 C   0  0  0  0  0  0  0  0  0  0  0  0
   25.7241  -22.0013   -9.4001 O   0  0  0  0  0  0  0  0  0  0  0  0
   26.0777  -20.1095  -10.6407 N   0  0  0  0  0  0  0  0  0  0  0  0
   25.8752  -20.7690  -11.9019 C   0  0  0  0  0  0  0  0  0  0  0  0
   24.5153  -20.3719  -12.4109 C   0  0  0  0  0  0  0  0  0  0  0  0
   23.6496  -19.8815  -11.6525 O   0  0  0  0  0  0  0  0  0  0  0  0
   24.0682  -19.1701  -16.1502 O   0  0  0  0  0  0  0  0  0  0  0  0
   23.0476  -20.0876  -15.8341 C   0  0  0  0  0  0  0  0  0  0  0  0
   22.8740  -20.1253  -14.3123 C   0  0  2  0  0  0  0  0  0  0  0  0
   24.1587  -20.5391  -13.7796 N   0  0  0  0  0  0  0  0  0  0  0  0
   21.8031  -21.0730  -14.0073 C   0  0  0  0  0  0  0  0  0  0  0  0
   22.0426  -22.2998  -13.9506 O   0  0  0  0  0  0  0  0  0  0  0  0
   20.5085  -20.6466  -13.7752 O   0  0  0  0  0  0  0  0  0  0  0  0
  2  1  1  1
  2  3  1  0
  3  4  1  0
  5  6  2  0
  5  2  1  0
  7  5  1  0
  8  9  1  0
  8  7  1  0
  9 10  2  0
 11 12  1  0
 13 12  1  6
 14  9  1  0
 14 13  1  0
 15 13  1  0
 15 17  1  0
 16 15  2  0
M  END
$$$$
