CGS.pdb
     RDKit          3D

 17 16  0  0  1  0  0  0  0  0999 V2000
   15.9851  -12.2023  -16.3026 N   0  0  0  0  0  0  0  0  0  0  0  0
   16.3923  -10.8264  -16.3021 C   0  0  1  0  0  0  0  0  0  0  0  0
   15.2987   -9.9155  -15.7559 C   0  0  0  0  0  0  0  0  0  0  0  0
   13.7067  -10.4326  -16.4529 S   0  0  0  0  0  0  0  0  0  0  0  0
   17.6192  -10.6345  -15.4493 C   0  0  0  0  0  0  0  0  0  0  0  0
   18.0768  -11.5595  -14.7289 O   0  0  0  0  0  0  0  0  0  0  0  0
   18.3084   -9.3916  -15.4285 N   0  0  0  0  0  0  0  0  0  0  0  0
   19.6037   -9.2128  -14.8309 C   0  0  0  0  0  0  0  0  0  0  0  0
   19.9848   -7.7656  -14.9935 C   0  0  0  0  0  0  0  0  0  0  0  0
   19.4586   -7.0440  -15.8696 O   0  0  0  0  0  0  0  0  0  0  0  0
   22.5083   -4.1069  -12.9736 O   0  0  0  0  0  0  0  0  0  0  0  0
   22.2648   -5.4909  -13.0666 C   0  0  0  0  0  0  0  0  0  0  0  0
   21.2608   -5.7388  -14.1970 C   0  0  2  0  0  0  0  0  0  0  0  0
   20.9621   -7.1581  -14.1542 N   0  0  0  0  0  0  0  0  0  0  0  0
   21.8902   -5.3306  -15.4521 C   0  0  0  0  0  0  0  0  0  0  0  0
   22.6885   -6.0965  -16.0366 O   0  0  0  0  0  0  0  0  0  0  0  0
   21.6251   -4.0999  -16.0238 O   0  0  0  0  0  0  0  0  0  0  0  0
  2  1  1  1
  2  3  1  0
  3  4  1  0
  5  6  2  0
  5  2  1  0
  7  5  1  0
  8  9  1  0
  8  7  1  0
  9 10  2  0
 11 12  1  0
 13 12  1  1
 14  9  1  0
 14 13  1  0
 15 13  1  0
 15 17  1  0
 16 15  2  0
M  END
$$$$
