CGS.pdb
     RDKit          3D

 17 16  0  0  1  0  0  0  0  0999 V2000
   19.4886  -12.3456  -19.0633 N   0  0  0  0  0  0  0  0  0  0  0  0
   19.7670  -12.0018  -17.6983 C   0  0  1  0  0  0  0  0  0  0  0  0
   20.2227  -13.2139  -16.8937 C   0  0  0  0  0  0  0  0  0  0  0  0
   18.7633  -14.1755  -16.4107 S   0  0  0  0  0  0  0  0  0  0  0  0
   20.8558  -10.9635  -17.6222 C   0  0  0  0  0  0  0  0  0  0  0  0
   21.9351  -11.0872  -18.2579 O   0  0  0  0  0  0  0  0  0  0  0  0
   20.7010   -9.7983  -16.8231 N   0  0  0  0  0  0  0  0  0  0  0  0
   21.6519   -8.7204  -16.7997 C   0  0  0  0  0  0  0  0  0  0  0  0
   21.1291   -7.6718  -15.8546 C   0  0  0  0  0  0  0  0  0  0  0  0
   19.9192   -7.6173  -15.5409 O   0  0  0  0  0  0  0  0  0  0  0  0
   21.5926   -7.1994  -12.5901 O   0  0  0  0  0  0  0  0  0  0  0  0
   22.0941   -5.9555  -13.0200 C   0  0  0  0  0  0  0  0  0  0  0  0
   21.5143   -5.6430  -14.4033 C   0  0  2  0  0  0  0  0  0  0  0  0
   21.9930   -6.6971  -15.2781 N   0  0  0  0  0  0  0  0  0  0  0  0
   21.9910   -4.3187  -14.7997 C   0  0  0  0  0  0  0  0  0  0  0  0
   21.5545   -3.2938  -14.2300 O   0  0  0  0  0  0  0  0  0  0  0  0
   22.9276   -4.1615  -15.8045 O   0  0  0  0  0  0  0  0  0  0  0  0
  2  1  1  6
  2  3  1  0
  3  4  1  0
  5  6  2  0
  5  2  1  0
  7  5  1  0
  8  9  1  0
  8  7  1  0
  9 10  2  0
 11 12  1  0
 13 12  1  1
 14  9  1  0
 14 13  1  0
 15 13  1  0
 15 17  1  0
 16 15  2  0
M  END
$$$$
