CGS.pdb
     RDKit          3D

 17 16  0  0  1  0  0  0  0  0999 V2000
   23.9297   -9.8739  -17.9836 N   0  0  0  0  0  0  0  0  0  0  0  0
   22.9923  -10.7684  -17.3672 C   0  0  1  0  0  0  0  0  0  0  0  0
   23.3584  -11.0551  -15.9153 C   0  0  0  0  0  0  0  0  0  0  0  0
   25.1299  -11.4310  -15.8237 S   0  0  0  0  0  0  0  0  0  0  0  0
   21.6053  -10.1809  -17.3842 C   0  0  0  0  0  0  0  0  0  0  0  0
   20.6084  -10.8229  -16.9620 O   0  0  0  0  0  0  0  0  0  0  0  0
   21.3721   -8.8700  -17.8819 N   0  0  0  0  0  0  0  0  0  0  0  0
   20.0744   -8.2523  -17.9123 C   0  0  0  0  0  0  0  0  0  0  0  0
   19.9651   -7.3617  -16.7036 C   0  0  0  0  0  0  0  0  0  0  0  0
   18.9951   -6.5875  -16.5460 O   0  0  0  0  0  0  0  0  0  0  0  0
   20.2164   -8.4812  -13.1955 O   0  0  0  0  0  0  0  0  0  0  0  0
   21.2276   -7.5099  -13.3286 C   0  0  0  0  0  0  0  0  0  0  0  0
   20.8573   -6.5690  -14.4797 C   0  0  2  0  0  0  0  0  0  0  0  0
   20.9641   -7.3646  -15.6884 N   0  0  0  0  0  0  0  0  0  0  0  0
   21.7925   -5.4452  -14.4575 C   0  0  0  0  0  0  0  0  0  0  0  0
   22.5358   -5.2227  -15.4391 O   0  0  0  0  0  0  0  0  0  0  0  0
   21.8822   -4.6044  -13.3636 O   0  0  0  0  0  0  0  0  0  0  0  0
  2  1  1  1
  2  3  1  0
  3  4  1  0
  5  6  2  0
  5  2  1  0
  7  5  1  0
  8  9  1  0
  8  7  1  0
  9 10  2  0
 11 12  1  0
 13 12  1  1
 14  9  1  0
 14 13  1  0
 15 13  1  0
 15 17  1  0
 16 15  2  0
M  END
$$$$
