ESQ.pdb
     RDKit          3D

 25 24  0  0  1  0  0  0  0  0999 V2000
   15.3949  -12.4290  -17.6117 N   0  0  0  0  0  0  0  0  0  0  0  0
   16.6776  -12.4352  -16.9742 C   0  0  1  0  0  0  0  0  0  0  0  0
   17.4556  -13.6304  -17.4728 C   0  0  0  0  0  0  0  0  0  0  0  0
   16.6622  -14.8665  -17.0471 C   0  0  0  0  0  0  0  0  0  0  0  0
   16.8228  -15.1116  -15.5858 C   0  0  0  0  0  0  0  0  0  0  0  0
   16.1524  -14.4909  -14.7221 O   0  0  0  0  0  0  0  0  0  0  0  0
   17.3689  -11.1628  -17.2239 C   0  0  0  0  0  0  0  0  0  0  0  0
   18.5508  -10.9222  -16.8682 O   0  0  0  0  0  0  0  0  0  0  0  0
   17.7352  -16.0498  -15.1483 O   0  0  0  0  0  0  0  0  0  0  0  0
   17.2519   -6.8628  -19.4680 O   0  0  0  0  0  0  0  0  0  0  0  0
   16.4703   -7.9403  -19.0484 C   0  0  0  0  0  0  0  0  0  0  0  0
   17.3219   -8.8633  -18.2456 C   0  0  2  0  0  0  0  0  0  0  0  0
   16.7031  -10.1033  -17.9077 N   0  0  0  0  0  0  0  0  0  0  0  0
   17.8425   -8.1364  -17.0546 C   0  0  0  0  0  0  0  0  0  0  0  0
   17.2634   -8.2158  -15.9403 O   0  0  0  0  0  0  0  0  0  0  0  0
   21.5873   -9.8171  -13.7644 N   0  0  0  0  0  0  0  0  0  0  0  0
   21.5980   -8.4986  -13.2269 C   0  0  0  0  0  0  0  0  0  0  0  0
   22.1356   -8.3276  -12.1137 O   0  0  0  0  0  0  0  0  0  0  0  0
   20.9993   -7.3579  -13.9418 C   0  0  0  0  0  0  0  0  0  0  0  0
   20.2123   -7.7791  -15.1273 C   0  0  0  0  0  0  0  0  0  0  0  0
   19.5581   -6.6697  -15.9074 C   0  0  2  0  0  0  0  0  0  0  0  0
   19.0038   -7.3241  -17.1048 N   0  0  0  0  0  0  0  0  0  0  0  0
   20.6357   -5.7150  -16.3207 C   0  0  0  0  0  0  0  0  0  0  0  0
   21.0392   -5.7379  -17.5299 O   0  0  0  0  0  0  0  0  0  0  0  0
   21.2297   -4.8073  -15.4933 O   0  0  0  0  0  0  0  0  0  0  0  0
  2  3  1  0
  2  1  1  6
  4  3  1  0
  5  4  1  0
  6  5  2  0
  7  2  1  0
  8  7  2  0
  9  5  1  0
 11 10  1  0
 12 11  1  1
 12 14  1  0
 12 13  1  0
 13  7  1  0
 14 15  2  0
 16 17  1  0
 17 18  2  0
 19 17  1  0
 19 20  1  0
 21 20  1  1
 22 21  1  0
 22 14  1  0
 23 21  1  0
 24 23  2  0
 25 23  1  0
M  END
$$$$
