ESQ.pdb
     RDKit          3D

 25 24  0  0  1  0  0  0  0  0999 V2000
   14.8517  -14.6042  -12.8320 N   0  0  0  0  0  0  0  0  0  0  0  0
   14.7337  -13.3668  -13.5437 C   0  0  1  0  0  0  0  0  0  0  0  0
   13.2719  -12.9916  -13.6149 C   0  0  0  0  0  0  0  0  0  0  0  0
   12.5801  -14.1088  -14.3970 C   0  0  0  0  0  0  0  0  0  0  0  0
   11.1109  -13.8666  -14.4633 C   0  0  0  0  0  0  0  0  0  0  0  0
   10.3214  -14.6703  -15.0215 O   0  0  0  0  0  0  0  0  0  0  0  0
   15.5544  -12.3344  -12.8959 C   0  0  0  0  0  0  0  0  0  0  0  0
   15.6701  -12.2061  -11.6503 O   0  0  0  0  0  0  0  0  0  0  0  0
   10.5822  -12.7248  -13.8969 O   0  0  0  0  0  0  0  0  0  0  0  0
   19.0109   -9.0155  -13.2751 O   0  0  0  0  0  0  0  0  0  0  0  0
   18.2644   -9.9699  -13.9677 C   0  0  0  0  0  0  0  0  0  0  0  0
   17.0913  -10.3556  -13.1331 C   0  0  2  0  0  0  0  0  0  0  0  0
   16.2846  -11.3957  -13.6827 N   0  0  0  0  0  0  0  0  0  0  0  0
   16.3070   -9.1347  -12.7984 C   0  0  0  0  0  0  0  0  0  0  0  0
   15.4868   -8.6444  -13.6171 O   0  0  0  0  0  0  0  0  0  0  0  0
   15.4319   -7.1088   -6.9541 N   0  0  0  0  0  0  0  0  0  0  0  0
   14.9404   -6.0002   -7.7005 C   0  0  0  0  0  0  0  0  0  0  0  0
   14.4424   -5.0466   -7.0678 O   0  0  0  0  0  0  0  0  0  0  0  0
   15.0052   -5.9577   -9.1718 C   0  0  0  0  0  0  0  0  0  0  0  0
   15.6249   -7.1762   -9.7494 C   0  0  0  0  0  0  0  0  0  0  0  0
   15.6997   -7.2236  -11.2526 C   0  0  2  0  0  0  0  0  0  0  0  0
   16.4359   -8.4625  -11.5564 N   0  0  0  0  0  0  0  0  0  0  0  0
   16.5097   -6.0456  -11.6995 C   0  0  0  0  0  0  0  0  0  0  0  0
   15.9525   -4.8992  -11.7294 O   0  0  0  0  0  0  0  0  0  0  0  0
   17.8178   -6.1017  -12.0830 O   0  0  0  0  0  0  0  0  0  0  0  0
  2  3  1  0
  2  1  1  1
  4  3  1  0
  5  4  1  0
  6  5  2  0
  7  2  1  0
  8  7  2  0
  9  5  1  0
 11 10  1  0
 12 11  1  6
 12 14  1  0
 12 13  1  0
 13  7  1  0
 14 15  2  0
 16 17  1  0
 17 18  2  0
 19 17  1  0
 19 20  1  0
 21 20  1  1
 22 21  1  0
 22 14  1  0
 23 21  1  0
 24 23  2  0
 25 23  1  0
M  END
$$$$
