ESQ.pdb
     RDKit          3D

 25 24  0  0  1  0  0  0  0  0999 V2000
   20.5112  -12.5472  -17.2286 N   0  0  0  0  0  0  0  0  0  0  0  0
   19.6254  -11.4395  -17.0284 C   0  0  1  0  0  0  0  0  0  0  0  0
   18.2188  -11.9706  -16.8804 C   0  0  0  0  0  0  0  0  0  0  0  0
   17.8530  -12.5969  -18.2266 C   0  0  0  0  0  0  0  0  0  0  0  0
   16.4653  -13.1394  -18.1897 C   0  0  0  0  0  0  0  0  0  0  0  0
   16.2056  -14.2936  -17.7642 O   0  0  0  0  0  0  0  0  0  0  0  0
   20.0606  -10.6519  -15.8668 C   0  0  0  0  0  0  0  0  0  0  0  0
   20.1936  -11.1214  -14.7078 O   0  0  0  0  0  0  0  0  0  0  0  0
   15.4169  -12.3604  -18.6347 O   0  0  0  0  0  0  0  0  0  0  0  0
   22.3779   -8.1255  -13.1957 O   0  0  0  0  0  0  0  0  0  0  0  0
   22.0190   -9.0119  -14.2123 C   0  0  0  0  0  0  0  0  0  0  0  0
   20.8528   -8.4467  -14.9484 C   0  0  2  0  0  0  0  0  0  0  0  0
   20.3630   -9.2656  -16.0087 N   0  0  0  0  0  0  0  0  0  0  0  0
   21.1792   -7.0634  -15.3931 C   0  0  0  0  0  0  0  0  0  0  0  0
   22.0180   -6.8557  -16.3079 O   0  0  0  0  0  0  0  0  0  0  0  0
   19.1863   -2.8364  -17.3917 N   0  0  0  0  0  0  0  0  0  0  0  0
   18.1869   -3.5651  -16.6862 C   0  0  0  0  0  0  0  0  0  0  0  0
   17.1023   -3.7774  -17.2661 O   0  0  0  0  0  0  0  0  0  0  0  0
   18.4019   -4.0612  -15.3157 C   0  0  0  0  0  0  0  0  0  0  0  0
   19.7417   -3.7057  -14.7857 C   0  0  0  0  0  0  0  0  0  0  0  0
   20.8865   -4.5510  -15.2779 C   0  0  2  0  0  0  0  0  0  0  0  0
   20.5736   -5.9158  -14.8210 N   0  0  0  0  0  0  0  0  0  0  0  0
   22.1274   -4.0720  -14.5894 C   0  0  0  0  0  0  0  0  0  0  0  0
   22.5634   -2.9052  -14.8616 O   0  0  0  0  0  0  0  0  0  0  0  0
   22.8401   -4.7959  -13.6787 O   0  0  0  0  0  0  0  0  0  0  0  0
  2  3  1  0
  2  1  1  1
  4  3  1  0
  5  4  1  0
  6  5  2  0
  7  2  1  0
  8  7  2  0
  9  5  1  0
 11 10  1  0
 12 11  1  6
 12 14  1  0
 12 13  1  0
 13  7  1  0
 14 15  2  0
 16 17  1  0
 17 18  2  0
 19 17  1  0
 19 20  1  0
 21 20  1  1
 22 21  1  0
 22 14  1  0
 23 21  1  0
 24 23  2  0
 25 23  1  0
M  END
$$$$
