ESQ.pdb
     RDKit          3D

 25 24  0  0  1  0  0  0  0  0999 V2000
   16.1202  -11.3489  -16.2950 N   0  0  0  0  0  0  0  0  0  0  0  0
   17.3349  -11.7708  -15.6640 C   0  0  1  0  0  0  0  0  0  0  0  0
   17.3739  -13.2811  -15.6597 C   0  0  0  0  0  0  0  0  0  0  0  0
   16.1263  -13.7402  -14.9040 C   0  0  0  0  0  0  0  0  0  0  0  0
   16.0493  -15.2285  -14.8797 C   0  0  0  0  0  0  0  0  0  0  0  0
   15.7117  -15.9008  -15.8871 O   0  0  0  0  0  0  0  0  0  0  0  0
   18.4902  -11.1745  -16.3486 C   0  0  0  0  0  0  0  0  0  0  0  0
   19.5286  -11.8110  -16.6616 O   0  0  0  0  0  0  0  0  0  0  0  0
   16.3560  -15.9080  -13.7186 O   0  0  0  0  0  0  0  0  0  0  0  0
   18.7515   -6.9630  -16.9003 O   0  0  0  0  0  0  0  0  0  0  0  0
   19.2745   -7.7946  -17.8917 C   0  0  0  0  0  0  0  0  0  0  0  0
   19.5969   -9.1169  -17.2842 C   0  0  2  0  0  0  0  0  0  0  0  0
   18.4840   -9.7930  -16.7021 N   0  0  0  0  0  0  0  0  0  0  0  0
   20.7328   -8.9546  -16.3348 C   0  0  0  0  0  0  0  0  0  0  0  0
   20.5347   -8.6463  -15.1310 O   0  0  0  0  0  0  0  0  0  0  0  0
   27.9927  -10.5771  -15.7243 N   0  0  0  0  0  0  0  0  0  0  0  0
   26.6742  -10.5080  -16.2573 C   0  0  0  0  0  0  0  0  0  0  0  0
   26.4384  -11.1331  -17.3115 O   0  0  0  0  0  0  0  0  0  0  0  0
   25.6068   -9.7297  -15.6049 C   0  0  0  0  0  0  0  0  0  0  0  0
   24.3418   -9.7373  -16.3807 C   0  0  0  0  0  0  0  0  0  0  0  0
   23.2050   -8.9473  -15.7881 C   0  0  2  0  0  0  0  0  0  0  0  0
   22.0841   -9.1352  -16.7249 N   0  0  0  0  0  0  0  0  0  0  0  0
   23.6119   -7.5058  -15.7876 C   0  0  0  0  0  0  0  0  0  0  0  0
   23.3489   -6.7981  -16.8150 O   0  0  0  0  0  0  0  0  0  0  0  0
   24.2514   -6.8788  -14.7585 O   0  0  0  0  0  0  0  0  0  0  0  0
  2  3  1  0
  2  1  1  6
  4  3  1  0
  5  4  1  0
  6  5  2  0
  7  2  1  0
  8  7  2  0
  9  5  1  0
 11 10  1  0
 12 11  1  1
 12 14  1  0
 12 13  1  0
 13  7  1  0
 14 15  2  0
 16 17  1  0
 17 18  2  0
 19 17  1  0
 19 20  1  0
 21 20  1  6
 22 21  1  0
 22 14  1  0
 23 21  1  0
 24 23  2  0
 25 23  1  0
M  END
$$$$
