ESQ.pdb
     RDKit          3D

 25 24  0  0  1  0  0  0  0  0999 V2000
   18.1326  -13.7472  -15.1985 N   0  0  0  0  0  0  0  0  0  0  0  0
   18.0304  -12.6614  -16.1271 C   0  0  1  0  0  0  0  0  0  0  0  0
   16.5985  -12.5674  -16.5997 C   0  0  0  0  0  0  0  0  0  0  0  0
   16.3367  -13.8259  -17.4279 C   0  0  0  0  0  0  0  0  0  0  0  0
   14.9437  -13.8212  -17.9579 C   0  0  0  0  0  0  0  0  0  0  0  0
   14.6878  -13.6338  -19.1745 O   0  0  0  0  0  0  0  0  0  0  0  0
   18.5052  -11.4194  -15.5019 C   0  0  0  0  0  0  0  0  0  0  0  0
   18.0445  -10.9500  -14.4300 O   0  0  0  0  0  0  0  0  0  0  0  0
   13.8860  -14.0285  -17.0963 O   0  0  0  0  0  0  0  0  0  0  0  0
   21.9173   -8.1782  -14.8859 O   0  0  0  0  0  0  0  0  0  0  0  0
   21.5532   -9.3626  -15.5282 C   0  0  0  0  0  0  0  0  0  0  0  0
   20.0656   -9.4459  -15.5681 C   0  0  2  0  0  0  0  0  0  0  0  0
   19.5507  -10.6619  -16.1074 N   0  0  0  0  0  0  0  0  0  0  0  0
   19.5267   -8.2385  -16.2533 C   0  0  0  0  0  0  0  0  0  0  0  0
   19.4619   -8.1781  -17.5086 O   0  0  0  0  0  0  0  0  0  0  0  0
   15.1745   -6.0947  -13.9456 N   0  0  0  0  0  0  0  0  0  0  0  0
   15.0653   -6.4417  -15.3223 C   0  0  0  0  0  0  0  0  0  0  0  0
   13.9968   -6.9568  -15.7103 O   0  0  0  0  0  0  0  0  0  0  0  0
   16.1642   -6.2115  -16.2762 C   0  0  0  0  0  0  0  0  0  0  0  0
   17.3182   -5.5135  -15.6570 C   0  0  0  0  0  0  0  0  0  0  0  0
   18.6712   -5.8556  -16.2226 C   0  0  2  0  0  0  0  0  0  0  0  0
   19.0616   -7.1026  -15.5430 N   0  0  0  0  0  0  0  0  0  0  0  0
   19.6137   -4.7612  -15.8261 C   0  0  0  0  0  0  0  0  0  0  0  0
   20.5018   -5.0109  -14.9461 O   0  0  0  0  0  0  0  0  0  0  0  0
   19.5983   -3.4975  -16.3402 O   0  0  0  0  0  0  0  0  0  0  0  0
  2  3  1  0
  2  1  1  1
  4  3  1  0
  5  4  1  0
  6  5  2  0
  7  2  1  0
  8  7  2  0
  9  5  1  0
 11 10  1  0
 12 11  1  6
 12 14  1  0
 12 13  1  0
 13  7  1  0
 14 15  2  0
 16 17  1  0
 17 18  2  0
 19 17  1  0
 19 20  1  0
 21 20  1  1
 22 21  1  0
 22 14  1  0
 23 21  1  0
 24 23  2  0
 25 23  1  0
M  END
$$$$
