ESQ.pdb
     RDKit          3D

 25 24  0  0  1  0  0  0  0  0999 V2000
   17.1631  -11.0507  -16.7478 N   0  0  0  0  0  0  0  0  0  0  0  0
   18.5724  -10.8908  -16.5480 C   0  0  1  0  0  0  0  0  0  0  0  0
   19.2609  -10.9849  -17.8896 C   0  0  0  0  0  0  0  0  0  0  0  0
   19.0485  -12.4172  -18.3811 C   0  0  0  0  0  0  0  0  0  0  0  0
   19.6703  -12.6061  -19.7224 C   0  0  0  0  0  0  0  0  0  0  0  0
   20.5816  -13.4472  -19.9288 O   0  0  0  0  0  0  0  0  0  0  0  0
   18.8413   -9.6211  -15.8591 C   0  0  0  0  0  0  0  0  0  0  0  0
   18.0033   -8.6903  -15.7461 O   0  0  0  0  0  0  0  0  0  0  0  0
   19.2421  -11.8386  -20.7863 O   0  0  0  0  0  0  0  0  0  0  0  0
   21.6577   -7.0263  -12.9588 O   0  0  0  0  0  0  0  0  0  0  0  0
   21.5312   -8.2600  -13.5992 C   0  0  0  0  0  0  0  0  0  0  0  0
   20.4855   -8.1444  -14.6550 C   0  0  2  0  0  0  0  0  0  0  0  0
   20.1149   -9.3794  -15.2650 N   0  0  0  0  0  0  0  0  0  0  0  0
   20.9038   -7.1152  -15.6468 C   0  0  0  0  0  0  0  0  0  0  0  0
   21.6192   -7.4192  -16.6363 O   0  0  0  0  0  0  0  0  0  0  0  0
   17.2102   -3.8767  -18.6164 N   0  0  0  0  0  0  0  0  0  0  0  0
   18.3664   -3.1035  -18.9212 C   0  0  0  0  0  0  0  0  0  0  0  0
   18.2542   -2.1990  -19.7738 O   0  0  0  0  0  0  0  0  0  0  0  0
   19.6637   -3.3451  -18.2661 C   0  0  0  0  0  0  0  0  0  0  0  0
   19.6052   -4.4519  -17.2792 C   0  0  0  0  0  0  0  0  0  0  0  0
   20.8902   -4.7513  -16.5537 C   0  0  2  0  0  0  0  0  0  0  0  0
   20.5267   -5.7527  -15.5366 N   0  0  0  0  0  0  0  0  0  0  0  0
   21.3257   -3.4907  -15.8720 C   0  0  0  0  0  0  0  0  0  0  0  0
   22.0390   -2.6600  -16.5252 O   0  0  0  0  0  0  0  0  0  0  0  0
   21.0146   -3.1541  -14.5870 O   0  0  0  0  0  0  0  0  0  0  0  0
  2  3  1  0
  2  1  1  6
  4  3  1  0
  5  4  1  0
  6  5  2  0
  7  2  1  0
  8  7  2  0
  9  5  1  0
 11 10  1  0
 12 11  1  1
 12 14  1  0
 12 13  1  0
 13  7  1  0
 14 15  2  0
 16 17  1  0
 17 18  2  0
 19 17  1  0
 19 20  1  0
 21 20  1  6
 22 21  1  0
 22 14  1  0
 23 21  1  0
 24 23  2  0
 25 23  1  0
M  END
$$$$
