ESQ.pdb
     RDKit          3D

 25 24  0  0  1  0  0  0  0  0999 V2000
   17.5087  -10.6891  -15.5544 N   0  0  0  0  0  0  0  0  0  0  0  0
   16.5935  -10.9579  -14.4858 C   0  0  1  0  0  0  0  0  0  0  0  0
   16.6132  -12.4411  -14.1987 C   0  0  0  0  0  0  0  0  0  0  0  0
   16.6365  -13.1407  -15.5583 C   0  0  0  0  0  0  0  0  0  0  0  0
   16.8187  -14.6099  -15.3858 C   0  0  0  0  0  0  0  0  0  0  0  0
   17.8456  -15.2122  -15.7901 O   0  0  0  0  0  0  0  0  0  0  0  0
   16.9411  -10.1470  -13.3108 C   0  0  0  0  0  0  0  0  0  0  0  0
   16.4383  -10.3095  -12.1696 O   0  0  0  0  0  0  0  0  0  0  0  0
   15.8350  -15.3501  -14.7625 O   0  0  0  0  0  0  0  0  0  0  0  0
   18.9135   -6.5063  -13.7957 O   0  0  0  0  0  0  0  0  0  0  0  0
   19.3067   -7.2283  -12.6678 C   0  0  0  0  0  0  0  0  0  0  0  0
   18.2454   -8.2237  -12.3447 C   0  0  2  0  0  0  0  0  0  0  0  0
   17.9020   -9.0988  -13.4174 N   0  0  0  0  0  0  0  0  0  0  0  0
   17.0644   -7.5132  -11.7806 C   0  0  0  0  0  0  0  0  0  0  0  0
   15.9906   -7.4203  -12.4301 O   0  0  0  0  0  0  0  0  0  0  0  0
   13.3861   -9.2289   -8.2632 N   0  0  0  0  0  0  0  0  0  0  0  0
   13.0238   -7.8627   -8.0908 C   0  0  0  0  0  0  0  0  0  0  0  0
   11.9996   -7.6113   -7.4234 O   0  0  0  0  0  0  0  0  0  0  0  0
   13.8150   -6.7645   -8.6727 C   0  0  0  0  0  0  0  0  0  0  0  0
   15.0310   -7.2481   -9.3725 C   0  0  0  0  0  0  0  0  0  0  0  0
   15.9181   -6.1814   -9.9577 C   0  0  2  0  0  0  0  0  0  0  0  0
   17.0794   -6.9086  -10.4980 N   0  0  0  0  0  0  0  0  0  0  0  0
   16.3665   -5.3020   -8.8312 C   0  0  0  0  0  0  0  0  0  0  0  0
   17.4850   -5.5509   -8.2720 O   0  0  0  0  0  0  0  0  0  0  0  0
   15.6627   -4.2380   -8.3476 O   0  0  0  0  0  0  0  0  0  0  0  0
  2  3  1  0
  2  1  1  6
  4  3  1  0
  5  4  1  0
  6  5  2  0
  7  2  1  0
  8  7  2  0
  9  5  1  0
 11 10  1  0
 12 11  1  6
 12 14  1  0
 12 13  1  0
 13  7  1  0
 14 15  2  0
 16 17  1  0
 17 18  2  0
 19 17  1  0
 19 20  1  0
 21 20  1  1
 22 21  1  0
 22 14  1  0
 23 21  1  0
 24 23  2  0
 25 23  1  0
M  END
$$$$
