ESQ.pdb
     RDKit          3D

 25 24  0  0  1  0  0  0  0  0999 V2000
   19.0169  -11.7918  -16.7803 N   0  0  0  0  0  0  0  0  0  0  0  0
   17.8697  -10.9385  -16.8668 C   0  0  1  0  0  0  0  0  0  0  0  0
   17.0818  -11.0623  -15.5837 C   0  0  0  0  0  0  0  0  0  0  0  0
   16.5737  -12.5037  -15.5298 C   0  0  0  0  0  0  0  0  0  0  0  0
   15.6008  -12.6725  -14.4135 C   0  0  0  0  0  0  0  0  0  0  0  0
   14.3572  -12.6624  -14.5980 O   0  0  0  0  0  0  0  0  0  0  0  0
   18.2901   -9.5582  -17.1445 C   0  0  0  0  0  0  0  0  0  0  0  0
   19.4879   -9.1755  -17.1538 O   0  0  0  0  0  0  0  0  0  0  0  0
   16.0647  -12.8471  -13.1257 O   0  0  0  0  0  0  0  0  0  0  0  0
   15.6320   -7.0766  -18.9301 O   0  0  0  0  0  0  0  0  0  0  0  0
   16.4791   -6.3438  -18.0974 C   0  0  0  0  0  0  0  0  0  0  0  0
   17.6449   -7.1977  -17.7324 C   0  0  2  0  0  0  0  0  0  0  0  0
   17.3194   -8.5524  -17.4267 N   0  0  0  0  0  0  0  0  0  0  0  0
   18.4173   -6.5322  -16.6469 C   0  0  0  0  0  0  0  0  0  0  0  0
   18.3763   -6.9596  -15.4641 O   0  0  0  0  0  0  0  0  0  0  0  0
   21.1175   -6.6199  -13.1319 N   0  0  0  0  0  0  0  0  0  0  0  0
   22.1150   -5.6554  -13.4519 C   0  0  0  0  0  0  0  0  0  0  0  0
   22.7864   -5.1785  -12.5140 O   0  0  0  0  0  0  0  0  0  0  0  0
   22.3642   -5.2179  -14.8365 C   0  0  0  0  0  0  0  0  0  0  0  0
   21.3024   -5.6622  -15.7732 C   0  0  0  0  0  0  0  0  0  0  0  0
   20.0692   -4.7994  -15.8226 C   0  0  2  0  0  0  0  0  0  0  0  0
   19.2322   -5.3949  -16.8781 N   0  0  0  0  0  0  0  0  0  0  0  0
   20.4970   -3.4280  -16.2465 C   0  0  0  0  0  0  0  0  0  0  0  0
   20.5797   -3.1736  -17.4931 O   0  0  0  0  0  0  0  0  0  0  0  0
   20.8100   -2.4121  -15.3913 O   0  0  0  0  0  0  0  0  0  0  0  0
  2  3  1  0
  2  1  1  1
  4  3  1  0
  5  4  1  0
  6  5  2  0
  7  2  1  0
  8  7  2  0
  9  5  1  0
 11 10  1  0
 12 11  1  1
 12 14  1  0
 12 13  1  0
 13  7  1  0
 14 15  2  0
 16 17  1  0
 17 18  2  0
 19 17  1  0
 19 20  1  0
 21 20  1  6
 22 21  1  0
 22 14  1  0
 23 21  1  0
 24 23  2  0
 25 23  1  0
M  END
$$$$
