LEV.pdb
     RDKit          3D

 25 24  0  0  1  0  0  0  0  0999 V2000
   28.1720  -20.3147  -16.1486 C   0  0  0  0  0  0  0  0  0  0  0  0
   27.5973  -19.1261  -15.5074 C   0  0  2  0  0  0  0  0  0  0  0  0
   27.7820  -17.8836  -16.3514 C   0  0  0  0  0  0  0  0  0  0  0  0
   28.0920  -18.8024  -14.1146 C   0  0  0  0  0  0  0  0  0  0  0  0
   27.9914  -19.9656  -13.1687 C   0  0  2  0  0  0  0  0  0  0  0  0
   27.3676  -21.0932  -13.8084 N   0  0  0  0  0  0  0  0  0  0  0  0
   27.2005  -19.5821  -11.9674 C   0  0  0  0  0  0  0  0  0  0  0  0
   27.2041  -18.4089  -11.4729 O   0  0  0  0  0  0  0  0  0  0  0  0
   26.3747  -20.5195  -11.2831 N   0  0  0  0  0  0  0  0  0  0  0  0
   25.5767  -20.4620  -10.1678 C   0  0  1  0  0  0  0  0  0  0  0  0
   24.3260  -21.2570  -10.0233 C   0  0  0  0  0  0  0  0  0  0  0  0
   23.3219  -20.9555   -8.9786 C   0  0  0  0  0  0  0  0  0  0  0  0
   22.2390  -20.1570   -9.6914 C   0  0  0  0  0  0  0  0  0  0  0  0
   21.9275  -20.3983  -10.8622 O   0  0  0  0  0  0  0  0  0  0  0  0
   26.3460  -20.6888   -8.9043 C   0  0  0  0  0  0  0  0  0  0  0  0
   27.0815  -21.7391   -8.9122 O   0  0  0  0  0  0  0  0  0  0  0  0
   21.6223  -19.1644   -8.9818 O   0  0  0  0  0  0  0  0  0  0  0  0
   28.7647  -18.3288   -6.8761 C   0  0  0  0  0  0  0  0  0  0  0  0
   27.7464  -19.0095   -5.9732 C   0  0  2  0  0  0  0  0  0  0  0  0
   28.5442  -19.4381   -4.7514 C   0  0  0  0  0  0  0  0  0  0  0  0
   27.2103  -20.2820   -6.6233 C   0  0  2  0  0  0  0  0  0  0  0  0
   26.3633  -19.9168   -7.7618 N   0  0  0  0  0  0  0  0  0  0  0  0
   26.4663  -21.1006   -5.6927 C   0  0  0  0  0  0  0  0  0  0  0  0
   27.1135  -21.7777   -4.6476 O   0  0  0  0  0  0  0  0  0  0  0  0
   25.2095  -21.2131   -5.8118 O   0  0  0  0  0  0  0  0  0  0  0  0
  2  1  1  6
  2  3  1  0
  4  5  1  0
  4  2  1  0
  5  7  1  0
  5  6  1  6
  7  8  2  0
  9  7  1  0
  9 10  1  0
 11 12  1  0
 10 11  1  6
 12 13  1  0
 13 17  1  0
 13 14  2  0
 15 10  1  0
 15 16  2  0
 19 18  1  6
 19 21  1  0
 20 19  1  0
 21 22  1  6
 21 23  1  0
 22 15  1  0
 23 25  2  0
 23 24  1  0
M  END
$$$$
