LEV.pdb
     RDKit          3D

 25 24  0  0  1  0  0  0  0  0999 V2000
   25.5828  -11.5653  -14.6832 C   0  0  0  0  0  0  0  0  0  0  0  0
   25.8710  -11.0803  -16.0381 C   0  0  2  0  0  0  0  0  0  0  0  0
   27.1994  -10.3588  -16.1095 C   0  0  0  0  0  0  0  0  0  0  0  0
   24.8335  -10.1776  -16.6690 C   0  0  0  0  0  0  0  0  0  0  0  0
   23.4597  -10.7858  -16.6925 C   0  0  2  0  0  0  0  0  0  0  0  0
   23.4313  -11.9541  -17.5315 N   0  0  0  0  0  0  0  0  0  0  0  0
   22.4692   -9.7949  -17.1954 C   0  0  0  0  0  0  0  0  0  0  0  0
   22.4117   -9.4184  -18.4103 O   0  0  0  0  0  0  0  0  0  0  0  0
   21.5058   -9.1951  -16.3348 N   0  0  0  0  0  0  0  0  0  0  0  0
   20.4670   -8.3172  -16.5197 C   0  0  1  0  0  0  0  0  0  0  0  0
   19.0413   -8.6913  -16.3092 C   0  0  0  0  0  0  0  0  0  0  0  0
   18.1986   -8.0263  -15.2903 C   0  0  0  0  0  0  0  0  0  0  0  0
   16.8268   -8.6720  -15.4307 C   0  0  0  0  0  0  0  0  0  0  0  0
   16.6612   -9.6881  -16.1136 O   0  0  0  0  0  0  0  0  0  0  0  0
   20.6622   -7.0371  -15.7691 C   0  0  0  0  0  0  0  0  0  0  0  0
   21.0321   -7.1876  -14.5507 O   0  0  0  0  0  0  0  0  0  0  0  0
   15.7862   -8.0838  -14.7673 O   0  0  0  0  0  0  0  0  0  0  0  0
   23.1776   -4.4501  -16.1071 C   0  0  0  0  0  0  0  0  0  0  0  0
   21.8444   -3.7222  -16.0161 C   0  0  2  0  0  0  0  0  0  0  0  0
   22.1074   -2.5579  -15.0737 C   0  0  0  0  0  0  0  0  0  0  0  0
   20.7899   -4.6030  -15.3515 C   0  0  2  0  0  0  0  0  0  0  0  0
   20.5024   -5.7450  -16.2235 N   0  0  0  0  0  0  0  0  0  0  0  0
   19.5728   -3.8780  -15.0645 C   0  0  0  0  0  0  0  0  0  0  0  0
   19.4004   -3.2094  -13.8427 O   0  0  0  0  0  0  0  0  0  0  0  0
   18.6418   -3.8369  -15.9237 O   0  0  0  0  0  0  0  0  0  0  0  0
  2  1  1  1
  2  3  1  0
  4  5  1  0
  4  2  1  0
  5  7  1  0
  5  6  1  6
  7  8  2  0
  9  7  1  0
  9 10  1  0
 11 12  1  0
 10 11  1  1
 12 13  1  0
 13 17  1  0
 13 14  2  0
 15 10  1  0
 15 16  2  0
 19 18  1  1
 19 21  1  0
 20 19  1  0
 21 22  1  6
 21 23  1  0
 22 15  1  0
 23 25  2  0
 23 24  1  0
M  END
$$$$
