LEV.pdb
     RDKit          3D

 25 24  0  0  1  0  0  0  0  0999 V2000
   19.5804  -16.1723  -18.1292 C   0  0  0  0  0  0  0  0  0  0  0  0
   19.7841  -15.3017  -19.2931 C   0  0  2  0  0  0  0  0  0  0  0  0
   20.6422  -15.9626  -20.3500 C   0  0  0  0  0  0  0  0  0  0  0  0
   20.3758  -13.9359  -19.0215 C   0  0  0  0  0  0  0  0  0  0  0  0
   19.6073  -13.1550  -17.9933 C   0  0  2  0  0  0  0  0  0  0  0  0
   18.2453  -12.9581  -18.4126 N   0  0  0  0  0  0  0  0  0  0  0  0
   20.2495  -11.8308  -17.7703 C   0  0  0  0  0  0  0  0  0  0  0  0
   21.5099  -11.6692  -17.6905 O   0  0  0  0  0  0  0  0  0  0  0  0
   19.4816  -10.6394  -17.6301 N   0  0  0  0  0  0  0  0  0  0  0  0
   19.7883   -9.3059  -17.5218 C   0  0  1  0  0  0  0  0  0  0  0  0
   18.8092   -8.2221  -17.8110 C   0  0  0  0  0  0  0  0  0  0  0  0
   18.1345   -8.1049  -19.1231 C   0  0  0  0  0  0  0  0  0  0  0  0
   17.0672   -7.0374  -18.9237 C   0  0  0  0  0  0  0  0  0  0  0  0
   17.3534   -5.8357  -18.9148 O   0  0  0  0  0  0  0  0  0  0  0  0
   20.3854   -8.9646  -16.1925 C   0  0  0  0  0  0  0  0  0  0  0  0
   19.6885   -9.3430  -15.1850 O   0  0  0  0  0  0  0  0  0  0  0  0
   15.7784   -7.4625  -18.7584 O   0  0  0  0  0  0  0  0  0  0  0  0
   24.3487   -8.6220  -15.3825 C   0  0  0  0  0  0  0  0  0  0  0  0
   23.2980   -8.9545  -14.3331 C   0  0  2  0  0  0  0  0  0  0  0  0
   22.9308  -10.4050  -14.6052 C   0  0  0  0  0  0  0  0  0  0  0  0
   22.0340   -8.1272  -14.5505 C   0  0  2  0  0  0  0  0  0  0  0  0
   21.5718   -8.3134  -15.9285 N   0  0  0  0  0  0  0  0  0  0  0  0
   22.2461   -6.7227  -14.2828 C   0  0  0  0  0  0  0  0  0  0  0  0
   22.4643   -6.2604  -12.9758 O   0  0  0  0  0  0  0  0  0  0  0  0
   22.2398   -5.8876  -15.2364 O   0  0  0  0  0  0  0  0  0  0  0  0
  2  1  1  1
  2  3  1  0
  4  5  1  0
  4  2  1  0
  5  7  1  0
  5  6  1  6
  7  8  2  0
  9  7  1  0
  9 10  1  0
 11 12  1  0
 10 11  1  1
 12 13  1  0
 13 17  1  0
 13 14  2  0
 15 10  1  0
 15 16  2  0
 19 18  1  6
 19 21  1  0
 20 19  1  0
 21 22  1  6
 21 23  1  0
 22 15  1  0
 23 25  2  0
 23 24  1  0
M  END
$$$$
