LEV.pdb
     RDKit          3D

 25 24  0  0  1  0  0  0  0  0999 V2000
   18.9803  -12.0449    4.3555 C   0  0  0  0  0  0  0  0  0  0  0  0
   19.3875  -11.7500    5.7344 C   0  0  2  0  0  0  0  0  0  0  0  0
   20.8356  -11.3182    5.8160 C   0  0  0  0  0  0  0  0  0  0  0  0
   19.1886  -12.8541    6.7498 C   0  0  0  0  0  0  0  0  0  0  0  0
   17.7894  -13.4017    6.7578 C   0  0  2  0  0  0  0  0  0  0  0  0
   16.8665  -12.4405    7.3000 N   0  0  0  0  0  0  0  0  0  0  0  0
   17.7322  -14.6495    7.5675 C   0  0  0  0  0  0  0  0  0  0  0  0
   17.8002  -14.6620    8.8388 O   0  0  0  0  0  0  0  0  0  0  0  0
   17.5948  -15.9309    6.9610 N   0  0  0  0  0  0  0  0  0  0  0  0
   17.6545  -17.2228    7.4210 C   0  0  1  0  0  0  0  0  0  0  0  0
   16.9463  -18.3531    6.7593 C   0  0  0  0  0  0  0  0  0  0  0  0
   16.9737  -19.7260    7.3113 C   0  0  0  0  0  0  0  0  0  0  0  0
   16.0818  -20.5413    6.3849 C   0  0  0  0  0  0  0  0  0  0  0  0
   15.5538  -20.0341    5.3899 O   0  0  0  0  0  0  0  0  0  0  0  0
   19.0614  -17.6918    7.6220 C   0  0  0  0  0  0  0  0  0  0  0  0
   19.9295  -17.0932    6.8926 O   0  0  0  0  0  0  0  0  0  0  0  0
   15.8918  -21.8588    6.6968 O   0  0  0  0  0  0  0  0  0  0  0  0
   23.1209  -17.7302    9.2267 C   0  0  0  0  0  0  0  0  0  0  0  0
   21.6113  -17.5742    9.1146 C   0  0  2  0  0  0  0  0  0  0  0  0
   21.1461  -17.3173   10.5395 C   0  0  0  0  0  0  0  0  0  0  0  0
   20.9633  -18.8805    8.6638 C   0  0  2  0  0  0  0  0  0  0  0  0
   19.5254  -18.6634    8.4834 N   0  0  0  0  0  0  0  0  0  0  0  0
   21.1898  -19.9564    9.6021 C   0  0  0  0  0  0  0  0  0  0  0  0
   22.3771  -20.7040    9.5724 O   0  0  0  0  0  0  0  0  0  0  0  0
   20.3102  -20.2353   10.4711 O   0  0  0  0  0  0  0  0  0  0  0  0
  2  1  1  6
  2  3  1  0
  4  5  1  0
  4  2  1  0
  5  7  1  0
  5  6  1  1
  7  8  2  0
  9  7  1  0
  9 10  1  0
 11 12  1  0
 10 11  1  6
 12 13  1  0
 13 17  1  0
 13 14  2  0
 15 10  1  0
 15 16  2  0
 19 18  1  1
 19 21  1  0
 20 19  1  0
 21 22  1  1
 21 23  1  0
 22 15  1  0
 23 25  2  0
 23 24  1  0
M  END
$$$$
