LEV.pdb
     RDKit          3D

 25 24  0  0  1  0  0  0  0  0999 V2000
   14.9651  -17.7706  -16.9288 C   0  0  0  0  0  0  0  0  0  0  0  0
   16.3585  -17.5897  -17.3530 C   0  0  2  0  0  0  0  0  0  0  0  0
   16.8683  -18.7773  -18.1404 C   0  0  0  0  0  0  0  0  0  0  0  0
   17.3671  -17.3064  -16.2612 C   0  0  0  0  0  0  0  0  0  0  0  0
   18.7497  -17.0478  -16.7894 C   0  0  2  0  0  0  0  0  0  0  0  0
   19.6671  -18.0612  -16.3407 N   0  0  0  0  0  0  0  0  0  0  0  0
   19.2303  -15.7139  -16.3360 C   0  0  0  0  0  0  0  0  0  0  0  0
   19.5515  -15.4588  -15.1308 O   0  0  0  0  0  0  0  0  0  0  0  0
   19.3641  -14.6193  -17.2375 N   0  0  0  0  0  0  0  0  0  0  0  0
   19.8207  -13.3300  -17.1221 C   0  0  1  0  0  0  0  0  0  0  0  0
   20.7839  -12.7216  -18.0807 C   0  0  0  0  0  0  0  0  0  0  0  0
   21.2692  -11.3317  -17.9284 C   0  0  0  0  0  0  0  0  0  0  0  0
   22.2659  -11.1356  -19.0628 C   0  0  0  0  0  0  0  0  0  0  0  0
   21.9137  -10.6843  -20.1574 O   0  0  0  0  0  0  0  0  0  0  0  0
   18.7059  -12.3404  -16.9890 C   0  0  0  0  0  0  0  0  0  0  0  0
   17.8293  -12.3999  -17.9229 O   0  0  0  0  0  0  0  0  0  0  0  0
   23.5675  -11.4759  -18.8195 O   0  0  0  0  0  0  0  0  0  0  0  0
   17.1837  -10.6824  -13.5760 C   0  0  0  0  0  0  0  0  0  0  0  0
   16.4377  -10.7409  -14.9010 C   0  0  2  0  0  0  0  0  0  0  0  0
   15.9905  -12.1892  -15.0250 C   0  0  0  0  0  0  0  0  0  0  0  0
   17.3824  -10.4655  -16.0677 C   0  0  2  0  0  0  0  0  0  0  0  0
   18.5098  -11.3991  -16.0006 N   0  0  0  0  0  0  0  0  0  0  0  0
   17.8649   -9.1030  -16.0716 C   0  0  0  0  0  0  0  0  0  0  0  0
   17.0034   -8.0316  -16.3536 O   0  0  0  0  0  0  0  0  0  0  0  0
   19.0822   -8.8608  -15.8150 O   0  0  0  0  0  0  0  0  0  0  0  0
  2  1  1  1
  2  3  1  0
  4  5  1  0
  4  2  1  0
  5  7  1  0
  5  6  1  1
  7  8  2  0
  9  7  1  0
  9 10  1  0
 11 12  1  0
 10 11  1  6
 12 13  1  0
 13 17  1  0
 13 14  2  0
 15 10  1  0
 15 16  2  0
 19 18  1  1
 19 21  1  0
 20 19  1  0
 21 22  1  1
 21 23  1  0
 22 15  1  0
 23 25  2  0
 23 24  1  0
M  END
$$$$
