LEV.pdb
     RDKit          3D

 25 24  0  0  1  0  0  0  0  0999 V2000
   16.3374  -14.2887  -19.2788 C   0  0  0  0  0  0  0  0  0  0  0  0
   16.7342  -14.7517  -17.9438 C   0  0  2  0  0  0  0  0  0  0  0  0
   15.5621  -14.7896  -16.9872 C   0  0  0  0  0  0  0  0  0  0  0  0
   17.8463  -13.9836  -17.2637 C   0  0  0  0  0  0  0  0  0  0  0  0
   19.0540  -13.7979  -18.1380 C   0  0  2  0  0  0  0  0  0  0  0  0
   19.7671  -15.0374  -18.2961 N   0  0  0  0  0  0  0  0  0  0  0  0
   19.9637  -12.7794  -17.5456 C   0  0  0  0  0  0  0  0  0  0  0  0
   20.5492  -12.9316  -16.4254 O   0  0  0  0  0  0  0  0  0  0  0  0
   20.2422  -11.5486  -18.2062 N   0  0  0  0  0  0  0  0  0  0  0  0
   21.0657  -10.4823  -17.9435 C   0  0  1  0  0  0  0  0  0  0  0  0
   21.8120   -9.7528  -19.0055 C   0  0  0  0  0  0  0  0  0  0  0  0
   22.9544  -10.3636  -19.7213 C   0  0  0  0  0  0  0  0  0  0  0  0
   23.3456   -9.3440  -20.7823 C   0  0  0  0  0  0  0  0  0  0  0  0
   22.6225   -9.1227  -21.7591 O   0  0  0  0  0  0  0  0  0  0  0  0
   20.3872   -9.4251  -17.1299 C   0  0  0  0  0  0  0  0  0  0  0  0
   19.1189   -9.3536  -17.3045 O   0  0  0  0  0  0  0  0  0  0  0  0
   24.5281   -8.6803  -20.6082 O   0  0  0  0  0  0  0  0  0  0  0  0
   18.6919   -8.2731  -13.1989 C   0  0  0  0  0  0  0  0  0  0  0  0
   19.5599   -8.9247  -14.2656 C   0  0  2  0  0  0  0  0  0  0  0  0
   20.7375   -9.5058  -13.4985 C   0  0  0  0  0  0  0  0  0  0  0  0
   20.1246   -7.8762  -15.2201 C   0  0  2  0  0  0  0  0  0  0  0  0
   20.9495   -8.5442  -16.2303 N   0  0  0  0  0  0  0  0  0  0  0  0
   20.9005   -6.8698  -14.5311 C   0  0  0  0  0  0  0  0  0  0  0  0
   20.2739   -5.8220  -13.8389 O   0  0  0  0  0  0  0  0  0  0  0  0
   22.1666   -6.9269  -14.5435 O   0  0  0  0  0  0  0  0  0  0  0  0
  2  1  1  6
  2  3  1  0
  4  5  1  0
  4  2  1  0
  5  7  1  0
  5  6  1  1
  7  8  2  0
  9  7  1  0
  9 10  1  0
 11 12  1  0
 10 11  1  6
 12 13  1  0
 13 17  1  0
 13 14  2  0
 15 10  1  0
 15 16  2  0
 19 18  1  1
 19 21  1  0
 20 19  1  0
 21 22  1  6
 21 23  1  0
 22 15  1  0
 23 25  2  0
 23 24  1  0
M  END
$$$$
