LEV.pdb
     RDKit          3D

 25 24  0  0  1  0  0  0  0  0999 V2000
   27.6710  -19.4959  -17.4392 C   0  0  0  0  0  0  0  0  0  0  0  0
   27.3205  -18.0863  -17.2290 C   0  0  2  0  0  0  0  0  0  0  0  0
   28.5459  -17.1993  -17.1876 C   0  0  0  0  0  0  0  0  0  0  0  0
   26.4937  -17.7701  -16.0019 C   0  0  0  0  0  0  0  0  0  0  0  0
   25.2904  -18.6582  -15.8575 C   0  0  2  0  0  0  0  0  0  0  0  0
   24.3340  -18.3981  -16.9004 N   0  0  0  0  0  0  0  0  0  0  0  0
   24.6465  -18.4377  -14.5337 C   0  0  0  0  0  0  0  0  0  0  0  0
   24.4367  -17.2823  -14.0418 O   0  0  0  0  0  0  0  0  0  0  0  0
   24.2163  -19.5241  -13.7192 N   0  0  0  0  0  0  0  0  0  0  0  0
   23.4272  -19.6329  -12.6013 C   0  0  1  0  0  0  0  0  0  0  0  0
   22.0701  -20.2451  -12.6229 C   0  0  0  0  0  0  0  0  0  0  0  0
   21.7829  -21.4887  -13.3723 C   0  0  0  0  0  0  0  0  0  0  0  0
   20.2915  -21.7287  -13.1811 C   0  0  0  0  0  0  0  0  0  0  0  0
   19.4501  -20.9591  -13.6564 O   0  0  0  0  0  0  0  0  0  0  0  0
   24.1436  -20.2824  -11.4590 C   0  0  0  0  0  0  0  0  0  0  0  0
   24.7807  -21.3506  -11.7707 O   0  0  0  0  0  0  0  0  0  0  0  0
   19.9210  -22.8328  -12.4651 O   0  0  0  0  0  0  0  0  0  0  0  0
   26.8530  -18.9686   -9.1027 C   0  0  0  0  0  0  0  0  0  0  0  0
   25.7705  -19.6622   -8.2887 C   0  0  2  0  0  0  0  0  0  0  0  0
   26.5323  -20.4969   -7.2710 C   0  0  0  0  0  0  0  0  0  0  0  0
   24.9779  -20.6347   -9.1579 C   0  0  2  0  0  0  0  0  0  0  0  0
   24.2048  -19.8742  -10.1433 N   0  0  0  0  0  0  0  0  0  0  0  0
   24.0981  -21.4748   -8.3770 C   0  0  0  0  0  0  0  0  0  0  0  0
   24.5980  -22.5646   -7.6476 O   0  0  0  0  0  0  0  0  0  0  0  0
   22.8549  -21.2306   -8.3414 O   0  0  0  0  0  0  0  0  0  0  0  0
  2  1  1  1
  2  3  1  0
  4  5  1  0
  4  2  1  0
  5  7  1  0
  5  6  1  6
  7  8  2  0
  9  7  1  0
  9 10  1  0
 11 12  1  0
 10 11  1  6
 12 13  1  0
 13 17  1  0
 13 14  2  0
 15 10  1  0
 15 16  2  0
 19 18  1  6
 19 21  1  0
 20 19  1  0
 21 22  1  6
 21 23  1  0
 22 15  1  0
 23 25  2  0
 23 24  1  0
M  END
$$$$
