VRS.pdb
     RDKit          3D

 25 24  0  0  1  0  0  0  0  0999 V2000
   17.5259  -26.8499   -1.1496 C   0  0  0  0  0  0  0  0  0  0  0  0
   16.9192  -26.5234   -2.4971 C   0  0  1  0  0  0  0  0  0  0  0  0
   16.5975  -25.0558   -2.5207 C   0  0  0  0  0  0  0  0  0  0  0  0
   17.8727  -26.9526   -3.5664 C   0  0  2  0  0  0  0  0  0  0  0  0
   19.1590  -26.3715   -3.3324 N   0  0  0  0  0  0  0  0  0  0  0  0
   17.3211  -26.5517   -4.9099 C   0  0  0  0  0  0  0  0  0  0  0  0
   16.1387  -26.8009   -5.2294 O   0  0  0  0  0  0  0  0  0  0  0  0
   17.0261  -22.2350  -11.6041 N   0  0  0  0  0  0  0  0  0  0  0  0
   17.7225  -21.4265  -10.6874 C   0  0  0  0  0  0  0  0  0  0  0  0
   17.4465  -20.1656  -10.6039 N   0  0  0  0  0  0  0  0  0  0  0  0
   18.7270  -22.0163   -9.8615 N   0  0  0  0  0  0  0  0  0  0  0  0
   19.0163  -23.4205  -10.0547 C   0  0  0  0  0  0  0  0  0  0  0  0
   18.0501  -24.2600   -9.2465 C   0  0  0  0  0  0  0  0  0  0  0  0
   18.6516  -24.5994   -7.8987 C   0  0  0  0  0  0  0  0  0  0  0  0
   17.6388  -25.4696   -7.1529 C   0  0  2  0  0  0  0  0  0  0  0  0
   18.1186  -25.8738   -5.8717 N   0  0  0  0  0  0  0  0  0  0  0  0
   17.3478  -26.6209   -8.0510 C   0  0  0  0  0  0  0  0  0  0  0  0
   18.2980  -27.4392   -8.2225 O   0  0  0  0  0  0  0  0  0  0  0  0
   17.9767  -19.5556   -9.9298 O   0  0  0  0  0  0  0  0  0  0  0  0
   13.4895  -27.5567   -9.2754 C   0  0  0  0  0  0  0  0  0  0  0  0
   14.4512  -28.5461   -9.2348 C   0  0  1  0  0  0  0  0  0  0  0  0
   15.8524  -28.0083   -9.4143 N   0  0  0  0  0  0  0  0  0  0  0  0
   16.0911  -26.8049   -8.6828 C   0  0  0  0  0  0  0  0  0  0  0  0
   16.1408  -27.8292  -10.8638 O   0  0  0  0  0  0  0  0  0  0  0  0
   16.4559  -26.7051  -11.3342 O   0  0  0  0  0  0  0  0  0  0  0  0
  2  1  1  1
  2  4  1  0
  3  2  1  0
  4  6  1  0
  4  5  1  1
  6 16  1  0
  7  6  2  0
  9 10  2  0
  9  8  1  0
 11  9  1  0
 12 11  1  0
 13 12  1  0
 14 13  1  0
 15 17  1  0
 15 14  1  6
 16 15  1  0
 17 18  2  0
 19 20  1  0
 21 20  1  1
 22 21  1  0
 22 17  1  0
 23 25  1  0
 23 21  1  0
 24 23  2  0
M  END
$$$$
