VRS.pdb
     RDKit          3D

 25 24  0  0  1  0  0  0  0  0999 V2000
   17.7989  -21.8243  -14.6640 C   0  0  0  0  0  0  0  0  0  0  0  0
   19.1104  -22.0037  -15.3976 C   0  0  1  0  0  0  0  0  0  0  0  0
   18.8297  -21.9590  -16.8730 C   0  0  0  0  0  0  0  0  0  0  0  0
   20.0665  -20.9529  -14.9300 C   0  0  2  0  0  0  0  0  0  0  0  0
   20.5332  -20.1892  -16.0461 N   0  0  0  0  0  0  0  0  0  0  0  0
   21.2053  -21.6125  -14.1964 C   0  0  0  0  0  0  0  0  0  0  0  0
   21.0129  -22.2703  -13.1512 O   0  0  0  0  0  0  0  0  0  0  0  0
   24.8195  -26.7735  -17.3889 N   0  0  0  0  0  0  0  0  0  0  0  0
   24.9390  -25.4640  -17.8886 C   0  0  0  0  0  0  0  0  0  0  0  0
   24.6140  -25.2121  -19.1150 N   0  0  0  0  0  0  0  0  0  0  0  0
   25.4199  -24.4312  -17.0276 N   0  0  0  0  0  0  0  0  0  0  0  0
   25.6915  -24.7777  -15.6497 C   0  0  0  0  0  0  0  0  0  0  0  0
   24.6661  -24.1286  -14.7450 C   0  0  0  0  0  0  0  0  0  0  0  0
   24.7242  -22.6217  -14.8836 C   0  0  0  0  0  0  0  0  0  0  0  0
   23.6672  -22.0358  -13.9463 C   0  0  2  0  0  0  0  0  0  0  0  0
   22.5459  -21.5165  -14.6591 N   0  0  0  0  0  0  0  0  0  0  0  0
   24.3666  -21.0012  -13.1354 C   0  0  0  0  0  0  0  0  0  0  0  0
   24.1803  -19.8019  -13.4944 O   0  0  0  0  0  0  0  0  0  0  0  0
   24.6828  -24.2293  -19.4851 O   0  0  0  0  0  0  0  0  0  0  0  0
   27.4384  -21.9224  -10.2678 C   0  0  0  0  0  0  0  0  0  0  0  0
   26.7667  -20.7168  -10.2436 C   0  0  1  0  0  0  0  0  0  0  0  0
   26.1514  -20.3624  -11.5780 N   0  0  0  0  0  0  0  0  0  0  0  0
   25.1930  -21.3213  -12.0278 C   0  0  0  0  0  0  0  0  0  0  0  0
   27.2253  -20.1529  -12.5875 O   0  0  0  0  0  0  0  0  0  0  0  0
   27.4055  -20.9677  -13.5297 O   0  0  0  0  0  0  0  0  0  0  0  0
  2  1  1  1
  2  4  1  0
  3  2  1  0
  4  6  1  0
  4  5  1  6
  6 16  1  0
  7  6  2  0
  9 10  2  0
  9  8  1  0
 11  9  1  0
 12 11  1  0
 13 12  1  0
 14 13  1  0
 15 17  1  0
 15 14  1  6
 16 15  1  0
 17 18  2  0
 19 20  1  0
 21 20  1  1
 22 21  1  0
 22 17  1  0
 23 25  1  0
 23 21  1  0
 24 23  2  0
M  END
$$$$
