VRS.pdb
     RDKit          3D

 25 24  0  0  1  0  0  0  0  0999 V2000
   27.9832  -19.6438   -4.2089 C   0  0  0  0  0  0  0  0  0  0  0  0
   27.8917  -19.3123   -5.6827 C   0  0  1  0  0  0  0  0  0  0  0  0
   29.0643  -19.9454   -6.3770 C   0  0  0  0  0  0  0  0  0  0  0  0
   26.5635  -19.7722   -6.1938 C   0  0  2  0  0  0  0  0  0  0  0  0
   26.3596  -21.1460   -5.8499 N   0  0  0  0  0  0  0  0  0  0  0  0
   26.5081  -19.5613   -7.6846 C   0  0  0  0  0  0  0  0  0  0  0  0
   26.7176  -18.4385   -8.1919 O   0  0  0  0  0  0  0  0  0  0  0  0
   30.9505  -23.3569   -9.4703 N   0  0  0  0  0  0  0  0  0  0  0  0
   31.5217  -22.3924  -10.3202 C   0  0  0  0  0  0  0  0  0  0  0  0
   32.7892  -22.1441  -10.2499 N   0  0  0  0  0  0  0  0  0  0  0  0
   30.6868  -21.7014  -11.2500 N   0  0  0  0  0  0  0  0  0  0  0  0
   29.3036  -22.1140  -11.3462 C   0  0  0  0  0  0  0  0  0  0  0  0
   28.4283  -21.1654  -10.5554 C   0  0  0  0  0  0  0  0  0  0  0  0
   26.9688  -21.5292  -10.7317 C   0  0  0  0  0  0  0  0  0  0  0  0
   26.1429  -20.4737   -9.9948 C   0  0  2  0  0  0  0  0  0  0  0  0
   26.2157  -20.6273   -8.5785 N   0  0  0  0  0  0  0  0  0  0  0  0
   24.7552  -20.5993  -10.5195 C   0  0  0  0  0  0  0  0  0  0  0  0
   23.9885  -21.3683   -9.8692 O   0  0  0  0  0  0  0  0  0  0  0  0
   33.2075  -21.3778  -10.8377 O   0  0  0  0  0  0  0  0  0  0  0  0
   21.2569  -19.3412  -13.6441 C   0  0  0  0  0  0  0  0  0  0  0  0
   22.5569  -19.1495  -13.2217 C   0  0  1  0  0  0  0  0  0  0  0  0
   22.9536  -20.0867  -12.1041 N   0  0  0  0  0  0  0  0  0  0  0  0
   24.3039  -19.9087  -11.6734 C   0  0  0  0  0  0  0  0  0  0  0  0
   22.6947  -21.4947  -12.5124 O   0  0  0  0  0  0  0  0  0  0  0  0
   23.5669  -22.1715  -13.1169 O   0  0  0  0  0  0  0  0  0  0  0  0
  2  1  1  1
  2  4  1  0
  3  2  1  0
  4  6  1  0
  4  5  1  6
  6 16  1  0
  7  6  2  0
  9 10  2  0
  9  8  1  0
 11  9  1  0
 12 11  1  0
 13 12  1  0
 14 13  1  0
 15 17  1  0
 15 14  1  6
 16 15  1  0
 17 18  2  0
 19 20  1  0
 21 20  1  1
 22 21  1  0
 22 17  1  0
 23 25  1  0
 23 21  1  0
 24 23  2  0
M  END
$$$$
