VRS.pdb
     RDKit          3D

 25 24  0  0  1  0  0  0  0  0999 V2000
   28.5859  -20.7123  -16.0342 C   0  0  0  0  0  0  0  0  0  0  0  0
   27.1166  -21.0229  -15.8468 C   0  0  1  0  0  0  0  0  0  0  0  0
   26.3270  -20.0846  -16.7152 C   0  0  0  0  0  0  0  0  0  0  0  0
   26.8914  -22.4690  -16.1551 C   0  0  2  0  0  0  0  0  0  0  0  0
   27.4033  -22.7741  -17.4557 N   0  0  0  0  0  0  0  0  0  0  0  0
   25.4187  -22.7716  -16.0555 C   0  0  0  0  0  0  0  0  0  0  0  0
   24.6295  -22.4781  -16.9791 O   0  0  0  0  0  0  0  0  0  0  0  0
   19.8256  -25.5791  -10.6088 N   0  0  0  0  0  0  0  0  0  0  0  0
   19.1202  -25.9901  -11.7543 C   0  0  0  0  0  0  0  0  0  0  0  0
   17.8286  -26.0545  -11.7247 N   0  0  0  0  0  0  0  0  0  0  0  0
   19.8473  -26.3307  -12.9351 N   0  0  0  0  0  0  0  0  0  0  0  0
   21.2818  -26.1448  -12.9177 C   0  0  0  0  0  0  0  0  0  0  0  0
   21.6540  -24.9406  -13.7560 C   0  0  0  0  0  0  0  0  0  0  0  0
   23.1598  -24.7928  -13.8211 C   0  0  0  0  0  0  0  0  0  0  0  0
   23.4620  -23.5849  -14.7092 C   0  0  2  0  0  0  0  0  0  0  0  0
   24.8626  -23.4027  -14.9096 N   0  0  0  0  0  0  0  0  0  0  0  0
   22.8160  -22.4179  -14.0476 C   0  0  0  0  0  0  0  0  0  0  0  0
   23.1842  -22.1856  -12.8592 O   0  0  0  0  0  0  0  0  0  0  0  0
   17.3055  -26.4795  -12.5331 O   0  0  0  0  0  0  0  0  0  0  0  0
   21.6927  -18.9320  -15.7999 C   0  0  0  0  0  0  0  0  0  0  0  0
   21.8895  -19.1644  -14.4536 C   0  0  1  0  0  0  0  0  0  0  0  0
   21.3087  -20.4827  -13.9959 N   0  0  0  0  0  0  0  0  0  0  0  0
   21.8474  -21.6070  -14.6931 C   0  0  0  0  0  0  0  0  0  0  0  0
   19.8241  -20.4408  -14.0975 O   0  0  0  0  0  0  0  0  0  0  0  0
   19.1929  -21.2704  -14.8028 O   0  0  0  0  0  0  0  0  0  0  0  0
  2  1  1  6
  2  4  1  0
  3  2  1  0
  4  6  1  0
  4  5  1  6
  6 16  1  0
  7  6  2  0
  9 10  2  0
  9  8  1  0
 11  9  1  0
 12 11  1  0
 13 12  1  0
 14 13  1  0
 15 17  1  0
 15 14  1  1
 16 15  1  0
 17 18  2  0
 19 20  1  0
 21 20  1  1
 22 21  1  0
 22 17  1  0
 23 25  1  0
 23 21  1  0
 24 23  2  0
M  END
$$$$
