VRS.pdb
     RDKit          3D

 25 24  0  0  1  0  0  0  0  0999 V2000
   21.0347  -21.8065  -16.4968 C   0  0  0  0  0  0  0  0  0  0  0  0
   20.3900  -22.8190  -15.5751 C   0  0  1  0  0  0  0  0  0  0  0  0
   18.9020  -22.7480  -15.7719 C   0  0  0  0  0  0  0  0  0  0  0  0
   20.9760  -24.1651  -15.8604 C   0  0  2  0  0  0  0  0  0  0  0  0
   20.7462  -24.5152  -17.2285 N   0  0  0  0  0  0  0  0  0  0  0  0
   20.3705  -25.1763  -14.9218 C   0  0  0  0  0  0  0  0  0  0  0  0
   19.1609  -25.4839  -14.9877 O   0  0  0  0  0  0  0  0  0  0  0  0
   23.6809  -30.8914   -8.9097 N   0  0  0  0  0  0  0  0  0  0  0  0
   22.3036  -31.1695   -8.9771 C   0  0  0  0  0  0  0  0  0  0  0  0
   21.8133  -32.1555   -8.2985 N   0  0  0  0  0  0  0  0  0  0  0  0
   21.4677  -30.3534   -9.7983 N   0  0  0  0  0  0  0  0  0  0  0  0
   22.0949  -29.2805  -10.5385 C   0  0  0  0  0  0  0  0  0  0  0  0
   21.0618  -28.5675  -11.3845 C   0  0  0  0  0  0  0  0  0  0  0  0
   21.7131  -27.4561  -12.1807 C   0  0  0  0  0  0  0  0  0  0  0  0
   20.6174  -26.7878  -13.0126 C   0  0  2  0  0  0  0  0  0  0  0  0
   21.1459  -25.8239  -13.9218 N   0  0  0  0  0  0  0  0  0  0  0  0
   19.6628  -26.1973  -12.0344 C   0  0  0  0  0  0  0  0  0  0  0  0
   20.0606  -25.1542  -11.4380 O   0  0  0  0  0  0  0  0  0  0  0  0
   20.7794  -32.3501   -8.3275 O   0  0  0  0  0  0  0  0  0  0  0  0
   15.2677  -25.0252  -10.8975 C   0  0  0  0  0  0  0  0  0  0  0  0
   16.1154  -25.8300  -11.6318 C   0  0  2  0  0  0  0  0  0  0  0  0
   17.4598  -26.0235  -10.9685 N   0  0  0  0  0  0  0  0  0  0  0  0
   18.3846  -26.7550  -11.7746 C   0  0  0  0  0  0  0  0  0  0  0  0
   17.2763  -26.6624   -9.6365 O   0  0  0  0  0  0  0  0  0  0  0  0
   16.4562  -26.2045   -8.7986 O   0  0  0  0  0  0  0  0  0  0  0  0
  2  1  1  6
  2  4  1  0
  3  2  1  0
  4  6  1  0
  4  5  1  6
  6 16  1  0
  7  6  2  0
  9 10  2  0
  9  8  1  0
 11  9  1  0
 12 11  1  0
 13 12  1  0
 14 13  1  0
 15 17  1  0
 15 14  1  1
 16 15  1  0
 17 18  2  0
 19 20  1  0
 21 20  1  6
 22 21  1  0
 22 17  1  0
 23 25  1  0
 23 21  1  0
 24 23  2  0
M  END
$$$$
