VRS.pdb
     RDKit          3D

 25 24  0  0  1  0  0  0  0  0999 V2000
   18.3320  -29.3979  -11.9695 C   0  0  0  0  0  0  0  0  0  0  0  0
   19.6204  -28.8565  -11.3888 C   0  0  1  0  0  0  0  0  0  0  0  0
   20.6985  -29.8794  -11.6113 C   0  0  0  0  0  0  0  0  0  0  0  0
   19.9055  -27.5288  -12.0154 C   0  0  2  0  0  0  0  0  0  0  0  0
   21.2146  -27.0871  -11.6439 N   0  0  0  0  0  0  0  0  0  0  0  0
   18.8480  -26.5441  -11.5887 C   0  0  0  0  0  0  0  0  0  0  0  0
   17.6508  -26.6910  -11.9164 O   0  0  0  0  0  0  0  0  0  0  0  0
   16.1534  -24.5081   -5.6303 N   0  0  0  0  0  0  0  0  0  0  0  0
   17.1237  -25.4272   -5.1912 C   0  0  0  0  0  0  0  0  0  0  0  0
   16.7672  -26.4469   -4.4797 N   0  0  0  0  0  0  0  0  0  0  0  0
   18.4919  -25.2160   -5.5412 N   0  0  0  0  0  0  0  0  0  0  0  0
   18.7774  -24.2600   -6.5886 C   0  0  0  0  0  0  0  0  0  0  0  0
   18.3766  -24.8335   -7.9309 C   0  0  0  0  0  0  0  0  0  0  0  0
   18.5945  -23.8089   -9.0246 C   0  0  0  0  0  0  0  0  0  0  0  0
   18.1936  -24.4618  -10.3484 C   0  0  2  0  0  0  0  0  0  0  0  0
   19.1637  -25.4068  -10.7964 N   0  0  0  0  0  0  0  0  0  0  0  0
   17.9875  -23.3443  -11.3106 C   0  0  0  0  0  0  0  0  0  0  0  0
   19.0326  -22.7275  -11.6699 O   0  0  0  0  0  0  0  0  0  0  0  0
   17.4712  -27.1916   -4.2398 O   0  0  0  0  0  0  0  0  0  0  0  0
   14.2206  -22.0995  -13.0374 C   0  0  0  0  0  0  0  0  0  0  0  0
   15.4288  -22.1006  -13.7050 C   0  0  1  0  0  0  0  0  0  0  0  0
   16.6108  -21.9392  -12.7767 N   0  0  0  0  0  0  0  0  0  0  0  0
   16.7082  -22.9804  -11.8037 C   0  0  0  0  0  0  0  0  0  0  0  0
   16.5660  -20.5972  -12.1337 O   0  0  0  0  0  0  0  0  0  0  0  0
   16.4473  -19.5475  -12.8180 O   0  0  0  0  0  0  0  0  0  0  0  0
  2  1  1  6
  2  4  1  0
  3  2  1  0
  4  6  1  0
  4  5  1  1
  6 16  1  0
  7  6  2  0
  9 10  2  0
  9  8  1  0
 11  9  1  0
 12 11  1  0
 13 12  1  0
 14 13  1  0
 15 17  1  0
 15 14  1  1
 16 15  1  0
 17 18  2  0
 19 20  1  0
 21 20  1  6
 22 21  1  0
 22 17  1  0
 23 25  1  0
 23 21  1  0
 24 23  2  0
M  END
$$$$
