VRS.pdb
     RDKit          3D

 25 24  0  0  1  0  0  0  0  0999 V2000
   25.7614  -24.8042  -19.1021 C   0  0  0  0  0  0  0  0  0  0  0  0
   27.0431  -24.0373  -18.8583 C   0  0  1  0  0  0  0  0  0  0  0  0
   26.8156  -22.6080  -19.2623 C   0  0  0  0  0  0  0  0  0  0  0  0
   27.4357  -24.2073  -17.4252 C   0  0  2  0  0  0  0  0  0  0  0  0
   27.7500  -25.5790  -17.1668 N   0  0  0  0  0  0  0  0  0  0  0  0
   26.3135  -23.7220  -16.5447 C   0  0  0  0  0  0  0  0  0  0  0  0
   25.2045  -24.2980  -16.5259 O   0  0  0  0  0  0  0  0  0  0  0  0
   23.9602  -19.4225  -10.5334 N   0  0  0  0  0  0  0  0  0  0  0  0
   23.7001  -20.5727   -9.7667 C   0  0  0  0  0  0  0  0  0  0  0  0
   22.7638  -20.5519   -8.8745 N   0  0  0  0  0  0  0  0  0  0  0  0
   24.4791  -21.7487   -9.9888 N   0  0  0  0  0  0  0  0  0  0  0  0
   25.5502  -21.6717  -10.9580 C   0  0  0  0  0  0  0  0  0  0  0  0
   24.9948  -21.8601  -12.3535 C   0  0  0  0  0  0  0  0  0  0  0  0
   26.1229  -21.9273  -13.3617 C   0  0  0  0  0  0  0  0  0  0  0  0
   25.4958  -22.1901  -14.7317 C   0  0  2  0  0  0  0  0  0  0  0  0
   26.4655  -22.5901  -15.6984 N   0  0  0  0  0  0  0  0  0  0  0  0
   24.7894  -20.9342  -15.1067 C   0  0  0  0  0  0  0  0  0  0  0  0
   25.5231  -19.9983  -15.5399 O   0  0  0  0  0  0  0  0  0  0  0  0
   22.5587  -21.4152   -8.3083 O   0  0  0  0  0  0  0  0  0  0  0  0
   22.2625  -19.9805  -18.3972 C   0  0  0  0  0  0  0  0  0  0  0  0
   22.9178  -20.6744  -17.4001 C   0  0  2  0  0  0  0  0  0  0  0  0
   22.6759  -20.0929  -16.0259 N   0  0  0  0  0  0  0  0  0  0  0  0
   23.3840  -20.7789  -14.9923 C   0  0  0  0  0  0  0  0  0  0  0  0
   21.2141  -20.0511  -15.7476 O   0  0  0  0  0  0  0  0  0  0  0  0
   20.6449  -20.9681  -15.1001 O   0  0  0  0  0  0  0  0  0  0  0  0
  2  1  1  1
  2  4  1  0
  3  2  1  0
  4  6  1  0
  4  5  1  6
  6 16  1  0
  7  6  2  0
  9 10  2  0
  9  8  1  0
 11  9  1  0
 12 11  1  0
 13 12  1  0
 14 13  1  0
 15 17  1  0
 15 14  1  1
 16 15  1  0
 17 18  2  0
 19 20  1  0
 21 20  1  6
 22 21  1  0
 22 17  1  0
 23 25  1  0
 23 21  1  0
 24 23  2  0
M  END
$$$$
