VRS.pdb
     RDKit          3D

 25 24  0  0  1  0  0  0  0  0999 V2000
   17.3194  -15.4322  -14.9701 C   0  0  0  0  0  0  0  0  0  0  0  0
   18.3515  -15.5105  -16.0741 C   0  0  1  0  0  0  0  0  0  0  0  0
   17.9581  -16.6246  -17.0025 C   0  0  0  0  0  0  0  0  0  0  0  0
   18.4439  -14.1728  -16.7368 C   0  0  2  0  0  0  0  0  0  0  0  0
   19.0089  -14.3158  -18.0434 N   0  0  0  0  0  0  0  0  0  0  0  0
   19.2680  -13.2511  -15.8759 C   0  0  0  0  0  0  0  0  0  0  0  0
   18.9626  -13.0252  -14.6852 O   0  0  0  0  0  0  0  0  0  0  0  0
   27.3127  -14.3799  -16.3863 N   0  0  0  0  0  0  0  0  0  0  0  0
   26.3898  -15.3675  -15.9970 C   0  0  0  0  0  0  0  0  0  0  0  0
   26.7772  -16.5953  -15.8719 N   0  0  0  0  0  0  0  0  0  0  0  0
   25.0345  -14.9942  -15.7459 N   0  0  0  0  0  0  0  0  0  0  0  0
   24.6303  -13.6521  -16.1035 C   0  0  0  0  0  0  0  0  0  0  0  0
   23.1889  -13.4252  -15.7007 C   0  0  0  0  0  0  0  0  0  0  0  0
   22.7769  -12.0007  -16.0084 C   0  0  0  0  0  0  0  0  0  0  0  0
   21.3216  -11.8406  -15.5659 C   0  0  2  0  0  0  0  0  0  0  0  0
   20.4269  -12.5987  -16.3781 N   0  0  0  0  0  0  0  0  0  0  0  0
   21.0400  -10.3790  -15.6043 C   0  0  0  0  0  0  0  0  0  0  0  0
   20.6503   -9.9227  -16.7187 O   0  0  0  0  0  0  0  0  0  0  0  0
   26.0694  -17.3537  -15.6945 O   0  0  0  0  0  0  0  0  0  0  0  0
   20.6140   -6.0749  -13.3913 C   0  0  0  0  0  0  0  0  0  0  0  0
   20.9234   -7.4145  -13.2692 C   0  0  1  0  0  0  0  0  0  0  0  0
   20.8344   -8.1582  -14.5822 N   0  0  0  0  0  0  0  0  0  0  0  0
   21.1934   -9.5364  -14.4735 C   0  0  0  0  0  0  0  0  0  0  0  0
   21.6551   -7.4624  -15.6111 O   0  0  0  0  0  0  0  0  0  0  0  0
   22.8787   -7.7192  -15.7553 O   0  0  0  0  0  0  0  0  0  0  0  0
  2  1  1  1
  2  4  1  0
  3  2  1  0
  4  6  1  0
  4  5  1  6
  6 16  1  0
  7  6  2  0
  9 10  2  0
  9  8  1  0
 11  9  1  0
 12 11  1  0
 13 12  1  0
 14 13  1  0
 15 17  1  0
 15 14  1  6
 16 15  1  0
 17 18  2  0
 19 20  1  0
 21 20  1  1
 22 21  1  0
 22 17  1  0
 23 25  1  0
 23 21  1  0
 24 23  2  0
M  END
$$$$
