VRS.pdb
     RDKit          3D

 25 24  0  0  1  0  0  0  0  0999 V2000
   27.7025  -17.5783  -18.1567 C   0  0  0  0  0  0  0  0  0  0  0  0
   26.6775  -18.5934  -17.6995 C   0  0  1  0  0  0  0  0  0  0  0  0
   27.1084  -19.1207  -16.3600 C   0  0  0  0  0  0  0  0  0  0  0  0
   25.3314  -17.9416  -17.6902 C   0  0  2  0  0  0  0  0  0  0  0  0
   25.3596  -16.7801  -16.8553 N   0  0  0  0  0  0  0  0  0  0  0  0
   24.3038  -18.9371  -17.2180 C   0  0  0  0  0  0  0  0  0  0  0  0
   24.0937  -20.0009  -17.8395 O   0  0  0  0  0  0  0  0  0  0  0  0
   24.7761  -23.0483  -13.0959 N   0  0  0  0  0  0  0  0  0  0  0  0
   25.6665  -22.3383  -12.2701 C   0  0  0  0  0  0  0  0  0  0  0  0
   26.8416  -22.8215  -12.0274 N   0  0  0  0  0  0  0  0  0  0  0  0
   25.2542  -21.0903  -11.7120 N   0  0  0  0  0  0  0  0  0  0  0  0
   23.9595  -20.5756  -12.1011 C   0  0  0  0  0  0  0  0  0  0  0  0
   23.9179  -20.3694  -13.6001 C   0  0  0  0  0  0  0  0  0  0  0  0
   22.6149  -19.7107  -14.0024 C   0  0  0  0  0  0  0  0  0  0  0  0
   22.5870  -19.6493  -15.5304 C   0  0  2  0  0  0  0  0  0  0  0  0
   23.5294  -18.7115  -16.0475 N   0  0  0  0  0  0  0  0  0  0  0  0
   21.1827  -19.3225  -15.9018 C   0  0  0  0  0  0  0  0  0  0  0  0
   20.7792  -18.1701  -15.5685 O   0  0  0  0  0  0  0  0  0  0  0  0
   27.4945  -22.3127  -11.3774 O   0  0  0  0  0  0  0  0  0  0  0  0
   19.6795  -19.5300  -19.2608 C   0  0  0  0  0  0  0  0  0  0  0  0
   18.7155  -20.0487  -18.4201 C   0  0  2  0  0  0  0  0  0  0  0  0
   19.0236  -19.8118  -16.9593 N   0  0  0  0  0  0  0  0  0  0  0  0
   20.3365  -20.2326  -16.5859 C   0  0  0  0  0  0  0  0  0  0  0  0
   17.9841  -20.4609  -16.1142 O   0  0  0  0  0  0  0  0  0  0  0  0
   16.7587  -20.2425  -16.3012 O   0  0  0  0  0  0  0  0  0  0  0  0
  2  1  1  1
  2  4  1  0
  3  2  1  0
  4  6  1  0
  4  5  1  1
  6 16  1  0
  7  6  2  0
  9 10  2  0
  9  8  1  0
 11  9  1  0
 12 11  1  0
 13 12  1  0
 14 13  1  0
 15 17  1  0
 15 14  1  1
 16 15  1  0
 17 18  2  0
 19 20  1  0
 21 20  1  6
 22 21  1  0
 22 17  1  0
 23 25  1  0
 23 21  1  0
 24 23  2  0
M  END
$$$$
