VKQ.pdb
     RDKit          3D

 26 25  0  0  1  0  0  0  0  0999 V2000
   29.0456  -21.0905  -16.4444 C   0  0  0  0  0  0  0  0  0  0  0  0
   28.0629  -19.9528  -16.1850 C   0  0  1  0  0  0  0  0  0  0  0  0
   28.3850  -18.8759  -17.1971 C   0  0  0  0  0  0  0  0  0  0  0  0
   26.6698  -20.5058  -16.4223 C   0  0  2  0  0  0  0  0  0  0  0  0
   26.5540  -21.1013  -17.7382 N   0  0  0  0  0  0  0  0  0  0  0  0
   25.6294  -19.4765  -16.1902 C   0  0  0  0  0  0  0  0  0  0  0  0
   25.4430  -19.0558  -15.0145 O   0  0  0  0  0  0  0  0  0  0  0  0
   24.8283  -18.9372  -17.2276 N   0  0  0  0  0  0  0  0  0  0  0  0
   23.7833  -18.0201  -16.9094 C   0  0  1  0  0  0  0  0  0  0  0  0
   23.3823  -17.1492  -18.0780 C   0  0  0  0  0  0  0  0  0  0  0  0
   22.3784  -16.1050  -17.7222 C   0  0  0  0  0  0  0  0  0  0  0  0
   22.0894  -15.3047  -18.9861 C   0  0  0  0  0  0  0  0  0  0  0  0
   21.1926  -14.1222  -18.6986 C   0  0  0  0  0  0  0  0  0  0  0  0
   21.1916  -13.2931  -19.8905 N   0  0  0  0  0  0  0  0  0  0  0  0
   22.5631  -18.7714  -16.5151 C   0  0  0  0  0  0  0  0  0  0  0  0
   22.2170  -19.7716  -17.1820 O   0  0  0  0  0  0  0  0  0  0  0  0
   20.9855  -20.0883  -10.8507 N   0  0  0  0  0  0  0  0  0  0  0  0
   19.8025  -20.4659  -11.5133 C   0  0  0  0  0  0  0  0  0  0  0  0
   18.8935  -21.0316  -10.8793 O   0  0  0  0  0  0  0  0  0  0  0  0
   19.6149  -20.1985  -12.9755 C   0  0  0  0  0  0  0  0  0  0  0  0
   20.8133  -19.5214  -13.5584 C   0  0  0  0  0  0  0  0  0  0  0  0
   20.6198  -19.1948  -15.0135 C   0  0  2  0  0  0  0  0  0  0  0  0
   21.7879  -18.3882  -15.4131 N   0  0  0  0  0  0  0  0  0  0  0  0
   19.3875  -18.4352  -15.2450 C   0  0  0  0  0  0  0  0  0  0  0  0
   19.2962  -17.0627  -15.1246 O   0  0  0  0  0  0  0  0  0  0  0  0
   18.3123  -19.0289  -15.5755 O   0  0  0  0  0  0  0  0  0  0  0  0
  2  4  1  0
  2  1  1  6
  3  2  1  0
  4  6  1  0
  4  5  1  6
  6  7  2  0
  8  9  1  0
  8  6  1  0
 10 11  1  0
  9 10  1  6
 11 12  1  0
 12 13  1  0
 13 14  1  0
 15  9  1  0
 15 16  2  0
 17 18  1  0
 18 20  1  0
 19 18  2  0
 20 21  1  0
 22 21  1  1
 22 23  1  0
 22 24  1  0
 23 15  1  0
 24 26  2  0
 24 25  1  0
M  END
$$$$
