VKQ.pdb
     RDKit          3D

 26 25  0  0  1  0  0  0  0  0999 V2000
   26.4316  -18.3265  -16.1831 C   0  0  0  0  0  0  0  0  0  0  0  0
   27.1551  -19.5477  -16.7421 C   0  0  1  0  0  0  0  0  0  0  0  0
   28.3918  -19.0253  -17.4389 C   0  0  0  0  0  0  0  0  0  0  0  0
   27.5388  -20.4173  -15.5591 C   0  0  2  0  0  0  0  0  0  0  0  0
   28.3557  -21.5408  -15.9714 N   0  0  0  0  0  0  0  0  0  0  0  0
   26.3462  -20.8543  -14.7960 C   0  0  0  0  0  0  0  0  0  0  0  0
   25.5559  -21.6836  -15.3268 O   0  0  0  0  0  0  0  0  0  0  0  0
   26.0460  -20.3855  -13.4926 N   0  0  0  0  0  0  0  0  0  0  0  0
   24.9097  -20.8998  -12.8009 C   0  0  1  0  0  0  0  0  0  0  0  0
   24.9135  -20.5692  -11.3259 C   0  0  0  0  0  0  0  0  0  0  0  0
   23.8039  -21.2187  -10.5698 C   0  0  0  0  0  0  0  0  0  0  0  0
   23.9752  -20.8446   -9.1028 C   0  0  0  0  0  0  0  0  0  0  0  0
   22.9562  -21.5430   -8.2316 C   0  0  0  0  0  0  0  0  0  0  0  0
   23.1854  -21.0937   -6.8701 N   0  0  0  0  0  0  0  0  0  0  0  0
   23.6712  -20.2955  -13.3574 C   0  0  0  0  0  0  0  0  0  0  0  0
   23.5682  -19.0500  -13.4126 O   0  0  0  0  0  0  0  0  0  0  0  0
   19.5132  -23.2586  -16.9984 N   0  0  0  0  0  0  0  0  0  0  0  0
   18.9811  -21.9581  -16.9157 C   0  0  0  0  0  0  0  0  0  0  0  0
   17.9980  -21.6479  -17.6124 O   0  0  0  0  0  0  0  0  0  0  0  0
   19.5786  -20.9340  -15.9998 C   0  0  0  0  0  0  0  0  0  0  0  0
   20.7852  -21.4730  -15.3012 C   0  0  0  0  0  0  0  0  0  0  0  0
   21.4090  -20.4510  -14.3914 C   0  0  2  0  0  0  0  0  0  0  0  0
   22.6127  -21.0860  -13.8233 N   0  0  0  0  0  0  0  0  0  0  0  0
   20.5006  -20.0513  -13.3125 C   0  0  0  0  0  0  0  0  0  0  0  0
   20.3624  -20.7456  -12.1270 O   0  0  0  0  0  0  0  0  0  0  0  0
   19.7742  -19.0136  -13.4275 O   0  0  0  0  0  0  0  0  0  0  0  0
  2  4  1  0
  2  1  1  1
  3  2  1  0
  4  6  1  0
  4  5  1  6
  6  7  2  0
  8  9  1  0
  8  6  1  0
 10 11  1  0
  9 10  1  1
 11 12  1  0
 12 13  1  0
 13 14  1  0
 15  9  1  0
 15 16  2  0
 17 18  1  0
 18 20  1  0
 19 18  2  0
 20 21  1  0
 22 21  1  6
 22 23  1  0
 22 24  1  0
 23 15  1  0
 24 26  2  0
 24 25  1  0
M  END
$$$$
