VKQ.pdb
     RDKit          3D

 26 25  0  0  1  0  0  0  0  0999 V2000
   24.0407  -20.8519   -7.6070 C   0  0  0  0  0  0  0  0  0  0  0  0
   23.8197  -20.7394   -9.1122 C   0  0  1  0  0  0  0  0  0  0  0  0
   22.8244  -19.6180   -9.3116 C   0  0  0  0  0  0  0  0  0  0  0  0
   25.1571  -20.3796   -9.7324 C   0  0  2  0  0  0  0  0  0  0  0  0
   25.7422  -19.2191   -9.0918 N   0  0  0  0  0  0  0  0  0  0  0  0
   25.0459  -20.2014  -11.1993 C   0  0  0  0  0  0  0  0  0  0  0  0
   24.7205  -19.0680  -11.6504 O   0  0  0  0  0  0  0  0  0  0  0  0
   25.2879  -21.2453  -12.1269 N   0  0  0  0  0  0  0  0  0  0  0  0
   25.1947  -20.9832  -13.5258 C   0  0  1  0  0  0  0  0  0  0  0  0
   26.2430  -21.7103  -14.3365 C   0  0  0  0  0  0  0  0  0  0  0  0
   26.2272  -21.3516  -15.7842 C   0  0  0  0  0  0  0  0  0  0  0  0
   27.2850  -22.2040  -16.4741 C   0  0  0  0  0  0  0  0  0  0  0  0
   27.4074  -21.8542  -17.9396 C   0  0  0  0  0  0  0  0  0  0  0  0
   28.2922  -22.8385  -18.5365 N   0  0  0  0  0  0  0  0  0  0  0  0
   23.8793  -21.4517  -14.0347 C   0  0  0  0  0  0  0  0  0  0  0  0
   23.3980  -22.5202  -13.5969 O   0  0  0  0  0  0  0  0  0  0  0  0
   19.7794  -19.8949  -11.4957 N   0  0  0  0  0  0  0  0  0  0  0  0
   18.9803  -20.3108  -12.5771 C   0  0  0  0  0  0  0  0  0  0  0  0
   17.7434  -20.3550  -12.4494 O   0  0  0  0  0  0  0  0  0  0  0  0
   19.5931  -20.7037  -13.8866 C   0  0  0  0  0  0  0  0  0  0  0  0
   21.0836  -20.6026  -13.8369 C   0  0  0  0  0  0  0  0  0  0  0  0
   21.7129  -20.9473  -15.1585 C   0  0  2  0  0  0  0  0  0  0  0  0
   23.1618  -20.7263  -14.9945 N   0  0  0  0  0  0  0  0  0  0  0  0
   21.2008  -20.1063  -16.2446 C   0  0  0  0  0  0  0  0  0  0  0  0
   20.0643  -20.3980  -16.9725 O   0  0  0  0  0  0  0  0  0  0  0  0
   21.8039  -19.0365  -16.5758 O   0  0  0  0  0  0  0  0  0  0  0  0
  2  4  1  0
  2  1  1  1
  3  2  1  0
  4  6  1  0
  4  5  1  1
  6  7  2  0
  8  9  1  0
  8  6  1  0
 10 11  1  0
  9 10  1  6
 11 12  1  0
 12 13  1  0
 13 14  1  0
 15  9  1  0
 15 16  2  0
 17 18  1  0
 18 20  1  0
 19 18  2  0
 20 21  1  0
 22 21  1  1
 22 23  1  0
 22 24  1  0
 23 15  1  0
 24 26  2  0
 24 25  1  0
M  END
$$$$
