VKQ.pdb
     RDKit          3D

 26 25  0  0  1  0  0  0  0  0999 V2000
   12.8848   -8.4788  -12.9428 C   0  0  0  0  0  0  0  0  0  0  0  0
   12.3837   -9.5509  -11.9801 C   0  0  1  0  0  0  0  0  0  0  0  0
   10.8843   -9.3725  -11.8906 C   0  0  0  0  0  0  0  0  0  0  0  0
   12.7231  -10.8955  -12.5963 C   0  0  2  0  0  0  0  0  0  0  0  0
   12.3011  -11.9893  -11.7447 N   0  0  0  0  0  0  0  0  0  0  0  0
   14.1615  -10.9885  -12.9399 C   0  0  0  0  0  0  0  0  0  0  0  0
   14.9739  -11.3743  -12.0537 O   0  0  0  0  0  0  0  0  0  0  0  0
   14.6745  -10.6643  -14.2207 N   0  0  0  0  0  0  0  0  0  0  0  0
   16.0494  -10.9059  -14.5133 C   0  0  1  0  0  0  0  0  0  0  0  0
   16.2518  -11.8023  -15.7134 C   0  0  0  0  0  0  0  0  0  0  0  0
   17.6825  -12.1387  -15.9677 C   0  0  0  0  0  0  0  0  0  0  0  0
   17.7174  -13.1189  -17.1336 C   0  0  0  0  0  0  0  0  0  0  0  0
   19.1332  -13.5299  -17.4680 C   0  0  0  0  0  0  0  0  0  0  0  0
   19.0640  -14.3478  -18.6656 N   0  0  0  0  0  0  0  0  0  0  0  0
   16.7237   -9.6217  -14.8373 C   0  0  0  0  0  0  0  0  0  0  0  0
   16.0991   -8.7455  -15.4752 O   0  0  0  0  0  0  0  0  0  0  0  0
   22.4057   -5.2962  -12.8793 N   0  0  0  0  0  0  0  0  0  0  0  0
   21.5691   -6.4281  -12.8792 C   0  0  0  0  0  0  0  0  0  0  0  0
   21.6997   -7.2921  -11.9934 O   0  0  0  0  0  0  0  0  0  0  0  0
   20.5182   -6.6142  -13.9307 C   0  0  0  0  0  0  0  0  0  0  0  0
   19.7309   -7.8622  -13.6920 C   0  0  0  0  0  0  0  0  0  0  0  0
   18.6590   -8.0554  -14.7289 C   0  0  2  0  0  0  0  0  0  0  0  0
   18.0442   -9.3657  -14.4460 N   0  0  0  0  0  0  0  0  0  0  0  0
   19.2051   -8.0450  -16.0894 C   0  0  0  0  0  0  0  0  0  0  0  0
   19.4426   -6.8938  -16.8138 O   0  0  0  0  0  0  0  0  0  0  0  0
   19.4909   -9.1337  -16.6816 O   0  0  0  0  0  0  0  0  0  0  0  0
  2  4  1  0
  2  1  1  6
  3  2  1  0
  4  6  1  0
  4  5  1  1
  6  7  2  0
  8  9  1  0
  8  6  1  0
 10 11  1  0
  9 10  1  6
 11 12  1  0
 12 13  1  0
 13 14  1  0
 15  9  1  0
 15 16  2  0
 17 18  1  0
 18 20  1  0
 19 18  2  0
 20 21  1  0
 22 21  1  1
 22 23  1  0
 22 24  1  0
 23 15  1  0
 24 26  2  0
 24 25  1  0
M  END
$$$$
