VKQ.pdb
     RDKit          3D

 26 25  0  0  1  0  0  0  0  0999 V2000
   26.3710  -32.6783  -10.4331 C   0  0  0  0  0  0  0  0  0  0  0  0
   25.5588  -33.4453   -9.3942 C   0  0  1  0  0  0  0  0  0  0  0  0
   25.9306  -32.8606   -8.0497 C   0  0  0  0  0  0  0  0  0  0  0  0
   24.0940  -33.1901   -9.6982 C   0  0  2  0  0  0  0  0  0  0  0  0
   23.7912  -31.7731   -9.6901 N   0  0  0  0  0  0  0  0  0  0  0  0
   23.2088  -33.9476   -8.7826 C   0  0  0  0  0  0  0  0  0  0  0  0
   22.6934  -33.3455   -7.7998 O   0  0  0  0  0  0  0  0  0  0  0  0
   22.9096  -35.3221   -8.9556 N   0  0  0  0  0  0  0  0  0  0  0  0
   21.9876  -35.9610   -8.0746 C   0  0  1  0  0  0  0  0  0  0  0  0
   21.5349  -37.3153   -8.5702 C   0  0  0  0  0  0  0  0  0  0  0  0
   20.5305  -37.9669   -7.6807 C   0  0  0  0  0  0  0  0  0  0  0  0
   19.1548  -37.4758   -8.1142 C   0  0  0  0  0  0  0  0  0  0  0  0
   18.0581  -38.0951   -7.2783 C   0  0  0  0  0  0  0  0  0  0  0  0
   16.7979  -37.5925   -7.7953 N   0  0  0  0  0  0  0  0  0  0  0  0
   22.6369  -36.1974   -6.7588 C   0  0  0  0  0  0  0  0  0  0  0  0
   23.8605  -36.4543   -6.7165 O   0  0  0  0  0  0  0  0  0  0  0  0
   21.7203  -35.3235    0.3870 N   0  0  0  0  0  0  0  0  0  0  0  0
   21.5926  -35.8562   -0.9096 C   0  0  0  0  0  0  0  0  0  0  0  0
   20.5674  -36.4899   -1.2184 O   0  0  0  0  0  0  0  0  0  0  0  0
   22.6732  -35.6740   -1.9313 C   0  0  0  0  0  0  0  0  0  0  0  0
   22.0969  -35.4423   -3.2910 C   0  0  0  0  0  0  0  0  0  0  0  0
   22.5701  -36.4691   -4.2824 C   0  0  2  0  0  0  0  0  0  0  0  0
   21.9128  -36.1402   -5.5610 N   0  0  0  0  0  0  0  0  0  0  0  0
   22.2114  -37.8306   -3.8740 C   0  0  0  0  0  0  0  0  0  0  0  0
   23.0466  -38.6632   -3.1559 O   0  0  0  0  0  0  0  0  0  0  0  0
   21.0773  -38.3206   -4.1765 O   0  0  0  0  0  0  0  0  0  0  0  0
  2  4  1  0
  2  1  1  6
  3  2  1  0
  4  6  1  0
  4  5  1  1
  6  7  2  0
  8  9  1  0
  8  6  1  0
 10 11  1  0
  9 10  1  6
 11 12  1  0
 12 13  1  0
 13 14  1  0
 15  9  1  0
 15 16  2  0
 17 18  1  0
 18 20  1  0
 19 18  2  0
 20 21  1  0
 22 21  1  1
 22 23  1  0
 22 24  1  0
 23 15  1  0
 24 26  2  0
 24 25  1  0
M  END
$$$$
