VKQ.pdb
     RDKit          3D

 26 25  0  0  1  0  0  0  0  0999 V2000
   28.2125  -18.1226  -17.4573 C   0  0  0  0  0  0  0  0  0  0  0  0
   27.0739  -18.7110  -16.6300 C   0  0  1  0  0  0  0  0  0  0  0  0
   25.9614  -19.0272  -17.6048 C   0  0  0  0  0  0  0  0  0  0  0  0
   27.5994  -19.9837  -15.9921 C   0  0  2  0  0  0  0  0  0  0  0  0
   28.0541  -20.9282  -16.9925 N   0  0  0  0  0  0  0  0  0  0  0  0
   26.6003  -20.5870  -15.0791 C   0  0  0  0  0  0  0  0  0  0  0  0
   25.7083  -21.3367  -15.5650 O   0  0  0  0  0  0  0  0  0  0  0  0
   26.5956  -20.3635  -13.6795 N   0  0  0  0  0  0  0  0  0  0  0  0
   25.5291  -20.8791  -12.8851 C   0  0  1  0  0  0  0  0  0  0  0  0
   25.7187  -20.6327  -11.4059 C   0  0  0  0  0  0  0  0  0  0  0  0
   24.6247  -21.2000  -10.5654 C   0  0  0  0  0  0  0  0  0  0  0  0
   24.9122  -20.8071   -9.1216 C   0  0  0  0  0  0  0  0  0  0  0  0
   23.8188  -21.2809   -8.1916 C   0  0  0  0  0  0  0  0  0  0  0  0
   24.1461  -20.7845   -6.8670 N   0  0  0  0  0  0  0  0  0  0  0  0
   24.2583  -20.2046  -13.2577 C   0  0  0  0  0  0  0  0  0  0  0  0
   24.1860  -18.9572  -13.1974 O   0  0  0  0  0  0  0  0  0  0  0  0
   19.2640  -18.8101  -17.9839 N   0  0  0  0  0  0  0  0  0  0  0  0
   20.3803  -19.3976  -17.3597 C   0  0  0  0  0  0  0  0  0  0  0  0
   21.3076  -19.8521  -18.0538 O   0  0  0  0  0  0  0  0  0  0  0  0
   20.4748  -19.4869  -15.8671 C   0  0  0  0  0  0  0  0  0  0  0  0
   21.7590  -20.1248  -15.4448 C   0  0  0  0  0  0  0  0  0  0  0  0
   21.8641  -20.2356  -13.9487 C   0  0  2  0  0  0  0  0  0  0  0  0
   23.1358  -20.9308  -13.6759 N   0  0  0  0  0  0  0  0  0  0  0  0
   20.7486  -20.9953  -13.3763 C   0  0  0  0  0  0  0  0  0  0  0  0
   20.8868  -22.2335  -12.7810 O   0  0  0  0  0  0  0  0  0  0  0  0
   19.5648  -20.5313  -13.4069 O   0  0  0  0  0  0  0  0  0  0  0  0
  2  4  1  0
  2  1  1  6
  3  2  1  0
  4  6  1  0
  4  5  1  6
  6  7  2  0
  8  9  1  0
  8  6  1  0
 10 11  1  0
  9 10  1  1
 11 12  1  0
 12 13  1  0
 13 14  1  0
 15  9  1  0
 15 16  2  0
 17 18  1  0
 18 20  1  0
 19 18  2  0
 20 21  1  0
 22 21  1  6
 22 23  1  0
 22 24  1  0
 23 15  1  0
 24 26  2  0
 24 25  1  0
M  END
$$$$
