VKQ.pdb
     RDKit          3D

 26 25  0  0  1  0  0  0  0  0999 V2000
   28.4522  -19.3649  -18.2990 C   0  0  0  0  0  0  0  0  0  0  0  0
   27.3127  -19.6416  -17.3232 C   0  0  1  0  0  0  0  0  0  0  0  0
   26.0904  -19.9237  -18.1683 C   0  0  0  0  0  0  0  0  0  0  0  0
   27.7011  -20.8711  -16.5231 C   0  0  2  0  0  0  0  0  0  0  0  0
   27.9939  -21.9952  -17.3894 N   0  0  0  0  0  0  0  0  0  0  0  0
   26.6724  -21.2089  -15.5115 C   0  0  0  0  0  0  0  0  0  0  0  0
   25.7506  -22.0118  -15.8273 O   0  0  0  0  0  0  0  0  0  0  0  0
   26.6709  -20.6729  -14.1994 N   0  0  0  0  0  0  0  0  0  0  0  0
   25.6454  -21.0505  -13.2829 C   0  0  1  0  0  0  0  0  0  0  0  0
   25.9469  -20.6489  -11.8572 C   0  0  0  0  0  0  0  0  0  0  0  0
   24.9092  -21.0957  -10.8833 C   0  0  0  0  0  0  0  0  0  0  0  0
   25.3555  -20.6338   -9.5016 C   0  0  0  0  0  0  0  0  0  0  0  0
   24.4479  -21.1719   -8.4191 C   0  0  0  0  0  0  0  0  0  0  0  0
   24.9642  -20.6831   -7.1532 N   0  0  0  0  0  0  0  0  0  0  0  0
   24.3760  -20.3679  -13.6457 C   0  0  0  0  0  0  0  0  0  0  0  0
   24.3924  -19.1465  -13.9157 O   0  0  0  0  0  0  0  0  0  0  0  0
   21.7751  -20.7726  -18.4278 N   0  0  0  0  0  0  0  0  0  0  0  0
   20.6992  -20.1453  -17.7719 C   0  0  0  0  0  0  0  0  0  0  0  0
   19.7478  -19.6971  -18.4367 O   0  0  0  0  0  0  0  0  0  0  0  0
   20.6769  -20.0059  -16.2803 C   0  0  0  0  0  0  0  0  0  0  0  0
   21.9303  -20.5442  -15.6691 C   0  0  0  0  0  0  0  0  0  0  0  0
   21.9407  -20.3785  -14.1745 C   0  0  2  0  0  0  0  0  0  0  0  0
   23.1579  -21.0581  -13.6936 N   0  0  0  0  0  0  0  0  0  0  0  0
   20.7569  -20.9758  -13.5491 C   0  0  0  0  0  0  0  0  0  0  0  0
   19.5002  -20.4046  -13.5798 O   0  0  0  0  0  0  0  0  0  0  0  0
   20.8406  -22.0826  -12.9280 O   0  0  0  0  0  0  0  0  0  0  0  0
  2  4  1  0
  2  1  1  6
  3  2  1  0
  4  6  1  0
  4  5  1  6
  6  7  2  0
  8  9  1  0
  8  6  1  0
 10 11  1  0
  9 10  1  1
 11 12  1  0
 12 13  1  0
 13 14  1  0
 15  9  1  0
 15 16  2  0
 17 18  1  0
 18 20  1  0
 19 18  2  0
 20 21  1  0
 22 21  1  6
 22 23  1  0
 22 24  1  0
 23 15  1  0
 24 26  2  0
 24 25  1  0
M  END
$$$$
