VKQ.pdb
     RDKit          3D

 26 25  0  0  1  0  0  0  0  0999 V2000
   23.8435  -13.6050  -18.1255 C   0  0  0  0  0  0  0  0  0  0  0  0
   24.9801  -12.6384  -17.8074 C   0  0  1  0  0  0  0  0  0  0  0  0
   25.0212  -11.6435  -18.9460 C   0  0  0  0  0  0  0  0  0  0  0  0
   24.6217  -11.9434  -16.5068 C   0  0  2  0  0  0  0  0  0  0  0  0
   24.6135  -12.8728  -15.3951 N   0  0  0  0  0  0  0  0  0  0  0  0
   23.3404  -11.2074  -16.6187 C   0  0  0  0  0  0  0  0  0  0  0  0
   23.2966  -10.1703  -17.3374 O   0  0  0  0  0  0  0  0  0  0  0  0
   22.1547  -11.6114  -15.9558 N   0  0  0  0  0  0  0  0  0  0  0  0
   20.9525  -10.8666  -16.1412 C   0  0  1  0  0  0  0  0  0  0  0  0
   19.7140  -11.7330  -16.1533 C   0  0  0  0  0  0  0  0  0  0  0  0
   18.4513  -10.9599  -16.3344 C   0  0  0  0  0  0  0  0  0  0  0  0
   17.3038  -11.9622  -16.3461 C   0  0  0  0  0  0  0  0  0  0  0  0
   15.9674  -11.2706  -16.4905 C   0  0  0  0  0  0  0  0  0  0  0  0
   14.9519  -12.3083  -16.4846 N   0  0  0  0  0  0  0  0  0  0  0  0
   20.7787   -9.9116  -15.0158 C   0  0  0  0  0  0  0  0  0  0  0  0
   20.7818  -10.3416  -13.8411 O   0  0  0  0  0  0  0  0  0  0  0  0
   23.2878   -4.4937  -14.3929 N   0  0  0  0  0  0  0  0  0  0  0  0
   22.1614   -4.4445  -15.2355 C   0  0  0  0  0  0  0  0  0  0  0  0
   22.0295   -3.5003  -16.0351 O   0  0  0  0  0  0  0  0  0  0  0  0
   21.1120   -5.5126  -15.1882 C   0  0  0  0  0  0  0  0  0  0  0  0
   21.4657   -6.5734  -14.1962 C   0  0  0  0  0  0  0  0  0  0  0  0
   20.3970   -7.6267  -14.0971 C   0  0  2  0  0  0  0  0  0  0  0  0
   20.6110   -8.5384  -15.2363 N   0  0  0  0  0  0  0  0  0  0  0  0
   19.0512   -7.0495  -14.1674 C   0  0  0  0  0  0  0  0  0  0  0  0
   18.2175   -7.1735  -15.2611 O   0  0  0  0  0  0  0  0  0  0  0  0
   18.5790   -6.3848  -13.1912 O   0  0  0  0  0  0  0  0  0  0  0  0
  2  4  1  0
  2  1  1  6
  3  2  1  0
  4  6  1  0
  4  5  1  1
  6  7  2  0
  8  9  1  0
  8  6  1  0
 10 11  1  0
  9 10  1  1
 11 12  1  0
 12 13  1  0
 13 14  1  0
 15  9  1  0
 15 16  2  0
 17 18  1  0
 18 20  1  0
 19 18  2  0
 20 21  1  0
 22 21  1  6
 22 23  1  0
 22 24  1  0
 23 15  1  0
 24 26  2  0
 24 25  1  0
M  END
$$$$
