VKQ.pdb
     RDKit          3D

 26 25  0  0  1  0  0  0  0  0999 V2000
   34.7365  -32.8143  -17.0061 C   0  0  0  0  0  0  0  0  0  0  0  0
   33.7184  -32.2290  -17.9798 C   0  0  1  0  0  0  0  0  0  0  0  0
   32.5520  -31.7573  -17.1403 C   0  0  0  0  0  0  0  0  0  0  0  0
   34.3870  -31.0539  -18.6690 C   0  0  2  0  0  0  0  0  0  0  0  0
   34.9414  -30.1223  -17.7076 N   0  0  0  0  0  0  0  0  0  0  0  0
   33.4661  -30.3838  -19.6170 C   0  0  0  0  0  0  0  0  0  0  0  0
   33.2129  -29.1577  -19.4538 O   0  0  0  0  0  0  0  0  0  0  0  0
   32.8514  -31.0539  -20.7042 N   0  0  0  0  0  0  0  0  0  0  0  0
   32.0100  -30.3272  -21.5976 C   0  0  1  0  0  0  0  0  0  0  0  0
   32.1027  -30.8122  -23.0263 C   0  0  0  0  0  0  0  0  0  0  0  0
   31.3424  -29.9653  -23.9904 C   0  0  0  0  0  0  0  0  0  0  0  0
   31.5264  -30.5767  -25.3739 C   0  0  0  0  0  0  0  0  0  0  0  0
   30.7819  -29.7908  -26.4290 C   0  0  0  0  0  0  0  0  0  0  0  0
   31.0859  -30.4072  -27.7079 N   0  0  0  0  0  0  0  0  0  0  0  0
   30.5896  -30.4967  -21.1943 C   0  0  0  0  0  0  0  0  0  0  0  0
   29.6852  -30.0449  -21.9310 O   0  0  0  0  0  0  0  0  0  0  0  0
   28.6510  -32.0663  -15.4172 N   0  0  0  0  0  0  0  0  0  0  0  0
   27.4453  -32.0461  -16.1432 C   0  0  0  0  0  0  0  0  0  0  0  0
   26.3660  -32.2319  -15.5526 O   0  0  0  0  0  0  0  0  0  0  0  0
   27.4357  -31.8038  -17.6216 C   0  0  0  0  0  0  0  0  0  0  0  0
   28.8182  -31.5683  -18.1389 C   0  0  0  0  0  0  0  0  0  0  0  0
   28.8192  -31.2437  -19.6073 C   0  0  2  0  0  0  0  0  0  0  0  0
   30.2357  -31.1511  -20.0073 N   0  0  0  0  0  0  0  0  0  0  0  0
   28.1387  -29.9760  -19.8882 C   0  0  0  0  0  0  0  0  0  0  0  0
   26.9102  -29.8845  -20.5119 O   0  0  0  0  0  0  0  0  0  0  0  0
   28.6705  -28.8681  -19.5603 O   0  0  0  0  0  0  0  0  0  0  0  0
  2  4  1  0
  2  1  1  1
  3  2  1  0
  4  6  1  0
  4  5  1  1
  6  7  2  0
  8  9  1  0
  8  6  1  0
 10 11  1  0
  9 10  1  6
 11 12  1  0
 12 13  1  0
 13 14  1  0
 15  9  1  0
 15 16  2  0
 17 18  1  0
 18 20  1  0
 19 18  2  0
 20 21  1  0
 22 21  1  1
 22 23  1  0
 22 24  1  0
 23 15  1  0
 24 26  2  0
 24 25  1  0
M  END
$$$$
