VKQ.pdb
     RDKit          3D

 26 25  0  0  1  0  0  0  0  0999 V2000
   25.0759  -20.9686  -11.2652 C   0  0  0  0  0  0  0  0  0  0  0  0
   26.5045  -20.4420  -11.3611 C   0  0  1  0  0  0  0  0  0  0  0  0
   27.3381  -21.3094  -10.4442 C   0  0  0  0  0  0  0  0  0  0  0  0
   26.9461  -20.6144  -12.8026 C   0  0  2  0  0  0  0  0  0  0  0  0
   28.3705  -20.3927  -12.9496 N   0  0  0  0  0  0  0  0  0  0  0  0
   26.1580  -19.7572  -13.7190 C   0  0  0  0  0  0  0  0  0  0  0  0
   26.1851  -18.5058  -13.5537 O   0  0  0  0  0  0  0  0  0  0  0  0
   25.3705  -20.2743  -14.7779 N   0  0  0  0  0  0  0  0  0  0  0  0
   24.5928  -19.3866  -15.5789 C   0  0  1  0  0  0  0  0  0  0  0  0
   25.0087  -19.3807  -17.0321 C   0  0  0  0  0  0  0  0  0  0  0  0
   24.2144  -18.4384  -17.8724 C   0  0  0  0  0  0  0  0  0  0  0  0
   24.7351  -18.5545  -19.2996 C   0  0  0  0  0  0  0  0  0  0  0  0
   24.0354  -17.5844  -20.2239 C   0  0  0  0  0  0  0  0  0  0  0  0
   24.5158  -17.8585  -21.5663 N   0  0  0  0  0  0  0  0  0  0  0  0
   23.1692  -19.8128  -15.5575 C   0  0  0  0  0  0  0  0  0  0  0  0
   22.8941  -21.0327  -15.5898 O   0  0  0  0  0  0  0  0  0  0  0  0
   18.8427  -17.1047  -12.2779 N   0  0  0  0  0  0  0  0  0  0  0  0
   18.0947  -18.1064  -12.9247 C   0  0  0  0  0  0  0  0  0  0  0  0
   16.9163  -18.3142  -12.5833 O   0  0  0  0  0  0  0  0  0  0  0  0
   18.6928  -18.9321  -14.0225 C   0  0  0  0  0  0  0  0  0  0  0  0
   20.1417  -18.6151  -14.2081 C   0  0  0  0  0  0  0  0  0  0  0  0
   20.7278  -19.3426  -15.3866 C   0  0  2  0  0  0  0  0  0  0  0  0
   22.1240  -18.8818  -15.5017 N   0  0  0  0  0  0  0  0  0  0  0  0
   20.0029  -19.0495  -16.6267 C   0  0  0  0  0  0  0  0  0  0  0  0
   19.0134  -19.8590  -17.1485 O   0  0  0  0  0  0  0  0  0  0  0  0
   20.2655  -18.0024  -17.2992 O   0  0  0  0  0  0  0  0  0  0  0  0
  2  4  1  0
  2  1  1  6
  3  2  1  0
  4  6  1  0
  4  5  1  1
  6  7  2  0
  8  9  1  0
  8  6  1  0
 10 11  1  0
  9 10  1  6
 11 12  1  0
 12 13  1  0
 13 14  1  0
 15  9  1  0
 15 16  2  0
 17 18  1  0
 18 20  1  0
 19 18  2  0
 20 21  1  0
 22 21  1  1
 22 23  1  0
 22 24  1  0
 23 15  1  0
 24 26  2  0
 24 25  1  0
M  END
$$$$
