GTF.pdb
     RDKit          3D

 23 23  0  0  1  0  0  0  0  0999 V2000
   26.8068  -16.9102  -15.4456 N   0  0  0  0  0  0  0  0  0  0  0  0
   27.4403  -17.5518  -14.3356 C   0  0  0  0  0  0  0  0  0  0  0  0
   26.4556  -18.3462  -13.5217 C   0  0  0  0  0  0  0  0  0  0  0  0
   25.2671  -17.9980  -13.5089 O   0  0  0  0  0  0  0  0  0  0  0  0
   24.9942  -21.2332  -13.9057 C   0  0  0  0  0  0  0  0  0  0  0  0
   25.7630  -21.5635  -12.6198 C   0  0  1  0  0  0  0  0  0  0  0  0
   26.9190  -22.2590  -12.8783 O   0  0  0  0  0  0  0  0  0  0  0  0
   25.9876  -20.2401  -11.9191 C   0  0  2  0  0  0  0  0  0  0  0  0
   26.8959  -19.4778  -12.7826 N   0  0  0  0  0  0  0  0  0  0  0  0
   26.6579  -20.5032  -10.5973 C   0  0  0  0  0  0  0  0  0  0  0  0
   27.9106  -20.5839  -10.5451 O   0  0  0  0  0  0  0  0  0  0  0  0
   25.9028  -20.6591   -9.4247 N   0  0  0  0  0  0  0  0  0  0  0  0
   26.4937  -20.9443   -8.1090 C   0  0  1  0  0  0  0  0  0  0  0  0
   27.2888  -19.7487   -7.7459 C   0  0  0  0  0  0  0  0  0  0  0  0
   27.9815  -19.7597   -6.4693 C   0  0  0  0  0  0  0  0  0  0  0  0
   27.6748  -18.7803   -5.5422 C   0  0  0  0  0  0  0  0  0  0  0  0
   28.2726  -18.7047   -4.2989 C   0  0  0  0  0  0  0  0  0  0  0  0
   29.2137  -19.6438   -3.9680 C   0  0  0  0  0  0  0  0  0  0  0  0
   29.5437  -20.6296   -4.8614 C   0  0  0  0  0  0  0  0  0  0  0  0
   28.9339  -20.6814   -6.0907 C   0  0  0  0  0  0  0  0  0  0  0  0
   25.4241  -21.1590   -7.1082 C   0  0  0  0  0  0  0  0  0  0  0  0
   24.0812  -20.9539   -7.3690 O   0  0  0  0  0  0  0  0  0  0  0  0
   25.7485  -21.5469   -5.9606 O   0  0  0  0  0  0  0  0  0  0  0  0
  2  1  1  0
  3  2  1  0
  3  9  1  0
  4  3  2  0
  6  8  1  0
  6  5  1  6
  7  6  1  0
  8  9  1  6
  8 10  1  0
 10 12  1  0
 11 10  2  0
 12 13  1  0
 13 14  1  1
 14 15  1  0
 15 16  2  0
 15 20  1  0
 16 17  1  0
 17 18  2  0
 19 18  1  0
 20 19  2  0
 21 13  1  0
 21 22  1  0
 23 21  2  0
M  END
$$$$
