GTF.pdb
     RDKit          3D

 23 23  0  0  1  0  0  0  0  0999 V2000
   26.0778  -23.8092  -16.5684 N   0  0  0  0  0  0  0  0  0  0  0  0
   25.6428  -23.8808  -15.2080 C   0  0  0  0  0  0  0  0  0  0  0  0
   26.0782  -22.6722  -14.4250 C   0  0  0  0  0  0  0  0  0  0  0  0
   27.0211  -21.9897  -14.8480 O   0  0  0  0  0  0  0  0  0  0  0  0
   24.3720  -19.8239  -14.0811 C   0  0  0  0  0  0  0  0  0  0  0  0
   24.4662  -20.2329  -12.6055 C   0  0  1  0  0  0  0  0  0  0  0  0
   23.3199  -20.8530  -12.1715 O   0  0  0  0  0  0  0  0  0  0  0  0
   25.7082  -21.0916  -12.4914 C   0  0  2  0  0  0  0  0  0  0  0  0
   25.4085  -22.3296  -13.2188 N   0  0  0  0  0  0  0  0  0  0  0  0
   25.9417  -21.4094  -11.0387 C   0  0  0  0  0  0  0  0  0  0  0  0
   25.6255  -22.5418  -10.5955 O   0  0  0  0  0  0  0  0  0  0  0  0
   26.5069  -20.4589  -10.1748 N   0  0  0  0  0  0  0  0  0  0  0  0
   26.7144  -20.6882   -8.7374 C   0  0  1  0  0  0  0  0  0  0  0  0
   27.6185  -19.6105   -8.2740 C   0  0  0  0  0  0  0  0  0  0  0  0
   27.9805  -19.5899   -6.8675 C   0  0  0  0  0  0  0  0  0  0  0  0
   28.0511  -18.3695   -6.2207 C   0  0  0  0  0  0  0  0  0  0  0  0
   28.3817  -18.2415   -4.8854 C   0  0  0  0  0  0  0  0  0  0  0  0
   28.6526  -19.3765   -4.1673 C   0  0  0  0  0  0  0  0  0  0  0  0
   28.5927  -20.6038   -4.7748 C   0  0  0  0  0  0  0  0  0  0  0  0
   28.2614  -20.7024   -6.1038 C   0  0  0  0  0  0  0  0  0  0  0  0
   25.4230  -20.6041   -8.0185 C   0  0  0  0  0  0  0  0  0  0  0  0
   25.1416  -21.3172   -6.8671 O   0  0  0  0  0  0  0  0  0  0  0  0
   24.5331  -19.8473   -8.4747 O   0  0  0  0  0  0  0  0  0  0  0  0
  2  1  1  0
  3  2  1  0
  3  9  1  0
  4  3  2  0
  6  8  1  0
  6  5  1  6
  7  6  1  0
  8  9  1  6
  8 10  1  0
 10 12  1  0
 11 10  2  0
 12 13  1  0
 13 14  1  1
 14 15  1  0
 15 16  2  0
 15 20  1  0
 16 17  1  0
 17 18  2  0
 19 18  1  0
 20 19  2  0
 21 13  1  0
 21 22  1  0
 23 21  2  0
M  END
$$$$
