GTF.pdb
     RDKit          3D

 23 23  0  0  1  0  0  0  0  0999 V2000
   18.7135  -12.8926  -17.1055 N   0  0  0  0  0  0  0  0  0  0  0  0
   19.2327  -11.6060  -17.4520 C   0  0  0  0  0  0  0  0  0  0  0  0
   19.8821  -10.9367  -16.2714 C   0  0  0  0  0  0  0  0  0  0  0  0
   19.3233  -10.9908  -15.1675 O   0  0  0  0  0  0  0  0  0  0  0  0
   23.1721  -11.4981  -14.9667 C   0  0  0  0  0  0  0  0  0  0  0  0
   23.2072  -10.0060  -15.3217 C   0  0  1  0  0  0  0  0  0  0  0  0
   23.8663   -9.7762  -16.5047 O   0  0  0  0  0  0  0  0  0  0  0  0
   21.7645   -9.5461  -15.3245 C   0  0  2  0  0  0  0  0  0  0  0  0
   21.1192  -10.2556  -16.4343 N   0  0  0  0  0  0  0  0  0  0  0  0
   21.7321   -8.0651  -15.5919 C   0  0  0  0  0  0  0  0  0  0  0  0
   21.6753   -7.6525  -16.7773 O   0  0  0  0  0  0  0  0  0  0  0  0
   21.7645   -7.1412  -14.5361 N   0  0  0  0  0  0  0  0  0  0  0  0
   21.7785   -5.6840  -14.7309 C   0  0  1  0  0  0  0  0  0  0  0  0
   20.3897   -5.3003  -15.0738 C   0  0  0  0  0  0  0  0  0  0  0  0
   20.1004   -3.8866  -15.2396 C   0  0  0  0  0  0  0  0  0  0  0  0
   20.5870   -3.2391  -16.3606 C   0  0  0  0  0  0  0  0  0  0  0  0
   20.3646   -1.8993  -16.6140 C   0  0  0  0  0  0  0  0  0  0  0  0
   19.6274   -1.1772  -15.7127 C   0  0  0  0  0  0  0  0  0  0  0  0
   19.1288   -1.7851  -14.5899 C   0  0  0  0  0  0  0  0  0  0  0  0
   19.3649   -3.1186  -14.3626 C   0  0  0  0  0  0  0  0  0  0  0  0
   22.1917   -5.0087  -13.4799 C   0  0  0  0  0  0  0  0  0  0  0  0
   22.8577   -3.7967  -13.4499 O   0  0  0  0  0  0  0  0  0  0  0  0
   21.9263   -5.5620  -12.3862 O   0  0  0  0  0  0  0  0  0  0  0  0
  2  1  1  0
  3  2  1  0
  3  9  1  0
  4  3  2  0
  6  8  1  0
  6  5  1  6
  7  6  1  0
  8  9  1  6
  8 10  1  0
 10 12  1  0
 11 10  2  0
 12 13  1  0
 13 14  1  1
 14 15  1  0
 15 16  2  0
 15 20  1  0
 16 17  1  0
 17 18  2  0
 19 18  1  0
 20 19  2  0
 21 13  1  0
 21 22  1  0
 23 21  2  0
M  END
$$$$
