GTF.pdb
     RDKit          3D

 23 23  0  0  1  0  0  0  0  0999 V2000
   15.4205  -13.7485  -15.2180 N   0  0  0  0  0  0  0  0  0  0  0  0
   15.5688  -12.3381  -15.4013 C   0  0  0  0  0  0  0  0  0  0  0  0
   17.0181  -11.9370  -15.4482 C   0  0  0  0  0  0  0  0  0  0  0  0
   17.8815  -12.7655  -15.1290 O   0  0  0  0  0  0  0  0  0  0  0  0
   19.0774  -11.1885  -18.0204 C   0  0  0  0  0  0  0  0  0  0  0  0
   19.1208   -9.8477  -17.2761 C   0  0  1  0  0  0  0  0  0  0  0  0
   18.3005   -8.9120  -17.8578 O   0  0  0  0  0  0  0  0  0  0  0  0
   18.7694  -10.1605  -15.8368 C   0  0  2  0  0  0  0  0  0  0  0  0
   17.3775  -10.6232  -15.8548 N   0  0  0  0  0  0  0  0  0  0  0  0
   18.8641   -8.8922  -15.0318 C   0  0  0  0  0  0  0  0  0  0  0  0
   17.8892   -8.1000  -15.0101 O   0  0  0  0  0  0  0  0  0  0  0  0
   20.0253   -8.5839  -14.3065 N   0  0  0  0  0  0  0  0  0  0  0  0
   20.2023   -7.3380  -13.5461 C   0  0  1  0  0  0  0  0  0  0  0  0
   21.6028   -7.3441  -13.0644 C   0  0  0  0  0  0  0  0  0  0  0  0
   22.6492   -7.0394  -14.0246 C   0  0  0  0  0  0  0  0  0  0  0  0
   23.3414   -8.0876  -14.6033 C   0  0  0  0  0  0  0  0  0  0  0  0
   24.3500   -7.9054  -15.5296 C   0  0  0  0  0  0  0  0  0  0  0  0
   24.6810   -6.6264  -15.8927 C   0  0  0  0  0  0  0  0  0  0  0  0
   24.0168   -5.5623  -15.3401 C   0  0  0  0  0  0  0  0  0  0  0  0
   23.0179   -5.7719  -14.4214 C   0  0  0  0  0  0  0  0  0  0  0  0
   19.9795   -6.1696  -14.4274 C   0  0  0  0  0  0  0  0  0  0  0  0
   20.0572   -6.2275  -15.8073 O   0  0  0  0  0  0  0  0  0  0  0  0
   19.7059   -5.0657  -13.8989 O   0  0  0  0  0  0  0  0  0  0  0  0
  2  1  1  0
  3  2  1  0
  3  9  1  0
  4  3  2  0
  6  8  1  0
  6  5  1  6
  7  6  1  0
  8  9  1  6
  8 10  1  0
 10 12  1  0
 11 10  2  0
 12 13  1  0
 13 14  1  6
 14 15  1  0
 15 16  2  0
 15 20  1  0
 16 17  1  0
 17 18  2  0
 19 18  1  0
 20 19  2  0
 21 13  1  0
 21 22  1  0
 23 21  2  0
M  END
$$$$
