GTF.pdb
     RDKit          3D

 23 23  0  0  1  0  0  0  0  0999 V2000
   29.7224  -22.4950  -17.8585 N   0  0  0  0  0  0  0  0  0  0  0  0
   28.4886  -22.5219  -17.1359 C   0  0  0  0  0  0  0  0  0  0  0  0
   28.5908  -21.7630  -15.8409 C   0  0  0  0  0  0  0  0  0  0  0  0
   29.6682  -21.7588  -15.2302 O   0  0  0  0  0  0  0  0  0  0  0  0
   28.0445  -18.3107  -15.1376 C   0  0  0  0  0  0  0  0  0  0  0  0
   26.9779  -18.9931  -14.2714 C   0  0  1  0  0  0  0  0  0  0  0  0
   25.7342  -18.9379  -14.8519 O   0  0  0  0  0  0  0  0  0  0  0  0
   27.4790  -20.4013  -14.0289 C   0  0  2  0  0  0  0  0  0  0  0  0
   27.4597  -21.0651  -15.3368 N   0  0  0  0  0  0  0  0  0  0  0  0
   26.5220  -21.0992  -13.0999 C   0  0  0  0  0  0  0  0  0  0  0  0
   25.7239  -21.9524  -13.5622 O   0  0  0  0  0  0  0  0  0  0  0  0
   26.5100  -20.8097  -11.7269 N   0  0  0  0  0  0  0  0  0  0  0  0
   25.5439  -21.3891  -10.7820 C   0  0  1  0  0  0  0  0  0  0  0  0
   26.3404  -21.9247   -9.6541 C   0  0  0  0  0  0  0  0  0  0  0  0
   26.9169  -20.9721   -8.7214 C   0  0  0  0  0  0  0  0  0  0  0  0
   28.2655  -21.0661   -8.4291 C   0  0  0  0  0  0  0  0  0  0  0  0
   28.9106  -20.2077   -7.5599 C   0  0  0  0  0  0  0  0  0  0  0  0
   28.1809  -19.2163   -6.9584 C   0  0  0  0  0  0  0  0  0  0  0  0
   26.8417  -19.0923   -7.2236 C   0  0  0  0  0  0  0  0  0  0  0  0
   26.2254  -19.9594   -8.0920 C   0  0  0  0  0  0  0  0  0  0  0  0
   24.6216  -20.3399  -10.2920 C   0  0  0  0  0  0  0  0  0  0  0  0
   23.4769  -20.6084   -9.5633 O   0  0  0  0  0  0  0  0  0  0  0  0
   24.8882  -19.1419  -10.5495 O   0  0  0  0  0  0  0  0  0  0  0  0
  2  1  1  0
  3  2  1  0
  3  9  1  0
  4  3  2  0
  6  8  1  0
  6  5  1  6
  7  6  1  0
  8  9  1  6
  8 10  1  0
 10 12  1  0
 11 10  2  0
 12 13  1  0
 13 14  1  1
 14 15  1  0
 15 16  2  0
 15 20  1  0
 16 17  1  0
 17 18  2  0
 19 18  1  0
 20 19  2  0
 21 13  1  0
 21 22  1  0
 23 21  2  0
M  END
$$$$
