GTF.pdb
     RDKit          3D

 23 23  0  0  1  0  0  0  0  0999 V2000
   22.0323  -13.2661  -18.3949 N   0  0  0  0  0  0  0  0  0  0  0  0
   21.0193  -12.2601  -18.4761 C   0  0  0  0  0  0  0  0  0  0  0  0
   21.6111  -10.8773  -18.4483 C   0  0  0  0  0  0  0  0  0  0  0  0
   22.8141  -10.7436  -18.1860 O   0  0  0  0  0  0  0  0  0  0  0  0
   20.9253   -6.1019  -19.4014 C   0  0  0  0  0  0  0  0  0  0  0  0
   20.4379   -7.5486  -19.5540 C   0  0  1  0  0  0  0  0  0  0  0  0
   20.4667   -7.9636  -20.8631 O   0  0  0  0  0  0  0  0  0  0  0  0
   21.3037   -8.3779  -18.6290 C   0  0  2  0  0  0  0  0  0  0  0  0
   20.7905   -9.7490  -18.7208 N   0  0  0  0  0  0  0  0  0  0  0  0
   21.1277   -7.8714  -17.2225 C   0  0  0  0  0  0  0  0  0  0  0  0
   20.0586   -8.1129  -16.6082 O   0  0  0  0  0  0  0  0  0  0  0  0
   22.1406   -7.1345  -16.5898 N   0  0  0  0  0  0  0  0  0  0  0  0
   22.0191   -6.5853  -15.2314 C   0  0  1  0  0  0  0  0  0  0  0  0
   22.6092   -7.5957  -14.3236 C   0  0  0  0  0  0  0  0  0  0  0  0
   23.8059   -8.2879  -14.7691 C   0  0  0  0  0  0  0  0  0  0  0  0
   23.9324   -9.6365  -14.4899 C   0  0  0  0  0  0  0  0  0  0  0  0
   25.0276  -10.3867  -14.8728 C   0  0  0  0  0  0  0  0  0  0  0  0
   26.0365   -9.7662  -15.5614 C   0  0  0  0  0  0  0  0  0  0  0  0
   25.9462   -8.4305  -15.8561 C   0  0  0  0  0  0  0  0  0  0  0  0
   24.8461   -7.7084  -15.4635 C   0  0  0  0  0  0  0  0  0  0  0  0
   22.7735   -5.3157  -15.1280 C   0  0  0  0  0  0  0  0  0  0  0  0
   22.7913   -4.5278  -13.9911 O   0  0  0  0  0  0  0  0  0  0  0  0
   23.4330   -4.9295  -16.1223 O   0  0  0  0  0  0  0  0  0  0  0  0
  2  1  1  0
  3  2  1  0
  3  9  1  0
  4  3  2  0
  6  8  1  0
  6  5  1  6
  7  6  1  0
  8  9  1  1
  8 10  1  0
 10 12  1  0
 11 10  2  0
 12 13  1  0
 13 14  1  1
 14 15  1  0
 15 16  2  0
 15 20  1  0
 16 17  1  0
 17 18  2  0
 19 18  1  0
 20 19  2  0
 21 13  1  0
 21 22  1  0
 23 21  2  0
M  END
$$$$
