GTF.pdb
     RDKit          3D

 23 23  0  0  1  0  0  0  0  0999 V2000
   27.4285  -19.7865  -16.3248 N   0  0  0  0  0  0  0  0  0  0  0  0
   26.9700  -20.7321  -15.3549 C   0  0  0  0  0  0  0  0  0  0  0  0
   26.2876  -20.0512  -14.1999 C   0  0  0  0  0  0  0  0  0  0  0  0
   25.4736  -19.1469  -14.4311 O   0  0  0  0  0  0  0  0  0  0  0  0
   23.8269  -20.0008  -13.2836 C   0  0  0  0  0  0  0  0  0  0  0  0
   24.3664  -20.7315  -12.0472 C   0  0  1  0  0  0  0  0  0  0  0  0
   24.4243  -22.0903  -12.2398 O   0  0  0  0  0  0  0  0  0  0  0  0
   25.7077  -20.0980  -11.7432 C   0  0  2  0  0  0  0  0  0  0  0  0
   26.5818  -20.4496  -12.8675 N   0  0  0  0  0  0  0  0  0  0  0  0
   26.2514  -20.7062  -10.4781 C   0  0  0  0  0  0  0  0  0  0  0  0
   26.6233  -21.9063  -10.4799 O   0  0  0  0  0  0  0  0  0  0  0  0
   26.3481  -19.9512   -9.2991 N   0  0  0  0  0  0  0  0  0  0  0  0
   26.9118  -20.4711   -8.0446 C   0  0  1  0  0  0  0  0  0  0  0  0
   27.6293  -19.3390   -7.4145 C   0  0  0  0  0  0  0  0  0  0  0  0
   28.2352  -19.5629   -6.1135 C   0  0  0  0  0  0  0  0  0  0  0  0
   27.8724  -18.7380   -5.0643 C   0  0  0  0  0  0  0  0  0  0  0  0
   28.3862  -18.8697   -3.7887 C   0  0  0  0  0  0  0  0  0  0  0  0
   29.2984  -19.8639   -3.5508 C   0  0  0  0  0  0  0  0  0  0  0  0
   29.6822  -20.7008   -4.5664 C   0  0  0  0  0  0  0  0  0  0  0  0
   29.1555  -20.5477   -5.8253 C   0  0  0  0  0  0  0  0  0  0  0  0
   25.8244  -20.9349   -7.1535 C   0  0  0  0  0  0  0  0  0  0  0  0
   24.4820  -20.7250   -7.4129 O   0  0  0  0  0  0  0  0  0  0  0  0
   26.1323  -21.5513   -6.1056 O   0  0  0  0  0  0  0  0  0  0  0  0
  2  1  1  0
  3  2  1  0
  3  9  1  0
  4  3  2  0
  6  8  1  0
  6  5  1  6
  7  6  1  0
  8  9  1  6
  8 10  1  0
 10 12  1  0
 11 10  2  0
 12 13  1  0
 13 14  1  1
 14 15  1  0
 15 16  2  0
 15 20  1  0
 16 17  1  0
 17 18  2  0
 19 18  1  0
 20 19  2  0
 21 13  1  0
 21 22  1  0
 23 21  2  0
M  END
$$$$
