GTF.pdb
     RDKit          3D

 23 23  0  0  1  0  0  0  0  0999 V2000
   16.4282  -13.0363  -15.3451 N   0  0  0  0  0  0  0  0  0  0  0  0
   17.8096  -12.6682  -15.3802 C   0  0  0  0  0  0  0  0  0  0  0  0
   17.9855  -11.2192  -15.7446 C   0  0  0  0  0  0  0  0  0  0  0  0
   17.8590  -10.8775  -16.9282 O   0  0  0  0  0  0  0  0  0  0  0  0
   15.9670   -8.5274  -14.5612 C   0  0  0  0  0  0  0  0  0  0  0  0
   17.3706   -8.1844  -14.0456 C   0  0  1  0  0  0  0  0  0  0  0  0
   17.5479   -8.5781  -12.7416 O   0  0  0  0  0  0  0  0  0  0  0  0
   18.3381   -8.8276  -15.0168 C   0  0  2  0  0  0  0  0  0  0  0  0
   18.2924  -10.2664  -14.7352 N   0  0  0  0  0  0  0  0  0  0  0  0
   19.7216   -8.3065  -14.7338 C   0  0  0  0  0  0  0  0  0  0  0  0
   20.4526   -8.9105  -13.9095 O   0  0  0  0  0  0  0  0  0  0  0  0
   20.2046   -7.1570  -15.3779 N   0  0  0  0  0  0  0  0  0  0  0  0
   21.5589   -6.6211  -15.1775 C   0  0  1  0  0  0  0  0  0  0  0  0
   21.9603   -6.0204  -16.4704 C   0  0  0  0  0  0  0  0  0  0  0  0
   23.1857   -5.2412  -16.5022 C   0  0  0  0  0  0  0  0  0  0  0  0
   24.3938   -5.9111  -16.5686 C   0  0  0  0  0  0  0  0  0  0  0  0
   25.6139   -5.2642  -16.6078 C   0  0  0  0  0  0  0  0  0  0  0  0
   25.6288   -3.8945  -16.5795 C   0  0  0  0  0  0  0  0  0  0  0  0
   24.4510   -3.1963  -16.5137 C   0  0  0  0  0  0  0  0  0  0  0  0
   23.2520   -3.8646  -16.4759 C   0  0  0  0  0  0  0  0  0  0  0  0
   21.5424   -5.5810  -14.1241 C   0  0  0  0  0  0  0  0  0  0  0  0
   22.6072   -5.3355  -13.2759 O   0  0  0  0  0  0  0  0  0  0  0  0
   20.5093   -4.8830  -13.9894 O   0  0  0  0  0  0  0  0  0  0  0  0
  2  1  1  0
  3  2  1  0
  3  9  1  0
  4  3  2  0
  6  8  1  0
  6  5  1  6
  7  6  1  0
  8  9  1  1
  8 10  1  0
 10 12  1  0
 11 10  2  0
 12 13  1  0
 13 14  1  6
 14 15  1  0
 15 16  2  0
 15 20  1  0
 16 17  1  0
 17 18  2  0
 19 18  1  0
 20 19  2  0
 21 13  1  0
 21 22  1  0
 23 21  2  0
M  END
$$$$
