GTF.pdb
     RDKit          3D

 23 23  0  0  1  0  0  0  0  0999 V2000
   14.7730  -12.7500  -15.2968 N   0  0  0  0  0  0  0  0  0  0  0  0
   16.0758  -12.6999  -14.7092 C   0  0  0  0  0  0  0  0  0  0  0  0
   16.9102  -11.6015  -15.3097 C   0  0  0  0  0  0  0  0  0  0  0  0
   17.6718  -11.8703  -16.2486 O   0  0  0  0  0  0  0  0  0  0  0  0
   17.7908   -6.7521  -15.4275 C   0  0  0  0  0  0  0  0  0  0  0  0
   16.9243   -7.9045  -14.9034 C   0  0  1  0  0  0  0  0  0  0  0  0
   15.6223   -7.8011  -15.3288 O   0  0  0  0  0  0  0  0  0  0  0  0
   17.6145   -9.1774  -15.3465 C   0  0  2  0  0  0  0  0  0  0  0  0
   16.8162  -10.2788  -14.7976 N   0  0  0  0  0  0  0  0  0  0  0  0
   18.9938   -9.2114  -14.7446 C   0  0  0  0  0  0  0  0  0  0  0  0
   19.1217   -9.2743  -13.4963 O   0  0  0  0  0  0  0  0  0  0  0  0
   20.1364   -9.1739  -15.5585 N   0  0  0  0  0  0  0  0  0  0  0  0
   21.5093   -9.1598  -15.0325 C   0  0  1  0  0  0  0  0  0  0  0  0
   22.3388   -9.8806  -16.0253 C   0  0  0  0  0  0  0  0  0  0  0  0
   23.7618   -9.9986  -15.7590 C   0  0  0  0  0  0  0  0  0  0  0  0
   24.6282   -9.1295  -16.3968 C   0  0  0  0  0  0  0  0  0  0  0  0
   25.9967   -9.1557  -16.2093 C   0  0  0  0  0  0  0  0  0  0  0  0
   26.5212  -10.0862  -15.3513 C   0  0  0  0  0  0  0  0  0  0  0  0
   25.6934  -10.9643  -14.7013 C   0  0  0  0  0  0  0  0  0  0  0  0
   24.3364  -10.9163  -14.9060 C   0  0  0  0  0  0  0  0  0  0  0  0
   21.9866   -7.7650  -14.8973 C   0  0  0  0  0  0  0  0  0  0  0  0
   22.8110   -7.3354  -13.8729 O   0  0  0  0  0  0  0  0  0  0  0  0
   21.6261   -6.9240  -15.7549 O   0  0  0  0  0  0  0  0  0  0  0  0
  2  1  1  0
  3  2  1  0
  3  9  1  0
  4  3  2  0
  6  8  1  0
  6  5  1  6
  7  6  1  0
  8  9  1  1
  8 10  1  0
 10 12  1  0
 11 10  2  0
 12 13  1  0
 13 14  1  6
 14 15  1  0
 15 16  2  0
 15 20  1  0
 16 17  1  0
 17 18  2  0
 19 18  1  0
 20 19  2  0
 21 13  1  0
 21 22  1  0
 23 21  2  0
M  END
$$$$
