GTF.pdb
     RDKit          3D

 23 23  0  0  1  0  0  0  0  0999 V2000
   32.2336  -33.1225  -17.0244 N   0  0  0  0  0  0  0  0  0  0  0  0
   31.4333  -31.9375  -17.0090 C   0  0  0  0  0  0  0  0  0  0  0  0
   29.9731  -32.2552  -17.1828 C   0  0  0  0  0  0  0  0  0  0  0  0
   29.6251  -33.4382  -17.2982 O   0  0  0  0  0  0  0  0  0  0  0  0
   28.0128  -33.3136  -15.5272 C   0  0  0  0  0  0  0  0  0  0  0  0
   27.4119  -31.9041  -15.6021 C   0  0  1  0  0  0  0  0  0  0  0  0
   27.9802  -31.0553  -14.6837 O   0  0  0  0  0  0  0  0  0  0  0  0
   27.5827  -31.4560  -17.0385 C   0  0  2  0  0  0  0  0  0  0  0  0
   29.0171  -31.2036  -17.2124 N   0  0  0  0  0  0  0  0  0  0  0  0
   26.8218  -30.1722  -17.2357 C   0  0  0  0  0  0  0  0  0  0  0  0
   27.4221  -29.0745  -17.1213 O   0  0  0  0  0  0  0  0  0  0  0  0
   25.4531  -30.1860  -17.5452 N   0  0  0  0  0  0  0  0  0  0  0  0
   24.6414  -28.9694  -17.6966 C   0  0  1  0  0  0  0  0  0  0  0  0
   23.8846  -29.1329  -18.9591 C   0  0  0  0  0  0  0  0  0  0  0  0
   23.0233  -30.2958  -19.0851 C   0  0  0  0  0  0  0  0  0  0  0  0
   23.5253  -31.4265  -19.7034 C   0  0  0  0  0  0  0  0  0  0  0  0
   22.7906  -32.5846  -19.8695 C   0  0  0  0  0  0  0  0  0  0  0  0
   21.5037  -32.6153  -19.4001 C   0  0  0  0  0  0  0  0  0  0  0  0
   20.9720  -31.5134  -18.7819 C   0  0  0  0  0  0  0  0  0  0  0  0
   21.7247  -30.3750  -18.6299 C   0  0  0  0  0  0  0  0  0  0  0  0
   23.7011  -28.8421  -16.5603 C   0  0  0  0  0  0  0  0  0  0  0  0
   22.9793  -27.6932  -16.2908 O   0  0  0  0  0  0  0  0  0  0  0  0
   23.5481  -29.8260  -15.7979 O   0  0  0  0  0  0  0  0  0  0  0  0
  2  1  1  0
  3  2  1  0
  3  9  1  0
  4  3  2  0
  6  8  1  0
  6  5  1  6
  7  6  1  0
  8  9  1  1
  8 10  1  0
 10 12  1  0
 11 10  2  0
 12 13  1  0
 13 14  1  6
 14 15  1  0
 15 16  2  0
 15 20  1  0
 16 17  1  0
 17 18  2  0
 19 18  1  0
 20 19  2  0
 21 13  1  0
 21 22  1  0
 23 21  2  0
M  END
$$$$
