GTF.pdb
     RDKit          3D

 23 23  0  0  1  0  0  0  0  0999 V2000
   26.4090  -25.3403  -15.5273 N   0  0  0  0  0  0  0  0  0  0  0  0
   25.4173  -24.3632  -15.2002 C   0  0  0  0  0  0  0  0  0  0  0  0
   26.0343  -23.1323  -14.5939 C   0  0  0  0  0  0  0  0  0  0  0  0
   26.8700  -22.4943  -15.2484 O   0  0  0  0  0  0  0  0  0  0  0  0
   25.2174  -19.0870  -12.6570 C   0  0  0  0  0  0  0  0  0  0  0  0
   24.9220  -20.4550  -13.2853 C   0  0  1  0  0  0  0  0  0  0  0  0
   24.8589  -20.3865  -14.6558 O   0  0  0  0  0  0  0  0  0  0  0  0
   25.9946  -21.3900  -12.7672 C   0  0  2  0  0  0  0  0  0  0  0  0
   25.6547  -22.7185  -13.2880 N   0  0  0  0  0  0  0  0  0  0  0  0
   25.9294  -21.4108  -11.2635 C   0  0  0  0  0  0  0  0  0  0  0  0
   24.9469  -21.9497  -10.6952 O   0  0  0  0  0  0  0  0  0  0  0  0
   26.9500  -20.8371  -10.4899 N   0  0  0  0  0  0  0  0  0  0  0  0
   26.9425  -20.8174   -9.0197 C   0  0  1  0  0  0  0  0  0  0  0  0
   28.0731  -19.9514   -8.6131 C   0  0  0  0  0  0  0  0  0  0  0  0
   28.3273  -19.7947   -7.1916 C   0  0  0  0  0  0  0  0  0  0  0  0
   29.1074  -20.7403   -6.5512 C   0  0  0  0  0  0  0  0  0  0  0  0
   29.4117  -20.6809   -5.2049 C   0  0  0  0  0  0  0  0  0  0  0  0
   28.9177  -19.6364   -4.4686 C   0  0  0  0  0  0  0  0  0  0  0  0
   28.1406  -18.6801   -5.0691 C   0  0  0  0  0  0  0  0  0  0  0  0
   27.8536  -18.7634   -6.4094 C   0  0  0  0  0  0  0  0  0  0  0  0
   25.6693  -20.2456   -8.5264 C   0  0  0  0  0  0  0  0  0  0  0  0
   24.9331  -20.7977   -7.4935 O   0  0  0  0  0  0  0  0  0  0  0  0
   25.2302  -19.2051   -9.0716 O   0  0  0  0  0  0  0  0  0  0  0  0
  2  1  1  0
  3  2  1  0
  3  9  1  0
  4  3  2  0
  6  8  1  0
  6  5  1  1
  7  6  1  0
  8  9  1  6
  8 10  1  0
 10 12  1  0
 11 10  2  0
 12 13  1  0
 13 14  1  6
 14 15  1  0
 15 16  2  0
 15 20  1  0
 16 17  1  0
 17 18  2  0
 19 18  1  0
 20 19  2  0
 21 13  1  0
 21 22  1  0
 23 21  2  0
M  END
$$$$
