GTF.pdb
     RDKit          3D

 23 23  0  0  1  0  0  0  0  0999 V2000
   18.6233  -12.5548  -16.8115 N   0  0  0  0  0  0  0  0  0  0  0  0
   19.0474  -11.8439  -15.6455 C   0  0  0  0  0  0  0  0  0  0  0  0
   19.4300  -10.4260  -15.9722 C   0  0  0  0  0  0  0  0  0  0  0  0
   20.3494  -10.2217  -16.7765 O   0  0  0  0  0  0  0  0  0  0  0  0
   16.9743   -7.8296  -17.0335 C   0  0  0  0  0  0  0  0  0  0  0  0
   17.6656   -7.2653  -15.7856 C   0  0  1  0  0  0  0  0  0  0  0  0
   16.8989   -7.4278  -14.6575 O   0  0  0  0  0  0  0  0  0  0  0  0
   19.0146   -7.9492  -15.7135 C   0  0  2  0  0  0  0  0  0  0  0  0
   18.7383   -9.3457  -15.3597 N   0  0  0  0  0  0  0  0  0  0  0  0
   19.8221   -7.3064  -14.6178 C   0  0  0  0  0  0  0  0  0  0  0  0
   19.6684   -7.6896  -13.4311 O   0  0  0  0  0  0  0  0  0  0  0  0
   20.7425   -6.2866  -14.9043 N   0  0  0  0  0  0  0  0  0  0  0  0
   21.5862   -5.6431  -13.8864 C   0  0  1  0  0  0  0  0  0  0  0  0
   22.9761   -6.0644  -14.1764 C   0  0  0  0  0  0  0  0  0  0  0  0
   23.4797   -5.8528  -15.5222 C   0  0  0  0  0  0  0  0  0  0  0  0
   23.3367   -6.8692  -16.4492 C   0  0  0  0  0  0  0  0  0  0  0  0
   23.7768   -6.7670  -17.7547 C   0  0  0  0  0  0  0  0  0  0  0  0
   24.3839   -5.6044  -18.1508 C   0  0  0  0  0  0  0  0  0  0  0  0
   24.5434   -4.5751  -17.2596 C   0  0  0  0  0  0  0  0  0  0  0  0
   24.0964   -4.7033  -15.9676 C   0  0  0  0  0  0  0  0  0  0  0  0
   21.4752   -4.1707  -13.9922 C   0  0  0  0  0  0  0  0  0  0  0  0
   20.7774   -3.5273  -14.9985 O   0  0  0  0  0  0  0  0  0  0  0  0
   22.0433   -3.4646  -13.1254 O   0  0  0  0  0  0  0  0  0  0  0  0
  2  1  1  0
  3  2  1  0
  3  9  1  0
  4  3  2  0
  6  8  1  0
  6  5  1  6
  7  6  1  0
  8  9  1  1
  8 10  1  0
 10 12  1  0
 11 10  2  0
 12 13  1  0
 13 14  1  6
 14 15  1  0
 15 16  2  0
 15 20  1  0
 16 17  1  0
 17 18  2  0
 19 18  1  0
 20 19  2  0
 21 13  1  0
 21 22  1  0
 23 21  2  0
M  END
$$$$
