SHS.pdb
     RDKit          3D

 23 23  0  0  1  0  0  0  0  0999 V2000
   25.7595  -11.9887  -19.1257 O   0  0  0  0  0  0  0  0  0  0  0  0
   24.7854  -11.0098  -18.9401 C   0  0  0  0  0  0  0  0  0  0  0  0
   23.5064  -11.6276  -18.4131 C   0  0  2  0  0  0  0  0  0  0  0  0
   22.9147  -12.3991  -19.4539 N   0  0  0  0  0  0  0  0  0  0  0  0
   22.6267  -10.5450  -17.9087 C   0  0  0  0  0  0  0  0  0  0  0  0
   21.9825   -9.8316  -18.7197 O   0  0  0  0  0  0  0  0  0  0  0  0
   22.4641  -10.2585  -16.5297 N   0  0  0  0  0  0  0  0  0  0  0  0
   21.5103   -9.2936  -16.0177 C   0  0  1  0  0  0  0  0  0  0  0  0
   20.7060   -9.8742  -14.8709 C   0  0  0  0  0  0  0  0  0  0  0  0
   19.6574  -10.8039  -15.3411 C   0  0  0  0  0  0  0  0  0  0  0  0
   19.0130  -10.7330  -16.5595 C   0  0  0  0  0  0  0  0  0  0  0  0
   18.1129  -11.7436  -16.6556 N   0  0  0  0  0  0  0  0  0  0  0  0
   18.1860  -12.4415  -15.5192 C   0  0  0  0  0  0  0  0  0  0  0  0
   19.1184  -11.8750  -14.7247 N   0  0  0  0  0  0  0  0  0  0  0  0
   22.2191   -8.0895  -15.4649 C   0  0  0  0  0  0  0  0  0  0  0  0
   23.2846   -8.2851  -14.8253 O   0  0  0  0  0  0  0  0  0  0  0  0
   22.8219   -4.8335  -17.4453 O   0  0  0  0  0  0  0  0  0  0  0  0
   22.3634   -4.5038  -16.1825 C   0  0  0  0  0  0  0  0  0  0  0  0
   22.5701   -5.6649  -15.2040 C   0  0  2  0  0  0  0  0  0  0  0  0
   21.7479   -6.7803  -15.6310 N   0  0  0  0  0  0  0  0  0  0  0  0
   22.2521   -5.2741  -13.8309 C   0  0  0  0  0  0  0  0  0  0  0  0
   23.1954   -4.6616  -13.0343 O   0  0  0  0  0  0  0  0  0  0  0  0
   21.1121   -5.4916  -13.3566 O   0  0  0  0  0  0  0  0  0  0  0  0
  1  2  1  0
  2  3  1  0
  3  4  1  6
  5  3  1  0
  6  5  2  0
  7  5  1  0
  8  7  1  0
  8  9  1  1
 10  9  1  0
 10 11  2  0
 12 11  1  0
 13 12  1  0
 14 13  2  0
 14 10  1  0
 15  8  1  0
 16 15  2  0
 19 18  1  6
 18 17  1  0
 19 20  1  0
 20 15  1  0
 21 22  1  0
 21 19  1  0
 23 21  2  0
M  END
$$$$
