SHS.pdb
     RDKit          3D

 23 23  0  0  1  0  0  0  0  0999 V2000
   20.7998  -11.4671  -19.6509 O   0  0  0  0  0  0  0  0  0  0  0  0
   22.1193  -11.4923  -20.0979 C   0  0  0  0  0  0  0  0  0  0  0  0
   23.0314  -12.0540  -19.0265 C   0  0  2  0  0  0  0  0  0  0  0  0
   22.5990  -13.3739  -18.7111 N   0  0  0  0  0  0  0  0  0  0  0  0
   23.0200  -11.1358  -17.8615 C   0  0  0  0  0  0  0  0  0  0  0  0
   22.6041  -11.5427  -16.7465 O   0  0  0  0  0  0  0  0  0  0  0  0
   23.4618   -9.7905  -17.9314 N   0  0  0  0  0  0  0  0  0  0  0  0
   23.4031   -8.8675  -16.8144 C   0  0  1  0  0  0  0  0  0  0  0  0
   24.7260   -8.1509  -16.6261 C   0  0  0  0  0  0  0  0  0  0  0  0
   25.8145   -9.0800  -16.2556 C   0  0  0  0  0  0  0  0  0  0  0  0
   26.0882   -9.5225  -14.9773 C   0  0  0  0  0  0  0  0  0  0  0  0
   27.1533  -10.3624  -15.0069 N   0  0  0  0  0  0  0  0  0  0  0  0
   27.5466  -10.4502  -16.2802 C   0  0  0  0  0  0  0  0  0  0  0  0
   26.7389   -9.6762  -17.0352 N   0  0  0  0  0  0  0  0  0  0  0  0
   22.3787   -7.7970  -17.0645 C   0  0  0  0  0  0  0  0  0  0  0  0
   22.3576   -7.2679  -18.2056 O   0  0  0  0  0  0  0  0  0  0  0  0
   18.6744   -8.0264  -16.0026 O   0  0  0  0  0  0  0  0  0  0  0  0
   19.1556   -6.7761  -15.6577 C   0  0  0  0  0  0  0  0  0  0  0  0
   20.4176   -6.4349  -16.4571 C   0  0  2  0  0  0  0  0  0  0  0  0
   21.4620   -7.3726  -16.0933 N   0  0  0  0  0  0  0  0  0  0  0  0
   20.8458   -5.0561  -16.2237 C   0  0  0  0  0  0  0  0  0  0  0  0
   20.0456   -3.9960  -16.5916 O   0  0  0  0  0  0  0  0  0  0  0  0
   21.9516   -4.8174  -15.6832 O   0  0  0  0  0  0  0  0  0  0  0  0
  1  2  1  0
  2  3  1  0
  3  4  1  1
  5  3  1  0
  6  5  2  0
  7  5  1  0
  8  7  1  0
  8  9  1  6
 10  9  1  0
 10 11  2  0
 12 11  1  0
 13 12  1  0
 14 13  2  0
 14 10  1  0
 15  8  1  0
 16 15  2  0
 19 18  1  1
 18 17  1  0
 19 20  1  0
 20 15  1  0
 21 22  1  0
 21 19  1  0
 23 21  2  0
M  END
$$$$
