SHS.pdb
     RDKit          3D

 23 23  0  0  1  0  0  0  0  0999 V2000
   22.5055  -12.1103  -21.4795 O   0  0  0  0  0  0  0  0  0  0  0  0
   22.3518  -11.6420  -20.1762 C   0  0  0  0  0  0  0  0  0  0  0  0
   23.6472  -11.0383  -19.6735 C   0  0  2  0  0  0  0  0  0  0  0  0
   24.6019  -12.0835  -19.5161 N   0  0  0  0  0  0  0  0  0  0  0  0
   23.3722  -10.2973  -18.4183 C   0  0  0  0  0  0  0  0  0  0  0  0
   23.0440  -10.9246  -17.3788 O   0  0  0  0  0  0  0  0  0  0  0  0
   23.4595   -8.8858  -18.3172 N   0  0  0  0  0  0  0  0  0  0  0  0
   23.1352   -8.1460  -17.1129 C   0  0  1  0  0  0  0  0  0  0  0  0
   24.3752   -7.5225  -16.5026 C   0  0  0  0  0  0  0  0  0  0  0  0
   25.3294   -8.5417  -16.0171 C   0  0  0  0  0  0  0  0  0  0  0  0
   26.5908   -8.7657  -16.5303 C   0  0  0  0  0  0  0  0  0  0  0  0
   27.1865   -9.7738  -15.8450 N   0  0  0  0  0  0  0  0  0  0  0  0
   26.3184  -10.1806  -14.9152 C   0  0  0  0  0  0  0  0  0  0  0  0
   25.1966   -9.4374  -15.0181 N   0  0  0  0  0  0  0  0  0  0  0  0
   22.2040   -7.0084  -17.4241 C   0  0  0  0  0  0  0  0  0  0  0  0
   22.4320   -6.3388  -18.4645 O   0  0  0  0  0  0  0  0  0  0  0  0
   18.4313   -7.2263  -17.5389 O   0  0  0  0  0  0  0  0  0  0  0  0
   18.7556   -6.1273  -16.7636 C   0  0  0  0  0  0  0  0  0  0  0  0
   20.1814   -5.6498  -17.0589 C   0  0  2  0  0  0  0  0  0  0  0  0
   21.1111   -6.6702  -16.6150 N   0  0  0  0  0  0  0  0  0  0  0  0
   20.4633   -4.3673  -16.4150 C   0  0  0  0  0  0  0  0  0  0  0  0
   19.7230   -3.2456  -16.7205 O   0  0  0  0  0  0  0  0  0  0  0  0
   21.3864   -4.2691  -15.5723 O   0  0  0  0  0  0  0  0  0  0  0  0
  1  2  1  0
  2  3  1  0
  3  4  1  1
  5  3  1  0
  6  5  2  0
  7  5  1  0
  8  7  1  0
  8  9  1  6
 10  9  1  0
 10 11  2  0
 12 11  1  0
 13 12  1  0
 14 13  2  0
 14 10  1  0
 15  8  1  0
 16 15  2  0
 19 18  1  1
 18 17  1  0
 19 20  1  0
 20 15  1  0
 21 22  1  0
 21 19  1  0
 23 21  2  0
M  END
$$$$
