SHS.pdb
     RDKit          3D

 23 23  0  0  1  0  0  0  0  0999 V2000
   14.5106  -12.0461   -9.9261 O   0  0  0  0  0  0  0  0  0  0  0  0
   14.9175  -10.8580  -10.5299 C   0  0  0  0  0  0  0  0  0  0  0  0
   14.6026   -9.6748   -9.6375 C   0  0  2  0  0  0  0  0  0  0  0  0
   13.1875   -9.5485   -9.5370 N   0  0  0  0  0  0  0  0  0  0  0  0
   15.2640   -8.4691  -10.1936 C   0  0  0  0  0  0  0  0  0  0  0  0
   14.8271   -7.9454  -11.2503 O   0  0  0  0  0  0  0  0  0  0  0  0
   16.3897   -7.8550   -9.5889 N   0  0  0  0  0  0  0  0  0  0  0  0
   16.9914   -6.6279  -10.0740 C   0  0  1  0  0  0  0  0  0  0  0  0
   17.1509   -5.6168   -8.9554 C   0  0  0  0  0  0  0  0  0  0  0  0
   15.8786   -4.9360   -8.6348 C   0  0  0  0  0  0  0  0  0  0  0  0
   14.6676   -5.1706   -9.2539 C   0  0  0  0  0  0  0  0  0  0  0  0
   13.7174   -4.3702   -8.7087 N   0  0  0  0  0  0  0  0  0  0  0  0
   14.3156   -3.6423   -7.7621 C   0  0  0  0  0  0  0  0  0  0  0  0
   15.6206   -3.9832   -7.7165 N   0  0  0  0  0  0  0  0  0  0  0  0
   18.3733   -6.8883  -10.6036 C   0  0  0  0  0  0  0  0  0  0  0  0
   19.1413   -7.5950   -9.9012 O   0  0  0  0  0  0  0  0  0  0  0  0
   21.0926   -7.9939  -14.1940 O   0  0  0  0  0  0  0  0  0  0  0  0
   19.8945   -7.5435  -13.6691 C   0  0  0  0  0  0  0  0  0  0  0  0
   20.1183   -6.8124  -12.3411 C   0  0  2  0  0  0  0  0  0  0  0  0
   18.8318   -6.3836  -11.8278 N   0  0  0  0  0  0  0  0  0  0  0  0
   21.0254   -5.6760  -12.4991 C   0  0  0  0  0  0  0  0  0  0  0  0
   22.3854   -5.8299  -12.3369 O   0  0  0  0  0  0  0  0  0  0  0  0
   20.5772   -4.5407  -12.7855 O   0  0  0  0  0  0  0  0  0  0  0  0
  1  2  1  0
  2  3  1  0
  3  4  1  6
  5  3  1  0
  6  5  2  0
  7  5  1  0
  8  7  1  0
  8  9  1  1
 10  9  1  0
 10 11  2  0
 12 11  1  0
 13 12  1  0
 14 13  2  0
 14 10  1  0
 15  8  1  0
 16 15  2  0
 19 18  1  6
 18 17  1  0
 19 20  1  0
 20 15  1  0
 21 22  1  0
 21 19  1  0
 23 21  2  0
M  END
$$$$
