SHS.pdb
     RDKit          3D

 23 23  0  0  1  0  0  0  0  0999 V2000
   18.9512  -11.2600  -15.9175 O   0  0  0  0  0  0  0  0  0  0  0  0
   19.6561  -11.4017  -17.1111 C   0  0  0  0  0  0  0  0  0  0  0  0
   21.0598  -11.9040  -16.8415 C   0  0  2  0  0  0  0  0  0  0  0  0
   20.9704  -13.1451  -16.1485 N   0  0  0  0  0  0  0  0  0  0  0  0
   21.8029  -10.8622  -16.0913 C   0  0  0  0  0  0  0  0  0  0  0  0
   21.7350  -10.8248  -14.8361 O   0  0  0  0  0  0  0  0  0  0  0  0
   22.6071   -9.8794  -16.7216 N   0  0  0  0  0  0  0  0  0  0  0  0
   23.2715   -8.8069  -16.0065 C   0  0  1  0  0  0  0  0  0  0  0  0
   24.6269   -8.5013  -16.6135 C   0  0  0  0  0  0  0  0  0  0  0  0
   25.6225   -9.5507  -16.3091 C   0  0  0  0  0  0  0  0  0  0  0  0
   25.4804  -10.5348  -15.3520 C   0  0  0  0  0  0  0  0  0  0  0  0
   26.5844  -11.3234  -15.3454 N   0  0  0  0  0  0  0  0  0  0  0  0
   27.4102  -10.8475  -16.2809 C   0  0  0  0  0  0  0  0  0  0  0  0
   26.8304   -9.7770  -16.8635 N   0  0  0  0  0  0  0  0  0  0  0  0
   22.4753   -7.5358  -16.0980 C   0  0  0  0  0  0  0  0  0  0  0  0
   21.7431   -7.3801  -17.1091 O   0  0  0  0  0  0  0  0  0  0  0  0
   20.8367   -3.4751  -14.0607 O   0  0  0  0  0  0  0  0  0  0  0  0
   21.5169   -4.6731  -13.9344 C   0  0  0  0  0  0  0  0  0  0  0  0
   21.7453   -5.3206  -15.3044 C   0  0  2  0  0  0  0  0  0  0  0  0
   22.5158   -6.5347  -15.1183 N   0  0  0  0  0  0  0  0  0  0  0  0
   22.4204   -4.4067  -16.2253 C   0  0  0  0  0  0  0  0  0  0  0  0
   21.6969   -3.5655  -17.0429 O   0  0  0  0  0  0  0  0  0  0  0  0
   23.6724   -4.3751  -16.2848 O   0  0  0  0  0  0  0  0  0  0  0  0
  1  2  1  0
  2  3  1  0
  3  4  1  1
  5  3  1  0
  6  5  2  0
  7  5  1  0
  8  7  1  0
  8  9  1  6
 10  9  1  0
 10 11  2  0
 12 11  1  0
 13 12  1  0
 14 13  2  0
 14 10  1  0
 15  8  1  0
 16 15  2  0
 19 18  1  1
 18 17  1  0
 19 20  1  0
 20 15  1  0
 21 22  1  0
 21 19  1  0
 23 21  2  0
M  END
$$$$
