SHS.pdb
     RDKit          3D

 23 23  0  0  1  0  0  0  0  0999 V2000
   18.2479  -12.6337  -14.7972 O   0  0  0  0  0  0  0  0  0  0  0  0
   18.9045  -11.4620  -15.1683 C   0  0  0  0  0  0  0  0  0  0  0  0
   18.4394  -11.0039  -16.5355 C   0  0  2  0  0  0  0  0  0  0  0  0
   18.9439  -11.9100  -17.5117 N   0  0  0  0  0  0  0  0  0  0  0  0
   18.8830   -9.6041  -16.7455 C   0  0  0  0  0  0  0  0  0  0  0  0
   19.9159   -9.3687  -17.4233 O   0  0  0  0  0  0  0  0  0  0  0  0
   18.1938   -8.4852  -16.2135 N   0  0  0  0  0  0  0  0  0  0  0  0
   18.5062   -7.1118  -16.5589 C   0  0  1  0  0  0  0  0  0  0  0  0
   17.2438   -6.3053  -16.7931 C   0  0  0  0  0  0  0  0  0  0  0  0
   16.5530   -6.7018  -18.0384 C   0  0  0  0  0  0  0  0  0  0  0  0
   17.1453   -6.8182  -19.2795 C   0  0  0  0  0  0  0  0  0  0  0  0
   16.2160   -7.2007  -20.1910 N   0  0  0  0  0  0  0  0  0  0  0  0
   15.0569   -7.3241  -19.5392 C   0  0  0  0  0  0  0  0  0  0  0  0
   15.2592   -7.0232  -18.2392 N   0  0  0  0  0  0  0  0  0  0  0  0
   19.2333   -6.4340  -15.4319 C   0  0  0  0  0  0  0  0  0  0  0  0
   19.0467   -6.8778  -14.2697 O   0  0  0  0  0  0  0  0  0  0  0  0
   22.8032   -5.6225  -13.2004 O   0  0  0  0  0  0  0  0  0  0  0  0
   21.8617   -6.0480  -14.1203 C   0  0  0  0  0  0  0  0  0  0  0  0
   20.9336   -4.8982  -14.5264 C   0  0  2  0  0  0  0  0  0  0  0  0
   20.0959   -5.3461  -15.6218 N   0  0  0  0  0  0  0  0  0  0  0  0
   21.6895   -3.7028  -14.8988 C   0  0  0  0  0  0  0  0  0  0  0  0
   22.2618   -2.9002  -13.9355 O   0  0  0  0  0  0  0  0  0  0  0  0
   21.8285   -3.3894  -16.1047 O   0  0  0  0  0  0  0  0  0  0  0  0
  1  2  1  0
  2  3  1  0
  3  4  1  6
  5  3  1  0
  6  5  2  0
  7  5  1  0
  8  7  1  0
  8  9  1  1
 10  9  1  0
 10 11  2  0
 12 11  1  0
 13 12  1  0
 14 13  2  0
 14 10  1  0
 15  8  1  0
 16 15  2  0
 19 18  1  6
 18 17  1  0
 19 20  1  0
 20 15  1  0
 21 22  1  0
 21 19  1  0
 23 21  2  0
M  END
$$$$
