SHS.pdb
     RDKit          3D

 23 23  0  0  1  0  0  0  0  0999 V2000
   20.8458  -12.8739  -19.9085 O   0  0  0  0  0  0  0  0  0  0  0  0
   20.2338  -11.8238  -19.2269 C   0  0  0  0  0  0  0  0  0  0  0  0
   21.2687  -10.8219  -18.7573 C   0  0  2  0  0  0  0  0  0  0  0  0
   22.3434  -11.5329  -18.1504 N   0  0  0  0  0  0  0  0  0  0  0  0
   20.6140   -9.8523  -17.8454 C   0  0  0  0  0  0  0  0  0  0  0  0
   19.7654   -9.0413  -18.2971 O   0  0  0  0  0  0  0  0  0  0  0  0
   20.8949   -9.7830  -16.4575 N   0  0  0  0  0  0  0  0  0  0  0  0
   20.2337   -8.8656  -15.5498 C   0  0  1  0  0  0  0  0  0  0  0  0
   19.5161   -9.6127  -14.4426 C   0  0  0  0  0  0  0  0  0  0  0  0
   18.2869  -10.2770  -14.9253 C   0  0  0  0  0  0  0  0  0  0  0  0
   18.1568  -11.6256  -15.1880 C   0  0  0  0  0  0  0  0  0  0  0  0
   16.8948  -11.8847  -15.6136 N   0  0  0  0  0  0  0  0  0  0  0  0
   16.2381  -10.7218  -15.6201 C   0  0  0  0  0  0  0  0  0  0  0  0
   17.0777   -9.7502  -15.2046 N   0  0  0  0  0  0  0  0  0  0  0  0
   21.2366   -7.9748  -14.8724 C   0  0  0  0  0  0  0  0  0  0  0  0
   22.4131   -8.4055  -14.7587 O   0  0  0  0  0  0  0  0  0  0  0  0
   23.4427   -4.4496  -15.7156 O   0  0  0  0  0  0  0  0  0  0  0  0
   22.5778   -5.5289  -15.6851 C   0  0  0  0  0  0  0  0  0  0  0  0
   21.9475   -5.6871  -14.2974 C   0  0  2  0  0  0  0  0  0  0  0  0
   20.9181   -6.7055  -14.3714 N   0  0  0  0  0  0  0  0  0  0  0  0
   21.3999   -4.4222  -13.8081 C   0  0  0  0  0  0  0  0  0  0  0  0
   20.1121   -4.0424  -14.1194 O   0  0  0  0  0  0  0  0  0  0  0  0
   22.0969   -3.6619  -13.0954 O   0  0  0  0  0  0  0  0  0  0  0  0
  1  2  1  0
  2  3  1  0
  3  4  1  1
  5  3  1  0
  6  5  2  0
  7  5  1  0
  8  7  1  0
  8  9  1  1
 10  9  1  0
 10 11  2  0
 12 11  1  0
 13 12  1  0
 14 13  2  0
 14 10  1  0
 15  8  1  0
 16 15  2  0
 19 18  1  6
 18 17  1  0
 19 20  1  0
 20 15  1  0
 21 22  1  0
 21 19  1  0
 23 21  2  0
M  END
$$$$
