AEM.pdb
     RDKit          3D

 23 22  0  0  1  0  0  0  0  0999 V2000
    7.2269  -13.1982   18.3999 C   0  0  0  0  0  0  0  0  0  0  0  0
    8.4278  -13.1755   19.3082 C   0  0  2  0  0  0  0  0  0  0  0  0
    9.6495  -13.2735   18.5332 N   0  0  0  0  0  0  0  0  0  0  0  0
    8.4171  -14.2860   20.2924 C   0  0  0  0  0  0  0  0  0  0  0  0
    7.3962  -14.5009   21.0070 O   0  0  0  0  0  0  0  0  0  0  0  0
    9.5177  -15.1523   20.4900 N   0  0  0  0  0  0  0  0  0  0  0  0
    9.4581  -16.2369   21.5043 C   0  0  1  0  0  0  0  0  0  0  0  0
   10.5782  -17.1517   21.1513 C   0  0  0  0  0  0  0  0  0  0  0  0
   10.7805  -18.3243   22.0373 C   0  0  0  0  0  0  0  0  0  0  0  0
   11.8967  -19.2035   21.5427 C   0  0  0  0  0  0  0  0  0  0  0  0
   12.2099  -20.1799   22.2503 O   0  0  0  0  0  0  0  0  0  0  0  0
    9.5183  -15.6393   22.8502 C   0  0  0  0  0  0  0  0  0  0  0  0
   10.4920  -14.8792   23.1957 O   0  0  0  0  0  0  0  0  0  0  0  0
   12.5648  -18.9700   20.3651 O   0  0  0  0  0  0  0  0  0  0  0  0
    6.5697  -11.1373   27.7173 C   0  0  0  0  0  0  0  0  0  0  0  0
    6.9435  -12.0182   26.2295 S   0  0  0  0  0  0  0  0  0  0  0  0
    6.6466  -13.7884   26.3552 C   0  0  0  0  0  0  0  0  0  0  0  0
    6.9687  -14.5744   25.1464 C   0  0  0  0  0  0  0  0  0  0  0  0
    8.3260  -15.1300   25.0376 C   0  0  2  0  0  0  0  0  0  0  0  0
    8.4988  -15.8818   23.8090 N   0  0  0  0  0  0  0  0  0  0  0  0
    8.8050  -15.8835   26.2105 C   0  0  0  0  0  0  0  0  0  0  0  0
    8.9464  -17.2548   26.1407 O   0  0  0  0  0  0  0  0  0  0  0  0
    9.1040  -15.3446   27.3017 O   0  0  0  0  0  0  0  0  0  0  0  0
  2  3  1  0
  2  1  1  6
  2  4  1  0
  4  5  2  0
  6  4  1  0
  6  7  1  0
  7 12  1  0
  8  9  1  0
  7  8  1  6
  9 10  1  0
 10 11  2  0
 10 14  1  0
 12 20  1  0
 12 13  2  0
 16 15  1  0
 17 16  1  0
 19 18  1  1
 18 17  1  0
 19 21  1  0
 20 19  1  0
 21 22  1  0
 23 21  2  0
M  END
$$$$
