AEM.pdb
     RDKit          3D

 23 22  0  0  1  0  0  0  0  0999 V2000
    6.4744  -21.0811   22.3880 C   0  0  0  0  0  0  0  0  0  0  0  0
    6.8394  -19.9395   23.2996 C   0  0  2  0  0  0  0  0  0  0  0  0
    5.7828  -18.9464   23.3140 N   0  0  0  0  0  0  0  0  0  0  0  0
    8.0976  -19.2665   22.8920 C   0  0  0  0  0  0  0  0  0  0  0  0
    9.1924  -19.8994   22.8886 O   0  0  0  0  0  0  0  0  0  0  0  0
    8.1527  -17.9109   22.4918 N   0  0  0  0  0  0  0  0  0  0  0  0
    9.4453  -17.2824   22.1139 C   0  0  1  0  0  0  0  0  0  0  0  0
    9.2833  -16.9072   20.6825 C   0  0  0  0  0  0  0  0  0  0  0  0
    9.4630  -17.9935   19.6882 C   0  0  0  0  0  0  0  0  0  0  0  0
    9.2233  -17.5033   18.2861 C   0  0  0  0  0  0  0  0  0  0  0  0
    8.0764  -17.6453   17.8205 O   0  0  0  0  0  0  0  0  0  0  0  0
    9.7277  -16.1712   23.0400 C   0  0  0  0  0  0  0  0  0  0  0  0
   10.0478  -15.0085   22.6031 O   0  0  0  0  0  0  0  0  0  0  0  0
   10.2041  -16.9187   17.5220 O   0  0  0  0  0  0  0  0  0  0  0  0
    6.0594  -11.6393   26.7000 C   0  0  0  0  0  0  0  0  0  0  0  0
    7.2183  -12.6581   25.8352 S   0  0  0  0  0  0  0  0  0  0  0  0
    6.6661  -14.3596   25.6412 C   0  0  0  0  0  0  0  0  0  0  0  0
    7.5468  -15.2253   24.8302 C   0  0  0  0  0  0  0  0  0  0  0  0
    8.8967  -15.4970   25.3466 C   0  0  2  0  0  0  0  0  0  0  0  0
    9.6516  -16.3488   24.4471 N   0  0  0  0  0  0  0  0  0  0  0  0
    8.9647  -15.9772   26.7387 C   0  0  0  0  0  0  0  0  0  0  0  0
    8.9330  -15.0756   27.7834 O   0  0  0  0  0  0  0  0  0  0  0  0
    9.0500  -17.1888   27.0472 O   0  0  0  0  0  0  0  0  0  0  0  0
  2  3  1  0
  2  1  1  6
  2  4  1  0
  4  5  2  0
  6  4  1  0
  6  7  1  0
  7 12  1  0
  8  9  1  0
  7  8  1  6
  9 10  1  0
 10 11  2  0
 10 14  1  0
 12 20  1  0
 12 13  2  0
 16 15  1  0
 17 16  1  0
 19 18  1  6
 18 17  1  0
 19 21  1  0
 20 19  1  0
 21 22  1  0
 23 21  2  0
M  END
$$$$
