AEM.pdb
     RDKit          3D

 23 22  0  0  1  0  0  0  0  0999 V2000
   13.7144  -17.6586   20.6624 C   0  0  0  0  0  0  0  0  0  0  0  0
   12.7206  -17.7736   21.7879 C   0  0  2  0  0  0  0  0  0  0  0  0
   12.0055  -19.0323   21.7041 N   0  0  0  0  0  0  0  0  0  0  0  0
   11.7221  -16.6758   21.7789 C   0  0  0  0  0  0  0  0  0  0  0  0
   12.0959  -15.4678   21.7850 O   0  0  0  0  0  0  0  0  0  0  0  0
   10.3260  -16.9030   21.7632 N   0  0  0  0  0  0  0  0  0  0  0  0
    9.3711  -15.7642   21.7711 C   0  0  1  0  0  0  0  0  0  0  0  0
    8.4590  -16.0229   20.6235 C   0  0  0  0  0  0  0  0  0  0  0  0
    8.9694  -15.6641   19.2775 C   0  0  0  0  0  0  0  0  0  0  0  0
    8.0426  -16.1386   18.1915 C   0  0  0  0  0  0  0  0  0  0  0  0
    7.4690  -15.2673   17.5101 O   0  0  0  0  0  0  0  0  0  0  0  0
    8.7288  -15.6856   23.0954 C   0  0  0  0  0  0  0  0  0  0  0  0
    7.9764  -16.6314   23.5250 O   0  0  0  0  0  0  0  0  0  0  0  0
    7.8143  -17.4686   17.9334 O   0  0  0  0  0  0  0  0  0  0  0  0
    6.7007  -10.4795   26.4605 C   0  0  0  0  0  0  0  0  0  0  0  0
    6.6775  -12.0258   27.3191 S   0  0  0  0  0  0  0  0  0  0  0  0
    6.1861  -13.4108   26.2807 C   0  0  0  0  0  0  0  0  0  0  0  0
    7.0056  -13.6191   25.0692 C   0  0  0  0  0  0  0  0  0  0  0  0
    8.2635  -14.3663   25.2187 C   0  0  2  0  0  0  0  0  0  0  0  0
    8.9239  -14.5619   23.9420 N   0  0  0  0  0  0  0  0  0  0  0  0
    8.1745  -15.6222   25.9853 C   0  0  0  0  0  0  0  0  0  0  0  0
    8.3514  -15.6107   27.3543 O   0  0  0  0  0  0  0  0  0  0  0  0
    7.9393  -16.7357   25.4606 O   0  0  0  0  0  0  0  0  0  0  0  0
  2  3  1  0
  2  1  1  6
  2  4  1  0
  4  5  2  0
  6  4  1  0
  6  7  1  0
  7 12  1  0
  8  9  1  0
  7  8  1  6
  9 10  1  0
 10 11  2  0
 10 14  1  0
 12 20  1  0
 12 13  2  0
 16 15  1  0
 17 16  1  0
 19 18  1  6
 18 17  1  0
 19 21  1  0
 20 19  1  0
 21 22  1  0
 23 21  2  0
M  END
$$$$
