AEM.pdb
     RDKit          3D

 23 22  0  0  1  0  0  0  0  0999 V2000
    8.2579  -12.0711   20.1480 C   0  0  0  0  0  0  0  0  0  0  0  0
    8.1361  -13.4433   19.5399 C   0  0  2  0  0  0  0  0  0  0  0  0
    6.8461  -13.5981   18.8960 N   0  0  0  0  0  0  0  0  0  0  0  0
    8.2813  -14.5254   20.5450 C   0  0  0  0  0  0  0  0  0  0  0  0
    7.2882  -14.9014   21.2317 O   0  0  0  0  0  0  0  0  0  0  0  0
    9.5060  -15.1883   20.7935 N   0  0  0  0  0  0  0  0  0  0  0  0
    9.5914  -16.2709   21.8081 C   0  0  1  0  0  0  0  0  0  0  0  0
   10.5199  -17.2740   21.2186 C   0  0  0  0  0  0  0  0  0  0  0  0
   10.7851  -18.4881   22.0289 C   0  0  0  0  0  0  0  0  0  0  0  0
   11.6626  -19.4627   21.2916 C   0  0  0  0  0  0  0  0  0  0  0  0
   11.3194  -20.6604   21.3024 O   0  0  0  0  0  0  0  0  0  0  0  0
   10.0095  -15.6896   23.0963 C   0  0  0  0  0  0  0  0  0  0  0  0
   11.0292  -14.9156   23.1751 O   0  0  0  0  0  0  0  0  0  0  0  0
   12.8017  -19.0838   20.6234 O   0  0  0  0  0  0  0  0  0  0  0  0
    5.6686  -12.0006   26.5442 C   0  0  0  0  0  0  0  0  0  0  0  0
    7.4134  -12.2907   26.5652 S   0  0  0  0  0  0  0  0  0  0  0  0
    7.8662  -13.9532   26.0468 C   0  0  0  0  0  0  0  0  0  0  0  0
    9.3168  -14.2215   25.9677 C   0  0  0  0  0  0  0  0  0  0  0  0
    9.7384  -15.5876   25.6225 C   0  0  2  0  0  0  0  0  0  0  0  0
    9.2956  -15.9637   24.2932 N   0  0  0  0  0  0  0  0  0  0  0  0
    9.4195  -16.6266   26.6185 C   0  0  0  0  0  0  0  0  0  0  0  0
    8.7380  -17.7646   26.2364 O   0  0  0  0  0  0  0  0  0  0  0  0
    9.7379  -16.5440   27.8277 O   0  0  0  0  0  0  0  0  0  0  0  0
  2  3  1  0
  2  1  1  1
  2  4  1  0
  4  5  2  0
  6  4  1  0
  6  7  1  0
  7 12  1  0
  8  9  1  0
  7  8  1  6
  9 10  1  0
 10 11  2  0
 10 14  1  0
 12 20  1  0
 12 13  2  0
 16 15  1  0
 17 16  1  0
 19 18  1  1
 18 17  1  0
 19 21  1  0
 20 19  1  0
 21 22  1  0
 23 21  2  0
M  END
$$$$
