AEM.pdb
     RDKit          3D

 23 22  0  0  1  0  0  0  0  0999 V2000
    7.9855  -12.6075   19.5018 C   0  0  0  0  0  0  0  0  0  0  0  0
    7.9547  -14.0669   19.1316 C   0  0  2  0  0  0  0  0  0  0  0  0
    6.6611  -14.4214   18.5806 N   0  0  0  0  0  0  0  0  0  0  0  0
    8.2189  -14.9533   20.2921 C   0  0  0  0  0  0  0  0  0  0  0  0
    7.2863  -15.2661   21.0867 O   0  0  0  0  0  0  0  0  0  0  0  0
    9.4959  -15.4912   20.5769 N   0  0  0  0  0  0  0  0  0  0  0  0
    9.6905  -16.4212   21.7197 C   0  0  1  0  0  0  0  0  0  0  0  0
   10.9212  -17.1878   21.3827 C   0  0  0  0  0  0  0  0  0  0  0  0
   11.3362  -18.2337   22.3496 C   0  0  0  0  0  0  0  0  0  0  0  0
   12.5681  -18.9598   21.8820 C   0  0  0  0  0  0  0  0  0  0  0  0
   13.2498  -19.5422   22.7472 O   0  0  0  0  0  0  0  0  0  0  0  0
    9.7430  -15.6416   22.9695 C   0  0  0  0  0  0  0  0  0  0  0  0
   10.5167  -14.6252   23.0854 O   0  0  0  0  0  0  0  0  0  0  0  0
   12.9556  -19.0004   20.5646 O   0  0  0  0  0  0  0  0  0  0  0  0
    6.4504  -11.0016   27.8234 C   0  0  0  0  0  0  0  0  0  0  0  0
    6.4121  -12.1402   26.4702 S   0  0  0  0  0  0  0  0  0  0  0  0
    7.7483  -13.3446   26.5137 C   0  0  0  0  0  0  0  0  0  0  0  0
    7.8384  -14.2367   25.3395 C   0  0  0  0  0  0  0  0  0  0  0  0
    8.9012  -15.2533   25.3372 C   0  0  2  0  0  0  0  0  0  0  0  0
    8.9363  -15.9870   24.0863 N   0  0  0  0  0  0  0  0  0  0  0  0
    8.9244  -16.1575   26.5013 C   0  0  0  0  0  0  0  0  0  0  0  0
    9.1311  -15.6489   27.7678 O   0  0  0  0  0  0  0  0  0  0  0  0
    8.7616  -17.3970   26.4154 O   0  0  0  0  0  0  0  0  0  0  0  0
  2  3  1  0
  2  1  1  1
  2  4  1  0
  4  5  2  0
  6  4  1  0
  6  7  1  0
  7 12  1  0
  8  9  1  0
  7  8  1  6
  9 10  1  0
 10 11  2  0
 10 14  1  0
 12 20  1  0
 12 13  2  0
 16 15  1  0
 17 16  1  0
 19 18  1  6
 18 17  1  0
 19 21  1  0
 20 19  1  0
 21 22  1  0
 23 21  2  0
M  END
$$$$
