AEM.pdb
     RDKit          3D

 23 22  0  0  1  0  0  0  0  0999 V2000
    7.7121  -12.3882   19.7847 C   0  0  0  0  0  0  0  0  0  0  0  0
    8.3843  -13.6734   19.3797 C   0  0  2  0  0  0  0  0  0  0  0  0
    7.6672  -14.2952   18.2835 N   0  0  0  0  0  0  0  0  0  0  0  0
    8.4594  -14.6511   20.4936 C   0  0  0  0  0  0  0  0  0  0  0  0
    7.4803  -14.8065   21.2787 O   0  0  0  0  0  0  0  0  0  0  0  0
    9.5994  -15.4506   20.7426 N   0  0  0  0  0  0  0  0  0  0  0  0
    9.6273  -16.3981   21.8873 C   0  0  1  0  0  0  0  0  0  0  0  0
   10.7339  -17.3430   21.5738 C   0  0  0  0  0  0  0  0  0  0  0  0
   11.0860  -18.3247   22.6290 C   0  0  0  0  0  0  0  0  0  0  0  0
   12.2098  -19.2248   22.1924 C   0  0  0  0  0  0  0  0  0  0  0  0
   12.4039  -20.2592   22.8591 O   0  0  0  0  0  0  0  0  0  0  0  0
    9.7719  -15.6342   23.1394 C   0  0  0  0  0  0  0  0  0  0  0  0
   10.7330  -14.8002   23.3005 O   0  0  0  0  0  0  0  0  0  0  0  0
   13.0087  -18.9494   21.1091 O   0  0  0  0  0  0  0  0  0  0  0  0
    6.5458  -11.0016   26.1653 C   0  0  0  0  0  0  0  0  0  0  0  0
    6.4266  -12.3819   27.2652 S   0  0  0  0  0  0  0  0  0  0  0  0
    7.7616  -13.5715   27.0640 C   0  0  0  0  0  0  0  0  0  0  0  0
    7.8583  -14.1988   25.7299 C   0  0  0  0  0  0  0  0  0  0  0  0
    8.9640  -15.1407   25.4993 C   0  0  2  0  0  0  0  0  0  0  0  0
    8.8503  -15.7927   24.2084 N   0  0  0  0  0  0  0  0  0  0  0  0
    9.2141  -16.1109   26.5807 C   0  0  0  0  0  0  0  0  0  0  0  0
    9.1907  -17.4650   26.3138 O   0  0  0  0  0  0  0  0  0  0  0  0
    9.4566  -15.7776   27.7642 O   0  0  0  0  0  0  0  0  0  0  0  0
  2  3  1  0
  2  1  1  1
  2  4  1  0
  4  5  2  0
  6  4  1  0
  6  7  1  0
  7 12  1  0
  8  9  1  0
  7  8  1  6
  9 10  1  0
 10 11  2  0
 10 14  1  0
 12 20  1  0
 12 13  2  0
 16 15  1  0
 17 16  1  0
 19 18  1  1
 18 17  1  0
 19 21  1  0
 20 19  1  0
 21 22  1  0
 23 21  2  0
M  END
$$$$
