AEM.pdb
     RDKit          3D

 23 22  0  0  1  0  0  0  0  0999 V2000
    8.2646  -12.3408   19.8325 C   0  0  0  0  0  0  0  0  0  0  0  0
    8.2506  -13.7137   19.2139 C   0  0  2  0  0  0  0  0  0  0  0  0
    7.0353  -13.9104   18.4476 N   0  0  0  0  0  0  0  0  0  0  0  0
    8.3355  -14.7946   20.2271 C   0  0  0  0  0  0  0  0  0  0  0  0
    7.3055  -15.1617   20.8622 O   0  0  0  0  0  0  0  0  0  0  0  0
    9.5408  -15.4659   20.5398 N   0  0  0  0  0  0  0  0  0  0  0  0
    9.6012  -16.4331   21.6666 C   0  0  1  0  0  0  0  0  0  0  0  0
   10.7577  -17.3154   21.3507 C   0  0  0  0  0  0  0  0  0  0  0  0
   11.0641  -18.3836   22.3335 C   0  0  0  0  0  0  0  0  0  0  0  0
   12.3009  -19.1491   21.9488 C   0  0  0  0  0  0  0  0  0  0  0  0
   12.1401  -20.2218   21.3357 O   0  0  0  0  0  0  0  0  0  0  0  0
    9.6912  -15.6876   22.9348 C   0  0  0  0  0  0  0  0  0  0  0  0
   10.6548  -14.8708   23.1573 O   0  0  0  0  0  0  0  0  0  0  0  0
   13.5701  -18.7140   22.2443 O   0  0  0  0  0  0  0  0  0  0  0  0
    6.3392  -10.6981   26.9568 C   0  0  0  0  0  0  0  0  0  0  0  0
    5.9155  -12.3781   26.6000 S   0  0  0  0  0  0  0  0  0  0  0  0
    7.3379  -13.4794   26.5608 C   0  0  0  0  0  0  0  0  0  0  0  0
    7.5106  -14.2505   25.3125 C   0  0  0  0  0  0  0  0  0  0  0  0
    8.6975  -15.1120   25.2035 C   0  0  2  0  0  0  0  0  0  0  0  0
    8.7125  -15.8454   23.9519 N   0  0  0  0  0  0  0  0  0  0  0  0
    8.9561  -15.9940   26.3561 C   0  0  0  0  0  0  0  0  0  0  0  0
    9.3584  -15.4559   27.5619 O   0  0  0  0  0  0  0  0  0  0  0  0
    8.8289  -17.2400   26.3136 O   0  0  0  0  0  0  0  0  0  0  0  0
  2  3  1  0
  2  1  1  1
  2  4  1  0
  4  5  2  0
  6  4  1  0
  6  7  1  0
  7 12  1  0
  8  9  1  0
  7  8  1  6
  9 10  1  0
 10 11  2  0
 10 14  1  0
 12 20  1  0
 12 13  2  0
 16 15  1  0
 17 16  1  0
 19 18  1  1
 18 17  1  0
 19 21  1  0
 20 19  1  0
 21 22  1  0
 23 21  2  0
M  END
$$$$
