AEM.pdb
     RDKit          3D

 23 22  0  0  1  0  0  0  0  0999 V2000
    8.1412  -12.3665   19.2882 C   0  0  0  0  0  0  0  0  0  0  0  0
    8.2597  -13.8051   18.8594 C   0  0  2  0  0  0  0  0  0  0  0  0
    7.0753  -14.2142   18.1297 N   0  0  0  0  0  0  0  0  0  0  0  0
    8.4339  -14.7281   20.0082 C   0  0  0  0  0  0  0  0  0  0  0  0
    7.4282  -15.1762   20.6302 O   0  0  0  0  0  0  0  0  0  0  0  0
    9.7012  -15.1550   20.4695 N   0  0  0  0  0  0  0  0  0  0  0  0
    9.8140  -16.1463   21.5711 C   0  0  1  0  0  0  0  0  0  0  0  0
   11.0871  -16.8701   21.3043 C   0  0  0  0  0  0  0  0  0  0  0  0
   11.1082  -17.7578   20.1157 C   0  0  0  0  0  0  0  0  0  0  0  0
   12.4488  -18.4188   19.9445 C   0  0  0  0  0  0  0  0  0  0  0  0
   13.1960  -17.9708   19.0538 O   0  0  0  0  0  0  0  0  0  0  0  0
    9.7367  -15.4399   22.8624 C   0  0  0  0  0  0  0  0  0  0  0  0
    9.9520  -14.1780   22.9422 O   0  0  0  0  0  0  0  0  0  0  0  0
   12.8651  -19.4741   20.7195 O   0  0  0  0  0  0  0  0  0  0  0  0
    6.3220  -11.7467   27.6635 C   0  0  0  0  0  0  0  0  0  0  0  0
    7.3100  -12.4558   26.3790 S   0  0  0  0  0  0  0  0  0  0  0  0
    6.8211  -14.1327   25.9467 C   0  0  0  0  0  0  0  0  0  0  0  0
    7.5941  -14.7586   24.8543 C   0  0  0  0  0  0  0  0  0  0  0  0
    8.7937  -15.5256   25.2222 C   0  0  2  0  0  0  0  0  0  0  0  0
    9.4177  -16.1315   24.0612 N   0  0  0  0  0  0  0  0  0  0  0  0
    8.6214  -16.4962   26.3183 C   0  0  0  0  0  0  0  0  0  0  0  0
    8.6299  -16.0666   27.6300 O   0  0  0  0  0  0  0  0  0  0  0  0
    8.4604  -17.7251   26.1326 O   0  0  0  0  0  0  0  0  0  0  0  0
  2  3  1  0
  2  1  1  1
  2  4  1  0
  4  5  2  0
  6  4  1  0
  6  7  1  0
  7 12  1  0
  8  9  1  0
  7  8  1  6
  9 10  1  0
 10 11  2  0
 10 14  1  0
 12 20  1  0
 12 13  2  0
 16 15  1  0
 17 16  1  0
 19 18  1  6
 18 17  1  0
 19 21  1  0
 20 19  1  0
 21 22  1  0
 23 21  2  0
M  END
$$$$
