AEM.pdb
     RDKit          3D

 23 22  0  0  1  0  0  0  0  0999 V2000
    8.1877  -12.1510   19.6536 C   0  0  0  0  0  0  0  0  0  0  0  0
    8.2422  -13.5791   19.1791 C   0  0  2  0  0  0  0  0  0  0  0  0
    7.0553  -13.9023   18.4113 N   0  0  0  0  0  0  0  0  0  0  0  0
    8.3428  -14.5468   20.2996 C   0  0  0  0  0  0  0  0  0  0  0  0
    7.2995  -15.0152   20.8392 O   0  0  0  0  0  0  0  0  0  0  0  0
    9.5781  -14.9959   20.8225 N   0  0  0  0  0  0  0  0  0  0  0  0
    9.6294  -16.1286   21.7833 C   0  0  1  0  0  0  0  0  0  0  0  0
   10.9118  -16.8235   21.4861 C   0  0  0  0  0  0  0  0  0  0  0  0
   11.1890  -18.0609   22.2561 C   0  0  0  0  0  0  0  0  0  0  0  0
   12.5178  -18.6584   21.8807 C   0  0  0  0  0  0  0  0  0  0  0  0
   13.4739  -18.4532   22.6527 O   0  0  0  0  0  0  0  0  0  0  0  0
    9.4874  -15.6031   23.1530 C   0  0  0  0  0  0  0  0  0  0  0  0
   10.1588  -14.5829   23.5451 O   0  0  0  0  0  0  0  0  0  0  0  0
   12.7059  -19.4044   20.7424 O   0  0  0  0  0  0  0  0  0  0  0  0
    6.6967  -10.9643   26.8561 C   0  0  0  0  0  0  0  0  0  0  0  0
    6.5823  -12.7227   27.0109 S   0  0  0  0  0  0  0  0  0  0  0  0
    7.1589  -13.6059   25.5531 C   0  0  0  0  0  0  0  0  0  0  0  0
    7.1554  -15.0794   25.6598 C   0  0  0  0  0  0  0  0  0  0  0  0
    8.4335  -15.7792   25.4603 C   0  0  2  0  0  0  0  0  0  0  0  0
    8.6001  -16.2059   24.0839 N   0  0  0  0  0  0  0  0  0  0  0  0
    8.7202  -16.8708   26.4087 C   0  0  0  0  0  0  0  0  0  0  0  0
    9.2409  -16.5851   27.6547 O   0  0  0  0  0  0  0  0  0  0  0  0
    8.5142  -18.0799   26.1517 O   0  0  0  0  0  0  0  0  0  0  0  0
  2  3  1  0
  2  1  1  1
  2  4  1  0
  4  5  2  0
  6  4  1  0
  6  7  1  0
  7 12  1  0
  8  9  1  0
  7  8  1  1
  9 10  1  0
 10 11  2  0
 10 14  1  0
 12 20  1  0
 12 13  2  0
 16 15  1  0
 17 16  1  0
 19 18  1  6
 18 17  1  0
 19 21  1  0
 20 19  1  0
 21 22  1  0
 23 21  2  0
M  END
$$$$
