AEM.pdb
     RDKit          3D

 23 22  0  0  1  0  0  0  0  0999 V2000
    7.9520  -12.2702   19.7811 C   0  0  0  0  0  0  0  0  0  0  0  0
    8.3251  -13.5837   19.1462 C   0  0  2  0  0  0  0  0  0  0  0  0
    7.4594  -13.8633   18.0170 N   0  0  0  0  0  0  0  0  0  0  0  0
    8.2266  -14.7213   20.0940 C   0  0  0  0  0  0  0  0  0  0  0  0
    7.1516  -15.3791   20.1982 O   0  0  0  0  0  0  0  0  0  0  0  0
    9.2990  -15.1326   20.9196 N   0  0  0  0  0  0  0  0  0  0  0  0
    9.1250  -16.2400   21.8953 C   0  0  1  0  0  0  0  0  0  0  0  0
   10.0286  -17.3198   21.4124 C   0  0  0  0  0  0  0  0  0  0  0  0
   11.4260  -16.9269   21.1058 C   0  0  0  0  0  0  0  0  0  0  0  0
   12.3822  -18.0657   21.3347 C   0  0  0  0  0  0  0  0  0  0  0  0
   12.4800  -18.9186   20.4318 O   0  0  0  0  0  0  0  0  0  0  0  0
    9.4000  -15.7326   23.2515 C   0  0  0  0  0  0  0  0  0  0  0  0
   10.4352  -15.0152   23.4942 O   0  0  0  0  0  0  0  0  0  0  0  0
   13.1324  -18.1919   22.4788 O   0  0  0  0  0  0  0  0  0  0  0  0
    6.9893  -10.4779   26.3541 C   0  0  0  0  0  0  0  0  0  0  0  0
    6.6411  -12.1977   26.5780 S   0  0  0  0  0  0  0  0  0  0  0  0
    7.9562  -13.2743   25.9870 C   0  0  0  0  0  0  0  0  0  0  0  0
    7.7471  -14.7186   26.2173 C   0  0  0  0  0  0  0  0  0  0  0  0
    8.7739  -15.6436   25.7143 C   0  0  2  0  0  0  0  0  0  0  0  0
    8.5266  -16.0176   24.3347 N   0  0  0  0  0  0  0  0  0  0  0  0
    9.0435  -16.8211   26.5592 C   0  0  0  0  0  0  0  0  0  0  0  0
    8.9483  -18.0908   26.0263 O   0  0  0  0  0  0  0  0  0  0  0  0
    9.3658  -16.7439   27.7678 O   0  0  0  0  0  0  0  0  0  0  0  0
  2  3  1  0
  2  1  1  1
  2  4  1  0
  4  5  2  0
  6  4  1  0
  6  7  1  0
  7 12  1  0
  8  9  1  0
  7  8  1  6
  9 10  1  0
 10 11  2  0
 10 14  1  0
 12 20  1  0
 12 13  2  0
 16 15  1  0
 17 16  1  0
 19 18  1  1
 18 17  1  0
 19 21  1  0
 20 19  1  0
 21 22  1  0
 23 21  2  0
M  END
$$$$
