PNF.pdb
     RDKit          3D

 27 28  0  0  1  0  0  0  0  0999 V2000
   27.6244  -19.2441  -17.3163 N   0  0  0  0  0  0  0  0  0  0  0  0
   28.5458  -18.7776  -18.3657 C   0  0  0  0  0  0  0  0  0  0  0  0
   28.3391  -17.2724  -18.2395 C   0  0  0  0  0  0  0  0  0  0  0  0
   28.3190  -17.0928  -16.7534 C   0  0  0  0  0  0  0  0  0  0  0  0
   28.1422  -18.5091  -16.1811 C   0  0  1  0  0  0  0  0  0  0  0  0
   27.2184  -18.4766  -15.0448 C   0  0  0  0  0  0  0  0  0  0  0  0
   27.5555  -17.7999  -14.0320 O   0  0  0  0  0  0  0  0  0  0  0  0
   21.5753  -20.3649  -13.8821 N   0  0  0  0  0  0  0  0  0  0  0  0
   22.4821  -19.2398  -13.7147 C   0  0  0  0  0  0  0  0  0  0  0  0
   22.1544  -18.4239  -12.8333 O   0  0  0  0  0  0  0  0  0  0  0  0
   23.6697  -19.1273  -14.5438 C   0  0  0  0  0  0  0  0  0  0  0  0
   25.0141  -19.0506  -13.9219 C   0  0  2  0  0  0  0  0  0  0  0  0
   25.9883  -19.1705  -15.0628 N   0  0  0  0  0  0  0  0  0  0  0  0
   25.3928  -20.1060  -12.9755 C   0  0  0  0  0  0  0  0  0  0  0  0
   25.5773  -21.2691  -13.4685 O   0  0  0  0  0  0  0  0  0  0  0  0
   25.5961  -20.0570  -11.5965 N   0  0  0  0  0  0  0  0  0  0  0  0
   25.8642  -21.1781  -10.7381 C   0  0  1  0  0  0  0  0  0  0  0  0
   27.1482  -21.2433  -10.0732 C   0  0  0  0  0  0  0  0  0  0  0  0
   27.2654  -20.4822   -8.8095 C   0  0  0  0  0  0  0  0  0  0  0  0
   27.8768  -21.0201   -7.6783 C   0  0  0  0  0  0  0  0  0  0  0  0
   28.0136  -20.3152   -6.5073 C   0  0  0  0  0  0  0  0  0  0  0  0
   27.5458  -19.0252   -6.3964 C   0  0  0  0  0  0  0  0  0  0  0  0
   26.9361  -18.4714   -7.5059 C   0  0  0  0  0  0  0  0  0  0  0  0
   26.8030  -19.1846   -8.6762 C   0  0  0  0  0  0  0  0  0  0  0  0
   24.7782  -21.2415   -9.7301 C   0  0  0  0  0  0  0  0  0  0  0  0
   23.8032  -20.4435   -9.6745 O   0  0  0  0  0  0  0  0  0  0  0  0
   24.7806  -22.2473   -8.7330 O   0  0  0  0  0  0  0  0  0  0  0  0
  2  1  1  0
  3  4  1  0
  3  2  1  0
  4  5  1  0
  5  6  1  1
  5  1  1  0
  6 13  1  0
  7  6  2  0
  9  8  1  0
 10  9  2  0
 11  9  1  0
 12 11  1  6
 12 14  1  0
 13 12  1  0
 14 16  1  0
 14 15  2  0
 16 17  1  0
 17 18  1  1
 18 19  1  0
 19 24  1  0
 20 19  2  0
 20 21  1  0
 21 22  2  0
 22 23  1  0
 24 23  2  0
 25 27  1  0
 25 17  1  0
 26 25  2  0
M  END
$$$$
