PNF.pdb
     RDKit          3D

 27 28  0  0  1  0  0  0  0  0999 V2000
   27.6803  -21.3162  -15.3730 N   0  0  0  0  0  0  0  0  0  0  0  0
   28.4081  -21.1286  -16.6391 C   0  0  0  0  0  0  0  0  0  0  0  0
   27.7482  -19.8440  -17.1277 C   0  0  0  0  0  0  0  0  0  0  0  0
   27.6811  -19.0395  -15.8670 C   0  0  0  0  0  0  0  0  0  0  0  0
   27.9520  -20.0448  -14.7353 C   0  0  1  0  0  0  0  0  0  0  0  0
   27.0686  -19.7684  -13.5999 C   0  0  0  0  0  0  0  0  0  0  0  0
   27.1280  -18.6204  -13.0745 O   0  0  0  0  0  0  0  0  0  0  0  0
   21.9240  -19.7251  -12.5131 N   0  0  0  0  0  0  0  0  0  0  0  0
   22.6601  -20.7930  -11.8542 C   0  0  0  0  0  0  0  0  0  0  0  0
   22.0872  -21.3018  -10.8729 O   0  0  0  0  0  0  0  0  0  0  0  0
   23.9653  -21.1956  -12.3487 C   0  0  0  0  0  0  0  0  0  0  0  0
   25.1688  -20.3882  -12.0330 C   0  0  2  0  0  0  0  0  0  0  0  0
   26.1741  -20.7387  -13.0968 N   0  0  0  0  0  0  0  0  0  0  0  0
   25.8488  -20.6415  -10.7576 C   0  0  0  0  0  0  0  0  0  0  0  0
   26.5410  -21.7119  -10.6879 O   0  0  0  0  0  0  0  0  0  0  0  0
   25.8748  -19.8946   -9.5801 N   0  0  0  0  0  0  0  0  0  0  0  0
   26.5665  -20.2432   -8.3694 C   0  0  1  0  0  0  0  0  0  0  0  0
   27.3520  -19.2231   -7.7081 C   0  0  0  0  0  0  0  0  0  0  0  0
   27.9824  -19.6157   -6.4282 C   0  0  0  0  0  0  0  0  0  0  0  0
   29.1592  -20.3611   -6.3835 C   0  0  0  0  0  0  0  0  0  0  0  0
   29.7673  -20.7109   -5.2025 C   0  0  0  0  0  0  0  0  0  0  0  0
   29.2335  -20.3347   -3.9905 C   0  0  0  0  0  0  0  0  0  0  0  0
   28.0668  -19.5946   -4.0108 C   0  0  0  0  0  0  0  0  0  0  0  0
   27.4634  -19.2479   -5.1990 C   0  0  0  0  0  0  0  0  0  0  0  0
   25.5654  -20.7918   -7.4226 C   0  0  0  0  0  0  0  0  0  0  0  0
   24.3475  -20.4655   -7.3971 O   0  0  0  0  0  0  0  0  0  0  0  0
   25.9431  -21.7541   -6.4546 O   0  0  0  0  0  0  0  0  0  0  0  0
  2  1  1  0
  3  4  1  0
  3  2  1  0
  4  5  1  0
  5  6  1  1
  5  1  1  0
  6 13  1  0
  7  6  2  0
  9  8  1  0
 10  9  2  0
 11  9  1  0
 12 11  1  6
 12 14  1  0
 13 12  1  0
 14 16  1  0
 14 15  2  0
 16 17  1  0
 17 18  1  1
 18 19  1  0
 19 24  1  0
 20 19  2  0
 20 21  1  0
 21 22  2  0
 22 23  1  0
 24 23  2  0
 25 27  1  0
 25 17  1  0
 26 25  2  0
M  END
$$$$
