PNF.pdb
     RDKit          3D

 27 28  0  0  1  0  0  0  0  0999 V2000
   27.7935  -21.5881  -15.0997 N   0  0  0  0  0  0  0  0  0  0  0  0
   28.3796  -21.6359  -16.4495 C   0  0  0  0  0  0  0  0  0  0  0  0
   27.3094  -20.8732  -17.2223 C   0  0  0  0  0  0  0  0  0  0  0  0
   27.0069  -19.7443  -16.2868 C   0  0  0  0  0  0  0  0  0  0  0  0
   27.6339  -20.1572  -14.9447 C   0  0  1  0  0  0  0  0  0  0  0  0
   26.7402  -19.7923  -13.8429 C   0  0  0  0  0  0  0  0  0  0  0  0
   26.4739  -18.5672  -13.6829 O   0  0  0  0  0  0  0  0  0  0  0  0
   21.6676  -20.0883  -12.0270 N   0  0  0  0  0  0  0  0  0  0  0  0
   22.7219  -20.9546  -11.5226 C   0  0  0  0  0  0  0  0  0  0  0  0
   22.4831  -21.4935  -10.4260 O   0  0  0  0  0  0  0  0  0  0  0  0
   23.9439  -21.1408  -12.2856 C   0  0  0  0  0  0  0  0  0  0  0  0
   25.1692  -20.3813  -11.9366 C   0  0  2  0  0  0  0  0  0  0  0  0
   26.1850  -20.7626  -12.9797 N   0  0  0  0  0  0  0  0  0  0  0  0
   25.8097  -20.6681  -10.6480 C   0  0  0  0  0  0  0  0  0  0  0  0
   26.4618  -21.7629  -10.5711 O   0  0  0  0  0  0  0  0  0  0  0  0
   25.8343  -19.9314   -9.4639 N   0  0  0  0  0  0  0  0  0  0  0  0
   26.6273  -20.2212   -8.3008 C   0  0  1  0  0  0  0  0  0  0  0  0
   27.4703  -19.1737   -7.7649 C   0  0  0  0  0  0  0  0  0  0  0  0
   28.1536  -19.4783   -6.4882 C   0  0  0  0  0  0  0  0  0  0  0  0
   27.7714  -18.8841   -5.2868 C   0  0  0  0  0  0  0  0  0  0  0  0
   28.3814  -19.1767   -4.0914 C   0  0  0  0  0  0  0  0  0  0  0  0
   29.4142  -20.0847   -4.0249 C   0  0  0  0  0  0  0  0  0  0  0  0
   29.8097  -20.6865   -5.2042 C   0  0  0  0  0  0  0  0  0  0  0  0
   29.1929  -20.3879   -6.3985 C   0  0  0  0  0  0  0  0  0  0  0  0
   25.7105  -20.7117   -7.2433 C   0  0  0  0  0  0  0  0  0  0  0  0
   24.4729  -20.4733   -7.1992 O   0  0  0  0  0  0  0  0  0  0  0  0
   26.2002  -21.5093   -6.1803 O   0  0  0  0  0  0  0  0  0  0  0  0
  2  1  1  0
  3  4  1  0
  3  2  1  0
  4  5  1  0
  5  6  1  1
  5  1  1  0
  6 13  1  0
  7  6  2  0
  9  8  1  0
 10  9  2  0
 11  9  1  0
 12 11  1  6
 12 14  1  0
 13 12  1  0
 14 16  1  0
 14 15  2  0
 16 17  1  0
 17 18  1  1
 18 19  1  0
 19 24  1  0
 20 19  2  0
 20 21  1  0
 21 22  2  0
 22 23  1  0
 24 23  2  0
 25 27  1  0
 25 17  1  0
 26 25  2  0
M  END
$$$$
