PNF.pdb
     RDKit          3D

 27 28  0  0  1  0  0  0  0  0999 V2000
   27.1223  -20.0141  -15.1689 N   0  0  0  0  0  0  0  0  0  0  0  0
   27.8300  -19.4970  -16.3519 C   0  0  0  0  0  0  0  0  0  0  0  0
   27.6216  -18.0012  -16.1435 C   0  0  0  0  0  0  0  0  0  0  0  0
   27.8672  -17.8631  -14.6732 C   0  0  0  0  0  0  0  0  0  0  0  0
   27.8231  -19.2984  -14.1231 C   0  0  1  0  0  0  0  0  0  0  0  0
   27.1194  -19.3192  -12.8385 C   0  0  0  0  0  0  0  0  0  0  0  0
   27.5705  -18.5910  -11.9090 O   0  0  0  0  0  0  0  0  0  0  0  0
   22.5258  -20.0640  -14.0480 N   0  0  0  0  0  0  0  0  0  0  0  0
   22.9884  -19.4999  -12.7894 C   0  0  0  0  0  0  0  0  0  0  0  0
   22.6926  -18.3045  -12.6060 O   0  0  0  0  0  0  0  0  0  0  0  0
   23.7370  -20.3187  -11.8516 C   0  0  0  0  0  0  0  0  0  0  0  0
   25.0974  -19.9133  -11.4216 C   0  0  2  0  0  0  0  0  0  0  0  0
   25.9741  -20.1183  -12.6277 N   0  0  0  0  0  0  0  0  0  0  0  0
   25.7331  -20.6808  -10.3446 C   0  0  0  0  0  0  0  0  0  0  0  0
   26.0809  -21.8755  -10.6299 O   0  0  0  0  0  0  0  0  0  0  0  0
   26.0352  -20.3210   -9.0314 N   0  0  0  0  0  0  0  0  0  0  0  0
   26.5917  -21.1806   -8.0230 C   0  0  1  0  0  0  0  0  0  0  0  0
   27.9431  -20.9258   -7.5716 C   0  0  0  0  0  0  0  0  0  0  0  0
   28.0774  -20.0725   -6.3701 C   0  0  0  0  0  0  0  0  0  0  0  0
   28.4253  -20.5982   -5.1270 C   0  0  0  0  0  0  0  0  0  0  0  0
   28.5770  -19.8136   -4.0098 C   0  0  0  0  0  0  0  0  0  0  0  0
   28.3894  -18.4510   -4.0684 C   0  0  0  0  0  0  0  0  0  0  0  0
   28.0441  -17.9078   -5.2912 C   0  0  0  0  0  0  0  0  0  0  0  0
   27.8942  -18.7012   -6.4065 C   0  0  0  0  0  0  0  0  0  0  0  0
   25.6688  -21.1669   -6.8621 C   0  0  0  0  0  0  0  0  0  0  0  0
   25.8059  -21.8755   -5.8279 O   0  0  0  0  0  0  0  0  0  0  0  0
   24.5346  -20.3188   -6.8553 O   0  0  0  0  0  0  0  0  0  0  0  0
  2  1  1  0
  3  4  1  0
  3  2  1  0
  4  5  1  0
  5  6  1  1
  5  1  1  0
  6 13  1  0
  7  6  2  0
  9  8  1  0
 10  9  2  0
 11  9  1  0
 12 11  1  6
 12 14  1  0
 13 12  1  0
 14 16  1  0
 14 15  2  0
 16 17  1  0
 17 18  1  1
 18 19  1  0
 19 24  1  0
 20 19  2  0
 20 21  1  0
 21 22  2  0
 22 23  1  0
 24 23  2  0
 25 27  1  0
 25 17  1  0
 26 25  2  0
M  END
$$$$
