PNF.pdb
     RDKit          3D

 27 28  0  0  1  0  0  0  0  0999 V2000
   28.1067  -20.6620  -15.1759 N   0  0  0  0  0  0  0  0  0  0  0  0
   28.8737  -20.2921  -16.3769 C   0  0  0  0  0  0  0  0  0  0  0  0
   28.1710  -18.9888  -16.7402 C   0  0  0  0  0  0  0  0  0  0  0  0
   28.0143  -18.3448  -15.3979 C   0  0  0  0  0  0  0  0  0  0  0  0
   28.2897  -19.4653  -14.3813 C   0  0  1  0  0  0  0  0  0  0  0  0
   27.3496  -19.3663  -13.2624 C   0  0  0  0  0  0  0  0  0  0  0  0
   27.3287  -18.2866  -12.6056 O   0  0  0  0  0  0  0  0  0  0  0  0
   22.8615  -20.3410  -10.4163 N   0  0  0  0  0  0  0  0  0  0  0  0
   23.0171  -21.1199  -11.6351 C   0  0  0  0  0  0  0  0  0  0  0  0
   22.0275  -21.8047  -11.9541 O   0  0  0  0  0  0  0  0  0  0  0  0
   24.2595  -21.0640  -12.3858 C   0  0  0  0  0  0  0  0  0  0  0  0
   25.3934  -20.2409  -11.8995 C   0  0  2  0  0  0  0  0  0  0  0  0
   26.4877  -20.4300  -12.9153 N   0  0  0  0  0  0  0  0  0  0  0  0
   25.9954  -20.5972  -10.6096 C   0  0  0  0  0  0  0  0  0  0  0  0
   26.8342  -21.5595  -10.6228 O   0  0  0  0  0  0  0  0  0  0  0  0
   25.8091  -20.0501   -9.3402 N   0  0  0  0  0  0  0  0  0  0  0  0
   26.5523  -20.3825   -8.1558 C   0  0  1  0  0  0  0  0  0  0  0  0
   27.3206  -19.3392   -7.5107 C   0  0  0  0  0  0  0  0  0  0  0  0
   27.9822  -19.7100   -6.2400 C   0  0  0  0  0  0  0  0  0  0  0  0
   27.4557  -19.3485   -5.0012 C   0  0  0  0  0  0  0  0  0  0  0  0
   28.0470  -19.7074   -3.8144 C   0  0  0  0  0  0  0  0  0  0  0  0
   29.2046  -20.4524   -3.7947 C   0  0  0  0  0  0  0  0  0  0  0  0
   29.7444  -20.8223   -5.0118 C   0  0  0  0  0  0  0  0  0  0  0  0
   29.1455  -20.4588   -6.1971 C   0  0  0  0  0  0  0  0  0  0  0  0
   25.6037  -20.9759   -7.1824 C   0  0  0  0  0  0  0  0  0  0  0  0
   24.3574  -20.7828   -7.1859 O   0  0  0  0  0  0  0  0  0  0  0  0
   26.0699  -21.8285   -6.1522 O   0  0  0  0  0  0  0  0  0  0  0  0
  2  1  1  0
  3  4  1  0
  3  2  1  0
  4  5  1  0
  5  6  1  1
  5  1  1  0
  6 13  1  0
  7  6  2  0
  9  8  1  0
 10  9  2  0
 11  9  1  0
 12 11  1  6
 12 14  1  0
 13 12  1  0
 14 16  1  0
 14 15  2  0
 16 17  1  0
 17 18  1  1
 18 19  1  0
 19 24  1  0
 20 19  2  0
 20 21  1  0
 21 22  2  0
 22 23  1  0
 24 23  2  0
 25 27  1  0
 25 17  1  0
 26 25  2  0
M  END
$$$$
