PNF.pdb
     RDKit          3D

 27 28  0  0  1  0  0  0  0  0999 V2000
   27.5288  -20.4612  -15.2768 N   0  0  0  0  0  0  0  0  0  0  0  0
   28.1936  -19.9780  -16.4984 C   0  0  0  0  0  0  0  0  0  0  0  0
   27.7134  -18.5309  -16.4978 C   0  0  0  0  0  0  0  0  0  0  0  0
   27.8550  -18.1654  -15.0530 C   0  0  0  0  0  0  0  0  0  0  0  0
   28.0373  -19.5033  -14.3172 C   0  0  1  0  0  0  0  0  0  0  0  0
   27.2836  -19.4891  -13.0613 C   0  0  0  0  0  0  0  0  0  0  0  0
   27.3641  -18.4552  -12.3388 O   0  0  0  0  0  0  0  0  0  0  0  0
   23.4292  -22.0343  -14.3033 N   0  0  0  0  0  0  0  0  0  0  0  0
   23.5201  -21.0584  -13.2283 C   0  0  0  0  0  0  0  0  0  0  0  0
   22.8760  -20.0089  -13.4119 O   0  0  0  0  0  0  0  0  0  0  0  0
   24.3192  -21.3413  -12.0486 C   0  0  0  0  0  0  0  0  0  0  0  0
   25.3977  -20.4119  -11.6327 C   0  0  2  0  0  0  0  0  0  0  0  0
   26.4881  -20.5835  -12.6558 N   0  0  0  0  0  0  0  0  0  0  0  0
   26.0423  -20.6465  -10.3355 C   0  0  0  0  0  0  0  0  0  0  0  0
   26.4717  -21.8297  -10.1224 O   0  0  0  0  0  0  0  0  0  0  0  0
   26.2774  -19.7781   -9.2697 N   0  0  0  0  0  0  0  0  0  0  0  0
   26.8682  -20.1258   -8.0065 C   0  0  1  0  0  0  0  0  0  0  0  0
   27.5952  -19.1045   -7.2831 C   0  0  0  0  0  0  0  0  0  0  0  0
   28.1259  -19.4985   -5.9591 C   0  0  0  0  0  0  0  0  0  0  0  0
   29.0897  -20.4954   -5.8176 C   0  0  0  0  0  0  0  0  0  0  0  0
   29.6080  -20.8534   -4.5970 C   0  0  0  0  0  0  0  0  0  0  0  0
   29.1926  -20.2336   -3.4399 C   0  0  0  0  0  0  0  0  0  0  0  0
   28.2376  -19.2417   -3.5565 C   0  0  0  0  0  0  0  0  0  0  0  0
   27.7231  -18.8886   -4.7839 C   0  0  0  0  0  0  0  0  0  0  0  0
   25.7940  -20.6764   -7.1449 C   0  0  0  0  0  0  0  0  0  0  0  0
   24.5861  -20.3160   -7.1853 O   0  0  0  0  0  0  0  0  0  0  0  0
   26.0828  -21.6809   -6.1892 O   0  0  0  0  0  0  0  0  0  0  0  0
  2  1  1  0
  3  4  1  0
  3  2  1  0
  4  5  1  0
  5  6  1  1
  5  1  1  0
  6 13  1  0
  7  6  2  0
  9  8  1  0
 10  9  2  0
 11  9  1  0
 12 11  1  6
 12 14  1  0
 13 12  1  0
 14 16  1  0
 14 15  2  0
 16 17  1  0
 17 18  1  1
 18 19  1  0
 19 24  1  0
 20 19  2  0
 20 21  1  0
 21 22  2  0
 22 23  1  0
 24 23  2  0
 25 27  1  0
 25 17  1  0
 26 25  2  0
M  END
$$$$
