PNF.pdb
     RDKit          3D

 27 28  0  0  1  0  0  0  0  0999 V2000
   28.5786  -21.0113  -15.3490 N   0  0  0  0  0  0  0  0  0  0  0  0
   29.5140  -20.8012  -16.4665 C   0  0  0  0  0  0  0  0  0  0  0  0
   28.9311  -19.5203  -17.0530 C   0  0  0  0  0  0  0  0  0  0  0  0
   28.6324  -18.7298  -15.8173 C   0  0  0  0  0  0  0  0  0  0  0  0
   28.7157  -19.7431  -14.6636 C   0  0  1  0  0  0  0  0  0  0  0  0
   27.6433  -19.4900  -13.6984 C   0  0  0  0  0  0  0  0  0  0  0  0
   27.6051  -18.3537  -13.1462 O   0  0  0  0  0  0  0  0  0  0  0  0
   22.6506  -19.7710  -11.7371 N   0  0  0  0  0  0  0  0  0  0  0  0
   22.9400  -20.5412  -12.9368 C   0  0  0  0  0  0  0  0  0  0  0  0
   21.9445  -21.0253  -13.5065 O   0  0  0  0  0  0  0  0  0  0  0  0
   24.3105  -20.7009  -13.3911 C   0  0  0  0  0  0  0  0  0  0  0  0
   25.4305  -20.1112  -12.6181 C   0  0  2  0  0  0  0  0  0  0  0  0
   26.6756  -20.4696  -13.3841 N   0  0  0  0  0  0  0  0  0  0  0  0
   25.6576  -20.6051  -11.2552 C   0  0  0  0  0  0  0  0  0  0  0  0
   26.1496  -21.7787  -11.1529 O   0  0  0  0  0  0  0  0  0  0  0  0
   25.4279  -19.9978  -10.0208 N   0  0  0  0  0  0  0  0  0  0  0  0
   25.4870  -20.6390   -8.7358 C   0  0  1  0  0  0  0  0  0  0  0  0
   25.7703  -19.8245   -7.5734 C   0  0  0  0  0  0  0  0  0  0  0  0
   27.1613  -19.8703   -7.0707 C   0  0  0  0  0  0  0  0  0  0  0  0
   27.9397  -21.0232   -7.1579 C   0  0  0  0  0  0  0  0  0  0  0  0
   29.2399  -21.0714   -6.7173 C   0  0  0  0  0  0  0  0  0  0  0  0
   29.8424  -19.9655   -6.1611 C   0  0  0  0  0  0  0  0  0  0  0  0
   29.0893  -18.8110   -6.0647 C   0  0  0  0  0  0  0  0  0  0  0  0
   27.7866  -18.7708   -6.5089 C   0  0  0  0  0  0  0  0  0  0  0  0
   24.2081  -21.3630   -8.5362 C   0  0  0  0  0  0  0  0  0  0  0  0
   23.1431  -21.1262   -9.1688 O   0  0  0  0  0  0  0  0  0  0  0  0
   24.1130  -22.4047   -7.5815 O   0  0  0  0  0  0  0  0  0  0  0  0
  2  1  1  0
  3  4  1  0
  3  2  1  0
  4  5  1  0
  5  6  1  1
  5  1  1  0
  6 13  1  0
  7  6  2  0
  9  8  1  0
 10  9  2  0
 11  9  1  0
 12 11  1  6
 12 14  1  0
 13 12  1  0
 14 16  1  0
 14 15  2  0
 16 17  1  0
 17 18  1  1
 18 19  1  0
 19 24  1  0
 20 19  2  0
 20 21  1  0
 21 22  2  0
 22 23  1  0
 24 23  2  0
 25 27  1  0
 25 17  1  0
 26 25  2  0
M  END
$$$$
