PNF.pdb
     RDKit          3D

 27 28  0  0  1  0  0  0  0  0999 V2000
   16.6443  -20.5440    3.4955 N   0  0  0  0  0  0  0  0  0  0  0  0
   15.8259  -21.0478    2.3799 C   0  0  0  0  0  0  0  0  0  0  0  0
   14.4598  -21.0788    3.0561 C   0  0  0  0  0  0  0  0  0  0  0  0
   14.4643  -19.7840    3.8075 C   0  0  0  0  0  0  0  0  0  0  0  0
   15.9307  -19.3212    3.7995 C   0  0  1  0  0  0  0  0  0  0  0  0
   16.2832  -18.7567    5.1044 C   0  0  0  0  0  0  0  0  0  0  0  0
   15.6715  -17.7162    5.4796 O   0  0  0  0  0  0  0  0  0  0  0  0
   15.8956  -20.3325    9.2442 N   0  0  0  0  0  0  0  0  0  0  0  0
   17.2758  -20.7230    9.0017 C   0  0  0  0  0  0  0  0  0  0  0  0
   17.6644  -21.7159    9.6444 O   0  0  0  0  0  0  0  0  0  0  0  0
   18.0953  -19.9722    8.0662 C   0  0  0  0  0  0  0  0  0  0  0  0
   17.5225  -18.8256    7.3199 C   0  0  2  0  0  0  0  0  0  0  0  0
   17.2692  -19.3420    5.9291 N   0  0  0  0  0  0  0  0  0  0  0  0
   18.3608  -17.6341    7.1449 C   0  0  0  0  0  0  0  0  0  0  0  0
   19.2984  -17.7230    6.2830 O   0  0  0  0  0  0  0  0  0  0  0  0
   18.3069  -16.3880    7.7691 N   0  0  0  0  0  0  0  0  0  0  0  0
   19.1874  -15.2784    7.5257 C   0  0  1  0  0  0  0  0  0  0  0  0
   18.6044  -13.9687    7.3268 C   0  0  0  0  0  0  0  0  0  0  0  0
   19.5547  -12.8698    7.0453 C   0  0  0  0  0  0  0  0  0  0  0  0
   19.8548  -12.4691    5.7445 C   0  0  0  0  0  0  0  0  0  0  0  0
   20.7161  -11.4348    5.4707 C   0  0  0  0  0  0  0  0  0  0  0  0
   21.3315  -10.7360    6.4847 C   0  0  0  0  0  0  0  0  0  0  0  0
   21.0484  -11.1160    7.7828 C   0  0  0  0  0  0  0  0  0  0  0  0
   20.1836  -12.1538    8.0490 C   0  0  0  0  0  0  0  0  0  0  0  0
   20.1614  -15.2249    8.6429 C   0  0  0  0  0  0  0  0  0  0  0  0
   21.2986  -14.6835    8.5781 O   0  0  0  0  0  0  0  0  0  0  0  0
   19.8502  -15.8053    9.8966 O   0  0  0  0  0  0  0  0  0  0  0  0
  2  1  1  0
  3  4  1  0
  3  2  1  0
  4  5  1  0
  5  6  1  1
  5  1  1  0
  6 13  1  0
  7  6  2  0
  9  8  1  0
 10  9  2  0
 11  9  1  0
 12 11  1  1
 12 14  1  0
 13 12  1  0
 14 16  1  0
 14 15  2  0
 16 17  1  0
 17 18  1  1
 18 19  1  0
 19 24  1  0
 20 19  2  0
 20 21  1  0
 21 22  2  0
 22 23  1  0
 24 23  2  0
 25 27  1  0
 25 17  1  0
 26 25  2  0
M  END
$$$$
