PNF.pdb
     RDKit          3D

 27 28  0  0  1  0  0  0  0  0999 V2000
   28.7889  -20.9551  -14.9069 N   0  0  0  0  0  0  0  0  0  0  0  0
   29.6835  -20.6758  -16.0425 C   0  0  0  0  0  0  0  0  0  0  0  0
   28.9062  -19.5477  -16.7114 C   0  0  0  0  0  0  0  0  0  0  0  0
   28.4799  -18.7319  -15.5308 C   0  0  0  0  0  0  0  0  0  0  0  0
   28.7189  -19.6371  -14.3110 C   0  0  1  0  0  0  0  0  0  0  0  0
   27.6157  -19.4926  -13.3582 C   0  0  0  0  0  0  0  0  0  0  0  0
   27.3389  -18.3284  -12.9512 O   0  0  0  0  0  0  0  0  0  0  0  0
   24.2719  -21.6161  -15.5167 N   0  0  0  0  0  0  0  0  0  0  0  0
   24.1812  -20.7340  -14.3635 C   0  0  0  0  0  0  0  0  0  0  0  0
   23.7484  -19.5920  -14.6049 O   0  0  0  0  0  0  0  0  0  0  0  0
   24.5805  -21.2051  -13.0485 C   0  0  0  0  0  0  0  0  0  0  0  0
   25.5390  -20.4227  -12.2307 C   0  0  2  0  0  0  0  0  0  0  0  0
   26.8748  -20.6043  -12.8999 N   0  0  0  0  0  0  0  0  0  0  0  0
   25.7445  -20.8322  -10.8367 C   0  0  0  0  0  0  0  0  0  0  0  0
   26.3071  -21.9639  -10.6560 O   0  0  0  0  0  0  0  0  0  0  0  0
   25.4280  -20.1812   -9.6445 N   0  0  0  0  0  0  0  0  0  0  0  0
   25.3677  -20.7817   -8.3401 C   0  0  1  0  0  0  0  0  0  0  0  0
   25.6249  -19.9468   -7.1862 C   0  0  0  0  0  0  0  0  0  0  0  0
   27.0171  -19.9416   -6.6846 C   0  0  0  0  0  0  0  0  0  0  0  0
   27.7959  -21.0972   -6.6580 C   0  0  0  0  0  0  0  0  0  0  0  0
   29.0971  -21.1007   -6.2178 C   0  0  0  0  0  0  0  0  0  0  0  0
   29.7003  -19.9445   -5.7762 C   0  0  0  0  0  0  0  0  0  0  0  0
   28.9467  -18.7864   -5.7940 C   0  0  0  0  0  0  0  0  0  0  0  0
   27.6430  -18.7912   -6.2370 C   0  0  0  0  0  0  0  0  0  0  0  0
   24.0380  -21.4242   -8.2027 C   0  0  0  0  0  0  0  0  0  0  0  0
   23.0556  -21.2103   -8.9641 O   0  0  0  0  0  0  0  0  0  0  0  0
   23.7923  -22.3530   -7.1623 O   0  0  0  0  0  0  0  0  0  0  0  0
  2  1  1  0
  3  4  1  0
  3  2  1  0
  4  5  1  0
  5  6  1  1
  5  1  1  0
  6 13  1  0
  7  6  2  0
  9  8  1  0
 10  9  2  0
 11  9  1  0
 12 11  1  6
 12 14  1  0
 13 12  1  0
 14 16  1  0
 14 15  2  0
 16 17  1  0
 17 18  1  1
 18 19  1  0
 19 24  1  0
 20 19  2  0
 20 21  1  0
 21 22  2  0
 22 23  1  0
 24 23  2  0
 25 27  1  0
 25 17  1  0
 26 25  2  0
M  END
$$$$
