QRC.pdb
     RDKit          3D

 27 26  0  0  1  0  0  0  0  0999 V2000
   15.6518  -17.1927   18.7705 N   0  0  0  0  0  0  0  0  0  0  0  0
   14.4763  -17.6631   18.1297 C   0  0  0  0  0  0  0  0  0  0  0  0
   14.4865  -17.7314   16.8748 O   0  0  0  0  0  0  0  0  0  0  0  0
   13.3127  -18.0446   18.9662 C   0  0  0  0  0  0  0  0  0  0  0  0
   13.6422  -17.9231   20.4379 C   0  0  0  0  0  0  0  0  0  0  0  0
   12.4742  -18.2934   21.3090 C   0  0  2  0  0  0  0  0  0  0  0  0
   11.6381  -19.2630   20.6425 N   0  0  0  0  0  0  0  0  0  0  0  0
   11.6974  -17.1008   21.7506 C   0  0  0  0  0  0  0  0  0  0  0  0
   12.2694  -16.2197   22.4425 O   0  0  0  0  0  0  0  0  0  0  0  0
    8.3677  -13.7182   16.5294 N   0  0  0  0  0  0  0  0  0  0  0  0
    7.6157  -14.1608   17.6524 C   0  0  0  0  0  0  0  0  0  0  0  0
    7.0238  -15.2834   17.6023 N   0  0  0  0  0  0  0  0  0  0  0  0
    7.5212  -13.3467   18.8303 N   0  0  0  0  0  0  0  0  0  0  0  0
    6.7827  -13.7659   20.0118 C   0  0  0  0  0  0  0  0  0  0  0  0
    7.8006  -14.1216   21.0731 C   0  0  0  0  0  0  0  0  0  0  0  0
    8.5629  -15.3828   20.7444 C   0  0  0  0  0  0  0  0  0  0  0  0
    9.5289  -15.7613   21.8024 C   0  0  2  0  0  0  0  0  0  0  0  0
   10.3387  -16.9041   21.4315 N   0  0  0  0  0  0  0  0  0  0  0  0
    8.9523  -16.0403   23.1168 C   0  0  0  0  0  0  0  0  0  0  0  0
    8.6892  -17.2286   23.4159 O   0  0  0  0  0  0  0  0  0  0  0  0
    6.4630  -15.6263   18.4015 N   0  0  0  0  0  0  0  0  0  0  0  0
    8.6602  -15.0613   24.0979 C   0  0  2  0  0  0  0  0  0  0  0  0
    8.0756  -15.3461   25.3685 C   0  0  0  0  0  0  0  0  0  0  0  0
    7.9700  -14.0972   26.2392 S   0  0  0  0  0  0  0  0  0  0  0  0
    6.8826  -12.8811   25.4685 C   0  0  0  0  0  0  0  0  0  0  0  0
    6.7421  -15.9729   25.1889 O   0  0  0  0  0  0  0  0  0  0  0  0
    6.0676  -16.6075   26.2185 O   0  0  0  0  0  0  0  0  0  0  0  0
  2  1  1  0
  3  2  2  0
  4  2  1  0
  5  4  1  0
  6  8  1  0
  6  5  1  0
  6  7  1  6
  8  9  2  0
 11 12  2  0
 11 10  1  0
 13 11  1  0
 14 13  1  0
 15 14  1  0
 16 15  1  0
 17 16  1  6
 18 17  1  0
 18  8  1  0
 19 17  1  0
 20 19  2  0
 21 19  1  0
 22 23  1  6
 22 21  1  0
 23 24  1  0
 25 26  1  0
 25 22  1  0
 27 25  2  0
M  END
$$$$
