QRC.pdb
     RDKit          3D

 27 26  0  0  1  0  0  0  0  0999 V2000
   16.5169  -13.4553   19.1099 N   0  0  0  0  0  0  0  0  0  0  0  0
   15.8865  -14.3093   18.1681 C   0  0  0  0  0  0  0  0  0  0  0  0
   16.5100  -14.5647   17.1072 O   0  0  0  0  0  0  0  0  0  0  0  0
   14.5413  -14.8480   18.4832 C   0  0  0  0  0  0  0  0  0  0  0  0
   14.1083  -14.4404   19.8745 C   0  0  0  0  0  0  0  0  0  0  0  0
   13.5372  -15.5961   20.6480 C   0  0  2  0  0  0  0  0  0  0  0  0
   12.7402  -16.4337   19.7840 N   0  0  0  0  0  0  0  0  0  0  0  0
   12.7740  -15.1514   21.8482 C   0  0  0  0  0  0  0  0  0  0  0  0
   13.3497  -14.4388   22.7103 O   0  0  0  0  0  0  0  0  0  0  0  0
    7.8839  -14.9124   18.5186 N   0  0  0  0  0  0  0  0  0  0  0  0
    7.5641  -13.6351   19.0559 C   0  0  0  0  0  0  0  0  0  0  0  0
    7.8159  -12.5924   18.3758 N   0  0  0  0  0  0  0  0  0  0  0  0
    6.9667  -13.5223   20.3557 N   0  0  0  0  0  0  0  0  0  0  0  0
    7.2642  -14.4516   21.4351 C   0  0  0  0  0  0  0  0  0  0  0  0
    8.7051  -14.2246   21.8368 C   0  0  0  0  0  0  0  0  0  0  0  0
    9.1608  -15.1741   22.9187 C   0  0  0  0  0  0  0  0  0  0  0  0
   10.6125  -15.0716   23.1976 C   0  0  2  0  0  0  0  0  0  0  0  0
   11.4246  -15.4907   22.0733 N   0  0  0  0  0  0  0  0  0  0  0  0
   11.0846  -15.7987   24.3751 C   0  0  0  0  0  0  0  0  0  0  0  0
   12.3085  -16.0504   24.4732 O   0  0  0  0  0  0  0  0  0  0  0  0
    7.6575  -11.6485   18.7689 N   0  0  0  0  0  0  0  0  0  0  0  0
   10.2587  -16.2514   25.4330 C   0  0  2  0  0  0  0  0  0  0  0  0
   10.5243  -16.0186   26.8160 C   0  0  0  0  0  0  0  0  0  0  0  0
   10.4547  -14.5351   27.1671 S   0  0  0  0  0  0  0  0  0  0  0  0
   10.8762  -14.2771   28.9024 C   0  0  0  0  0  0  0  0  0  0  0  0
    9.5823  -16.7997   27.6561 O   0  0  0  0  0  0  0  0  0  0  0  0
    8.3818  -17.2943   27.1744 O   0  0  0  0  0  0  0  0  0  0  0  0
  2  1  1  0
  3  2  2  0
  4  2  1  0
  5  4  1  0
  6  8  1  0
  6  5  1  0
  6  7  1  6
  8  9  2  0
 11 12  2  0
 11 10  1  0
 13 11  1  0
 14 13  1  0
 15 14  1  0
 16 15  1  0
 17 16  1  6
 18 17  1  0
 18  8  1  0
 19 17  1  0
 20 19  2  0
 21 19  1  0
 22 23  1  6
 22 21  1  0
 23 24  1  0
 25 26  1  0
 25 22  1  0
 27 25  2  0
M  END
$$$$
