QRC.pdb
     RDKit          3D

 27 26  0  0  1  0  0  0  0  0999 V2000
    7.2788  -12.8985   17.1290 N   0  0  0  0  0  0  0  0  0  0  0  0
    7.6007  -14.2787   17.0560 C   0  0  0  0  0  0  0  0  0  0  0  0
    7.4329  -14.8566   15.9526 O   0  0  0  0  0  0  0  0  0  0  0  0
    8.1121  -14.9565   18.2718 C   0  0  0  0  0  0  0  0  0  0  0  0
    8.1448  -14.0048   19.4476 C   0  0  0  0  0  0  0  0  0  0  0  0
    9.0060  -14.5212   20.5665 C   0  0  2  0  0  0  0  0  0  0  0  0
    9.6728  -15.7373   20.1666 N   0  0  0  0  0  0  0  0  0  0  0  0
    8.2414  -14.6982   21.8332 C   0  0  0  0  0  0  0  0  0  0  0  0
    7.4466  -13.7948   22.1998 O   0  0  0  0  0  0  0  0  0  0  0  0
    6.9008  -22.0382   26.4406 N   0  0  0  0  0  0  0  0  0  0  0  0
    6.3193  -21.3601   25.3341 C   0  0  0  0  0  0  0  0  0  0  0  0
    5.6969  -22.0281   24.4512 N   0  0  0  0  0  0  0  0  0  0  0  0
    6.4370  -19.9352   25.2115 N   0  0  0  0  0  0  0  0  0  0  0  0
    7.1900  -19.1295   26.1607 C   0  0  0  0  0  0  0  0  0  0  0  0
    7.0952  -17.6911   25.7011 C   0  0  0  0  0  0  0  0  0  0  0  0
    7.7497  -17.4681   24.3588 C   0  0  0  0  0  0  0  0  0  0  0  0
    7.6978  -16.0526   23.9236 C   0  0  2  0  0  0  0  0  0  0  0  0
    8.3623  -15.8375   22.6542 N   0  0  0  0  0  0  0  0  0  0  0  0
    8.2361  -15.0779   24.8713 C   0  0  0  0  0  0  0  0  0  0  0  0
    9.4716  -15.0655   25.0814 O   0  0  0  0  0  0  0  0  0  0  0  0
    5.2696  -21.5613   23.6325 N   0  0  0  0  0  0  0  0  0  0  0  0
    7.4632  -14.1297   25.5853 C   0  0  2  0  0  0  0  0  0  0  0  0
    8.0002  -13.1985   26.5244 C   0  0  0  0  0  0  0  0  0  0  0  0
    6.9334  -12.2435   27.0525 S   0  0  0  0  0  0  0  0  0  0  0  0
    6.0905  -11.4211   25.6855 C   0  0  0  0  0  0  0  0  0  0  0  0
    8.6556  -13.9209   27.6432 O   0  0  0  0  0  0  0  0  0  0  0  0
    9.4933  -13.2947   28.5511 O   0  0  0  0  0  0  0  0  0  0  0  0
  2  1  1  0
  3  2  2  0
  4  2  1  0
  5  4  1  0
  6  8  1  0
  6  5  1  0
  6  7  1  6
  8  9  2  0
 11 12  2  0
 11 10  1  0
 13 11  1  0
 14 13  1  0
 15 14  1  0
 16 15  1  0
 17 16  1  1
 18 17  1  0
 18  8  1  0
 19 17  1  0
 20 19  2  0
 21 19  1  0
 22 23  1  6
 22 21  1  0
 23 24  1  0
 25 26  1  0
 25 22  1  0
 27 25  2  0
M  END
$$$$
