QRC.pdb
     RDKit          3D

 27 26  0  0  1  0  0  0  0  0999 V2000
   10.1963  -21.6774   24.3713 N   0  0  0  0  0  0  0  0  0  0  0  0
   11.3944  -20.9352   24.5365 C   0  0  0  0  0  0  0  0  0  0  0  0
   12.1875  -21.3057   25.4382 O   0  0  0  0  0  0  0  0  0  0  0  0
   11.6428  -19.7756   23.6461 C   0  0  0  0  0  0  0  0  0  0  0  0
   10.5673  -19.6670   22.5875 C   0  0  0  0  0  0  0  0  0  0  0  0
   10.8174  -18.5221   21.6457 C   0  0  2  0  0  0  0  0  0  0  0  0
   12.1004  -18.6727   21.0018 N   0  0  0  0  0  0  0  0  0  0  0  0
   10.6852  -17.1984   22.3170 C   0  0  0  0  0  0  0  0  0  0  0  0
   11.7250  -16.5820   22.6652 O   0  0  0  0  0  0  0  0  0  0  0  0
    9.2402  -14.6649   18.7308 N   0  0  0  0  0  0  0  0  0  0  0  0
    8.2279  -13.6788   18.5720 C   0  0  0  0  0  0  0  0  0  0  0  0
    8.2798  -12.8870   17.5803 N   0  0  0  0  0  0  0  0  0  0  0  0
    7.1595  -13.5743   19.5241 N   0  0  0  0  0  0  0  0  0  0  0  0
    7.0441  -14.4648   20.6691 C   0  0  0  0  0  0  0  0  0  0  0  0
    7.8988  -13.8854   21.7748 C   0  0  0  0  0  0  0  0  0  0  0  0
    7.9055  -14.7484   23.0138 C   0  0  0  0  0  0  0  0  0  0  0  0
    9.2342  -15.3425   23.2917 C   0  0  2  0  0  0  0  0  0  0  0  0
    9.4421  -16.5914   22.5873 N   0  0  0  0  0  0  0  0  0  0  0  0
    9.5408  -15.5780   24.7019 C   0  0  0  0  0  0  0  0  0  0  0  0
    8.8370  -16.3956   25.3399 O   0  0  0  0  0  0  0  0  0  0  0  0
    7.5468  -12.1722   17.4301 N   0  0  0  0  0  0  0  0  0  0  0  0
   10.5857  -14.9468   25.4204 C   0  0  1  0  0  0  0  0  0  0  0  0
   10.4900  -14.5373   26.7844 C   0  0  0  0  0  0  0  0  0  0  0  0
    9.3462  -13.5511   27.0037 S   0  0  0  0  0  0  0  0  0  0  0  0
    9.2817  -13.0340   28.7310 C   0  0  0  0  0  0  0  0  0  0  0  0
   10.3347  -15.7225   27.6644 O   0  0  0  0  0  0  0  0  0  0  0  0
   10.7587  -15.7377   28.9827 O   0  0  0  0  0  0  0  0  0  0  0  0
  2  1  1  0
  3  2  2  0
  4  2  1  0
  5  4  1  0
  6  8  1  0
  6  5  1  0
  6  7  1  1
  8  9  2  0
 11 12  2  0
 11 10  1  0
 13 11  1  0
 14 13  1  0
 15 14  1  0
 16 15  1  0
 17 16  1  1
 18 17  1  0
 18  8  1  0
 19 17  1  0
 20 19  2  0
 21 19  1  0
 22 23  1  6
 22 21  1  0
 23 24  1  0
 25 26  1  0
 25 22  1  0
 27 25  2  0
M  END
$$$$
