QRC.pdb
     RDKit          3D

 27 26  0  0  1  0  0  0  0  0999 V2000
    8.8408  -11.6603   19.4510 N   0  0  0  0  0  0  0  0  0  0  0  0
    9.5282  -12.8296   19.0341 C   0  0  0  0  0  0  0  0  0  0  0  0
   10.6433  -12.6793   18.4741 O   0  0  0  0  0  0  0  0  0  0  0  0
    8.9007  -14.1507   19.2791 C   0  0  0  0  0  0  0  0  0  0  0  0
    7.8548  -14.0584   20.3686 C   0  0  0  0  0  0  0  0  0  0  0  0
    7.2138  -15.3892   20.6483 C   0  0  2  0  0  0  0  0  0  0  0  0
    5.9912  -15.5261   19.8934 N   0  0  0  0  0  0  0  0  0  0  0  0
    6.9953  -15.6168   22.1047 C   0  0  0  0  0  0  0  0  0  0  0  0
    6.1391  -14.9228   22.7110 O   0  0  0  0  0  0  0  0  0  0  0  0
    7.4481  -23.0008   26.3264 N   0  0  0  0  0  0  0  0  0  0  0  0
    6.5226  -22.2346   25.5657 C   0  0  0  0  0  0  0  0  0  0  0  0
    5.6599  -22.8315   24.8497 N   0  0  0  0  0  0  0  0  0  0  0  0
    6.5637  -20.8007   25.6013 N   0  0  0  0  0  0  0  0  0  0  0  0
    7.5642  -20.0670   26.3615 C   0  0  0  0  0  0  0  0  0  0  0  0
    7.3892  -18.6005   26.0332 C   0  0  0  0  0  0  0  0  0  0  0  0
    7.6469  -18.2988   24.5763 C   0  0  0  0  0  0  0  0  0  0  0  0
    7.5498  -16.8535   24.2640 C   0  0  2  0  0  0  0  0  0  0  0  0
    7.7056  -16.5796   22.8498 N   0  0  0  0  0  0  0  0  0  0  0  0
    8.4802  -15.9854   24.9842 C   0  0  0  0  0  0  0  0  0  0  0  0
    8.9062  -14.9560   24.4099 O   0  0  0  0  0  0  0  0  0  0  0  0
    4.9849  -22.2991   24.2737 N   0  0  0  0  0  0  0  0  0  0  0  0
    8.9495  -16.2156   26.3007 C   0  0  2  0  0  0  0  0  0  0  0  0
    9.5437  -15.2161   27.1284 C   0  0  0  0  0  0  0  0  0  0  0  0
    8.6558  -13.9815   27.2564 S   0  0  0  0  0  0  0  0  0  0  0  0
    9.3596  -12.8187   28.4429 C   0  0  0  0  0  0  0  0  0  0  0  0
    9.8537  -15.7784   28.4667 O   0  0  0  0  0  0  0  0  0  0  0  0
   10.8527  -15.2702   29.2800 O   0  0  0  0  0  0  0  0  0  0  0  0
  2  1  1  0
  3  2  2  0
  4  2  1  0
  5  4  1  0
  6  8  1  0
  6  5  1  0
  6  7  1  6
  8  9  2  0
 11 12  2  0
 11 10  1  0
 13 11  1  0
 14 13  1  0
 15 14  1  0
 16 15  1  0
 17 16  1  6
 18 17  1  0
 18  8  1  0
 19 17  1  0
 20 19  2  0
 21 19  1  0
 22 23  1  6
 22 21  1  0
 23 24  1  0
 25 26  1  0
 25 22  1  0
 27 25  2  0
M  END
$$$$
