IGL.pdb
     RDKit          3D

 21 20  0  0  1  0  0  0  0  0999 V2000
   21.5895  -19.3223  -15.5845 C   0  0  0  0  0  0  0  0  0  0  0  0
   22.8394  -20.0352  -15.1871 C   0  0  0  0  0  0  0  0  0  0  0  0
   23.1469  -19.9765  -13.7229 C   0  0  2  0  0  0  0  0  0  0  0  0
   24.3709  -19.1291  -13.4314 C   0  0  0  0  0  0  0  0  0  0  0  0
   23.2107  -21.3268  -13.0755 C   0  0  2  0  0  0  0  0  0  0  0  0
   22.0782  -22.1602  -13.3356 N   0  0  0  0  0  0  0  0  0  0  0  0
   23.4633  -21.1628  -11.6257 C   0  0  0  0  0  0  0  0  0  0  0  0
   22.5034  -20.8628  -10.8743 O   0  0  0  0  0  0  0  0  0  0  0  0
   24.7593  -21.3328  -11.0473 N   0  0  0  0  0  0  0  0  0  0  0  0
   24.9364  -20.9429   -9.6892 C   0  0  0  0  0  0  0  0  0  0  0  0
   26.2827  -20.5035   -9.3133 C   0  0  0  0  0  0  0  0  0  0  0  0
   26.9502  -19.8059  -10.1555 O   0  0  0  0  0  0  0  0  0  0  0  0
   27.4381  -18.3023   -5.8707 C   0  0  0  0  0  0  0  0  0  0  0  0
   28.5715  -19.2425   -5.6421 C   0  0  1  0  0  0  0  0  0  0  0  0
   28.6405  -19.4843   -4.1319 C   0  0  0  0  0  0  0  0  0  0  0  0
   28.6636  -20.4671   -6.4273 C   0  0  0  0  0  0  0  0  0  0  0  0
   28.3843  -20.4731   -7.8745 C   0  0  2  0  0  0  0  0  0  0  0  0
   26.9414  -20.7729   -8.0910 N   0  0  0  0  0  0  0  0  0  0  0  0
   29.1957  -21.2783   -8.7742 C   0  0  0  0  0  0  0  0  0  0  0  0
   30.2860  -20.9875   -9.2790 O   0  0  0  0  0  0  0  0  0  0  0  0
   28.7086  -22.5537   -9.1357 O   0  0  0  0  0  0  0  0  0  0  0  0
  1  2  1  0
  2  3  1  0
  3  5  1  0
  3  4  1  6
  5  6  1  1
  7  5  1  0
  7  9  1  0
  8  7  2  0
 10  9  1  0
 10 11  1  0
 11 18  1  0
 12 11  2  0
 14 13  1  1
 14 15  1  0
 16 14  1  0
 17 16  1  1
 18 17  1  0
 19 21  1  0
 19 17  1  0
 20 19  2  0
M  END
$$$$
