IGL.pdb
     RDKit          3D

 21 20  0  0  1  0  0  0  0  0999 V2000
   17.6840  -16.0449  -20.3847 C   0  0  0  0  0  0  0  0  0  0  0  0
   18.4466  -14.7749  -20.2004 C   0  0  0  0  0  0  0  0  0  0  0  0
   17.9853  -13.9373  -19.0483 C   0  0  2  0  0  0  0  0  0  0  0  0
   16.5604  -13.4503  -19.2325 C   0  0  0  0  0  0  0  0  0  0  0  0
   18.9347  -12.8303  -18.7018 C   0  0  2  0  0  0  0  0  0  0  0  0
   20.3005  -13.2381  -18.5884 N   0  0  0  0  0  0  0  0  0  0  0  0
   18.4548  -12.1375  -17.4843 C   0  0  0  0  0  0  0  0  0  0  0  0
   18.5148  -12.7375  -16.3832 O   0  0  0  0  0  0  0  0  0  0  0  0
   17.9252  -10.8102  -17.5136 N   0  0  0  0  0  0  0  0  0  0  0  0
   17.4403  -10.2619  -16.2921 C   0  0  0  0  0  0  0  0  0  0  0  0
   18.4331   -9.5995  -15.4420 C   0  0  0  0  0  0  0  0  0  0  0  0
   18.0300   -9.0390  -14.3627 O   0  0  0  0  0  0  0  0  0  0  0  0
   23.9618  -11.0633  -14.0546 C   0  0  0  0  0  0  0  0  0  0  0  0
   23.0827   -9.9854  -14.5893 C   0  0  1  0  0  0  0  0  0  0  0  0
   23.2992   -9.9566  -16.1045 C   0  0  0  0  0  0  0  0  0  0  0  0
   21.6768   -9.9437  -14.2065 C   0  0  0  0  0  0  0  0  0  0  0  0
   20.7729   -8.8986  -14.7195 C   0  0  2  0  0  0  0  0  0  0  0  0
   19.8227   -9.5099  -15.6902 N   0  0  0  0  0  0  0  0  0  0  0  0
   21.3154   -7.6661  -15.2700 C   0  0  0  0  0  0  0  0  0  0  0  0
   21.2903   -7.2837  -16.4453 O   0  0  0  0  0  0  0  0  0  0  0  0
   21.9553   -6.7743  -14.3813 O   0  0  0  0  0  0  0  0  0  0  0  0
  1  2  1  0
  2  3  1  0
  3  5  1  0
  3  4  1  6
  5  6  1  1
  7  5  1  0
  7  9  1  0
  8  7  2  0
 10  9  1  0
 10 11  1  0
 11 18  1  0
 12 11  2  0
 14 13  1  6
 14 15  1  0
 16 14  1  0
 17 16  1  6
 18 17  1  0
 19 21  1  0
 19 17  1  0
 20 19  2  0
M  END
$$$$
