IGL.pdb
     RDKit          3D

 21 20  0  0  1  0  0  0  0  0999 V2000
   24.8981  -15.1202  -15.2286 C   0  0  0  0  0  0  0  0  0  0  0  0
   24.4887  -14.1558  -16.2919 C   0  0  0  0  0  0  0  0  0  0  0  0
   23.3944  -13.2169  -15.8885 C   0  0  2  0  0  0  0  0  0  0  0  0
   22.1354  -13.9544  -15.4730 C   0  0  0  0  0  0  0  0  0  0  0  0
   23.1290  -12.1447  -16.9016 C   0  0  2  0  0  0  0  0  0  0  0  0
   24.3039  -11.5003  -17.4007 N   0  0  0  0  0  0  0  0  0  0  0  0
   22.1538  -11.1783  -16.3471 C   0  0  0  0  0  0  0  0  0  0  0  0
   20.9997  -11.5805  -16.0599 O   0  0  0  0  0  0  0  0  0  0  0  0
   22.4753   -9.8033  -16.1255 N   0  0  0  0  0  0  0  0  0  0  0  0
   21.4424   -8.9494  -15.6439 C   0  0  0  0  0  0  0  0  0  0  0  0
   21.8271   -7.5630  -15.3665 C   0  0  0  0  0  0  0  0  0  0  0  0
   23.0749   -7.2859  -15.2785 O   0  0  0  0  0  0  0  0  0  0  0  0
   18.7250   -3.4419  -17.2111 C   0  0  0  0  0  0  0  0  0  0  0  0
   19.9541   -4.1895  -16.8224 C   0  0  1  0  0  0  0  0  0  0  0  0
   21.0273   -3.8318  -17.8539 C   0  0  0  0  0  0  0  0  0  0  0  0
   20.4325   -4.1274  -15.4469 C   0  0  0  0  0  0  0  0  0  0  0  0
   21.4331   -5.0831  -14.9390 C   0  0  2  0  0  0  0  0  0  0  0  0
   20.9481   -6.4706  -15.1806 N   0  0  0  0  0  0  0  0  0  0  0  0
   21.9341   -4.9657  -13.5783 C   0  0  0  0  0  0  0  0  0  0  0  0
   21.7428   -5.7350  -12.6298 O   0  0  0  0  0  0  0  0  0  0  0  0
   22.7410   -3.8488  -13.2684 O   0  0  0  0  0  0  0  0  0  0  0  0
  1  2  1  0
  2  3  1  0
  3  5  1  0
  3  4  1  6
  5  6  1  1
  7  5  1  0
  7  9  1  0
  8  7  2  0
 10  9  1  0
 10 11  1  0
 11 18  1  0
 12 11  2  0
 14 13  1  1
 14 15  1  0
 16 14  1  0
 17 16  1  1
 18 17  1  0
 19 21  1  0
 19 17  1  0
 20 19  2  0
M  END
$$$$
