IGL.pdb
     RDKit          3D

 21 20  0  0  1  0  0  0  0  0999 V2000
   26.9589  -17.5854  -14.8295 C   0  0  0  0  0  0  0  0  0  0  0  0
   26.5421  -18.9336  -14.3428 C   0  0  0  0  0  0  0  0  0  0  0  0
   27.4871  -19.5577  -13.3633 C   0  0  2  0  0  0  0  0  0  0  0  0
   28.9013  -19.6363  -13.9068 C   0  0  0  0  0  0  0  0  0  0  0  0
   27.0014  -20.8688  -12.8232 C   0  0  2  0  0  0  0  0  0  0  0  0
   26.7889  -21.8745  -13.8173 N   0  0  0  0  0  0  0  0  0  0  0  0
   25.7970  -20.6397  -11.9928 C   0  0  0  0  0  0  0  0  0  0  0  0
   25.8281  -19.7415  -11.1162 O   0  0  0  0  0  0  0  0  0  0  0  0
   24.5983  -21.4022  -12.1504 N   0  0  0  0  0  0  0  0  0  0  0  0
   23.4027  -20.8860  -11.5744 C   0  0  0  0  0  0  0  0  0  0  0  0
   22.3428  -20.5101  -12.5138 C   0  0  0  0  0  0  0  0  0  0  0  0
   22.5151  -19.4664  -13.2365 O   0  0  0  0  0  0  0  0  0  0  0  0
   21.3384  -23.0179  -16.7576 C   0  0  0  0  0  0  0  0  0  0  0  0
   21.2884  -21.9012  -15.7722 C   0  0  1  0  0  0  0  0  0  0  0  0
   21.5350  -20.6120  -16.5603 C   0  0  0  0  0  0  0  0  0  0  0  0
   20.1673  -21.8054  -14.8455 C   0  0  0  0  0  0  0  0  0  0  0  0
   20.1456  -20.7982  -13.7697 C   0  0  2  0  0  0  0  0  0  0  0  0
   21.1198  -21.1919  -12.7139 N   0  0  0  0  0  0  0  0  0  0  0  0
   18.8854  -20.4075  -13.1569 C   0  0  0  0  0  0  0  0  0  0  0  0
   18.4622  -20.7058  -12.0344 O   0  0  0  0  0  0  0  0  0  0  0  0
   18.0150  -19.5871  -13.9079 O   0  0  0  0  0  0  0  0  0  0  0  0
  1  2  1  0
  2  3  1  0
  3  5  1  0
  3  4  1  6
  5  6  1  6
  7  5  1  0
  7  9  1  0
  8  7  2  0
 10  9  1  0
 10 11  1  0
 11 18  1  0
 12 11  2  0
 14 13  1  6
 14 15  1  0
 16 14  1  0
 17 16  1  6
 18 17  1  0
 19 21  1  0
 19 17  1  0
 20 19  2  0
M  END
$$$$
