IGL.pdb
     RDKit          3D

 21 20  0  0  1  0  0  0  0  0999 V2000
   21.0594  -16.6569  -18.3631 C   0  0  0  0  0  0  0  0  0  0  0  0
   20.1082  -16.3139  -17.2649 C   0  0  0  0  0  0  0  0  0  0  0  0
   19.6004  -14.9058  -17.3030 C   0  0  2  0  0  0  0  0  0  0  0  0
   20.7279  -13.8920  -17.2543 C   0  0  0  0  0  0  0  0  0  0  0  0
   18.5326  -14.6326  -16.2872 C   0  0  2  0  0  0  0  0  0  0  0  0
   17.5439  -15.6600  -16.1792 N   0  0  0  0  0  0  0  0  0  0  0  0
   17.9330  -13.3050  -16.5529 C   0  0  0  0  0  0  0  0  0  0  0  0
   17.1398  -13.1814  -17.5182 O   0  0  0  0  0  0  0  0  0  0  0  0
   18.2221  -12.1569  -15.7521 N   0  0  0  0  0  0  0  0  0  0  0  0
   17.5956  -10.9274  -16.1038 C   0  0  0  0  0  0  0  0  0  0  0  0
   18.4921   -9.8076  -16.4030 C   0  0  0  0  0  0  0  0  0  0  0  0
   19.7458   -9.9603  -16.1875 O   0  0  0  0  0  0  0  0  0  0  0  0
   20.6252   -5.3333  -19.0569 C   0  0  0  0  0  0  0  0  0  0  0  0
   19.2819   -5.2567  -18.4161 C   0  0  1  0  0  0  0  0  0  0  0  0
   18.4538   -4.2785  -19.2534 C   0  0  0  0  0  0  0  0  0  0  0  0
   18.5672   -6.4840  -18.0881 C   0  0  0  0  0  0  0  0  0  0  0  0
   19.0780   -7.4206  -17.0712 C   0  0  2  0  0  0  0  0  0  0  0  0
   18.1137   -8.5453  -16.9165 N   0  0  0  0  0  0  0  0  0  0  0  0
   19.4802   -6.9322  -15.7612 C   0  0  0  0  0  0  0  0  0  0  0  0
   20.4759   -6.2576  -15.4752 O   0  0  0  0  0  0  0  0  0  0  0  0
   18.6555   -7.2487  -14.6593 O   0  0  0  0  0  0  0  0  0  0  0  0
  1  2  1  0
  2  3  1  0
  3  5  1  0
  3  4  1  1
  5  6  1  6
  7  5  1  0
  7  9  1  0
  8  7  2  0
 10  9  1  0
 10 11  1  0
 11 18  1  0
 12 11  2  0
 14 13  1  6
 14 15  1  0
 16 14  1  0
 17 16  1  6
 18 17  1  0
 19 21  1  0
 19 17  1  0
 20 19  2  0
M  END
$$$$
