IGL.pdb
     RDKit          3D

 21 20  0  0  1  0  0  0  0  0999 V2000
   21.5919  -29.9397   -1.5827 C   0  0  0  0  0  0  0  0  0  0  0  0
   20.3572  -29.2278   -2.0264 C   0  0  0  0  0  0  0  0  0  0  0  0
   19.7494  -28.3365   -0.9881 C   0  0  2  0  0  0  0  0  0  0  0  0
   19.4332  -29.0864    0.2921 C   0  0  0  0  0  0  0  0  0  0  0  0
   18.5840  -27.5425   -1.4963 C   0  0  2  0  0  0  0  0  0  0  0  0
   18.7938  -26.9391   -2.7756 N   0  0  0  0  0  0  0  0  0  0  0  0
   18.1815  -26.5533   -0.4706 C   0  0  0  0  0  0  0  0  0  0  0  0
   18.7624  -25.4406   -0.4420 O   0  0  0  0  0  0  0  0  0  0  0  0
   17.1560  -26.8159    0.4898 N   0  0  0  0  0  0  0  0  0  0  0  0
   16.8670  -25.8015    1.4465 C   0  0  0  0  0  0  0  0  0  0  0  0
   17.6047  -25.8761    2.7103 C   0  0  0  0  0  0  0  0  0  0  0  0
   18.6260  -26.6473    2.7717 O   0  0  0  0  0  0  0  0  0  0  0  0
   18.3575  -21.7315    6.4749 C   0  0  0  0  0  0  0  0  0  0  0  0
   18.6024  -22.9614    5.6700 C   0  0  1  0  0  0  0  0  0  0  0  0
   20.1216  -23.1140    5.5570 C   0  0  0  0  0  0  0  0  0  0  0  0
   17.9226  -24.2020    6.0216 C   0  0  0  0  0  0  0  0  0  0  0  0
   18.0346  -25.4041    5.1762 C   0  0  2  0  0  0  0  0  0  0  0  0
   17.3039  -25.1714    3.8992 N   0  0  0  0  0  0  0  0  0  0  0  0
   17.6878  -26.7115    5.7116 C   0  0  0  0  0  0  0  0  0  0  0  0
   16.6164  -27.3178    5.6002 O   0  0  0  0  0  0  0  0  0  0  0  0
   18.6720  -27.4004    6.4543 O   0  0  0  0  0  0  0  0  0  0  0  0
  1  2  1  0
  2  3  1  0
  3  5  1  0
  3  4  1  1
  5  6  1  6
  7  5  1  0
  7  9  1  0
  8  7  2  0
 10  9  1  0
 10 11  1  0
 11 18  1  0
 12 11  2  0
 14 13  1  1
 14 15  1  0
 16 14  1  0
 17 16  1  1
 18 17  1  0
 19 21  1  0
 19 17  1  0
 20 19  2  0
M  END
$$$$
