IGL.pdb
     RDKit          3D

 21 20  0  0  1  0  0  0  0  0999 V2000
   23.2093  -18.2282  -16.6670 C   0  0  0  0  0  0  0  0  0  0  0  0
   24.2110  -19.3347  -16.6834 C   0  0  0  0  0  0  0  0  0  0  0  0
   25.0250  -19.4517  -15.4321 C   0  0  2  0  0  0  0  0  0  0  0  0
   24.1921  -19.9149  -14.2518 C   0  0  0  0  0  0  0  0  0  0  0  0
   25.8254  -18.2215  -15.1278 C   0  0  2  0  0  0  0  0  0  0  0  0
   26.6955  -17.8071  -16.1843 N   0  0  0  0  0  0  0  0  0  0  0  0
   26.5486  -18.4121  -13.8499 C   0  0  0  0  0  0  0  0  0  0  0  0
   27.6492  -19.0162  -13.8616 O   0  0  0  0  0  0  0  0  0  0  0  0
   26.0422  -17.9346  -12.6015 N   0  0  0  0  0  0  0  0  0  0  0  0
   26.8255  -18.1664  -11.4350 C   0  0  0  0  0  0  0  0  0  0  0  0
   26.4022  -19.2809  -10.5833 C   0  0  0  0  0  0  0  0  0  0  0  0
   25.7346  -20.2342  -11.1193 O   0  0  0  0  0  0  0  0  0  0  0  0
   28.6274  -18.9385   -7.0869 C   0  0  0  0  0  0  0  0  0  0  0  0
   27.9247  -20.1640   -6.6126 C   0  0  1  0  0  0  0  0  0  0  0  0
   28.1609  -20.2458   -5.1021 C   0  0  0  0  0  0  0  0  0  0  0  0
   26.5362  -20.3931   -6.9926 C   0  0  0  0  0  0  0  0  0  0  0  0
   26.1467  -20.5724   -8.4027 C   0  0  2  0  0  0  0  0  0  0  0  0
   26.6571  -19.4218   -9.1992 N   0  0  0  0  0  0  0  0  0  0  0  0
   24.7595  -20.8372   -8.7519 C   0  0  0  0  0  0  0  0  0  0  0  0
   24.1556  -21.9145   -8.6992 O   0  0  0  0  0  0  0  0  0  0  0  0
   23.9783  -19.7538   -9.2108 O   0  0  0  0  0  0  0  0  0  0  0  0
  1  2  1  0
  2  3  1  0
  3  5  1  0
  3  4  1  1
  5  6  1  6
  7  5  1  0
  7  9  1  0
  8  7  2  0
 10  9  1  0
 10 11  1  0
 11 18  1  0
 12 11  2  0
 14 13  1  1
 14 15  1  0
 16 14  1  0
 17 16  1  1
 18 17  1  0
 19 21  1  0
 19 17  1  0
 20 19  2  0
M  END
$$$$
