IGL.pdb
     RDKit          3D

 21 20  0  0  1  0  0  0  0  0999 V2000
   26.7096  -16.4097  -18.8868 C   0  0  0  0  0  0  0  0  0  0  0  0
   26.2532  -17.6280  -18.1548 C   0  0  0  0  0  0  0  0  0  0  0  0
   26.2490  -17.4893  -16.6639 C   0  0  2  0  0  0  0  0  0  0  0  0
   27.6180  -17.1242  -16.1218 C   0  0  0  0  0  0  0  0  0  0  0  0
   25.6432  -18.6661  -15.9604 C   0  0  2  0  0  0  0  0  0  0  0  0
   24.4073  -19.1168  -16.5208 N   0  0  0  0  0  0  0  0  0  0  0  0
   25.5252  -18.3645  -14.5155 C   0  0  0  0  0  0  0  0  0  0  0  0
   24.7949  -17.4092  -14.1543 O   0  0  0  0  0  0  0  0  0  0  0  0
   26.2110  -19.1195  -13.5142 N   0  0  0  0  0  0  0  0  0  0  0  0
   26.0539  -18.7186  -12.1568 C   0  0  0  0  0  0  0  0  0  0  0  0
   26.6707  -19.5874  -11.1509 C   0  0  0  0  0  0  0  0  0  0  0  0
   27.2947  -20.6319  -11.5523 O   0  0  0  0  0  0  0  0  0  0  0  0
   27.8899  -18.6747   -5.7111 C   0  0  0  0  0  0  0  0  0  0  0  0
   27.7818  -19.3337   -7.0433 C   0  0  1  0  0  0  0  0  0  0  0  0
   29.0221  -20.2183   -7.1948 C   0  0  0  0  0  0  0  0  0  0  0  0
   26.5441  -20.0064   -7.4179 C   0  0  0  0  0  0  0  0  0  0  0  0
   26.3172  -20.4847   -8.7934 C   0  0  2  0  0  0  0  0  0  0  0  0
   26.6510  -19.3929   -9.7501 N   0  0  0  0  0  0  0  0  0  0  0  0
   25.0453  -21.0888   -9.1589 C   0  0  0  0  0  0  0  0  0  0  0  0
   24.0817  -20.5513   -9.7162 O   0  0  0  0  0  0  0  0  0  0  0  0
   24.8542  -22.4547   -8.8547 O   0  0  0  0  0  0  0  0  0  0  0  0
  1  2  1  0
  2  3  1  0
  3  5  1  0
  3  4  1  1
  5  6  1  6
  7  5  1  0
  7  9  1  0
  8  7  2  0
 10  9  1  0
 10 11  1  0
 11 18  1  0
 12 11  2  0
 14 13  1  1
 14 15  1  0
 16 14  1  0
 17 16  1  1
 18 17  1  0
 19 21  1  0
 19 17  1  0
 20 19  2  0
M  END
$$$$
