CQR.pdb
     RDKit          3D

 27 26  0  0  1  0  0  0  0  0999 V2000
   27.8630  -21.6404  -16.2355 N   0  0  0  0  0  0  0  0  0  0  0  0
   27.7454  -20.5855  -15.2202 C   0  0  1  0  0  0  0  0  0  0  0  0
   27.2483  -19.3237  -15.9323 C   0  0  0  0  0  0  0  0  0  0  0  0
   28.5664  -18.6739  -16.9617 S   0  0  0  0  0  0  0  0  0  0  0  0
   26.8496  -20.9902  -14.1387 C   0  0  0  0  0  0  0  0  0  0  0  0
   25.8903  -21.7829  -14.4478 O   0  0  0  0  0  0  0  0  0  0  0  0
   26.7326  -20.0103   -7.6091 N   0  0  0  0  0  0  0  0  0  0  0  0
   25.5487  -20.7098   -7.9607 C   0  0  0  0  0  0  0  0  0  0  0  0
   24.7743  -21.0759   -7.0354 O   0  0  0  0  0  0  0  0  0  0  0  0
   25.2297  -21.0071   -9.3688 C   0  0  0  0  0  0  0  0  0  0  0  0
   26.2515  -20.6627  -10.3813 C   0  0  0  0  0  0  0  0  0  0  0  0
   25.9199  -20.8862  -11.8053 C   0  0  2  0  0  0  0  0  0  0  0  0
   26.9479  -20.5844  -12.7711 N   0  0  0  0  0  0  0  0  0  0  0  0
   24.6073  -20.3211  -12.2055 C   0  0  0  0  0  0  0  0  0  0  0  0
   24.5888  -19.1283  -12.6080 O   0  0  0  0  0  0  0  0  0  0  0  0
   21.6228  -18.2634  -19.0085 N   0  0  0  0  0  0  0  0  0  0  0  0
   20.4265  -18.0488  -18.2523 C   0  0  0  0  0  0  0  0  0  0  0  0
   19.4172  -17.4177  -18.7425 N   0  0  0  0  0  0  0  0  0  0  0  0
   20.3502  -18.5405  -16.9398 N   0  0  0  0  0  0  0  0  0  0  0  0
   21.5353  -19.1936  -16.3392 C   0  0  0  0  0  0  0  0  0  0  0  0
   21.2883  -19.5326  -14.9205 C   0  0  0  0  0  0  0  0  0  0  0  0
   22.3609  -20.1596  -14.1349 C   0  0  0  0  0  0  0  0  0  0  0  0
   22.1212  -20.5352  -12.7419 C   0  0  2  0  0  0  0  0  0  0  0  0
   23.3981  -21.0453  -12.1579 N   0  0  0  0  0  0  0  0  0  0  0  0
   21.0115  -21.3378  -12.2849 C   0  0  0  0  0  0  0  0  0  0  0  0
   20.9700  -22.5858  -12.1117 O   0  0  0  0  0  0  0  0  0  0  0  0
   19.7510  -20.7314  -11.9605 O   0  0  0  0  0  0  0  0  0  0  0  0
  2  1  1  6
  3  2  1  0
  4  3  1  0
  5  2  1  0
  5  6  2  0
  7  8  1  0
  8  9  2  0
  8 10  1  0
 10 11  1  0
 12 11  1  1
 12 13  1  0
 13  5  1  0
 14 12  1  0
 15 14  2  0
 16 17  1  0
 17 19  1  0
 18 17  2  0
 19 20  1  0
 20 21  1  0
 22 21  1  0
 23 22  1  6
 23 24  1  0
 24 14  1  0
 25 23  1  0
 26 25  2  0
 27 25  1  0
M  END
$$$$
