CQR.pdb
     RDKit          3D

 27 26  0  0  1  0  0  0  0  0999 V2000
   28.1937  -21.7036  -16.1357 N   0  0  0  0  0  0  0  0  0  0  0  0
   27.6311  -20.5980  -15.3492 C   0  0  1  0  0  0  0  0  0  0  0  0
   27.2434  -19.4913  -16.3346 C   0  0  0  0  0  0  0  0  0  0  0  0
   28.7204  -18.5970  -16.8224 S   0  0  0  0  0  0  0  0  0  0  0  0
   26.4897  -21.0433  -14.5524 C   0  0  0  0  0  0  0  0  0  0  0  0
   25.7350  -21.9397  -15.0729 O   0  0  0  0  0  0  0  0  0  0  0  0
   24.7119  -20.4463   -8.2603 N   0  0  0  0  0  0  0  0  0  0  0  0
   23.5149  -20.6086   -9.0056 C   0  0  0  0  0  0  0  0  0  0  0  0
   22.4216  -20.6455   -8.3786 O   0  0  0  0  0  0  0  0  0  0  0  0
   23.5435  -20.7353  -10.4739 C   0  0  0  0  0  0  0  0  0  0  0  0
   24.8714  -20.8187  -11.1202 C   0  0  0  0  0  0  0  0  0  0  0  0
   24.9189  -20.9646  -12.5913 C   0  0  2  0  0  0  0  0  0  0  0  0
   26.1416  -20.5721  -13.2480 N   0  0  0  0  0  0  0  0  0  0  0  0
   23.7245  -20.4174  -13.2815 C   0  0  0  0  0  0  0  0  0  0  0  0
   23.9049  -19.4623  -14.0817 O   0  0  0  0  0  0  0  0  0  0  0  0
   25.7768  -23.7812  -17.1509 N   0  0  0  0  0  0  0  0  0  0  0  0
   24.5760  -24.4745  -16.7953 C   0  0  0  0  0  0  0  0  0  0  0  0
   24.5974  -25.6730  -16.3259 N   0  0  0  0  0  0  0  0  0  0  0  0
   23.3401  -23.8302  -16.9617 N   0  0  0  0  0  0  0  0  0  0  0  0
   23.3097  -22.4324  -17.4480 C   0  0  0  0  0  0  0  0  0  0  0  0
   22.6646  -21.5431  -16.4571 C   0  0  0  0  0  0  0  0  0  0  0  0
   22.2351  -22.0990  -15.1659 C   0  0  0  0  0  0  0  0  0  0  0  0
   21.5042  -21.2598  -14.2170 C   0  0  2  0  0  0  0  0  0  0  0  0
   22.4169  -20.9089  -13.0875 N   0  0  0  0  0  0  0  0  0  0  0  0
   20.1811  -21.5453  -13.7148 C   0  0  0  0  0  0  0  0  0  0  0  0
   19.8578  -22.0203  -12.5926 O   0  0  0  0  0  0  0  0  0  0  0  0
   19.0194  -21.2911  -14.5195 O   0  0  0  0  0  0  0  0  0  0  0  0
  2  1  1  6
  3  2  1  0
  4  3  1  0
  5  2  1  0
  5  6  2  0
  7  8  1  0
  8  9  2  0
  8 10  1  0
 10 11  1  0
 12 11  1  1
 12 13  1  0
 13  5  1  0
 14 12  1  0
 15 14  2  0
 16 17  1  0
 17 19  1  0
 18 17  2  0
 19 20  1  0
 20 21  1  0
 22 21  1  0
 23 22  1  1
 23 24  1  0
 24 14  1  0
 25 23  1  0
 26 25  2  0
 27 25  1  0
M  END
$$$$
