CQR.pdb
     RDKit          3D

 27 26  0  0  1  0  0  0  0  0999 V2000
   28.4479  -18.6903   -5.5824 N   0  0  0  0  0  0  0  0  0  0  0  0
   28.1168  -20.0380   -6.0636 C   0  0  1  0  0  0  0  0  0  0  0  0
   26.7417  -20.3986   -5.4932 C   0  0  0  0  0  0  0  0  0  0  0  0
   26.8485  -20.4641   -3.7034 S   0  0  0  0  0  0  0  0  0  0  0  0
   28.1342  -20.0970   -7.5238 C   0  0  0  0  0  0  0  0  0  0  0  0
   27.5733  -19.1282   -8.1489 O   0  0  0  0  0  0  0  0  0  0  0  0
   32.0561  -23.3527  -11.5061 N   0  0  0  0  0  0  0  0  0  0  0  0
   32.3444  -22.3498  -10.5440 C   0  0  0  0  0  0  0  0  0  0  0  0
   33.5484  -22.1611  -10.2205 O   0  0  0  0  0  0  0  0  0  0  0  0
   31.2681  -21.5495   -9.9326 C   0  0  0  0  0  0  0  0  0  0  0  0
   29.8900  -21.7887  -10.4140 C   0  0  0  0  0  0  0  0  0  0  0  0
   28.7877  -21.0560   -9.7538 C   0  0  2  0  0  0  0  0  0  0  0  0
   28.7205  -21.1338   -8.3151 N   0  0  0  0  0  0  0  0  0  0  0  0
   27.4619  -21.2880  -10.3790 C   0  0  0  0  0  0  0  0  0  0  0  0
   26.7494  -22.2094   -9.9009 O   0  0  0  0  0  0  0  0  0  0  0  0
   19.5104  -20.2188  -10.4159 N   0  0  0  0  0  0  0  0  0  0  0  0
   19.7595  -21.2600  -11.3661 C   0  0  0  0  0  0  0  0  0  0  0  0
   18.8616  -22.1309  -11.6705 N   0  0  0  0  0  0  0  0  0  0  0  0
   21.0174  -21.3342  -11.9846 N   0  0  0  0  0  0  0  0  0  0  0  0
   22.0421  -20.3130  -11.6706 C   0  0  0  0  0  0  0  0  0  0  0  0
   23.2971  -20.5814  -12.4066 C   0  0  0  0  0  0  0  0  0  0  0  0
   24.5845  -20.4000  -11.7207 C   0  0  0  0  0  0  0  0  0  0  0  0
   25.8030  -20.9717  -12.2928 C   0  0  2  0  0  0  0  0  0  0  0  0
   26.9689  -20.5368  -11.4660 N   0  0  0  0  0  0  0  0  0  0  0  0
   26.1491  -20.9382  -13.6941 C   0  0  0  0  0  0  0  0  0  0  0  0
   26.9309  -20.1461  -14.2864 O   0  0  0  0  0  0  0  0  0  0  0  0
   25.5837  -21.8856  -14.6130 O   0  0  0  0  0  0  0  0  0  0  0  0
  2  1  1  6
  3  2  1  0
  4  3  1  0
  5  2  1  0
  5  6  2  0
  7  8  1  0
  8  9  2  0
  8 10  1  0
 10 11  1  0
 12 11  1  6
 12 13  1  0
 13  5  1  0
 14 12  1  0
 15 14  2  0
 16 17  1  0
 17 19  1  0
 18 17  2  0
 19 20  1  0
 20 21  1  0
 22 21  1  0
 23 22  1  6
 23 24  1  0
 24 14  1  0
 25 23  1  0
 26 25  2  0
 27 25  1  0
M  END
$$$$
