CQR.pdb
     RDKit          3D

 27 26  0  0  1  0  0  0  0  0999 V2000
   31.7832  -13.5937  -18.1508 N   0  0  0  0  0  0  0  0  0  0  0  0
   33.0021  -12.7770  -18.2197 C   0  0  1  0  0  0  0  0  0  0  0  0
   33.2814  -12.5024  -19.7005 C   0  0  0  0  0  0  0  0  0  0  0  0
   33.4195  -14.0655  -20.5705 S   0  0  0  0  0  0  0  0  0  0  0  0
   32.8541  -11.5409  -17.4541 C   0  0  0  0  0  0  0  0  0  0  0  0
   31.6574  -11.1424  -17.2238 O   0  0  0  0  0  0  0  0  0  0  0  0
   36.8693   -8.2961  -13.4665 N   0  0  0  0  0  0  0  0  0  0  0  0
   36.7770   -9.6530  -13.8729 C   0  0  0  0  0  0  0  0  0  0  0  0
   37.6763  -10.4519  -13.4950 O   0  0  0  0  0  0  0  0  0  0  0  0
   35.6635  -10.1205  -14.7180 C   0  0  0  0  0  0  0  0  0  0  0  0
   34.7525   -9.0925  -15.2668 C   0  0  0  0  0  0  0  0  0  0  0  0
   33.6796   -9.5347  -16.1839 C   0  0  2  0  0  0  0  0  0  0  0  0
   33.9207  -10.7397  -16.9390 N   0  0  0  0  0  0  0  0  0  0  0  0
   33.1447   -8.4474  -17.0407 C   0  0  0  0  0  0  0  0  0  0  0  0
   33.6930   -8.2691  -18.1599 O   0  0  0  0  0  0  0  0  0  0  0  0
   25.5410   -7.5988  -20.0699 N   0  0  0  0  0  0  0  0  0  0  0  0
   26.7613   -8.1566  -20.5685 C   0  0  0  0  0  0  0  0  0  0  0  0
   26.7689   -9.1252  -21.4166 N   0  0  0  0  0  0  0  0  0  0  0  0
   27.9847   -7.6331  -20.1217 N   0  0  0  0  0  0  0  0  0  0  0  0
   27.9854   -6.4750  -19.1997 C   0  0  0  0  0  0  0  0  0  0  0  0
   29.3674   -6.0846  -18.8443 C   0  0  0  0  0  0  0  0  0  0  0  0
   30.1373   -6.9302  -17.9208 C   0  0  0  0  0  0  0  0  0  0  0  0
   31.5064   -6.5612  -17.5626 C   0  0  2  0  0  0  0  0  0  0  0  0
   32.0675   -7.6173  -16.6672 N   0  0  0  0  0  0  0  0  0  0  0  0
   31.9135   -5.2543  -17.1033 C   0  0  0  0  0  0  0  0  0  0  0  0
   32.3336   -4.9241  -15.9615 O   0  0  0  0  0  0  0  0  0  0  0  0
   31.8709   -4.1205  -17.9832 O   0  0  0  0  0  0  0  0  0  0  0  0
  2  1  1  6
  3  2  1  0
  4  3  1  0
  5  2  1  0
  5  6  2  0
  7  8  1  0
  8  9  2  0
  8 10  1  0
 10 11  1  0
 12 11  1  6
 12 13  1  0
 13  5  1  0
 14 12  1  0
 15 14  2  0
 16 17  1  0
 17 19  1  0
 18 17  2  0
 19 20  1  0
 20 21  1  0
 22 21  1  0
 23 22  1  1
 23 24  1  0
 24 14  1  0
 25 23  1  0
 26 25  2  0
 27 25  1  0
M  END
$$$$
