CQR.pdb
     RDKit          3D

 27 26  0  0  1  0  0  0  0  0999 V2000
   28.1715  -20.5417  -16.9280 N   0  0  0  0  0  0  0  0  0  0  0  0
   28.2607  -19.9034  -15.6081 C   0  0  1  0  0  0  0  0  0  0  0  0
   28.2533  -18.3886  -15.8350 C   0  0  0  0  0  0  0  0  0  0  0  0
   26.6160  -17.8837  -16.3676 S   0  0  0  0  0  0  0  0  0  0  0  0
   27.1655  -20.3302  -14.7395 C   0  0  0  0  0  0  0  0  0  0  0  0
   26.2051  -20.9745  -15.2931 O   0  0  0  0  0  0  0  0  0  0  0  0
   26.3710  -20.6055   -8.2080 N   0  0  0  0  0  0  0  0  0  0  0  0
   25.1682  -21.0722   -8.7996 C   0  0  0  0  0  0  0  0  0  0  0  0
   24.2627  -21.5148   -8.0420 O   0  0  0  0  0  0  0  0  0  0  0  0
   24.9786  -21.0463  -10.2612 C   0  0  0  0  0  0  0  0  0  0  0  0
   26.1188  -20.5858  -11.0833 C   0  0  0  0  0  0  0  0  0  0  0  0
   25.9470  -20.5548  -12.5521 C   0  0  2  0  0  0  0  0  0  0  0  0
   27.0703  -20.0961  -13.3321 N   0  0  0  0  0  0  0  0  0  0  0  0
   24.6790  -19.9194  -12.9888 C   0  0  0  0  0  0  0  0  0  0  0  0
   24.7368  -18.7277  -13.3909 O   0  0  0  0  0  0  0  0  0  0  0  0
   22.8175  -15.4116  -16.1876 N   0  0  0  0  0  0  0  0  0  0  0  0
   22.1585  -15.9339  -17.3460 C   0  0  0  0  0  0  0  0  0  0  0  0
   22.3006  -15.3979  -18.5078 N   0  0  0  0  0  0  0  0  0  0  0  0
   21.3345  -17.0625  -17.2129 N   0  0  0  0  0  0  0  0  0  0  0  0
   21.2651  -17.7610  -15.9095 C   0  0  0  0  0  0  0  0  0  0  0  0
   21.6995  -19.1690  -16.0419 C   0  0  0  0  0  0  0  0  0  0  0  0
   22.6739  -19.7127  -15.0850 C   0  0  0  0  0  0  0  0  0  0  0  0
   22.2443  -20.0832  -13.7370 C   0  0  2  0  0  0  0  0  0  0  0  0
   23.4312  -20.5766  -12.9757 N   0  0  0  0  0  0  0  0  0  0  0  0
   21.0892  -20.8950  -13.4350 C   0  0  0  0  0  0  0  0  0  0  0  0
   21.0587  -22.0765  -12.9961 O   0  0  0  0  0  0  0  0  0  0  0  0
   19.7615  -20.3827  -13.6252 O   0  0  0  0  0  0  0  0  0  0  0  0
  2  1  1  6
  3  2  1  0
  4  3  1  0
  5  2  1  0
  5  6  2  0
  7  8  1  0
  8  9  2  0
  8 10  1  0
 10 11  1  0
 12 11  1  1
 12 13  1  0
 13  5  1  0
 14 12  1  0
 15 14  2  0
 16 17  1  0
 17 19  1  0
 18 17  2  0
 19 20  1  0
 20 21  1  0
 22 21  1  0
 23 22  1  6
 23 24  1  0
 24 14  1  0
 25 23  1  0
 26 25  2  0
 27 25  1  0
M  END
$$$$
