CQR.pdb
     RDKit          3D

 27 26  0  0  1  0  0  0  0  0999 V2000
   25.9608  -20.4099   -9.2570 N   0  0  0  0  0  0  0  0  0  0  0  0
   24.8517  -20.9103  -10.0798 C   0  0  1  0  0  0  0  0  0  0  0  0
   23.5646  -20.2817   -9.5374 C   0  0  0  0  0  0  0  0  0  0  0  0
   23.1781  -21.0171   -7.9471 S   0  0  0  0  0  0  0  0  0  0  0  0
   25.0584  -20.5974  -11.4924 C   0  0  0  0  0  0  0  0  0  0  0  0
   25.6653  -19.4999  -11.7593 O   0  0  0  0  0  0  0  0  0  0  0  0
   27.8023  -23.7421  -15.9993 N   0  0  0  0  0  0  0  0  0  0  0  0
   27.3088  -22.5952  -16.6743 C   0  0  0  0  0  0  0  0  0  0  0  0
   27.7085  -22.3761  -17.8499 O   0  0  0  0  0  0  0  0  0  0  0  0
   26.3570  -21.6783  -16.0214 C   0  0  0  0  0  0  0  0  0  0  0  0
   26.0021  -21.9614  -14.6136 C   0  0  0  0  0  0  0  0  0  0  0  0
   25.0090  -21.0825  -13.9585 C   0  0  2  0  0  0  0  0  0  0  0  0
   24.6476  -21.4037  -12.5996 N   0  0  0  0  0  0  0  0  0  0  0  0
   23.8137  -20.8097  -14.7949 C   0  0  0  0  0  0  0  0  0  0  0  0
   22.8977  -21.6734  -14.7950 O   0  0  0  0  0  0  0  0  0  0  0  0
   20.5135  -13.2216  -17.2313 N   0  0  0  0  0  0  0  0  0  0  0  0
   20.2780  -14.0405  -16.0811 C   0  0  0  0  0  0  0  0  0  0  0  0
   19.8595  -13.5453  -14.9689 N   0  0  0  0  0  0  0  0  0  0  0  0
   20.5087  -15.4224  -16.1673 N   0  0  0  0  0  0  0  0  0  0  0  0
   20.8995  -16.0135  -17.4670 C   0  0  0  0  0  0  0  0  0  0  0  0
   21.0992  -17.4742  -17.3434 C   0  0  0  0  0  0  0  0  0  0  0  0
   22.2080  -17.9803  -16.5219 C   0  0  0  0  0  0  0  0  0  0  0  0
   22.4774  -19.4166  -16.4645 C   0  0  2  0  0  0  0  0  0  0  0  0
   23.6569  -19.6467  -15.5771 N   0  0  0  0  0  0  0  0  0  0  0  0
   22.5440  -20.2883  -17.6135 C   0  0  0  0  0  0  0  0  0  0  0  0
   23.5689  -20.7419  -18.1909 O   0  0  0  0  0  0  0  0  0  0  0  0
   21.3455  -20.7537  -18.2527 O   0  0  0  0  0  0  0  0  0  0  0  0
  2  1  1  1
  3  2  1  0
  4  3  1  0
  5  2  1  0
  5  6  2  0
  7  8  1  0
  8  9  2  0
  8 10  1  0
 10 11  1  0
 12 11  1  6
 12 13  1  0
 13  5  1  0
 14 12  1  0
 15 14  2  0
 16 17  1  0
 17 19  1  0
 18 17  2  0
 19 20  1  0
 20 21  1  0
 22 21  1  0
 23 22  1  6
 23 24  1  0
 24 14  1  0
 25 23  1  0
 26 25  2  0
 27 25  1  0
M  END
$$$$
