CQR.pdb
     RDKit          3D

 27 26  0  0  1  0  0  0  0  0999 V2000
   27.6155  -21.5827  -16.7966 N   0  0  0  0  0  0  0  0  0  0  0  0
   27.2896  -20.4921  -15.8683 C   0  0  1  0  0  0  0  0  0  0  0  0
   26.7904  -19.3137  -16.7099 C   0  0  0  0  0  0  0  0  0  0  0  0
   28.1984  -18.4845  -17.4508 S   0  0  0  0  0  0  0  0  0  0  0  0
   26.2985  -20.9162  -14.8814 C   0  0  0  0  0  0  0  0  0  0  0  0
   25.4079  -21.7495  -15.2769 O   0  0  0  0  0  0  0  0  0  0  0  0
   25.9105  -20.5054   -8.3349 N   0  0  0  0  0  0  0  0  0  0  0  0
   24.6726  -21.0300   -8.7895 C   0  0  0  0  0  0  0  0  0  0  0  0
   23.8021  -21.3362   -7.9302 O   0  0  0  0  0  0  0  0  0  0  0  0
   24.4074  -21.2181  -10.2273 C   0  0  0  0  0  0  0  0  0  0  0  0
   25.4758  -20.8209  -11.1700 C   0  0  0  0  0  0  0  0  0  0  0  0
   25.2037  -20.9443  -12.6187 C   0  0  2  0  0  0  0  0  0  0  0  0
   26.2345  -20.4882  -13.5185 N   0  0  0  0  0  0  0  0  0  0  0  0
   23.8653  -20.4416  -13.0167 C   0  0  0  0  0  0  0  0  0  0  0  0
   23.7159  -19.1942  -13.0986 O   0  0  0  0  0  0  0  0  0  0  0  0
   20.1638  -20.3251  -20.1579 N   0  0  0  0  0  0  0  0  0  0  0  0
   21.0748  -19.5015  -19.4227 C   0  0  0  0  0  0  0  0  0  0  0  0
   21.9211  -18.7309  -20.0121 N   0  0  0  0  0  0  0  0  0  0  0  0
   21.0451  -19.5333  -18.0197 N   0  0  0  0  0  0  0  0  0  0  0  0
   20.0559  -20.3951  -17.3339 C   0  0  0  0  0  0  0  0  0  0  0  0
   20.1668  -20.2594  -15.8649 C   0  0  0  0  0  0  0  0  0  0  0  0
   21.3562  -20.7891  -15.1827 C   0  0  0  0  0  0  0  0  0  0  0  0
   21.4333  -20.7605  -13.7225 C   0  0  2  0  0  0  0  0  0  0  0  0
   22.7694  -21.2816  -13.3040 N   0  0  0  0  0  0  0  0  0  0  0  0
   20.4081  -21.2546  -12.8341 C   0  0  0  0  0  0  0  0  0  0  0  0
   20.4286  -22.2931  -12.1195 O   0  0  0  0  0  0  0  0  0  0  0  0
   19.1702  -20.5449  -12.6744 O   0  0  0  0  0  0  0  0  0  0  0  0
  2  1  1  6
  3  2  1  0
  4  3  1  0
  5  2  1  0
  5  6  2  0
  7  8  1  0
  8  9  2  0
  8 10  1  0
 10 11  1  0
 12 11  1  1
 12 13  1  0
 13  5  1  0
 14 12  1  0
 15 14  2  0
 16 17  1  0
 17 19  1  0
 18 17  2  0
 19 20  1  0
 20 21  1  0
 22 21  1  0
 23 22  1  6
 23 24  1  0
 24 14  1  0
 25 23  1  0
 26 25  2  0
 27 25  1  0
M  END
$$$$
