CQR.pdb
     RDKit          3D

 27 26  0  0  1  0  0  0  0  0999 V2000
   27.6180  -15.7984  -15.8387 N   0  0  0  0  0  0  0  0  0  0  0  0
   26.2903  -16.3067  -15.4696 C   0  0  1  0  0  0  0  0  0  0  0  0
   25.2593  -15.5092  -16.2740 C   0  0  0  0  0  0  0  0  0  0  0  0
   25.1036  -13.8688  -15.5642 S   0  0  0  0  0  0  0  0  0  0  0  0
   26.1856  -17.7427  -15.7204 C   0  0  0  0  0  0  0  0  0  0  0  0
   26.0746  -18.1100  -16.9438 O   0  0  0  0  0  0  0  0  0  0  0  0
   29.5485  -20.9954  -17.4901 N   0  0  0  0  0  0  0  0  0  0  0  0
   28.6892  -21.5794  -16.5232 C   0  0  0  0  0  0  0  0  0  0  0  0
   28.1225  -22.6691  -16.8085 O   0  0  0  0  0  0  0  0  0  0  0  0
   28.4583  -20.9315  -15.2195 C   0  0  0  0  0  0  0  0  0  0  0  0
   27.1162  -21.0836  -14.6165 C   0  0  0  0  0  0  0  0  0  0  0  0
   26.0464  -20.1656  -15.0645 C   0  0  2  0  0  0  0  0  0  0  0  0
   26.1978  -18.7714  -14.7272 N   0  0  0  0  0  0  0  0  0  0  0  0
   24.6782  -20.6573  -14.7669 C   0  0  0  0  0  0  0  0  0  0  0  0
   24.2210  -20.4356  -13.6150 O   0  0  0  0  0  0  0  0  0  0  0  0
   18.6926  -20.9146  -11.1508 N   0  0  0  0  0  0  0  0  0  0  0  0
   17.7967  -20.6487  -12.2350 C   0  0  0  0  0  0  0  0  0  0  0  0
   16.5519  -20.9732  -12.1827 N   0  0  0  0  0  0  0  0  0  0  0  0
   18.2875  -20.0157  -13.3876 N   0  0  0  0  0  0  0  0  0  0  0  0
   19.7413  -19.7675  -13.5163 C   0  0  0  0  0  0  0  0  0  0  0  0
   20.3944  -20.8476  -14.2881 C   0  0  0  0  0  0  0  0  0  0  0  0
   21.8172  -20.7224  -14.6353 C   0  0  0  0  0  0  0  0  0  0  0  0
   22.4753  -21.7755  -15.4078 C   0  0  2  0  0  0  0  0  0  0  0  0
   23.8775  -21.3501  -15.6985 N   0  0  0  0  0  0  0  0  0  0  0  0
   21.9055  -22.4274  -16.5632 C   0  0  0  0  0  0  0  0  0  0  0  0
   22.1172  -22.1819  -17.7815 O   0  0  0  0  0  0  0  0  0  0  0  0
   20.9677  -23.5040  -16.4111 O   0  0  0  0  0  0  0  0  0  0  0  0
  2  1  1  6
  3  2  1  0
  4  3  1  0
  5  2  1  0
  5  6  2  0
  7  8  1  0
  8  9  2  0
  8 10  1  0
 10 11  1  0
 12 11  1  1
 12 13  1  0
 13  5  1  0
 14 12  1  0
 15 14  2  0
 16 17  1  0
 17 19  1  0
 18 17  2  0
 19 20  1  0
 20 21  1  0
 22 21  1  0
 23 22  1  6
 23 24  1  0
 24 14  1  0
 25 23  1  0
 26 25  2  0
 27 25  1  0
M  END
$$$$
