CQR.pdb
     RDKit          3D

 27 26  0  0  1  0  0  0  0  0999 V2000
   28.5836  -20.3522  -11.7949 N   0  0  0  0  0  0  0  0  0  0  0  0
   27.2428  -20.6510  -12.3151 C   0  0  1  0  0  0  0  0  0  0  0  0
   26.3115  -20.8037  -11.1087 C   0  0  0  0  0  0  0  0  0  0  0  0
   26.6282  -22.3839  -10.3201 S   0  0  0  0  0  0  0  0  0  0  0  0
   26.7853  -19.6060  -13.2287 C   0  0  0  0  0  0  0  0  0  0  0  0
   26.5014  -18.4680  -12.7106 O   0  0  0  0  0  0  0  0  0  0  0  0
   28.9131  -16.9606  -18.3935 N   0  0  0  0  0  0  0  0  0  0  0  0
   27.6006  -16.4320  -18.2823 C   0  0  0  0  0  0  0  0  0  0  0  0
   27.2784  -15.4708  -19.0322 O   0  0  0  0  0  0  0  0  0  0  0  0
   26.6364  -16.9854  -17.3144 C   0  0  0  0  0  0  0  0  0  0  0  0
   27.1003  -18.0991  -16.4586 C   0  0  0  0  0  0  0  0  0  0  0  0
   26.1527  -18.6535  -15.4675 C   0  0  2  0  0  0  0  0  0  0  0  0
   26.6282  -19.7379  -14.6438 N   0  0  0  0  0  0  0  0  0  0  0  0
   24.8072  -18.9371  -16.0258 C   0  0  0  0  0  0  0  0  0  0  0  0
   24.6087  -20.0847  -16.5040 O   0  0  0  0  0  0  0  0  0  0  0  0
   20.1016  -22.8058  -11.4262 N   0  0  0  0  0  0  0  0  0  0  0  0
   19.0356  -22.1988  -12.1638 C   0  0  0  0  0  0  0  0  0  0  0  0
   17.8023  -22.4947  -11.9430 N   0  0  0  0  0  0  0  0  0  0  0  0
   19.3422  -21.2539  -13.1555 N   0  0  0  0  0  0  0  0  0  0  0  0
   20.7589  -20.9241  -13.4309 C   0  0  0  0  0  0  0  0  0  0  0  0
   20.8640  -19.8729  -14.4666 C   0  0  0  0  0  0  0  0  0  0  0  0
   22.1923  -19.3758  -14.8528 C   0  0  0  0  0  0  0  0  0  0  0  0
   22.3182  -18.3824  -15.9187 C   0  0  2  0  0  0  0  0  0  0  0  0
   23.7560  -17.9971  -16.0457 N   0  0  0  0  0  0  0  0  0  0  0  0
   21.4782  -17.2167  -16.0611 C   0  0  0  0  0  0  0  0  0  0  0  0
   20.4545  -17.0759  -16.7833 O   0  0  0  0  0  0  0  0  0  0  0  0
   21.7611  -16.0139  -15.3298 O   0  0  0  0  0  0  0  0  0  0  0  0
  2  1  1  1
  3  2  1  0
  4  3  1  0
  5  2  1  0
  5  6  2  0
  7  8  1  0
  8  9  2  0
  8 10  1  0
 10 11  1  0
 12 11  1  6
 12 13  1  0
 13  5  1  0
 14 12  1  0
 15 14  2  0
 16 17  1  0
 17 19  1  0
 18 17  2  0
 19 20  1  0
 20 21  1  0
 22 21  1  0
 23 22  1  1
 23 24  1  0
 24 14  1  0
 25 23  1  0
 26 25  2  0
 27 25  1  0
M  END
$$$$
