CQR.pdb
     RDKit          3D

 27 26  0  0  1  0  0  0  0  0999 V2000
   27.4793  -19.5791  -14.9510 N   0  0  0  0  0  0  0  0  0  0  0  0
   26.4024  -20.5040  -14.5736 C   0  0  1  0  0  0  0  0  0  0  0  0
   26.8082  -21.1567  -13.2487 C   0  0  0  0  0  0  0  0  0  0  0  0
   28.1270  -22.3341  -13.5551 S   0  0  0  0  0  0  0  0  0  0  0  0
   25.1210  -19.8089  -14.4694 C   0  0  0  0  0  0  0  0  0  0  0  0
   24.9792  -19.0011  -13.4837 O   0  0  0  0  0  0  0  0  0  0  0  0
   19.7380  -18.0758  -17.4290 N   0  0  0  0  0  0  0  0  0  0  0  0
   20.8301  -18.6227  -18.1522 C   0  0  0  0  0  0  0  0  0  0  0  0
   20.6322  -18.9969  -19.3399 O   0  0  0  0  0  0  0  0  0  0  0  0
   22.1618  -18.7559  -17.5346 C   0  0  0  0  0  0  0  0  0  0  0  0
   22.3056  -18.3069  -16.1326 C   0  0  0  0  0  0  0  0  0  0  0  0
   22.7495  -19.2984  -15.1288 C   0  0  2  0  0  0  0  0  0  0  0  0
   24.0157  -19.9470  -15.3660 N   0  0  0  0  0  0  0  0  0  0  0  0
   21.6959  -20.2724  -14.7496 C   0  0  0  0  0  0  0  0  0  0  0  0
   21.7714  -21.4283  -15.2427 O   0  0  0  0  0  0  0  0  0  0  0  0
   19.6153  -24.2176   -7.6191 N   0  0  0  0  0  0  0  0  0  0  0  0
   18.7590  -24.8125   -8.5998 C   0  0  0  0  0  0  0  0  0  0  0  0
   18.2016  -25.9574   -8.4100 N   0  0  0  0  0  0  0  0  0  0  0  0
   18.5189  -24.1293   -9.8022 N   0  0  0  0  0  0  0  0  0  0  0  0
   19.3804  -22.9830  -10.1703 C   0  0  0  0  0  0  0  0  0  0  0  0
   19.0425  -22.4815  -11.5205 C   0  0  0  0  0  0  0  0  0  0  0  0
   19.8828  -21.4415  -12.1312 C   0  0  0  0  0  0  0  0  0  0  0  0
   19.5917  -20.9694  -13.4844 C   0  0  2  0  0  0  0  0  0  0  0  0
   20.6308  -19.9701  -13.8760 N   0  0  0  0  0  0  0  0  0  0  0  0
   18.2924  -20.5399  -13.9449 C   0  0  0  0  0  0  0  0  0  0  0  0
   17.8943  -19.3658  -14.1737 O   0  0  0  0  0  0  0  0  0  0  0  0
   17.2523  -21.4952  -14.2040 O   0  0  0  0  0  0  0  0  0  0  0  0
  2  1  1  1
  3  2  1  0
  4  3  1  0
  5  2  1  0
  5  6  2  0
  7  8  1  0
  8  9  2  0
  8 10  1  0
 10 11  1  0
 12 11  1  6
 12 13  1  0
 13  5  1  0
 14 12  1  0
 15 14  2  0
 16 17  1  0
 17 19  1  0
 18 17  2  0
 19 20  1  0
 20 21  1  0
 22 21  1  0
 23 22  1  1
 23 24  1  0
 24 14  1  0
 25 23  1  0
 26 25  2  0
 27 25  1  0
M  END
$$$$
