YNY.pdb
     RDKit          3D

 33 34  0  0  1  0  0  0  0  0999 V2000
   28.6362  -30.3972  -18.9539 O   0  0  0  0  0  0  0  0  0  0  0  0
   28.1113  -29.2539  -18.3574 C   0  0  0  0  0  0  0  0  0  0  0  0
   28.4226  -28.9710  -17.0538 C   0  0  0  0  0  0  0  0  0  0  0  0
   27.9432  -27.8649  -16.3938 C   0  0  0  0  0  0  0  0  0  0  0  0
   27.1030  -27.0164  -17.1213 C   0  0  0  0  0  0  0  0  0  0  0  0
   26.5247  -25.8370  -16.4152 C   0  0  0  0  0  0  0  0  0  0  0  0
   27.2611  -24.6050  -16.9188 C   0  0  2  0  0  0  0  0  0  0  0  0
   28.6472  -24.6945  -16.4564 N   0  0  0  0  0  0  0  0  0  0  0  0
   26.6640  -23.3469  -16.4665 C   0  0  0  0  0  0  0  0  0  0  0  0
   26.8506  -22.9058  -15.2919 O   0  0  0  0  0  0  0  0  0  0  0  0
   26.7592  -27.2557  -18.4391 C   0  0  0  0  0  0  0  0  0  0  0  0
   27.2786  -28.3973  -19.0528 C   0  0  0  0  0  0  0  0  0  0  0  0
   26.5358  -20.2594  -19.8842 N   0  0  0  0  0  0  0  0  0  0  0  0
   26.0508  -19.8036  -18.6376 C   0  0  0  0  0  0  0  0  0  0  0  0
   26.6173  -18.8892  -18.0162 O   0  0  0  0  0  0  0  0  0  0  0  0
   24.8351  -20.4153  -18.0460 C   0  0  0  0  0  0  0  0  0  0  0  0
   25.1712  -21.3342  -16.8853 C   0  0  2  0  0  0  0  0  0  0  0  0
   25.8406  -22.5187  -17.2838 N   0  0  0  0  0  0  0  0  0  0  0  0
   23.9232  -21.5493  -16.1203 C   0  0  0  0  0  0  0  0  0  0  0  0
   23.1445  -22.5137  -16.3640 O   0  0  0  0  0  0  0  0  0  0  0  0
   17.3170  -20.3642  -10.3216 O   0  0  0  0  0  0  0  0  0  0  0  0
   18.5450  -20.3550  -10.9639 C   0  0  0  0  0  0  0  0  0  0  0  0
   19.3928  -21.4468  -10.9516 C   0  0  0  0  0  0  0  0  0  0  0  0
   20.6290  -21.4046  -11.6151 C   0  0  0  0  0  0  0  0  0  0  0  0
   21.0197  -20.2684  -12.2947 C   0  0  0  0  0  0  0  0  0  0  0  0
   22.3105  -20.2041  -12.9846 C   0  0  0  0  0  0  0  0  0  0  0  0
   22.2628  -20.7912  -14.3480 C   0  0  2  0  0  0  0  0  0  0  0  0
   23.5124  -20.6900  -15.0642 N   0  0  0  0  0  0  0  0  0  0  0  0
   21.1998  -20.2538  -15.1791 C   0  0  0  0  0  0  0  0  0  0  0  0
   20.0514  -20.7971  -15.2809 O   0  0  0  0  0  0  0  0  0  0  0  0
   20.1429  -19.1890  -12.2859 C   0  0  0  0  0  0  0  0  0  0  0  0
   18.9305  -19.2153  -11.6407 C   0  0  0  0  0  0  0  0  0  0  0  0
   21.3823  -19.0801  -15.9340 O   0  0  0  0  0  0  0  0  0  0  0  0
  2 12  2  0
  2  1  1  0
  3  2  1  0
  4  5  1  0
  4  3  2  0
  5 11  2  0
  6  5  1  0
  7  6  1  0
  7  8  1  1
  9  7  1  0
  9 10  2  0
 11 12  1  0
 13 14  1  0
 14 15  2  0
 16 14  1  0
 17 16  1  6
 17 18  1  0
 18  9  1  0
 19 20  2  0
 19 17  1  0
 22 21  1  0
 22 23  2  0
 24 23  1  0
 25 24  2  0
 26 25  1  0
 27 28  1  0
 27 26  1  1
 28 19  1  0
 29 27  1  0
 30 29  2  0
 31 32  2  0
 31 25  1  0
 32 22  1  0
 33 29  1  0
M  END
$$$$
