YNY.pdb
     RDKit          3D

 33 34  0  0  1  0  0  0  0  0999 V2000
   26.9236  -20.9670  -27.1270 O   0  0  0  0  0  0  0  0  0  0  0  0
   26.3429  -21.0796  -25.8667 C   0  0  0  0  0  0  0  0  0  0  0  0
   27.1309  -20.9797  -24.7507 C   0  0  0  0  0  0  0  0  0  0  0  0
   26.6344  -21.0824  -23.4732 C   0  0  0  0  0  0  0  0  0  0  0  0
   25.2584  -21.2989  -23.3513 C   0  0  0  0  0  0  0  0  0  0  0  0
   24.6995  -21.4679  -21.9790 C   0  0  0  0  0  0  0  0  0  0  0  0
   24.4371  -20.0757  -21.4251 C   0  0  2  0  0  0  0  0  0  0  0  0
   25.6169  -19.6720  -20.6580 N   0  0  0  0  0  0  0  0  0  0  0  0
   23.2434  -20.0029  -20.5803 C   0  0  0  0  0  0  0  0  0  0  0  0
   23.3242  -19.8173  -19.3281 O   0  0  0  0  0  0  0  0  0  0  0  0
   24.4192  -21.4058  -24.4451 C   0  0  0  0  0  0  0  0  0  0  0  0
   24.9855  -21.2934  -25.7165 C   0  0  0  0  0  0  0  0  0  0  0  0
   22.1869  -17.6976  -17.9319 N   0  0  0  0  0  0  0  0  0  0  0  0
   21.3656  -18.7962  -18.2718 C   0  0  0  0  0  0  0  0  0  0  0  0
   21.2806  -19.7943  -17.5372 O   0  0  0  0  0  0  0  0  0  0  0  0
   20.5751  -18.7710  -19.5275 C   0  0  0  0  0  0  0  0  0  0  0  0
   20.7177  -20.0628  -20.3122 C   0  0  2  0  0  0  0  0  0  0  0  0
   21.9118  -20.1272  -21.0736 N   0  0  0  0  0  0  0  0  0  0  0  0
   19.4714  -20.2443  -21.0885 C   0  0  0  0  0  0  0  0  0  0  0  0
   19.2331  -19.5846  -22.1392 O   0  0  0  0  0  0  0  0  0  0  0  0
   17.8990  -26.7596  -17.9239 O   0  0  0  0  0  0  0  0  0  0  0  0
   17.7205  -25.8117  -18.9190 C   0  0  0  0  0  0  0  0  0  0  0  0
   16.4757  -25.3033  -19.2397 C   0  0  0  0  0  0  0  0  0  0  0  0
   16.3308  -24.3418  -20.2519 C   0  0  0  0  0  0  0  0  0  0  0  0
   17.4332  -23.8849  -20.9458 C   0  0  0  0  0  0  0  0  0  0  0  0
   17.2987  -22.8887  -22.0114 C   0  0  0  0  0  0  0  0  0  0  0  0
   17.2941  -21.4952  -21.4976 C   0  0  2  0  0  0  0  0  0  0  0  0
   18.4578  -21.1669  -20.7087 N   0  0  0  0  0  0  0  0  0  0  0  0
   16.1019  -21.1551  -20.7408 C   0  0  0  0  0  0  0  0  0  0  0  0
   14.9262  -21.2086  -21.2298 O   0  0  0  0  0  0  0  0  0  0  0  0
   18.6695  -24.4182  -20.5977 C   0  0  0  0  0  0  0  0  0  0  0  0
   18.8268  -25.3599  -19.6101 C   0  0  0  0  0  0  0  0  0  0  0  0
   16.1801  -20.7385  -19.3987 O   0  0  0  0  0  0  0  0  0  0  0  0
  2 12  2  0
  2  1  1  0
  3  2  1  0
  4  5  1  0
  4  3  2  0
  5 11  2  0
  6  5  1  0
  7  6  1  0
  7  8  1  1
  9  7  1  0
  9 10  2  0
 11 12  1  0
 13 14  1  0
 14 15  2  0
 16 14  1  0
 17 16  1  6
 17 18  1  0
 18  9  1  0
 19 20  2  0
 19 17  1  0
 22 21  1  0
 22 23  2  0
 24 23  1  0
 25 24  2  0
 26 25  1  0
 27 28  1  0
 27 26  1  1
 28 19  1  0
 29 27  1  0
 30 29  2  0
 31 32  2  0
 31 25  1  0
 32 22  1  0
 33 29  1  0
M  END
$$$$
