YNY.pdb
     RDKit          3D

 33 34  0  0  1  0  0  0  0  0999 V2000
   21.1019   -7.5495  -25.2331 O   0  0  0  0  0  0  0  0  0  0  0  0
   20.3016   -7.8027  -24.1224 C   0  0  0  0  0  0  0  0  0  0  0  0
   19.6336   -6.7675  -23.5236 C   0  0  0  0  0  0  0  0  0  0  0  0
   18.8273   -6.9349  -22.4232 C   0  0  0  0  0  0  0  0  0  0  0  0
   18.7112   -8.2357  -21.9237 C   0  0  0  0  0  0  0  0  0  0  0  0
   17.8857   -8.4395  -20.6984 C   0  0  0  0  0  0  0  0  0  0  0  0
   18.7480   -8.0558  -19.5055 C   0  0  2  0  0  0  0  0  0  0  0  0
   19.6784   -9.1581  -19.2556 N   0  0  0  0  0  0  0  0  0  0  0  0
   17.9725   -7.7728  -18.2962 C   0  0  0  0  0  0  0  0  0  0  0  0
   17.5899   -8.6992  -17.5188 O   0  0  0  0  0  0  0  0  0  0  0  0
   19.3628   -9.3150  -22.4917 C   0  0  0  0  0  0  0  0  0  0  0  0
   20.1681   -9.0786  -23.6076 C   0  0  0  0  0  0  0  0  0  0  0  0
   19.1555   -4.9067  -16.0350 N   0  0  0  0  0  0  0  0  0  0  0  0
   18.0268   -4.0631  -16.1416 C   0  0  0  0  0  0  0  0  0  0  0  0
   18.1090   -2.8406  -15.9369 O   0  0  0  0  0  0  0  0  0  0  0  0
   16.7074   -4.6326  -16.5116 C   0  0  0  0  0  0  0  0  0  0  0  0
   16.7871   -6.1271  -16.7663 C   0  0  2  0  0  0  0  0  0  0  0  0
   17.5874   -6.4627  -17.8873 N   0  0  0  0  0  0  0  0  0  0  0  0
   15.3996   -6.6386  -16.8138 C   0  0  0  0  0  0  0  0  0  0  0  0
   14.6572   -6.4722  -17.8222 O   0  0  0  0  0  0  0  0  0  0  0  0
    8.0419  -11.1898  -15.0573 O   0  0  0  0  0  0  0  0  0  0  0  0
    9.3337  -10.7237  -15.2437 C   0  0  0  0  0  0  0  0  0  0  0  0
    9.7649  -10.2064  -16.4509 C   0  0  0  0  0  0  0  0  0  0  0  0
   11.0799   -9.7403  -16.6046 C   0  0  0  0  0  0  0  0  0  0  0  0
   11.9676   -9.7896  -15.5487 C   0  0  0  0  0  0  0  0  0  0  0  0
   13.3462   -9.3162  -15.6946 C   0  0  0  0  0  0  0  0  0  0  0  0
   13.4464   -7.8344  -15.7057 C   0  0  2  0  0  0  0  0  0  0  0  0
   14.8055   -7.3478  -15.7337 N   0  0  0  0  0  0  0  0  0  0  0  0
   12.7397   -7.1925  -14.6112 C   0  0  0  0  0  0  0  0  0  0  0  0
   11.4689   -7.1168  -14.5502 O   0  0  0  0  0  0  0  0  0  0  0  0
   11.5005  -10.3166  -14.3494 C   0  0  0  0  0  0  0  0  0  0  0  0
   10.2169  -10.7770  -14.1841 C   0  0  0  0  0  0  0  0  0  0  0  0
   13.4325   -6.6058  -13.5357 O   0  0  0  0  0  0  0  0  0  0  0  0
  2 12  2  0
  2  1  1  0
  3  2  1  0
  4  5  1  0
  4  3  2  0
  5 11  2  0
  6  5  1  0
  7  6  1  0
  7  8  1  1
  9  7  1  0
  9 10  2  0
 11 12  1  0
 13 14  1  0
 14 15  2  0
 16 14  1  0
 17 16  1  6
 17 18  1  0
 18  9  1  0
 19 20  2  0
 19 17  1  0
 22 21  1  0
 22 23  2  0
 24 23  1  0
 25 24  2  0
 26 25  1  0
 27 28  1  0
 27 26  1  1
 28 19  1  0
 29 27  1  0
 30 29  2  0
 31 32  2  0
 31 25  1  0
 32 22  1  0
 33 29  1  0
M  END
$$$$
