YNY.pdb
     RDKit          3D

 33 34  0  0  1  0  0  0  0  0999 V2000
   26.7301  -27.7887  -18.3869 O   0  0  0  0  0  0  0  0  0  0  0  0
   26.2560  -26.5861  -17.8699 C   0  0  0  0  0  0  0  0  0  0  0  0
   25.9624  -25.5553  -18.7230 C   0  0  0  0  0  0  0  0  0  0  0  0
   25.4932  -24.3379  -18.2910 C   0  0  0  0  0  0  0  0  0  0  0  0
   25.3222  -24.1859  -16.9116 C   0  0  0  0  0  0  0  0  0  0  0  0
   24.8653  -22.8581  -16.4093 C   0  0  0  0  0  0  0  0  0  0  0  0
   23.3675  -22.9604  -16.1644 C   0  0  2  0  0  0  0  0  0  0  0  0
   22.7007  -22.9396  -17.4676 N   0  0  0  0  0  0  0  0  0  0  0  0
   22.8433  -21.8866  -15.3182 C   0  0  0  0  0  0  0  0  0  0  0  0
   22.7542  -20.6924  -15.7367 O   0  0  0  0  0  0  0  0  0  0  0  0
   25.6022  -25.1949  -16.0085 C   0  0  0  0  0  0  0  0  0  0  0  0
   26.0770  -26.4081  -16.5108 C   0  0  0  0  0  0  0  0  0  0  0  0
   19.1666  -23.2379  -12.9332 N   0  0  0  0  0  0  0  0  0  0  0  0
   19.6357  -21.9067  -13.0017 C   0  0  0  0  0  0  0  0  0  0  0  0
   19.0811  -21.0598  -13.7217 O   0  0  0  0  0  0  0  0  0  0  0  0
   20.8119  -21.4923  -12.1974 C   0  0  0  0  0  0  0  0  0  0  0  0
   21.9767  -21.0691  -13.0742 C   0  0  2  0  0  0  0  0  0  0  0  0
   22.3921  -22.0779  -13.9796 N   0  0  0  0  0  0  0  0  0  0  0  0
   23.0376  -20.5588  -12.1782 C   0  0  0  0  0  0  0  0  0  0  0  0
   22.8262  -19.6296  -11.3489 O   0  0  0  0  0  0  0  0  0  0  0  0
   29.0877  -19.2955   -6.2548 O   0  0  0  0  0  0  0  0  0  0  0  0
   28.2364  -19.8435   -7.2011 C   0  0  0  0  0  0  0  0  0  0  0  0
   28.6966  -20.6291   -8.2413 C   0  0  0  0  0  0  0  0  0  0  0  0
   27.8062  -21.1710   -9.1814 C   0  0  0  0  0  0  0  0  0  0  0  0
   26.4509  -20.9287   -9.0819 C   0  0  0  0  0  0  0  0  0  0  0  0
   25.5088  -21.4787  -10.0597 C   0  0  0  0  0  0  0  0  0  0  0  0
   25.4219  -20.6608  -11.2965 C   0  0  2  0  0  0  0  0  0  0  0  0
   24.3637  -21.0729  -12.1879 N   0  0  0  0  0  0  0  0  0  0  0  0
   26.6663  -20.5952  -12.0425 C   0  0  0  0  0  0  0  0  0  0  0  0
   27.0206  -21.4809  -12.8878 O   0  0  0  0  0  0  0  0  0  0  0  0
   26.0230  -20.1340   -8.0239 C   0  0  0  0  0  0  0  0  0  0  0  0
   26.8823  -19.5964   -7.0968 C   0  0  0  0  0  0  0  0  0  0  0  0
   27.5689  -19.5292  -11.8698 O   0  0  0  0  0  0  0  0  0  0  0  0
  2 12  2  0
  2  1  1  0
  3  2  1  0
  4  5  1  0
  4  3  2  0
  5 11  2  0
  6  5  1  0
  7  6  1  0
  7  8  1  6
  9  7  1  0
  9 10  2  0
 11 12  1  0
 13 14  1  0
 14 15  2  0
 16 14  1  0
 17 16  1  1
 17 18  1  0
 18  9  1  0
 19 20  2  0
 19 17  1  0
 22 21  1  0
 22 23  2  0
 24 23  1  0
 25 24  2  0
 26 25  1  0
 27 28  1  0
 27 26  1  1
 28 19  1  0
 29 27  1  0
 30 29  2  0
 31 32  2  0
 31 25  1  0
 32 22  1  0
 33 29  1  0
M  END
$$$$
