HVS.pdb
     RDKit          3D

 24 24  0  0  1  0  0  0  0  0999 V2000
   11.0073  -15.7898   16.3853 N   0  0  0  0  0  0  0  0  0  0  0  0
    9.7761  -15.6873   17.1414 C   0  0  1  0  0  0  0  0  0  0  0  0
    8.9541  -16.9069   16.8865 C   0  0  0  0  0  0  0  0  0  0  0  0
    8.4699  -16.8584   15.4731 C   0  0  0  0  0  0  0  0  0  0  0  0
    8.5762  -15.8476   14.5410 C   0  0  0  0  0  0  0  0  0  0  0  0
    8.0074  -16.1951   13.3792 N   0  0  0  0  0  0  0  0  0  0  0  0
    7.5334  -17.4386   13.5703 C   0  0  0  0  0  0  0  0  0  0  0  0
    7.8005  -17.8545   14.8193 N   0  0  0  0  0  0  0  0  0  0  0  0
   10.0014  -15.3987   18.5542 C   0  0  0  0  0  0  0  0  0  0  0  0
   11.0513  -15.7755   19.1117 O   0  0  0  0  0  0  0  0  0  0  0  0
    8.3110  -12.0693   20.3045 C   0  0  0  0  0  0  0  0  0  0  0  0
    8.2583  -13.3132   21.1280 C   0  0  1  0  0  0  0  0  0  0  0  0
    6.8665  -13.9009   21.1223 C   0  0  0  0  0  0  0  0  0  0  0  0
    9.2329  -14.3752   20.6892 C   0  0  2  0  0  0  0  0  0  0  0  0
    9.0357  -14.6918   19.3023 N   0  0  0  0  0  0  0  0  0  0  0  0
    9.1773  -15.5804   21.5568 C   0  0  0  0  0  0  0  0  0  0  0  0
    8.3227  -16.4693   21.3088 O   0  0  0  0  0  0  0  0  0  0  0  0
   12.3461  -17.1995   23.1153 O   0  0  0  0  0  0  0  0  0  0  0  0
   11.1576  -17.9267   23.0579 C   0  0  0  0  0  0  0  0  0  0  0  0
   10.0241  -16.9769   23.4672 C   0  0  2  0  0  0  0  0  0  0  0  0
   10.0457  -15.7803   22.6586 N   0  0  0  0  0  0  0  0  0  0  0  0
   10.0861  -16.6840   24.9117 C   0  0  0  0  0  0  0  0  0  0  0  0
   10.1666  -15.5003   25.3164 O   0  0  0  0  0  0  0  0  0  0  0  0
   10.0581  -17.6904   25.8611 O   0  0  0  0  0  0  0  0  0  0  0  0
  2  9  1  0
  2  1  1  6
  3  2  1  0
  4  5  2  0
  4  3  1  0
  6  5  1  0
  7  8  2  0
  7  6  1  0
  8  4  1  0
  9 10  2  0
 12 11  1  6
 12 13  1  0
 14 15  1  6
 14 12  1  0
 15  9  1  0
 16 14  1  0
 17 16  2  0
 18 19  1  0
 20 19  1  6
 20 21  1  0
 21 16  1  0
 22 20  1  0
 22 24  1  0
 23 22  2  0
M  END
$$$$
