HVS.pdb
     RDKit          3D

 24 24  0  0  1  0  0  0  0  0999 V2000
    9.9079  -14.1276   21.0130 N   0  0  0  0  0  0  0  0  0  0  0  0
    8.6408  -14.0772   21.7130 C   0  0  1  0  0  0  0  0  0  0  0  0
    7.6723  -14.9741   21.0161 C   0  0  0  0  0  0  0  0  0  0  0  0
    7.5285  -14.5023   19.6051 C   0  0  0  0  0  0  0  0  0  0  0  0
    8.2337  -13.5308   18.9262 C   0  0  0  0  0  0  0  0  0  0  0  0
    7.7968  -13.4030   17.6666 N   0  0  0  0  0  0  0  0  0  0  0  0
    6.8037  -14.3003   17.5391 C   0  0  0  0  0  0  0  0  0  0  0  0
    6.6272  -14.9696   18.6903 N   0  0  0  0  0  0  0  0  0  0  0  0
    8.7736  -14.3317   23.1438 C   0  0  0  0  0  0  0  0  0  0  0  0
    9.7536  -14.9681   23.5795 O   0  0  0  0  0  0  0  0  0  0  0  0
    7.1474  -13.0556   27.6608 C   0  0  0  0  0  0  0  0  0  0  0  0
    6.9348  -13.1380   26.1856 C   0  0  1  0  0  0  0  0  0  0  0  0
    6.9244  -11.7592   25.5681 C   0  0  0  0  0  0  0  0  0  0  0  0
    7.9584  -13.9803   25.4694 C   0  0  2  0  0  0  0  0  0  0  0  0
    7.7967  -13.8614   24.0473 N   0  0  0  0  0  0  0  0  0  0  0  0
    7.9372  -15.3952   25.9235 C   0  0  0  0  0  0  0  0  0  0  0  0
    6.8567  -16.0363   25.8660 O   0  0  0  0  0  0  0  0  0  0  0  0
   11.1749  -17.7815   25.9892 O   0  0  0  0  0  0  0  0  0  0  0  0
    9.9014  -18.3449   26.0618 C   0  0  0  0  0  0  0  0  0  0  0  0
    9.0428  -17.4156   26.9299 C   0  0  2  0  0  0  0  0  0  0  0  0
    9.0827  -16.0640   26.4223 N   0  0  0  0  0  0  0  0  0  0  0  0
    9.4512  -17.5001   28.3449 C   0  0  0  0  0  0  0  0  0  0  0  0
    9.8419  -16.4770   28.9549 O   0  0  0  0  0  0  0  0  0  0  0  0
    9.4188  -18.6948   29.0425 O   0  0  0  0  0  0  0  0  0  0  0  0
  2  9  1  0
  2  1  1  6
  3  2  1  0
  4  5  2  0
  4  3  1  0
  6  5  1  0
  7  8  2  0
  7  6  1  0
  8  4  1  0
  9 10  2  0
 12 11  1  1
 12 13  1  0
 14 15  1  6
 14 12  1  0
 15  9  1  0
 16 14  1  0
 17 16  2  0
 18 19  1  0
 20 19  1  6
 20 21  1  0
 21 16  1  0
 22 20  1  0
 22 24  1  0
 23 22  2  0
M  END
$$$$
