HVS.pdb
     RDKit          3D

 24 24  0  0  1  0  0  0  0  0999 V2000
    8.7279  -16.1845   15.7923 N   0  0  0  0  0  0  0  0  0  0  0  0
    8.6557  -16.9144   17.0413 C   0  0  1  0  0  0  0  0  0  0  0  0
    9.1928  -18.2900   16.8243 C   0  0  0  0  0  0  0  0  0  0  0  0
    8.3436  -18.9680   15.7979 C   0  0  0  0  0  0  0  0  0  0  0  0
    6.9811  -18.8963   15.5967 C   0  0  0  0  0  0  0  0  0  0  0  0
    6.6005  -19.6613   14.5652 N   0  0  0  0  0  0  0  0  0  0  0  0
    7.7293  -20.2268   14.1030 C   0  0  0  0  0  0  0  0  0  0  0  0
    8.7856  -19.8240   14.8286 N   0  0  0  0  0  0  0  0  0  0  0  0
    9.2717  -16.1969   18.1529 C   0  0  0  0  0  0  0  0  0  0  0  0
   10.5001  -16.2813   18.3503 O   0  0  0  0  0  0  0  0  0  0  0  0
    7.7203  -12.6401   19.5273 C   0  0  0  0  0  0  0  0  0  0  0  0
    8.1135  -13.6100   20.5918 C   0  0  1  0  0  0  0  0  0  0  0  0
    6.8941  -14.2689   21.1929 C   0  0  0  0  0  0  0  0  0  0  0  0
    9.0585  -14.6835   20.1178 C   0  0  2  0  0  0  0  0  0  0  0  0
    8.4854  -15.4020   19.0142 N   0  0  0  0  0  0  0  0  0  0  0  0
    9.4806  -15.5859   21.2205 C   0  0  0  0  0  0  0  0  0  0  0  0
    8.7674  -16.5847   21.4958 O   0  0  0  0  0  0  0  0  0  0  0  0
   13.2692  -16.2122   22.1718 O   0  0  0  0  0  0  0  0  0  0  0  0
   12.5611  -16.0611   23.3636 C   0  0  0  0  0  0  0  0  0  0  0  0
   11.0760  -16.2690   23.0386 C   0  0  2  0  0  0  0  0  0  0  0  0
   10.6558  -15.3760   21.9840 N   0  0  0  0  0  0  0  0  0  0  0  0
   10.2527  -16.1338   24.2551 C   0  0  0  0  0  0  0  0  0  0  0  0
    9.3922  -15.2263   24.3415 O   0  0  0  0  0  0  0  0  0  0  0  0
   10.3969  -16.9913   25.3316 O   0  0  0  0  0  0  0  0  0  0  0  0
  2  9  1  0
  2  1  1  6
  3  2  1  0
  4  5  2  0
  4  3  1  0
  6  5  1  0
  7  8  2  0
  7  6  1  0
  8  4  1  0
  9 10  2  0
 12 11  1  6
 12 13  1  0
 14 15  1  6
 14 12  1  0
 15  9  1  0
 16 14  1  0
 17 16  2  0
 18 19  1  0
 20 19  1  1
 20 21  1  0
 21 16  1  0
 22 20  1  0
 22 24  1  0
 23 22  2  0
M  END
$$$$
