GTE.pdb
     RDKit          3D

 21 20  0  0  1  0  0  0  0  0999 V2000
    9.6832  -17.0282   16.4191 N   0  0  0  0  0  0  0  0  0  0  0  0
    8.6589  -16.9341   17.4223 C   0  0  0  0  0  0  0  0  0  0  0  0
    9.0770  -16.1993   18.6187 C   0  0  0  0  0  0  0  0  0  0  0  0
   10.3234  -16.0710   18.8255 O   0  0  0  0  0  0  0  0  0  0  0  0
    7.3029  -12.9030   20.0519 C   0  0  0  0  0  0  0  0  0  0  0  0
    7.6333  -13.9157   21.1510 C   0  0  1  0  0  0  0  0  0  0  0  0
    6.5097  -14.4821   21.7058 O   0  0  0  0  0  0  0  0  0  0  0  0
    8.6847  -14.8828   20.7237 C   0  0  2  0  0  0  0  0  0  0  0  0
    8.1876  -15.6131   19.5754 N   0  0  0  0  0  0  0  0  0  0  0  0
    9.1695  -15.7819   21.7826 C   0  0  0  0  0  0  0  0  0  0  0  0
    8.7314  -16.9578   21.7961 O   0  0  0  0  0  0  0  0  0  0  0  0
   10.0958  -15.4038   22.7818 N   0  0  0  0  0  0  0  0  0  0  0  0
   10.5458  -16.3280   23.8452 C   0  0  1  0  0  0  0  0  0  0  0  0
   12.0155  -16.2616   23.9722 C   0  0  0  0  0  0  0  0  0  0  0  0
   12.7750  -16.5767   22.7394 C   0  0  0  0  0  0  0  0  0  0  0  0
   14.2402  -16.5140   22.8434 C   0  0  0  0  0  0  0  0  0  0  0  0
   14.8358  -15.4046   22.7441 O   0  0  0  0  0  0  0  0  0  0  0  0
    9.7918  -16.2497   25.0526 C   0  0  0  0  0  0  0  0  0  0  0  0
    8.9773  -15.2961   25.2665 O   0  0  0  0  0  0  0  0  0  0  0  0
   15.0306  -17.6324   23.0509 O   0  0  0  0  0  0  0  0  0  0  0  0
    9.9020  -17.2073   26.0633 O   0  0  0  0  0  0  0  0  0  0  0  0
  1  2  1  0
  2  3  1  0
  3  4  2  0
  6  5  1  6
  6  7  1  0
  6  8  1  0
  8  9  1  6
  9  3  1  0
 10  8  1  0
 10 11  2  0
 12 10  1  0
 13 12  1  0
 13 14  1  1
 14 15  1  0
 16 15  1  0
 16 20  1  0
 17 16  2  0
 18 13  1  0
 19 18  2  0
 21 18  1  0
M  END
$$$$
