GTE.pdb
     RDKit          3D

 21 20  0  0  1  0  0  0  0  0999 V2000
    8.8639  -17.4614   16.7517 N   0  0  0  0  0  0  0  0  0  0  0  0
    8.1519  -17.4909   17.9994 C   0  0  0  0  0  0  0  0  0  0  0  0
    8.7448  -16.6375   19.0320 C   0  0  0  0  0  0  0  0  0  0  0  0
    9.8760  -16.1151   18.7864 O   0  0  0  0  0  0  0  0  0  0  0  0
    7.2550  -13.5680   20.5777 C   0  0  0  0  0  0  0  0  0  0  0  0
    7.7487  -14.4698   21.7116 C   0  0  1  0  0  0  0  0  0  0  0  0
    6.7195  -15.0116   22.4452 O   0  0  0  0  0  0  0  0  0  0  0  0
    8.7753  -15.4452   21.2446 C   0  0  2  0  0  0  0  0  0  0  0  0
    8.1467  -16.3458   20.2997 N   0  0  0  0  0  0  0  0  0  0  0  0
    9.4766  -16.1699   22.3158 C   0  0  0  0  0  0  0  0  0  0  0  0
    9.1182  -17.3485   22.5552 O   0  0  0  0  0  0  0  0  0  0  0  0
   10.5263  -15.6221   23.0889 N   0  0  0  0  0  0  0  0  0  0  0  0
   11.2109  -16.3803   24.1584 C   0  0  1  0  0  0  0  0  0  0  0  0
   12.6461  -16.0334   24.1729 C   0  0  0  0  0  0  0  0  0  0  0  0
   13.4292  -16.5182   23.0120 C   0  0  0  0  0  0  0  0  0  0  0  0
   14.8478  -16.1337   22.9772 C   0  0  0  0  0  0  0  0  0  0  0  0
   15.5756  -16.3032   23.9955 O   0  0  0  0  0  0  0  0  0  0  0  0
   10.5344  -16.3714   25.4133 C   0  0  0  0  0  0  0  0  0  0  0  0
    9.5780  -15.5656   25.6467 O   0  0  0  0  0  0  0  0  0  0  0  0
   15.4527  -15.5808   21.8606 O   0  0  0  0  0  0  0  0  0  0  0  0
   10.8788  -17.2398   26.4516 O   0  0  0  0  0  0  0  0  0  0  0  0
  1  2  1  0
  2  3  1  0
  3  4  2  0
  6  5  1  6
  6  7  1  0
  6  8  1  0
  8  9  1  6
  9  3  1  0
 10  8  1  0
 10 11  2  0
 12 10  1  0
 13 12  1  0
 13 14  1  1
 14 15  1  0
 16 15  1  0
 16 20  1  0
 17 16  2  0
 18 13  1  0
 19 18  2  0
 21 18  1  0
M  END
$$$$
