GTE.pdb
     RDKit          3D

 21 20  0  0  1  0  0  0  0  0999 V2000
    3.5453  -18.8510   21.3289 N   0  0  0  0  0  0  0  0  0  0  0  0
    4.0895  -17.6243   21.8422 C   0  0  0  0  0  0  0  0  0  0  0  0
    5.4770  -17.3848   21.4376 C   0  0  0  0  0  0  0  0  0  0  0  0
    6.0712  -18.3066   20.7974 O   0  0  0  0  0  0  0  0  0  0  0  0
    7.0965  -13.5510   21.2843 C   0  0  0  0  0  0  0  0  0  0  0  0
    7.6288  -14.7294   20.4653 C   0  0  1  0  0  0  0  0  0  0  0  0
    8.8379  -14.4580   19.8690 O   0  0  0  0  0  0  0  0  0  0  0  0
    7.5711  -16.0109   21.2253 C   0  0  2  0  0  0  0  0  0  0  0  0
    6.2170  -16.1895   21.7086 N   0  0  0  0  0  0  0  0  0  0  0  0
    8.5640  -16.1394   22.3034 C   0  0  0  0  0  0  0  0  0  0  0  0
    8.2756  -15.6533   23.4238 O   0  0  0  0  0  0  0  0  0  0  0  0
    9.8183  -16.7752   22.1552 N   0  0  0  0  0  0  0  0  0  0  0  0
   10.7869  -16.9006   23.2658 C   0  0  1  0  0  0  0  0  0  0  0  0
   11.1748  -18.3159   23.4296 C   0  0  0  0  0  0  0  0  0  0  0  0
   10.1003  -19.2186   23.9056 C   0  0  0  0  0  0  0  0  0  0  0  0
   10.4602  -20.6359   24.0573 C   0  0  0  0  0  0  0  0  0  0  0  0
   11.6441  -21.0165   23.8356 O   0  0  0  0  0  0  0  0  0  0  0  0
   11.8431  -15.9434   23.2381 C   0  0  0  0  0  0  0  0  0  0  0  0
   12.0600  -15.2231   22.2121 O   0  0  0  0  0  0  0  0  0  0  0  0
    9.5518  -21.6084   24.4413 O   0  0  0  0  0  0  0  0  0  0  0  0
   12.6945  -15.7417   24.3267 O   0  0  0  0  0  0  0  0  0  0  0  0
  1  2  1  0
  2  3  1  0
  3  4  2  0
  6  5  1  1
  6  7  1  0
  6  8  1  0
  8  9  1  1
  9  3  1  0
 10  8  1  0
 10 11  2  0
 12 10  1  0
 13 12  1  0
 13 14  1  6
 14 15  1  0
 16 15  1  0
 16 20  1  0
 17 16  2  0
 18 13  1  0
 19 18  2  0
 21 18  1  0
M  END
$$$$
