GTE.pdb
     RDKit          3D

 21 20  0  0  1  0  0  0  0  0999 V2000
    7.7783  -14.6072   13.9139 N   0  0  0  0  0  0  0  0  0  0  0  0
    7.6780  -15.1228   15.2513 C   0  0  0  0  0  0  0  0  0  0  0  0
    8.4547  -14.3609   16.2322 C   0  0  0  0  0  0  0  0  0  0  0  0
    8.4090  -13.0936   16.1637 O   0  0  0  0  0  0  0  0  0  0  0  0
    7.6061  -12.7757   18.2271 C   0  0  0  0  0  0  0  0  0  0  0  0
    8.4657  -13.6735   19.1202 C   0  0  1  0  0  0  0  0  0  0  0  0
    7.7319  -14.6456   19.7587 O   0  0  0  0  0  0  0  0  0  0  0  0
    9.6853  -14.1618   18.4149 C   0  0  2  0  0  0  0  0  0  0  0  0
    9.2635  -14.9352   17.2647 N   0  0  0  0  0  0  0  0  0  0  0  0
   10.6371  -14.9012   19.2588 C   0  0  0  0  0  0  0  0  0  0  0  0
   10.5327  -16.1511   19.2995 O   0  0  0  0  0  0  0  0  0  0  0  0
   11.6589  -14.2920   20.0233 N   0  0  0  0  0  0  0  0  0  0  0  0
   12.7311  -15.0663   20.6853 C   0  0  1  0  0  0  0  0  0  0  0  0
   14.0114  -14.3395   20.5722 C   0  0  0  0  0  0  0  0  0  0  0  0
   15.1847  -15.0221   21.1666 C   0  0  0  0  0  0  0  0  0  0  0  0
   16.4764  -14.3331   21.0315 C   0  0  0  0  0  0  0  0  0  0  0  0
   16.8239  -13.8506   19.9171 O   0  0  0  0  0  0  0  0  0  0  0  0
   12.3871  -15.5661   21.9754 C   0  0  0  0  0  0  0  0  0  0  0  0
   11.4929  -15.0075   22.6875 O   0  0  0  0  0  0  0  0  0  0  0  0
   17.3617  -14.1757   22.0850 O   0  0  0  0  0  0  0  0  0  0  0  0
   13.0063  -16.6890   22.5288 O   0  0  0  0  0  0  0  0  0  0  0  0
  1  2  1  0
  2  3  1  0
  3  4  2  0
  6  5  1  6
  6  7  1  0
  6  8  1  0
  8  9  1  6
  9  3  1  0
 10  8  1  0
 10 11  2  0
 12 10  1  0
 13 12  1  0
 13 14  1  1
 14 15  1  0
 16 15  1  0
 16 20  1  0
 17 16  2  0
 18 13  1  0
 19 18  2  0
 21 18  1  0
M  END
$$$$
