GTE.pdb
     RDKit          3D

 21 20  0  0  1  0  0  0  0  0999 V2000
    8.6226  -16.6046   16.0335 N   0  0  0  0  0  0  0  0  0  0  0  0
    8.0640  -16.8744   17.3295 C   0  0  0  0  0  0  0  0  0  0  0  0
    8.6206  -16.0349   18.3932 C   0  0  0  0  0  0  0  0  0  0  0  0
    9.6630  -15.3603   18.1265 O   0  0  0  0  0  0  0  0  0  0  0  0
    7.1134  -13.2478   20.3838 C   0  0  0  0  0  0  0  0  0  0  0  0
    7.7155  -14.2477   21.3739 C   0  0  1  0  0  0  0  0  0  0  0  0
    6.7591  -14.9077   22.1093 O   0  0  0  0  0  0  0  0  0  0  0  0
    8.7377  -15.1239   20.7329 C   0  0  2  0  0  0  0  0  0  0  0  0
    8.0796  -15.9154   19.7134 N   0  0  0  0  0  0  0  0  0  0  0  0
    9.5136  -15.9576   21.6643 C   0  0  0  0  0  0  0  0  0  0  0  0
    9.1959  -17.1671   21.7688 O   0  0  0  0  0  0  0  0  0  0  0  0
   10.5919  -15.4815   22.4455 N   0  0  0  0  0  0  0  0  0  0  0  0
   11.2605  -16.3085   23.4732 C   0  0  1  0  0  0  0  0  0  0  0  0
   12.6925  -15.9548   23.5415 C   0  0  0  0  0  0  0  0  0  0  0  0
   13.5161  -16.4138   22.3983 C   0  0  0  0  0  0  0  0  0  0  0  0
   14.9403  -16.0511   22.4347 C   0  0  0  0  0  0  0  0  0  0  0  0
   15.7337  -16.6737   23.1953 O   0  0  0  0  0  0  0  0  0  0  0  0
   10.5589  -16.3917   24.7115 C   0  0  0  0  0  0  0  0  0  0  0  0
    9.6276  -15.5756   25.0034 O   0  0  0  0  0  0  0  0  0  0  0  0
   15.4811  -15.0376   21.6609 O   0  0  0  0  0  0  0  0  0  0  0  0
   10.8500  -17.3661   25.6688 O   0  0  0  0  0  0  0  0  0  0  0  0
  1  2  1  0
  2  3  1  0
  3  4  2  0
  6  5  1  6
  6  7  1  0
  6  8  1  0
  8  9  1  6
  9  3  1  0
 10  8  1  0
 10 11  2  0
 12 10  1  0
 13 12  1  0
 13 14  1  1
 14 15  1  0
 16 15  1  0
 16 20  1  0
 17 16  2  0
 18 13  1  0
 19 18  2  0
 21 18  1  0
M  END
$$$$
