AHA.pdb
     RDKit          3D

 21 21  0  0  1  0  0  0  0  0999 V2000
    7.7966  -12.4869   20.0634 C   0  0  0  0  0  0  0  0  0  0  0  0
    8.2407  -13.0332   18.7250 C   0  0  2  0  0  0  0  0  0  0  0  0
    7.0896  -13.6421   18.0949 N   0  0  0  0  0  0  0  0  0  0  0  0
    9.3041  -14.0537   18.8486 C   0  0  0  0  0  0  0  0  0  0  0  0
    8.9952  -15.2679   18.8541 O   0  0  0  0  0  0  0  0  0  0  0  0
   10.6849  -13.6742   18.9624 N   0  0  0  0  0  0  0  0  0  0  0  0
   11.7066  -14.6701   19.1076 C   0  0  1  0  0  0  0  0  0  0  0  0
   12.9953  -14.3022   18.4223 C   0  0  0  0  0  0  0  0  0  0  0  0
   13.9879  -15.3764   18.4233 C   0  0  0  0  0  0  0  0  0  0  0  0
   13.7200  -16.7224   18.4346 C   0  0  0  0  0  0  0  0  0  0  0  0
   14.9041  -17.3687   18.4313 N   0  0  0  0  0  0  0  0  0  0  0  0
   15.9020  -16.4721   18.4184 C   0  0  0  0  0  0  0  0  0  0  0  0
   15.3182  -15.2585   18.4137 N   0  0  0  0  0  0  0  0  0  0  0  0
   11.9378  -14.9975   20.5588 C   0  0  0  0  0  0  0  0  0  0  0  0
   12.3712  -14.0961   21.3224 O   0  0  0  0  0  0  0  0  0  0  0  0
   10.9962  -17.6148   23.0273 C   0  0  0  0  0  0  0  0  0  0  0  0
   11.9424  -16.5553   22.4840 C   0  0  2  0  0  0  0  0  0  0  0  0
   11.6829  -16.2877   21.0911 N   0  0  0  0  0  0  0  0  0  0  0  0
   13.3463  -17.0331   22.6809 C   0  0  0  0  0  0  0  0  0  0  0  0
   14.0362  -17.3182   21.6689 O   0  0  0  0  0  0  0  0  0  0  0  0
   13.9270  -17.1781   23.9260 O   0  0  0  0  0  0  0  0  0  0  0  0
  2  1  1  1
  2  4  1  0
  2  3  1  0
  4  5  2  0
  6  7  1  0
  6  4  1  0
  7  8  1  1
  9  8  1  0
 10  9  2  0
 11 10  1  0
 12 11  1  0
 12 13  2  0
 13  9  1  0
 14 15  2  0
 14  7  1  0
 17 16  1  6
 17 19  1  0
 17 18  1  0
 18 14  1  0
 19 21  1  0
 20 19  2  0
M  END
$$$$
