AHA.pdb
     RDKit          3D

 21 21  0  0  1  0  0  0  0  0999 V2000
    8.0301  -12.4974   20.0797 C   0  0  0  0  0  0  0  0  0  0  0  0
    8.7359  -13.1087   18.8901 C   0  0  2  0  0  0  0  0  0  0  0  0
    7.7248  -13.4984   17.9316 N   0  0  0  0  0  0  0  0  0  0  0  0
    9.5298  -14.3039   19.2488 C   0  0  0  0  0  0  0  0  0  0  0  0
    9.0465  -15.4442   19.0593 O   0  0  0  0  0  0  0  0  0  0  0  0
   10.8457  -14.1775   19.8109 N   0  0  0  0  0  0  0  0  0  0  0  0
   11.5996  -15.3420   20.1748 C   0  0  1  0  0  0  0  0  0  0  0  0
   13.0161  -15.3143   19.6666 C   0  0  0  0  0  0  0  0  0  0  0  0
   13.1290  -15.5624   18.2297 C   0  0  0  0  0  0  0  0  0  0  0  0
   13.4508  -14.6323   17.2732 C   0  0  0  0  0  0  0  0  0  0  0  0
   13.4486  -15.2635   16.0809 N   0  0  0  0  0  0  0  0  0  0  0  0
   13.1365  -16.5559   16.2605 C   0  0  0  0  0  0  0  0  0  0  0  0
   12.9448  -16.7169   17.5838 N   0  0  0  0  0  0  0  0  0  0  0  0
   11.5611  -15.5656   21.6631 C   0  0  0  0  0  0  0  0  0  0  0  0
   12.1450  -14.7430   22.4154 O   0  0  0  0  0  0  0  0  0  0  0  0
    9.8648  -17.8749   24.1100 C   0  0  0  0  0  0  0  0  0  0  0  0
   10.9054  -16.8557   23.6728 C   0  0  2  0  0  0  0  0  0  0  0  0
   10.8886  -16.6722   22.2427 N   0  0  0  0  0  0  0  0  0  0  0  0
   12.2484  -17.3282   24.1324 C   0  0  0  0  0  0  0  0  0  0  0  0
   13.0933  -17.6813   23.2706 O   0  0  0  0  0  0  0  0  0  0  0  0
   12.6098  -17.3967   25.4640 O   0  0  0  0  0  0  0  0  0  0  0  0
  2  1  1  1
  2  4  1  0
  2  3  1  0
  4  5  2  0
  6  7  1  0
  6  4  1  0
  7  8  1  1
  9  8  1  0
 10  9  2  0
 11 10  1  0
 12 11  1  0
 12 13  2  0
 13  9  1  0
 14 15  2  0
 14  7  1  0
 17 16  1  6
 17 19  1  0
 17 18  1  0
 18 14  1  0
 19 21  1  0
 20 19  2  0
M  END
$$$$
