AHA.pdb
     RDKit          3D

 21 21  0  0  1  0  0  0  0  0999 V2000
    9.1231  -19.7779   20.3427 C   0  0  0  0  0  0  0  0  0  0  0  0
    9.0967  -18.8540   19.1458 C   0  0  2  0  0  0  0  0  0  0  0  0
    9.9333  -19.4387   18.1206 N   0  0  0  0  0  0  0  0  0  0  0  0
    9.6086  -17.5016   19.4562 C   0  0  0  0  0  0  0  0  0  0  0  0
   10.8276  -17.2547   19.3054 O   0  0  0  0  0  0  0  0  0  0  0  0
    8.7300  -16.4675   19.9278 N   0  0  0  0  0  0  0  0  0  0  0  0
    9.2375  -15.1617   20.2347 C   0  0  1  0  0  0  0  0  0  0  0  0
    8.2848  -14.0545   19.8712 C   0  0  0  0  0  0  0  0  0  0  0  0
    8.0918  -13.8961   18.4301 C   0  0  0  0  0  0  0  0  0  0  0  0
    8.7479  -14.5933   17.4467 C   0  0  0  0  0  0  0  0  0  0  0  0
    8.2831  -14.1501   16.2603 N   0  0  0  0  0  0  0  0  0  0  0  0
    7.3592  -13.2001   16.4696 C   0  0  0  0  0  0  0  0  0  0  0  0
    7.2579  -13.0606   17.8052 N   0  0  0  0  0  0  0  0  0  0  0  0
    9.6504  -15.0699   21.6797 C   0  0  0  0  0  0  0  0  0  0  0  0
   10.1798  -14.0057   22.0928 O   0  0  0  0  0  0  0  0  0  0  0  0
    9.0356  -16.5154   24.9673 C   0  0  0  0  0  0  0  0  0  0  0  0
   10.0359  -16.0772   23.9089 C   0  0  2  0  0  0  0  0  0  0  0  0
    9.4616  -16.1433   22.5879 N   0  0  0  0  0  0  0  0  0  0  0  0
   11.2419  -16.9567   24.0089 C   0  0  0  0  0  0  0  0  0  0  0  0
   11.5045  -17.7345   23.0564 O   0  0  0  0  0  0  0  0  0  0  0  0
   12.0872  -16.9577   25.1017 O   0  0  0  0  0  0  0  0  0  0  0  0
  2  1  1  1
  2  4  1  0
  2  3  1  0
  4  5  2  0
  6  7  1  0
  6  4  1  0
  7  8  1  1
  9  8  1  0
 10  9  2  0
 11 10  1  0
 12 11  1  0
 12 13  2  0
 13  9  1  0
 14 15  2  0
 14  7  1  0
 17 16  1  1
 17 19  1  0
 17 18  1  0
 18 14  1  0
 19 21  1  0
 20 19  2  0
M  END
$$$$
