AHA.pdb
     RDKit          3D

 21 21  0  0  1  0  0  0  0  0999 V2000
    5.6780  -27.0280   30.4687 C   0  0  0  0  0  0  0  0  0  0  0  0
    6.8821  -26.5589   29.6831 C   0  0  2  0  0  0  0  0  0  0  0  0
    7.7575  -27.6959   29.4995 N   0  0  0  0  0  0  0  0  0  0  0  0
    7.6361  -25.4917   30.3760 C   0  0  0  0  0  0  0  0  0  0  0  0
    7.1054  -24.3684   30.5383 O   0  0  0  0  0  0  0  0  0  0  0  0
    8.9667  -25.7232   30.8654 N   0  0  0  0  0  0  0  0  0  0  0  0
    9.6749  -24.6946   31.5705 C   0  0  1  0  0  0  0  0  0  0  0  0
   10.0843  -25.1022   32.9604 C   0  0  0  0  0  0  0  0  0  0  0  0
    8.9642  -25.2068   33.8951 C   0  0  0  0  0  0  0  0  0  0  0  0
    8.3683  -24.1647   34.5601 C   0  0  0  0  0  0  0  0  0  0  0  0
    7.3808  -24.6833   35.3190 N   0  0  0  0  0  0  0  0  0  0  0  0
    7.3400  -26.0136   35.1503 C   0  0  0  0  0  0  0  0  0  0  0  0
    8.3182  -26.3126   34.2744 N   0  0  0  0  0  0  0  0  0  0  0  0
   10.8592  -24.2132   30.7750 C   0  0  0  0  0  0  0  0  0  0  0  0
   11.6902  -25.0585   30.3528 O   0  0  0  0  0  0  0  0  0  0  0  0
   12.0414  -20.9794   29.2339 C   0  0  0  0  0  0  0  0  0  0  0  0
   12.1632  -22.4398   29.6404 C   0  0  2  0  0  0  0  0  0  0  0  0
   11.0668  -22.8396   30.4873 N   0  0  0  0  0  0  0  0  0  0  0  0
   13.4716  -22.6252   30.3416 C   0  0  0  0  0  0  0  0  0  0  0  0
   14.5217  -22.6989   29.6539 O   0  0  0  0  0  0  0  0  0  0  0  0
   13.5854  -22.7203   31.7152 O   0  0  0  0  0  0  0  0  0  0  0  0
  2  1  1  1
  2  4  1  0
  2  3  1  0
  4  5  2  0
  6  7  1  0
  6  4  1  0
  7  8  1  1
  9  8  1  0
 10  9  2  0
 11 10  1  0
 12 11  1  0
 12 13  2  0
 13  9  1  0
 14 15  2  0
 14  7  1  0
 17 16  1  1
 17 19  1  0
 17 18  1  0
 18 14  1  0
 19 21  1  0
 20 19  2  0
M  END
$$$$
