AHA.pdb
     RDKit          3D

 21 21  0  0  1  0  0  0  0  0999 V2000
    8.1352  -12.2354   19.2641 C   0  0  0  0  0  0  0  0  0  0  0  0
    8.4704  -13.6512   18.8514 C   0  0  2  0  0  0  0  0  0  0  0  0
    7.6410  -13.9857   17.7143 N   0  0  0  0  0  0  0  0  0  0  0  0
    8.2154  -14.6352   19.9256 C   0  0  0  0  0  0  0  0  0  0  0  0
    7.0450  -15.0317   20.1327 O   0  0  0  0  0  0  0  0  0  0  0  0
    9.2883  -15.1431   20.7347 N   0  0  0  0  0  0  0  0  0  0  0  0
    9.0211  -16.0324   21.8277 C   0  0  1  0  0  0  0  0  0  0  0  0
    9.8659  -17.2778   21.7992 C   0  0  0  0  0  0  0  0  0  0  0  0
    9.4095  -18.2744   20.8308 C   0  0  0  0  0  0  0  0  0  0  0  0
    8.3349  -18.1462   19.9868 C   0  0  0  0  0  0  0  0  0  0  0  0
    8.2555  -19.2804   19.2608 N   0  0  0  0  0  0  0  0  0  0  0  0
    9.2438  -20.1123   19.6228 C   0  0  0  0  0  0  0  0  0  0  0  0
    9.9383  -19.4761   20.5854 N   0  0  0  0  0  0  0  0  0  0  0  0
    9.1505  -15.3188   23.1471 C   0  0  0  0  0  0  0  0  0  0  0  0
   10.1924  -14.6513   23.3760 O   0  0  0  0  0  0  0  0  0  0  0  0
    6.9546  -13.9926   25.7726 C   0  0  0  0  0  0  0  0  0  0  0  0
    8.2778  -14.6155   25.3554 C   0  0  2  0  0  0  0  0  0  0  0  0
    8.1368  -15.3753   24.1380 N   0  0  0  0  0  0  0  0  0  0  0  0
    8.7607  -15.4857   26.4723 C   0  0  0  0  0  0  0  0  0  0  0  0
    8.8176  -16.7286   26.2900 O   0  0  0  0  0  0  0  0  0  0  0  0
    9.1499  -14.9899   27.7017 O   0  0  0  0  0  0  0  0  0  0  0  0
  2  1  1  1
  2  4  1  0
  2  3  1  0
  4  5  2  0
  6  7  1  0
  6  4  1  0
  7  8  1  1
  9  8  1  0
 10  9  2  0
 11 10  1  0
 12 11  1  0
 12 13  2  0
 13  9  1  0
 14 15  2  0
 14  7  1  0
 17 16  1  1
 17 19  1  0
 17 18  1  0
 18 14  1  0
 19 21  1  0
 20 19  2  0
M  END
$$$$
