PFA.pdb
     RDKit          3D

 24 25  0  0  1  0  0  0  0  0999 V2000
   28.7136  -20.7309  -15.4239 N   0  0  0  0  0  0  0  0  0  0  0  0
   28.9260  -20.1038  -16.7197 C   0  0  0  0  0  0  0  0  0  0  0  0
   28.3156  -18.7020  -16.5738 C   0  0  0  0  0  0  0  0  0  0  0  0
   27.0947  -19.0887  -15.7267 C   0  0  0  0  0  0  0  0  0  0  0  0
   27.7874  -19.9514  -14.6862 C   0  0  1  0  0  0  0  0  0  0  0  0
   26.7723  -20.7214  -13.9514 C   0  0  0  0  0  0  0  0  0  0  0  0
   26.5118  -21.9084  -14.2698 O   0  0  0  0  0  0  0  0  0  0  0  0
   26.0637  -20.1498  -12.8705 N   0  0  0  0  0  0  0  0  0  0  0  0
   25.0413  -20.8167  -12.1129 C   0  0  1  0  0  0  0  0  0  0  0  0
   24.9757  -20.2881  -10.7241 C   0  0  0  0  0  0  0  0  0  0  0  0
   26.1778  -20.6600   -9.9395 C   0  0  0  0  0  0  0  0  0  0  0  0
   26.2953  -20.2311   -8.6382 C   0  0  0  0  0  0  0  0  0  0  0  0
   27.3977  -20.5478   -7.8579 C   0  0  0  0  0  0  0  0  0  0  0  0
   28.3889  -21.3151   -8.4265 C   0  0  0  0  0  0  0  0  0  0  0  0
   28.3113  -21.7645   -9.7232 C   0  0  0  0  0  0  0  0  0  0  0  0
   27.1841  -21.4201  -10.4671 C   0  0  0  0  0  0  0  0  0  0  0  0
   23.7332  -20.8303  -12.8048 C   0  0  0  0  0  0  0  0  0  0  0  0
   23.3067  -19.7138  -13.2223 O   0  0  0  0  0  0  0  0  0  0  0  0
   21.1606  -23.1935  -14.1647 C   0  0  0  0  0  0  0  0  0  0  0  0
   21.7031  -21.8444  -13.7511 C   0  0  2  0  0  0  0  0  0  0  0  0
   22.9510  -21.9646  -13.0260 N   0  0  0  0  0  0  0  0  0  0  0  0
   20.7245  -21.1598  -12.9054 C   0  0  0  0  0  0  0  0  0  0  0  0
   19.7650  -20.5510  -13.4335 O   0  0  0  0  0  0  0  0  0  0  0  0
   20.8397  -21.1718  -11.5087 O   0  0  0  0  0  0  0  0  0  0  0  0
  1  2  1  0
  3  2  1  0
  4  5  1  0
  4  3  1  0
  5  1  1  0
  6  8  1  0
  5  6  1  6
  7  6  2  0
  9  8  1  0
  9 10  1  1
 10 11  1  0
 11 12  2  0
 11 16  1  0
 12 13  1  0
 13 14  2  0
 15 14  1  0
 16 15  2  0
 17 18  2  0
 17  9  1  0
 20 19  1  1
 20 22  1  0
 20 21  1  0
 21 17  1  0
 22 24  1  0
 23 22  2  0
M  END
$$$$
