PFA.pdb
     RDKit          3D

 24 25  0  0  1  0  0  0  0  0999 V2000
   25.0717  -11.7806  -20.0258 N   0  0  0  0  0  0  0  0  0  0  0  0
   25.7997  -12.9590  -20.4715 C   0  0  0  0  0  0  0  0  0  0  0  0
   24.8526  -14.1314  -20.1758 C   0  0  0  0  0  0  0  0  0  0  0  0
   24.2970  -13.6238  -18.8374 C   0  0  0  0  0  0  0  0  0  0  0  0
   23.9678  -12.1967  -19.2396 C   0  0  1  0  0  0  0  0  0  0  0  0
   23.7332  -11.4002  -18.0256 C   0  0  0  0  0  0  0  0  0  0  0  0
   22.8476  -11.7343  -17.1995 O   0  0  0  0  0  0  0  0  0  0  0  0
   24.4943  -10.2406  -17.7551 N   0  0  0  0  0  0  0  0  0  0  0  0
   24.3750   -9.4364  -16.5706 C   0  0  1  0  0  0  0  0  0  0  0  0
   25.7111   -9.1522  -15.9817 C   0  0  0  0  0  0  0  0  0  0  0  0
   26.5404  -10.3779  -15.8891 C   0  0  0  0  0  0  0  0  0  0  0  0
   27.6249  -10.5251  -16.7218 C   0  0  0  0  0  0  0  0  0  0  0  0
   28.4349  -11.6506  -16.6799 C   0  0  0  0  0  0  0  0  0  0  0  0
   28.1222  -12.6342  -15.7693 C   0  0  0  0  0  0  0  0  0  0  0  0
   27.0477  -12.5272  -14.9188 C   0  0  0  0  0  0  0  0  0  0  0  0
   26.2638  -11.3776  -14.9987 C   0  0  0  0  0  0  0  0  0  0  0  0
   23.5499   -8.2260  -16.7812 C   0  0  0  0  0  0  0  0  0  0  0  0
   23.7402   -7.5976  -17.8636 O   0  0  0  0  0  0  0  0  0  0  0  0
   20.8456   -6.9126  -17.3960 C   0  0  0  0  0  0  0  0  0  0  0  0
   21.7883   -6.5925  -16.2584 C   0  0  2  0  0  0  0  0  0  0  0  0
   22.5950   -7.7371  -15.8888 N   0  0  0  0  0  0  0  0  0  0  0  0
   21.0202   -6.1542  -15.0925 C   0  0  0  0  0  0  0  0  0  0  0  0
   20.4053   -5.0630  -15.1280 O   0  0  0  0  0  0  0  0  0  0  0  0
   20.9581   -6.9352  -13.9305 O   0  0  0  0  0  0  0  0  0  0  0  0
  1  2  1  0
  3  2  1  0
  4  5  1  0
  4  3  1  0
  5  1  1  0
  6  8  1  0
  5  6  1  1
  7  6  2  0
  9  8  1  0
  9 10  1  6
 10 11  1  0
 11 12  2  0
 11 16  1  0
 12 13  1  0
 13 14  2  0
 15 14  1  0
 16 15  2  0
 17 18  2  0
 17  9  1  0
 20 19  1  6
 20 22  1  0
 20 21  1  0
 21 17  1  0
 22 24  1  0
 23 22  2  0
M  END
$$$$
