PFA.pdb
     RDKit          3D

 24 25  0  0  1  0  0  0  0  0999 V2000
   19.1792  -11.6050  -18.6217 N   0  0  0  0  0  0  0  0  0  0  0  0
   18.8825  -12.7404  -19.4820 C   0  0  0  0  0  0  0  0  0  0  0  0
   18.6611  -13.9107  -18.5123 C   0  0  0  0  0  0  0  0  0  0  0  0
   19.7586  -13.5573  -17.4982 C   0  0  0  0  0  0  0  0  0  0  0  0
   19.4499  -12.0817  -17.3143 C   0  0  1  0  0  0  0  0  0  0  0  0
   20.5863  -11.4362  -16.6395 C   0  0  0  0  0  0  0  0  0  0  0  0
   20.8945  -11.7466  -15.4619 O   0  0  0  0  0  0  0  0  0  0  0  0
   21.3606  -10.4519  -17.2944 N   0  0  0  0  0  0  0  0  0  0  0  0
   22.4599   -9.7418  -16.7017 C   0  0  1  0  0  0  0  0  0  0  0  0
   23.6716   -9.8209  -17.5610 C   0  0  0  0  0  0  0  0  0  0  0  0
   24.8797  -10.1656  -16.7733 C   0  0  0  0  0  0  0  0  0  0  0  0
   25.0011  -11.4267  -16.2385 C   0  0  0  0  0  0  0  0  0  0  0  0
   26.1083  -11.8040  -15.4925 C   0  0  0  0  0  0  0  0  0  0  0  0
   27.1001  -10.8701  -15.2966 C   0  0  0  0  0  0  0  0  0  0  0  0
   27.0187   -9.5989  -15.8131 C   0  0  0  0  0  0  0  0  0  0  0  0
   25.8869   -9.2673  -16.5557 C   0  0  0  0  0  0  0  0  0  0  0  0
   22.1027   -8.3614  -16.3055 C   0  0  0  0  0  0  0  0  0  0  0  0
   21.5056   -7.6635  -17.1768 O   0  0  0  0  0  0  0  0  0  0  0  0
   21.7152   -6.2467  -13.2706 C   0  0  0  0  0  0  0  0  0  0  0  0
   21.8585   -6.4653  -14.7596 C   0  0  2  0  0  0  0  0  0  0  0  0
   22.3719   -7.7849  -15.0635 N   0  0  0  0  0  0  0  0  0  0  0  0
   22.7643   -5.4610  -15.3185 C   0  0  0  0  0  0  0  0  0  0  0  0
   23.8793   -5.8124  -15.7696 O   0  0  0  0  0  0  0  0  0  0  0  0
   22.4074   -4.1064  -15.3597 O   0  0  0  0  0  0  0  0  0  0  0  0
  1  2  1  0
  3  2  1  0
  4  5  1  0
  4  3  1  0
  5  1  1  0
  6  8  1  0
  5  6  1  6
  7  6  2  0
  9  8  1  0
  9 10  1  6
 10 11  1  0
 11 12  2  0
 11 16  1  0
 12 13  1  0
 13 14  2  0
 15 14  1  0
 16 15  2  0
 17 18  2  0
 17  9  1  0
 20 19  1  1
 20 22  1  0
 20 21  1  0
 21 17  1  0
 22 24  1  0
 23 22  2  0
M  END
$$$$
