PFA.pdb
     RDKit          3D

 24 25  0  0  1  0  0  0  0  0999 V2000
   26.1641  -21.2622  -13.1043 N   0  0  0  0  0  0  0  0  0  0  0  0
   25.0733  -21.3725  -14.0610 C   0  0  0  0  0  0  0  0  0  0  0  0
   24.1514  -20.1889  -13.7320 C   0  0  0  0  0  0  0  0  0  0  0  0
   24.2812  -20.2368  -12.2027 C   0  0  0  0  0  0  0  0  0  0  0  0
   25.7924  -20.3410  -12.0929 C   0  0  1  0  0  0  0  0  0  0  0  0
   26.1453  -20.7449  -10.7233 C   0  0  0  0  0  0  0  0  0  0  0  0
   26.1796  -21.9584  -10.4003 O   0  0  0  0  0  0  0  0  0  0  0  0
   26.4542  -19.7826   -9.7354 N   0  0  0  0  0  0  0  0  0  0  0  0
   26.8077  -20.0841   -8.3759 C   0  0  1  0  0  0  0  0  0  0  0  0
   27.6871  -19.0282   -7.8065 C   0  0  0  0  0  0  0  0  0  0  0  0
   28.1528  -19.3799   -6.4433 C   0  0  0  0  0  0  0  0  0  0  0  0
   29.1144  -20.3504   -6.2867 C   0  0  0  0  0  0  0  0  0  0  0  0
   29.5864  -20.7206   -5.0358 C   0  0  0  0  0  0  0  0  0  0  0  0
   29.0605  -20.0826   -3.9355 C   0  0  0  0  0  0  0  0  0  0  0  0
   28.0982  -19.1075   -4.0472 C   0  0  0  0  0  0  0  0  0  0  0  0
   27.6560  -18.7702   -5.3252 C   0  0  0  0  0  0  0  0  0  0  0  0
   25.6309  -20.3938   -7.5337 C   0  0  0  0  0  0  0  0  0  0  0  0
   24.6451  -19.6059   -7.6341 O   0  0  0  0  0  0  0  0  0  0  0  0
   24.0932  -23.1504   -5.5926 C   0  0  0  0  0  0  0  0  0  0  0  0
   24.3010  -21.6897   -5.9222 C   0  0  2  0  0  0  0  0  0  0  0  0
   25.5320  -21.4721   -6.6535 N   0  0  0  0  0  0  0  0  0  0  0  0
   24.3363  -20.9074   -4.6860 C   0  0  0  0  0  0  0  0  0  0  0  0
   25.3990  -20.3416   -4.3389 O   0  0  0  0  0  0  0  0  0  0  0  0
   23.1984  -20.7775   -3.8782 O   0  0  0  0  0  0  0  0  0  0  0  0
  1  2  1  0
  3  2  1  0
  4  5  1  0
  4  3  1  0
  5  1  1  0
  6  8  1  0
  5  6  1  1
  7  6  2  0
  9  8  1  0
  9 10  1  1
 10 11  1  0
 11 12  2  0
 11 16  1  0
 12 13  1  0
 13 14  2  0
 15 14  1  0
 16 15  2  0
 17 18  2  0
 17  9  1  0
 20 19  1  1
 20 22  1  0
 20 21  1  0
 21 17  1  0
 22 24  1  0
 23 22  2  0
M  END
$$$$
