PFA.pdb
     RDKit          3D

 24 25  0  0  1  0  0  0  0  0999 V2000
   21.0771   -9.9504  -18.3615 N   0  0  0  0  0  0  0  0  0  0  0  0
   20.3257  -10.5435  -19.4574 C   0  0  0  0  0  0  0  0  0  0  0  0
   20.1261   -9.3926  -20.4547 C   0  0  0  0  0  0  0  0  0  0  0  0
   19.8832   -8.2688  -19.4369 C   0  0  0  0  0  0  0  0  0  0  0  0
   21.0456   -8.5397  -18.4977 C   0  0  1  0  0  0  0  0  0  0  0  0
   20.8311   -7.7983  -17.2456 C   0  0  0  0  0  0  0  0  0  0  0  0
   20.0849   -8.2592  -16.3462 O   0  0  0  0  0  0  0  0  0  0  0  0
   21.4558   -6.5509  -17.0199 N   0  0  0  0  0  0  0  0  0  0  0  0
   21.3100   -5.7620  -15.8281 C   0  0  1  0  0  0  0  0  0  0  0  0
   22.5515   -5.7977  -15.0094 C   0  0  0  0  0  0  0  0  0  0  0  0
   22.7839   -7.1411  -14.4259 C   0  0  0  0  0  0  0  0  0  0  0  0
   23.7179   -7.9737  -14.9965 C   0  0  0  0  0  0  0  0  0  0  0  0
   23.9759   -9.2407  -14.4938 C   0  0  0  0  0  0  0  0  0  0  0  0
   23.2626   -9.6524  -13.3910 C   0  0  0  0  0  0  0  0  0  0  0  0
   22.3203   -8.8521  -12.7901 C   0  0  0  0  0  0  0  0  0  0  0  0
   22.0967   -7.5875  -13.3318 C   0  0  0  0  0  0  0  0  0  0  0  0
   20.8207   -4.3929  -16.1041 C   0  0  0  0  0  0  0  0  0  0  0  0
   21.4274   -3.7517  -17.0116 O   0  0  0  0  0  0  0  0  0  0  0  0
   17.9129   -2.1554  -15.4479 C   0  0  0  0  0  0  0  0  0  0  0  0
   19.3375   -2.4471  -15.8611 C   0  0  2  0  0  0  0  0  0  0  0  0
   19.7582   -3.7699  -15.4480 N   0  0  0  0  0  0  0  0  0  0  0  0
   20.2342   -1.4546  -15.2675 C   0  0  0  0  0  0  0  0  0  0  0  0
   20.1022   -0.2437  -15.5611 O   0  0  0  0  0  0  0  0  0  0  0  0
   21.2431   -1.8339  -14.3718 O   0  0  0  0  0  0  0  0  0  0  0  0
  1  2  1  0
  3  2  1  0
  4  5  1  0
  4  3  1  0
  5  1  1  0
  6  8  1  0
  5  6  1  1
  7  6  2  0
  9  8  1  0
  9 10  1  6
 10 11  1  0
 11 12  2  0
 11 16  1  0
 12 13  1  0
 13 14  2  0
 15 14  1  0
 16 15  2  0
 17 18  2  0
 17  9  1  0
 20 19  1  1
 20 22  1  0
 20 21  1  0
 21 17  1  0
 22 24  1  0
 23 22  2  0
M  END
$$$$
