TET.pdb
     RDKit          3D

 24 23  0  0  1  0  0  0  0  0999 V2000
    8.7669  -12.4350   20.3550 C   0  0  0  0  0  0  0  0  0  0  0  0
    7.8326  -13.2542   19.4904 C   0  0  1  0  0  0  0  0  0  0  0  0
    7.8489  -12.7973   18.2077 O   0  0  0  0  0  0  0  0  0  0  0  0
    8.1807  -14.6930   19.6665 C   0  0  2  0  0  0  0  0  0  0  0  0
    7.4277  -15.5658   18.7880 N   0  0  0  0  0  0  0  0  0  0  0  0
    8.1742  -15.2288   21.0102 C   0  0  0  0  0  0  0  0  0  0  0  0
    7.0652  -15.5527   21.5082 O   0  0  0  0  0  0  0  0  0  0  0  0
    9.3105  -15.4302   21.8421 N   0  0  0  0  0  0  0  0  0  0  0  0
    9.1901  -16.0315   23.1307 C   0  0  1  0  0  0  0  0  0  0  0  0
   10.1642  -17.1008   23.4574 C   0  0  0  0  0  0  0  0  0  0  0  0
    9.9771  -17.7794   24.7791 C   0  0  0  0  0  0  0  0  0  0  0  0
   11.0562  -18.7950   24.8880 C   0  0  0  0  0  0  0  0  0  0  0  0
   11.6327  -19.0469   25.9810 O   0  0  0  0  0  0  0  0  0  0  0  0
    9.2540  -15.0117   24.2308 C   0  0  0  0  0  0  0  0  0  0  0  0
   10.3493  -14.4385   24.4450 O   0  0  0  0  0  0  0  0  0  0  0  0
   11.4238  -19.4757   23.7365 O   0  0  0  0  0  0  0  0  0  0  0  0
    6.6231  -12.0892   25.1757 C   0  0  0  0  0  0  0  0  0  0  0  0
    6.8975  -13.0771   26.2892 C   0  0  1  0  0  0  0  0  0  0  0  0
    5.9053  -14.0546   26.2484 O   0  0  0  0  0  0  0  0  0  0  0  0
    8.2228  -13.7406   26.1177 C   0  0  2  0  0  0  0  0  0  0  0  0
    8.1436  -14.6812   25.0216 N   0  0  0  0  0  0  0  0  0  0  0  0
    8.6832  -14.4196   27.3582 C   0  0  0  0  0  0  0  0  0  0  0  0
    8.8985  -13.6832   28.5039 O   0  0  0  0  0  0  0  0  0  0  0  0
    8.8769  -15.6575   27.3684 O   0  0  0  0  0  0  0  0  0  0  0  0
  2  1  1  1
  2  3  1  0
  2  4  1  0
  4  5  1  6
  6  7  2  0
  6  4  1  0
  8  6  1  0
  9  8  1  0
  9 14  1  0
  9 10  1  1
 11 10  1  0
 12 11  1  0
 13 12  2  0
 14 21  1  0
 15 14  2  0
 16 12  1  0
 18 17  1  6
 18 20  1  0
 18 19  1  0
 20 22  1  0
 20 21  1  6
 22 24  2  0
 22 23  1  0
M  END
$$$$
