TET.pdb
     RDKit          3D

 24 23  0  0  1  0  0  0  0  0999 V2000
    8.2615  -12.4647   20.3153 C   0  0  0  0  0  0  0  0  0  0  0  0
    7.7897  -13.4082   19.2297 C   0  0  1  0  0  0  0  0  0  0  0  0
    8.0345  -12.8778   17.9996 O   0  0  0  0  0  0  0  0  0  0  0  0
    8.3925  -14.7473   19.4857 C   0  0  2  0  0  0  0  0  0  0  0  0
    8.0599  -15.7190   18.4630 N   0  0  0  0  0  0  0  0  0  0  0  0
    8.2040  -15.3325   20.7951 C   0  0  0  0  0  0  0  0  0  0  0  0
    7.1462  -15.9812   21.0020 O   0  0  0  0  0  0  0  0  0  0  0  0
    9.1053  -15.2486   21.8927 N   0  0  0  0  0  0  0  0  0  0  0  0
    8.7989  -15.8455   23.1522 C   0  0  1  0  0  0  0  0  0  0  0  0
    9.5001  -17.1118   23.4743 C   0  0  0  0  0  0  0  0  0  0  0  0
   10.8408  -17.3022   22.8350 C   0  0  0  0  0  0  0  0  0  0  0  0
   11.3619  -18.6033   23.3283 C   0  0  0  0  0  0  0  0  0  0  0  0
   12.0028  -18.7028   24.4099 O   0  0  0  0  0  0  0  0  0  0  0  0
    9.0350  -14.8967   24.2917 C   0  0  0  0  0  0  0  0  0  0  0  0
   10.1621  -14.3538   24.3874 O   0  0  0  0  0  0  0  0  0  0  0  0
   11.1230  -19.7313   22.5569 O   0  0  0  0  0  0  0  0  0  0  0  0
    7.0758  -11.7370   25.4768 C   0  0  0  0  0  0  0  0  0  0  0  0
    7.1152  -12.8148   26.5387 C   0  0  1  0  0  0  0  0  0  0  0  0
    5.9553  -13.5775   26.4179 O   0  0  0  0  0  0  0  0  0  0  0  0
    8.2930  -13.7136   26.3628 C   0  0  2  0  0  0  0  0  0  0  0  0
    8.0502  -14.5996   25.2454 N   0  0  0  0  0  0  0  0  0  0  0  0
    8.6021  -14.4926   27.5913 C   0  0  0  0  0  0  0  0  0  0  0  0
    8.8924  -13.8332   28.7669 O   0  0  0  0  0  0  0  0  0  0  0  0
    8.6004  -15.7453   27.5644 O   0  0  0  0  0  0  0  0  0  0  0  0
  2  1  1  1
  2  3  1  0
  2  4  1  0
  4  5  1  6
  6  7  2  0
  6  4  1  0
  8  6  1  0
  9  8  1  0
  9 14  1  0
  9 10  1  1
 11 10  1  0
 12 11  1  0
 13 12  2  0
 14 21  1  0
 15 14  2  0
 16 12  1  0
 18 17  1  6
 18 20  1  0
 18 19  1  0
 20 22  1  0
 20 21  1  6
 22 24  2  0
 22 23  1  0
M  END
$$$$
