TET.pdb
     RDKit          3D

 24 23  0  0  1  0  0  0  0  0999 V2000
    9.1455  -14.2864   18.4978 C   0  0  0  0  0  0  0  0  0  0  0  0
    8.9102  -14.2735   19.9930 C   0  0  1  0  0  0  0  0  0  0  0  0
    9.1906  -13.0443   20.5077 O   0  0  0  0  0  0  0  0  0  0  0  0
    7.5320  -14.7805   20.2495 C   0  0  2  0  0  0  0  0  0  0  0  0
    6.5116  -14.0018   19.5765 N   0  0  0  0  0  0  0  0  0  0  0  0
    7.1432  -15.0113   21.6235 C   0  0  0  0  0  0  0  0  0  0  0  0
    6.3873  -14.1671   22.1700 O   0  0  0  0  0  0  0  0  0  0  0  0
    7.5341  -16.1119   22.4359 N   0  0  0  0  0  0  0  0  0  0  0  0
    7.1253  -16.2103   23.7996 C   0  0  1  0  0  0  0  0  0  0  0  0
    7.1097  -17.5701   24.3910 C   0  0  0  0  0  0  0  0  0  0  0  0
    6.3176  -18.6013   23.6484 C   0  0  0  0  0  0  0  0  0  0  0  0
    6.5090  -19.8834   24.3745 C   0  0  0  0  0  0  0  0  0  0  0  0
    5.6129  -20.7698   24.4187 O   0  0  0  0  0  0  0  0  0  0  0  0
    7.9562  -15.3382   24.6958 C   0  0  0  0  0  0  0  0  0  0  0  0
    9.1861  -15.2504   24.4634 O   0  0  0  0  0  0  0  0  0  0  0  0
    7.7213  -20.0894   25.0167 O   0  0  0  0  0  0  0  0  0  0  0  0
    7.2275  -11.6353   25.8193 C   0  0  0  0  0  0  0  0  0  0  0  0
    7.4126  -12.5674   26.9975 C   0  0  1  0  0  0  0  0  0  0  0  0
    6.1507  -12.9875   27.4134 O   0  0  0  0  0  0  0  0  0  0  0  0
    8.2122  -13.7701   26.6233 C   0  0  2  0  0  0  0  0  0  0  0  0
    7.4121  -14.6259   25.7748 N   0  0  0  0  0  0  0  0  0  0  0  0
    8.7010  -14.5197   27.8111 C   0  0  0  0  0  0  0  0  0  0  0  0
    9.5236  -13.8960   28.7253 O   0  0  0  0  0  0  0  0  0  0  0  0
    8.3698  -15.7154   27.9863 O   0  0  0  0  0  0  0  0  0  0  0  0
  2  1  1  6
  2  3  1  0
  2  4  1  0
  4  5  1  1
  6  7  2  0
  6  4  1  0
  8  6  1  0
  9  8  1  0
  9 14  1  0
  9 10  1  1
 11 10  1  0
 12 11  1  0
 13 12  2  0
 14 21  1  0
 15 14  2  0
 16 12  1  0
 18 17  1  6
 18 20  1  0
 18 19  1  0
 20 22  1  0
 20 21  1  6
 22 24  2  0
 22 23  1  0
M  END
$$$$
