TET.pdb
     RDKit          3D

 24 23  0  0  1  0  0  0  0  0999 V2000
    8.7452  -12.1333   18.5493 C   0  0  0  0  0  0  0  0  0  0  0  0
    8.0883  -13.2281   17.7361 C   0  0  1  0  0  0  0  0  0  0  0  0
    7.3513  -12.6916   16.7244 O   0  0  0  0  0  0  0  0  0  0  0  0
    9.1448  -14.1946   17.3215 C   0  0  2  0  0  0  0  0  0  0  0  0
    8.6557  -15.2031   16.4027 N   0  0  0  0  0  0  0  0  0  0  0  0
    9.9309  -14.8214   18.3615 C   0  0  0  0  0  0  0  0  0  0  0  0
    9.4622  -15.8507   18.9127 O   0  0  0  0  0  0  0  0  0  0  0  0
   11.2003  -14.3874   18.8352 N   0  0  0  0  0  0  0  0  0  0  0  0
   11.8635  -15.0603   19.9046 C   0  0  1  0  0  0  0  0  0  0  0  0
   13.3237  -14.8331   20.0273 C   0  0  0  0  0  0  0  0  0  0  0  0
   14.0150  -15.5776   21.1274 C   0  0  0  0  0  0  0  0  0  0  0  0
   15.4501  -15.1994   21.0553 C   0  0  0  0  0  0  0  0  0  0  0  0
   16.1618  -15.4561   20.0463 O   0  0  0  0  0  0  0  0  0  0  0  0
   11.2441  -14.7411   21.2345 C   0  0  0  0  0  0  0  0  0  0  0  0
   11.4561  -13.6083   21.7307 O   0  0  0  0  0  0  0  0  0  0  0  0
   16.0026  -14.5430   22.1454 O   0  0  0  0  0  0  0  0  0  0  0  0
    7.8696  -14.2521   22.1907 C   0  0  0  0  0  0  0  0  0  0  0  0
    8.3647  -15.3681   23.0853 C   0  0  1  0  0  0  0  0  0  0  0  0
    7.9916  -16.5790   22.5055 O   0  0  0  0  0  0  0  0  0  0  0  0
    9.8506  -15.3448   23.2178 C   0  0  2  0  0  0  0  0  0  0  0  0
   10.4455  -15.6561   21.9366 N   0  0  0  0  0  0  0  0  0  0  0  0
   10.3426  -16.2796   24.2646 C   0  0  0  0  0  0  0  0  0  0  0  0
    9.9951  -16.0772   25.5835 O   0  0  0  0  0  0  0  0  0  0  0  0
   11.0715  -17.2507   23.9551 O   0  0  0  0  0  0  0  0  0  0  0  0
  2  1  1  6
  2  3  1  0
  2  4  1  0
  4  5  1  1
  6  7  2  0
  6  4  1  0
  8  6  1  0
  9  8  1  0
  9 14  1  0
  9 10  1  1
 11 10  1  0
 12 11  1  0
 13 12  2  0
 14 21  1  0
 15 14  2  0
 16 12  1  0
 18 17  1  6
 18 20  1  0
 18 19  1  0
 20 22  1  0
 20 21  1  6
 22 24  2  0
 22 23  1  0
M  END
$$$$
