TET.pdb
     RDKit          3D

 24 23  0  0  1  0  0  0  0  0999 V2000
    8.2145  -12.7301   18.5565 C   0  0  0  0  0  0  0  0  0  0  0  0
    8.4085  -13.1755   19.9902 C   0  0  1  0  0  0  0  0  0  0  0  0
    7.8333  -12.2861   20.8461 O   0  0  0  0  0  0  0  0  0  0  0  0
    7.9315  -14.5829   20.1066 C   0  0  2  0  0  0  0  0  0  0  0  0
    6.5833  -14.7634   19.6061 N   0  0  0  0  0  0  0  0  0  0  0  0
    8.0678  -15.2372   21.3895 C   0  0  0  0  0  0  0  0  0  0  0  0
    7.0374  -15.3548   22.1015 O   0  0  0  0  0  0  0  0  0  0  0  0
    9.2666  -15.7700   21.9400 N   0  0  0  0  0  0  0  0  0  0  0  0
    9.3018  -16.3081   23.2612 C   0  0  1  0  0  0  0  0  0  0  0  0
   10.3328  -17.3394   23.5303 C   0  0  0  0  0  0  0  0  0  0  0  0
   10.3575  -17.8980   24.9194 C   0  0  0  0  0  0  0  0  0  0  0  0
   11.4584  -18.8952   24.9533 C   0  0  0  0  0  0  0  0  0  0  0  0
   11.3708  -19.9696   25.6081 O   0  0  0  0  0  0  0  0  0  0  0  0
    9.4580  -15.2332   24.2978 C   0  0  0  0  0  0  0  0  0  0  0  0
   10.4418  -14.4600   24.2066 O   0  0  0  0  0  0  0  0  0  0  0  0
   12.6101  -18.6135   24.2331 O   0  0  0  0  0  0  0  0  0  0  0  0
    7.1859  -12.3947   25.1593 C   0  0  0  0  0  0  0  0  0  0  0  0
    7.3964  -13.2438   26.3946 C   0  0  1  0  0  0  0  0  0  0  0  0
    6.3481  -14.1588   26.4689 O   0  0  0  0  0  0  0  0  0  0  0  0
    8.6807  -14.0000   26.3263 C   0  0  2  0  0  0  0  0  0  0  0  0
    8.5525  -15.0651   25.3559 N   0  0  0  0  0  0  0  0  0  0  0  0
    9.0915  -14.5430   27.6485 C   0  0  0  0  0  0  0  0  0  0  0  0
    9.2323  -15.9042   27.8175 O   0  0  0  0  0  0  0  0  0  0  0  0
    9.3106  -13.7706   28.6104 O   0  0  0  0  0  0  0  0  0  0  0  0
  2  1  1  6
  2  3  1  0
  2  4  1  0
  4  5  1  1
  6  7  2  0
  6  4  1  0
  8  6  1  0
  9  8  1  0
  9 14  1  0
  9 10  1  6
 11 10  1  0
 12 11  1  0
 13 12  2  0
 14 21  1  0
 15 14  2  0
 16 12  1  0
 18 17  1  6
 18 20  1  0
 18 19  1  0
 20 22  1  0
 20 21  1  6
 22 24  2  0
 22 23  1  0
M  END
$$$$
