TET.pdb
     RDKit          3D

 24 23  0  0  1  0  0  0  0  0999 V2000
   14.7833  -16.4085   16.0460 C   0  0  0  0  0  0  0  0  0  0  0  0
   13.9500  -16.3672   17.3090 C   0  0  1  0  0  0  0  0  0  0  0  0
   14.5309  -17.1166   18.2864 O   0  0  0  0  0  0  0  0  0  0  0  0
   13.7022  -14.9383   17.6540 C   0  0  2  0  0  0  0  0  0  0  0  0
   14.9245  -14.1698   17.7805 N   0  0  0  0  0  0  0  0  0  0  0  0
   12.8300  -14.6562   18.7730 C   0  0  0  0  0  0  0  0  0  0  0  0
   13.3567  -14.2493   19.8405 O   0  0  0  0  0  0  0  0  0  0  0  0
   11.4142  -14.7943   18.7929 N   0  0  0  0  0  0  0  0  0  0  0  0
   10.6597  -14.5374   19.9767 C   0  0  1  0  0  0  0  0  0  0  0  0
    9.2559  -14.0991   19.7867 C   0  0  0  0  0  0  0  0  0  0  0  0
    9.0518  -12.9156   18.8922 C   0  0  0  0  0  0  0  0  0  0  0  0
    7.9023  -13.2467   18.0109 C   0  0  0  0  0  0  0  0  0  0  0  0
    6.8632  -13.8126   18.4475 O   0  0  0  0  0  0  0  0  0  0  0  0
   10.6410  -15.7248   20.8953 C   0  0  0  0  0  0  0  0  0  0  0  0
   10.2015  -16.8123   20.4498 O   0  0  0  0  0  0  0  0  0  0  0  0
    7.9982  -12.9123   16.6679 O   0  0  0  0  0  0  0  0  0  0  0  0
   13.3718  -17.4848   22.3549 C   0  0  0  0  0  0  0  0  0  0  0  0
   12.4976  -17.0948   23.5273 C   0  0  1  0  0  0  0  0  0  0  0  0
   13.0273  -15.9349   24.0892 O   0  0  0  0  0  0  0  0  0  0  0  0
   11.0970  -16.8148   23.0962 C   0  0  2  0  0  0  0  0  0  0  0  0
   11.0916  -15.6621   22.2223 N   0  0  0  0  0  0  0  0  0  0  0  0
   10.1794  -16.6035   24.2473 C   0  0  0  0  0  0  0  0  0  0  0  0
    9.9202  -17.6411   25.1176 O   0  0  0  0  0  0  0  0  0  0  0  0
    9.6402  -15.4875   24.4313 O   0  0  0  0  0  0  0  0  0  0  0  0
  2  1  1  6
  2  3  1  0
  2  4  1  0
  4  5  1  1
  6  7  2  0
  6  4  1  0
  8  6  1  0
  9  8  1  0
  9 14  1  0
  9 10  1  6
 11 10  1  0
 12 11  1  0
 13 12  2  0
 14 21  1  0
 15 14  2  0
 16 12  1  0
 18 17  1  6
 18 20  1  0
 18 19  1  0
 20 22  1  0
 20 21  1  6
 22 24  2  0
 22 23  1  0
M  END
$$$$
