TET.pdb
     RDKit          3D

 24 23  0  0  1  0  0  0  0  0999 V2000
    8.5643  -12.3963   20.1978 C   0  0  0  0  0  0  0  0  0  0  0  0
    7.8382  -13.2854   19.2111 C   0  0  1  0  0  0  0  0  0  0  0  0
    8.0725  -12.8702   17.9355 O   0  0  0  0  0  0  0  0  0  0  0  0
    8.2041  -14.7001   19.5059 C   0  0  2  0  0  0  0  0  0  0  0  0
    7.6080  -15.6405   18.5781 N   0  0  0  0  0  0  0  0  0  0  0  0
    8.0286  -15.1735   20.8614 C   0  0  0  0  0  0  0  0  0  0  0  0
    6.9124  -15.6628   21.1731 O   0  0  0  0  0  0  0  0  0  0  0  0
    9.0034  -15.1419   21.8973 N   0  0  0  0  0  0  0  0  0  0  0  0
    8.7580  -15.7468   23.1663 C   0  0  1  0  0  0  0  0  0  0  0  0
    9.5490  -16.9592   23.4875 C   0  0  0  0  0  0  0  0  0  0  0  0
   10.7749  -17.1836   22.6573 C   0  0  0  0  0  0  0  0  0  0  0  0
   11.3672  -18.4660   23.1183 C   0  0  0  0  0  0  0  0  0  0  0  0
   11.3572  -19.5050   22.4035 O   0  0  0  0  0  0  0  0  0  0  0  0
    8.9460  -14.7737   24.2942 C   0  0  0  0  0  0  0  0  0  0  0  0
    9.9296  -13.9961   24.2486 O   0  0  0  0  0  0  0  0  0  0  0  0
   11.9445  -18.4967   24.3793 O   0  0  0  0  0  0  0  0  0  0  0  0
    6.4395  -12.1652   25.5318 C   0  0  0  0  0  0  0  0  0  0  0  0
    6.8475  -13.0871   26.6608 C   0  0  1  0  0  0  0  0  0  0  0  0
    5.9068  -14.1122   26.7377 O   0  0  0  0  0  0  0  0  0  0  0  0
    8.1886  -13.6929   26.4150 C   0  0  2  0  0  0  0  0  0  0  0  0
    8.0705  -14.7047   25.3880 N   0  0  0  0  0  0  0  0  0  0  0  0
    8.7878  -14.2670   27.6492 C   0  0  0  0  0  0  0  0  0  0  0  0
    8.9969  -13.4619   28.7489 O   0  0  0  0  0  0  0  0  0  0  0  0
    9.1040  -15.4785   27.6957 O   0  0  0  0  0  0  0  0  0  0  0  0
  2  1  1  1
  2  3  1  0
  2  4  1  0
  4  5  1  6
  6  7  2  0
  6  4  1  0
  8  6  1  0
  9  8  1  0
  9 14  1  0
  9 10  1  1
 11 10  1  0
 12 11  1  0
 13 12  2  0
 14 21  1  0
 15 14  2  0
 16 12  1  0
 18 17  1  6
 18 20  1  0
 18 19  1  0
 20 22  1  0
 20 21  1  6
 22 24  2  0
 22 23  1  0
M  END
$$$$
