TET.pdb
     RDKit          3D

 24 23  0  0  1  0  0  0  0  0999 V2000
    8.5547  -12.4446   20.1845 C   0  0  0  0  0  0  0  0  0  0  0  0
    7.8286  -13.3763   19.2379 C   0  0  1  0  0  0  0  0  0  0  0  0
    7.9566  -12.9431   17.9532 O   0  0  0  0  0  0  0  0  0  0  0  0
    8.3031  -14.7650   19.5000 C   0  0  2  0  0  0  0  0  0  0  0  0
    7.8024  -15.7225   18.5341 N   0  0  0  0  0  0  0  0  0  0  0  0
    8.1423  -15.2913   20.8378 C   0  0  0  0  0  0  0  0  0  0  0  0
    7.0562  -15.8607   21.1186 O   0  0  0  0  0  0  0  0  0  0  0  0
    9.1004  -15.2300   21.8877 N   0  0  0  0  0  0  0  0  0  0  0  0
    8.8443  -15.8195   23.1618 C   0  0  1  0  0  0  0  0  0  0  0  0
    9.6253  -17.0338   23.5001 C   0  0  0  0  0  0  0  0  0  0  0  0
   11.1055  -16.9430   23.2918 C   0  0  0  0  0  0  0  0  0  0  0  0
   11.6646  -18.2706   23.6559 C   0  0  0  0  0  0  0  0  0  0  0  0
   11.2760  -19.3364   23.1048 O   0  0  0  0  0  0  0  0  0  0  0  0
    9.0333  -14.8357   24.2802 C   0  0  0  0  0  0  0  0  0  0  0  0
   10.0702  -14.1293   24.2795 O   0  0  0  0  0  0  0  0  0  0  0  0
   12.6452  -18.3138   24.6362 O   0  0  0  0  0  0  0  0  0  0  0  0
    6.7666  -11.9690   25.5523 C   0  0  0  0  0  0  0  0  0  0  0  0
    7.0171  -12.9994   26.6324 C   0  0  1  0  0  0  0  0  0  0  0  0
    5.9651  -13.9127   26.6051 O   0  0  0  0  0  0  0  0  0  0  0  0
    8.2918  -13.7386   26.3983 C   0  0  2  0  0  0  0  0  0  0  0  0
    8.1015  -14.6807   25.3173 N   0  0  0  0  0  0  0  0  0  0  0  0
    8.7780  -14.4341   27.6196 C   0  0  0  0  0  0  0  0  0  0  0  0
    8.9996  -15.7948   27.5920 O   0  0  0  0  0  0  0  0  0  0  0  0
    8.9877  -13.7908   28.6742 O   0  0  0  0  0  0  0  0  0  0  0  0
  2  1  1  1
  2  3  1  0
  2  4  1  0
  4  5  1  6
  6  7  2  0
  6  4  1  0
  8  6  1  0
  9  8  1  0
  9 14  1  0
  9 10  1  1
 11 10  1  0
 12 11  1  0
 13 12  2  0
 14 21  1  0
 15 14  2  0
 16 12  1  0
 18 17  1  6
 18 20  1  0
 18 19  1  0
 20 22  1  0
 20 21  1  6
 22 24  2  0
 22 23  1  0
M  END
$$$$
