VFR.pdb
     RDKit          3D

 30 30  0  0  1  0  0  0  0  0999 V2000
    5.6907  -18.1492   21.1204 C   0  0  0  0  0  0  0  0  0  0  0  0
    6.8924  -17.5976   21.8313 C   0  0  1  0  0  0  0  0  0  0  0  0
    8.1999  -17.8761   21.1866 C   0  0  0  0  0  0  0  0  0  0  0  0
    6.6409  -16.1333   22.1003 C   0  0  2  0  0  0  0  0  0  0  0  0
    6.5659  -15.5149   20.7597 N   0  0  0  0  0  0  0  0  0  0  0  0
    7.7205  -15.4522   22.8222 C   0  0  0  0  0  0  0  0  0  0  0  0
    8.6258  -14.7984   22.1935 O   0  0  0  0  0  0  0  0  0  0  0  0
    7.8625  -15.4502   24.2404 N   0  0  0  0  0  0  0  0  0  0  0  0
    8.9929  -14.8091   24.9078 C   0  0  1  0  0  0  0  0  0  0  0  0
    8.5924  -14.2812   26.2608 C   0  0  0  0  0  0  0  0  0  0  0  0
    7.7679  -13.0756   26.1978 C   0  0  0  0  0  0  0  0  0  0  0  0
    8.2490  -11.9182   25.6372 C   0  0  0  0  0  0  0  0  0  0  0  0
    7.4415  -10.7806   25.5902 C   0  0  0  0  0  0  0  0  0  0  0  0
    6.1615  -10.7922   26.0978 C   0  0  0  0  0  0  0  0  0  0  0  0
    5.6646  -11.9405   26.6616 C   0  0  0  0  0  0  0  0  0  0  0  0
    6.4767  -13.0495   26.6975 C   0  0  0  0  0  0  0  0  0  0  0  0
   10.1294  -15.7150   24.9886 C   0  0  0  0  0  0  0  0  0  0  0  0
   11.2322  -15.3999   25.5573 O   0  0  0  0  0  0  0  0  0  0  0  0
   11.3403  -22.7872   26.2807 N   0  0  0  0  0  0  0  0  0  0  0  0
   12.3204  -23.1239   25.2908 C   0  0  0  0  0  0  0  0  0  0  0  0
   13.3560  -23.8049   25.6214 N   0  0  0  0  0  0  0  0  0  0  0  0
   12.1307  -22.6972   23.9585 N   0  0  0  0  0  0  0  0  0  0  0  0
   11.1796  -21.6537   23.6611 C   0  0  0  0  0  0  0  0  0  0  0  0
   11.7870  -20.3309   24.0603 C   0  0  0  0  0  0  0  0  0  0  0  0
   10.7242  -19.2974   24.1643 C   0  0  0  0  0  0  0  0  0  0  0  0
   11.2497  -17.9271   24.5568 C   0  0  2  0  0  0  0  0  0  0  0  0
   10.0837  -17.0302   24.4352 N   0  0  0  0  0  0  0  0  0  0  0  0
   12.2676  -17.4588   23.6024 C   0  0  0  0  0  0  0  0  0  0  0  0
   13.4304  -17.9297   23.5618 O   0  0  0  0  0  0  0  0  0  0  0  0
   11.9757  -16.4617   22.6931 O   0  0  0  0  0  0  0  0  0  0  0  0
  2  1  1  6
  3  2  1  0
  4  2  1  0
  4  5  1  6
  6  4  1  0
  7  6  2  0
  8  6  1  0
  9  8  1  0
 10 11  1  0
  9 10  1  1
 11 12  2  0
 12 13  1  0
 14 13  2  0
 15 14  1  0
 16 11  1  0
 16 15  2  0
 17  9  1  0
 17 27  1  0
 18 17  2  0
 19 20  1  0
 20 22  1  0
 21 20  2  0
 22 23  1  0
 23 24  1  0
 24 25  1  0
 26 25  1  6
 26 27  1  0
 26 28  1  0
 28 30  1  0
 29 28  2  0
M  END
$$$$
