VFR.pdb
     RDKit          3D

 30 30  0  0  1  0  0  0  0  0999 V2000
    6.1875  -14.3345   17.7037 C   0  0  0  0  0  0  0  0  0  0  0  0
    6.9197  -14.6826   18.9672 C   0  0  1  0  0  0  0  0  0  0  0  0
    8.1300  -15.5240   18.7931 C   0  0  0  0  0  0  0  0  0  0  0  0
    7.1674  -13.4020   19.7279 C   0  0  2  0  0  0  0  0  0  0  0  0
    8.1341  -12.6545   18.8959 N   0  0  0  0  0  0  0  0  0  0  0  0
    7.7911  -13.5850   21.0424 C   0  0  0  0  0  0  0  0  0  0  0  0
    9.0593  -13.7281   21.1579 O   0  0  0  0  0  0  0  0  0  0  0  0
    7.0745  -13.6196   22.2741 N   0  0  0  0  0  0  0  0  0  0  0  0
    7.7437  -13.8147   23.5579 C   0  0  1  0  0  0  0  0  0  0  0  0
    6.8314  -13.4569   24.7022 C   0  0  0  0  0  0  0  0  0  0  0  0
    7.4924  -13.4787   26.0060 C   0  0  0  0  0  0  0  0  0  0  0  0
    8.0137  -12.3326   26.5539 C   0  0  0  0  0  0  0  0  0  0  0  0
    8.6406  -12.3808   27.8002 C   0  0  0  0  0  0  0  0  0  0  0  0
    8.7493  -13.5620   28.4995 C   0  0  0  0  0  0  0  0  0  0  0  0
    8.2338  -14.7168   27.9667 C   0  0  0  0  0  0  0  0  0  0  0  0
    7.6205  -14.6470   26.7381 C   0  0  0  0  0  0  0  0  0  0  0  0
    8.2597  -15.1709   23.6732 C   0  0  0  0  0  0  0  0  0  0  0  0
    7.5699  -16.2066   23.3724 O   0  0  0  0  0  0  0  0  0  0  0  0
   14.1742  -20.4211   23.9887 N   0  0  0  0  0  0  0  0  0  0  0  0
   14.4257  -20.1107   22.6124 C   0  0  0  0  0  0  0  0  0  0  0  0
   15.5678  -20.3802   22.0940 N   0  0  0  0  0  0  0  0  0  0  0  0
   13.4068  -19.5079   21.8434 N   0  0  0  0  0  0  0  0  0  0  0  0
   13.0110  -18.1456   22.1067 C   0  0  0  0  0  0  0  0  0  0  0  0
   11.9551  -18.1587   23.1849 C   0  0  0  0  0  0  0  0  0  0  0  0
   11.1846  -16.8883   23.1537 C   0  0  0  0  0  0  0  0  0  0  0  0
   10.0850  -16.8221   24.1997 C   0  0  2  0  0  0  0  0  0  0  0  0
    9.5861  -15.4346   24.1310 N   0  0  0  0  0  0  0  0  0  0  0  0
   10.6292  -17.0284   25.5516 C   0  0  0  0  0  0  0  0  0  0  0  0
   10.8678  -16.0822   26.3410 O   0  0  0  0  0  0  0  0  0  0  0  0
   10.9033  -18.2998   26.0148 O   0  0  0  0  0  0  0  0  0  0  0  0
  2  1  1  6
  3  2  1  0
  4  2  1  0
  4  5  1  6
  6  4  1  0
  7  6  2  0
  8  6  1  0
  9  8  1  0
 10 11  1  0
  9 10  1  1
 11 12  2  0
 12 13  1  0
 14 13  2  0
 15 14  1  0
 16 11  1  0
 16 15  2  0
 17  9  1  0
 17 27  1  0
 18 17  2  0
 19 20  1  0
 20 22  1  0
 21 20  2  0
 22 23  1  0
 23 24  1  0
 24 25  1  0
 26 25  1  6
 26 27  1  0
 26 28  1  0
 28 30  1  0
 29 28  2  0
M  END
$$$$
