VFR.pdb
     RDKit          3D

 30 30  0  0  1  0  0  0  0  0999 V2000
    7.8302  -18.2377   20.9236 C   0  0  0  0  0  0  0  0  0  0  0  0
    8.7316  -17.7183   19.8412 C   0  0  1  0  0  0  0  0  0  0  0  0
    8.4778  -18.2609   18.4832 C   0  0  0  0  0  0  0  0  0  0  0  0
    8.7193  -16.2101   19.9111 C   0  0  2  0  0  0  0  0  0  0  0  0
    9.8835  -15.7895   19.1027 N   0  0  0  0  0  0  0  0  0  0  0  0
    8.9160  -15.6607   21.2564 C   0  0  0  0  0  0  0  0  0  0  0  0
   10.0508  -15.7463   21.8457 O   0  0  0  0  0  0  0  0  0  0  0  0
    7.9025  -15.0019   22.0115 N   0  0  0  0  0  0  0  0  0  0  0  0
    8.1478  -14.4806   23.3540 C   0  0  1  0  0  0  0  0  0  0  0  0
    7.0673  -13.5141   23.7637 C   0  0  0  0  0  0  0  0  0  0  0  0
    7.1917  -13.0484   25.1439 C   0  0  0  0  0  0  0  0  0  0  0  0
    8.1638  -12.1470   25.5014 C   0  0  0  0  0  0  0  0  0  0  0  0
    8.2615  -11.7191   26.8265 C   0  0  0  0  0  0  0  0  0  0  0  0
    7.3975  -12.1842   27.7925 C   0  0  0  0  0  0  0  0  0  0  0  0
    6.4199  -13.0853   27.4526 C   0  0  0  0  0  0  0  0  0  0  0  0
    6.3413  -13.4936   26.1420 C   0  0  0  0  0  0  0  0  0  0  0  0
    8.3027  -15.5659   24.3116 C   0  0  0  0  0  0  0  0  0  0  0  0
    7.3990  -16.4495   24.5153 O   0  0  0  0  0  0  0  0  0  0  0  0
   12.8660  -17.6594   21.6743 N   0  0  0  0  0  0  0  0  0  0  0  0
   12.2430  -18.9369   21.4910 C   0  0  0  0  0  0  0  0  0  0  0  0
   12.2361  -19.4850   20.3312 N   0  0  0  0  0  0  0  0  0  0  0  0
   11.6414  -19.5764   22.5965 N   0  0  0  0  0  0  0  0  0  0  0  0
   11.8270  -19.0495   23.9268 C   0  0  0  0  0  0  0  0  0  0  0  0
   10.5925  -18.2671   24.3032 C   0  0  0  0  0  0  0  0  0  0  0  0
   10.7835  -17.6296   25.6320 C   0  0  0  0  0  0  0  0  0  0  0  0
    9.5905  -16.8048   26.0841 C   0  0  2  0  0  0  0  0  0  0  0  0
    9.4892  -15.7175   25.0911 N   0  0  0  0  0  0  0  0  0  0  0  0
    9.8442  -16.1834   27.3940 C   0  0  0  0  0  0  0  0  0  0  0  0
   10.1583  -14.9753   27.5248 O   0  0  0  0  0  0  0  0  0  0  0  0
    9.7428  -16.9219   28.5562 O   0  0  0  0  0  0  0  0  0  0  0  0
  2  1  1  1
  3  2  1  0
  4  2  1  0
  4  5  1  6
  6  4  1  0
  7  6  2  0
  8  6  1  0
  9  8  1  0
 10 11  1  0
  9 10  1  1
 11 12  2  0
 12 13  1  0
 14 13  2  0
 15 14  1  0
 16 11  1  0
 16 15  2  0
 17  9  1  0
 17 27  1  0
 18 17  2  0
 19 20  1  0
 20 22  1  0
 21 20  2  0
 22 23  1  0
 23 24  1  0
 24 25  1  0
 26 25  1  6
 26 27  1  0
 26 28  1  0
 28 30  1  0
 29 28  2  0
M  END
$$$$
