VFR.pdb
     RDKit          3D

 30 30  0  0  1  0  0  0  0  0999 V2000
    9.0557  -12.4894   20.2952 C   0  0  0  0  0  0  0  0  0  0  0  0
    7.8210  -13.3202   20.0982 C   0  0  1  0  0  0  0  0  0  0  0  0
    7.1984  -13.2305   18.7538 C   0  0  0  0  0  0  0  0  0  0  0  0
    8.1360  -14.7308   20.5351 C   0  0  2  0  0  0  0  0  0  0  0  0
    6.8654  -15.4670   20.3644 N   0  0  0  0  0  0  0  0  0  0  0  0
    8.5160  -14.8613   21.9455 C   0  0  0  0  0  0  0  0  0  0  0  0
    9.6874  -14.5318   22.3474 O   0  0  0  0  0  0  0  0  0  0  0  0
    7.6517  -15.3483   22.9688 N   0  0  0  0  0  0  0  0  0  0  0  0
    8.1172  -15.5824   24.3336 C   0  0  1  0  0  0  0  0  0  0  0  0
    7.0144  -15.3358   25.3300 C   0  0  0  0  0  0  0  0  0  0  0  0
    6.9216  -13.9439   25.7672 C   0  0  0  0  0  0  0  0  0  0  0  0
    5.7311  -13.4176   26.2043 C   0  0  0  0  0  0  0  0  0  0  0  0
    5.6693  -12.0852   26.6156 C   0  0  0  0  0  0  0  0  0  0  0  0
    6.7851  -11.2786   26.5930 C   0  0  0  0  0  0  0  0  0  0  0  0
    7.9831  -11.7883   26.1592 C   0  0  0  0  0  0  0  0  0  0  0  0
    8.0218  -13.1030   25.7586 C   0  0  0  0  0  0  0  0  0  0  0  0
    8.6860  -16.9158   24.4662 C   0  0  0  0  0  0  0  0  0  0  0  0
    8.1836  -17.9471   23.8981 O   0  0  0  0  0  0  0  0  0  0  0  0
   12.7929  -18.9950   18.7014 N   0  0  0  0  0  0  0  0  0  0  0  0
   13.7929  -18.5205   19.6116 C   0  0  0  0  0  0  0  0  0  0  0  0
   14.9488  -18.1799   19.1716 N   0  0  0  0  0  0  0  0  0  0  0  0
   13.4894  -18.4356   20.9877 N   0  0  0  0  0  0  0  0  0  0  0  0
   12.2317  -18.9395   21.4840 C   0  0  0  0  0  0  0  0  0  0  0  0
   12.2708  -18.9087   22.9924 C   0  0  0  0  0  0  0  0  0  0  0  0
   11.2663  -17.9407   23.5046 C   0  0  0  0  0  0  0  0  0  0  0  0
   10.7604  -18.2744   24.8977 C   0  0  2  0  0  0  0  0  0  0  0  0
    9.8575  -17.1596   25.2450 N   0  0  0  0  0  0  0  0  0  0  0  0
   11.8617  -18.2704   25.8742 C   0  0  0  0  0  0  0  0  0  0  0  0
   12.2792  -19.3137   26.4334 O   0  0  0  0  0  0  0  0  0  0  0  0
   12.4934  -17.0924   26.2196 O   0  0  0  0  0  0  0  0  0  0  0  0
  2  1  1  6
  3  2  1  0
  4  2  1  0
  4  5  1  1
  6  4  1  0
  7  6  2  0
  8  6  1  0
  9  8  1  0
 10 11  1  0
  9 10  1  1
 11 12  2  0
 12 13  1  0
 14 13  2  0
 15 14  1  0
 16 11  1  0
 16 15  2  0
 17  9  1  0
 17 27  1  0
 18 17  2  0
 19 20  1  0
 20 22  1  0
 21 20  2  0
 22 23  1  0
 23 24  1  0
 24 25  1  0
 26 25  1  6
 26 27  1  0
 26 28  1  0
 28 30  1  0
 29 28  2  0
M  END
$$$$
