VFR.pdb
     RDKit          3D

 30 30  0  0  1  0  0  0  0  0999 V2000
    7.5609  -20.8082   24.6978 C   0  0  0  0  0  0  0  0  0  0  0  0
    6.5961  -20.8553   23.5486 C   0  0  1  0  0  0  0  0  0  0  0  0
    5.9836  -22.1808   23.2825 C   0  0  0  0  0  0  0  0  0  0  0  0
    5.5926  -19.7433   23.7392 C   0  0  2  0  0  0  0  0  0  0  0  0
    4.7896  -19.7483   22.4979 N   0  0  0  0  0  0  0  0  0  0  0  0
    6.1810  -18.4054   23.8587 C   0  0  0  0  0  0  0  0  0  0  0  0
    6.8305  -17.8800   22.8869 O   0  0  0  0  0  0  0  0  0  0  0  0
    6.0905  -17.5888   25.0234 N   0  0  0  0  0  0  0  0  0  0  0  0
    6.7874  -16.3096   25.1323 C   0  0  1  0  0  0  0  0  0  0  0  0
    6.1833  -15.4562   26.2170 C   0  0  0  0  0  0  0  0  0  0  0  0
    6.7283  -14.1006   26.2666 C   0  0  0  0  0  0  0  0  0  0  0  0
    7.5614  -13.7100   27.2858 C   0  0  0  0  0  0  0  0  0  0  0  0
    8.0676  -12.4094   27.3100 C   0  0  0  0  0  0  0  0  0  0  0  0
    7.7479  -11.5004   26.3263 C   0  0  0  0  0  0  0  0  0  0  0  0
    6.9167  -11.8739   25.3003 C   0  0  0  0  0  0  0  0  0  0  0  0
    6.4293  -13.1596   25.2956 C   0  0  0  0  0  0  0  0  0  0  0  0
    8.2157  -16.5118   25.3273 C   0  0  0  0  0  0  0  0  0  0  0  0
    8.6973  -17.1797   26.3075 O   0  0  0  0  0  0  0  0  0  0  0  0
   13.1577  -21.2132   26.4029 N   0  0  0  0  0  0  0  0  0  0  0  0
   14.0449  -20.8840   25.3267 C   0  0  0  0  0  0  0  0  0  0  0  0
   15.2790  -21.2288   25.3866 N   0  0  0  0  0  0  0  0  0  0  0  0
   13.5443  -20.1797   24.2103 N   0  0  0  0  0  0  0  0  0  0  0  0
   12.1691  -19.7435   24.1867 C   0  0  0  0  0  0  0  0  0  0  0  0
   12.1430  -18.2475   24.3849 C   0  0  0  0  0  0  0  0  0  0  0  0
   10.7379  -17.7636   24.3964 C   0  0  0  0  0  0  0  0  0  0  0  0
   10.6164  -16.2648   24.6127 C   0  0  2  0  0  0  0  0  0  0  0  0
    9.1816  -15.9745   24.4236 N   0  0  0  0  0  0  0  0  0  0  0  0
   11.3565  -15.5208   23.5806 C   0  0  0  0  0  0  0  0  0  0  0  0
   12.6101  -15.4706   23.5451 O   0  0  0  0  0  0  0  0  0  0  0  0
   10.6850  -14.8348   22.5882 O   0  0  0  0  0  0  0  0  0  0  0  0
  2  1  1  1
  3  2  1  0
  4  2  1  0
  4  5  1  6
  6  4  1  0
  7  6  2  0
  8  6  1  0
  9  8  1  0
 10 11  1  0
  9 10  1  1
 11 12  2  0
 12 13  1  0
 14 13  2  0
 15 14  1  0
 16 11  1  0
 16 15  2  0
 17  9  1  0
 17 27  1  0
 18 17  2  0
 19 20  1  0
 20 22  1  0
 21 20  2  0
 22 23  1  0
 23 24  1  0
 24 25  1  0
 26 25  1  6
 26 27  1  0
 26 28  1  0
 28 30  1  0
 29 28  2  0
M  END
$$$$
