VFR.pdb
     RDKit          3D

 30 30  0  0  1  0  0  0  0  0999 V2000
    8.0718  -19.0558   21.2251 C   0  0  0  0  0  0  0  0  0  0  0  0
    8.8246  -18.5350   20.0352 C   0  0  1  0  0  0  0  0  0  0  0  0
    8.6131  -19.2802   18.7691 C   0  0  0  0  0  0  0  0  0  0  0  0
    8.5544  -17.0534   19.9271 C   0  0  2  0  0  0  0  0  0  0  0  0
    9.5188  -16.5708   18.9159 N   0  0  0  0  0  0  0  0  0  0  0  0
    8.8129  -16.2956   21.1558 C   0  0  0  0  0  0  0  0  0  0  0  0
    9.9797  -16.2735   21.6853 O   0  0  0  0  0  0  0  0  0  0  0  0
    7.8287  -15.5374   21.8543 N   0  0  0  0  0  0  0  0  0  0  0  0
    8.1127  -14.8801   23.1277 C   0  0  1  0  0  0  0  0  0  0  0  0
    7.0532  -13.8610   23.4573 C   0  0  0  0  0  0  0  0  0  0  0  0
    7.2334  -13.2318   24.7646 C   0  0  0  0  0  0  0  0  0  0  0  0
    6.4241  -13.5589   25.8246 C   0  0  0  0  0  0  0  0  0  0  0  0
    6.6167  -12.9427   27.0622 C   0  0  0  0  0  0  0  0  0  0  0  0
    7.6088  -12.0058   27.2466 C   0  0  0  0  0  0  0  0  0  0  0  0
    8.4268  -11.6672   26.1980 C   0  0  0  0  0  0  0  0  0  0  0  0
    8.2198  -12.2860   24.9878 C   0  0  0  0  0  0  0  0  0  0  0  0
    8.2791  -15.8597   24.1914 C   0  0  0  0  0  0  0  0  0  0  0  0
    7.3516  -16.6679   24.5456 O   0  0  0  0  0  0  0  0  0  0  0  0
   13.6006  -17.6699   21.9367 N   0  0  0  0  0  0  0  0  0  0  0  0
   12.7893  -18.8269   21.6985 C   0  0  0  0  0  0  0  0  0  0  0  0
   12.4763  -19.1528   20.4978 N   0  0  0  0  0  0  0  0  0  0  0  0
   12.3426  -19.5946   22.7958 N   0  0  0  0  0  0  0  0  0  0  0  0
   12.3275  -19.0233   24.1206 C   0  0  0  0  0  0  0  0  0  0  0  0
   10.9899  -18.3577   24.3344 C   0  0  0  0  0  0  0  0  0  0  0  0
   10.9599  -17.6994   25.6664 C   0  0  0  0  0  0  0  0  0  0  0  0
    9.6419  -17.0072   25.9694 C   0  0  2  0  0  0  0  0  0  0  0  0
    9.5045  -15.9853   24.9133 N   0  0  0  0  0  0  0  0  0  0  0  0
    9.7003  -16.3022   27.2601 C   0  0  0  0  0  0  0  0  0  0  0  0
    9.8781  -15.0631   27.3514 O   0  0  0  0  0  0  0  0  0  0  0  0
    9.5570  -16.9923   28.4474 O   0  0  0  0  0  0  0  0  0  0  0  0
  2  1  1  1
  3  2  1  0
  4  2  1  0
  4  5  1  6
  6  4  1  0
  7  6  2  0
  8  6  1  0
  9  8  1  0
 10 11  1  0
  9 10  1  1
 11 12  2  0
 12 13  1  0
 14 13  2  0
 15 14  1  0
 16 11  1  0
 16 15  2  0
 17  9  1  0
 17 27  1  0
 18 17  2  0
 19 20  1  0
 20 22  1  0
 21 20  2  0
 22 23  1  0
 23 24  1  0
 24 25  1  0
 26 25  1  6
 26 27  1  0
 26 28  1  0
 28 30  1  0
 29 28  2  0
M  END
$$$$
