IRI.pdb
     RDKit          3D

 28 27  0  0  1  0  0  0  0  0999 V2000
    7.4695  -11.9946   19.0883 C   0  0  0  0  0  0  0  0  0  0  0  0
    7.9773  -13.3925   19.0813 C   0  0  0  0  0  0  0  0  0  0  0  0
    7.7293  -14.1376   20.3760 C   0  0  2  0  0  0  0  0  0  0  0  0
    8.3906  -13.4643   21.5471 C   0  0  0  0  0  0  0  0  0  0  0  0
    8.2796  -15.5513   20.2821 C   0  0  2  0  0  0  0  0  0  0  0  0
    7.5834  -16.3127   19.2587 N   0  0  0  0  0  0  0  0  0  0  0  0
    8.1033  -16.2136   21.6103 C   0  0  0  0  0  0  0  0  0  0  0  0
    6.9711  -16.5160   22.0608 O   0  0  0  0  0  0  0  0  0  0  0  0
    8.6892  -20.5033   20.4710 N   0  0  0  0  0  0  0  0  0  0  0  0
   10.0906  -20.6265   20.1794 C   0  0  0  0  0  0  0  0  0  0  0  0
   10.5047  -20.5889   18.9551 N   0  0  0  0  0  0  0  0  0  0  0  0
   11.0293  -20.7907   21.2398 N   0  0  0  0  0  0  0  0  0  0  0  0
   10.6314  -20.2806   22.5474 C   0  0  0  0  0  0  0  0  0  0  0  0
   10.0560  -18.8956   22.4449 C   0  0  0  0  0  0  0  0  0  0  0  0
    9.6736  -18.4139   23.8119 C   0  0  0  0  0  0  0  0  0  0  0  0
    9.1149  -17.0387   23.7749 C   0  0  2  0  0  0  0  0  0  0  0  0
    9.2519  -16.5110   22.3882 N   0  0  0  0  0  0  0  0  0  0  0  0
    9.7025  -16.0648   24.6940 C   0  0  0  0  0  0  0  0  0  0  0  0
   10.7901  -15.5155   24.4205 O   0  0  0  0  0  0  0  0  0  0  0  0
   11.5016  -20.5920   18.7136 C   0  0  0  0  0  0  0  0  0  0  0  0
    7.1710  -11.9805   26.0692 C   0  0  0  0  0  0  0  0  0  0  0  0
    8.3079  -12.9167   25.8386 C   0  0  2  0  0  0  0  0  0  0  0  0
    8.7325  -13.6558   27.0620 C   0  0  0  0  0  0  0  0  0  0  0  0
    9.3066  -12.6568   28.0917 C   0  0  2  0  0  0  0  0  0  0  0  0
    9.6827  -14.7894   26.8683 N   0  0  0  0  0  0  0  0  0  0  0  0
    9.0699  -15.7082   25.9184 C   0  0  0  0  0  0  0  0  0  0  0  0
   10.1020  -15.5202   28.0651 O   0  0  0  0  0  0  0  0  0  0  0  0
   11.2161  -15.1406   28.8075 O   0  0  0  0  0  0  0  0  0  0  0  0
  1  2  1  0
  3  2  1  0
  3  4  1  1
  5  3  1  0
  5  6  1  6
  7  5  1  0
  8  7  2  0
  9 10  1  0
 10 11  2  0
 12 13  1  0
 12 10  1  0
 13 14  1  0
 14 15  1  0
 16 15  1  6
 16 17  1  0
 17  7  1  0
 18 16  1  0
 18 19  2  0
 21 20  1  0
 21 22  1  0
 22 23  1  1
 24 22  1  0
 24 25  1  6
 25 18  1  0
 26 24  1  0
 27 26  1  0
 28 26  2  0
M  END
$$$$
