IRI.pdb
     RDKit          3D

 28 27  0  0  1  0  0  0  0  0999 V2000
    7.7897  -11.3554   18.7493 C   0  0  0  0  0  0  0  0  0  0  0  0
    7.9202  -12.8313   18.6216 C   0  0  0  0  0  0  0  0  0  0  0  0
    7.8088  -13.5695   19.9390 C   0  0  2  0  0  0  0  0  0  0  0  0
    8.8638  -13.1333   20.9182 C   0  0  0  0  0  0  0  0  0  0  0  0
    7.9699  -15.0646   19.7187 C   0  0  2  0  0  0  0  0  0  0  0  0
    6.9104  -15.5815   18.8690 N   0  0  0  0  0  0  0  0  0  0  0  0
    7.9249  -15.7435   21.0494 C   0  0  0  0  0  0  0  0  0  0  0  0
    6.8549  -15.8866   21.6904 O   0  0  0  0  0  0  0  0  0  0  0  0
   13.5643  -20.0358   25.2861 N   0  0  0  0  0  0  0  0  0  0  0  0
   12.4861  -20.8255   25.8133 C   0  0  0  0  0  0  0  0  0  0  0  0
   12.6774  -21.5771   26.8479 N   0  0  0  0  0  0  0  0  0  0  0  0
   11.2013  -20.7828   25.1969 N   0  0  0  0  0  0  0  0  0  0  0  0
   11.0948  -20.0088   23.9648 C   0  0  0  0  0  0  0  0  0  0  0  0
   10.1387  -18.8591   24.1191 C   0  0  0  0  0  0  0  0  0  0  0  0
    9.9985  -18.1496   22.8062 C   0  0  0  0  0  0  0  0  0  0  0  0
    9.1231  -16.9553   22.9163 C   0  0  2  0  0  0  0  0  0  0  0  0
    9.1298  -16.2432   21.6076 N   0  0  0  0  0  0  0  0  0  0  0  0
    9.4560  -15.9899   23.9630 C   0  0  0  0  0  0  0  0  0  0  0  0
   10.4837  -15.2868   23.8691 O   0  0  0  0  0  0  0  0  0  0  0  0
   11.9328  -22.1582   27.2481 C   0  0  0  0  0  0  0  0  0  0  0  0
    5.8254  -12.6858   25.6382 C   0  0  0  0  0  0  0  0  0  0  0  0
    7.1194  -13.3457   25.3032 C   0  0  2  0  0  0  0  0  0  0  0  0
    7.7360  -14.0716   26.4504 C   0  0  0  0  0  0  0  0  0  0  0  0
    8.0026  -13.0776   27.6031 C   0  0  2  0  0  0  0  0  0  0  0  0
    8.9689  -14.8611   26.1637 N   0  0  0  0  0  0  0  0  0  0  0  0
    8.6362  -15.8141   25.1135 C   0  0  0  0  0  0  0  0  0  0  0  0
    9.5899  -15.5604   27.2896 O   0  0  0  0  0  0  0  0  0  0  0  0
   10.5748  -14.9666   28.0730 O   0  0  0  0  0  0  0  0  0  0  0  0
  1  2  1  0
  3  2  1  0
  3  4  1  1
  5  3  1  0
  5  6  1  6
  7  5  1  0
  8  7  2  0
  9 10  1  0
 10 11  2  0
 12 13  1  0
 12 10  1  0
 13 14  1  0
 14 15  1  0
 16 15  1  6
 16 17  1  0
 17  7  1  0
 18 16  1  0
 18 19  2  0
 21 20  1  0
 21 22  1  0
 22 23  1  1
 24 22  1  0
 24 25  1  6
 25 18  1  0
 26 24  1  0
 27 26  1  0
 28 26  2  0
M  END
$$$$
