IRI.pdb
     RDKit          3D

 28 27  0  0  1  0  0  0  0  0999 V2000
    5.9296  -11.3366   27.9378 C   0  0  0  0  0  0  0  0  0  0  0  0
    5.4136  -12.5410   27.2343 C   0  0  0  0  0  0  0  0  0  0  0  0
    6.4825  -13.3230   26.5003 C   0  0  2  0  0  0  0  0  0  0  0  0
    7.2401  -12.4618   25.5274 C   0  0  0  0  0  0  0  0  0  0  0  0
    5.8543  -14.4646   25.7180 C   0  0  2  0  0  0  0  0  0  0  0  0
    5.1779  -15.3934   26.6076 N   0  0  0  0  0  0  0  0  0  0  0  0
    6.9375  -15.1773   24.9746 C   0  0  0  0  0  0  0  0  0  0  0  0
    7.6357  -16.0737   25.5085 O   0  0  0  0  0  0  0  0  0  0  0  0
    7.9051  -13.9471   16.9721 N   0  0  0  0  0  0  0  0  0  0  0  0
    8.9308  -14.2594   17.9285 C   0  0  0  0  0  0  0  0  0  0  0  0
    9.5431  -13.3098   18.5571 N   0  0  0  0  0  0  0  0  0  0  0  0
    9.2767  -15.6180   18.1873 N   0  0  0  0  0  0  0  0  0  0  0  0
    8.7454  -16.2038   19.4132 C   0  0  0  0  0  0  0  0  0  0  0  0
    9.3548  -15.5713   20.6332 C   0  0  0  0  0  0  0  0  0  0  0  0
    8.2715  -14.9599   21.4697 C   0  0  0  0  0  0  0  0  0  0  0  0
    8.2841  -15.4867   22.8579 C   0  0  2  0  0  0  0  0  0  0  0  0
    7.1857  -14.8304   23.6214 N   0  0  0  0  0  0  0  0  0  0  0  0
    9.5259  -15.3230   23.6126 C   0  0  0  0  0  0  0  0  0  0  0  0
   10.3551  -14.4501   23.2813 O   0  0  0  0  0  0  0  0  0  0  0  0
   10.3066  -13.4931   19.2172 C   0  0  0  0  0  0  0  0  0  0  0  0
    9.7402  -14.0400   28.5334 C   0  0  0  0  0  0  0  0  0  0  0  0
   10.1668  -14.2779   27.1250 C   0  0  2  0  0  0  0  0  0  0  0  0
   10.7128  -15.6449   26.8876 C   0  0  0  0  0  0  0  0  0  0  0  0
   11.9206  -15.8845   27.8212 C   0  0  2  0  0  0  0  0  0  0  0  0
   11.0788  -15.9894   25.4830 N   0  0  0  0  0  0  0  0  0  0  0  0
    9.8362  -16.1382   24.7376 C   0  0  0  0  0  0  0  0  0  0  0  0
   11.9211  -17.1698   25.2837 O   0  0  0  0  0  0  0  0  0  0  0  0
   13.3082  -17.1093   25.3770 O   0  0  0  0  0  0  0  0  0  0  0  0
  1  2  1  0
  3  2  1  0
  3  4  1  6
  5  3  1  0
  5  6  1  1
  7  5  1  0
  8  7  2  0
  9 10  1  0
 10 11  2  0
 12 13  1  0
 12 10  1  0
 13 14  1  0
 14 15  1  0
 16 15  1  6
 16 17  1  0
 17  7  1  0
 18 16  1  0
 18 19  2  0
 21 20  1  0
 21 22  1  0
 22 23  1  6
 24 22  1  0
 24 25  1  6
 25 18  1  0
 26 24  1  0
 27 26  1  0
 28 26  2  0
M  END
$$$$
