IRI.pdb
     RDKit          3D

 28 27  0  0  1  0  0  0  0  0999 V2000
    8.3420  -12.0154   18.0383 C   0  0  0  0  0  0  0  0  0  0  0  0
    8.3491  -13.4946   18.1924 C   0  0  0  0  0  0  0  0  0  0  0  0
    7.9432  -13.9657   19.5731 C   0  0  2  0  0  0  0  0  0  0  0  0
    8.8758  -13.4557   20.6372 C   0  0  0  0  0  0  0  0  0  0  0  0
    7.9550  -15.4842   19.6347 C   0  0  2  0  0  0  0  0  0  0  0  0
    6.9962  -16.0493   18.7003 N   0  0  0  0  0  0  0  0  0  0  0  0
    7.6073  -15.9011   21.0271 C   0  0  0  0  0  0  0  0  0  0  0  0
    6.4278  -15.8777   21.4565 O   0  0  0  0  0  0  0  0  0  0  0  0
    7.6929  -20.4783   27.2823 N   0  0  0  0  0  0  0  0  0  0  0  0
    9.1195  -20.3847   27.4242 C   0  0  0  0  0  0  0  0  0  0  0  0
    9.6628  -20.4748   28.5940 N   0  0  0  0  0  0  0  0  0  0  0  0
    9.9407  -20.1920   26.2748 N   0  0  0  0  0  0  0  0  0  0  0  0
    9.2501  -20.0268   25.0004 C   0  0  0  0  0  0  0  0  0  0  0  0
    8.6663  -18.6479   24.8668 C   0  0  0  0  0  0  0  0  0  0  0  0
    8.8872  -18.1479   23.4711 C   0  0  0  0  0  0  0  0  0  0  0  0
    8.3357  -16.7823   23.2816 C   0  0  2  0  0  0  0  0  0  0  0  0
    8.6429  -16.3379   21.8930 N   0  0  0  0  0  0  0  0  0  0  0  0
    8.8035  -15.7497   24.2054 C   0  0  0  0  0  0  0  0  0  0  0  0
    9.4177  -14.7506   23.7764 O   0  0  0  0  0  0  0  0  0  0  0  0
   10.6792  -20.4482   28.7295 C   0  0  0  0  0  0  0  0  0  0  0  0
    6.8066  -11.4373   26.6385 C   0  0  0  0  0  0  0  0  0  0  0  0
    7.9405  -12.3671   26.9067 C   0  0  2  0  0  0  0  0  0  0  0  0
    7.8834  -13.6264   26.1105 C   0  0  0  0  0  0  0  0  0  0  0  0
    6.4335  -14.1607   26.0985 C   0  0  2  0  0  0  0  0  0  0  0  0
    8.8239  -14.7154   26.5042 N   0  0  0  0  0  0  0  0  0  0  0  0
    8.5821  -15.8387   25.6088 C   0  0  0  0  0  0  0  0  0  0  0  0
    8.7738  -15.1698   27.8946 O   0  0  0  0  0  0  0  0  0  0  0  0
    8.3467  -16.4492   28.2367 O   0  0  0  0  0  0  0  0  0  0  0  0
  1  2  1  0
  3  2  1  0
  3  4  1  1
  5  3  1  0
  5  6  1  6
  7  5  1  0
  8  7  2  0
  9 10  1  0
 10 11  2  0
 12 13  1  0
 12 10  1  0
 13 14  1  0
 14 15  1  0
 16 15  1  1
 16 17  1  0
 17  7  1  0
 18 16  1  0
 18 19  2  0
 21 20  1  0
 21 22  1  0
 22 23  1  6
 24 22  1  0
 24 25  1  1
 25 18  1  0
 26 24  1  0
 27 26  1  0
 28 26  2  0
M  END
$$$$
