HYC.pdb
     RDKit          3D

 29 30  0  0  1  0  0  0  0  0999 V2000
   22.2626  -13.2014  -16.6834 N   0  0  0  0  0  0  0  0  0  0  0  0
   21.6698  -11.9462  -17.0693 C   0  0  1  0  0  0  0  0  0  0  0  0
   20.1729  -12.0576  -16.8696 C   0  0  0  0  0  0  0  0  0  0  0  0
   19.6671  -13.0935  -17.8074 C   0  0  0  0  0  0  0  0  0  0  0  0
   19.2118  -14.3667  -17.4873 C   0  0  0  0  0  0  0  0  0  0  0  0
   18.8369  -15.0044  -18.6259 N   0  0  0  0  0  0  0  0  0  0  0  0
   19.0533  -14.1447  -19.6475 C   0  0  0  0  0  0  0  0  0  0  0  0
   19.5479  -13.0109  -19.1439 N   0  0  0  0  0  0  0  0  0  0  0  0
   22.2315  -10.8077  -16.2748 C   0  0  0  0  0  0  0  0  0  0  0  0
   22.2754  -10.8690  -15.0220 O   0  0  0  0  0  0  0  0  0  0  0  0
   27.9282  -12.9350  -16.2380 O   0  0  0  0  0  0  0  0  0  0  0  0
   27.1575  -11.7774  -16.2873 C   0  0  0  0  0  0  0  0  0  0  0  0
   26.4880  -11.4408  -17.4434 C   0  0  0  0  0  0  0  0  0  0  0  0
   25.7281  -10.2927  -17.4811 C   0  0  0  0  0  0  0  0  0  0  0  0
   25.6039   -9.4380  -16.3779 C   0  0  0  0  0  0  0  0  0  0  0  0
   24.7552   -8.2348  -16.5238 C   0  0  0  0  0  0  0  0  0  0  0  0
   23.2819   -8.5123  -16.2508 C   0  0  2  0  0  0  0  0  0  0  0  0
   22.7275   -9.6342  -16.9021 N   0  0  0  0  0  0  0  0  0  0  0  0
   22.4565   -7.2912  -16.2231 C   0  0  0  0  0  0  0  0  0  0  0  0
   21.9686   -6.8146  -17.3063 O   0  0  0  0  0  0  0  0  0  0  0  0
   26.2884   -9.8147  -15.2494 C   0  0  0  0  0  0  0  0  0  0  0  0
   27.0569  -10.9625  -15.1895 C   0  0  0  0  0  0  0  0  0  0  0  0
   22.1395   -6.5642  -15.0550 N   0  0  0  0  0  0  0  0  0  0  0  0
   21.3144   -5.3882  -15.0902 C   0  0  1  0  0  0  0  0  0  0  0  0
   20.0047   -5.5723  -14.3597 C   0  0  0  0  0  0  0  0  0  0  0  0
   19.0444   -4.0703  -14.2269 S   0  0  0  0  0  0  0  0  0  0  0  0
   21.9983   -4.2181  -14.4416 C   0  0  0  0  0  0  0  0  0  0  0  0
   22.6924   -4.3863  -13.4048 O   0  0  0  0  0  0  0  0  0  0  0  0
   21.8813   -2.9416  -14.9651 O   0  0  0  0  0  0  0  0  0  0  0  0
  2  1  1  1
  2  3  1  0
  2  9  1  0
  3  4  1  0
  4  5  2  0
  6  5  1  0
  7  6  1  0
  8  7  2  0
  8  4  1  0
  9 10  2  0
  9 18  1  0
 12 11  1  0
 12 22  2  0
 13 12  1  0
 14 13  2  0
 14 15  1  0
 15 21  2  0
 16 15  1  0
 17 16  1  6
 18 17  1  0
 19 17  1  0
 19 20  2  0
 21 22  1  0
 23 19  1  0
 24 23  1  0
 24 25  1  1
 26 25  1  0
 27 24  1  0
 28 27  2  0
 29 27  1  0
M  END
$$$$
