HYC.pdb
     RDKit          3D

 29 30  0  0  1  0  0  0  0  0999 V2000
   21.9894  -11.8914  -19.5549 N   0  0  0  0  0  0  0  0  0  0  0  0
   21.9312  -10.4989  -19.9199 C   0  0  1  0  0  0  0  0  0  0  0  0
   21.1267  -10.3858  -21.1976 C   0  0  0  0  0  0  0  0  0  0  0  0
   21.8440  -11.1475  -22.2529 C   0  0  0  0  0  0  0  0  0  0  0  0
   21.4065  -12.2925  -22.9074 C   0  0  0  0  0  0  0  0  0  0  0  0
   22.3508  -12.6819  -23.8021 N   0  0  0  0  0  0  0  0  0  0  0  0
   23.3677  -11.7946  -23.7116 C   0  0  0  0  0  0  0  0  0  0  0  0
   23.0509  -10.8868  -22.7846 N   0  0  0  0  0  0  0  0  0  0  0  0
   21.3220   -9.6717  -18.8300 C   0  0  0  0  0  0  0  0  0  0  0  0
   20.3556   -8.9098  -19.0767 O   0  0  0  0  0  0  0  0  0  0  0  0
   18.8584   -6.5044  -11.0223 O   0  0  0  0  0  0  0  0  0  0  0  0
   19.4815   -7.2705  -12.0027 C   0  0  0  0  0  0  0  0  0  0  0  0
   18.7316   -8.0749  -12.8326 C   0  0  0  0  0  0  0  0  0  0  0  0
   19.3589   -8.8289  -13.7995 C   0  0  0  0  0  0  0  0  0  0  0  0
   20.7483   -8.8140  -13.9794 C   0  0  0  0  0  0  0  0  0  0  0  0
   21.3184   -9.6562  -15.0541 C   0  0  0  0  0  0  0  0  0  0  0  0
   21.3340   -8.9581  -16.4086 C   0  0  2  0  0  0  0  0  0  0  0  0
   21.8093   -9.7194  -17.4971 N   0  0  0  0  0  0  0  0  0  0  0  0
   21.7885   -7.5577  -16.3349 C   0  0  0  0  0  0  0  0  0  0  0  0
   23.0376   -7.2844  -16.2765 O   0  0  0  0  0  0  0  0  0  0  0  0
   21.4526   -7.9979  -13.1298 C   0  0  0  0  0  0  0  0  0  0  0  0
   20.8437   -7.2327  -12.1524 C   0  0  0  0  0  0  0  0  0  0  0  0
   20.9308   -6.4363  -16.3221 N   0  0  0  0  0  0  0  0  0  0  0  0
   21.4295   -5.0976  -16.1658 C   0  0  1  0  0  0  0  0  0  0  0  0
   21.0824   -4.2054  -17.3347 C   0  0  0  0  0  0  0  0  0  0  0  0
   21.5030   -2.4880  -17.0712 S   0  0  0  0  0  0  0  0  0  0  0  0
   20.8544   -4.4366  -14.9453 C   0  0  0  0  0  0  0  0  0  0  0  0
   21.5847   -3.7227  -14.2090 O   0  0  0  0  0  0  0  0  0  0  0  0
   19.5212   -4.5966  -14.6069 O   0  0  0  0  0  0  0  0  0  0  0  0
  2  1  1  1
  2  3  1  0
  2  9  1  0
  3  4  1  0
  4  5  2  0
  6  5  1  0
  7  6  1  0
  8  7  2  0
  8  4  1  0
  9 10  2  0
  9 18  1  0
 12 11  1  0
 12 22  2  0
 13 12  1  0
 14 13  2  0
 14 15  1  0
 15 21  2  0
 16 15  1  0
 17 16  1  1
 18 17  1  0
 19 17  1  0
 19 20  2  0
 21 22  1  0
 23 19  1  0
 24 23  1  0
 24 25  1  6
 26 25  1  0
 27 24  1  0
 28 27  2  0
 29 27  1  0
M  END
$$$$
