HYC.pdb
     RDKit          3D

 29 30  0  0  1  0  0  0  0  0999 V2000
   25.2118  -19.1487  -20.6746 N   0  0  0  0  0  0  0  0  0  0  0  0
   23.9643  -19.4052  -21.3481 C   0  0  1  0  0  0  0  0  0  0  0  0
   23.6397  -20.8749  -21.1827 C   0  0  0  0  0  0  0  0  0  0  0  0
   24.6719  -21.6517  -21.9172 C   0  0  0  0  0  0  0  0  0  0  0  0
   24.7210  -21.9030  -23.2830 C   0  0  0  0  0  0  0  0  0  0  0  0
   25.8213  -22.6492  -23.5589 N   0  0  0  0  0  0  0  0  0  0  0  0
   26.4552  -22.8643  -22.3835 C   0  0  0  0  0  0  0  0  0  0  0  0
   25.7584  -22.2639  -21.4152 N   0  0  0  0  0  0  0  0  0  0  0  0
   22.8617  -18.5501  -20.8038 C   0  0  0  0  0  0  0  0  0  0  0  0
   22.8486  -18.2280  -19.5909 O   0  0  0  0  0  0  0  0  0  0  0  0
   16.4395  -12.5865  -20.2077 O   0  0  0  0  0  0  0  0  0  0  0  0
   17.3483  -13.5045  -20.7253 C   0  0  0  0  0  0  0  0  0  0  0  0
   18.6954  -13.2158  -20.7316 C   0  0  0  0  0  0  0  0  0  0  0  0
   19.5860  -14.1317  -21.2464 C   0  0  0  0  0  0  0  0  0  0  0  0
   19.1760  -15.3638  -21.7725 C   0  0  0  0  0  0  0  0  0  0  0  0
   20.2170  -16.2778  -22.2924 C   0  0  0  0  0  0  0  0  0  0  0  0
   20.7518  -17.2316  -21.2311 C   0  0  2  0  0  0  0  0  0  0  0  0
   21.8064  -18.0798  -21.6294 N   0  0  0  0  0  0  0  0  0  0  0  0
   19.6900  -17.8405  -20.4096 C   0  0  0  0  0  0  0  0  0  0  0  0
   19.1375  -18.9362  -20.7737 O   0  0  0  0  0  0  0  0  0  0  0  0
   17.8254  -15.6065  -21.7444 C   0  0  0  0  0  0  0  0  0  0  0  0
   16.9138  -14.7016  -21.2326 C   0  0  0  0  0  0  0  0  0  0  0  0
   19.2033  -17.2998  -19.1995 N   0  0  0  0  0  0  0  0  0  0  0  0
   18.2532  -18.0003  -18.3800 C   0  0  1  0  0  0  0  0  0  0  0  0
   18.3561  -17.6280  -16.9193 C   0  0  0  0  0  0  0  0  0  0  0  0
   19.9503  -17.9972  -16.1994 S   0  0  0  0  0  0  0  0  0  0  0  0
   16.8413  -17.6962  -18.7943 C   0  0  0  0  0  0  0  0  0  0  0  0
   16.6106  -16.7889  -19.6360 O   0  0  0  0  0  0  0  0  0  0  0  0
   15.7734  -18.4006  -18.2643 O   0  0  0  0  0  0  0  0  0  0  0  0
  2  1  1  1
  2  3  1  0
  2  9  1  0
  3  4  1  0
  4  5  2  0
  6  5  1  0
  7  6  1  0
  8  7  2  0
  8  4  1  0
  9 10  2  0
  9 18  1  0
 12 11  1  0
 12 22  2  0
 13 12  1  0
 14 13  2  0
 14 15  1  0
 15 21  2  0
 16 15  1  0
 17 16  1  6
 18 17  1  0
 19 17  1  0
 19 20  2  0
 21 22  1  0
 23 19  1  0
 24 23  1  0
 24 25  1  1
 26 25  1  0
 27 24  1  0
 28 27  2  0
 29 27  1  0
M  END
$$$$
