HYC.pdb
     RDKit          3D

 29 30  0  0  1  0  0  0  0  0999 V2000
   26.1588  -25.7953  -16.2213 N   0  0  0  0  0  0  0  0  0  0  0  0
   26.3776  -24.3713  -16.2308 C   0  0  1  0  0  0  0  0  0  0  0  0
   26.4300  -23.9182  -17.6747 C   0  0  0  0  0  0  0  0  0  0  0  0
   27.6610  -24.4867  -18.2829 C   0  0  0  0  0  0  0  0  0  0  0  0
   28.9761  -24.1361  -18.0026 C   0  0  0  0  0  0  0  0  0  0  0  0
   29.8095  -24.8860  -18.7686 N   0  0  0  0  0  0  0  0  0  0  0  0
   29.0298  -25.6968  -19.5199 C   0  0  0  0  0  0  0  0  0  0  0  0
   27.7527  -25.4470  -19.2192 N   0  0  0  0  0  0  0  0  0  0  0  0
   25.3017  -23.6466  -15.4823 C   0  0  0  0  0  0  0  0  0  0  0  0
   24.1495  -24.1363  -15.3949 O   0  0  0  0  0  0  0  0  0  0  0  0
   21.9507  -20.1378   -8.4706 O   0  0  0  0  0  0  0  0  0  0  0  0
   22.7241  -20.2466   -9.6224 C   0  0  0  0  0  0  0  0  0  0  0  0
   23.8926  -20.9763   -9.6046 C   0  0  0  0  0  0  0  0  0  0  0  0
   24.6503  -21.0771  -10.7503 C   0  0  0  0  0  0  0  0  0  0  0  0
   24.2794  -20.4605  -11.9524 C   0  0  0  0  0  0  0  0  0  0  0  0
   25.1621  -20.6403  -13.1263 C   0  0  0  0  0  0  0  0  0  0  0  0
   24.5995  -21.6234  -14.1457 C   0  0  2  0  0  0  0  0  0  0  0  0
   25.5437  -22.3965  -14.8534 N   0  0  0  0  0  0  0  0  0  0  0  0
   23.4797  -21.0704  -14.9289 C   0  0  0  0  0  0  0  0  0  0  0  0
   23.7022  -20.4373  -16.0188 O   0  0  0  0  0  0  0  0  0  0  0  0
   23.1084  -19.7452  -11.9214 C   0  0  0  0  0  0  0  0  0  0  0  0
   22.3325  -19.6307  -10.7828 C   0  0  0  0  0  0  0  0  0  0  0  0
   22.1188  -21.1806  -14.5696 N   0  0  0  0  0  0  0  0  0  0  0  0
   21.0732  -20.5834  -15.3541 C   0  0  1  0  0  0  0  0  0  0  0  0
   20.0058  -21.5748  -15.7548 C   0  0  0  0  0  0  0  0  0  0  0  0
   18.6149  -20.8263  -16.5922 S   0  0  0  0  0  0  0  0  0  0  0  0
   20.3722  -19.4926  -14.5950 C   0  0  0  0  0  0  0  0  0  0  0  0
   20.3557  -19.5079  -13.3362 O   0  0  0  0  0  0  0  0  0  0  0  0
   19.7352  -18.4566  -15.2571 O   0  0  0  0  0  0  0  0  0  0  0  0
  2  1  1  6
  2  3  1  0
  2  9  1  0
  3  4  1  0
  4  5  2  0
  6  5  1  0
  7  6  1  0
  8  7  2  0
  8  4  1  0
  9 10  2  0
  9 18  1  0
 12 11  1  0
 12 22  2  0
 13 12  1  0
 14 13  2  0
 14 15  1  0
 15 21  2  0
 16 15  1  0
 17 16  1  6
 18 17  1  0
 19 17  1  0
 19 20  2  0
 21 22  1  0
 23 19  1  0
 24 23  1  0
 24 25  1  1
 26 25  1  0
 27 24  1  0
 28 27  2  0
 29 27  1  0
M  END
$$$$
