HYC.pdb
     RDKit          3D

 29 30  0  0  1  0  0  0  0  0999 V2000
   25.8711  -12.4458  -19.8779 N   0  0  0  0  0  0  0  0  0  0  0  0
   24.5579  -11.8556  -19.8244 C   0  0  1  0  0  0  0  0  0  0  0  0
   23.5571  -12.9075  -20.2543 C   0  0  0  0  0  0  0  0  0  0  0  0
   23.4479  -12.8497  -21.7352 C   0  0  0  0  0  0  0  0  0  0  0  0
   24.3449  -12.2668  -22.6220 C   0  0  0  0  0  0  0  0  0  0  0  0
   23.8848  -12.4263  -23.8895 N   0  0  0  0  0  0  0  0  0  0  0  0
   22.7151  -13.0999  -23.8012 C   0  0  0  0  0  0  0  0  0  0  0  0
   22.4685  -13.3448  -22.5117 N   0  0  0  0  0  0  0  0  0  0  0  0
   24.2414  -11.3465  -18.4519 C   0  0  0  0  0  0  0  0  0  0  0  0
   24.1445  -12.1427  -17.4866 O   0  0  0  0  0  0  0  0  0  0  0  0
   30.0714  -11.0803  -16.8683 O   0  0  0  0  0  0  0  0  0  0  0  0
   28.8319  -10.4606  -16.7407 C   0  0  0  0  0  0  0  0  0  0  0  0
   28.4286   -9.5234  -17.6665 C   0  0  0  0  0  0  0  0  0  0  0  0
   27.1999   -8.9163  -17.5304 C   0  0  0  0  0  0  0  0  0  0  0  0
   26.3279   -9.2144  -16.4751 C   0  0  0  0  0  0  0  0  0  0  0  0
   25.0276   -8.5097  -16.4286 C   0  0  0  0  0  0  0  0  0  0  0  0
   23.8714   -9.3659  -16.9311 C   0  0  2  0  0  0  0  0  0  0  0  0
   24.0425   -9.9637  -18.1974 N   0  0  0  0  0  0  0  0  0  0  0  0
   22.5490   -8.7767  -16.6531 C   0  0  0  0  0  0  0  0  0  0  0  0
   22.0116   -7.9688  -17.4878 O   0  0  0  0  0  0  0  0  0  0  0  0
   26.7728  -10.1537  -15.5787 C   0  0  0  0  0  0  0  0  0  0  0  0
   28.0022  -10.7754  -15.6959 C   0  0  0  0  0  0  0  0  0  0  0  0
   21.7842   -9.0344  -15.4946 N   0  0  0  0  0  0  0  0  0  0  0  0
   20.4980   -8.4298  -15.2810 C   0  0  1  0  0  0  0  0  0  0  0  0
   19.6314   -9.2225  -14.3305 C   0  0  0  0  0  0  0  0  0  0  0  0
   18.0767   -8.4264  -13.9498 S   0  0  0  0  0  0  0  0  0  0  0  0
   20.6290   -7.0562  -14.6866 C   0  0  0  0  0  0  0  0  0  0  0  0
   21.4486   -6.8459  -13.7544 O   0  0  0  0  0  0  0  0  0  0  0  0
   19.8585   -6.0017  -15.1468 O   0  0  0  0  0  0  0  0  0  0  0  0
  2  1  1  1
  2  3  1  0
  2  9  1  0
  3  4  1  0
  4  5  2  0
  6  5  1  0
  7  6  1  0
  8  7  2  0
  8  4  1  0
  9 10  2  0
  9 18  1  0
 12 11  1  0
 12 22  2  0
 13 12  1  0
 14 13  2  0
 14 15  1  0
 15 21  2  0
 16 15  1  0
 17 16  1  6
 18 17  1  0
 19 17  1  0
 19 20  2  0
 21 22  1  0
 23 19  1  0
 24 23  1  0
 24 25  1  1
 26 25  1  0
 27 24  1  0
 28 27  2  0
 29 27  1  0
M  END
$$$$
