HYC.pdb
     RDKit          3D

 29 30  0  0  1  0  0  0  0  0999 V2000
   28.0344  -23.1054  -16.9449 N   0  0  0  0  0  0  0  0  0  0  0  0
   28.0000  -21.7861  -16.3670 C   0  0  1  0  0  0  0  0  0  0  0  0
   27.4130  -20.8426  -17.3957 C   0  0  0  0  0  0  0  0  0  0  0  0
   28.3964  -20.7110  -18.5021 C   0  0  0  0  0  0  0  0  0  0  0  0
   28.3659  -21.3526  -19.7343 C   0  0  0  0  0  0  0  0  0  0  0  0
   29.4434  -20.9654  -20.4643 N   0  0  0  0  0  0  0  0  0  0  0  0
   30.1416  -20.0929  -19.7021 C   0  0  0  0  0  0  0  0  0  0  0  0
   29.5053  -19.9518  -18.5364 N   0  0  0  0  0  0  0  0  0  0  0  0
   27.1987  -21.7627  -15.1020 C   0  0  0  0  0  0  0  0  0  0  0  0
   26.0079  -22.1593  -15.0978 O   0  0  0  0  0  0  0  0  0  0  0  0
   24.6720  -20.3354   -6.8033 O   0  0  0  0  0  0  0  0  0  0  0  0
   25.4817  -20.4510   -7.9291 C   0  0  0  0  0  0  0  0  0  0  0  0
   25.2489  -21.4498   -8.8491 C   0  0  0  0  0  0  0  0  0  0  0  0
   26.0567  -21.5548   -9.9597 C   0  0  0  0  0  0  0  0  0  0  0  0
   27.1218  -20.6767  -10.1992 C   0  0  0  0  0  0  0  0  0  0  0  0
   27.9214  -20.8741  -11.4285 C   0  0  0  0  0  0  0  0  0  0  0  0
   27.0626  -21.1578  -12.6548 C   0  0  2  0  0  0  0  0  0  0  0  0
   27.7500  -21.2972  -13.8789 N   0  0  0  0  0  0  0  0  0  0  0  0
   25.8154  -20.3723  -12.6846 C   0  0  0  0  0  0  0  0  0  0  0  0
   25.8057  -19.1909  -13.1769 O   0  0  0  0  0  0  0  0  0  0  0  0
   27.3143  -19.6986   -9.2558 C   0  0  0  0  0  0  0  0  0  0  0  0
   26.5160  -19.5748   -8.1337 C   0  0  0  0  0  0  0  0  0  0  0  0
   24.5707  -20.8259  -12.1963 N   0  0  0  0  0  0  0  0  0  0  0  0
   23.3320  -20.2009  -12.5709 C   0  0  1  0  0  0  0  0  0  0  0  0
   22.9934  -20.4045  -14.0292 C   0  0  0  0  0  0  0  0  0  0  0  0
   21.3536  -19.8426  -14.4663 S   0  0  0  0  0  0  0  0  0  0  0  0
   22.1772  -20.7582  -11.7878 C   0  0  0  0  0  0  0  0  0  0  0  0
   22.2520  -21.9088  -11.2826 O   0  0  0  0  0  0  0  0  0  0  0  0
   21.0164  -20.0252  -11.6066 O   0  0  0  0  0  0  0  0  0  0  0  0
  2  1  1  6
  2  3  1  0
  2  9  1  0
  3  4  1  0
  4  5  2  0
  6  5  1  0
  7  6  1  0
  8  7  2  0
  8  4  1  0
  9 10  2  0
  9 18  1  0
 12 11  1  0
 12 22  2  0
 13 12  1  0
 14 13  2  0
 14 15  1  0
 15 21  2  0
 16 15  1  0
 17 16  1  1
 18 17  1  0
 19 17  1  0
 19 20  2  0
 21 22  1  0
 23 19  1  0
 24 23  1  0
 24 25  1  6
 26 25  1  0
 27 24  1  0
 28 27  2  0
 29 27  1  0
M  END
$$$$
