GQA.pdb
     RDKit          3D

 19 18  0  0  1  0  0  0  0  0999 V2000
    6.7060  -16.8561   19.2365 N   0  0  0  0  0  0  0  0  0  0  0  0
    7.7748  -16.3441   20.0487 C   0  0  0  0  0  0  0  0  0  0  0  0
    7.2671  -16.2371   21.4443 C   0  0  0  0  0  0  0  0  0  0  0  0
    6.0305  -16.0232   21.5988 O   0  0  0  0  0  0  0  0  0  0  0  0
    6.9890  -20.9993   25.1581 N   0  0  0  0  0  0  0  0  0  0  0  0
    6.6114  -19.6336   25.0965 C   0  0  0  0  0  0  0  0  0  0  0  0
    5.7959  -19.1593   25.9195 O   0  0  0  0  0  0  0  0  0  0  0  0
    7.1734  -18.7047   24.0441 C   0  0  0  0  0  0  0  0  0  0  0  0
    7.7560  -17.4948   24.6952 C   0  0  0  0  0  0  0  0  0  0  0  0
    7.4874  -16.2448   23.9006 C   0  0  2  0  0  0  0  0  0  0  0  0
    8.1106  -16.3651   22.5751 N   0  0  0  0  0  0  0  0  0  0  0  0
    7.9183  -15.0123   24.5626 C   0  0  0  0  0  0  0  0  0  0  0  0
    9.1205  -14.6656   24.5401 O   0  0  0  0  0  0  0  0  0  0  0  0
    6.4366  -12.0323   26.3463 C   0  0  0  0  0  0  0  0  0  0  0  0
    7.5440  -13.0383   26.0238 C   0  0  2  0  0  0  0  0  0  0  0  0
    7.0228  -14.1475   25.2582 N   0  0  0  0  0  0  0  0  0  0  0  0
    8.0876  -13.4949   27.3155 C   0  0  0  0  0  0  0  0  0  0  0  0
    8.6133  -12.6606   28.0956 O   0  0  0  0  0  0  0  0  0  0  0  0
    8.0074  -14.8341   27.6418 O   0  0  0  0  0  0  0  0  0  0  0  0
  1  2  1  0
  2  3  1  0
  3 11  1  0
  3  4  2  0
  5  6  1  0
  6  7  2  0
  8  9  1  0
  8  6  1  0
 10  9  1  1
 11 10  1  0
 12 10  1  0
 12 16  1  0
 13 12  2  0
 15 16  1  0
 15 17  1  0
 15 14  1  1
 17 19  1  0
 18 17  2  0
M  END
$$$$
