GQA.pdb
     RDKit          3D

 19 18  0  0  1  0  0  0  0  0999 V2000
    9.4099  -20.5577   18.4054 N   0  0  0  0  0  0  0  0  0  0  0  0
    8.4495  -19.7455   19.0998 C   0  0  0  0  0  0  0  0  0  0  0  0
    9.1784  -18.5834   19.6785 C   0  0  0  0  0  0  0  0  0  0  0  0
   10.4405  -18.5903   19.5998 O   0  0  0  0  0  0  0  0  0  0  0  0
    7.2625  -12.6725   20.1501 N   0  0  0  0  0  0  0  0  0  0  0  0
    7.5421  -13.4702   19.0112 C   0  0  0  0  0  0  0  0  0  0  0  0
    7.2026  -13.0909   17.8675 O   0  0  0  0  0  0  0  0  0  0  0  0
    8.2549  -14.7983   19.1320 C   0  0  0  0  0  0  0  0  0  0  0  0
    8.5539  -15.0843   20.5659 C   0  0  0  0  0  0  0  0  0  0  0  0
    9.3359  -16.3596   20.7331 C   0  0  2  0  0  0  0  0  0  0  0  0
    8.5134  -17.4975   20.2992 N   0  0  0  0  0  0  0  0  0  0  0  0
    9.8410  -16.5767   22.0899 C   0  0  0  0  0  0  0  0  0  0  0  0
    9.0761  -16.9745   22.9968 O   0  0  0  0  0  0  0  0  0  0  0  0
   11.6068  -18.2140   24.0038 C   0  0  0  0  0  0  0  0  0  0  0  0
   11.6485  -16.6991   23.7900 C   0  0  2  0  0  0  0  0  0  0  0  0
   11.2005  -16.3559   22.4596 N   0  0  0  0  0  0  0  0  0  0  0  0
   13.0461  -16.2819   24.0027 C   0  0  0  0  0  0  0  0  0  0  0  0
   13.7030  -15.8057   23.0422 O   0  0  0  0  0  0  0  0  0  0  0  0
   13.6053  -16.4237   25.2570 O   0  0  0  0  0  0  0  0  0  0  0  0
  1  2  1  0
  2  3  1  0
  3 11  1  0
  3  4  2  0
  5  6  1  0
  6  7  2  0
  8  9  1  0
  8  6  1  0
 10  9  1  1
 11 10  1  0
 12 10  1  0
 12 16  1  0
 13 12  2  0
 15 16  1  0
 15 17  1  0
 15 14  1  6
 17 19  1  0
 18 17  2  0
M  END
$$$$
