GQA.pdb
     RDKit          3D

 19 18  0  0  1  0  0  0  0  0999 V2000
    1.9784  -20.4778   22.4238 N   0  0  0  0  0  0  0  0  0  0  0  0
    2.5455  -19.1697   22.2462 C   0  0  0  0  0  0  0  0  0  0  0  0
    4.0188  -19.2907   22.4232 C   0  0  0  0  0  0  0  0  0  0  0  0
    4.4679  -20.4052   22.8172 O   0  0  0  0  0  0  0  0  0  0  0  0
    9.9204  -20.1586   21.9448 N   0  0  0  0  0  0  0  0  0  0  0  0
    9.0533  -19.3428   21.1739 C   0  0  0  0  0  0  0  0  0  0  0  0
    8.6128  -19.7425   20.0724 O   0  0  0  0  0  0  0  0  0  0  0  0
    8.6303  -17.9705   21.6475 C   0  0  0  0  0  0  0  0  0  0  0  0
    7.1707  -17.7779   21.4032 C   0  0  0  0  0  0  0  0  0  0  0  0
    6.3315  -18.4353   22.4660 C   0  0  2  0  0  0  0  0  0  0  0  0
    4.9087  -18.2184   22.1688 N   0  0  0  0  0  0  0  0  0  0  0  0
    6.6454  -18.0008   23.8282 C   0  0  0  0  0  0  0  0  0  0  0  0
    6.1498  -16.9486   24.2899 O   0  0  0  0  0  0  0  0  0  0  0  0
    6.6721  -18.4219   26.9779 C   0  0  0  0  0  0  0  0  0  0  0  0
    7.8301  -18.1961   26.0032 C   0  0  2  0  0  0  0  0  0  0  0  0
    7.5126  -18.7266   24.6970 N   0  0  0  0  0  0  0  0  0  0  0  0
    9.0046  -18.8749   26.5798 C   0  0  0  0  0  0  0  0  0  0  0  0
    9.5725  -19.7888   25.9294 O   0  0  0  0  0  0  0  0  0  0  0  0
    9.4570  -18.4906   27.8264 O   0  0  0  0  0  0  0  0  0  0  0  0
  1  2  1  0
  2  3  1  0
  3 11  1  0
  3  4  2  0
  5  6  1  0
  6  7  2  0
  8  9  1  0
  8  6  1  0
 10  9  1  6
 11 10  1  0
 12 10  1  0
 12 16  1  0
 13 12  2  0
 15 16  1  0
 15 17  1  0
 15 14  1  1
 17 19  1  0
 18 17  2  0
M  END
$$$$
