GQA.pdb
     RDKit          3D

 19 18  0  0  1  0  0  0  0  0999 V2000
   16.3340  -25.3177   33.9854 N   0  0  0  0  0  0  0  0  0  0  0  0
   14.9278  -25.3245   33.6906 C   0  0  0  0  0  0  0  0  0  0  0  0
   14.6641  -24.2157   32.7326 C   0  0  0  0  0  0  0  0  0  0  0  0
   15.3439  -23.1578   32.8656 O   0  0  0  0  0  0  0  0  0  0  0  0
   16.3744  -22.6213   27.1332 N   0  0  0  0  0  0  0  0  0  0  0  0
   15.2097  -23.3158   27.5488 C   0  0  0  0  0  0  0  0  0  0  0  0
   14.2986  -23.5798   26.7319 O   0  0  0  0  0  0  0  0  0  0  0  0
   15.0238  -23.7608   28.9819 C   0  0  0  0  0  0  0  0  0  0  0  0
   13.6074  -23.5450   29.3998 C   0  0  0  0  0  0  0  0  0  0  0  0
   13.5042  -23.1339   30.8441 C   0  0  2  0  0  0  0  0  0  0  0  0
   13.6968  -24.3113   31.7022 N   0  0  0  0  0  0  0  0  0  0  0  0
   12.2555  -22.4487   31.1822 C   0  0  0  0  0  0  0  0  0  0  0  0
   11.4427  -22.9659   31.9807 O   0  0  0  0  0  0  0  0  0  0  0  0
   10.7962  -20.1775   32.5881 C   0  0  0  0  0  0  0  0  0  0  0  0
   10.6911  -20.5204   31.1003 C   0  0  2  0  0  0  0  0  0  0  0  0
   11.8910  -21.1812   30.6398 N   0  0  0  0  0  0  0  0  0  0  0  0
   10.4807  -19.2471   30.3883 C   0  0  0  0  0  0  0  0  0  0  0  0
   11.3941  -18.7892   29.6557 O   0  0  0  0  0  0  0  0  0  0  0  0
    9.2803  -18.5825   30.5422 O   0  0  0  0  0  0  0  0  0  0  0  0
  1  2  1  0
  2  3  1  0
  3 11  1  0
  3  4  2  0
  5  6  1  0
  6  7  2  0
  8  9  1  0
  8  6  1  0
 10  9  1  6
 11 10  1  0
 12 10  1  0
 12 16  1  0
 13 12  2  0
 15 16  1  0
 15 17  1  0
 15 14  1  1
 17 19  1  0
 18 17  2  0
M  END
$$$$
