GQA.pdb
     RDKit          3D

 19 18  0  0  1  0  0  0  0  0999 V2000
    7.2064  -20.3996   19.8622 N   0  0  0  0  0  0  0  0  0  0  0  0
    6.7049  -19.2990   20.6376 C   0  0  0  0  0  0  0  0  0  0  0  0
    7.7595  -18.2482   20.6608 C   0  0  0  0  0  0  0  0  0  0  0  0
    8.8988  -18.5572   20.2077 O   0  0  0  0  0  0  0  0  0  0  0  0
    7.1243  -11.9329   19.9528 N   0  0  0  0  0  0  0  0  0  0  0  0
    7.6346  -13.0324   19.2163 C   0  0  0  0  0  0  0  0  0  0  0  0
    8.2278  -12.8518   18.1288 O   0  0  0  0  0  0  0  0  0  0  0  0
    7.4838  -14.4534   19.7108 C   0  0  0  0  0  0  0  0  0  0  0  0
    8.1949  -14.6149   21.0129 C   0  0  0  0  0  0  0  0  0  0  0  0
    8.6735  -16.0270   21.2202 C   0  0  2  0  0  0  0  0  0  0  0  0
    7.5270  -16.9447   21.1641 N   0  0  0  0  0  0  0  0  0  0  0  0
    9.4319  -16.2249   22.4566 C   0  0  0  0  0  0  0  0  0  0  0  0
    8.8460  -16.5281   23.5200 O   0  0  0  0  0  0  0  0  0  0  0  0
   11.3961  -18.1100   23.8042 C   0  0  0  0  0  0  0  0  0  0  0  0
   11.5601  -16.5932   23.6842 C   0  0  2  0  0  0  0  0  0  0  0  0
   10.8495  -16.0896   22.5311 N   0  0  0  0  0  0  0  0  0  0  0  0
   13.0066  -16.3335   23.5704 C   0  0  0  0  0  0  0  0  0  0  0  0
   13.4893  -15.9952   22.4599 O   0  0  0  0  0  0  0  0  0  0  0  0
   13.8027  -16.4679   24.6904 O   0  0  0  0  0  0  0  0  0  0  0  0
  1  2  1  0
  2  3  1  0
  3 11  1  0
  3  4  2  0
  5  6  1  0
  6  7  2  0
  8  9  1  0
  8  6  1  0
 10  9  1  1
 11 10  1  0
 12 10  1  0
 12 16  1  0
 13 12  2  0
 15 16  1  0
 15 17  1  0
 15 14  1  6
 17 19  1  0
 18 17  2  0
M  END
$$$$
