GQA.pdb
     RDKit          3D

 19 18  0  0  1  0  0  0  0  0999 V2000
    6.7752  -19.5568   17.9613 N   0  0  0  0  0  0  0  0  0  0  0  0
    6.2157  -18.8235   19.0629 C   0  0  0  0  0  0  0  0  0  0  0  0
    7.1251  -17.6801   19.3498 C   0  0  0  0  0  0  0  0  0  0  0  0
    8.3384  -17.8036   19.0158 O   0  0  0  0  0  0  0  0  0  0  0  0
    8.4512  -12.7204   18.2281 N   0  0  0  0  0  0  0  0  0  0  0  0
    8.9847  -12.8311   19.5375 C   0  0  0  0  0  0  0  0  0  0  0  0
   10.2159  -12.7216   19.7364 O   0  0  0  0  0  0  0  0  0  0  0  0
    8.0960  -13.0835   20.7345 C   0  0  0  0  0  0  0  0  0  0  0  0
    7.0882  -14.1338   20.4049 C   0  0  0  0  0  0  0  0  0  0  0  0
    7.7010  -15.5081   20.3661 C   0  0  2  0  0  0  0  0  0  0  0  0
    6.6792  -16.4877   19.9711 N   0  0  0  0  0  0  0  0  0  0  0  0
    8.3441  -15.9107   21.6180 C   0  0  0  0  0  0  0  0  0  0  0  0
    7.6560  -16.1824   22.6273 O   0  0  0  0  0  0  0  0  0  0  0  0
   10.1893  -17.9149   23.2568 C   0  0  0  0  0  0  0  0  0  0  0  0
   10.3185  -16.4051   23.0426 C   0  0  2  0  0  0  0  0  0  0  0  0
    9.7582  -16.0176   21.7682 N   0  0  0  0  0  0  0  0  0  0  0  0
   11.7574  -16.0921   23.1061 C   0  0  0  0  0  0  0  0  0  0  0  0
   12.3315  -15.6111   22.0963 O   0  0  0  0  0  0  0  0  0  0  0  0
   12.4461  -16.3351   24.2779 O   0  0  0  0  0  0  0  0  0  0  0  0
  1  2  1  0
  2  3  1  0
  3 11  1  0
  3  4  2  0
  5  6  1  0
  6  7  2  0
  8  9  1  0
  8  6  1  0
 10  9  1  1
 11 10  1  0
 12 10  1  0
 12 16  1  0
 13 12  2  0
 15 16  1  0
 15 17  1  0
 15 14  1  6
 17 19  1  0
 18 17  2  0
M  END
$$$$
