GQA.pdb
     RDKit          3D

 19 18  0  0  1  0  0  0  0  0999 V2000
    4.0600  -19.5721   21.4053 N   0  0  0  0  0  0  0  0  0  0  0  0
    3.8644  -18.2299   21.8789 C   0  0  0  0  0  0  0  0  0  0  0  0
    5.1872  -17.5471   21.8536 C   0  0  0  0  0  0  0  0  0  0  0  0
    6.2194  -18.2771   21.8755 O   0  0  0  0  0  0  0  0  0  0  0  0
    8.8329  -12.1209   19.2528 N   0  0  0  0  0  0  0  0  0  0  0  0
    8.4951  -13.4181   19.7162 C   0  0  0  0  0  0  0  0  0  0  0  0
    8.5350  -14.4023   18.9435 O   0  0  0  0  0  0  0  0  0  0  0  0
    8.0773  -13.6619   21.1488 C   0  0  0  0  0  0  0  0  0  0  0  0
    6.7031  -14.2428   21.1840 C   0  0  0  0  0  0  0  0  0  0  0  0
    6.6763  -15.5813   21.8723 C   0  0  2  0  0  0  0  0  0  0  0  0
    5.3175  -16.1373   21.8068 N   0  0  0  0  0  0  0  0  0  0  0  0
    7.1545  -15.5511   23.2555 C   0  0  0  0  0  0  0  0  0  0  0  0
    6.3893  -15.2107   24.1853 O   0  0  0  0  0  0  0  0  0  0  0  0
    8.0757  -17.0279   25.7611 C   0  0  0  0  0  0  0  0  0  0  0  0
    8.8567  -15.9381   25.0233 C   0  0  2  0  0  0  0  0  0  0  0  0
    8.4871  -15.8977   23.6268 N   0  0  0  0  0  0  0  0  0  0  0  0
   10.2857  -16.2616   25.1841 C   0  0  0  0  0  0  0  0  0  0  0  0
   10.7635  -16.3978   26.3390 O   0  0  0  0  0  0  0  0  0  0  0  0
   11.0714  -16.4086   24.0583 O   0  0  0  0  0  0  0  0  0  0  0  0
  1  2  1  0
  2  3  1  0
  3 11  1  0
  3  4  2  0
  5  6  1  0
  6  7  2  0
  8  9  1  0
  8  6  1  0
 10  9  1  1
 11 10  1  0
 12 10  1  0
 12 16  1  0
 13 12  2  0
 15 16  1  0
 15 17  1  0
 15 14  1  1
 17 19  1  0
 18 17  2  0
M  END
$$$$
