GQA.pdb
     RDKit          3D

 19 18  0  0  1  0  0  0  0  0999 V2000
   10.0899  -24.4242   23.9700 N   0  0  0  0  0  0  0  0  0  0  0  0
   11.2951  -24.7745   24.6694 C   0  0  0  0  0  0  0  0  0  0  0  0
   11.8543  -23.5250   25.2549 C   0  0  0  0  0  0  0  0  0  0  0  0
   11.7842  -22.4731   24.5566 O   0  0  0  0  0  0  0  0  0  0  0  0
   11.0526  -22.8582   31.1964 N   0  0  0  0  0  0  0  0  0  0  0  0
   11.7642  -21.8799   30.4560 C   0  0  0  0  0  0  0  0  0  0  0  0
   12.4275  -20.9941   31.0415 O   0  0  0  0  0  0  0  0  0  0  0  0
   11.7502  -21.8679   28.9441 C   0  0  0  0  0  0  0  0  0  0  0  0
   13.1277  -22.1083   28.4227 C   0  0  0  0  0  0  0  0  0  0  0  0
   13.1448  -22.2479   26.9240 C   0  0  2  0  0  0  0  0  0  0  0  0
   12.4478  -23.4836   26.5404 N   0  0  0  0  0  0  0  0  0  0  0  0
   14.4848  -22.2085   26.3358 C   0  0  0  0  0  0  0  0  0  0  0  0
   14.9189  -23.1802   25.6776 O   0  0  0  0  0  0  0  0  0  0  0  0
   16.2727  -20.9276   24.2011 C   0  0  0  0  0  0  0  0  0  0  0  0
   16.5812  -21.0389   25.6960 C   0  0  2  0  0  0  0  0  0  0  0  0
   15.3615  -21.0918   26.4693 N   0  0  0  0  0  0  0  0  0  0  0  0
   17.3824  -19.8535   26.0502 C   0  0  0  0  0  0  0  0  0  0  0  0
   16.8793  -18.9617   26.7798 O   0  0  0  0  0  0  0  0  0  0  0  0
   18.6730  -19.7482   25.5712 O   0  0  0  0  0  0  0  0  0  0  0  0
  1  2  1  0
  2  3  1  0
  3 11  1  0
  3  4  2  0
  5  6  1  0
  6  7  2  0
  8  9  1  0
  8  6  1  0
 10  9  1  1
 11 10  1  0
 12 10  1  0
 12 16  1  0
 13 12  2  0
 15 16  1  0
 15 17  1  0
 15 14  1  6
 17 19  1  0
 18 17  2  0
M  END
$$$$
