GQA.pdb
     RDKit          3D

 19 18  0  0  1  0  0  0  0  0999 V2000
    5.5054  -19.8089   23.2910 N   0  0  0  0  0  0  0  0  0  0  0  0
    5.9623  -19.5978   24.6367 C   0  0  0  0  0  0  0  0  0  0  0  0
    6.8771  -18.4232   24.6216 C   0  0  0  0  0  0  0  0  0  0  0  0
    6.8387  -17.6687   23.6076 O   0  0  0  0  0  0  0  0  0  0  0  0
    9.9261  -15.5800   29.4543 N   0  0  0  0  0  0  0  0  0  0  0  0
    9.8865  -14.6540   28.3807 C   0  0  0  0  0  0  0  0  0  0  0  0
   10.1038  -13.4372   28.5791 O   0  0  0  0  0  0  0  0  0  0  0  0
    9.5831  -15.0956   26.9667 C   0  0  0  0  0  0  0  0  0  0  0  0
    8.8455  -16.3928   26.9882 C   0  0  0  0  0  0  0  0  0  0  0  0
    8.5426  -16.8900   25.6001 C   0  0  2  0  0  0  0  0  0  0  0  0
    7.7668  -18.1353   25.6856 N   0  0  0  0  0  0  0  0  0  0  0  0
    9.7276  -17.0778   24.7613 C   0  0  0  0  0  0  0  0  0  0  0  0
   10.4795  -18.0629   24.9346 O   0  0  0  0  0  0  0  0  0  0  0  0
   11.0130  -15.7464   21.4888 C   0  0  0  0  0  0  0  0  0  0  0  0
   11.1430  -16.5380   22.7921 C   0  0  2  0  0  0  0  0  0  0  0  0
   10.0951  -16.1763   23.7192 N   0  0  0  0  0  0  0  0  0  0  0  0
   12.4722  -16.2230   23.3456 C   0  0  0  0  0  0  0  0  0  0  0  0
   12.5603  -15.7053   24.4880 O   0  0  0  0  0  0  0  0  0  0  0  0
   13.5959  -16.5044   22.5944 O   0  0  0  0  0  0  0  0  0  0  0  0
  1  2  1  0
  2  3  1  0
  3 11  1  0
  3  4  2  0
  5  6  1  0
  6  7  2  0
  8  9  1  0
  8  6  1  0
 10  9  1  1
 11 10  1  0
 12 10  1  0
 12 16  1  0
 13 12  2  0
 15 16  1  0
 15 17  1  0
 15 14  1  6
 17 19  1  0
 18 17  2  0
M  END
$$$$
