GQA.pdb
     RDKit          3D

 19 18  0  0  1  0  0  0  0  0999 V2000
    3.8223  -20.7003   20.7148 N   0  0  0  0  0  0  0  0  0  0  0  0
    5.1201  -21.1146   21.1712 C   0  0  0  0  0  0  0  0  0  0  0  0
    5.2935  -20.6022   22.5583 C   0  0  0  0  0  0  0  0  0  0  0  0
    4.6425  -19.5676   22.8820 O   0  0  0  0  0  0  0  0  0  0  0  0
    6.7147  -23.7468   27.7636 N   0  0  0  0  0  0  0  0  0  0  0  0
    6.6097  -22.4080   28.2198 C   0  0  0  0  0  0  0  0  0  0  0  0
    6.6772  -22.1430   29.4415 O   0  0  0  0  0  0  0  0  0  0  0  0
    6.4140  -21.2580   27.2577 C   0  0  0  0  0  0  0  0  0  0  0  0
    6.3965  -21.7681   25.8553 C   0  0  0  0  0  0  0  0  0  0  0  0
    6.1835  -20.6613   24.8575 C   0  0  2  0  0  0  0  0  0  0  0  0
    6.1463  -21.2265   23.5014 N   0  0  0  0  0  0  0  0  0  0  0  0
    7.1719  -19.5846   24.9401 C   0  0  0  0  0  0  0  0  0  0  0  0
    8.3280  -19.7471   24.4896 O   0  0  0  0  0  0  0  0  0  0  0  0
    7.3589  -15.9314   25.8544 C   0  0  0  0  0  0  0  0  0  0  0  0
    7.9438  -17.3292   25.6397 C   0  0  2  0  0  0  0  0  0  0  0  0
    6.8922  -18.3135   25.5229 N   0  0  0  0  0  0  0  0  0  0  0  0
    8.8047  -17.6089   26.8030 C   0  0  0  0  0  0  0  0  0  0  0  0
    9.8221  -16.8986   27.0052 O   0  0  0  0  0  0  0  0  0  0  0  0
    8.4735  -18.6491   27.6483 O   0  0  0  0  0  0  0  0  0  0  0  0
  1  2  1  0
  2  3  1  0
  3 11  1  0
  3  4  2  0
  5  6  1  0
  6  7  2  0
  8  9  1  0
  8  6  1  0
 10  9  1  1
 11 10  1  0
 12 10  1  0
 12 16  1  0
 13 12  2  0
 15 16  1  0
 15 17  1  0
 15 14  1  1
 17 19  1  0
 18 17  2  0
M  END
$$$$
