CPI.pdb
     RDKit          3D

 22 22  0  0  1  0  0  0  0  0999 V2000
   19.0264  -10.7780  -15.2589 N   0  0  0  0  0  0  0  0  0  0  0  0
   19.0808   -9.3709  -15.0483 C   0  0  1  0  0  0  0  0  0  0  0  0
   18.0993   -8.6153  -15.9319 C   0  0  0  0  0  0  0  0  0  0  0  0
   18.4159   -8.9360  -17.6834 S   0  0  0  0  0  0  0  0  0  0  0  0
   18.9505   -8.9599  -13.6291 C   0  0  0  0  0  0  0  0  0  0  0  0
   18.3377   -9.7121  -12.7973 O   0  0  0  0  0  0  0  0  0  0  0  0
   19.4795   -7.7461  -13.1187 N   0  0  0  0  0  0  0  0  0  0  0  0
   20.1620   -6.7595  -13.9109 C   0  0  0  0  0  0  0  0  0  0  0  0
   20.6501   -5.6785  -12.9752 C   0  0  0  0  0  0  0  0  0  0  0  0
   20.5953   -6.3010  -11.5975 C   0  0  0  0  0  0  0  0  0  0  0  0
   19.4457   -7.2728  -11.7715 C   0  0  1  0  0  0  0  0  0  0  0  0
   18.2053   -6.5202  -11.4564 C   0  0  0  0  0  0  0  0  0  0  0  0
   17.6977   -5.8341  -12.3802 O   0  0  0  0  0  0  0  0  0  0  0  0
   14.2719   -9.1330   -9.2734 C   0  0  0  0  0  0  0  0  0  0  0  0
   15.0708   -8.1058   -9.9974 C   0  0  0  0  0  0  0  0  0  0  0  0
   15.3646   -6.8432   -9.2734 C   0  0  2  0  0  0  0  0  0  0  0  0
   14.1556   -6.2603   -8.5857 C   0  0  0  0  0  0  0  0  0  0  0  0
   16.2600   -5.9060   -9.9489 C   0  0  2  0  0  0  0  0  0  0  0  0
   17.5853   -6.5442  -10.1849 N   0  0  0  0  0  0  0  0  0  0  0  0
   16.4352   -4.6263   -9.2695 C   0  0  0  0  0  0  0  0  0  0  0  0
   15.5093   -3.7517   -9.4433 O   0  0  0  0  0  0  0  0  0  0  0  0
   17.4767   -4.2613   -8.4611 O   0  0  0  0  0  0  0  0  0  0  0  0
  2  1  1  1
  2  5  1  0
  2  3  1  0
  3  4  1  0
  5  6  2  0
  7  5  1  0
  7 11  1  0
  8  7  1  0
  9 10  1  0
  9  8  1  0
 10 11  1  0
 11 12  1  6
 12 19  1  0
 12 13  2  0
 14 15  1  0
 15 16  1  0
 16 17  1  6
 18 16  1  0
 18 19  1  1
 20 18  1  0
 20 22  1  0
 21 20  2  0
M  END
$$$$
