CPI.pdb
     RDKit          3D

 22 22  0  0  1  0  0  0  0  0999 V2000
   25.5429  -20.3069   -8.1129 N   0  0  0  0  0  0  0  0  0  0  0  0
   25.7022  -20.9305   -9.3829 C   0  0  1  0  0  0  0  0  0  0  0  0
   24.3797  -21.4121   -9.9609 C   0  0  0  0  0  0  0  0  0  0  0  0
   24.6177  -22.1949  -11.5737 S   0  0  0  0  0  0  0  0  0  0  0  0
   26.4560  -20.1208  -10.3710 C   0  0  0  0  0  0  0  0  0  0  0  0
   26.0951  -18.9217  -10.6263 O   0  0  0  0  0  0  0  0  0  0  0  0
   27.5885  -20.6074  -11.0740 N   0  0  0  0  0  0  0  0  0  0  0  0
   28.2158  -21.8770  -10.8264 C   0  0  0  0  0  0  0  0  0  0  0  0
   29.4374  -21.9644  -11.7109 C   0  0  0  0  0  0  0  0  0  0  0  0
   29.7115  -20.5398  -12.1396 C   0  0  0  0  0  0  0  0  0  0  0  0
   28.3093  -19.9655  -12.1269 C   0  0  1  0  0  0  0  0  0  0  0  0
   27.7309  -20.2341  -13.4677 C   0  0  0  0  0  0  0  0  0  0  0  0
   27.3295  -21.4037  -13.6979 O   0  0  0  0  0  0  0  0  0  0  0  0
   23.2410  -18.4834  -15.4778 C   0  0  0  0  0  0  0  0  0  0  0  0
   24.4455  -17.6924  -15.8532 C   0  0  0  0  0  0  0  0  0  0  0  0
   25.6794  -17.9210  -15.0596 C   0  0  2  0  0  0  0  0  0  0  0  0
   26.4979  -16.6694  -14.8646 C   0  0  0  0  0  0  0  0  0  0  0  0
   26.4104  -19.1541  -15.3449 C   0  0  2  0  0  0  0  0  0  0  0  0
   27.6162  -19.2472  -14.4749 N   0  0  0  0  0  0  0  0  0  0  0  0
   26.7877  -19.3346  -16.7431 C   0  0  0  0  0  0  0  0  0  0  0  0
   27.8506  -18.7268  -17.1347 O   0  0  0  0  0  0  0  0  0  0  0  0
   26.1345  -20.0881  -17.6795 O   0  0  0  0  0  0  0  0  0  0  0  0
  2  1  1  1
  2  5  1  0
  2  3  1  0
  3  4  1  0
  5  6  2  0
  7  5  1  0
  7 11  1  0
  8  7  1  0
  9 10  1  0
  9  8  1  0
 10 11  1  0
 11 12  1  6
 12 19  1  0
 12 13  2  0
 14 15  1  0
 15 16  1  0
 16 17  1  6
 18 16  1  0
 18 19  1  1
 20 18  1  0
 20 22  1  0
 21 20  2  0
M  END
$$$$
