CPI.pdb
     RDKit          3D

 22 22  0  0  1  0  0  0  0  0999 V2000
   23.8007  -21.7598  -12.4417 N   0  0  0  0  0  0  0  0  0  0  0  0
   24.8578  -20.8620  -12.1194 C   0  0  1  0  0  0  0  0  0  0  0  0
   24.3825  -19.4198  -12.0223 C   0  0  0  0  0  0  0  0  0  0  0  0
   23.8809  -18.7865  -13.6402 S   0  0  0  0  0  0  0  0  0  0  0  0
   25.6449  -21.2488  -10.9233 C   0  0  0  0  0  0  0  0  0  0  0  0
   25.0671  -21.8032   -9.9272 O   0  0  0  0  0  0  0  0  0  0  0  0
   27.0432  -21.0362  -10.8096 N   0  0  0  0  0  0  0  0  0  0  0  0
   27.8462  -20.3628  -11.7937 C   0  0  0  0  0  0  0  0  0  0  0  0
   29.2852  -20.4383  -11.3403 C   0  0  0  0  0  0  0  0  0  0  0  0
   29.3098  -21.5377  -10.3014 C   0  0  0  0  0  0  0  0  0  0  0  0
   27.9060  -21.4295   -9.7414 C   0  0  1  0  0  0  0  0  0  0  0  0
   27.9637  -20.4262   -8.6485 C   0  0  0  0  0  0  0  0  0  0  0  0
   27.6709  -19.2385   -8.9411 O   0  0  0  0  0  0  0  0  0  0  0  0
   26.3895  -22.0996   -3.7249 C   0  0  0  0  0  0  0  0  0  0  0  0
   26.6530  -21.2932   -4.9488 C   0  0  0  0  0  0  0  0  0  0  0  0
   27.8823  -20.4606   -4.9589 C   0  0  2  0  0  0  0  0  0  0  0  0
   28.0836  -19.6870   -3.6801 C   0  0  0  0  0  0  0  0  0  0  0  0
   28.1794  -19.7645   -6.2093 C   0  0  2  0  0  0  0  0  0  0  0  0
   28.3273  -20.7470   -7.3193 N   0  0  0  0  0  0  0  0  0  0  0  0
   29.3436  -18.8858   -6.1611 C   0  0  0  0  0  0  0  0  0  0  0  0
   30.4704  -19.4057   -6.4965 O   0  0  0  0  0  0  0  0  0  0  0  0
   29.3620  -17.5653   -5.8041 O   0  0  0  0  0  0  0  0  0  0  0  0
  2  1  1  1
  2  5  1  0
  2  3  1  0
  3  4  1  0
  5  6  2  0
  7  5  1  0
  7 11  1  0
  8  7  1  0
  9 10  1  0
  9  8  1  0
 10 11  1  0
 11 12  1  1
 12 19  1  0
 12 13  2  0
 14 15  1  0
 15 16  1  0
 16 17  1  1
 18 16  1  0
 18 19  1  6
 20 18  1  0
 20 22  1  0
 21 20  2  0
M  END
$$$$
