CPI.pdb
     RDKit          3D

 22 22  0  0  1  0  0  0  0  0999 V2000
   24.1986  -22.9564  -13.3776 N   0  0  0  0  0  0  0  0  0  0  0  0
   24.6853  -21.7653  -12.7680 C   0  0  1  0  0  0  0  0  0  0  0  0
   23.5681  -20.9239  -12.1688 C   0  0  0  0  0  0  0  0  0  0  0  0
   22.2406  -20.6515  -13.3663 S   0  0  0  0  0  0  0  0  0  0  0  0
   25.7774  -21.9824  -11.7883 C   0  0  0  0  0  0  0  0  0  0  0  0
   25.7291  -22.9739  -10.9833 O   0  0  0  0  0  0  0  0  0  0  0  0
   26.9092  -21.1329  -11.6834 N   0  0  0  0  0  0  0  0  0  0  0  0
   27.2015  -20.0523  -12.5855 C   0  0  0  0  0  0  0  0  0  0  0  0
   28.5368  -19.4702  -12.1853 C   0  0  0  0  0  0  0  0  0  0  0  0
   29.1762  -20.5257  -11.3104 C   0  0  0  0  0  0  0  0  0  0  0  0
   27.9477  -21.1727  -10.7036 C   0  0  1  0  0  0  0  0  0  0  0  0
   27.6187  -20.3927   -9.4838 C   0  0  0  0  0  0  0  0  0  0  0  0
   26.5355  -19.7534   -9.4837 O   0  0  0  0  0  0  0  0  0  0  0  0
   31.1222  -21.4173   -5.1900 C   0  0  0  0  0  0  0  0  0  0  0  0
   29.8670  -21.4979   -5.9872 C   0  0  0  0  0  0  0  0  0  0  0  0
   28.9866  -20.3023   -5.9857 C   0  0  2  0  0  0  0  0  0  0  0  0
   28.6582  -19.8110   -4.5982 C   0  0  0  0  0  0  0  0  0  0  0  0
   27.9013  -20.2995   -6.9648 C   0  0  2  0  0  0  0  0  0  0  0  0
   28.4580  -20.3416   -8.3459 N   0  0  0  0  0  0  0  0  0  0  0  0
   26.9628  -19.1891   -6.8377 C   0  0  0  0  0  0  0  0  0  0  0  0
   27.2165  -18.1394   -7.5351 O   0  0  0  0  0  0  0  0  0  0  0  0
   25.8375  -19.1494   -6.0610 O   0  0  0  0  0  0  0  0  0  0  0  0
  2  1  1  1
  2  5  1  0
  2  3  1  0
  3  4  1  0
  5  6  2  0
  7  5  1  0
  7 11  1  0
  8  7  1  0
  9 10  1  0
  9  8  1  0
 10 11  1  0
 11 12  1  1
 12 19  1  0
 12 13  2  0
 14 15  1  0
 15 16  1  0
 16 17  1  1
 18 16  1  0
 18 19  1  6
 20 18  1  0
 20 22  1  0
 21 20  2  0
M  END
$$$$
