CPI.pdb
     RDKit          3D

 22 22  0  0  1  0  0  0  0  0999 V2000
   22.6083  -14.8092  -21.2480 N   0  0  0  0  0  0  0  0  0  0  0  0
   21.8237  -13.6480  -20.9966 C   0  0  1  0  0  0  0  0  0  0  0  0
   20.5440  -13.9676  -20.2380 C   0  0  0  0  0  0  0  0  0  0  0  0
   19.5854  -15.2473  -21.0831 S   0  0  0  0  0  0  0  0  0  0  0  0
   22.5654  -12.5368  -20.3524 C   0  0  0  0  0  0  0  0  0  0  0  0
   23.6215  -12.7788  -19.6746 O   0  0  0  0  0  0  0  0  0  0  0  0
   22.1654  -11.1784  -20.4430 N   0  0  0  0  0  0  0  0  0  0  0  0
   20.9838  -10.7221  -21.1229 C   0  0  0  0  0  0  0  0  0  0  0  0
   20.9800   -9.2123  -21.0714 C   0  0  0  0  0  0  0  0  0  0  0  0
   22.4013   -8.8302  -20.7217 C   0  0  0  0  0  0  0  0  0  0  0  0
   22.8241  -10.0324  -19.9018 C   0  0  1  0  0  0  0  0  0  0  0  0
   22.4264   -9.7482  -18.4998 C   0  0  0  0  0  0  0  0  0  0  0  0
   21.2644  -10.0811  -18.1521 O   0  0  0  0  0  0  0  0  0  0  0  0
   26.3982  -10.4241  -14.7284 C   0  0  0  0  0  0  0  0  0  0  0  0
   25.4350   -9.9338  -15.7527 C   0  0  0  0  0  0  0  0  0  0  0  0
   23.9951  -10.2046  -15.5120 C   0  0  2  0  0  0  0  0  0  0  0  0
   23.6418  -11.6667  -15.6202 C   0  0  0  0  0  0  0  0  0  0  0  0
   23.0534   -9.2496  -16.0931 C   0  0  2  0  0  0  0  0  0  0  0  0
   23.2850   -9.1307  -17.5599 N   0  0  0  0  0  0  0  0  0  0  0  0
   23.0619   -7.9267  -15.4768 C   0  0  0  0  0  0  0  0  0  0  0  0
   22.5306   -7.8328  -14.3100 O   0  0  0  0  0  0  0  0  0  0  0  0
   23.5819   -6.7774  -16.0058 O   0  0  0  0  0  0  0  0  0  0  0  0
  2  1  1  1
  2  5  1  0
  2  3  1  0
  3  4  1  0
  5  6  2  0
  7  5  1  0
  7 11  1  0
  8  7  1  0
  9 10  1  0
  9  8  1  0
 10 11  1  0
 11 12  1  1
 12 19  1  0
 12 13  2  0
 14 15  1  0
 15 16  1  0
 16 17  1  6
 18 16  1  0
 18 19  1  6
 20 18  1  0
 20 22  1  0
 21 20  2  0
M  END
$$$$
