CPI.pdb
     RDKit          3D

 22 22  0  0  1  0  0  0  0  0999 V2000
   26.8456  -19.0932  -16.9254 N   0  0  0  0  0  0  0  0  0  0  0  0
   27.1079  -18.7991  -15.5572 C   0  0  1  0  0  0  0  0  0  0  0  0
   26.2374  -17.6673  -15.0315 C   0  0  0  0  0  0  0  0  0  0  0  0
   26.6289  -17.2883  -13.3071 S   0  0  0  0  0  0  0  0  0  0  0  0
   27.0559  -19.9775  -14.6579 C   0  0  0  0  0  0  0  0  0  0  0  0
   26.1190  -20.8378  -14.7819 O   0  0  0  0  0  0  0  0  0  0  0  0
   28.0099  -20.2192  -13.6357 N   0  0  0  0  0  0  0  0  0  0  0  0
   28.9250  -19.2337  -13.1277 C   0  0  0  0  0  0  0  0  0  0  0  0
   29.8292  -19.9192  -12.1304 C   0  0  0  0  0  0  0  0  0  0  0  0
   29.6735  -21.3970  -12.4140 C   0  0  0  0  0  0  0  0  0  0  0  0
   28.2494  -21.4378  -12.9301 C   0  0  1  0  0  0  0  0  0  0  0  0
   27.3740  -21.5965  -11.7415 C   0  0  0  0  0  0  0  0  0  0  0  0
   27.3921  -22.7104  -11.1575 O   0  0  0  0  0  0  0  0  0  0  0  0
   27.4726  -19.3608   -7.2864 C   0  0  0  0  0  0  0  0  0  0  0  0
   27.0806  -20.2880   -8.3837 C   0  0  0  0  0  0  0  0  0  0  0  0
   25.7560  -20.0654   -9.0168 C   0  0  2  0  0  0  0  0  0  0  0  0
   24.6340  -19.9486   -8.0159 C   0  0  0  0  0  0  0  0  0  0  0  0
   25.4848  -20.8322  -10.2312 C   0  0  2  0  0  0  0  0  0  0  0  0
   26.5382  -20.5659  -11.2504 N   0  0  0  0  0  0  0  0  0  0  0  0
   24.1628  -20.6169  -10.8107 C   0  0  0  0  0  0  0  0  0  0  0  0
   24.1091  -19.8782  -11.8614 O   0  0  0  0  0  0  0  0  0  0  0  0
   22.9753  -21.1240  -10.3589 O   0  0  0  0  0  0  0  0  0  0  0  0
  2  1  1  6
  2  5  1  0
  2  3  1  0
  3  4  1  0
  5  6  2  0
  7  5  1  0
  7 11  1  0
  8  7  1  0
  9 10  1  0
  9  8  1  0
 10 11  1  0
 11 12  1  1
 12 19  1  0
 12 13  2  0
 14 15  1  0
 15 16  1  0
 16 17  1  1
 18 16  1  0
 18 19  1  6
 20 18  1  0
 20 22  1  0
 21 20  2  0
M  END
$$$$
