CPI.pdb
     RDKit          3D

 22 22  0  0  1  0  0  0  0  0999 V2000
   14.0868  -24.4274    0.4046 N   0  0  0  0  0  0  0  0  0  0  0  0
   14.9291  -23.2805    0.4543 C   0  0  1  0  0  0  0  0  0  0  0  0
   14.8757  -22.4673   -0.8306 C   0  0  0  0  0  0  0  0  0  0  0  0
   15.7145  -23.3263   -2.1831 S   0  0  0  0  0  0  0  0  0  0  0  0
   14.7188  -22.4189    1.6431 C   0  0  0  0  0  0  0  0  0  0  0  0
   13.5609  -22.3351    2.1776 O   0  0  0  0  0  0  0  0  0  0  0  0
   15.7536  -21.6569    2.2449 N   0  0  0  0  0  0  0  0  0  0  0  0
   17.0947  -21.5618    1.7361 C   0  0  0  0  0  0  0  0  0  0  0  0
   17.8999  -20.7428    2.7176 C   0  0  0  0  0  0  0  0  0  0  0  0
   17.0839  -20.7475    3.9914 C   0  0  0  0  0  0  0  0  0  0  0  0
   15.6815  -20.8613    3.4289 C   0  0  1  0  0  0  0  0  0  0  0  0
   15.2191  -19.4755    3.1643 C   0  0  0  0  0  0  0  0  0  0  0  0
   15.5788  -18.9452    2.0819 O   0  0  0  0  0  0  0  0  0  0  0  0
   10.2135  -18.4811    4.0063 C   0  0  0  0  0  0  0  0  0  0  0  0
   11.6486  -18.4824    3.6090 C   0  0  0  0  0  0  0  0  0  0  0  0
   12.4623  -17.3063    4.0082 C   0  0  2  0  0  0  0  0  0  0  0  0
   11.7808  -15.9913    3.7241 C   0  0  0  0  0  0  0  0  0  0  0  0
   13.8939  -17.3865    3.7249 C   0  0  2  0  0  0  0  0  0  0  0  0
   14.4070  -18.7438    4.0626 N   0  0  0  0  0  0  0  0  0  0  0  0
   14.7074  -16.3673    4.3801 C   0  0  0  0  0  0  0  0  0  0  0  0
   14.6060  -15.1699    3.9236 O   0  0  0  0  0  0  0  0  0  0  0  0
   15.5610  -16.5495    5.4335 O   0  0  0  0  0  0  0  0  0  0  0  0
  2  1  1  6
  2  5  1  0
  2  3  1  0
  3  4  1  0
  5  6  2  0
  7  5  1  0
  7 11  1  0
  8  7  1  0
  9 10  1  0
  9  8  1  0
 10 11  1  0
 11 12  1  6
 12 19  1  0
 12 13  2  0
 14 15  1  0
 15 16  1  0
 16 17  1  6
 18 16  1  0
 18 19  1  1
 20 18  1  0
 20 22  1  0
 21 20  2  0
M  END
$$$$
