CPI.pdb
     RDKit          3D

 22 22  0  0  1  0  0  0  0  0999 V2000
   18.2493  -11.4230  -17.7683 N   0  0  0  0  0  0  0  0  0  0  0  0
   19.1666  -10.3712  -18.0500 C   0  0  1  0  0  0  0  0  0  0  0  0
   18.5295   -9.2478  -18.8544 C   0  0  0  0  0  0  0  0  0  0  0  0
   17.9914   -9.8312  -20.4794 S   0  0  0  0  0  0  0  0  0  0  0  0
   19.8749   -9.8427  -16.8589 C   0  0  0  0  0  0  0  0  0  0  0  0
   19.2724   -9.7705  -15.7342 O   0  0  0  0  0  0  0  0  0  0  0  0
   21.2220   -9.3975  -16.8883 N   0  0  0  0  0  0  0  0  0  0  0  0
   22.0887   -9.5031  -18.0304 C   0  0  0  0  0  0  0  0  0  0  0  0
   23.4552   -9.0103  -17.6155 C   0  0  0  0  0  0  0  0  0  0  0  0
   23.4347   -9.0310  -16.1030 C   0  0  0  0  0  0  0  0  0  0  0  0
   21.9644   -8.7794  -15.8362 C   0  0  1  0  0  0  0  0  0  0  0  0
   21.7887   -7.3057  -15.7962 C   0  0  0  0  0  0  0  0  0  0  0  0
   21.7972   -6.6946  -16.8955 O   0  0  0  0  0  0  0  0  0  0  0  0
   17.5300   -5.2660  -14.5389 C   0  0  0  0  0  0  0  0  0  0  0  0
   18.9278   -5.3882  -15.0375 C   0  0  0  0  0  0  0  0  0  0  0  0
   20.0027   -4.8225  -14.1837 C   0  0  2  0  0  0  0  0  0  0  0  0
   19.7076   -3.4209  -13.7118 C   0  0  0  0  0  0  0  0  0  0  0  0
   21.3744   -5.1074  -14.6005 C   0  0  2  0  0  0  0  0  0  0  0  0
   21.6159   -6.5774  -14.5956 N   0  0  0  0  0  0  0  0  0  0  0  0
   22.4059   -4.4288  -13.8224 C   0  0  0  0  0  0  0  0  0  0  0  0
   22.6903   -3.2248  -14.1714 O   0  0  0  0  0  0  0  0  0  0  0  0
   23.0970   -4.9353  -12.7560 O   0  0  0  0  0  0  0  0  0  0  0  0
  2  1  1  1
  2  5  1  0
  2  3  1  0
  3  4  1  0
  5  6  2  0
  7  5  1  0
  7 11  1  0
  8  7  1  0
  9 10  1  0
  9  8  1  0
 10 11  1  0
 11 12  1  6
 12 19  1  0
 12 13  2  0
 14 15  1  0
 15 16  1  0
 16 17  1  6
 18 16  1  0
 18 19  1  1
 20 18  1  0
 20 22  1  0
 21 20  2  0
M  END
$$$$
