CPI.pdb
     RDKit          3D

 22 22  0  0  1  0  0  0  0  0999 V2000
   21.4411  -17.7696  -16.7887 N   0  0  0  0  0  0  0  0  0  0  0  0
   20.6469  -16.8973  -15.9916 C   0  0  1  0  0  0  0  0  0  0  0  0
   20.8925  -17.0900  -14.5024 C   0  0  0  0  0  0  0  0  0  0  0  0
   20.7648  -18.8334  -14.0391 S   0  0  0  0  0  0  0  0  0  0  0  0
   20.7430  -15.4664  -16.3700 C   0  0  0  0  0  0  0  0  0  0  0  0
   21.8457  -14.9917  -16.8082 O   0  0  0  0  0  0  0  0  0  0  0  0
   19.6545  -14.5610  -16.2739 N   0  0  0  0  0  0  0  0  0  0  0  0
   18.3522  -14.9054  -15.7719 C   0  0  0  0  0  0  0  0  0  0  0  0
   17.4643  -13.6937  -15.9327 C   0  0  0  0  0  0  0  0  0  0  0  0
   18.1861  -12.8102  -16.9261 C   0  0  0  0  0  0  0  0  0  0  0  0
   19.6273  -13.1806  -16.6397 C   0  0  1  0  0  0  0  0  0  0  0  0
   20.0838  -12.2860  -15.5462 C   0  0  0  0  0  0  0  0  0  0  0  0
   19.6691  -12.5372  -14.3856 O   0  0  0  0  0  0  0  0  0  0  0  0
   24.9594  -12.0862  -14.8752 C   0  0  0  0  0  0  0  0  0  0  0  0
   23.4799  -11.9203  -14.8445 C   0  0  0  0  0  0  0  0  0  0  0  0
   22.9573  -10.5598  -14.5607 C   0  0  2  0  0  0  0  0  0  0  0  0
   23.6778   -9.8736  -13.4275 C   0  0  0  0  0  0  0  0  0  0  0  0
   21.5052  -10.4024  -14.6158 C   0  0  2  0  0  0  0  0  0  0  0  0
   20.9484  -11.1856  -15.7542 N   0  0  0  0  0  0  0  0  0  0  0  0
   21.0396   -9.0209  -14.6843 C   0  0  0  0  0  0  0  0  0  0  0  0
   20.9360   -8.5069  -15.8580 O   0  0  0  0  0  0  0  0  0  0  0  0
   20.6945   -8.2172  -13.6325 O   0  0  0  0  0  0  0  0  0  0  0  0
  2  1  1  6
  2  5  1  0
  2  3  1  0
  3  4  1  0
  5  6  2  0
  7  5  1  0
  7 11  1  0
  8  7  1  0
  9 10  1  0
  9  8  1  0
 10 11  1  0
 11 12  1  1
 12 19  1  0
 12 13  2  0
 14 15  1  0
 15 16  1  0
 16 17  1  1
 18 16  1  0
 18 19  1  6
 20 18  1  0
 20 22  1  0
 21 20  2  0
M  END
$$$$
