CPI.pdb
     RDKit          3D

 22 22  0  0  1  0  0  0  0  0999 V2000
   14.5505  -10.2288  -15.9109 N   0  0  0  0  0  0  0  0  0  0  0  0
   14.8849   -8.9823  -15.3096 C   0  0  1  0  0  0  0  0  0  0  0  0
   14.7819   -9.0259  -13.7921 C   0  0  0  0  0  0  0  0  0  0  0  0
   13.1507   -9.6007  -13.2638 S   0  0  0  0  0  0  0  0  0  0  0  0
   16.1895   -8.4253  -15.7426 C   0  0  0  0  0  0  0  0  0  0  0  0
   17.1050   -9.2023  -16.1803 O   0  0  0  0  0  0  0  0  0  0  0  0
   16.4970   -7.0406  -15.7010 N   0  0  0  0  0  0  0  0  0  0  0  0
   15.5666   -6.0119  -15.3230 C   0  0  0  0  0  0  0  0  0  0  0  0
   16.2558   -4.6804  -15.5083 C   0  0  0  0  0  0  0  0  0  0  0  0
   17.4400   -4.9752  -16.4023 C   0  0  0  0  0  0  0  0  0  0  0  0
   17.7394   -6.4085  -16.0123 C   0  0  1  0  0  0  0  0  0  0  0  0
   18.6609   -6.3461  -14.8499 C   0  0  0  0  0  0  0  0  0  0  0  0
   18.1490   -6.4298  -13.7040 O   0  0  0  0  0  0  0  0  0  0  0  0
   23.1367   -9.7314  -13.3649 C   0  0  0  0  0  0  0  0  0  0  0  0
   22.4840   -8.4209  -13.0929 C   0  0  0  0  0  0  0  0  0  0  0  0
   21.6221   -7.8592  -14.1635 C   0  0  2  0  0  0  0  0  0  0  0  0
   22.1973   -8.0454  -15.5450 C   0  0  0  0  0  0  0  0  0  0  0  0
   20.9917   -6.5724  -13.8751 C   0  0  2  0  0  0  0  0  0  0  0  0
   20.0623   -6.1992  -14.9779 N   0  0  0  0  0  0  0  0  0  0  0  0
   21.9215   -5.4783  -13.6132 C   0  0  0  0  0  0  0  0  0  0  0  0
   22.2693   -4.7651  -14.6246 O   0  0  0  0  0  0  0  0  0  0  0  0
   22.4563   -5.1264  -12.4043 O   0  0  0  0  0  0  0  0  0  0  0  0
  2  1  1  1
  2  5  1  0
  2  3  1  0
  3  4  1  0
  5  6  2  0
  7  5  1  0
  7 11  1  0
  8  7  1  0
  9 10  1  0
  9  8  1  0
 10 11  1  0
 11 12  1  1
 12 19  1  0
 12 13  2  0
 14 15  1  0
 15 16  1  0
 16 17  1  6
 18 16  1  0
 18 19  1  6
 20 18  1  0
 20 22  1  0
 21 20  2  0
M  END
$$$$
