CPI.pdb
     RDKit          3D

 22 22  0  0  1  0  0  0  0  0999 V2000
   19.2285  -14.4940  -16.2651 N   0  0  0  0  0  0  0  0  0  0  0  0
   20.1197  -13.4389  -16.6110 C   0  0  1  0  0  0  0  0  0  0  0  0
   20.0463  -13.0804  -18.0879 C   0  0  0  0  0  0  0  0  0  0  0  0
   20.5727  -14.4661  -19.1239 S   0  0  0  0  0  0  0  0  0  0  0  0
   19.9966  -12.2309  -15.7594 C   0  0  0  0  0  0  0  0  0  0  0  0
   18.8547  -11.8806  -15.3046 O   0  0  0  0  0  0  0  0  0  0  0  0
   21.1003  -11.4123  -15.4054 N   0  0  0  0  0  0  0  0  0  0  0  0
   22.4560  -11.6512  -15.8198 C   0  0  0  0  0  0  0  0  0  0  0  0
   23.3289  -10.6162  -15.1497 C   0  0  0  0  0  0  0  0  0  0  0  0
   22.4852  -10.0660  -14.0210 C   0  0  0  0  0  0  0  0  0  0  0  0
   21.0946  -10.2332  -14.5993 C   0  0  1  0  0  0  0  0  0  0  0  0
   20.8117   -9.0028  -15.3807 C   0  0  0  0  0  0  0  0  0  0  0  0
   21.3006   -8.9300  -16.5373 O   0  0  0  0  0  0  0  0  0  0  0  0
   16.8058   -6.1097  -17.9112 C   0  0  0  0  0  0  0  0  0  0  0  0
   17.5062   -5.7262  -16.6542 C   0  0  0  0  0  0  0  0  0  0  0  0
   18.1131   -6.8216  -15.8565 C   0  0  2  0  0  0  0  0  0  0  0  0
   17.3517   -7.1233  -14.5902 C   0  0  0  0  0  0  0  0  0  0  0  0
   19.5721   -6.8243  -15.7702 C   0  0  2  0  0  0  0  0  0  0  0  0
   20.0303   -7.9321  -14.8858 N   0  0  0  0  0  0  0  0  0  0  0  0
   20.1639   -5.5623  -15.3379 C   0  0  0  0  0  0  0  0  0  0  0  0
   20.2253   -4.6256  -16.2161 O   0  0  0  0  0  0  0  0  0  0  0  0
   20.6534   -5.2676  -14.0949 O   0  0  0  0  0  0  0  0  0  0  0  0
  2  1  1  1
  2  5  1  0
  2  3  1  0
  3  4  1  0
  5  6  2  0
  7  5  1  0
  7 11  1  0
  8  7  1  0
  9 10  1  0
  9  8  1  0
 10 11  1  0
 11 12  1  6
 12 19  1  0
 12 13  2  0
 14 15  1  0
 15 16  1  0
 16 17  1  1
 18 16  1  0
 18 19  1  1
 20 18  1  0
 20 22  1  0
 21 20  2  0
M  END
$$$$
