VCC.pdb
     RDKit          3D

 20 19  0  0  1  0  0  0  0  0999 V2000
   17.4077   -9.9670  -13.4794 C   0  0  0  0  0  0  0  0  0  0  0  0
   16.4012  -11.0228  -13.7992 C   0  0  1  0  0  0  0  0  0  0  0  0
   17.0734  -12.1573  -14.5007 C   0  0  0  0  0  0  0  0  0  0  0  0
   15.6218  -11.4642  -12.5702 C   0  0  2  0  0  0  0  0  0  0  0  0
   14.7536  -12.5586  -12.8998 N   0  0  0  0  0  0  0  0  0  0  0  0
   14.8576  -10.2899  -12.0493 C   0  0  0  0  0  0  0  0  0  0  0  0
   14.0644   -9.6369  -12.7736 O   0  0  0  0  0  0  0  0  0  0  0  0
   15.0423   -9.9104  -10.6921 N   0  0  0  0  0  0  0  0  0  0  0  0
   14.3767   -8.8204  -10.0633 C   0  0  1  0  0  0  0  0  0  0  0  0
   13.5434   -9.3580   -8.9036 C   0  0  0  0  0  0  0  0  0  0  0  0
   12.2870  -10.4957   -9.5343 S   0  0  0  0  0  0  0  0  0  0  0  0
   15.2550   -7.7452   -9.5987 C   0  0  0  0  0  0  0  0  0  0  0  0
   16.3086   -7.8978   -8.9369 O   0  0  0  0  0  0  0  0  0  0  0  0
   14.8899   -6.4061   -9.9211 N   0  0  0  0  0  0  0  0  0  0  0  0
   15.7208   -5.2992   -9.4891 C   0  0  1  0  0  0  0  0  0  0  0  0
   16.5380   -4.7424  -10.6397 C   0  0  0  0  0  0  0  0  0  0  0  0
   17.2970   -3.1680  -10.2262 S   0  0  0  0  0  0  0  0  0  0  0  0
   14.8225   -4.2358   -8.9684 C   0  0  0  0  0  0  0  0  0  0  0  0
   15.2018   -3.3876   -7.9271 O   0  0  0  0  0  0  0  0  0  0  0  0
   13.6718   -4.0540   -9.4488 O   0  0  0  0  0  0  0  0  0  0  0  0
  2  1  1  1
  2  3  1  0
  4  2  1  0
  4  5  1  6
  6  4  1  0
  7  6  2  0
  8  6  1  0
  9 12  1  0
  9  8  1  0
  9 10  1  1
 11 10  1  0
 12 14  1  0
 13 12  2  0
 14 15  1  0
 15 16  1  6
 16 17  1  0
 18 15  1  0
 18 19  1  0
 20 18  2  0
M  END
$$$$
