VCC.pdb
     RDKit          3D

 20 19  0  0  1  0  0  0  0  0999 V2000
   24.1242  -33.2922  -15.7784 C   0  0  0  0  0  0  0  0  0  0  0  0
   25.1939  -32.8238  -16.7092 C   0  0  1  0  0  0  0  0  0  0  0  0
   24.5748  -32.0825  -17.8486 C   0  0  0  0  0  0  0  0  0  0  0  0
   26.2671  -32.0196  -15.9922 C   0  0  2  0  0  0  0  0  0  0  0  0
   27.3665  -31.7591  -16.8774 N   0  0  0  0  0  0  0  0  0  0  0  0
   26.7005  -32.7839  -14.7829 C   0  0  0  0  0  0  0  0  0  0  0  0
   27.3884  -33.8324  -14.8687 O   0  0  0  0  0  0  0  0  0  0  0  0
   26.3164  -32.2998  -13.5029 N   0  0  0  0  0  0  0  0  0  0  0  0
   26.6588  -32.9240  -12.2702 C   0  0  1  0  0  0  0  0  0  0  0  0
   26.7758  -31.8499  -11.1927 C   0  0  0  0  0  0  0  0  0  0  0  0
   28.2710  -30.8711  -11.4704 S   0  0  0  0  0  0  0  0  0  0  0  0
   25.7405  -33.9780  -11.8353 C   0  0  0  0  0  0  0  0  0  0  0  0
   24.4891  -33.9190  -11.8770 O   0  0  0  0  0  0  0  0  0  0  0  0
   26.3078  -35.1787  -11.3185 N   0  0  0  0  0  0  0  0  0  0  0  0
   25.4505  -36.2780  -10.9198 C   0  0  1  0  0  0  0  0  0  0  0  0
   25.9236  -37.5898  -11.5174 C   0  0  0  0  0  0  0  0  0  0  0  0
   24.6059  -38.8075  -11.5961 S   0  0  0  0  0  0  0  0  0  0  0  0
   25.4959  -36.3721   -9.4373 C   0  0  0  0  0  0  0  0  0  0  0  0
   24.4480  -36.9193   -8.6956 O   0  0  0  0  0  0  0  0  0  0  0  0
   26.4900  -35.9585   -8.7825 O   0  0  0  0  0  0  0  0  0  0  0  0
  2  1  1  1
  2  3  1  0
  4  2  1  0
  4  5  1  6
  6  4  1  0
  7  6  2  0
  8  6  1  0
  9 12  1  0
  9  8  1  0
  9 10  1  1
 11 10  1  0
 12 14  1  0
 13 12  2  0
 14 15  1  0
 15 16  1  6
 16 17  1  0
 18 15  1  0
 18 19  1  0
 20 18  2  0
M  END
$$$$
