VCC.pdb
     RDKit          3D

 20 19  0  0  1  0  0  0  0  0999 V2000
   26.7403  -18.2002  -15.0653 C   0  0  0  0  0  0  0  0  0  0  0  0
   27.3194  -19.2695  -15.9321 C   0  0  1  0  0  0  0  0  0  0  0  0
   28.3985  -18.6897  -16.7867 C   0  0  0  0  0  0  0  0  0  0  0  0
   27.7837  -20.4729  -15.1265 C   0  0  2  0  0  0  0  0  0  0  0  0
   28.2636  -21.5023  -16.0039 N   0  0  0  0  0  0  0  0  0  0  0  0
   26.6411  -20.9491  -14.2887 C   0  0  0  0  0  0  0  0  0  0  0  0
   25.6261  -21.4924  -14.7934 O   0  0  0  0  0  0  0  0  0  0  0  0
   26.7169  -20.7766  -12.8799 N   0  0  0  0  0  0  0  0  0  0  0  0
   25.6524  -21.0544  -11.9764 C   0  0  1  0  0  0  0  0  0  0  0  0
   26.1581  -20.8634  -10.5495 C   0  0  0  0  0  0  0  0  0  0  0  0
   24.8152  -21.1830   -9.3811 S   0  0  0  0  0  0  0  0  0  0  0  0
   24.4376  -20.2663  -12.1918 C   0  0  0  0  0  0  0  0  0  0  0  0
   24.3482  -19.0201  -12.0898 O   0  0  0  0  0  0  0  0  0  0  0  0
   23.2488  -20.9662  -12.5486 N   0  0  0  0  0  0  0  0  0  0  0  0
   22.0050  -20.2444  -12.7342 C   0  0  1  0  0  0  0  0  0  0  0  0
   21.5648  -20.2704  -14.1859 C   0  0  0  0  0  0  0  0  0  0  0  0
   22.9575  -20.4298  -15.3087 S   0  0  0  0  0  0  0  0  0  0  0  0
   20.9695  -20.9054  -11.8979 C   0  0  0  0  0  0  0  0  0  0  0  0
   19.6762  -20.3952  -11.7766 O   0  0  0  0  0  0  0  0  0  0  0  0
   21.2175  -21.9625  -11.2582 O   0  0  0  0  0  0  0  0  0  0  0  0
  2  1  1  1
  2  3  1  0
  4  2  1  0
  4  5  1  6
  6  4  1  0
  7  6  2  0
  8  6  1  0
  9 12  1  0
  9  8  1  0
  9 10  1  1
 11 10  1  0
 12 14  1  0
 13 12  2  0
 14 15  1  0
 15 16  1  6
 16 17  1  0
 18 15  1  0
 18 19  1  0
 20 18  2  0
M  END
$$$$
