VCC.pdb
     RDKit          3D

 20 19  0  0  1  0  0  0  0  0999 V2000
   22.2287  -12.5962  -21.3024 C   0  0  0  0  0  0  0  0  0  0  0  0
   21.6509  -13.2032  -20.0665 C   0  0  1  0  0  0  0  0  0  0  0  0
   21.7761  -14.6901  -20.1349 C   0  0  0  0  0  0  0  0  0  0  0  0
   22.2557  -12.6151  -18.8012 C   0  0  2  0  0  0  0  0  0  0  0  0
   21.7944  -13.3362  -17.6490 N   0  0  0  0  0  0  0  0  0  0  0  0
   21.8883  -11.1679  -18.7310 C   0  0  0  0  0  0  0  0  0  0  0  0
   22.2179  -10.3527  -19.6293 O   0  0  0  0  0  0  0  0  0  0  0  0
   21.1434  -10.7125  -17.6094 N   0  0  0  0  0  0  0  0  0  0  0  0
   20.7748   -9.3560  -17.3849 C   0  0  1  0  0  0  0  0  0  0  0  0
   19.2948   -9.3045  -17.0173 C   0  0  0  0  0  0  0  0  0  0  0  0
   19.0170  -10.2236  -15.4848 S   0  0  0  0  0  0  0  0  0  0  0  0
   21.5712   -8.6586  -16.3735 C   0  0  0  0  0  0  0  0  0  0  0  0
   22.2137   -9.2047  -15.4461 O   0  0  0  0  0  0  0  0  0  0  0  0
   21.6275   -7.2363  -16.4401 N   0  0  0  0  0  0  0  0  0  0  0  0
   22.2991   -6.4832  -15.3989 C   0  0  1  0  0  0  0  0  0  0  0  0
   23.6407   -5.9596  -15.8761 C   0  0  0  0  0  0  0  0  0  0  0  0
   24.3716   -4.8130  -14.7029 S   0  0  0  0  0  0  0  0  0  0  0  0
   21.4272   -5.3352  -15.0373 C   0  0  0  0  0  0  0  0  0  0  0  0
   21.5054   -4.7061  -13.7940 O   0  0  0  0  0  0  0  0  0  0  0  0
   20.5741   -4.8779  -15.8444 O   0  0  0  0  0  0  0  0  0  0  0  0
  2  1  1  6
  2  3  1  0
  4  2  1  0
  4  5  1  1
  6  4  1  0
  7  6  2  0
  8  6  1  0
  9 12  1  0
  9  8  1  0
  9 10  1  1
 11 10  1  0
 12 14  1  0
 13 12  2  0
 14 15  1  0
 15 16  1  6
 16 17  1  0
 18 15  1  0
 18 19  1  0
 20 18  2  0
M  END
$$$$
