VCC.pdb
     RDKit          3D

 20 19  0  0  1  0  0  0  0  0999 V2000
   24.4098  -26.5775  -17.0804 C   0  0  0  0  0  0  0  0  0  0  0  0
   24.2392  -25.1590  -17.5148 C   0  0  1  0  0  0  0  0  0  0  0  0
   22.9775  -24.6078  -16.9360 C   0  0  0  0  0  0  0  0  0  0  0  0
   25.4592  -24.3096  -17.1938 C   0  0  2  0  0  0  0  0  0  0  0  0
   25.2387  -22.9508  -17.6003 N   0  0  0  0  0  0  0  0  0  0  0  0
   26.6442  -24.9068  -17.8817 C   0  0  0  0  0  0  0  0  0  0  0  0
   26.6647  -25.1033  -19.1231 O   0  0  0  0  0  0  0  0  0  0  0  0
   27.7759  -25.2588  -17.0971 N   0  0  0  0  0  0  0  0  0  0  0  0
   28.9185  -25.9463  -17.5952 C   0  0  1  0  0  0  0  0  0  0  0  0
   30.1366  -25.0380  -17.4555 C   0  0  0  0  0  0  0  0  0  0  0  0
   31.5985  -25.8769  -18.1114 S   0  0  0  0  0  0  0  0  0  0  0  0
   29.1808  -27.2434  -16.9691 C   0  0  0  0  0  0  0  0  0  0  0  0
   29.3606  -27.4397  -15.7442 O   0  0  0  0  0  0  0  0  0  0  0  0
   29.2388  -28.3879  -17.8160 N   0  0  0  0  0  0  0  0  0  0  0  0
   29.4512  -29.7052  -17.2488 C   0  0  1  0  0  0  0  0  0  0  0  0
   28.3752  -30.6771  -17.6955 C   0  0  0  0  0  0  0  0  0  0  0  0
   26.9095  -30.5798  -16.6622 S   0  0  0  0  0  0  0  0  0  0  0  0
   30.7746  -30.1918  -17.7188 C   0  0  0  0  0  0  0  0  0  0  0  0
   31.3291  -31.3896  -17.2654 O   0  0  0  0  0  0  0  0  0  0  0  0
   31.4568  -29.5384  -18.5529 O   0  0  0  0  0  0  0  0  0  0  0  0
  2  1  1  1
  2  3  1  0
  4  2  1  0
  4  5  1  6
  6  4  1  0
  7  6  2  0
  8  6  1  0
  9 12  1  0
  9  8  1  0
  9 10  1  1
 11 10  1  0
 12 14  1  0
 13 12  2  0
 14 15  1  0
 15 16  1  6
 16 17  1  0
 18 15  1  0
 18 19  1  0
 20 18  2  0
M  END
$$$$
