VCC.pdb
     RDKit          3D

 20 19  0  0  1  0  0  0  0  0999 V2000
   18.8674  -13.5232  -15.3041 C   0  0  0  0  0  0  0  0  0  0  0  0
   19.2292  -12.1458  -15.7536 C   0  0  1  0  0  0  0  0  0  0  0  0
   20.5370  -12.1831  -16.4742 C   0  0  0  0  0  0  0  0  0  0  0  0
   18.1211  -11.4987  -16.5697 C   0  0  2  0  0  0  0  0  0  0  0  0
   17.8267  -12.2955  -17.7267 N   0  0  0  0  0  0  0  0  0  0  0  0
   18.5560  -10.1187  -16.9452 C   0  0  0  0  0  0  0  0  0  0  0  0
   19.0969   -9.8688  -18.0520 O   0  0  0  0  0  0  0  0  0  0  0  0
   18.3459   -9.0660  -16.0136 N   0  0  0  0  0  0  0  0  0  0  0  0
   18.5666   -7.6877  -16.2931 C   0  0  1  0  0  0  0  0  0  0  0  0
   17.2722   -7.0828  -16.8286 C   0  0  0  0  0  0  0  0  0  0  0  0
   15.9436   -7.3287  -15.6264 S   0  0  0  0  0  0  0  0  0  0  0  0
   19.0631   -6.9000  -15.1633 C   0  0  0  0  0  0  0  0  0  0  0  0
   18.7771   -7.0915  -13.9580 O   0  0  0  0  0  0  0  0  0  0  0  0
   19.9484   -5.8202  -15.4473 N   0  0  0  0  0  0  0  0  0  0  0  0
   20.5133   -5.0362  -14.3663 C   0  0  1  0  0  0  0  0  0  0  0  0
   22.0214   -4.9301  -14.4928 C   0  0  0  0  0  0  0  0  0  0  0  0
   22.8243   -6.5286  -14.3328 S   0  0  0  0  0  0  0  0  0  0  0  0
   19.9202   -3.6752  -14.4370 C   0  0  0  0  0  0  0  0  0  0  0  0
   20.0191   -2.7665  -13.3824 O   0  0  0  0  0  0  0  0  0  0  0  0
   19.2983   -3.2815  -15.4599 O   0  0  0  0  0  0  0  0  0  0  0  0
  2  1  1  6
  2  3  1  0
  4  2  1  0
  4  5  1  6
  6  4  1  0
  7  6  2  0
  8  6  1  0
  9 12  1  0
  9  8  1  0
  9 10  1  1
 11 10  1  0
 12 14  1  0
 13 12  2  0
 14 15  1  0
 15 16  1  6
 16 17  1  0
 18 15  1  0
 18 19  1  0
 20 18  2  0
M  END
$$$$
