VCC.pdb
     RDKit          3D

 20 19  0  0  1  0  0  0  0  0999 V2000
   24.1037  -11.3726  -14.5937 C   0  0  0  0  0  0  0  0  0  0  0  0
   23.6754  -12.4209  -15.5670 C   0  0  1  0  0  0  0  0  0  0  0  0
   24.3963  -13.6964  -15.2765 C   0  0  0  0  0  0  0  0  0  0  0  0
   22.1643  -12.5890  -15.6019 C   0  0  2  0  0  0  0  0  0  0  0  0
   21.8068  -13.6895  -16.4511 N   0  0  0  0  0  0  0  0  0  0  0  0
   21.5578  -11.3069  -16.0741 C   0  0  0  0  0  0  0  0  0  0  0  0
   21.7693  -10.8552  -17.2279 O   0  0  0  0  0  0  0  0  0  0  0  0
   20.7184  -10.5864  -15.1816 N   0  0  0  0  0  0  0  0  0  0  0  0
   20.0669   -9.3617  -15.5012 C   0  0  1  0  0  0  0  0  0  0  0  0
   18.5598   -9.5586  -15.3668 C   0  0  0  0  0  0  0  0  0  0  0  0
   18.0236  -10.9030  -16.4512 S   0  0  0  0  0  0  0  0  0  0  0  0
   20.4983   -8.2077  -14.7102 C   0  0  0  0  0  0  0  0  0  0  0  0
   20.7159   -8.2089  -13.4758 O   0  0  0  0  0  0  0  0  0  0  0  0
   20.6902   -6.9716  -15.3927 N   0  0  0  0  0  0  0  0  0  0  0  0
   21.2414   -5.8287  -14.6911 C   0  0  1  0  0  0  0  0  0  0  0  0
   22.5428   -5.3705  -15.3222 C   0  0  0  0  0  0  0  0  0  0  0  0
   23.2144   -3.9206  -14.5023 S   0  0  0  0  0  0  0  0  0  0  0  0
   20.2465   -4.7275  -14.7690 C   0  0  0  0  0  0  0  0  0  0  0  0
   20.0534   -3.8258  -13.7214 O   0  0  0  0  0  0  0  0  0  0  0  0
   19.5298   -4.5602  -15.7920 O   0  0  0  0  0  0  0  0  0  0  0  0
  2  1  1  1
  2  3  1  0
  4  2  1  0
  4  5  1  6
  6  4  1  0
  7  6  2  0
  8  6  1  0
  9 12  1  0
  9  8  1  0
  9 10  1  1
 11 10  1  0
 12 14  1  0
 13 12  2  0
 14 15  1  0
 15 16  1  6
 16 17  1  0
 18 15  1  0
 18 19  1  0
 20 18  2  0
M  END
$$$$
