QGA.pdb
     RDKit          3D

 19 18  0  0  1  0  0  0  0  0999 V2000
    7.9512  -19.8830   18.5507 N   0  0  0  0  0  0  0  0  0  0  0  0
    8.0718  -18.4531   18.5213 C   0  0  0  0  0  0  0  0  0  0  0  0
    9.1920  -17.9741   18.2720 O   0  0  0  0  0  0  0  0  0  0  0  0
    6.8675  -17.6694   18.7823 C   0  0  0  0  0  0  0  0  0  0  0  0
    7.1222  -16.5551   19.7402 C   0  0  0  0  0  0  0  0  0  0  0  0
    7.7167  -16.9494   21.0617 C   0  0  2  0  0  0  0  0  0  0  0  0
    6.9422  -17.9098   21.7881 N   0  0  0  0  0  0  0  0  0  0  0  0
    7.8736  -15.7160   21.8936 C   0  0  0  0  0  0  0  0  0  0  0  0
    8.5939  -14.7856   21.4613 O   0  0  0  0  0  0  0  0  0  0  0  0
    7.2232  -15.5893   23.1528 N   0  0  0  0  0  0  0  0  0  0  0  0
    7.3917  -14.3567   23.8924 C   0  0  0  0  0  0  0  0  0  0  0  0
    8.4850  -14.4616   24.8814 C   0  0  0  0  0  0  0  0  0  0  0  0
    9.5179  -15.0959   24.5625 O   0  0  0  0  0  0  0  0  0  0  0  0
    9.0513  -12.8480   28.1921 C   0  0  0  0  0  0  0  0  0  0  0  0
    9.4134  -13.8261   27.0978 C   0  0  2  0  0  0  0  0  0  0  0  0
    8.3215  -13.8420   26.1475 N   0  0  0  0  0  0  0  0  0  0  0  0
    9.6327  -15.1967   27.6268 C   0  0  0  0  0  0  0  0  0  0  0  0
    8.7460  -16.0879   27.6027 O   0  0  0  0  0  0  0  0  0  0  0  0
   10.8528  -15.5093   28.1658 O   0  0  0  0  0  0  0  0  0  0  0  0
  1  2  1  0
  2  3  2  0
  4  5  1  0
  4  2  1  0
  6  7  1  1
  6  5  1  0
  8  9  2  0
  8  6  1  0
 10  8  1  0
 11 10  1  0
 11 12  1  0
 12 16  1  0
 13 12  2  0
 15 14  1  1
 15 17  1  0
 16 15  1  0
 17 18  2  0
 17 19  1  0
M  END
$$$$
