QGA.pdb
     RDKit          3D

 19 18  0  0  1  0  0  0  0  0999 V2000
    8.4463  -18.3034   26.4913 N   0  0  0  0  0  0  0  0  0  0  0  0
    8.4120  -19.7373   26.5451 C   0  0  0  0  0  0  0  0  0  0  0  0
    9.3161  -20.3123   27.1764 O   0  0  0  0  0  0  0  0  0  0  0  0
    7.3144  -20.4117   25.8573 C   0  0  0  0  0  0  0  0  0  0  0  0
    6.3441  -19.4438   25.2693 C   0  0  0  0  0  0  0  0  0  0  0  0
    6.5308  -19.1312   23.8124 C   0  0  2  0  0  0  0  0  0  0  0  0
    7.7342  -19.6648   23.2494 N   0  0  0  0  0  0  0  0  0  0  0  0
    6.5292  -17.6445   23.6463 C   0  0  0  0  0  0  0  0  0  0  0  0
    5.5192  -16.9987   24.0125 O   0  0  0  0  0  0  0  0  0  0  0  0
    7.6463  -16.9650   23.0849 N   0  0  0  0  0  0  0  0  0  0  0  0
    7.5303  -15.5447   22.8314 C   0  0  0  0  0  0  0  0  0  0  0  0
    7.8295  -15.2183   21.4213 C   0  0  0  0  0  0  0  0  0  0  0  0
    8.1292  -16.1546   20.6437 O   0  0  0  0  0  0  0  0  0  0  0  0
    7.6915  -12.0523   19.4515 C   0  0  0  0  0  0  0  0  0  0  0  0
    8.0674  -13.5047   19.6365 C   0  0  2  0  0  0  0  0  0  0  0  0
    7.7654  -13.8628   21.0063 N   0  0  0  0  0  0  0  0  0  0  0  0
    9.5078  -13.7455   19.3652 C   0  0  0  0  0  0  0  0  0  0  0  0
   10.3739  -13.8025   20.2751 O   0  0  0  0  0  0  0  0  0  0  0  0
    9.9166  -13.9137   18.0684 O   0  0  0  0  0  0  0  0  0  0  0  0
  1  2  1  0
  2  3  2  0
  4  5  1  0
  4  2  1  0
  6  7  1  1
  6  5  1  0
  8  9  2  0
  8  6  1  0
 10  8  1  0
 11 10  1  0
 11 12  1  0
 12 16  1  0
 13 12  2  0
 15 14  1  1
 15 17  1  0
 16 15  1  0
 17 18  2  0
 17 19  1  0
M  END
$$$$
