QGA.pdb
     RDKit          3D

 19 18  0  0  1  0  0  0  0  0999 V2000
   11.2675  -18.9972   18.2863 N   0  0  0  0  0  0  0  0  0  0  0  0
    9.9188  -18.5528   18.4950 C   0  0  0  0  0  0  0  0  0  0  0  0
    9.0918  -19.3898   18.8973 O   0  0  0  0  0  0  0  0  0  0  0  0
    9.6217  -17.1491   18.2228 C   0  0  0  0  0  0  0  0  0  0  0  0
    8.7177  -16.5591   19.2517 C   0  0  0  0  0  0  0  0  0  0  0  0
    9.3693  -16.1553   20.5431 C   0  0  2  0  0  0  0  0  0  0  0  0
    9.8355  -17.2555   21.3319 N   0  0  0  0  0  0  0  0  0  0  0  0
    8.3818  -15.3639   21.3409 C   0  0  0  0  0  0  0  0  0  0  0  0
    7.9164  -14.3095   20.8481 O   0  0  0  0  0  0  0  0  0  0  0  0
    7.9708  -15.7892   22.6350 N   0  0  0  0  0  0  0  0  0  0  0  0
    6.9235  -15.0458   23.3023 C   0  0  0  0  0  0  0  0  0  0  0  0
    7.4748  -14.1170   24.3112 C   0  0  0  0  0  0  0  0  0  0  0  0
    8.7197  -14.0461   24.4385 O   0  0  0  0  0  0  0  0  0  0  0  0
    5.9143  -11.6345   26.6204 C   0  0  0  0  0  0  0  0  0  0  0  0
    7.0780  -12.4602   26.1212 C   0  0  2  0  0  0  0  0  0  0  0  0
    6.5754  -13.3456   25.0921 N   0  0  0  0  0  0  0  0  0  0  0  0
    7.6984  -13.2612   27.2073 C   0  0  0  0  0  0  0  0  0  0  0  0
    8.3724  -12.7467   28.1358 O   0  0  0  0  0  0  0  0  0  0  0  0
    7.5323  -14.6212   27.2024 O   0  0  0  0  0  0  0  0  0  0  0  0
  1  2  1  0
  2  3  2  0
  4  5  1  0
  4  2  1  0
  6  7  1  1
  6  5  1  0
  8  9  2  0
  8  6  1  0
 10  8  1  0
 11 10  1  0
 11 12  1  0
 12 16  1  0
 13 12  2  0
 15 14  1  1
 15 17  1  0
 16 15  1  0
 17 18  2  0
 17 19  1  0
M  END
$$$$
