QGA.pdb
     RDKit          3D

 19 18  0  0  1  0  0  0  0  0999 V2000
   11.0360  -20.2434   19.0758 N   0  0  0  0  0  0  0  0  0  0  0  0
    9.7764  -19.9065   19.6758 C   0  0  0  0  0  0  0  0  0  0  0  0
    8.8658  -20.7514   19.6176 O   0  0  0  0  0  0  0  0  0  0  0  0
    9.6619  -18.5976   20.3132 C   0  0  0  0  0  0  0  0  0  0  0  0
   10.9655  -17.8737   20.3420 C   0  0  0  0  0  0  0  0  0  0  0  0
   11.5500  -17.6294   21.7036 C   0  0  2  0  0  0  0  0  0  0  0  0
   11.6346  -18.8009   22.5224 N   0  0  0  0  0  0  0  0  0  0  0  0
   10.7104  -16.6050   22.3990 C   0  0  0  0  0  0  0  0  0  0  0  0
   10.5721  -15.4782   21.8676 O   0  0  0  0  0  0  0  0  0  0  0  0
   10.0761  -16.8918   23.6400 N   0  0  0  0  0  0  0  0  0  0  0  0
    9.3789  -15.8207   24.3191 C   0  0  0  0  0  0  0  0  0  0  0  0
   10.0527  -15.4478   25.5807 C   0  0  0  0  0  0  0  0  0  0  0  0
   11.1690  -15.9586   25.8333 O   0  0  0  0  0  0  0  0  0  0  0  0
    9.3350  -12.8448   28.1416 C   0  0  0  0  0  0  0  0  0  0  0  0
   10.0892  -14.0546   27.6388 C   0  0  2  0  0  0  0  0  0  0  0  0
    9.4106  -14.5297   26.4516 N   0  0  0  0  0  0  0  0  0  0  0  0
   10.1386  -15.1399   28.6517 C   0  0  0  0  0  0  0  0  0  0  0  0
   10.8431  -15.0725   29.6910 O   0  0  0  0  0  0  0  0  0  0  0  0
    9.3854  -16.2665   28.4498 O   0  0  0  0  0  0  0  0  0  0  0  0
  1  2  1  0
  2  3  2  0
  4  5  1  0
  4  2  1  0
  6  7  1  1
  6  5  1  0
  8  9  2  0
  8  6  1  0
 10  8  1  0
 11 10  1  0
 11 12  1  0
 12 16  1  0
 13 12  2  0
 15 14  1  1
 15 17  1  0
 16 15  1  0
 17 18  2  0
 17 19  1  0
M  END
$$$$
