QGA.pdb
     RDKit          3D

 19 18  0  0  1  0  0  0  0  0999 V2000
    6.3291  -13.0168   19.9731 N   0  0  0  0  0  0  0  0  0  0  0  0
    7.4909  -13.6094   19.3738 C   0  0  0  0  0  0  0  0  0  0  0  0
    7.9291  -13.0922   18.3313 O   0  0  0  0  0  0  0  0  0  0  0  0
    8.0725  -14.7730   20.0374 C   0  0  0  0  0  0  0  0  0  0  0  0
    7.3046  -15.1647   21.2544 C   0  0  0  0  0  0  0  0  0  0  0  0
    7.8443  -16.3378   22.0211 C   0  0  2  0  0  0  0  0  0  0  0  0
    7.9772  -17.5330   21.2441 N   0  0  0  0  0  0  0  0  0  0  0  0
    6.9330  -16.6035   23.1773 C   0  0  0  0  0  0  0  0  0  0  0  0
    5.7952  -16.0777   23.1805 O   0  0  0  0  0  0  0  0  0  0  0  0
    7.3382  -17.4352   24.2583 N   0  0  0  0  0  0  0  0  0  0  0  0
    6.3912  -17.6883   25.3232 C   0  0  0  0  0  0  0  0  0  0  0  0
    6.9728  -18.5494   26.3743 C   0  0  0  0  0  0  0  0  0  0  0  0
    6.2801  -18.8024   27.3878 O   0  0  0  0  0  0  0  0  0  0  0  0
    9.7706  -20.9024   26.4760 C   0  0  0  0  0  0  0  0  0  0  0  0
    8.8819  -19.9133   27.1949 C   0  0  2  0  0  0  0  0  0  0  0  0
    8.2871  -19.0530   26.1940 N   0  0  0  0  0  0  0  0  0  0  0  0
    9.6410  -19.0901   28.1709 C   0  0  0  0  0  0  0  0  0  0  0  0
   10.0495  -19.5398   29.2717 O   0  0  0  0  0  0  0  0  0  0  0  0
    9.9110  -17.7826   27.8633 O   0  0  0  0  0  0  0  0  0  0  0  0
  1  2  1  0
  2  3  2  0
  4  5  1  0
  4  2  1  0
  6  7  1  6
  6  5  1  0
  8  9  2  0
  8  6  1  0
 10  8  1  0
 11 10  1  0
 11 12  1  0
 12 16  1  0
 13 12  2  0
 15 14  1  6
 15 17  1  0
 16 15  1  0
 17 18  2  0
 17 19  1  0
M  END
$$$$
