QGA.pdb
     RDKit          3D

 19 18  0  0  1  0  0  0  0  0999 V2000
    6.6647  -12.7209   19.2195 N   0  0  0  0  0  0  0  0  0  0  0  0
    7.7934  -13.5902   19.0449 C   0  0  0  0  0  0  0  0  0  0  0  0
    8.0555  -13.9697   17.8900 O   0  0  0  0  0  0  0  0  0  0  0  0
    8.5510  -13.9592   20.2376 C   0  0  0  0  0  0  0  0  0  0  0  0
    8.3896  -15.4020   20.5784 C   0  0  0  0  0  0  0  0  0  0  0  0
    7.9515  -15.6988   21.9839 C   0  0  2  0  0  0  0  0  0  0  0  0
    7.5256  -14.5466   22.7193 N   0  0  0  0  0  0  0  0  0  0  0  0
    9.0910  -16.3468   22.7047 C   0  0  0  0  0  0  0  0  0  0  0  0
    9.7721  -17.2096   22.1024 O   0  0  0  0  0  0  0  0  0  0  0  0
    9.4056  -15.9992   24.0482 N   0  0  0  0  0  0  0  0  0  0  0  0
   10.5726  -16.5998   24.6582 C   0  0  0  0  0  0  0  0  0  0  0  0
   10.8369  -16.0348   25.9981 C   0  0  0  0  0  0  0  0  0  0  0  0
   11.8321  -16.4528   26.6352 O   0  0  0  0  0  0  0  0  0  0  0  0
    9.2735  -13.2769   27.9588 C   0  0  0  0  0  0  0  0  0  0  0  0
   10.1733  -14.4840   27.8238 C   0  0  2  0  0  0  0  0  0  0  0  0
    9.9562  -15.0454   26.5072 N   0  0  0  0  0  0  0  0  0  0  0  0
    9.8844  -15.5116   28.8567 C   0  0  0  0  0  0  0  0  0  0  0  0
    9.2180  -16.5510   28.6183 O   0  0  0  0  0  0  0  0  0  0  0  0
   10.3625  -15.3241   30.1269 O   0  0  0  0  0  0  0  0  0  0  0  0
  1  2  1  0
  2  3  2  0
  4  5  1  0
  4  2  1  0
  6  7  1  1
  6  5  1  0
  8  9  2  0
  8  6  1  0
 10  8  1  0
 11 10  1  0
 11 12  1  0
 12 16  1  0
 13 12  2  0
 15 14  1  1
 15 17  1  0
 16 15  1  0
 17 18  2  0
 17 19  1  0
M  END
$$$$
