MNF.pdb
     RDKit          3D

 28 28  0  0  1  0  0  0  0  0999 V2000
   23.9502  -11.8575  -22.5774 C   0  0  0  0  0  0  0  0  0  0  0  0
   23.4945  -13.2538  -21.4970 S   0  0  0  0  0  0  0  0  0  0  0  0
   21.9239  -12.9051  -20.6385 C   0  0  0  0  0  0  0  0  0  0  0  0
   21.8950  -11.4221  -20.3406 C   0  0  0  0  0  0  0  0  0  0  0  0
   21.9280  -11.1568  -18.8458 C   0  0  2  0  0  0  0  0  0  0  0  0
   21.0002  -12.1543  -18.2824 N   0  0  0  0  0  0  0  0  0  0  0  0
   21.4324   -9.8344  -18.4922 C   0  0  0  0  0  0  0  0  0  0  0  0
   22.0966   -8.7973  -18.8321 O   0  0  0  0  0  0  0  0  0  0  0  0
   18.7042   -5.7749  -16.7392 N   0  0  0  0  0  0  0  0  0  0  0  0
   17.8255   -6.8892  -16.7521 C   0  0  0  0  0  0  0  0  0  0  0  0
   16.6255   -6.7443  -16.4509 O   0  0  0  0  0  0  0  0  0  0  0  0
   18.3704   -8.1910  -17.1261 C   0  0  0  0  0  0  0  0  0  0  0  0
   19.8586   -8.1981  -17.3953 C   0  0  2  0  0  0  0  0  0  0  0  0
   20.2377   -9.5300  -17.7765 N   0  0  0  0  0  0  0  0  0  0  0  0
   20.5054   -7.7695  -16.1172 C   0  0  0  0  0  0  0  0  0  0  0  0
   20.3672   -8.5513  -15.1429 O   0  0  0  0  0  0  0  0  0  0  0  0
   21.2344   -6.5773  -15.9577 N   0  0  0  0  0  0  0  0  0  0  0  0
   21.9532   -6.2569  -14.7198 C   0  0  1  0  0  0  0  0  0  0  0  0
   23.3293   -6.8870  -14.7305 C   0  0  0  0  0  0  0  0  0  0  0  0
   24.1811   -6.4147  -15.8460 C   0  0  0  0  0  0  0  0  0  0  0  0
   24.4932   -7.2481  -16.8982 C   0  0  0  0  0  0  0  0  0  0  0  0
   25.2820   -6.8188  -17.9464 C   0  0  0  0  0  0  0  0  0  0  0  0
   25.7934   -5.5249  -17.9813 C   0  0  0  0  0  0  0  0  0  0  0  0
   25.4776   -4.6961  -16.9261 C   0  0  0  0  0  0  0  0  0  0  0  0
   24.6888   -5.1282  -15.8792 C   0  0  0  0  0  0  0  0  0  0  0  0
   21.9777   -4.8116  -14.4801 C   0  0  0  0  0  0  0  0  0  0  0  0
   21.5068   -3.8485  -15.3206 O   0  0  0  0  0  0  0  0  0  0  0  0
   22.4872   -4.4081  -13.3821 O   0  0  0  0  0  0  0  0  0  0  0  0
  1  2  1  0
  3  2  1  0
  4  3  1  0
  5  6  1  1
  5  4  1  0
  7  5  1  0
  8  7  2  0
  9 10  1  0
 10 12  1  0
 10 11  2  0
 13 12  1  1
 13 15  1  0
 13 14  1  0
 14  7  1  0
 15 16  2  0
 17 18  1  0
 17 15  1  0
 18 19  1  6
 20 19  1  0
 21 20  2  0
 22 21  1  0
 23 24  1  0
 23 22  2  0
 24 25  2  0
 25 20  1  0
 26 18  1  0
 27 26  1  0
 28 26  2  0
M  END
$$$$
