MNF.pdb
     RDKit          3D

 28 28  0  0  1  0  0  0  0  0999 V2000
   31.2643  -20.5987  -11.5212 C   0  0  0  0  0  0  0  0  0  0  0  0
   32.2946  -22.0286  -11.9885 S   0  0  0  0  0  0  0  0  0  0  0  0
   31.4502  -23.0312  -13.2564 C   0  0  0  0  0  0  0  0  0  0  0  0
   30.3567  -22.1723  -13.8527 C   0  0  0  0  0  0  0  0  0  0  0  0
   29.7032  -22.8544  -15.0416 C   0  0  2  0  0  0  0  0  0  0  0  0
   30.7602  -22.8780  -16.0690 N   0  0  0  0  0  0  0  0  0  0  0  0
   28.5752  -22.1058  -15.5770 C   0  0  0  0  0  0  0  0  0  0  0  0
   28.7845  -21.0413  -16.2519 O   0  0  0  0  0  0  0  0  0  0  0  0
   26.8155  -22.9988  -19.0382 N   0  0  0  0  0  0  0  0  0  0  0  0
   26.3220  -21.8729  -18.3291 C   0  0  0  0  0  0  0  0  0  0  0  0
   26.5644  -20.7207  -18.7357 O   0  0  0  0  0  0  0  0  0  0  0  0
   25.5313  -22.1104  -17.1249 C   0  0  0  0  0  0  0  0  0  0  0  0
   26.1318  -21.5491  -15.8554 C   0  0  2  0  0  0  0  0  0  0  0  0
   27.1924  -22.4231  -15.4379 N   0  0  0  0  0  0  0  0  0  0  0  0
   25.0143  -21.5013  -14.8631 C   0  0  0  0  0  0  0  0  0  0  0  0
   24.5675  -22.6136  -14.4855 O   0  0  0  0  0  0  0  0  0  0  0  0
   24.4588  -20.3152  -14.3503 N   0  0  0  0  0  0  0  0  0  0  0  0
   23.4086  -20.3196  -13.3262 C   0  0  1  0  0  0  0  0  0  0  0  0
   23.7743  -19.3870  -12.1915 C   0  0  0  0  0  0  0  0  0  0  0  0
   24.7583  -19.9681  -11.2498 C   0  0  0  0  0  0  0  0  0  0  0  0
   24.3446  -20.6055  -10.1002 C   0  0  0  0  0  0  0  0  0  0  0  0
   25.2513  -21.1556   -9.2166 C   0  0  0  0  0  0  0  0  0  0  0  0
   26.6211  -21.0878   -9.4534 C   0  0  0  0  0  0  0  0  0  0  0  0
   27.0286  -20.4492  -10.6049 C   0  0  0  0  0  0  0  0  0  0  0  0
   26.1197  -19.8998  -11.4865 C   0  0  0  0  0  0  0  0  0  0  0  0
   22.0960  -20.0355  -13.9119 C   0  0  0  0  0  0  0  0  0  0  0  0
   21.8599  -19.5710  -15.1705 O   0  0  0  0  0  0  0  0  0  0  0  0
   21.0710  -20.2395  -13.1799 O   0  0  0  0  0  0  0  0  0  0  0  0
  1  2  1  0
  3  2  1  0
  4  3  1  0
  5  6  1  6
  5  4  1  0
  7  5  1  0
  8  7  2  0
  9 10  1  0
 10 12  1  0
 10 11  2  0
 13 12  1  6
 13 15  1  0
 13 14  1  0
 14  7  1  0
 15 16  2  0
 17 18  1  0
 17 15  1  0
 18 19  1  1
 20 19  1  0
 21 20  2  0
 22 21  1  0
 23 24  1  0
 23 22  2  0
 24 25  2  0
 25 20  1  0
 26 18  1  0
 27 26  1  0
 28 26  2  0
M  END
$$$$
