MNF.pdb
     RDKit          3D

 28 28  0  0  1  0  0  0  0  0999 V2000
   25.6798  -15.7893  -15.1902 C   0  0  0  0  0  0  0  0  0  0  0  0
   24.6210  -14.3440  -15.5287 S   0  0  0  0  0  0  0  0  0  0  0  0
   25.0369  -13.6188  -17.1493 C   0  0  0  0  0  0  0  0  0  0  0  0
   24.2037  -12.3658  -17.3074 C   0  0  0  0  0  0  0  0  0  0  0  0
   22.7211  -12.6666  -17.1775 C   0  0  2  0  0  0  0  0  0  0  0  0
   22.4029  -13.4404  -18.3914 N   0  0  0  0  0  0  0  0  0  0  0  0
   21.8953  -11.4677  -17.1817 C   0  0  0  0  0  0  0  0  0  0  0  0
   21.9268  -10.6805  -18.1875 O   0  0  0  0  0  0  0  0  0  0  0  0
   17.4865  -11.9122  -14.8718 N   0  0  0  0  0  0  0  0  0  0  0  0
   18.0105  -10.9804  -15.8051 C   0  0  0  0  0  0  0  0  0  0  0  0
   17.6212  -10.9922  -16.9884 O   0  0  0  0  0  0  0  0  0  0  0  0
   19.0064  -10.0216  -15.3353 C   0  0  0  0  0  0  0  0  0  0  0  0
   20.1988   -9.8517  -16.2499 C   0  0  2  0  0  0  0  0  0  0  0  0
   21.0086  -11.0341  -16.1531 N   0  0  0  0  0  0  0  0  0  0  0  0
   20.9155   -8.6335  -15.7622 C   0  0  0  0  0  0  0  0  0  0  0  0
   22.0081   -8.8375  -15.1754 O   0  0  0  0  0  0  0  0  0  0  0  0
   20.4438   -7.3181  -15.9220 N   0  0  0  0  0  0  0  0  0  0  0  0
   21.3038   -6.1466  -15.7224 C   0  0  1  0  0  0  0  0  0  0  0  0
   22.5160   -6.2220  -16.6256 C   0  0  0  0  0  0  0  0  0  0  0  0
   23.3285   -4.9840  -16.6198 C   0  0  0  0  0  0  0  0  0  0  0  0
   24.4741   -4.8945  -15.8591 C   0  0  0  0  0  0  0  0  0  0  0  0
   25.2429   -3.7482  -15.8486 C   0  0  0  0  0  0  0  0  0  0  0  0
   24.8902   -2.6363  -16.6077 C   0  0  0  0  0  0  0  0  0  0  0  0
   23.7435   -2.7320  -17.3666 C   0  0  0  0  0  0  0  0  0  0  0  0
   22.9765   -3.8794  -17.3749 C   0  0  0  0  0  0  0  0  0  0  0  0
   20.5457   -4.9015  -15.8699 C   0  0  0  0  0  0  0  0  0  0  0  0
   20.7022   -3.7712  -15.1258 O   0  0  0  0  0  0  0  0  0  0  0  0
   19.6515   -4.8638  -16.7793 O   0  0  0  0  0  0  0  0  0  0  0  0
  1  2  1  0
  3  2  1  0
  4  3  1  0
  5  6  1  6
  5  4  1  0
  7  5  1  0
  8  7  2  0
  9 10  1  0
 10 12  1  0
 10 11  2  0
 13 12  1  1
 13 15  1  0
 13 14  1  0
 14  7  1  0
 15 16  2  0
 17 18  1  0
 17 15  1  0
 18 19  1  6
 20 19  1  0
 21 20  2  0
 22 21  1  0
 23 24  1  0
 23 22  2  0
 24 25  2  0
 25 20  1  0
 26 18  1  0
 27 26  1  0
 28 26  2  0
M  END
$$$$
