MNF.pdb
     RDKit          3D

 28 28  0  0  1  0  0  0  0  0999 V2000
   28.3696  -15.3551  -17.4620 C   0  0  0  0  0  0  0  0  0  0  0  0
   29.3106  -16.8296  -17.9766 S   0  0  0  0  0  0  0  0  0  0  0  0
   28.8548  -18.2641  -16.9471 C   0  0  0  0  0  0  0  0  0  0  0  0
   27.3605  -18.1968  -16.7202 C   0  0  0  0  0  0  0  0  0  0  0  0
   26.8928  -19.2957  -15.7824 C   0  0  2  0  0  0  0  0  0  0  0  0
   27.3691  -20.5380  -16.4174 N   0  0  0  0  0  0  0  0  0  0  0  0
   25.4429  -19.3741  -15.6772 C   0  0  0  0  0  0  0  0  0  0  0  0
   24.7816  -18.3595  -15.2701 O   0  0  0  0  0  0  0  0  0  0  0  0
   22.8808  -19.5491  -18.3819 N   0  0  0  0  0  0  0  0  0  0  0  0
   22.4797  -20.8949  -18.1767 C   0  0  0  0  0  0  0  0  0  0  0  0
   22.0378  -21.5687  -19.1266 O   0  0  0  0  0  0  0  0  0  0  0  0
   22.6028  -21.4525  -16.8330 C   0  0  0  0  0  0  0  0  0  0  0  0
   23.1951  -20.5087  -15.8104 C   0  0  2  0  0  0  0  0  0  0  0  0
   24.6207  -20.4971  -15.9855 N   0  0  0  0  0  0  0  0  0  0  0  0
   22.7933  -21.0503  -14.4759 C   0  0  0  0  0  0  0  0  0  0  0  0
   23.2830  -22.1655  -14.1661 O   0  0  0  0  0  0  0  0  0  0  0  0
   21.9254  -20.3965  -13.5828 N   0  0  0  0  0  0  0  0  0  0  0  0
   21.6360  -20.9216  -12.2441 C   0  0  1  0  0  0  0  0  0  0  0  0
   22.1798  -19.9894  -11.1828 C   0  0  0  0  0  0  0  0  0  0  0  0
   23.5615  -20.3198  -10.7652 C   0  0  0  0  0  0  0  0  0  0  0  0
   24.5970  -20.3040  -11.6744 C   0  0  0  0  0  0  0  0  0  0  0  0
   25.8901  -20.6052  -11.2972 C   0  0  0  0  0  0  0  0  0  0  0  0
   26.1989  -20.9369   -9.9813 C   0  0  0  0  0  0  0  0  0  0  0  0
   25.1590  -20.9508   -9.0766 C   0  0  0  0  0  0  0  0  0  0  0  0
   23.8668  -20.6494   -9.4567 C   0  0  0  0  0  0  0  0  0  0  0  0
   20.2088  -21.2126  -12.0861 C   0  0  0  0  0  0  0  0  0  0  0  0
   19.6590  -22.0836  -11.1945 O   0  0  0  0  0  0  0  0  0  0  0  0
   19.3964  -20.5962  -12.8529 O   0  0  0  0  0  0  0  0  0  0  0  0
  1  2  1  0
  3  2  1  0
  4  3  1  0
  5  6  1  6
  5  4  1  0
  7  5  1  0
  8  7  2  0
  9 10  1  0
 10 12  1  0
 10 11  2  0
 13 12  1  6
 13 15  1  0
 13 14  1  0
 14  7  1  0
 15 16  2  0
 17 18  1  0
 17 15  1  0
 18 19  1  1
 20 19  1  0
 21 20  2  0
 22 21  1  0
 23 24  1  0
 23 22  2  0
 24 25  2  0
 25 20  1  0
 26 18  1  0
 27 26  1  0
 28 26  2  0
M  END
$$$$
