MNF.pdb
     RDKit          3D

 28 28  0  0  1  0  0  0  0  0999 V2000
   18.8774  -16.5774  -14.9040 C   0  0  0  0  0  0  0  0  0  0  0  0
   19.8952  -15.0734  -15.0679 S   0  0  0  0  0  0  0  0  0  0  0  0
   20.5191  -14.9126  -16.7739 C   0  0  0  0  0  0  0  0  0  0  0  0
   21.3138  -13.6270  -16.8417 C   0  0  0  0  0  0  0  0  0  0  0  0
   21.7743  -13.3348  -18.2588 C   0  0  2  0  0  0  0  0  0  0  0  0
   22.9543  -14.1997  -18.4397 N   0  0  0  0  0  0  0  0  0  0  0  0
   22.1981  -11.9546  -18.4455 C   0  0  0  0  0  0  0  0  0  0  0  0
   23.3858  -11.6081  -18.1267 O   0  0  0  0  0  0  0  0  0  0  0  0
   22.6926   -6.9680  -19.7219 N   0  0  0  0  0  0  0  0  0  0  0  0
   21.6924   -7.5326  -20.5554 C   0  0  0  0  0  0  0  0  0  0  0  0
   21.2588   -6.8949  -21.5337 O   0  0  0  0  0  0  0  0  0  0  0  0
   21.1983   -8.8674  -20.2304 C   0  0  0  0  0  0  0  0  0  0  0  0
   21.8910   -9.5284  -19.0596 C   0  0  2  0  0  0  0  0  0  0  0  0
   21.4173  -10.8811  -18.9655 N   0  0  0  0  0  0  0  0  0  0  0  0
   21.5254   -8.7159  -17.8588 C   0  0  0  0  0  0  0  0  0  0  0  0
   20.3208   -8.7714  -17.5046 O   0  0  0  0  0  0  0  0  0  0  0  0
   22.4308   -7.9213  -17.1328 N   0  0  0  0  0  0  0  0  0  0  0  0
   22.0294   -7.1618  -15.9438 C   0  0  1  0  0  0  0  0  0  0  0  0
   23.1097   -7.2282  -14.8858 C   0  0  0  0  0  0  0  0  0  0  0  0
   23.7278   -8.5682  -14.7632 C   0  0  0  0  0  0  0  0  0  0  0  0
   23.2037   -9.5121  -13.9068 C   0  0  0  0  0  0  0  0  0  0  0  0
   23.7672  -10.7664  -13.7868 C   0  0  0  0  0  0  0  0  0  0  0  0
   24.8888  -11.1270  -14.5278 C   0  0  0  0  0  0  0  0  0  0  0  0
   25.4083  -10.1786  -15.3826 C   0  0  0  0  0  0  0  0  0  0  0  0
   24.8428   -8.9251  -15.5004 C   0  0  0  0  0  0  0  0  0  0  0  0
   21.6432   -5.7927  -16.2949 C   0  0  0  0  0  0  0  0  0  0  0  0
   20.9010   -4.9446  -15.5297 O   0  0  0  0  0  0  0  0  0  0  0  0
   22.0349   -5.3443  -17.4235 O   0  0  0  0  0  0  0  0  0  0  0  0
  1  2  1  0
  3  2  1  0
  4  3  1  0
  5  6  1  1
  5  4  1  0
  7  5  1  0
  8  7  2  0
  9 10  1  0
 10 12  1  0
 10 11  2  0
 13 12  1  6
 13 15  1  0
 13 14  1  0
 14  7  1  0
 15 16  2  0
 17 18  1  0
 17 15  1  0
 18 19  1  1
 20 19  1  0
 21 20  2  0
 22 21  1  0
 23 24  1  0
 23 22  2  0
 24 25  2  0
 25 20  1  0
 26 18  1  0
 27 26  1  0
 28 26  2  0
M  END
$$$$
