MNF.pdb
     RDKit          3D

 28 28  0  0  1  0  0  0  0  0999 V2000
   23.4824  -27.6663  -15.2305 C   0  0  0  0  0  0  0  0  0  0  0  0
   24.2868  -26.8900  -16.6709 S   0  0  0  0  0  0  0  0  0  0  0  0
   25.2965  -25.4662  -16.1424 C   0  0  0  0  0  0  0  0  0  0  0  0
   24.4977  -24.7108  -15.1030 C   0  0  0  0  0  0  0  0  0  0  0  0
   23.5856  -23.6813  -15.7463 C   0  0  2  0  0  0  0  0  0  0  0  0
   24.4891  -22.5722  -16.1026 N   0  0  0  0  0  0  0  0  0  0  0  0
   22.5794  -23.1626  -14.8309 C   0  0  0  0  0  0  0  0  0  0  0  0
   22.9433  -22.5377  -13.7776 O   0  0  0  0  0  0  0  0  0  0  0  0
   20.7229  -20.2173  -15.1673 N   0  0  0  0  0  0  0  0  0  0  0  0
   19.4316  -20.7557  -15.4052 C   0  0  0  0  0  0  0  0  0  0  0  0
   18.6065  -20.1246  -16.0926 O   0  0  0  0  0  0  0  0  0  0  0  0
   19.1106  -22.0564  -14.8247 C   0  0  0  0  0  0  0  0  0  0  0  0
   20.2343  -22.6890  -14.0346 C   0  0  2  0  0  0  0  0  0  0  0  0
   21.1640  -23.2676  -14.9641 N   0  0  0  0  0  0  0  0  0  0  0  0
   19.5897  -23.7192  -13.1635 C   0  0  0  0  0  0  0  0  0  0  0  0
   19.2730  -24.7959  -13.7291 O   0  0  0  0  0  0  0  0  0  0  0  0
   19.3297  -23.5484  -11.7918 N   0  0  0  0  0  0  0  0  0  0  0  0
   18.5968  -24.5439  -11.0023 C   0  0  1  0  0  0  0  0  0  0  0  0
   18.9086  -24.3832   -9.5299 C   0  0  0  0  0  0  0  0  0  0  0  0
   18.1710  -25.3348   -8.6678 C   0  0  0  0  0  0  0  0  0  0  0  0
   17.0190  -24.9507   -8.0164 C   0  0  0  0  0  0  0  0  0  0  0  0
   16.3194  -25.8293   -7.2139 C   0  0  0  0  0  0  0  0  0  0  0  0
   16.7512  -27.1397   -7.0316 C   0  0  0  0  0  0  0  0  0  0  0  0
   17.9039  -27.5179   -7.6860 C   0  0  0  0  0  0  0  0  0  0  0  0
   18.6016  -26.6372   -8.4876 C   0  0  0  0  0  0  0  0  0  0  0  0
   17.1628  -24.5054  -11.3003 C   0  0  0  0  0  0  0  0  0  0  0  0
   16.3851  -23.3891  -11.3702 O   0  0  0  0  0  0  0  0  0  0  0  0
   16.5787  -25.6192  -11.5157 O   0  0  0  0  0  0  0  0  0  0  0  0
  1  2  1  0
  3  2  1  0
  4  3  1  0
  5  6  1  1
  5  4  1  0
  7  5  1  0
  8  7  2  0
  9 10  1  0
 10 12  1  0
 10 11  2  0
 13 12  1  6
 13 15  1  0
 13 14  1  0
 14  7  1  0
 15 16  2  0
 17 18  1  0
 17 15  1  0
 18 19  1  1
 20 19  1  0
 21 20  2  0
 22 21  1  0
 23 24  1  0
 23 22  2  0
 24 25  2  0
 25 20  1  0
 26 18  1  0
 27 26  1  0
 28 26  2  0
M  END
$$$$
