MNF.pdb
     RDKit          3D

 28 28  0  0  1  0  0  0  0  0999 V2000
   26.6980  -17.8848  -19.4552 C   0  0  0  0  0  0  0  0  0  0  0  0
   28.1595  -17.2374  -18.5781 S   0  0  0  0  0  0  0  0  0  0  0  0
   28.8893  -18.5315  -17.5207 C   0  0  0  0  0  0  0  0  0  0  0  0
   27.7517  -19.2019  -16.7821 C   0  0  0  0  0  0  0  0  0  0  0  0
   28.2641  -20.2477  -15.8078 C   0  0  2  0  0  0  0  0  0  0  0  0
   28.7017  -21.3601  -16.6706 N   0  0  0  0  0  0  0  0  0  0  0  0
   27.2278  -20.7520  -14.9183 C   0  0  0  0  0  0  0  0  0  0  0  0
   26.4802  -21.7157  -15.2990 O   0  0  0  0  0  0  0  0  0  0  0  0
   24.2037  -21.8464  -10.8348 N   0  0  0  0  0  0  0  0  0  0  0  0
   25.1472  -20.8813  -10.3961 C   0  0  0  0  0  0  0  0  0  0  0  0
   25.2078  -20.5663   -9.1924 O   0  0  0  0  0  0  0  0  0  0  0  0
   26.0309  -20.2809  -11.3912 C   0  0  0  0  0  0  0  0  0  0  0  0
   25.8835  -20.8439  -12.7871 C   0  0  2  0  0  0  0  0  0  0  0  0
   26.9219  -20.2846  -13.6068 N   0  0  0  0  0  0  0  0  0  0  0  0
   24.5196  -20.4392  -13.2472 C   0  0  0  0  0  0  0  0  0  0  0  0
   24.2408  -19.2193  -13.1313 O   0  0  0  0  0  0  0  0  0  0  0  0
   23.5679  -21.3250  -13.7837 N   0  0  0  0  0  0  0  0  0  0  0  0
   22.2430  -20.8785  -14.2274 C   0  0  1  0  0  0  0  0  0  0  0  0
   21.8499  -21.5838  -15.5076 C   0  0  0  0  0  0  0  0  0  0  0  0
   20.5132  -21.1884  -16.0075 C   0  0  0  0  0  0  0  0  0  0  0  0
   20.3462  -20.0322  -16.7385 C   0  0  0  0  0  0  0  0  0  0  0  0
   19.1067  -19.6547  -17.2144 C   0  0  0  0  0  0  0  0  0  0  0  0
   17.9755  -20.4291  -16.9740 C   0  0  0  0  0  0  0  0  0  0  0  0
   18.1491  -21.5844  -16.2424 C   0  0  0  0  0  0  0  0  0  0  0  0
   19.3897  -21.9592  -15.7676 C   0  0  0  0  0  0  0  0  0  0  0  0
   21.2510  -21.0189  -13.1584 C   0  0  0  0  0  0  0  0  0  0  0  0
   20.2639  -20.1305  -12.8548 O   0  0  0  0  0  0  0  0  0  0  0  0
   21.3102  -22.0704  -12.4380 O   0  0  0  0  0  0  0  0  0  0  0  0
  1  2  1  0
  3  2  1  0
  4  3  1  0
  5  6  1  6
  5  4  1  0
  7  5  1  0
  8  7  2  0
  9 10  1  0
 10 12  1  0
 10 11  2  0
 13 12  1  1
 13 15  1  0
 13 14  1  0
 14  7  1  0
 15 16  2  0
 17 18  1  0
 17 15  1  0
 18 19  1  6
 20 19  1  0
 21 20  2  0
 22 21  1  0
 23 24  1  0
 23 22  2  0
 24 25  2  0
 25 20  1  0
 26 18  1  0
 27 26  1  0
 28 26  2  0
M  END
$$$$
