MNF.pdb
     RDKit          3D

 28 28  0  0  1  0  0  0  0  0999 V2000
   29.4079  -21.1463  -10.3877 C   0  0  0  0  0  0  0  0  0  0  0  0
   30.1255  -19.9714  -11.5831 S   0  0  0  0  0  0  0  0  0  0  0  0
   29.8878  -20.5759  -13.2872 C   0  0  0  0  0  0  0  0  0  0  0  0
   28.3968  -20.6526  -13.5322 C   0  0  0  0  0  0  0  0  0  0  0  0
   28.0867  -21.3457  -14.8472 C   0  0  2  0  0  0  0  0  0  0  0  0
   28.6959  -20.4724  -15.8669 N   0  0  0  0  0  0  0  0  0  0  0  0
   26.6597  -21.4284  -15.1233 C   0  0  0  0  0  0  0  0  0  0  0  0
   26.0798  -20.4784  -15.7508 O   0  0  0  0  0  0  0  0  0  0  0  0
   25.6714  -25.6769  -16.2644 N   0  0  0  0  0  0  0  0  0  0  0  0
   24.8704  -24.5462  -16.5706 C   0  0  0  0  0  0  0  0  0  0  0  0
   24.8719  -24.0705  -17.7219 O   0  0  0  0  0  0  0  0  0  0  0  0
   24.0563  -23.9703  -15.5042 C   0  0  0  0  0  0  0  0  0  0  0  0
   24.3959  -22.5385  -15.1549 C   0  0  2  0  0  0  0  0  0  0  0  0
   25.7774  -22.4891  -14.7646 N   0  0  0  0  0  0  0  0  0  0  0  0
   23.4779  -22.1638  -14.0358 C   0  0  0  0  0  0  0  0  0  0  0  0
   23.4152  -22.9787  -13.0810 O   0  0  0  0  0  0  0  0  0  0  0  0
   22.7088  -20.9868  -14.0006 N   0  0  0  0  0  0  0  0  0  0  0  0
   21.7994  -20.6766  -12.8922 C   0  0  1  0  0  0  0  0  0  0  0  0
   22.3468  -19.5336  -12.0646 C   0  0  0  0  0  0  0  0  0  0  0  0
   23.4213  -19.9470  -11.1333 C   0  0  0  0  0  0  0  0  0  0  0  0
   23.1553  -20.1601   -9.7981 C   0  0  0  0  0  0  0  0  0  0  0  0
   24.1466  -20.5503   -8.9204 C   0  0  0  0  0  0  0  0  0  0  0  0
   25.4558  -20.7442   -9.3511 C   0  0  0  0  0  0  0  0  0  0  0  0
   25.7155  -20.5298  -10.6878 C   0  0  0  0  0  0  0  0  0  0  0  0
   24.7222  -20.1394  -11.5630 C   0  0  0  0  0  0  0  0  0  0  0  0
   20.4358  -20.4437  -13.3749 C   0  0  0  0  0  0  0  0  0  0  0  0
   19.2954  -20.5229  -12.6339 O   0  0  0  0  0  0  0  0  0  0  0  0
   20.2938  -20.1375  -14.6054 O   0  0  0  0  0  0  0  0  0  0  0  0
  1  2  1  0
  3  2  1  0
  4  3  1  0
  5  6  1  6
  5  4  1  0
  7  5  1  0
  8  7  2  0
  9 10  1  0
 10 12  1  0
 10 11  2  0
 13 12  1  1
 13 15  1  0
 13 14  1  0
 14  7  1  0
 15 16  2  0
 17 18  1  0
 17 15  1  0
 18 19  1  6
 20 19  1  0
 21 20  2  0
 22 21  1  0
 23 24  1  0
 23 22  2  0
 24 25  2  0
 25 20  1  0
 26 18  1  0
 27 26  1  0
 28 26  2  0
M  END
$$$$
