LCG.pdb
     RDKit          3D

 19 18  0  0  1  0  0  0  0  0999 V2000
   24.5949  -21.6993  -10.7444 C   0  0  0  0  0  0  0  0  0  0  0  0
   25.9025  -21.2153  -10.2065 C   0  0  2  0  0  0  0  0  0  0  0  0
   25.8164  -20.7985   -8.7634 C   0  0  0  0  0  0  0  0  0  0  0  0
   26.4633  -20.0726  -11.0566 C   0  0  0  0  0  0  0  0  0  0  0  0
   26.5378  -20.6142  -12.4911 C   0  0  2  0  0  0  0  0  0  0  0  0
   27.6837  -21.4663  -12.6429 N   0  0  0  0  0  0  0  0  0  0  0  0
   26.6796  -19.4268  -13.3687 C   0  0  0  0  0  0  0  0  0  0  0  0
   27.1508  -18.3578  -12.8831 O   0  0  0  0  0  0  0  0  0  0  0  0
   26.3265  -19.3877  -14.7266 N   0  0  0  0  0  0  0  0  0  0  0  0
   26.3038  -18.1933  -15.5111 C   0  0  1  0  0  0  0  0  0  0  0  0
   27.4447  -18.0828  -16.4876 C   0  0  0  0  0  0  0  0  0  0  0  0
   28.9039  -18.9917  -15.9256 S   0  0  0  0  0  0  0  0  0  0  0  0
   25.0254  -17.9808  -16.2195 C   0  0  0  0  0  0  0  0  0  0  0  0
   24.3408  -18.9958  -16.5080 O   0  0  0  0  0  0  0  0  0  0  0  0
   24.5467  -16.6982  -16.5819 N   0  0  0  0  0  0  0  0  0  0  0  0
   23.2160  -16.4675  -17.0917 C   0  0  0  0  0  0  0  0  0  0  0  0
   23.1222  -17.0271  -18.4704 C   0  0  0  0  0  0  0  0  0  0  0  0
   24.1866  -17.0316  -19.3308 O   0  0  0  0  0  0  0  0  0  0  0  0
   22.0289  -17.5170  -18.8711 O   0  0  0  0  0  0  0  0  0  0  0  0
  2  1  1  6
  3  2  1  0
  4  2  1  0
  4  5  1  0
  5  6  1  1
  7  5  1  0
  7  8  2  0
  9  7  1  0
 10  9  1  0
 10 13  1  0
 10 11  1  6
 12 11  1  0
 13 14  2  0
 13 15  1  0
 15 16  1  0
 17 18  1  0
 17 16  1  0
 19 17  2  0
M  END
$$$$
