LCG.pdb
     RDKit          3D

 19 18  0  0  1  0  0  0  0  0999 V2000
   19.2649  -11.4066  -19.8180 C   0  0  0  0  0  0  0  0  0  0  0  0
   17.9584  -11.4203  -19.0927 C   0  0  2  0  0  0  0  0  0  0  0  0
   16.7897  -11.1452  -19.9994 C   0  0  0  0  0  0  0  0  0  0  0  0
   17.9642  -10.4359  -17.9205 C   0  0  0  0  0  0  0  0  0  0  0  0
   19.1458  -10.8487  -17.0317 C   0  0  2  0  0  0  0  0  0  0  0  0
   18.8124  -12.0214  -16.2728 N   0  0  0  0  0  0  0  0  0  0  0  0
   19.3816   -9.7095  -16.1113 C   0  0  0  0  0  0  0  0  0  0  0  0
   18.5932   -9.5344  -15.1375 O   0  0  0  0  0  0  0  0  0  0  0  0
   20.4318   -8.7862  -16.2323 N   0  0  0  0  0  0  0  0  0  0  0  0
   20.5891   -7.6420  -15.3907 C   0  0  1  0  0  0  0  0  0  0  0  0
   21.9521   -7.5310  -14.7602 C   0  0  0  0  0  0  0  0  0  0  0  0
   22.1234   -6.0166  -13.7863 S   0  0  0  0  0  0  0  0  0  0  0  0
   20.2499   -6.3700  -16.0601 C   0  0  0  0  0  0  0  0  0  0  0  0
   20.8351   -6.1039  -17.1412 O   0  0  0  0  0  0  0  0  0  0  0  0
   19.3056   -5.4512  -15.5407 N   0  0  0  0  0  0  0  0  0  0  0  0
   19.0576   -4.1567  -16.1295 C   0  0  0  0  0  0  0  0  0  0  0  0
   17.9680   -3.4801  -15.3694 C   0  0  0  0  0  0  0  0  0  0  0  0
   17.7257   -2.1375  -15.4794 O   0  0  0  0  0  0  0  0  0  0  0  0
   17.2359   -4.1570  -14.5938 O   0  0  0  0  0  0  0  0  0  0  0  0
  2  1  1  6
  3  2  1  0
  4  2  1  0
  4  5  1  0
  5  6  1  1
  7  5  1  0
  7  8  2  0
  9  7  1  0
 10  9  1  0
 10 13  1  0
 10 11  1  6
 12 11  1  0
 13 14  2  0
 13 15  1  0
 15 16  1  0
 17 18  1  0
 17 16  1  0
 19 17  2  0
M  END
$$$$
