LCG.pdb
     RDKit          3D

 19 18  0  0  1  0  0  0  0  0999 V2000
   21.1100  -22.4519  -15.7330 C   0  0  0  0  0  0  0  0  0  0  0  0
   20.7209  -21.0231  -15.5324 C   0  0  2  0  0  0  0  0  0  0  0  0
   20.2894  -20.3556  -16.8099 C   0  0  0  0  0  0  0  0  0  0  0  0
   21.8503  -20.2277  -14.8730 C   0  0  0  0  0  0  0  0  0  0  0  0
   21.9638  -20.7687  -13.4409 C   0  0  2  0  0  0  0  0  0  0  0  0
   20.9671  -20.1665  -12.6004 N   0  0  0  0  0  0  0  0  0  0  0  0
   23.3153  -20.3844  -12.9654 C   0  0  0  0  0  0  0  0  0  0  0  0
   23.6442  -19.1627  -12.9741 O   0  0  0  0  0  0  0  0  0  0  0  0
   24.2846  -21.2839  -12.4948 N   0  0  0  0  0  0  0  0  0  0  0  0
   25.6279  -20.9145  -12.1759 C   0  0  1  0  0  0  0  0  0  0  0  0
   26.0634  -21.3292  -10.7954 C   0  0  0  0  0  0  0  0  0  0  0  0
   24.9555  -20.6880   -9.5177 S   0  0  0  0  0  0  0  0  0  0  0  0
   26.6167  -21.3843  -13.1672 C   0  0  0  0  0  0  0  0  0  0  0  0
   26.5865  -22.5987  -13.4932 O   0  0  0  0  0  0  0  0  0  0  0  0
   27.5837  -20.5340  -13.7569 N   0  0  0  0  0  0  0  0  0  0  0  0
   28.5179  -20.9797  -14.7631 C   0  0  0  0  0  0  0  0  0  0  0  0
   27.9080  -20.7857  -16.1096 C   0  0  0  0  0  0  0  0  0  0  0  0
   28.0223  -19.6099  -16.8007 O   0  0  0  0  0  0  0  0  0  0  0  0
   27.2608  -21.7307  -16.6427 O   0  0  0  0  0  0  0  0  0  0  0  0
  2  1  1  6
  3  2  1  0
  4  2  1  0
  4  5  1  0
  5  6  1  1
  7  5  1  0
  7  8  2  0
  9  7  1  0
 10  9  1  0
 10 13  1  0
 10 11  1  1
 12 11  1  0
 13 14  2  0
 13 15  1  0
 15 16  1  0
 17 18  1  0
 17 16  1  0
 19 17  2  0
M  END
$$$$
