LCG.pdb
     RDKit          3D

 19 18  0  0  1  0  0  0  0  0999 V2000
   28.9827  -18.2621  -15.8529 C   0  0  0  0  0  0  0  0  0  0  0  0
   27.9129  -18.8173  -16.7362 C   0  0  2  0  0  0  0  0  0  0  0  0
   27.2958  -17.7723  -17.6255 C   0  0  0  0  0  0  0  0  0  0  0  0
   26.8299  -19.5252  -15.9183 C   0  0  0  0  0  0  0  0  0  0  0  0
   27.5539  -20.6189  -15.1208 C   0  0  2  0  0  0  0  0  0  0  0  0
   27.9454  -21.6928  -15.9902 N   0  0  0  0  0  0  0  0  0  0  0  0
   26.5725  -21.1157  -14.1256 C   0  0  0  0  0  0  0  0  0  0  0  0
   25.7355  -21.9970  -14.4766 O   0  0  0  0  0  0  0  0  0  0  0  0
   26.4919  -20.6798  -12.7938 N   0  0  0  0  0  0  0  0  0  0  0  0
   25.4517  -21.0612  -11.8911 C   0  0  1  0  0  0  0  0  0  0  0  0
   25.7821  -20.8193  -10.4420 C   0  0  0  0  0  0  0  0  0  0  0  0
   24.3592  -21.1193   -9.3666 S   0  0  0  0  0  0  0  0  0  0  0  0
   24.1457  -20.4489  -12.2083 C   0  0  0  0  0  0  0  0  0  0  0  0
   24.0459  -19.1991  -12.1078 O   0  0  0  0  0  0  0  0  0  0  0  0
   23.0176  -21.2020  -12.6153 N   0  0  0  0  0  0  0  0  0  0  0  0
   21.7470  -20.6031  -12.9481 C   0  0  0  0  0  0  0  0  0  0  0  0
   20.7325  -21.0300  -11.9424 C   0  0  0  0  0  0  0  0  0  0  0  0
   19.8386  -20.1535  -11.3892 O   0  0  0  0  0  0  0  0  0  0  0  0
   20.6852  -22.2391  -11.5794 O   0  0  0  0  0  0  0  0  0  0  0  0
  2  1  1  1
  3  2  1  0
  4  2  1  0
  4  5  1  0
  5  6  1  6
  7  5  1  0
  7  8  2  0
  9  7  1  0
 10  9  1  0
 10 13  1  0
 10 11  1  1
 12 11  1  0
 13 14  2  0
 13 15  1  0
 15 16  1  0
 17 18  1  0
 17 16  1  0
 19 17  2  0
M  END
$$$$
