LCG.pdb
     RDKit          3D

 19 18  0  0  1  0  0  0  0  0999 V2000
   20.7078  -20.8482  -16.2024 C   0  0  0  0  0  0  0  0  0  0  0  0
   20.3685  -19.7937  -15.1994 C   0  0  2  0  0  0  0  0  0  0  0  0
   19.7155  -18.5901  -15.8228 C   0  0  0  0  0  0  0  0  0  0  0  0
   21.6027  -19.3726  -14.3979 C   0  0  0  0  0  0  0  0  0  0  0  0
   22.3191  -20.6752  -14.0153 C   0  0  2  0  0  0  0  0  0  0  0  0
   21.5494  -21.4003  -13.0437 N   0  0  0  0  0  0  0  0  0  0  0  0
   23.6160  -20.2684  -13.4212 C   0  0  0  0  0  0  0  0  0  0  0  0
   24.2986  -19.3706  -13.9945 O   0  0  0  0  0  0  0  0  0  0  0  0
   24.1639  -20.8088  -12.2473 N   0  0  0  0  0  0  0  0  0  0  0  0
   25.4981  -20.5580  -11.8006 C   0  0  1  0  0  0  0  0  0  0  0  0
   25.7406  -20.9325  -10.3625 C   0  0  0  0  0  0  0  0  0  0  0  0
   24.3453  -20.4817   -9.3036 S   0  0  0  0  0  0  0  0  0  0  0  0
   26.5295  -21.1821  -12.6538 C   0  0  0  0  0  0  0  0  0  0  0  0
   26.2537  -22.2842  -13.1935 O   0  0  0  0  0  0  0  0  0  0  0  0
   27.7985  -20.5973  -12.8850 N   0  0  0  0  0  0  0  0  0  0  0  0
   28.1217  -19.8614  -14.0841 C   0  0  0  0  0  0  0  0  0  0  0  0
   27.9208  -20.7486  -15.2654 C   0  0  0  0  0  0  0  0  0  0  0  0
   26.6887  -20.9503  -15.8261 O   0  0  0  0  0  0  0  0  0  0  0  0
   28.9130  -21.3406  -15.7761 O   0  0  0  0  0  0  0  0  0  0  0  0
  2  1  1  6
  3  2  1  0
  4  2  1  0
  4  5  1  0
  5  6  1  1
  7  5  1  0
  7  8  2  0
  9  7  1  0
 10  9  1  0
 10 13  1  0
 10 11  1  1
 12 11  1  0
 13 14  2  0
 13 15  1  0
 15 16  1  0
 17 18  1  0
 17 16  1  0
 19 17  2  0
M  END
$$$$
