LCG.pdb
     RDKit          3D

 19 18  0  0  1  0  0  0  0  0999 V2000
   34.1423  -19.5252   10.3262 C   0  0  0  0  0  0  0  0  0  0  0  0
   34.1356  -20.8494   11.0186 C   0  0  2  0  0  0  0  0  0  0  0  0
   35.2579  -20.9897   12.0109 C   0  0  0  0  0  0  0  0  0  0  0  0
   34.1697  -22.0021   10.0121 C   0  0  0  0  0  0  0  0  0  0  0  0
   32.9847  -21.7672    9.0648 C   0  0  2  0  0  0  0  0  0  0  0  0
   31.7456  -22.0229    9.7443 N   0  0  0  0  0  0  0  0  0  0  0  0
   33.1528  -22.7350    7.9532 C   0  0  0  0  0  0  0  0  0  0  0  0
   32.9859  -23.9679    8.1828 O   0  0  0  0  0  0  0  0  0  0  0  0
   33.4897  -22.3900    6.6351 N   0  0  0  0  0  0  0  0  0  0  0  0
   33.6810  -23.3410    5.5855 C   0  0  1  0  0  0  0  0  0  0  0  0
   33.4864  -22.7731    4.2046 C   0  0  0  0  0  0  0  0  0  0  0  0
   31.8713  -21.9795    4.0231 S   0  0  0  0  0  0  0  0  0  0  0  0
   34.9819  -24.0369    5.6541 C   0  0  0  0  0  0  0  0  0  0  0  0
   35.9140  -23.4737    6.2835 O   0  0  0  0  0  0  0  0  0  0  0  0
   35.2182  -25.2949    5.0482 N   0  0  0  0  0  0  0  0  0  0  0  0
   36.4472  -26.0333    5.2160 C   0  0  0  0  0  0  0  0  0  0  0  0
   36.3676  -27.2923    4.4214 C   0  0  0  0  0  0  0  0  0  0  0  0
   37.4806  -27.9104    3.9188 O   0  0  0  0  0  0  0  0  0  0  0  0
   35.2408  -27.8174    4.1968 O   0  0  0  0  0  0  0  0  0  0  0  0
  2  1  1  6
  3  2  1  0
  4  2  1  0
  4  5  1  0
  5  6  1  1
  7  5  1  0
  7  8  2  0
  9  7  1  0
 10  9  1  0
 10 13  1  0
 10 11  1  6
 12 11  1  0
 13 14  2  0
 13 15  1  0
 15 16  1  0
 17 18  1  0
 17 16  1  0
 19 17  2  0
M  END
$$$$
