YLM.pdb
     RDKit          3D

 29 29  0  0  1  0  0  0  0  0999 V2000
   18.2942  -17.6190  -15.8155 O   0  0  0  0  0  0  0  0  0  0  0  0
   19.2651  -18.4526  -15.2795 C   0  0  0  0  0  0  0  0  0  0  0  0
   19.7096  -18.2961  -13.9622 C   0  0  0  0  0  0  0  0  0  0  0  0
   20.6698  -19.1198  -13.4310 C   0  0  0  0  0  0  0  0  0  0  0  0
   21.2384  -20.1286  -14.1540 C   0  0  0  0  0  0  0  0  0  0  0  0
   22.2678  -21.0426  -13.6562 C   0  0  0  0  0  0  0  0  0  0  0  0
   23.6328  -20.4200  -13.4874 C   0  0  2  0  0  0  0  0  0  0  0  0
   24.0865  -20.0980  -14.8484 N   0  0  0  0  0  0  0  0  0  0  0  0
   24.6023  -21.3889  -12.9309 C   0  0  0  0  0  0  0  0  0  0  0  0
   24.2300  -22.1312  -11.9567 O   0  0  0  0  0  0  0  0  0  0  0  0
   20.8033  -20.2951  -15.4704 C   0  0  0  0  0  0  0  0  0  0  0  0
   19.8367  -19.4719  -16.0171 C   0  0  0  0  0  0  0  0  0  0  0  0
   28.6427  -20.5841  -15.2223 C   0  0  0  0  0  0  0  0  0  0  0  0
   27.8097  -19.4878  -14.5368 C   0  0  2  0  0  0  0  0  0  0  0  0
   28.4417  -18.1989  -14.8978 C   0  0  0  0  0  0  0  0  0  0  0  0
   27.6961  -19.8412  -13.1216 C   0  0  0  0  0  0  0  0  0  0  0  0
   27.1012  -21.1432  -12.7386 C   0  0  2  0  0  0  0  0  0  0  0  0
   25.9200  -21.5112  -13.4480 N   0  0  0  0  0  0  0  0  0  0  0  0
   26.9835  -21.3538  -11.2710 C   0  0  0  0  0  0  0  0  0  0  0  0
   27.7840  -22.1640  -10.6884 O   0  0  0  0  0  0  0  0  0  0  0  0
   29.3584  -19.4036   -5.7965 C   0  0  0  0  0  0  0  0  0  0  0  0
   27.8689  -18.5160   -6.2902 S   0  0  0  0  0  0  0  0  0  0  0  0
   26.6667  -19.6919   -6.9092 C   0  0  0  0  0  0  0  0  0  0  0  0
   26.7539  -19.8797   -8.3602 C   0  0  0  0  0  0  0  0  0  0  0  0
   25.9238  -20.9428   -9.0066 C   0  0  2  0  0  0  0  0  0  0  0  0
   26.0183  -20.6959  -10.4690 N   0  0  0  0  0  0  0  0  0  0  0  0
   24.5154  -20.8428   -8.6740 C   0  0  0  0  0  0  0  0  0  0  0  0
   23.6880  -20.5509   -9.6007 O   0  0  0  0  0  0  0  0  0  0  0  0
   23.9221  -21.0361   -7.4397 O   0  0  0  0  0  0  0  0  0  0  0  0
  2  3  2  0
  2  1  1  0
  4  3  1  0
  5  4  2  0
  6  5  1  0
  7  9  1  0
  7  6  1  0
  7  8  1  6
  9 10  2  0
 11  5  1  0
 11 12  2  0
 12  2  1  0
 14 13  1  6
 14 15  1  0
 16 14  1  0
 17 16  1  1
 18 17  1  0
 18  9  1  0
 19 20  2  0
 19 17  1  0
 22 23  1  0
 22 21  1  0
 23 24  1  0
 25 24  1  1
 25 27  1  0
 25 26  1  0
 26 19  1  0
 27 29  1  0
 28 27  2  0
M  END
$$$$
