YLM.pdb
     RDKit          3D

 29 29  0  0  1  0  0  0  0  0999 V2000
   20.6426  -12.1437  -19.2742 O   0  0  0  0  0  0  0  0  0  0  0  0
   21.0411  -13.3364  -18.6883 C   0  0  0  0  0  0  0  0  0  0  0  0
   20.2338  -14.4776  -18.7435 C   0  0  0  0  0  0  0  0  0  0  0  0
   20.6268  -15.6578  -18.1644 C   0  0  0  0  0  0  0  0  0  0  0  0
   21.8177  -15.7806  -17.5084 C   0  0  0  0  0  0  0  0  0  0  0  0
   22.3009  -17.0037  -16.8653 C   0  0  0  0  0  0  0  0  0  0  0  0
   23.4155  -17.7043  -17.6044 C   0  0  2  0  0  0  0  0  0  0  0  0
   22.7824  -18.3057  -18.7874 N   0  0  0  0  0  0  0  0  0  0  0  0
   23.9756  -18.8169  -16.8064 C   0  0  0  0  0  0  0  0  0  0  0  0
   23.2896  -19.8919  -16.6953 O   0  0  0  0  0  0  0  0  0  0  0  0
   22.6327  -14.6485  -17.4463 C   0  0  0  0  0  0  0  0  0  0  0  0
   22.2482  -13.4538  -18.0256 C   0  0  0  0  0  0  0  0  0  0  0  0
   27.5706  -21.4926  -16.7658 C   0  0  0  0  0  0  0  0  0  0  0  0
   28.0416  -20.1014  -16.3094 C   0  0  2  0  0  0  0  0  0  0  0  0
   29.5116  -20.1889  -16.1596 C   0  0  0  0  0  0  0  0  0  0  0  0
   27.2391  -19.7248  -15.1455 C   0  0  0  0  0  0  0  0  0  0  0  0
   25.7621  -19.6841  -15.2578 C   0  0  2  0  0  0  0  0  0  0  0  0
   25.2419  -18.7187  -16.1696 N   0  0  0  0  0  0  0  0  0  0  0  0
   25.0490  -19.6899  -13.9527 C   0  0  0  0  0  0  0  0  0  0  0  0
   24.9086  -18.5923  -13.3108 O   0  0  0  0  0  0  0  0  0  0  0  0
   19.1731  -21.6217  -12.7923 C   0  0  0  0  0  0  0  0  0  0  0  0
   20.1062  -22.6583  -11.6499 S   0  0  0  0  0  0  0  0  0  0  0  0
   21.6048  -21.7992  -11.1731 C   0  0  0  0  0  0  0  0  0  0  0  0
   22.4765  -21.5058  -12.3143 C   0  0  0  0  0  0  0  0  0  0  0  0
   23.7864  -20.8255  -12.0724 C   0  0  2  0  0  0  0  0  0  0  0  0
   24.5072  -20.8630  -13.3714 N   0  0  0  0  0  0  0  0  0  0  0  0
   24.6275  -21.5349  -11.1271 C   0  0  0  0  0  0  0  0  0  0  0  0
   25.4152  -22.4371  -11.5676 O   0  0  0  0  0  0  0  0  0  0  0  0
   24.7001  -21.3538   -9.7579 O   0  0  0  0  0  0  0  0  0  0  0  0
  2  3  2  0
  2  1  1  0
  4  3  1  0
  5  4  2  0
  6  5  1  0
  7  9  1  0
  7  6  1  0
  7  8  1  6
  9 10  2  0
 11  5  1  0
 11 12  2  0
 12  2  1  0
 14 13  1  1
 14 15  1  0
 16 14  1  0
 17 16  1  1
 18 17  1  0
 18  9  1  0
 19 20  2  0
 19 17  1  0
 22 23  1  0
 22 21  1  0
 23 24  1  0
 25 24  1  6
 25 27  1  0
 25 26  1  0
 26 19  1  0
 27 29  1  0
 28 27  2  0
M  END
$$$$
