YLM.pdb
     RDKit          3D

 29 29  0  0  1  0  0  0  0  0999 V2000
   18.6091  -23.6752   -7.2644 O   0  0  0  0  0  0  0  0  0  0  0  0
   19.4934  -22.9592   -8.0580 C   0  0  0  0  0  0  0  0  0  0  0  0
   19.8618  -23.4156   -9.3282 C   0  0  0  0  0  0  0  0  0  0  0  0
   20.7364  -22.7083  -10.1141 C   0  0  0  0  0  0  0  0  0  0  0  0
   21.2896  -21.5303   -9.7017 C   0  0  0  0  0  0  0  0  0  0  0  0
   22.2299  -20.7246  -10.4824 C   0  0  0  0  0  0  0  0  0  0  0  0
   23.6537  -21.2266  -10.4641 C   0  0  2  0  0  0  0  0  0  0  0  0
   24.1769  -20.8697   -9.1372 N   0  0  0  0  0  0  0  0  0  0  0  0
   24.4883  -20.5172  -11.4584 C   0  0  0  0  0  0  0  0  0  0  0  0
   24.8591  -19.3199  -11.1984 O   0  0  0  0  0  0  0  0  0  0  0  0
   20.9298  -21.0641   -8.4356 C   0  0  0  0  0  0  0  0  0  0  0  0
   20.0499  -21.7672   -7.6344 C   0  0  0  0  0  0  0  0  0  0  0  0
   28.4097  -22.0011  -15.9044 C   0  0  0  0  0  0  0  0  0  0  0  0
   27.5744  -20.8335  -15.3525 C   0  0  2  0  0  0  0  0  0  0  0  0
   28.5308  -19.7452  -15.0495 C   0  0  0  0  0  0  0  0  0  0  0  0
   26.7442  -21.3597  -14.2688 C   0  0  0  0  0  0  0  0  0  0  0  0
   25.6956  -20.5020  -13.6684 C   0  0  2  0  0  0  0  0  0  0  0  0
   24.8816  -21.1286  -12.6791 N   0  0  0  0  0  0  0  0  0  0  0  0
   24.9057  -19.7193  -14.6561 C   0  0  0  0  0  0  0  0  0  0  0  0
   23.9479  -20.2888  -15.2844 O   0  0  0  0  0  0  0  0  0  0  0  0
   23.0508  -12.3371  -16.7138 C   0  0  0  0  0  0  0  0  0  0  0  0
   23.9638  -13.4945  -15.6760 S   0  0  0  0  0  0  0  0  0  0  0  0
   23.7868  -15.1462  -16.3481 C   0  0  0  0  0  0  0  0  0  0  0  0
   24.3977  -16.1718  -15.4977 C   0  0  0  0  0  0  0  0  0  0  0  0
   24.3380  -17.6030  -15.9281 C   0  0  2  0  0  0  0  0  0  0  0  0
   25.1592  -18.3554  -14.9443 N   0  0  0  0  0  0  0  0  0  0  0  0
   24.9533  -17.8320  -17.2216 C   0  0  0  0  0  0  0  0  0  0  0  0
   26.2158  -18.0102  -17.2746 O   0  0  0  0  0  0  0  0  0  0  0  0
   24.3310  -17.8934  -18.4552 O   0  0  0  0  0  0  0  0  0  0  0  0
  2  3  2  0
  2  1  1  0
  4  3  1  0
  5  4  2  0
  6  5  1  0
  7  9  1  0
  7  6  1  0
  7  8  1  1
  9 10  2  0
 11  5  1  0
 11 12  2  0
 12  2  1  0
 14 13  1  1
 14 15  1  0
 16 14  1  0
 17 16  1  6
 18 17  1  0
 18  9  1  0
 19 20  2  0
 19 17  1  0
 22 23  1  0
 22 21  1  0
 23 24  1  0
 25 24  1  1
 25 27  1  0
 25 26  1  0
 26 19  1  0
 27 29  1  0
 28 27  2  0
M  END
$$$$
