YLM.pdb
     RDKit          3D

 29 29  0  0  1  0  0  0  0  0999 V2000
   26.0477  -15.1922  -21.1434 O   0  0  0  0  0  0  0  0  0  0  0  0
   25.5187  -16.1499  -20.2905 C   0  0  0  0  0  0  0  0  0  0  0  0
   25.3865  -17.4842  -20.6900 C   0  0  0  0  0  0  0  0  0  0  0  0
   24.8635  -18.4324  -19.8473 C   0  0  0  0  0  0  0  0  0  0  0  0
   24.4472  -18.1267  -18.5836 C   0  0  0  0  0  0  0  0  0  0  0  0
   23.8777  -19.0824  -17.6321 C   0  0  0  0  0  0  0  0  0  0  0  0
   24.8595  -19.6234  -16.6208 C   0  0  2  0  0  0  0  0  0  0  0  0
   25.7879  -20.4657  -17.3892 N   0  0  0  0  0  0  0  0  0  0  0  0
   24.1916  -20.5069  -15.6401 C   0  0  0  0  0  0  0  0  0  0  0  0
   23.7478  -21.6380  -16.0432 O   0  0  0  0  0  0  0  0  0  0  0  0
   24.5739  -16.7981  -18.1729 C   0  0  0  0  0  0  0  0  0  0  0  0
   25.0992  -15.8337  -19.0123 C   0  0  0  0  0  0  0  0  0  0  0  0
   25.7724  -22.1838  -11.9409 C   0  0  0  0  0  0  0  0  0  0  0  0
   25.2767  -20.7721  -11.5844 C   0  0  2  0  0  0  0  0  0  0  0  0
   25.7093  -20.5192  -10.1917 C   0  0  0  0  0  0  0  0  0  0  0  0
   23.8485  -20.7149  -11.8966 C   0  0  0  0  0  0  0  0  0  0  0  0
   23.3951  -20.9361  -13.2899 C   0  0  2  0  0  0  0  0  0  0  0  0
   24.0346  -20.1316  -14.2788 N   0  0  0  0  0  0  0  0  0  0  0  0
   21.9175  -20.9857  -13.4518 C   0  0  0  0  0  0  0  0  0  0  0  0
   21.2448  -19.8989  -13.3984 O   0  0  0  0  0  0  0  0  0  0  0  0
   19.3542  -26.3741  -15.3512 C   0  0  0  0  0  0  0  0  0  0  0  0
   17.8603  -25.4163  -15.6685 S   0  0  0  0  0  0  0  0  0  0  0  0
   18.0395  -23.7933  -14.9302 C   0  0  0  0  0  0  0  0  0  0  0  0
   19.4314  -23.4707  -14.6035 C   0  0  0  0  0  0  0  0  0  0  0  0
   19.7326  -22.1917  -13.8889 C   0  0  2  0  0  0  0  0  0  0  0  0
   21.2019  -22.1897  -13.6660 N   0  0  0  0  0  0  0  0  0  0  0  0
   19.1278  -22.1220  -12.5723 C   0  0  0  0  0  0  0  0  0  0  0  0
   19.7638  -22.6134  -11.5810 O   0  0  0  0  0  0  0  0  0  0  0  0
   17.9087  -21.5659  -12.2299 O   0  0  0  0  0  0  0  0  0  0  0  0
  2  3  2  0
  2  1  1  0
  4  3  1  0
  5  4  2  0
  6  5  1  0
  7  9  1  0
  7  6  1  0
  7  8  1  6
  9 10  2  0
 11  5  1  0
 11 12  2  0
 12  2  1  0
 14 13  1  1
 14 15  1  0
 16 14  1  0
 17 16  1  1
 18 17  1  0
 18  9  1  0
 19 20  2  0
 19 17  1  0
 22 23  1  0
 22 21  1  0
 23 24  1  0
 25 24  1  1
 25 27  1  0
 25 26  1  0
 26 19  1  0
 27 29  1  0
 28 27  2  0
M  END
$$$$
