YLM.pdb
     RDKit          3D

 29 29  0  0  1  0  0  0  0  0999 V2000
   19.4116  -19.3758  -22.5139 O   0  0  0  0  0  0  0  0  0  0  0  0
   19.6578  -19.9264  -21.2646 C   0  0  0  0  0  0  0  0  0  0  0  0
   20.9424  -20.3374  -20.8927 C   0  0  0  0  0  0  0  0  0  0  0  0
   21.1871  -20.8821  -19.6574 C   0  0  0  0  0  0  0  0  0  0  0  0
   20.1977  -21.0507  -18.7320 C   0  0  0  0  0  0  0  0  0  0  0  0
   20.3831  -21.6259  -17.3987 C   0  0  0  0  0  0  0  0  0  0  0  0
   20.8607  -20.6474  -16.3528 C   0  0  2  0  0  0  0  0  0  0  0  0
   22.2239  -20.2754  -16.7593 N   0  0  0  0  0  0  0  0  0  0  0  0
   20.9702  -21.2888  -15.0243 C   0  0  0  0  0  0  0  0  0  0  0  0
   22.1369  -21.5665  -14.5768 O   0  0  0  0  0  0  0  0  0  0  0  0
   18.9109  -20.6443  -19.0911 C   0  0  0  0  0  0  0  0  0  0  0  0
   18.6515  -20.0943  -20.3324 C   0  0  0  0  0  0  0  0  0  0  0  0
   19.8279  -19.5521  -10.0606 C   0  0  0  0  0  0  0  0  0  0  0  0
   20.5928  -20.7677  -10.6109 C   0  0  2  0  0  0  0  0  0  0  0  0
   21.9167  -20.7600   -9.9489 C   0  0  0  0  0  0  0  0  0  0  0  0
   20.5384  -20.6980  -12.0712 C   0  0  0  0  0  0  0  0  0  0  0  0
   19.8306  -21.7572  -12.8280 C   0  0  2  0  0  0  0  0  0  0  0  0
   19.8231  -21.5987  -14.2453 N   0  0  0  0  0  0  0  0  0  0  0  0
   18.4949  -22.1128  -12.2789 C   0  0  0  0  0  0  0  0  0  0  0  0
   17.5457  -21.2572  -12.3374 O   0  0  0  0  0  0  0  0  0  0  0  0
   16.6911  -28.3217  -12.0707 C   0  0  0  0  0  0  0  0  0  0  0  0
   15.8772  -27.7203  -10.5787 S   0  0  0  0  0  0  0  0  0  0  0  0
   15.6485  -25.9479  -10.7126 C   0  0  0  0  0  0  0  0  0  0  0  0
   16.8701  -25.2489  -11.1215 C   0  0  0  0  0  0  0  0  0  0  0  0
   16.8206  -23.7713  -11.3485 C   0  0  2  0  0  0  0  0  0  0  0  0
   18.2107  -23.3675  -11.6850 N   0  0  0  0  0  0  0  0  0  0  0  0
   16.4649  -23.0262  -10.1559 C   0  0  0  0  0  0  0  0  0  0  0  0
   17.3993  -22.5117   -9.4555 O   0  0  0  0  0  0  0  0  0  0  0  0
   15.1979  -22.7813   -9.6582 O   0  0  0  0  0  0  0  0  0  0  0  0
  2  3  2  0
  2  1  1  0
  4  3  1  0
  5  4  2  0
  6  5  1  0
  7  9  1  0
  7  6  1  0
  7  8  1  6
  9 10  2  0
 11  5  1  0
 11 12  2  0
 12  2  1  0
 14 13  1  1
 14 15  1  0
 16 14  1  0
 17 16  1  1
 18 17  1  0
 18  9  1  0
 19 20  2  0
 19 17  1  0
 22 23  1  0
 22 21  1  0
 23 24  1  0
 25 24  1  1
 25 27  1  0
 25 26  1  0
 26 19  1  0
 27 29  1  0
 28 27  2  0
M  END
$$$$
