YLM.pdb
     RDKit          3D

 29 29  0  0  1  0  0  0  0  0999 V2000
   18.3873  -18.4514  -15.1392 O   0  0  0  0  0  0  0  0  0  0  0  0
   19.3994  -18.9535  -14.3341 C   0  0  0  0  0  0  0  0  0  0  0  0
   20.6167  -18.2788  -14.1927 C   0  0  0  0  0  0  0  0  0  0  0  0
   21.6185  -18.7744  -13.3967 C   0  0  0  0  0  0  0  0  0  0  0  0
   21.4818  -19.9437  -12.7054 C   0  0  0  0  0  0  0  0  0  0  0  0
   22.5057  -20.5341  -11.8417 C   0  0  0  0  0  0  0  0  0  0  0  0
   23.8531  -20.7160  -12.4982 C   0  0  2  0  0  0  0  0  0  0  0  0
   23.6600  -21.7748  -13.5000 N   0  0  0  0  0  0  0  0  0  0  0  0
   24.8589  -21.2159  -11.5354 C   0  0  0  0  0  0  0  0  0  0  0  0
   24.7355  -22.4103  -11.0915 O   0  0  0  0  0  0  0  0  0  0  0  0
   20.2712  -20.6268  -12.8383 C   0  0  0  0  0  0  0  0  0  0  0  0
   19.2544  -20.1380  -13.6370 C   0  0  0  0  0  0  0  0  0  0  0  0
   29.9569  -21.6611  -12.2578 C   0  0  0  0  0  0  0  0  0  0  0  0
   28.4916  -21.2354  -12.0649 C   0  0  2  0  0  0  0  0  0  0  0  0
   28.2650  -20.0975  -12.9841 C   0  0  0  0  0  0  0  0  0  0  0  0
   28.2769  -21.0330  -10.6319 C   0  0  0  0  0  0  0  0  0  0  0  0
   26.9035  -20.8092  -10.1226 C   0  0  2  0  0  0  0  0  0  0  0  0
   25.9440  -20.4093  -11.0991 N   0  0  0  0  0  0  0  0  0  0  0  0
   26.8370  -19.9955   -8.8795 C   0  0  0  0  0  0  0  0  0  0  0  0
   26.4458  -18.7794   -8.9471 O   0  0  0  0  0  0  0  0  0  0  0  0
   27.1807  -22.5747   -3.0453 C   0  0  0  0  0  0  0  0  0  0  0  0
   28.1903  -21.1258   -2.6828 S   0  0  0  0  0  0  0  0  0  0  0  0
   27.9312  -19.8986   -3.9626 C   0  0  0  0  0  0  0  0  0  0  0  0
   27.6289  -20.4957   -5.2666 C   0  0  0  0  0  0  0  0  0  0  0  0
   27.4046  -19.5988   -6.4423 C   0  0  2  0  0  0  0  0  0  0  0  0
   27.1883  -20.5010   -7.6032 N   0  0  0  0  0  0  0  0  0  0  0  0
   28.5659  -18.7944   -6.7713 C   0  0  0  0  0  0  0  0  0  0  0  0
   29.3892  -19.2366   -7.6403 O   0  0  0  0  0  0  0  0  0  0  0  0
   28.9126  -17.5589   -6.2552 O   0  0  0  0  0  0  0  0  0  0  0  0
  2  3  2  0
  2  1  1  0
  4  3  1  0
  5  4  2  0
  6  5  1  0
  7  9  1  0
  7  6  1  0
  7  8  1  6
  9 10  2  0
 11  5  1  0
 11 12  2  0
 12  2  1  0
 14 13  1  1
 14 15  1  0
 16 14  1  0
 17 16  1  6
 18 17  1  0
 18  9  1  0
 19 20  2  0
 19 17  1  0
 22 23  1  0
 22 21  1  0
 23 24  1  0
 25 24  1  1
 25 27  1  0
 25 26  1  0
 26 19  1  0
 27 29  1  0
 28 27  2  0
M  END
$$$$
