YLM.pdb
     RDKit          3D

 29 29  0  0  1  0  0  0  0  0999 V2000
   18.5199  -15.6479  -16.9004 O   0  0  0  0  0  0  0  0  0  0  0  0
   19.5186  -16.5697  -16.6217 C   0  0  0  0  0  0  0  0  0  0  0  0
   19.2688  -17.6921  -15.8249 C   0  0  0  0  0  0  0  0  0  0  0  0
   20.2557  -18.6044  -15.5486 C   0  0  0  0  0  0  0  0  0  0  0  0
   21.5247  -18.4666  -16.0329 C   0  0  0  0  0  0  0  0  0  0  0  0
   22.6270  -19.3955  -15.7781 C   0  0  0  0  0  0  0  0  0  0  0  0
   23.1243  -19.4049  -14.3526 C   0  0  2  0  0  0  0  0  0  0  0  0
   23.6971  -18.0692  -14.1297 N   0  0  0  0  0  0  0  0  0  0  0  0
   24.2237  -20.3779  -14.1715 C   0  0  0  0  0  0  0  0  0  0  0  0
   23.9986  -21.6083  -14.4436 O   0  0  0  0  0  0  0  0  0  0  0  0
   21.7868  -17.3502  -16.8296 C   0  0  0  0  0  0  0  0  0  0  0  0
   20.8013  -16.4241  -17.1152 C   0  0  0  0  0  0  0  0  0  0  0  0
   27.1432  -19.4814  -16.1811 C   0  0  0  0  0  0  0  0  0  0  0  0
   27.9568  -19.2537  -14.8958 C   0  0  2  0  0  0  0  0  0  0  0  0
   29.2866  -18.7668  -15.3265 C   0  0  0  0  0  0  0  0  0  0  0  0
   27.8821  -20.4818  -14.1041 C   0  0  0  0  0  0  0  0  0  0  0  0
   26.5949  -20.8751  -13.4843 C   0  0  2  0  0  0  0  0  0  0  0  0
   25.5068  -19.9808  -13.7082 N   0  0  0  0  0  0  0  0  0  0  0  0
   26.7058  -21.3071  -12.0655 C   0  0  0  0  0  0  0  0  0  0  0  0
   27.3930  -22.3475  -11.7795 O   0  0  0  0  0  0  0  0  0  0  0  0
   27.3596  -17.9710   -6.8510 C   0  0  0  0  0  0  0  0  0  0  0  0
   27.4014  -19.6543   -6.2071 S   0  0  0  0  0  0  0  0  0  0  0  0
   26.3914  -20.7039   -7.2509 C   0  0  0  0  0  0  0  0  0  0  0  0
   26.5905  -20.4416   -8.6791 C   0  0  0  0  0  0  0  0  0  0  0  0
   25.8518  -21.2715   -9.6804 C   0  0  2  0  0  0  0  0  0  0  0  0
   26.0826  -20.6187  -10.9953 N   0  0  0  0  0  0  0  0  0  0  0  0
   24.4158  -21.2621   -9.4754 C   0  0  0  0  0  0  0  0  0  0  0  0
   23.6859  -20.6103  -10.2945 O   0  0  0  0  0  0  0  0  0  0  0  0
   23.7000  -21.8958   -8.4759 O   0  0  0  0  0  0  0  0  0  0  0  0
  2  3  2  0
  2  1  1  0
  4  3  1  0
  5  4  2  0
  6  5  1  0
  7  9  1  0
  7  6  1  0
  7  8  1  6
  9 10  2  0
 11  5  1  0
 11 12  2  0
 12  2  1  0
 14 13  1  6
 14 15  1  0
 16 14  1  0
 17 16  1  1
 18 17  1  0
 18  9  1  0
 19 20  2  0
 19 17  1  0
 22 23  1  0
 22 21  1  0
 23 24  1  0
 25 24  1  1
 25 27  1  0
 25 26  1  0
 26 19  1  0
 27 29  1  0
 28 27  2  0
M  END
$$$$
