YLM.pdb
     RDKit          3D

 29 29  0  0  1  0  0  0  0  0999 V2000
   19.9530  -22.9399   -7.1756 O   0  0  0  0  0  0  0  0  0  0  0  0
   20.7199  -22.2452   -8.0997 C   0  0  0  0  0  0  0  0  0  0  0  0
   20.4923  -22.3727   -9.4742 C   0  0  0  0  0  0  0  0  0  0  0  0
   21.2501  -21.6862  -10.3891 C   0  0  0  0  0  0  0  0  0  0  0  0
   22.2590  -20.8483  -10.0100 C   0  0  0  0  0  0  0  0  0  0  0  0
   23.1091  -20.0874  -10.9272 C   0  0  0  0  0  0  0  0  0  0  0  0
   24.1693  -20.9046  -11.6255 C   0  0  2  0  0  0  0  0  0  0  0  0
   25.1450  -21.2525  -10.5820 N   0  0  0  0  0  0  0  0  0  0  0  0
   24.8914  -20.1007  -12.6358 C   0  0  0  0  0  0  0  0  0  0  0  0
   25.9987  -19.5533  -12.3000 O   0  0  0  0  0  0  0  0  0  0  0  0
   22.4962  -20.7124   -8.6406 C   0  0  0  0  0  0  0  0  0  0  0  0
   21.7398  -21.3985   -7.7090 C   0  0  0  0  0  0  0  0  0  0  0  0
   28.7390  -19.6055  -16.1118 C   0  0  0  0  0  0  0  0  0  0  0  0
   27.3569  -18.9306  -16.1172 C   0  0  2  0  0  0  0  0  0  0  0  0
   27.6027  -17.4792  -15.9626 C   0  0  0  0  0  0  0  0  0  0  0  0
   26.5303  -19.6121  -15.1208 C   0  0  0  0  0  0  0  0  0  0  0  0
   25.0936  -19.2686  -15.0040 C   0  0  2  0  0  0  0  0  0  0  0  0
   24.3884  -19.9260  -13.9531 N   0  0  0  0  0  0  0  0  0  0  0  0
   24.3542  -19.2838  -16.2944 C   0  0  0  0  0  0  0  0  0  0  0  0
   24.0606  -20.4056  -16.8348 O   0  0  0  0  0  0  0  0  0  0  0  0
   18.5451  -15.6474  -19.8972 C   0  0  0  0  0  0  0  0  0  0  0  0
   19.6905  -15.8587  -18.5212 S   0  0  0  0  0  0  0  0  0  0  0  0
   21.0036  -16.9713  -19.0202 C   0  0  0  0  0  0  0  0  0  0  0  0
   22.0132  -17.1605  -17.9746 C   0  0  0  0  0  0  0  0  0  0  0  0
   23.1048  -18.1600  -18.1905 C   0  0  2  0  0  0  0  0  0  0  0  0
   23.9499  -18.1054  -16.9694 N   0  0  0  0  0  0  0  0  0  0  0  0
   23.9774  -17.8161  -19.2970 C   0  0  0  0  0  0  0  0  0  0  0  0
   24.9714  -17.0472  -19.0750 O   0  0  0  0  0  0  0  0  0  0  0  0
   23.8788  -18.2313  -20.6126 O   0  0  0  0  0  0  0  0  0  0  0  0
  2  3  2  0
  2  1  1  0
  4  3  1  0
  5  4  2  0
  6  5  1  0
  7  9  1  0
  7  6  1  0
  7  8  1  1
  9 10  2  0
 11  5  1  0
 11 12  2  0
 12  2  1  0
 14 13  1  1
 14 15  1  0
 16 14  1  0
 17 16  1  6
 18 17  1  0
 18  9  1  0
 19 20  2  0
 19 17  1  0
 22 23  1  0
 22 21  1  0
 23 24  1  0
 25 24  1  1
 25 27  1  0
 25 26  1  0
 26 19  1  0
 27 29  1  0
 28 27  2  0
M  END
$$$$
