YLM.pdb
     RDKit          3D

 29 29  0  0  1  0  0  0  0  0999 V2000
   20.9672  -19.1954  -15.8331 O   0  0  0  0  0  0  0  0  0  0  0  0
   21.6560  -19.5329  -14.6771 C   0  0  0  0  0  0  0  0  0  0  0  0
   22.4584  -18.5998  -14.0116 C   0  0  0  0  0  0  0  0  0  0  0  0
   23.1401  -18.9324  -12.8682 C   0  0  0  0  0  0  0  0  0  0  0  0
   23.0722  -20.1821  -12.3228 C   0  0  0  0  0  0  0  0  0  0  0  0
   23.7724  -20.6091  -11.1103 C   0  0  0  0  0  0  0  0  0  0  0  0
   25.2643  -20.3783  -11.1316 C   0  0  2  0  0  0  0  0  0  0  0  0
   25.7894  -21.3102  -12.1405 N   0  0  0  0  0  0  0  0  0  0  0  0
   25.8858  -20.7493   -9.8415 C   0  0  0  0  0  0  0  0  0  0  0  0
   25.9670  -21.9907   -9.5396 O   0  0  0  0  0  0  0  0  0  0  0  0
   22.2745  -21.1226  -12.9778 C   0  0  0  0  0  0  0  0  0  0  0  0
   21.5829  -20.8000  -14.1303 C   0  0  0  0  0  0  0  0  0  0  0  0
   28.6838  -17.7826   -5.1649 C   0  0  0  0  0  0  0  0  0  0  0  0
   28.2530  -19.1664   -5.6799 C   0  0  2  0  0  0  0  0  0  0  0  0
   29.4139  -20.0632   -5.4823 C   0  0  0  0  0  0  0  0  0  0  0  0
   27.7266  -18.9883   -7.0333 C   0  0  0  0  0  0  0  0  0  0  0  0
   26.9008  -20.0568   -7.6433 C   0  0  2  0  0  0  0  0  0  0  0  0
   26.3876  -19.7700   -8.9427 N   0  0  0  0  0  0  0  0  0  0  0  0
   25.8773  -20.6344   -6.7319 C   0  0  0  0  0  0  0  0  0  0  0  0
   24.7574  -20.0333   -6.5865 O   0  0  0  0  0  0  0  0  0  0  0  0
   25.7389  -26.9616   -4.7858 C   0  0  0  0  0  0  0  0  0  0  0  0
   25.4903  -26.0415   -3.2556 S   0  0  0  0  0  0  0  0  0  0  0  0
   24.7584  -24.4522   -3.6424 C   0  0  0  0  0  0  0  0  0  0  0  0
   25.5642  -23.6727   -4.5865 C   0  0  0  0  0  0  0  0  0  0  0  0
   25.0522  -22.3492   -5.0591 C   0  0  2  0  0  0  0  0  0  0  0  0
   26.0769  -21.8335   -6.0039 N   0  0  0  0  0  0  0  0  0  0  0  0
   24.9565  -21.3662   -3.9967 C   0  0  0  0  0  0  0  0  0  0  0  0
   23.8473  -21.2410   -3.3783 O   0  0  0  0  0  0  0  0  0  0  0  0
   25.9470  -20.5163   -3.5391 O   0  0  0  0  0  0  0  0  0  0  0  0
  2  3  2  0
  2  1  1  0
  4  3  1  0
  5  4  2  0
  6  5  1  0
  7  9  1  0
  7  6  1  0
  7  8  1  6
  9 10  2  0
 11  5  1  0
 11 12  2  0
 12  2  1  0
 14 13  1  6
 14 15  1  0
 16 14  1  0
 17 16  1  1
 18 17  1  0
 18  9  1  0
 19 20  2  0
 19 17  1  0
 22 23  1  0
 22 21  1  0
 23 24  1  0
 25 24  1  1
 25 27  1  0
 25 26  1  0
 26 19  1  0
 27 29  1  0
 28 27  2  0
M  END
$$$$
