DCS.pdb
     RDKit          3D

 21 20  0  0  1  0  0  0  0  0999 V2000
   18.7847  -10.7467  -14.8075 N   0  0  0  0  0  0  0  0  0  0  0  0
   19.2657   -9.7392  -15.7280 C   0  0  1  0  0  0  0  0  0  0  0  0
   18.2809   -9.5665  -16.8719 C   0  0  0  0  0  0  0  0  0  0  0  0
   18.2079  -10.8263  -17.6332 C   0  0  0  0  0  0  0  0  0  0  0  0
   19.2578  -11.3370  -18.1516 O   0  0  0  0  0  0  0  0  0  0  0  0
   19.4493   -8.4785  -14.9748 C   0  0  0  0  0  0  0  0  0  0  0  0
   18.5590   -8.1062  -14.1737 O   0  0  0  0  0  0  0  0  0  0  0  0
   17.0371  -11.5306  -17.8392 O   0  0  0  0  0  0  0  0  0  0  0  0
   20.5817   -7.6495  -15.0993 N   0  0  0  0  0  0  0  0  0  0  0  0
   20.7418   -6.3635  -14.4251 C   0  0  1  0  0  0  0  0  0  0  0  0
   22.0783   -6.4589  -13.7117 C   0  0  0  0  0  0  0  0  0  0  0  0
   22.5917   -4.9307  -12.9343 S   0  0  0  0  0  0  0  0  0  0  0  0
   20.6417   -5.2494  -15.3689 C   0  0  0  0  0  0  0  0  0  0  0  0
   21.3276   -5.3253  -16.4462 O   0  0  0  0  0  0  0  0  0  0  0  0
   17.4671   -3.2926  -16.4127 O   0  0  0  0  0  0  0  0  0  0  0  0
   18.4574   -2.3666  -16.1178 C   0  0  0  0  0  0  0  0  0  0  0  0
   19.8454   -3.0160  -16.1960 C   0  0  2  0  0  0  0  0  0  0  0  0
   19.8694   -4.0933  -15.2256 N   0  0  0  0  0  0  0  0  0  0  0  0
   20.8207   -1.9396  -15.8101 C   0  0  0  0  0  0  0  0  0  0  0  0
   20.9846   -0.8321  -16.6288 O   0  0  0  0  0  0  0  0  0  0  0  0
   21.5039   -1.9964  -14.7664 O   0  0  0  0  0  0  0  0  0  0  0  0
  2  1  1  1
  3  2  1  0
  3  4  1  0
  4  5  2  0
  4  8  1  0
  6  2  1  0
  7  6  2  0
  9  6  1  0
 10 13  1  0
 10  9  1  0
 10 11  1  6
 12 11  1  0
 13 18  1  0
 14 13  2  0
 16 15  1  0
 17 16  1  1
 17 19  1  0
 18 17  1  0
 19 21  2  0
 19 20  1  0
M  END
$$$$
