DCS.pdb
     RDKit          3D

 21 20  0  0  1  0  0  0  0  0999 V2000
   16.9325  -12.1387  -16.9369 N   0  0  0  0  0  0  0  0  0  0  0  0
   17.8851  -11.7372  -15.9245 C   0  0  1  0  0  0  0  0  0  0  0  0
   19.0902  -12.6622  -15.9475 C   0  0  0  0  0  0  0  0  0  0  0  0
   18.6769  -13.9962  -15.4767 C   0  0  0  0  0  0  0  0  0  0  0  0
   17.7976  -14.1204  -14.5584 O   0  0  0  0  0  0  0  0  0  0  0  0
   18.2731  -10.3337  -16.1892 C   0  0  0  0  0  0  0  0  0  0  0  0
   18.5422   -9.9815  -17.3625 O   0  0  0  0  0  0  0  0  0  0  0  0
   19.1909  -15.1781  -15.9749 O   0  0  0  0  0  0  0  0  0  0  0  0
   18.3626   -9.3441  -15.1903 N   0  0  0  0  0  0  0  0  0  0  0  0
   18.6229   -7.9303  -15.4496 C   0  0  1  0  0  0  0  0  0  0  0  0
   17.3886   -7.2055  -14.9443 C   0  0  0  0  0  0  0  0  0  0  0  0
   15.9343   -7.4675  -15.9540 S   0  0  0  0  0  0  0  0  0  0  0  0
   19.8737   -7.4944  -14.8269 C   0  0  0  0  0  0  0  0  0  0  0  0
   20.1298   -7.9282  -13.6509 O   0  0  0  0  0  0  0  0  0  0  0  0
   23.2597   -6.6727  -16.7693 O   0  0  0  0  0  0  0  0  0  0  0  0
   23.0195   -5.7271  -15.7827 C   0  0  0  0  0  0  0  0  0  0  0  0
   22.0744   -6.2901  -14.7130 C   0  0  2  0  0  0  0  0  0  0  0  0
   20.8364   -6.6450  -15.3796 N   0  0  0  0  0  0  0  0  0  0  0  0
   21.8445   -5.1668  -13.7413 C   0  0  0  0  0  0  0  0  0  0  0  0
   22.7383   -4.9616  -12.7010 O   0  0  0  0  0  0  0  0  0  0  0  0
   20.8672   -4.3943  -13.8282 O   0  0  0  0  0  0  0  0  0  0  0  0
  2  1  1  6
  3  2  1  0
  3  4  1  0
  4  5  2  0
  4  8  1  0
  6  2  1  0
  7  6  2  0
  9  6  1  0
 10 13  1  0
 10  9  1  0
 10 11  1  1
 12 11  1  0
 13 18  1  0
 14 13  2  0
 16 15  1  0
 17 16  1  6
 17 19  1  0
 18 17  1  0
 19 21  2  0
 19 20  1  0
M  END
$$$$
