DCS.pdb
     RDKit          3D

 21 20  0  0  1  0  0  0  0  0999 V2000
   15.8104  -10.5461   -9.4419 N   0  0  0  0  0  0  0  0  0  0  0  0
   15.7447  -10.3179  -10.8693 C   0  0  1  0  0  0  0  0  0  0  0  0
   14.3088  -10.0524  -11.2886 C   0  0  0  0  0  0  0  0  0  0  0  0
   13.5261  -11.2898  -11.1208 C   0  0  0  0  0  0  0  0  0  0  0  0
   12.3701  -11.2618  -10.5779 O   0  0  0  0  0  0  0  0  0  0  0  0
   16.6252   -9.1730  -11.1927 C   0  0  0  0  0  0  0  0  0  0  0  0
   16.5577   -8.1308  -10.4983 O   0  0  0  0  0  0  0  0  0  0  0  0
   13.9664  -12.5359  -11.5241 O   0  0  0  0  0  0  0  0  0  0  0  0
   17.5549   -9.1744  -12.2513 N   0  0  0  0  0  0  0  0  0  0  0  0
   18.4251   -8.0503  -12.5876 C   0  0  1  0  0  0  0  0  0  0  0  0
   19.7823   -8.6732  -12.8598 C   0  0  0  0  0  0  0  0  0  0  0  0
   21.0899   -7.4757  -13.1038 S   0  0  0  0  0  0  0  0  0  0  0  0
   17.8854   -7.2722  -13.7036 C   0  0  0  0  0  0  0  0  0  0  0  0
   17.5119   -7.9150  -14.7449 O   0  0  0  0  0  0  0  0  0  0  0  0
   16.1623   -3.8140  -13.2670 O   0  0  0  0  0  0  0  0  0  0  0  0
   15.9724   -4.4207  -14.5002 C   0  0  0  0  0  0  0  0  0  0  0  0
   17.2351   -5.1794  -14.9296 C   0  0  2  0  0  0  0  0  0  0  0  0
   17.7285   -5.8847  -13.7626 N   0  0  0  0  0  0  0  0  0  0  0  0
   18.2163   -4.1255  -15.3603 C   0  0  0  0  0  0  0  0  0  0  0  0
   17.9103   -3.2933  -16.4267 O   0  0  0  0  0  0  0  0  0  0  0  0
   19.3160   -3.9607  -14.7919 O   0  0  0  0  0  0  0  0  0  0  0  0
  2  1  1  1
  3  2  1  0
  3  4  1  0
  4  5  2  0
  4  8  1  0
  6  2  1  0
  7  6  2  0
  9  6  1  0
 10 13  1  0
 10  9  1  0
 10 11  1  6
 12 11  1  0
 13 18  1  0
 14 13  2  0
 16 15  1  0
 17 16  1  1
 17 19  1  0
 18 17  1  0
 19 21  2  0
 19 20  1  0
M  END
$$$$
