DCS.pdb
     RDKit          3D

 21 20  0  0  1  0  0  0  0  0999 V2000
   14.0678   -8.0334   -8.2924 N   0  0  0  0  0  0  0  0  0  0  0  0
   14.8788   -8.4796   -9.4045 C   0  0  1  0  0  0  0  0  0  0  0  0
   13.9909   -9.0203  -10.5125 C   0  0  0  0  0  0  0  0  0  0  0  0
   13.3986  -10.2952  -10.0701 C   0  0  0  0  0  0  0  0  0  0  0  0
   14.1287  -11.2123   -9.5623 O   0  0  0  0  0  0  0  0  0  0  0  0
   15.6909   -7.3333   -9.8703 C   0  0  0  0  0  0  0  0  0  0  0  0
   15.1138   -6.3054  -10.2985 O   0  0  0  0  0  0  0  0  0  0  0  0
   12.0519  -10.5890  -10.1666 O   0  0  0  0  0  0  0  0  0  0  0  0
   17.0997   -7.3180   -9.8653 N   0  0  0  0  0  0  0  0  0  0  0  0
   17.9146   -6.1817  -10.2877 C   0  0  1  0  0  0  0  0  0  0  0  0
   18.4147   -5.5571   -8.9977 C   0  0  0  0  0  0  0  0  0  0  0  0
   19.5873   -4.2281   -9.2468 S   0  0  0  0  0  0  0  0  0  0  0  0
   18.9759   -6.5973  -11.2058 C   0  0  0  0  0  0  0  0  0  0  0  0
   19.4385   -7.7829  -11.0748 O   0  0  0  0  0  0  0  0  0  0  0  0
   20.0495   -8.1366  -14.4883 O   0  0  0  0  0  0  0  0  0  0  0  0
   20.0376   -6.7525  -14.3925 C   0  0  0  0  0  0  0  0  0  0  0  0
   20.6444   -6.2978  -13.0586 C   0  0  2  0  0  0  0  0  0  0  0  0
   19.5508   -5.8348  -12.2264 N   0  0  0  0  0  0  0  0  0  0  0  0
   21.5650   -5.1592  -13.3975 C   0  0  0  0  0  0  0  0  0  0  0  0
   22.8783   -5.4190  -13.7600 O   0  0  0  0  0  0  0  0  0  0  0  0
   21.1959   -3.9665  -13.3676 O   0  0  0  0  0  0  0  0  0  0  0  0
  2  1  1  1
  3  2  1  0
  3  4  1  0
  4  5  2  0
  4  8  1  0
  6  2  1  0
  7  6  2  0
  9  6  1  0
 10 13  1  0
 10  9  1  0
 10 11  1  1
 12 11  1  0
 13 18  1  0
 14 13  2  0
 16 15  1  0
 17 16  1  6
 17 19  1  0
 18 17  1  0
 19 21  2  0
 19 20  1  0
M  END
$$$$
