DCS.pdb
     RDKit          3D

 21 20  0  0  1  0  0  0  0  0999 V2000
   19.7437  -11.4892  -15.5723 N   0  0  0  0  0  0  0  0  0  0  0  0
   19.3871  -10.2704  -16.2659 C   0  0  1  0  0  0  0  0  0  0  0  0
   17.9417  -10.3385  -16.7288 C   0  0  0  0  0  0  0  0  0  0  0  0
   17.8662  -11.1811  -17.9356 C   0  0  0  0  0  0  0  0  0  0  0  0
   18.7320  -11.0648  -18.8676 O   0  0  0  0  0  0  0  0  0  0  0  0
   19.6086   -9.1347  -15.3431 C   0  0  0  0  0  0  0  0  0  0  0  0
   19.1237   -9.1788  -14.1872 O   0  0  0  0  0  0  0  0  0  0  0  0
   16.8856  -12.1315  -18.1467 O   0  0  0  0  0  0  0  0  0  0  0  0
   20.3436   -7.9816  -15.6823 N   0  0  0  0  0  0  0  0  0  0  0  0
   20.5356   -6.8349  -14.7979 C   0  0  1  0  0  0  0  0  0  0  0  0
   21.9696   -6.9493  -14.3136 C   0  0  0  0  0  0  0  0  0  0  0  0
   22.4996   -5.5748  -13.2971 S   0  0  0  0  0  0  0  0  0  0  0  0
   20.2296   -5.5768  -15.4804 C   0  0  0  0  0  0  0  0  0  0  0  0
   20.8502   -5.3317  -16.5720 O   0  0  0  0  0  0  0  0  0  0  0  0
   17.5280   -1.5390  -15.8675 O   0  0  0  0  0  0  0  0  0  0  0  0
   17.8538   -2.6983  -15.1784 C   0  0  0  0  0  0  0  0  0  0  0  0
   19.1046   -3.3518  -15.7806 C   0  0  2  0  0  0  0  0  0  0  0  0
   19.3217   -4.5969  -15.0695 N   0  0  0  0  0  0  0  0  0  0  0  0
   20.2316   -2.3930  -15.5171 C   0  0  0  0  0  0  0  0  0  0  0  0
   20.4035   -1.2889  -16.3386 O   0  0  0  0  0  0  0  0  0  0  0  0
   21.0365   -2.5467  -14.5748 O   0  0  0  0  0  0  0  0  0  0  0  0
  2  1  1  1
  3  2  1  0
  3  4  1  0
  4  5  2  0
  4  8  1  0
  6  2  1  0
  7  6  2  0
  9  6  1  0
 10 13  1  0
 10  9  1  0
 10 11  1  6
 12 11  1  0
 13 18  1  0
 14 13  2  0
 16 15  1  0
 17 16  1  1
 17 19  1  0
 18 17  1  0
 19 21  2  0
 19 20  1  0
M  END
$$$$
