YTQ.pdb
     RDKit          3D

 29 29  0  0  1  0  0  0  0  0999 V2000
    8.1285  -11.3163   18.7856 O   0  0  0  0  0  0  0  0  0  0  0  0
    8.1587  -12.4808   19.5564 C   0  0  0  0  0  0  0  0  0  0  0  0
    9.3658  -13.0390   19.9260 C   0  0  0  0  0  0  0  0  0  0  0  0
    9.4227  -14.1885   20.6869 C   0  0  0  0  0  0  0  0  0  0  0  0
    8.2510  -14.7897   21.0847 C   0  0  0  0  0  0  0  0  0  0  0  0
    8.2676  -16.0212   21.8996 C   0  0  0  0  0  0  0  0  0  0  0  0
    8.7957  -17.2102   21.1129 C   0  0  2  0  0  0  0  0  0  0  0  0
    7.8928  -17.6393   20.0952 N   0  0  0  0  0  0  0  0  0  0  0  0
    9.1058  -18.2732   22.1043 C   0  0  0  0  0  0  0  0  0  0  0  0
    8.1594  -18.9990   22.5031 O   0  0  0  0  0  0  0  0  0  0  0  0
    7.0366  -14.2571   20.7321 C   0  0  0  0  0  0  0  0  0  0  0  0
    6.9990  -13.1068   19.9707 C   0  0  0  0  0  0  0  0  0  0  0  0
   10.7261  -21.1156   21.6112 C   0  0  0  0  0  0  0  0  0  0  0  0
   11.5789  -20.5866   22.7462 C   0  0  1  0  0  0  0  0  0  0  0  0
   12.7035  -19.9970   22.1961 O   0  0  0  0  0  0  0  0  0  0  0  0
   10.7235  -19.5937   23.5172 C   0  0  2  0  0  0  0  0  0  0  0  0
   10.3938  -18.5165   22.6235 N   0  0  0  0  0  0  0  0  0  0  0  0
   11.4497  -19.1046   24.7321 C   0  0  0  0  0  0  0  0  0  0  0  0
   12.1960  -18.0939   24.6569 O   0  0  0  0  0  0  0  0  0  0  0  0
   10.2271  -20.9250   30.5299 N   0  0  0  0  0  0  0  0  0  0  0  0
   11.4780  -20.3004   30.7558 C   0  0  0  0  0  0  0  0  0  0  0  0
   11.9168  -20.1743   31.9046 O   0  0  0  0  0  0  0  0  0  0  0  0
   12.2608  -19.7973   29.6059 C   0  0  0  0  0  0  0  0  0  0  0  0
   11.4732  -20.0306   28.3413 C   0  0  0  0  0  0  0  0  0  0  0  0
   12.1505  -19.3841   27.1399 C   0  0  2  0  0  0  0  0  0  0  0  0
   11.3382  -19.7328   25.9862 N   0  0  0  0  0  0  0  0  0  0  0  0
   13.5098  -19.9206   27.0594 C   0  0  0  0  0  0  0  0  0  0  0  0
   13.8181  -20.8933   26.1333 O   0  0  0  0  0  0  0  0  0  0  0  0
   14.3990  -19.5026   27.8269 O   0  0  0  0  0  0  0  0  0  0  0  0
  2  1  1  0
  3  2  2  0
  4  3  1  0
  5 11  1  0
  5  4  2  0
  6  7  1  0
  6  5  1  0
  7  9  1  0
  7  8  1  6
  9 17  1  0
 10  9  2  0
 11 12  2  0
 12  2  1  0
 14 13  1  6
 15 14  1  0
 16 18  1  0
 16 14  1  0
 16 17  1  6
 18 26  1  0
 19 18  2  0
 20 21  1  0
 21 23  1  0
 21 22  2  0
 23 24  1  0
 25 24  1  1
 25 27  1  0
 26 25  1  0
 27 29  2  0
 27 28  1  0
M  END
$$$$
