YTQ.pdb
     RDKit          3D

 29 29  0  0  1  0  0  0  0  0999 V2000
    6.3788  -12.3615   16.2946 O   0  0  0  0  0  0  0  0  0  0  0  0
    6.9586  -13.0489   17.3633 C   0  0  0  0  0  0  0  0  0  0  0  0
    8.2084  -13.6190   17.2274 C   0  0  0  0  0  0  0  0  0  0  0  0
    8.8029  -14.3030   18.2676 C   0  0  0  0  0  0  0  0  0  0  0  0
    8.1349  -14.4184   19.4647 C   0  0  0  0  0  0  0  0  0  0  0  0
    8.7356  -15.1424   20.6031 C   0  0  0  0  0  0  0  0  0  0  0  0
    8.7578  -16.6442   20.3671 C   0  0  2  0  0  0  0  0  0  0  0  0
    7.4504  -17.2139   20.3357 N   0  0  0  0  0  0  0  0  0  0  0  0
    9.6241  -17.2288   21.4239 C   0  0  0  0  0  0  0  0  0  0  0  0
    9.0846  -17.5557   22.5118 O   0  0  0  0  0  0  0  0  0  0  0  0
    6.8915  -13.8618   19.6285 C   0  0  0  0  0  0  0  0  0  0  0  0
    6.3123  -13.1812   18.5770 C   0  0  0  0  0  0  0  0  0  0  0  0
   13.7481  -19.5562   22.5850 C   0  0  0  0  0  0  0  0  0  0  0  0
   12.9621  -18.7915   21.5397 C   0  0  1  0  0  0  0  0  0  0  0  0
   12.4757  -19.7036   20.6196 O   0  0  0  0  0  0  0  0  0  0  0  0
   11.8492  -18.0580   22.2713 C   0  0  2  0  0  0  0  0  0  0  0  0
   11.0109  -17.4384   21.2807 N   0  0  0  0  0  0  0  0  0  0  0  0
   12.4185  -17.0527   23.2242 C   0  0  0  0  0  0  0  0  0  0  0  0
   13.1162  -16.0984   22.7922 O   0  0  0  0  0  0  0  0  0  0  0  0
   13.1894  -16.7999   30.2070 N   0  0  0  0  0  0  0  0  0  0  0  0
   12.2705  -16.1805   29.3250 C   0  0  0  0  0  0  0  0  0  0  0  0
   11.0818  -16.0600   29.6422 O   0  0  0  0  0  0  0  0  0  0  0  0
   12.7416  -15.6762   28.0166 C   0  0  0  0  0  0  0  0  0  0  0  0
   12.3173  -16.6436   26.9404 C   0  0  0  0  0  0  0  0  0  0  0  0
   12.7564  -16.1662   25.5623 C   0  0  2  0  0  0  0  0  0  0  0  0
   12.2084  -17.1214   24.6138 N   0  0  0  0  0  0  0  0  0  0  0  0
   14.2196  -16.1337   25.5531 C   0  0  0  0  0  0  0  0  0  0  0  0
   14.9386  -17.2997   25.4037 O   0  0  0  0  0  0  0  0  0  0  0  0
   14.8269  -15.0523   25.6802 O   0  0  0  0  0  0  0  0  0  0  0  0
  2  1  1  0
  3  2  2  0
  4  3  1  0
  5 11  1  0
  5  4  2  0
  6  7  1  0
  6  5  1  0
  7  9  1  0
  7  8  1  1
  9 17  1  0
 10  9  2  0
 11 12  2  0
 12  2  1  0
 14 13  1  1
 15 14  1  0
 16 18  1  0
 16 14  1  0
 16 17  1  6
 18 26  1  0
 19 18  2  0
 20 21  1  0
 21 23  1  0
 21 22  2  0
 23 24  1  0
 25 24  1  1
 25 27  1  0
 26 25  1  0
 27 29  2  0
 27 28  1  0
M  END
$$$$
