YTQ.pdb
     RDKit          3D

 29 29  0  0  1  0  0  0  0  0999 V2000
    5.5705  -10.3196   28.3412 O   0  0  0  0  0  0  0  0  0  0  0  0
    6.1487  -11.2997   27.5312 C   0  0  0  0  0  0  0  0  0  0  0  0
    5.6961  -11.4918   26.2414 C   0  0  0  0  0  0  0  0  0  0  0  0
    6.2502  -12.4529   25.4213 C   0  0  0  0  0  0  0  0  0  0  0  0
    7.2752  -13.2354   25.9005 C   0  0  0  0  0  0  0  0  0  0  0  0
    7.8958  -14.2755   25.0556 C   0  0  0  0  0  0  0  0  0  0  0  0
    6.8780  -15.3043   24.5896 C   0  0  2  0  0  0  0  0  0  0  0  0
    6.3439  -16.0737   25.6656 N   0  0  0  0  0  0  0  0  0  0  0  0
    7.5526  -16.1338   23.5572 C   0  0  0  0  0  0  0  0  0  0  0  0
    8.0125  -17.2502   23.9088 O   0  0  0  0  0  0  0  0  0  0  0  0
    7.7455  -13.0668   27.1784 C   0  0  0  0  0  0  0  0  0  0  0  0
    7.1791  -12.1004   27.9845 C   0  0  0  0  0  0  0  0  0  0  0  0
    6.9547  -15.2168   19.7673 C   0  0  0  0  0  0  0  0  0  0  0  0
    8.3758  -15.7199   19.9178 C   0  0  1  0  0  0  0  0  0  0  0  0
    9.2190  -14.6226   19.9197 O   0  0  0  0  0  0  0  0  0  0  0  0
    8.4344  -16.4971   21.2233 C   0  0  2  0  0  0  0  0  0  0  0  0
    7.7077  -15.7456   22.2108 N   0  0  0  0  0  0  0  0  0  0  0  0
    9.8555  -16.7273   21.6359 C   0  0  0  0  0  0  0  0  0  0  0  0
   10.4866  -15.8302   22.2531 O   0  0  0  0  0  0  0  0  0  0  0  0
   14.3595  -19.7966   25.0496 N   0  0  0  0  0  0  0  0  0  0  0  0
   13.4609  -20.3649   24.1140 C   0  0  0  0  0  0  0  0  0  0  0  0
   12.7018  -21.2805   24.4511 O   0  0  0  0  0  0  0  0  0  0  0  0
   13.4344  -19.8558   22.7253 C   0  0  0  0  0  0  0  0  0  0  0  0
   12.0145  -19.4989   22.3645 C   0  0  0  0  0  0  0  0  0  0  0  0
   11.9429  -18.1444   21.6716 C   0  0  2  0  0  0  0  0  0  0  0  0
   10.5397  -17.9260   21.3623 N   0  0  0  0  0  0  0  0  0  0  0  0
   12.7827  -18.2170   20.4751 C   0  0  0  0  0  0  0  0  0  0  0  0
   14.1501  -18.0814   20.5778 O   0  0  0  0  0  0  0  0  0  0  0  0
   12.2685  -18.4019   19.3544 O   0  0  0  0  0  0  0  0  0  0  0  0
  2  1  1  0
  3  2  2  0
  4  3  1  0
  5 11  1  0
  5  4  2  0
  6  7  1  0
  6  5  1  0
  7  9  1  0
  7  8  1  1
  9 17  1  0
 10  9  2  0
 11 12  2  0
 12  2  1  0
 14 13  1  1
 15 14  1  0
 16 18  1  0
 16 14  1  0
 16 17  1  1
 18 26  1  0
 19 18  2  0
 20 21  1  0
 21 23  1  0
 21 22  2  0
 23 24  1  0
 25 24  1  6
 25 27  1  0
 26 25  1  0
 27 29  2  0
 27 28  1  0
M  END
$$$$
