YTQ.pdb
     RDKit          3D

 29 29  0  0  1  0  0  0  0  0999 V2000
    8.1316  -14.5974   15.1385 O   0  0  0  0  0  0  0  0  0  0  0  0
    8.2952  -14.4231   16.5147 C   0  0  0  0  0  0  0  0  0  0  0  0
    8.6674  -15.4873   17.3110 C   0  0  0  0  0  0  0  0  0  0  0  0
    8.8356  -15.3414   18.6726 C   0  0  0  0  0  0  0  0  0  0  0  0
    8.6276  -14.1089   19.2471 C   0  0  0  0  0  0  0  0  0  0  0  0
    8.7966  -13.9100   20.7006 C   0  0  0  0  0  0  0  0  0  0  0  0
    7.6078  -14.4430   21.4842 C   0  0  2  0  0  0  0  0  0  0  0  0
    6.4068  -13.7210   21.2175 N   0  0  0  0  0  0  0  0  0  0  0  0
    7.9973  -14.4188   22.9184 C   0  0  0  0  0  0  0  0  0  0  0  0
    8.1353  -13.2976   23.4709 O   0  0  0  0  0  0  0  0  0  0  0  0
    8.2571  -13.0331   18.4802 C   0  0  0  0  0  0  0  0  0  0  0  0
    8.0936  -13.1977   17.1198 C   0  0  0  0  0  0  0  0  0  0  0  0
    7.0557  -13.5484   25.1325 C   0  0  0  0  0  0  0  0  0  0  0  0
    7.1907  -14.9254   25.7497 C   0  0  1  0  0  0  0  0  0  0  0  0
    6.0271  -15.6268   25.4868 O   0  0  0  0  0  0  0  0  0  0  0  0
    8.4127  -15.5750   25.1200 C   0  0  2  0  0  0  0  0  0  0  0  0
    8.2210  -15.5741   23.6948 N   0  0  0  0  0  0  0  0  0  0  0  0
    8.6061  -16.9610   25.6532 C   0  0  0  0  0  0  0  0  0  0  0  0
    8.2887  -17.9568   24.9521 O   0  0  0  0  0  0  0  0  0  0  0  0
   13.3722  -18.8969   25.0590 N   0  0  0  0  0  0  0  0  0  0  0  0
   12.1714  -18.8470   24.3095 C   0  0  0  0  0  0  0  0  0  0  0  0
   12.1850  -19.0518   23.0905 O   0  0  0  0  0  0  0  0  0  0  0  0
   10.8952  -18.5474   24.9950 C   0  0  0  0  0  0  0  0  0  0  0  0
   11.1636  -18.3709   26.4683 C   0  0  0  0  0  0  0  0  0  0  0  0
    9.8731  -18.4199   27.2759 C   0  0  2  0  0  0  0  0  0  0  0  0
    9.1382  -17.2144   26.9309 N   0  0  0  0  0  0  0  0  0  0  0  0
   10.2414  -18.4740   28.6914 C   0  0  0  0  0  0  0  0  0  0  0  0
   10.4635  -19.6878   29.3047 O   0  0  0  0  0  0  0  0  0  0  0  0
   10.3570  -17.4237   29.3533 O   0  0  0  0  0  0  0  0  0  0  0  0
  2  1  1  0
  3  2  2  0
  4  3  1  0
  5 11  1  0
  5  4  2  0
  6  7  1  0
  6  5  1  0
  7  9  1  0
  7  8  1  1
  9 17  1  0
 10  9  2  0
 11 12  2  0
 12  2  1  0
 14 13  1  6
 15 14  1  0
 16 18  1  0
 16 14  1  0
 16 17  1  6
 18 26  1  0
 19 18  2  0
 20 21  1  0
 21 23  1  0
 21 22  2  0
 23 24  1  0
 25 24  1  6
 25 27  1  0
 26 25  1  0
 27 29  2  0
 27 28  1  0
M  END
$$$$
