YTQ.pdb
     RDKit          3D

 29 29  0  0  1  0  0  0  0  0999 V2000
   15.4735  -19.2577   12.4831 O   0  0  0  0  0  0  0  0  0  0  0  0
   14.8976  -18.5259   13.5242 C   0  0  0  0  0  0  0  0  0  0  0  0
   15.6168  -17.5316   14.1561 C   0  0  0  0  0  0  0  0  0  0  0  0
   15.0710  -16.7945   15.1867 C   0  0  0  0  0  0  0  0  0  0  0  0
   13.7828  -17.0572   15.5919 C   0  0  0  0  0  0  0  0  0  0  0  0
   13.1612  -16.2917   16.6912 C   0  0  0  0  0  0  0  0  0  0  0  0
   11.9865  -15.4586   16.2036 C   0  0  2  0  0  0  0  0  0  0  0  0
   12.3576  -14.5295   15.1868 N   0  0  0  0  0  0  0  0  0  0  0  0
   11.3990  -14.8073   17.4035 C   0  0  0  0  0  0  0  0  0  0  0  0
   12.1362  -14.0435   18.0777 O   0  0  0  0  0  0  0  0  0  0  0  0
   13.0442  -18.0397   14.9820 C   0  0  0  0  0  0  0  0  0  0  0  0
   13.6066  -18.7669   13.9527 C   0  0  0  0  0  0  0  0  0  0  0  0
    7.5058  -13.2055   19.8078 C   0  0  0  0  0  0  0  0  0  0  0  0
    8.0517  -14.0035   18.6414 C   0  0  1  0  0  0  0  0  0  0  0  0
    7.9666  -13.2147   17.5076 O   0  0  0  0  0  0  0  0  0  0  0  0
    9.4870  -14.3672   18.9869 C   0  0  2  0  0  0  0  0  0  0  0  0
   10.0683  -14.9936   17.8304 N   0  0  0  0  0  0  0  0  0  0  0  0
    9.5292  -15.2651   20.1847 C   0  0  0  0  0  0  0  0  0  0  0  0
    9.5161  -16.5149   20.0372 O   0  0  0  0  0  0  0  0  0  0  0  0
   14.0386  -16.3740   21.2751 N   0  0  0  0  0  0  0  0  0  0  0  0
   13.2175  -16.2630   22.4238 C   0  0  0  0  0  0  0  0  0  0  0  0
   13.5401  -16.8181   23.4802 O   0  0  0  0  0  0  0  0  0  0  0  0
   11.9667  -15.4765   22.3535 C   0  0  0  0  0  0  0  0  0  0  0  0
   10.8158  -16.3529   22.7793 C   0  0  0  0  0  0  0  0  0  0  0  0
    9.4895  -15.6102   22.6840 C   0  0  2  0  0  0  0  0  0  0  0  0
    9.5841  -14.7711   21.5011 N   0  0  0  0  0  0  0  0  0  0  0  0
    9.3281  -14.8371   23.9162 C   0  0  0  0  0  0  0  0  0  0  0  0
    9.3590  -13.4600   23.8803 O   0  0  0  0  0  0  0  0  0  0  0  0
    9.1616  -15.4173   25.0071 O   0  0  0  0  0  0  0  0  0  0  0  0
  2  1  1  0
  3  2  2  0
  4  3  1  0
  5 11  1  0
  5  4  2  0
  6  7  1  0
  6  5  1  0
  7  9  1  0
  7  8  1  6
  9 17  1  0
 10  9  2  0
 11 12  2  0
 12  2  1  0
 14 13  1  1
 15 14  1  0
 16 18  1  0
 16 14  1  0
 16 17  1  6
 18 26  1  0
 19 18  2  0
 20 21  1  0
 21 23  1  0
 21 22  2  0
 23 24  1  0
 25 24  1  1
 25 27  1  0
 26 25  1  0
 27 29  2  0
 27 28  1  0
M  END
$$$$
