VLR.pdb
     RDKit          3D

 27 26  0  0  1  0  0  0  0  0999 V2000
    6.8852  -15.0346   19.1532 C   0  0  0  0  0  0  0  0  0  0  0  0
    7.3980  -15.0367   20.5651 C   0  0  1  0  0  0  0  0  0  0  0  0
    8.7829  -15.6722   20.5325 C   0  0  0  0  0  0  0  0  0  0  0  0
    7.5389  -13.6778   21.1655 C   0  0  2  0  0  0  0  0  0  0  0  0
    8.4691  -12.8842   20.3434 N   0  0  0  0  0  0  0  0  0  0  0  0
    8.0283  -13.6532   22.5548 C   0  0  0  0  0  0  0  0  0  0  0  0
    9.2483  -13.3107   22.7392 O   0  0  0  0  0  0  0  0  0  0  0  0
    7.1847  -11.2054   26.1372 C   0  0  0  0  0  0  0  0  0  0  0  0
    6.1244  -12.3040   25.9631 C   0  0  2  0  0  0  0  0  0  0  0  0
    5.0818  -12.0402   27.0126 C   0  0  0  0  0  0  0  0  0  0  0  0
    6.8411  -13.5977   26.0901 C   0  0  0  0  0  0  0  0  0  0  0  0
    7.8487  -13.8925   25.0065 C   0  0  2  0  0  0  0  0  0  0  0  0
    7.2758  -13.9716   23.7072 N   0  0  0  0  0  0  0  0  0  0  0  0
    8.7152  -15.0626   25.3050 C   0  0  0  0  0  0  0  0  0  0  0  0
    9.2687  -15.2011   26.4356 O   0  0  0  0  0  0  0  0  0  0  0  0
   12.8296  -21.9237   22.5323 N   0  0  0  0  0  0  0  0  0  0  0  0
   12.4893  -21.0477   21.4746 C   0  0  0  0  0  0  0  0  0  0  0  0
   13.2141  -21.0252   20.3932 N   0  0  0  0  0  0  0  0  0  0  0  0
   11.3581  -20.1695   21.5495 N   0  0  0  0  0  0  0  0  0  0  0  0
   10.4540  -20.2069   22.6692 C   0  0  0  0  0  0  0  0  0  0  0  0
   10.9023  -19.1928   23.6896 C   0  0  0  0  0  0  0  0  0  0  0  0
   10.1348  -17.9022   23.3978 C   0  0  0  0  0  0  0  0  0  0  0  0
    9.7149  -17.2839   24.7470 C   0  0  2  0  0  0  0  0  0  0  0  0
    8.9711  -16.0868   24.3509 N   0  0  0  0  0  0  0  0  0  0  0  0
   10.9807  -16.9763   25.4350 C   0  0  0  0  0  0  0  0  0  0  0  0
   11.5620  -15.9070   25.2110 O   0  0  0  0  0  0  0  0  0  0  0  0
   11.5075  -17.8838   26.3244 O   0  0  0  0  0  0  0  0  0  0  0  0
  2  1  1  6
  2  4  1  0
  2  3  1  0
  4  6  1  0
  4  5  1  6
  6  7  2  0
  9  8  1  1
 10  9  1  0
 11  9  1  0
 12 11  1  1
 13 12  1  0
 13  6  1  0
 14 12  1  0
 14 15  2  0
 16 17  1  0
 17 19  1  0
 17 18  2  0
 19 20  1  0
 21 20  1  0
 21 22  1  0
 23 22  1  6
 23 24  1  0
 23 25  1  0
 24 14  1  0
 25 26  2  0
 25 27  1  0
M  END
$$$$
