VLR.pdb
     RDKit          3D

 27 26  0  0  1  0  0  0  0  0999 V2000
    3.4183  -18.7411   21.5110 C   0  0  0  0  0  0  0  0  0  0  0  0
    4.3778  -17.6420   21.8685 C   0  0  1  0  0  0  0  0  0  0  0  0
    3.7058  -16.8006   22.9470 C   0  0  0  0  0  0  0  0  0  0  0  0
    5.6798  -18.1226   22.4167 C   0  0  2  0  0  0  0  0  0  0  0  0
    5.4239  -18.9313   23.6215 N   0  0  0  0  0  0  0  0  0  0  0  0
    6.6382  -17.0635   22.7772 C   0  0  0  0  0  0  0  0  0  0  0  0
    7.2077  -16.4380   21.8158 O   0  0  0  0  0  0  0  0  0  0  0  0
    7.1267  -12.8162   24.7641 C   0  0  0  0  0  0  0  0  0  0  0  0
    6.7179  -13.9832   25.6765 C   0  0  2  0  0  0  0  0  0  0  0  0
    6.4521  -13.3776   27.0258 C   0  0  0  0  0  0  0  0  0  0  0  0
    7.8342  -14.9605   25.6271 C   0  0  0  0  0  0  0  0  0  0  0  0
    7.9982  -15.6956   24.3198 C   0  0  2  0  0  0  0  0  0  0  0  0
    6.9888  -16.6702   24.0879 N   0  0  0  0  0  0  0  0  0  0  0  0
    9.3629  -16.2485   24.1176 C   0  0  0  0  0  0  0  0  0  0  0  0
    9.8057  -17.1903   24.8392 O   0  0  0  0  0  0  0  0  0  0  0  0
    8.9804  -14.4466   17.5703 N   0  0  0  0  0  0  0  0  0  0  0  0
    9.4357  -13.3887   18.3923 C   0  0  0  0  0  0  0  0  0  0  0  0
    8.8988  -12.2074   18.2850 N   0  0  0  0  0  0  0  0  0  0  0  0
   10.4829  -13.5712   19.3549 N   0  0  0  0  0  0  0  0  0  0  0  0
   11.2184  -14.8060   19.4362 C   0  0  0  0  0  0  0  0  0  0  0  0
   10.7459  -15.5743   20.6434 C   0  0  0  0  0  0  0  0  0  0  0  0
   11.9766  -15.8294   21.5152 C   0  0  0  0  0  0  0  0  0  0  0  0
   11.4987  -16.4625   22.8379 C   0  0  2  0  0  0  0  0  0  0  0  0
   10.2435  -15.7607   23.1119 N   0  0  0  0  0  0  0  0  0  0  0  0
   12.5586  -16.1526   23.8129 C   0  0  0  0  0  0  0  0  0  0  0  0
   12.3519  -15.3237   24.7082 O   0  0  0  0  0  0  0  0  0  0  0  0
   13.7739  -16.7903   23.7197 O   0  0  0  0  0  0  0  0  0  0  0  0
  2  1  1  1
  2  4  1  0
  2  3  1  0
  4  6  1  0
  4  5  1  1
  6  7  2  0
  9  8  1  6
 10  9  1  0
 11  9  1  0
 12 11  1  1
 13 12  1  0
 13  6  1  0
 14 12  1  0
 14 15  2  0
 16 17  1  0
 17 19  1  0
 17 18  2  0
 19 20  1  0
 21 20  1  0
 21 22  1  0
 23 22  1  6
 23 24  1  0
 23 25  1  0
 24 14  1  0
 25 26  2  0
 25 27  1  0
M  END
$$$$
