VLR.pdb
     RDKit          3D

 27 26  0  0  1  0  0  0  0  0999 V2000
    6.6623  -12.7033   20.7012 C   0  0  0  0  0  0  0  0  0  0  0  0
    7.8072  -13.5551   20.2320 C   0  0  1  0  0  0  0  0  0  0  0  0
    9.0323  -12.6513   20.1619 C   0  0  0  0  0  0  0  0  0  0  0  0
    8.1357  -14.6913   21.1420 C   0  0  2  0  0  0  0  0  0  0  0  0
    7.0493  -15.6847   21.0809 N   0  0  0  0  0  0  0  0  0  0  0  0
    8.3363  -14.3257   22.5550 C   0  0  0  0  0  0  0  0  0  0  0  0
    9.4693  -13.8208   22.8733 O   0  0  0  0  0  0  0  0  0  0  0  0
    7.6648  -11.4232   25.8777 C   0  0  0  0  0  0  0  0  0  0  0  0
    6.4291  -12.2290   25.4474 C   0  0  2  0  0  0  0  0  0  0  0  0
    5.2632  -11.6101   26.1654 C   0  0  0  0  0  0  0  0  0  0  0  0
    6.7126  -13.6436   25.7969 C   0  0  0  0  0  0  0  0  0  0  0  0
    7.7676  -14.3221   24.9585 C   0  0  2  0  0  0  0  0  0  0  0  0
    7.3932  -14.4788   23.5955 N   0  0  0  0  0  0  0  0  0  0  0  0
    8.2675  -15.5916   25.5479 C   0  0  0  0  0  0  0  0  0  0  0  0
    7.7646  -16.0690   26.6076 O   0  0  0  0  0  0  0  0  0  0  0  0
    8.6446  -22.4652   27.1886 N   0  0  0  0  0  0  0  0  0  0  0  0
    7.3302  -21.9426   27.2230 C   0  0  0  0  0  0  0  0  0  0  0  0
    6.6492  -21.9738   28.3323 N   0  0  0  0  0  0  0  0  0  0  0  0
    6.7095  -21.3705   26.0638 N   0  0  0  0  0  0  0  0  0  0  0  0
    7.4621  -20.5811   25.1240 C   0  0  0  0  0  0  0  0  0  0  0  0
    8.1936  -19.4986   25.8749 C   0  0  0  0  0  0  0  0  0  0  0  0
    8.9360  -18.6610   24.8323 C   0  0  0  0  0  0  0  0  0  0  0  0
    9.7617  -17.5945   25.5804 C   0  0  2  0  0  0  0  0  0  0  0  0
    9.3275  -16.3399   24.9636 N   0  0  0  0  0  0  0  0  0  0  0  0
   11.1667  -17.9264   25.2875 C   0  0  0  0  0  0  0  0  0  0  0  0
   11.7627  -17.3411   24.3744 O   0  0  0  0  0  0  0  0  0  0  0  0
   11.8069  -18.8877   26.0346 O   0  0  0  0  0  0  0  0  0  0  0  0
  2  1  1  1
  2  4  1  0
  2  3  1  0
  4  6  1  0
  4  5  1  1
  6  7  2  0
  9  8  1  1
 10  9  1  0
 11  9  1  0
 12 11  1  1
 13 12  1  0
 13  6  1  0
 14 12  1  0
 14 15  2  0
 16 17  1  0
 17 19  1  0
 17 18  2  0
 19 20  1  0
 21 20  1  0
 21 22  1  0
 23 22  1  6
 23 24  1  0
 23 25  1  0
 24 14  1  0
 25 26  2  0
 25 27  1  0
M  END
$$$$
