VLR.pdb
     RDKit          3D

 27 26  0  0  1  0  0  0  0  0999 V2000
    7.3830  -16.2530   20.2704 C   0  0  0  0  0  0  0  0  0  0  0  0
    8.0292  -15.0539   19.6370 C   0  0  1  0  0  0  0  0  0  0  0  0
    7.5731  -15.0211   18.1831 C   0  0  0  0  0  0  0  0  0  0  0  0
    7.6456  -13.7533   20.2600 C   0  0  2  0  0  0  0  0  0  0  0  0
    8.3934  -12.6673   19.6024 N   0  0  0  0  0  0  0  0  0  0  0  0
    7.8875  -13.6565   21.7099 C   0  0  0  0  0  0  0  0  0  0  0  0
    9.1047  -13.5546   22.0944 O   0  0  0  0  0  0  0  0  0  0  0  0
    7.6090  -12.8430   26.9484 C   0  0  0  0  0  0  0  0  0  0  0  0
    6.6481  -12.1581   25.9640 C   0  0  2  0  0  0  0  0  0  0  0  0
    5.5682  -11.5389   26.8058 C   0  0  0  0  0  0  0  0  0  0  0  0
    6.1945  -13.2132   25.0235 C   0  0  0  0  0  0  0  0  0  0  0  0
    7.2525  -13.7557   24.0948 C   0  0  2  0  0  0  0  0  0  0  0  0
    6.8999  -13.6642   22.7200 N   0  0  0  0  0  0  0  0  0  0  0  0
    7.7199  -15.1185   24.4600 C   0  0  0  0  0  0  0  0  0  0  0  0
    7.0479  -16.1485   24.1580 O   0  0  0  0  0  0  0  0  0  0  0  0
   14.1332  -19.7625   24.1083 N   0  0  0  0  0  0  0  0  0  0  0  0
   13.2355  -20.4474   23.2557 C   0  0  0  0  0  0  0  0  0  0  0  0
   13.4267  -21.7079   22.9913 N   0  0  0  0  0  0  0  0  0  0  0  0
   12.1046  -19.7954   22.6620 N   0  0  0  0  0  0  0  0  0  0  0  0
   11.8497  -18.3949   22.8767 C   0  0  0  0  0  0  0  0  0  0  0  0
   11.0340  -18.2368   24.1338 C   0  0  0  0  0  0  0  0  0  0  0  0
   10.3603  -16.8658   24.0548 C   0  0  0  0  0  0  0  0  0  0  0  0
    9.4580  -16.7077   25.2957 C   0  0  2  0  0  0  0  0  0  0  0  0
    8.9371  -15.3463   25.1610 N   0  0  0  0  0  0  0  0  0  0  0  0
   10.3628  -16.8690   26.4470 C   0  0  0  0  0  0  0  0  0  0  0  0
   10.7597  -15.8733   27.0654 O   0  0  0  0  0  0  0  0  0  0  0  0
   10.7598  -18.1301   26.8266 O   0  0  0  0  0  0  0  0  0  0  0  0
  2  1  1  1
  2  4  1  0
  2  3  1  0
  4  6  1  0
  4  5  1  6
  6  7  2  0
  9  8  1  1
 10  9  1  0
 11  9  1  0
 12 11  1  1
 13 12  1  0
 13  6  1  0
 14 12  1  0
 14 15  2  0
 16 17  1  0
 17 19  1  0
 17 18  2  0
 19 20  1  0
 21 20  1  0
 21 22  1  0
 23 22  1  6
 23 24  1  0
 23 25  1  0
 24 14  1  0
 25 26  2  0
 25 27  1  0
M  END
$$$$
