VLR.pdb
     RDKit          3D

 27 26  0  0  1  0  0  0  0  0999 V2000
    6.8635  -15.9051   19.8935 C   0  0  0  0  0  0  0  0  0  0  0  0
    7.6750  -14.7955   19.2879 C   0  0  1  0  0  0  0  0  0  0  0  0
    7.1250  -14.5583   17.8865 C   0  0  0  0  0  0  0  0  0  0  0  0
    7.5921  -13.5035   20.0300 C   0  0  2  0  0  0  0  0  0  0  0  0
    8.4233  -12.5005   19.3415 N   0  0  0  0  0  0  0  0  0  0  0  0
    8.0229  -13.5596   21.4377 C   0  0  0  0  0  0  0  0  0  0  0  0
    9.2742  -13.7164   21.6606 O   0  0  0  0  0  0  0  0  0  0  0  0
    6.3046  -12.2304   27.1878 C   0  0  0  0  0  0  0  0  0  0  0  0
    7.4106  -12.8187   26.2978 C   0  0  2  0  0  0  0  0  0  0  0  0
    8.6289  -11.9733   26.5417 C   0  0  0  0  0  0  0  0  0  0  0  0
    6.8858  -12.7917   24.9096 C   0  0  0  0  0  0  0  0  0  0  0  0
    7.7104  -13.5346   23.8876 C   0  0  2  0  0  0  0  0  0  0  0  0
    7.1835  -13.4551   22.5690 N   0  0  0  0  0  0  0  0  0  0  0  0
    8.0205  -14.9342   24.2798 C   0  0  0  0  0  0  0  0  0  0  0  0
    7.1225  -15.8269   24.3004 O   0  0  0  0  0  0  0  0  0  0  0  0
   14.8176  -19.7379   21.8498 N   0  0  0  0  0  0  0  0  0  0  0  0
   14.0492  -20.5624   22.7053 C   0  0  0  0  0  0  0  0  0  0  0  0
   14.3581  -21.8197   22.8428 N   0  0  0  0  0  0  0  0  0  0  0  0
   12.9250  -20.0575   23.4386 N   0  0  0  0  0  0  0  0  0  0  0  0
   12.5021  -18.6873   23.3114 C   0  0  0  0  0  0  0  0  0  0  0  0
   11.3162  -18.4593   24.2127 C   0  0  0  0  0  0  0  0  0  0  0  0
   10.8416  -17.0263   23.9656 C   0  0  0  0  0  0  0  0  0  0  0  0
    9.6103  -16.7731   24.8593 C   0  0  2  0  0  0  0  0  0  0  0  0
    9.3296  -15.3518   24.6495 N   0  0  0  0  0  0  0  0  0  0  0  0
   10.0643  -17.0767   26.2275 C   0  0  0  0  0  0  0  0  0  0  0  0
   10.4480  -16.1628   26.9685 O   0  0  0  0  0  0  0  0  0  0  0  0
   10.0574  -18.3785   26.6715 O   0  0  0  0  0  0  0  0  0  0  0  0
  2  1  1  1
  2  4  1  0
  2  3  1  0
  4  6  1  0
  4  5  1  6
  6  7  2  0
  9  8  1  1
 10  9  1  0
 11  9  1  0
 12 11  1  1
 13 12  1  0
 13  6  1  0
 14 12  1  0
 14 15  2  0
 16 17  1  0
 17 19  1  0
 17 18  2  0
 19 20  1  0
 21 20  1  0
 21 22  1  0
 23 22  1  6
 23 24  1  0
 23 25  1  0
 24 14  1  0
 25 26  2  0
 25 27  1  0
M  END
$$$$
