VLR.pdb
     RDKit          3D

 27 26  0  0  1  0  0  0  0  0999 V2000
    7.7894  -14.1178   18.2150 C   0  0  0  0  0  0  0  0  0  0  0  0
    8.2414  -13.6329   19.5630 C   0  0  1  0  0  0  0  0  0  0  0  0
    7.1488  -12.7112   20.0916 C   0  0  0  0  0  0  0  0  0  0  0  0
    8.4409  -14.7187   20.5670 C   0  0  2  0  0  0  0  0  0  0  0  0
    7.2703  -15.6133   20.5452 N   0  0  0  0  0  0  0  0  0  0  0  0
    8.6367  -14.2627   21.9540 C   0  0  0  0  0  0  0  0  0  0  0  0
    9.8124  -13.8752   22.2819 O   0  0  0  0  0  0  0  0  0  0  0  0
    5.6524  -12.3382   26.9772 C   0  0  0  0  0  0  0  0  0  0  0  0
    7.0207  -12.7007   26.3790 C   0  0  2  0  0  0  0  0  0  0  0  0
    7.8537  -11.4533   26.4705 C   0  0  0  0  0  0  0  0  0  0  0  0
    6.7565  -13.1890   25.0023 C   0  0  0  0  0  0  0  0  0  0  0  0
    7.9506  -13.7507   24.2708 C   0  0  2  0  0  0  0  0  0  0  0  0
    7.6463  -14.2109   22.9600 N   0  0  0  0  0  0  0  0  0  0  0  0
    8.7041  -14.7634   25.0554 C   0  0  0  0  0  0  0  0  0  0  0  0
    8.8910  -14.6266   26.3005 O   0  0  0  0  0  0  0  0  0  0  0  0
    8.4464  -21.0858   28.9768 N   0  0  0  0  0  0  0  0  0  0  0  0
    7.2686  -21.0052   28.1969 C   0  0  0  0  0  0  0  0  0  0  0  0
    6.2028  -21.6572   28.5632 N   0  0  0  0  0  0  0  0  0  0  0  0
    7.2030  -20.2198   26.9988 N   0  0  0  0  0  0  0  0  0  0  0  0
    8.1867  -20.3595   25.9570 C   0  0  0  0  0  0  0  0  0  0  0  0
    9.2131  -19.2667   26.1084 C   0  0  0  0  0  0  0  0  0  0  0  0
    8.7068  -18.0692   25.3024 C   0  0  0  0  0  0  0  0  0  0  0  0
    9.8089  -16.9902   25.3120 C   0  0  2  0  0  0  0  0  0  0  0  0
    9.2531  -15.9349   24.4631 N   0  0  0  0  0  0  0  0  0  0  0  0
   10.9884  -17.6458   24.7213 C   0  0  0  0  0  0  0  0  0  0  0  0
   11.1574  -17.6262   23.4955 O   0  0  0  0  0  0  0  0  0  0  0  0
   11.8958  -18.2762   25.5406 O   0  0  0  0  0  0  0  0  0  0  0  0
  2  1  1  6
  2  4  1  0
  2  3  1  0
  4  6  1  0
  4  5  1  1
  6  7  2  0
  9  8  1  6
 10  9  1  0
 11  9  1  0
 12 11  1  1
 13 12  1  0
 13  6  1  0
 14 12  1  0
 14 15  2  0
 16 17  1  0
 17 19  1  0
 17 18  2  0
 19 20  1  0
 21 20  1  0
 21 22  1  0
 23 22  1  6
 23 24  1  0
 23 25  1  0
 24 14  1  0
 25 26  2  0
 25 27  1  0
M  END
$$$$
