VLR.pdb
     RDKit          3D

 27 26  0  0  1  0  0  0  0  0999 V2000
    8.0397  -21.5283   17.5184 C   0  0  0  0  0  0  0  0  0  0  0  0
    8.5543  -20.2909   18.1969 C   0  0  1  0  0  0  0  0  0  0  0  0
   10.0641  -20.4523   18.3272 C   0  0  0  0  0  0  0  0  0  0  0  0
    8.2986  -19.0294   17.4417 C   0  0  2  0  0  0  0  0  0  0  0  0
    8.8147  -19.1787   16.0697 N   0  0  0  0  0  0  0  0  0  0  0  0
    8.9009  -17.8171   18.0228 C   0  0  0  0  0  0  0  0  0  0  0  0
   10.1552  -17.6397   17.8355 O   0  0  0  0  0  0  0  0  0  0  0  0
    9.0867  -13.4122   21.1788 C   0  0  0  0  0  0  0  0  0  0  0  0
    8.7988  -13.1960   19.6848 C   0  0  2  0  0  0  0  0  0  0  0  0
    7.9972  -11.9278   19.5991 C   0  0  0  0  0  0  0  0  0  0  0  0
    8.1039  -14.4202   19.2138 C   0  0  0  0  0  0  0  0  0  0  0  0
    8.9096  -15.6938   19.2845 C   0  0  2  0  0  0  0  0  0  0  0  0
    8.2229  -16.8274   18.7688 N   0  0  0  0  0  0  0  0  0  0  0  0
    9.4865  -15.9565   20.6288 C   0  0  0  0  0  0  0  0  0  0  0  0
    8.7719  -16.3936   21.5785 O   0  0  0  0  0  0  0  0  0  0  0  0
   15.1636  -13.0912   18.9975 N   0  0  0  0  0  0  0  0  0  0  0  0
   15.5341  -14.3973   18.5990 C   0  0  0  0  0  0  0  0  0  0  0  0
   16.0014  -14.6013   17.4010 N   0  0  0  0  0  0  0  0  0  0  0  0
   15.4126  -15.5233   19.4787 N   0  0  0  0  0  0  0  0  0  0  0  0
   14.8536  -15.3857   20.7982 C   0  0  0  0  0  0  0  0  0  0  0  0
   13.4664  -15.9745   20.8019 C   0  0  0  0  0  0  0  0  0  0  0  0
   12.8605  -15.6712   22.1732 C   0  0  0  0  0  0  0  0  0  0  0  0
   11.4205  -16.2234   22.1888 C   0  0  2  0  0  0  0  0  0  0  0  0
   10.8607  -15.7376   20.9264 N   0  0  0  0  0  0  0  0  0  0  0  0
   10.7916  -15.6128   23.3727 C   0  0  0  0  0  0  0  0  0  0  0  0
    9.9695  -14.6982   23.2335 O   0  0  0  0  0  0  0  0  0  0  0  0
   11.1244  -16.0665   24.6279 O   0  0  0  0  0  0  0  0  0  0  0  0
  2  1  1  6
  2  4  1  0
  2  3  1  0
  4  6  1  0
  4  5  1  6
  6  7  2  0
  9  8  1  1
 10  9  1  0
 11  9  1  0
 12 11  1  1
 13 12  1  0
 13  6  1  0
 14 12  1  0
 14 15  2  0
 16 17  1  0
 17 19  1  0
 17 18  2  0
 19 20  1  0
 21 20  1  0
 21 22  1  0
 23 22  1  6
 23 24  1  0
 23 25  1  0
 24 14  1  0
 25 26  2  0
 25 27  1  0
M  END
$$$$
