VLR.pdb
     RDKit          3D

 27 26  0  0  1  0  0  0  0  0999 V2000
    6.6922  -15.0743   18.9635 C   0  0  0  0  0  0  0  0  0  0  0  0
    7.1120  -15.2176   20.3986 C   0  0  1  0  0  0  0  0  0  0  0  0
    8.2971  -16.1757   20.4200 C   0  0  0  0  0  0  0  0  0  0  0  0
    7.5511  -13.9420   21.0365 C   0  0  2  0  0  0  0  0  0  0  0  0
    8.6694  -13.3777   20.2606 N   0  0  0  0  0  0  0  0  0  0  0  0
    7.9865  -14.0591   22.4390 C   0  0  0  0  0  0  0  0  0  0  0  0
    9.2207  -14.3293   22.6478 O   0  0  0  0  0  0  0  0  0  0  0  0
    7.8522  -11.3428   26.2262 C   0  0  0  0  0  0  0  0  0  0  0  0
    6.5500  -12.0630   25.8424 C   0  0  2  0  0  0  0  0  0  0  0  0
    5.4927  -11.5203   26.7621 C   0  0  0  0  0  0  0  0  0  0  0  0
    6.8235  -13.5159   25.9757 C   0  0  0  0  0  0  0  0  0  0  0  0
    7.6785  -14.1194   24.8889 C   0  0  2  0  0  0  0  0  0  0  0  0
    7.1685  -13.8996   23.5797 N   0  0  0  0  0  0  0  0  0  0  0  0
    8.0139  -15.5482   25.1230 C   0  0  0  0  0  0  0  0  0  0  0  0
    7.3104  -16.4793   24.6311 O   0  0  0  0  0  0  0  0  0  0  0  0
   10.3378  -20.9670   21.1925 N   0  0  0  0  0  0  0  0  0  0  0  0
   11.6701  -20.9934   21.6684 C   0  0  0  0  0  0  0  0  0  0  0  0
   12.5012  -21.8891   21.2189 N   0  0  0  0  0  0  0  0  0  0  0  0
   12.1474  -20.0558   22.6429 N   0  0  0  0  0  0  0  0  0  0  0  0
   11.4977  -18.7866   22.8421 C   0  0  0  0  0  0  0  0  0  0  0  0
   10.8966  -18.7602   24.2236 C   0  0  0  0  0  0  0  0  0  0  0  0
   10.3140  -17.3605   24.4261 C   0  0  0  0  0  0  0  0  0  0  0  0
    9.6312  -17.3257   25.8087 C   0  0  2  0  0  0  0  0  0  0  0  0
    9.1334  -15.9523   25.9030 N   0  0  0  0  0  0  0  0  0  0  0  0
   10.7068  -17.6179   26.7718 C   0  0  0  0  0  0  0  0  0  0  0  0
   11.2345  -16.6965   27.4075 O   0  0  0  0  0  0  0  0  0  0  0  0
   11.1170  -18.9177   26.9573 O   0  0  0  0  0  0  0  0  0  0  0  0
  2  1  1  6
  2  4  1  0
  2  3  1  0
  4  6  1  0
  4  5  1  6
  6  7  2  0
  9  8  1  1
 10  9  1  0
 11  9  1  0
 12 11  1  1
 13 12  1  0
 13  6  1  0
 14 12  1  0
 14 15  2  0
 16 17  1  0
 17 19  1  0
 17 18  2  0
 19 20  1  0
 21 20  1  0
 21 22  1  0
 23 22  1  6
 23 24  1  0
 23 25  1  0
 24 14  1  0
 25 26  2  0
 25 27  1  0
M  END
$$$$
