VLR.pdb
     RDKit          3D

 27 26  0  0  1  0  0  0  0  0999 V2000
    7.9464  -12.1653   20.0251 C   0  0  0  0  0  0  0  0  0  0  0  0
    7.5016  -13.6001   20.0262 C   0  0  1  0  0  0  0  0  0  0  0  0
    7.5645  -14.0846   18.5826 C   0  0  0  0  0  0  0  0  0  0  0  0
    8.3613  -14.5051   20.8440 C   0  0  2  0  0  0  0  0  0  0  0  0
    7.7795  -15.8588   20.8333 N   0  0  0  0  0  0  0  0  0  0  0  0
    8.5403  -14.1001   22.2491 C   0  0  0  0  0  0  0  0  0  0  0  0
    8.7399  -12.8562   22.4784 O   0  0  0  0  0  0  0  0  0  0  0  0
    5.8727  -12.3227   26.4133 C   0  0  0  0  0  0  0  0  0  0  0  0
    7.2967  -12.8900   26.3036 C   0  0  2  0  0  0  0  0  0  0  0  0
    8.2177  -11.7708   26.7003 C   0  0  0  0  0  0  0  0  0  0  0  0
    7.4461  -13.3717   24.9075 C   0  0  0  0  0  0  0  0  0  0  0  0
    8.4927  -14.4375   24.6954 C   0  0  2  0  0  0  0  0  0  0  0  0
    8.5112  -14.9572   23.3717 N   0  0  0  0  0  0  0  0  0  0  0  0
    8.4555  -15.5167   25.7166 C   0  0  0  0  0  0  0  0  0  0  0  0
    8.3691  -15.2520   26.9520 O   0  0  0  0  0  0  0  0  0  0  0  0
   13.3779  -19.2371   20.9322 N   0  0  0  0  0  0  0  0  0  0  0  0
   12.0278  -19.2921   20.5125 C   0  0  0  0  0  0  0  0  0  0  0  0
   11.7270  -19.8309   19.3660 N   0  0  0  0  0  0  0  0  0  0  0  0
   10.9608  -18.7685   21.3148 N   0  0  0  0  0  0  0  0  0  0  0  0
   11.2152  -17.8413   22.3864 C   0  0  0  0  0  0  0  0  0  0  0  0
   10.7673  -18.4635   23.6837 C   0  0  0  0  0  0  0  0  0  0  0  0
   10.7342  -17.3426   24.7240 C   0  0  0  0  0  0  0  0  0  0  0  0
    9.6654  -17.7025   25.7761 C   0  0  2  0  0  0  0  0  0  0  0  0
    8.5120  -16.8963   25.3725 N   0  0  0  0  0  0  0  0  0  0  0  0
   10.2425  -17.2812   27.0643 C   0  0  0  0  0  0  0  0  0  0  0  0
    9.8162  -16.2665   27.6303 O   0  0  0  0  0  0  0  0  0  0  0  0
   11.2540  -18.0224   27.6296 O   0  0  0  0  0  0  0  0  0  0  0  0
  2  1  1  6
  2  4  1  0
  2  3  1  0
  4  6  1  0
  4  5  1  1
  6  7  2  0
  9  8  1  6
 10  9  1  0
 11  9  1  0
 12 11  1  6
 13 12  1  0
 13  6  1  0
 14 12  1  0
 14 15  2  0
 16 17  1  0
 17 19  1  0
 17 18  2  0
 19 20  1  0
 21 20  1  0
 21 22  1  0
 23 22  1  6
 23 24  1  0
 23 25  1  0
 24 14  1  0
 25 26  2  0
 25 27  1  0
M  END
$$$$
