VLR.pdb
     RDKit          3D

 27 26  0  0  1  0  0  0  0  0999 V2000
    7.5351  -13.5403   18.2140 C   0  0  0  0  0  0  0  0  0  0  0  0
    7.9896  -13.1773   19.5989 C   0  0  1  0  0  0  0  0  0  0  0  0
    6.8037  -12.5222   20.2970 C   0  0  0  0  0  0  0  0  0  0  0  0
    8.4133  -14.3437   20.4277 C   0  0  2  0  0  0  0  0  0  0  0  0
    7.4255  -15.4261   20.2733 N   0  0  0  0  0  0  0  0  0  0  0  0
    8.5632  -14.0693   21.8673 C   0  0  0  0  0  0  0  0  0  0  0  0
    9.3788  -13.1412   22.2040 O   0  0  0  0  0  0  0  0  0  0  0  0
    5.5737  -12.7007   26.6696 C   0  0  0  0  0  0  0  0  0  0  0  0
    6.9718  -13.1783   26.2468 C   0  0  2  0  0  0  0  0  0  0  0  0
    7.8942  -12.0167   26.4875 C   0  0  0  0  0  0  0  0  0  0  0  0
    6.8527  -13.6129   24.8324 C   0  0  0  0  0  0  0  0  0  0  0  0
    8.0532  -14.3327   24.2696 C   0  0  2  0  0  0  0  0  0  0  0  0
    7.8888  -14.7345   22.9153 N   0  0  0  0  0  0  0  0  0  0  0  0
    8.5314  -15.4485   25.1271 C   0  0  0  0  0  0  0  0  0  0  0  0
    8.9903  -15.2370   26.2883 O   0  0  0  0  0  0  0  0  0  0  0  0
   12.8080  -14.3956   19.8291 N   0  0  0  0  0  0  0  0  0  0  0  0
   13.6719  -15.3932   20.3395 C   0  0  0  0  0  0  0  0  0  0  0  0
   14.9619  -15.2327   20.2661 N   0  0  0  0  0  0  0  0  0  0  0  0
   13.1726  -16.5936   20.9444 N   0  0  0  0  0  0  0  0  0  0  0  0
   11.7711  -16.7632   21.2263 C   0  0  0  0  0  0  0  0  0  0  0  0
   11.5523  -16.6131   22.7097 C   0  0  0  0  0  0  0  0  0  0  0  0
   10.0396  -16.5644   22.9313 C   0  0  0  0  0  0  0  0  0  0  0  0
    9.7124  -17.4298   24.1654 C   0  0  2  0  0  0  0  0  0  0  0  0
    8.5013  -16.8060   24.7015 N   0  0  0  0  0  0  0  0  0  0  0  0
   10.8790  -17.2835   25.0529 C   0  0  0  0  0  0  0  0  0  0  0  0
   11.5219  -18.2829   25.3985 O   0  0  0  0  0  0  0  0  0  0  0  0
   11.2455  -16.0323   25.4912 O   0  0  0  0  0  0  0  0  0  0  0  0
  2  1  1  6
  2  4  1  0
  2  3  1  0
  4  6  1  0
  4  5  1  1
  6  7  2  0
  9  8  1  6
 10  9  1  0
 11  9  1  0
 12 11  1  1
 13 12  1  0
 13  6  1  0
 14 12  1  0
 14 15  2  0
 16 17  1  0
 17 19  1  0
 17 18  2  0
 19 20  1  0
 21 20  1  0
 21 22  1  0
 23 22  1  6
 23 24  1  0
 23 25  1  0
 24 14  1  0
 25 26  2  0
 25 27  1  0
M  END
$$$$
