VLR.pdb
     RDKit          3D

 27 26  0  0  1  0  0  0  0  0999 V2000
    6.7440  -20.7457   28.3022 C   0  0  0  0  0  0  0  0  0  0  0  0
    6.4983  -19.5355   27.4468 C   0  0  1  0  0  0  0  0  0  0  0  0
    6.1728  -18.3843   28.3911 C   0  0  0  0  0  0  0  0  0  0  0  0
    7.6706  -19.1239   26.6204 C   0  0  2  0  0  0  0  0  0  0  0  0
    8.8444  -18.9670   27.4971 N   0  0  0  0  0  0  0  0  0  0  0  0
    7.4977  -17.8701   25.8664 C   0  0  0  0  0  0  0  0  0  0  0  0
    6.6729  -17.8856   24.8869 O   0  0  0  0  0  0  0  0  0  0  0  0
    5.9667  -13.4337   26.0380 C   0  0  0  0  0  0  0  0  0  0  0  0
    7.2055  -13.7633   26.8855 C   0  0  2  0  0  0  0  0  0  0  0  0
    7.5219  -12.5127   27.6562 C   0  0  0  0  0  0  0  0  0  0  0  0
    8.2549  -14.2059   25.9335 C   0  0  0  0  0  0  0  0  0  0  0  0
    8.0028  -15.5305   25.2567 C   0  0  2  0  0  0  0  0  0  0  0  0
    8.1570  -16.6475   26.1234 N   0  0  0  0  0  0  0  0  0  0  0  0
    8.7582  -15.7017   23.9883 C   0  0  0  0  0  0  0  0  0  0  0  0
    9.8504  -16.3418   23.9532 O   0  0  0  0  0  0  0  0  0  0  0  0
    7.1831  -12.5483   15.7957 N   0  0  0  0  0  0  0  0  0  0  0  0
    7.7903  -13.8215   15.6857 C   0  0  0  0  0  0  0  0  0  0  0  0
    7.8343  -14.4210   14.5308 N   0  0  0  0  0  0  0  0  0  0  0  0
    8.3685  -14.4877   16.8164 N   0  0  0  0  0  0  0  0  0  0  0  0
    8.3318  -13.9010   18.1306 C   0  0  0  0  0  0  0  0  0  0  0  0
    8.9576  -14.8613   19.1088 C   0  0  0  0  0  0  0  0  0  0  0  0
    8.4221  -14.4940   20.4937 C   0  0  0  0  0  0  0  0  0  0  0  0
    9.0105  -15.4932   21.5108 C   0  0  2  0  0  0  0  0  0  0  0  0
    8.3049  -15.1650   22.7508 N   0  0  0  0  0  0  0  0  0  0  0  0
   10.4488  -15.1795   21.5640 C   0  0  0  0  0  0  0  0  0  0  0  0
   11.2085  -15.6109   20.6874 O   0  0  0  0  0  0  0  0  0  0  0  0
   10.9371  -14.4062   22.5914 O   0  0  0  0  0  0  0  0  0  0  0  0
  2  1  1  1
  2  4  1  0
  2  3  1  0
  4  6  1  0
  4  5  1  1
  6  7  2  0
  9  8  1  6
 10  9  1  0
 11  9  1  0
 12 11  1  1
 13 12  1  0
 13  6  1  0
 14 12  1  0
 14 15  2  0
 16 17  1  0
 17 19  1  0
 17 18  2  0
 19 20  1  0
 21 20  1  0
 21 22  1  0
 23 22  1  6
 23 24  1  0
 23 25  1  0
 24 14  1  0
 25 26  2  0
 25 27  1  0
M  END
$$$$
