VLR.pdb
     RDKit          3D

 27 26  0  0  1  0  0  0  0  0999 V2000
    9.2426  -20.6117   28.8456 C   0  0  0  0  0  0  0  0  0  0  0  0
    8.3983  -19.4415   28.4281 C   0  0  1  0  0  0  0  0  0  0  0  0
    8.7386  -18.2916   29.3687 C   0  0  0  0  0  0  0  0  0  0  0  0
    8.6500  -18.9737   27.0336 C   0  0  2  0  0  0  0  0  0  0  0  0
   10.0682  -18.5960   26.9030 N   0  0  0  0  0  0  0  0  0  0  0  0
    7.8339  -17.8267   26.5995 C   0  0  0  0  0  0  0  0  0  0  0  0
    6.6623  -18.0798   26.1485 O   0  0  0  0  0  0  0  0  0  0  0  0
    7.7420  -11.6661   26.1217 C   0  0  0  0  0  0  0  0  0  0  0  0
    6.9678  -12.9726   25.8867 C   0  0  2  0  0  0  0  0  0  0  0  0
    5.6327  -12.7854   26.5504 C   0  0  0  0  0  0  0  0  0  0  0  0
    7.8087  -14.0606   26.4459 C   0  0  0  0  0  0  0  0  0  0  0  0
    7.4270  -15.4588   26.0269 C   0  0  2  0  0  0  0  0  0  0  0  0
    8.2222  -16.4690   26.6349 N   0  0  0  0  0  0  0  0  0  0  0  0
    7.3372  -15.6326   24.5536 C   0  0  0  0  0  0  0  0  0  0  0  0
    6.2309  -15.8693   23.9843 O   0  0  0  0  0  0  0  0  0  0  0  0
    9.7018  -12.7198   17.7965 N   0  0  0  0  0  0  0  0  0  0  0  0
    8.4123  -13.1355   17.3887 C   0  0  0  0  0  0  0  0  0  0  0  0
    8.1813  -13.3936   16.1337 N   0  0  0  0  0  0  0  0  0  0  0  0
    7.3325  -13.2857   18.3204 N   0  0  0  0  0  0  0  0  0  0  0  0
    7.5338  -13.1086   19.7349 C   0  0  0  0  0  0  0  0  0  0  0  0
    8.4203  -14.2167   20.2418 C   0  0  0  0  0  0  0  0  0  0  0  0
    8.3127  -14.2065   21.7676 C   0  0  0  0  0  0  0  0  0  0  0  0
    8.3137  -15.6703   22.2536 C   0  0  2  0  0  0  0  0  0  0  0  0
    8.4745  -15.5430   23.7031 N   0  0  0  0  0  0  0  0  0  0  0  0
    9.4773  -16.2890   21.5953 C   0  0  0  0  0  0  0  0  0  0  0  0
   10.5166  -16.4887   22.2368 O   0  0  0  0  0  0  0  0  0  0  0  0
    9.3982  -16.6413   20.2680 O   0  0  0  0  0  0  0  0  0  0  0  0
  2  1  1  1
  2  4  1  0
  2  3  1  0
  4  6  1  0
  4  5  1  1
  6  7  2  0
  9  8  1  1
 10  9  1  0
 11  9  1  0
 12 11  1  6
 13 12  1  0
 13  6  1  0
 14 12  1  0
 14 15  2  0
 16 17  1  0
 17 19  1  0
 17 18  2  0
 19 20  1  0
 21 20  1  0
 21 22  1  0
 23 22  1  6
 23 24  1  0
 23 25  1  0
 24 14  1  0
 25 26  2  0
 25 27  1  0
M  END
$$$$
