DQQ.pdb
     RDKit          3D

 27 26  0  0  1  0  0  0  0  0999 V2000
   15.6975  -14.3233   18.4214 N   0  0  0  0  0  0  0  0  0  0  0  0
   14.3711  -14.5489   17.9522 C   0  0  1  0  0  0  0  0  0  0  0  0
   14.2256  -15.9276   17.2966 C   0  0  0  0  0  0  0  0  0  0  0  0
   15.5369  -16.4401   16.8811 C   0  0  0  0  0  0  0  0  0  0  0  0
   16.5263  -16.2714   17.6237 O   0  0  0  0  0  0  0  0  0  0  0  0
   13.3633  -14.5243   19.0620 C   0  0  0  0  0  0  0  0  0  0  0  0
   13.7041  -14.7638   20.2504 O   0  0  0  0  0  0  0  0  0  0  0  0
   15.6625  -17.0999   15.6800 O   0  0  0  0  0  0  0  0  0  0  0  0
    7.6550  -11.9605   18.8254 N   0  0  0  0  0  0  0  0  0  0  0  0
    7.4176  -12.9442   19.8191 C   0  0  0  0  0  0  0  0  0  0  0  0
    6.2387  -12.9898   20.3027 O   0  0  0  0  0  0  0  0  0  0  0  0
    8.4963  -13.8589   20.2478 C   0  0  0  0  0  0  0  0  0  0  0  0
    9.7328  -13.6566   19.4844 C   0  0  0  0  0  0  0  0  0  0  0  0
   10.9791  -14.3549   19.8958 C   0  0  2  0  0  0  0  0  0  0  0  0
   11.9966  -14.2360   18.8438 N   0  0  0  0  0  0  0  0  0  0  0  0
   10.9159  -15.6637   20.4918 C   0  0  0  0  0  0  0  0  0  0  0  0
   10.8063  -16.6967   19.7831 O   0  0  0  0  0  0  0  0  0  0  0  0
   14.3255  -19.6794   22.0065 N   0  0  0  0  0  0  0  0  0  0  0  0
   14.5288  -18.3041   22.3171 C   0  0  0  0  0  0  0  0  0  0  0  0
   15.7010  -17.8405   22.3842 O   0  0  0  0  0  0  0  0  0  0  0  0
   13.3597  -17.4177   22.5612 C   0  0  0  0  0  0  0  0  0  0  0  0
   12.0498  -18.0690   22.2802 C   0  0  0  0  0  0  0  0  0  0  0  0
   10.8416  -17.2161   22.4772 C   0  0  2  0  0  0  0  0  0  0  0  0
   10.9701  -15.8888   21.9075 N   0  0  0  0  0  0  0  0  0  0  0  0
   10.7260  -17.0055   23.9696 C   0  0  0  0  0  0  0  0  0  0  0  0
   10.8186  -15.8508   24.4489 O   0  0  0  0  0  0  0  0  0  0  0  0
   10.5179  -18.0487   24.8557 O   0  0  0  0  0  0  0  0  0  0  0  0
  2  1  1  1
  2  3  1  0
  3  4  1  0
  4  8  1  0
  5  4  2  0
  6  2  1  0
  7  6  2  0
  9 10  1  0
 10 12  1  0
 10 11  2  0
 12 13  1  0
 14 13  1  6
 14 15  1  0
 15  6  1  0
 16 17  2  0
 16 14  1  0
 18 19  1  0
 19 20  2  0
 21 19  1  0
 21 22  1  0
 23 22  1  1
 23 24  1  0
 24 16  1  0
 25 23  1  0
 26 25  2  0
 27 25  1  0
M  END
$$$$
