DQQ.pdb
     RDKit          3D

 27 26  0  0  1  0  0  0  0  0999 V2000
   12.7524  -15.5049   16.7240 N   0  0  0  0  0  0  0  0  0  0  0  0
   13.5580  -15.3601   17.8903 C   0  0  1  0  0  0  0  0  0  0  0  0
   14.5607  -14.2082   17.7505 C   0  0  0  0  0  0  0  0  0  0  0  0
   15.4095  -14.4061   16.5694 C   0  0  0  0  0  0  0  0  0  0  0  0
   15.1085  -15.2864   15.7366 O   0  0  0  0  0  0  0  0  0  0  0  0
   12.7440  -15.0376   19.1074 C   0  0  0  0  0  0  0  0  0  0  0  0
   13.2954  -14.8569   20.2250 O   0  0  0  0  0  0  0  0  0  0  0  0
   16.5260  -13.6214   16.3919 O   0  0  0  0  0  0  0  0  0  0  0  0
    6.7815  -12.5868   19.2222 N   0  0  0  0  0  0  0  0  0  0  0  0
    7.6389  -13.1313   18.2323 C   0  0  0  0  0  0  0  0  0  0  0  0
    7.1237  -13.3333   17.0837 O   0  0  0  0  0  0  0  0  0  0  0  0
    9.0521  -13.4330   18.5418 C   0  0  0  0  0  0  0  0  0  0  0  0
    9.2112  -14.0594   19.8590 C   0  0  0  0  0  0  0  0  0  0  0  0
   10.5322  -14.6095   20.2621 C   0  0  2  0  0  0  0  0  0  0  0  0
   11.3356  -14.9194   19.0726 N   0  0  0  0  0  0  0  0  0  0  0  0
   10.6188  -15.6100   21.2933 C   0  0  0  0  0  0  0  0  0  0  0  0
   10.2534  -16.7947   21.0828 O   0  0  0  0  0  0  0  0  0  0  0  0
   15.8739  -16.4726   23.8622 N   0  0  0  0  0  0  0  0  0  0  0  0
   15.1301  -17.3871   24.6620 C   0  0  0  0  0  0  0  0  0  0  0  0
   15.7341  -18.1971   25.4187 O   0  0  0  0  0  0  0  0  0  0  0  0
   13.6439  -17.3851   24.6039 C   0  0  0  0  0  0  0  0  0  0  0  0
   13.0851  -16.3489   23.6913 C   0  0  0  0  0  0  0  0  0  0  0  0
   11.6100  -16.3985   23.4735 C   0  0  2  0  0  0  0  0  0  0  0  0
   11.1154  -15.3420   22.6122 N   0  0  0  0  0  0  0  0  0  0  0  0
   10.9858  -16.1422   24.8262 C   0  0  0  0  0  0  0  0  0  0  0  0
   10.4006  -15.0566   25.0512 O   0  0  0  0  0  0  0  0  0  0  0  0
   11.0288  -17.0682   25.8545 O   0  0  0  0  0  0  0  0  0  0  0  0
  2  1  1  6
  2  3  1  0
  3  4  1  0
  4  8  1  0
  5  4  2  0
  6  2  1  0
  7  6  2  0
  9 10  1  0
 10 12  1  0
 10 11  2  0
 12 13  1  0
 14 13  1  6
 14 15  1  0
 15  6  1  0
 16 17  2  0
 16 14  1  0
 18 19  1  0
 19 20  2  0
 21 19  1  0
 21 22  1  0
 23 22  1  1
 23 24  1  0
 24 16  1  0
 25 23  1  0
 26 25  2  0
 27 25  1  0
M  END
$$$$
