DQQ.pdb
     RDKit          3D

 27 26  0  0  1  0  0  0  0  0999 V2000
    8.8316  -17.9977   14.0555 N   0  0  0  0  0  0  0  0  0  0  0  0
    8.5760  -18.2813   15.4283 C   0  0  1  0  0  0  0  0  0  0  0  0
    9.3265  -19.5324   15.9008 C   0  0  0  0  0  0  0  0  0  0  0  0
    8.7699  -20.7349   15.2693 C   0  0  0  0  0  0  0  0  0  0  0  0
    7.6680  -20.6687   14.6858 O   0  0  0  0  0  0  0  0  0  0  0  0
    9.0317  -17.1751   16.3320 C   0  0  0  0  0  0  0  0  0  0  0  0
   10.0914  -16.5388   16.0916 O   0  0  0  0  0  0  0  0  0  0  0  0
    9.4662  -21.9205   15.3264 O   0  0  0  0  0  0  0  0  0  0  0  0
    9.2683  -11.8948   19.8794 N   0  0  0  0  0  0  0  0  0  0  0  0
    8.3358  -12.6998   19.1765 C   0  0  0  0  0  0  0  0  0  0  0  0
    8.0936  -12.3661   17.9700 O   0  0  0  0  0  0  0  0  0  0  0  0
    7.6985  -13.8616   19.8307 C   0  0  0  0  0  0  0  0  0  0  0  0
    7.5290  -14.9930   18.9121 C   0  0  0  0  0  0  0  0  0  0  0  0
    8.7242  -15.6716   18.3453 C   0  0  2  0  0  0  0  0  0  0  0  0
    8.3118  -16.7884   17.4857 N   0  0  0  0  0  0  0  0  0  0  0  0
    9.8533  -15.9761   19.1845 C   0  0  0  0  0  0  0  0  0  0  0  0
    9.9145  -17.0558   19.8263 O   0  0  0  0  0  0  0  0  0  0  0  0
   15.6882  -13.4242   18.6035 N   0  0  0  0  0  0  0  0  0  0  0  0
   15.8518  -14.3334   19.6878 C   0  0  0  0  0  0  0  0  0  0  0  0
   16.9755  -14.4441   20.2524 O   0  0  0  0  0  0  0  0  0  0  0  0
   14.6987  -15.1499   20.1523 C   0  0  0  0  0  0  0  0  0  0  0  0
   13.3956  -14.7265   19.5677 C   0  0  0  0  0  0  0  0  0  0  0  0
   12.2067  -15.5317   19.9728 C   0  0  2  0  0  0  0  0  0  0  0  0
   10.9712  -15.0931   19.3531 N   0  0  0  0  0  0  0  0  0  0  0  0
   12.0266  -15.2828   21.4530 C   0  0  0  0  0  0  0  0  0  0  0  0
   11.1214  -14.5137   21.8538 O   0  0  0  0  0  0  0  0  0  0  0  0
   12.8303  -15.8756   22.4117 O   0  0  0  0  0  0  0  0  0  0  0  0
  2  1  1  6
  2  3  1  0
  3  4  1  0
  4  8  1  0
  5  4  2  0
  6  2  1  0
  7  6  2  0
  9 10  1  0
 10 12  1  0
 10 11  2  0
 12 13  1  0
 14 13  1  1
 14 15  1  0
 15  6  1  0
 16 17  2  0
 16 14  1  0
 18 19  1  0
 19 20  2  0
 21 19  1  0
 21 22  1  0
 23 22  1  6
 23 24  1  0
 24 16  1  0
 25 23  1  0
 26 25  2  0
 27 25  1  0
M  END
$$$$
