DQQ.pdb
     RDKit          3D

 27 26  0  0  1  0  0  0  0  0999 V2000
   15.4298  -17.8718   14.1528 N   0  0  0  0  0  0  0  0  0  0  0  0
   16.0681  -18.1920   15.3858 C   0  0  1  0  0  0  0  0  0  0  0  0
   17.0737  -17.1123   15.8039 C   0  0  0  0  0  0  0  0  0  0  0  0
   18.0034  -16.8227   14.7054 C   0  0  0  0  0  0  0  0  0  0  0  0
   18.4185  -17.7573   13.9891 O   0  0  0  0  0  0  0  0  0  0  0  0
   15.0938  -18.2937   16.5210 C   0  0  0  0  0  0  0  0  0  0  0  0
   13.9309  -17.8215   16.4193 O   0  0  0  0  0  0  0  0  0  0  0  0
   18.4072  -15.5273   14.4766 O   0  0  0  0  0  0  0  0  0  0  0  0
   10.7644  -20.2400   20.1425 N   0  0  0  0  0  0  0  0  0  0  0  0
   11.8599  -21.0194   19.6907 C   0  0  0  0  0  0  0  0  0  0  0  0
   11.6009  -21.9088   18.8146 O   0  0  0  0  0  0  0  0  0  0  0  0
   13.2199  -20.7871   20.2201 C   0  0  0  0  0  0  0  0  0  0  0  0
   14.1767  -20.4421   19.1626 C   0  0  0  0  0  0  0  0  0  0  0  0
   14.4686  -19.0150   18.8656 C   0  0  2  0  0  0  0  0  0  0  0  0
   15.4174  -18.9142   17.7493 N   0  0  0  0  0  0  0  0  0  0  0  0
   14.7366  -18.0901   19.9355 C   0  0  0  0  0  0  0  0  0  0  0  0
   15.9149  -17.7894   20.2559 O   0  0  0  0  0  0  0  0  0  0  0  0
   10.4910  -14.7861   23.5120 N   0  0  0  0  0  0  0  0  0  0  0  0
   10.7540  -16.1675   23.7392 C   0  0  0  0  0  0  0  0  0  0  0  0
    9.9490  -16.8571   24.4249 O   0  0  0  0  0  0  0  0  0  0  0  0
   11.9760  -16.7942   23.1681 C   0  0  0  0  0  0  0  0  0  0  0  0
   12.7940  -15.8609   22.3442 C   0  0  0  0  0  0  0  0  0  0  0  0
   14.0073  -16.4480   21.7045 C   0  0  2  0  0  0  0  0  0  0  0  0
   13.7061  -17.4538   20.7043 N   0  0  0  0  0  0  0  0  0  0  0  0
   14.7392  -17.1804   22.8060 C   0  0  0  0  0  0  0  0  0  0  0  0
   15.4142  -16.5383   23.6448 O   0  0  0  0  0  0  0  0  0  0  0  0
   14.7008  -18.5579   22.9386 O   0  0  0  0  0  0  0  0  0  0  0  0
  2  1  1  6
  2  3  1  0
  3  4  1  0
  4  8  1  0
  5  4  2  0
  6  2  1  0
  7  6  2  0
  9 10  1  0
 10 12  1  0
 10 11  2  0
 12 13  1  0
 14 13  1  1
 14 15  1  0
 15  6  1  0
 16 17  2  0
 16 14  1  0
 18 19  1  0
 19 20  2  0
 21 19  1  0
 21 22  1  0
 23 22  1  1
 23 24  1  0
 24 16  1  0
 25 23  1  0
 26 25  2  0
 27 25  1  0
M  END
$$$$
