DQQ.pdb
     RDKit          3D

 27 26  0  0  1  0  0  0  0  0999 V2000
    8.0976  -20.6368   18.3521 N   0  0  0  0  0  0  0  0  0  0  0  0
    7.4595  -19.7951   19.3085 C   0  0  1  0  0  0  0  0  0  0  0  0
    7.1400  -20.5474   20.6061 C   0  0  0  0  0  0  0  0  0  0  0  0
    6.0219  -21.4760   20.3999 C   0  0  0  0  0  0  0  0  0  0  0  0
    5.5149  -21.5850   19.2641 O   0  0  0  0  0  0  0  0  0  0  0  0
    8.3246  -18.6406   19.7170 C   0  0  0  0  0  0  0  0  0  0  0  0
    9.5744  -18.7679   19.8036 O   0  0  0  0  0  0  0  0  0  0  0  0
    5.5448  -22.2154   21.4579 O   0  0  0  0  0  0  0  0  0  0  0  0
    6.6538  -12.7305   19.0068 N   0  0  0  0  0  0  0  0  0  0  0  0
    7.9393  -12.5361   19.5736 C   0  0  0  0  0  0  0  0  0  0  0  0
    8.3835  -11.3410   19.5767 O   0  0  0  0  0  0  0  0  0  0  0  0
    8.6987  -13.6755   20.1295 C   0  0  0  0  0  0  0  0  0  0  0  0
    7.9937  -14.9507   19.9566 C   0  0  0  0  0  0  0  0  0  0  0  0
    8.6431  -16.2187   20.3815 C   0  0  2  0  0  0  0  0  0  0  0  0
    7.7979  -17.3648   20.0231 N   0  0  0  0  0  0  0  0  0  0  0  0
    9.2396  -16.3279   21.6869 C   0  0  0  0  0  0  0  0  0  0  0  0
    8.5429  -16.5879   22.7010 O   0  0  0  0  0  0  0  0  0  0  0  0
   10.9971  -20.5789   24.3427 N   0  0  0  0  0  0  0  0  0  0  0  0
   11.8017  -19.7271   25.1527 C   0  0  0  0  0  0  0  0  0  0  0  0
   12.3817  -20.1924   26.1729 O   0  0  0  0  0  0  0  0  0  0  0  0
   11.9568  -18.2918   24.7946 C   0  0  0  0  0  0  0  0  0  0  0  0
   11.2258  -17.9051   23.5556 C   0  0  0  0  0  0  0  0  0  0  0  0
   11.2402  -16.4523   23.2164 C   0  0  2  0  0  0  0  0  0  0  0  0
   10.6423  -16.1515   21.9301 N   0  0  0  0  0  0  0  0  0  0  0  0
   12.6981  -16.0759   23.0821 C   0  0  0  0  0  0  0  0  0  0  0  0
   13.1963  -15.8928   21.9464 O   0  0  0  0  0  0  0  0  0  0  0  0
   13.5314  -15.9194   24.1765 O   0  0  0  0  0  0  0  0  0  0  0  0
  2  1  1  6
  2  3  1  0
  3  4  1  0
  4  8  1  0
  5  4  2  0
  6  2  1  0
  7  6  2  0
  9 10  1  0
 10 12  1  0
 10 11  2  0
 12 13  1  0
 14 13  1  1
 14 15  1  0
 15  6  1  0
 16 17  2  0
 16 14  1  0
 18 19  1  0
 19 20  2  0
 21 19  1  0
 21 22  1  0
 23 22  1  6
 23 24  1  0
 24 16  1  0
 25 23  1  0
 26 25  2  0
 27 25  1  0
M  END
$$$$
