DQQ.pdb
     RDKit          3D

 27 26  0  0  1  0  0  0  0  0999 V2000
    9.7257  -14.7670   18.6596 N   0  0  0  0  0  0  0  0  0  0  0  0
    9.0009  -13.6834   19.2350 C   0  0  1  0  0  0  0  0  0  0  0  0
    7.8012  -13.2776   18.3702 C   0  0  0  0  0  0  0  0  0  0  0  0
    7.9659  -13.7724   16.9980 C   0  0  0  0  0  0  0  0  0  0  0  0
    8.8512  -14.6176   16.7515 O   0  0  0  0  0  0  0  0  0  0  0  0
    8.4289  -14.0305   20.5767 C   0  0  0  0  0  0  0  0  0  0  0  0
    7.7928  -13.1766   21.2490 O   0  0  0  0  0  0  0  0  0  0  0  0
    7.1448  -13.3009   15.9993 O   0  0  0  0  0  0  0  0  0  0  0  0
    5.4821  -18.7088   23.2132 N   0  0  0  0  0  0  0  0  0  0  0  0
    6.4236  -18.9174   22.1733 C   0  0  0  0  0  0  0  0  0  0  0  0
    6.3587  -20.0359   21.5646 O   0  0  0  0  0  0  0  0  0  0  0  0
    7.4123  -17.8739   21.8305 C   0  0  0  0  0  0  0  0  0  0  0  0
    7.2890  -16.6886   22.6864 C   0  0  0  0  0  0  0  0  0  0  0  0
    8.2780  -15.5849   22.5691 C   0  0  2  0  0  0  0  0  0  0  0  0
    8.5674  -15.3130   21.1553 N   0  0  0  0  0  0  0  0  0  0  0  0
    9.4451  -15.5624   23.4113 C   0  0  0  0  0  0  0  0  0  0  0  0
   10.4629  -16.2459   23.1314 O   0  0  0  0  0  0  0  0  0  0  0  0
    9.7799  -13.1402   28.8493 N   0  0  0  0  0  0  0  0  0  0  0  0
    9.8939  -14.5085   29.2287 C   0  0  0  0  0  0  0  0  0  0  0  0
   10.4411  -14.8145   30.3244 O   0  0  0  0  0  0  0  0  0  0  0  0
    9.3680  -15.5733   28.3332 C   0  0  0  0  0  0  0  0  0  0  0  0
    8.9717  -15.0762   26.9861 C   0  0  0  0  0  0  0  0  0  0  0  0
    9.9287  -15.3624   25.8778 C   0  0  2  0  0  0  0  0  0  0  0  0
    9.5378  -14.7787   24.6093 N   0  0  0  0  0  0  0  0  0  0  0  0
    9.8777  -16.8585   25.6667 C   0  0  0  0  0  0  0  0  0  0  0  0
    8.8089  -17.4045   25.3046 O   0  0  0  0  0  0  0  0  0  0  0  0
   10.9784  -17.6761   25.8578 O   0  0  0  0  0  0  0  0  0  0  0  0
  2  1  1  6
  2  3  1  0
  3  4  1  0
  4  8  1  0
  5  4  2  0
  6  2  1  0
  7  6  2  0
  9 10  1  0
 10 12  1  0
 10 11  2  0
 12 13  1  0
 14 13  1  6
 14 15  1  0
 15  6  1  0
 16 17  2  0
 16 14  1  0
 18 19  1  0
 19 20  2  0
 21 19  1  0
 21 22  1  0
 23 22  1  1
 23 24  1  0
 24 16  1  0
 25 23  1  0
 26 25  2  0
 27 25  1  0
M  END
$$$$
