AEG.pdb
     RDKit          3D

 19 18  0  0  1  0  0  0  0  0999 V2000
    8.4134  -12.2700   19.5680 C   0  0  0  0  0  0  0  0  0  0  0  0
    8.6626  -13.3760   18.5557 C   0  0  2  0  0  0  0  0  0  0  0  0
    7.4534  -14.1393   18.3201 N   0  0  0  0  0  0  0  0  0  0  0  0
    9.7101  -14.2709   19.0753 C   0  0  0  0  0  0  0  0  0  0  0  0
    9.3779  -15.2939   19.7179 O   0  0  0  0  0  0  0  0  0  0  0  0
   11.1119  -14.0059   18.8676 N   0  0  0  0  0  0  0  0  0  0  0  0
   12.0549  -15.0067   19.2775 C   0  0  1  0  0  0  0  0  0  0  0  0
   13.2834  -15.0560   18.4328 C   0  0  0  0  0  0  0  0  0  0  0  0
   13.0374  -15.5894   17.0439 C   0  0  0  0  0  0  0  0  0  0  0  0
   14.3530  -15.6335   16.3512 C   0  0  0  0  0  0  0  0  0  0  0  0
   15.4215  -15.9840   16.9213 O   0  0  0  0  0  0  0  0  0  0  0  0
   12.5099  -14.7711   20.6951 C   0  0  0  0  0  0  0  0  0  0  0  0
   12.7710  -13.6293   21.1374 O   0  0  0  0  0  0  0  0  0  0  0  0
   14.4551  -15.2809   15.0137 O   0  0  0  0  0  0  0  0  0  0  0  0
   12.6525  -15.8744   21.5757 N   0  0  0  0  0  0  0  0  0  0  0  0
   12.9692  -15.7294   22.9671 C   0  0  0  0  0  0  0  0  0  0  0  0
   13.0127  -17.0651   23.5848 C   0  0  0  0  0  0  0  0  0  0  0  0
   13.3769  -17.2072   24.8991 O   0  0  0  0  0  0  0  0  0  0  0  0
   12.7161  -18.0651   22.9048 O   0  0  0  0  0  0  0  0  0  0  0  0
  2  1  1  1
  2  4  1  0
  2  3  1  0
  4  5  2  0
  6  4  1  0
  7  6  1  0
  7  8  1  6
  9  8  1  0
 10  9  1  0
 11 10  2  0
 12  7  1  0
 13 12  2  0
 14 10  1  0
 15 12  1  0
 16 15  1  0
 17 16  1  0
 18 17  1  0
 19 17  2  0
M  END
$$$$
