AEG.pdb
     RDKit          3D

 19 18  0  0  1  0  0  0  0  0999 V2000
    7.3109  -19.1185   19.1217 C   0  0  0  0  0  0  0  0  0  0  0  0
    6.3841  -20.1826   19.6863 C   0  0  2  0  0  0  0  0  0  0  0  0
    5.0755  -20.1051   19.0682 N   0  0  0  0  0  0  0  0  0  0  0  0
    6.2501  -19.9767   21.1381 C   0  0  0  0  0  0  0  0  0  0  0  0
    5.9076  -18.8506   21.5677 O   0  0  0  0  0  0  0  0  0  0  0  0
    6.5019  -21.0342   22.0851 N   0  0  0  0  0  0  0  0  0  0  0  0
    6.3436  -20.7408   23.4806 C   0  0  1  0  0  0  0  0  0  0  0  0
    5.1341  -21.3644   24.0919 C   0  0  0  0  0  0  0  0  0  0  0  0
    4.9868  -22.8309   23.7725 C   0  0  0  0  0  0  0  0  0  0  0  0
    3.7797  -23.3178   24.4923 C   0  0  0  0  0  0  0  0  0  0  0  0
    2.6104  -23.2030   24.0348 O   0  0  0  0  0  0  0  0  0  0  0  0
    7.5311  -21.2259   24.2722 C   0  0  0  0  0  0  0  0  0  0  0  0
    8.0834  -22.3275   24.0507 O   0  0  0  0  0  0  0  0  0  0  0  0
    3.8998  -23.9344   25.7288 O   0  0  0  0  0  0  0  0  0  0  0  0
    8.0565  -20.4152   25.3114 N   0  0  0  0  0  0  0  0  0  0  0  0
    9.2150  -20.7764   26.0761 C   0  0  0  0  0  0  0  0  0  0  0  0
    8.7884  -21.1498   27.4347 C   0  0  0  0  0  0  0  0  0  0  0  0
    9.3186  -20.5105   28.5257 O   0  0  0  0  0  0  0  0  0  0  0  0
    7.9422  -22.0507   27.5859 O   0  0  0  0  0  0  0  0  0  0  0  0
  2  1  1  6
  2  4  1  0
  2  3  1  0
  4  5  2  0
  6  4  1  0
  7  6  1  0
  7  8  1  1
  9  8  1  0
 10  9  1  0
 11 10  2  0
 12  7  1  0
 13 12  2  0
 14 10  1  0
 15 12  1  0
 16 15  1  0
 17 16  1  0
 18 17  1  0
 19 17  2  0
M  END
$$$$
