AEG.pdb
     RDKit          3D

 19 18  0  0  1  0  0  0  0  0999 V2000
   -2.9477  -24.8574   24.2669 C   0  0  0  0  0  0  0  0  0  0  0  0
   -2.7036  -25.7559   25.4682 C   0  0  2  0  0  0  0  0  0  0  0  0
   -2.7668  -27.1526   25.0867 N   0  0  0  0  0  0  0  0  0  0  0  0
   -3.7320  -25.4817   26.4856 C   0  0  0  0  0  0  0  0  0  0  0  0
   -4.9116  -25.8501   26.2786 O   0  0  0  0  0  0  0  0  0  0  0  0
   -3.4236  -24.7995   27.7176 N   0  0  0  0  0  0  0  0  0  0  0  0
   -4.4415  -24.7380   28.7270 C   0  0  1  0  0  0  0  0  0  0  0  0
   -3.9741  -25.1649   30.0778 C   0  0  0  0  0  0  0  0  0  0  0  0
   -3.5442  -26.6092   30.1368 C   0  0  0  0  0  0  0  0  0  0  0  0
   -3.1153  -26.8827   31.5346 C   0  0  0  0  0  0  0  0  0  0  0  0
   -3.1203  -26.0070   32.4417 O   0  0  0  0  0  0  0  0  0  0  0  0
   -4.9728  -23.3350   28.8730 C   0  0  0  0  0  0  0  0  0  0  0  0
   -4.3764  -22.3373   28.4076 O   0  0  0  0  0  0  0  0  0  0  0  0
   -2.6821  -28.1480   31.9019 O   0  0  0  0  0  0  0  0  0  0  0  0
   -6.1948  -23.1186   29.5609 N   0  0  0  0  0  0  0  0  0  0  0  0
   -6.8588  -21.8477   29.5957 C   0  0  0  0  0  0  0  0  0  0  0  0
   -8.0377  -21.9530   30.4713 C   0  0  0  0  0  0  0  0  0  0  0  0
   -8.7612  -20.8338   30.7938 O   0  0  0  0  0  0  0  0  0  0  0  0
   -8.3731  -23.0663   30.9169 O   0  0  0  0  0  0  0  0  0  0  0  0
  2  1  1  6
  2  4  1  0
  2  3  1  0
  4  5  2  0
  6  4  1  0
  7  6  1  0
  7  8  1  1
  9  8  1  0
 10  9  1  0
 11 10  2  0
 12  7  1  0
 13 12  2  0
 14 10  1  0
 15 12  1  0
 16 15  1  0
 17 16  1  0
 18 17  1  0
 19 17  2  0
M  END
$$$$
