AEG.pdb
     RDKit          3D

 19 18  0  0  1  0  0  0  0  0999 V2000
   -2.2592  -28.2438   27.1863 C   0  0  0  0  0  0  0  0  0  0  0  0
   -2.3545  -26.7272   27.1594 C   0  0  2  0  0  0  0  0  0  0  0  0
   -1.1369  -26.1266   27.6663 N   0  0  0  0  0  0  0  0  0  0  0  0
   -3.4906  -26.3058   27.9960 C   0  0  0  0  0  0  0  0  0  0  0  0
   -4.6521  -26.6377   27.6635 O   0  0  0  0  0  0  0  0  0  0  0  0
   -3.3080  -25.5199   29.1907 N   0  0  0  0  0  0  0  0  0  0  0  0
   -4.4596  -25.2515   30.0034 C   0  0  1  0  0  0  0  0  0  0  0  0
   -4.2818  -25.6213   31.4376 C   0  0  0  0  0  0  0  0  0  0  0  0
   -4.4622  -27.0943   31.7059 C   0  0  0  0  0  0  0  0  0  0  0  0
   -4.3152  -27.2946   33.1724 C   0  0  0  0  0  0  0  0  0  0  0  0
   -3.9358  -26.3847   33.9584 O   0  0  0  0  0  0  0  0  0  0  0  0
   -4.8130  -23.7865   29.9716 C   0  0  0  0  0  0  0  0  0  0  0  0
   -3.9535  -22.8898   29.8144 O   0  0  0  0  0  0  0  0  0  0  0  0
   -4.5989  -28.5253   33.7455 O   0  0  0  0  0  0  0  0  0  0  0  0
   -6.1672  -23.3909   30.1236 N   0  0  0  0  0  0  0  0  0  0  0  0
   -6.5957  -22.0239   30.0534 C   0  0  0  0  0  0  0  0  0  0  0  0
   -8.0667  -21.9856   30.0998 C   0  0  0  0  0  0  0  0  0  0  0  0
   -8.7240  -20.7864   30.1999 O   0  0  0  0  0  0  0  0  0  0  0  0
   -8.7098  -23.0506   30.0473 O   0  0  0  0  0  0  0  0  0  0  0  0
  2  1  1  1
  2  4  1  0
  2  3  1  0
  4  5  2  0
  6  4  1  0
  7  6  1  0
  7  8  1  1
  9  8  1  0
 10  9  1  0
 11 10  2  0
 12  7  1  0
 13 12  2  0
 14 10  1  0
 15 12  1  0
 16 15  1  0
 17 16  1  0
 18 17  1  0
 19 17  2  0
M  END
$$$$
