AEG.pdb
     RDKit          3D

 19 18  0  0  1  0  0  0  0  0999 V2000
    7.1209  -14.8864   18.5784 C   0  0  0  0  0  0  0  0  0  0  0  0
    7.5190  -13.7231   19.4718 C   0  0  2  0  0  0  0  0  0  0  0  0
    7.9597  -12.5931   18.6786 N   0  0  0  0  0  0  0  0  0  0  0  0
    8.6144  -14.1542   20.3563 C   0  0  0  0  0  0  0  0  0  0  0  0
    9.7997  -13.9338   20.0150 O   0  0  0  0  0  0  0  0  0  0  0  0
    8.3653  -14.8252   21.6078 N   0  0  0  0  0  0  0  0  0  0  0  0
    9.4920  -15.1463   22.4362 C   0  0  1  0  0  0  0  0  0  0  0  0
    9.1254  -15.4945   23.8396 C   0  0  0  0  0  0  0  0  0  0  0  0
   10.3181  -15.7083   24.7375 C   0  0  0  0  0  0  0  0  0  0  0  0
    9.7955  -16.0151   26.0958 C   0  0  0  0  0  0  0  0  0  0  0  0
    8.5666  -16.1341   26.3517 O   0  0  0  0  0  0  0  0  0  0  0  0
   10.2531  -16.3224   21.8799 C   0  0  0  0  0  0  0  0  0  0  0  0
    9.6971  -17.4032   21.5797 O   0  0  0  0  0  0  0  0  0  0  0  0
   10.6663  -16.1871   27.1615 O   0  0  0  0  0  0  0  0  0  0  0  0
   11.6543  -16.2176   21.6820 N   0  0  0  0  0  0  0  0  0  0  0  0
   12.4571  -17.2965   21.1834 C   0  0  0  0  0  0  0  0  0  0  0  0
   13.7582  -17.2764   21.8720 C   0  0  0  0  0  0  0  0  0  0  0  0
   14.6951  -18.2419   21.6073 O   0  0  0  0  0  0  0  0  0  0  0  0
   14.0017  -16.3759   22.6967 O   0  0  0  0  0  0  0  0  0  0  0  0
  2  1  1  6
  2  4  1  0
  2  3  1  0
  4  5  2  0
  6  4  1  0
  7  6  1  0
  7  8  1  1
  9  8  1  0
 10  9  1  0
 11 10  2  0
 12  7  1  0
 13 12  2  0
 14 10  1  0
 15 12  1  0
 16 15  1  0
 17 16  1  0
 18 17  1  0
 19 17  2  0
M  END
$$$$
