AEG.pdb
     RDKit          3D

 19 18  0  0  1  0  0  0  0  0999 V2000
    7.1060  -12.7771   20.0809 C   0  0  0  0  0  0  0  0  0  0  0  0
    8.3475  -13.6249   20.3041 C   0  0  2  0  0  0  0  0  0  0  0  0
    8.4395  -14.6738   19.3083 N   0  0  0  0  0  0  0  0  0  0  0  0
    8.2769  -14.2304   21.6444 C   0  0  0  0  0  0  0  0  0  0  0  0
    8.2395  -13.4859   22.6514 O   0  0  0  0  0  0  0  0  0  0  0  0
    8.2495  -15.6591   21.8355 N   0  0  0  0  0  0  0  0  0  0  0  0
    8.1377  -16.1576   23.1763 C   0  0  1  0  0  0  0  0  0  0  0  0
    7.3432  -17.4155   23.2849 C   0  0  0  0  0  0  0  0  0  0  0  0
    7.1478  -17.8828   24.7054 C   0  0  0  0  0  0  0  0  0  0  0  0
    6.5190  -19.2292   24.6419 C   0  0  0  0  0  0  0  0  0  0  0  0
    6.3073  -19.8416   23.5602 O   0  0  0  0  0  0  0  0  0  0  0  0
    9.4970  -16.4491   23.7589 C   0  0  0  0  0  0  0  0  0  0  0  0
   10.5512  -16.3497   23.0908 O   0  0  0  0  0  0  0  0  0  0  0  0
    6.1316  -19.8795   25.8041 O   0  0  0  0  0  0  0  0  0  0  0  0
    9.6042  -16.8522   25.1151 N   0  0  0  0  0  0  0  0  0  0  0  0
   10.8616  -17.0748   25.7683 C   0  0  0  0  0  0  0  0  0  0  0  0
   10.6089  -17.4218   27.1766 C   0  0  0  0  0  0  0  0  0  0  0  0
   11.6556  -17.6905   28.0206 O   0  0  0  0  0  0  0  0  0  0  0  0
    9.4374  -17.4695   27.5957 O   0  0  0  0  0  0  0  0  0  0  0  0
  2  1  1  6
  2  4  1  0
  2  3  1  0
  4  5  2  0
  6  4  1  0
  7  6  1  0
  7  8  1  6
  9  8  1  0
 10  9  1  0
 11 10  2  0
 12  7  1  0
 13 12  2  0
 14 10  1  0
 15 12  1  0
 16 15  1  0
 17 16  1  0
 18 17  1  0
 19 17  2  0
M  END
$$$$
