AEG.pdb
     RDKit          3D

 19 18  0  0  1  0  0  0  0  0999 V2000
    8.1091  -12.3686   19.9559 C   0  0  0  0  0  0  0  0  0  0  0  0
    7.9878  -13.6929   19.2199 C   0  0  2  0  0  0  0  0  0  0  0  0
    6.5962  -14.0502   19.0306 N   0  0  0  0  0  0  0  0  0  0  0  0
    8.6567  -14.7403   20.0095 C   0  0  0  0  0  0  0  0  0  0  0  0
    8.0025  -15.3653   20.8763 O   0  0  0  0  0  0  0  0  0  0  0  0
   10.0467  -15.0707   19.8163 N   0  0  0  0  0  0  0  0  0  0  0  0
   10.5907  -16.1634   20.5705 C   0  0  1  0  0  0  0  0  0  0  0  0
   11.2409  -17.2092   19.7286 C   0  0  0  0  0  0  0  0  0  0  0  0
   10.2915  -17.8895   18.7746 C   0  0  0  0  0  0  0  0  0  0  0  0
   11.0729  -18.9170   18.0358 C   0  0  0  0  0  0  0  0  0  0  0  0
   11.7479  -19.8147   18.6089 O   0  0  0  0  0  0  0  0  0  0  0  0
   11.6327  -15.6797   21.5465 C   0  0  0  0  0  0  0  0  0  0  0  0
   12.4850  -14.8130   21.2468 O   0  0  0  0  0  0  0  0  0  0  0  0
   11.0877  -18.9259   16.6489 O   0  0  0  0  0  0  0  0  0  0  0  0
   11.6626  -16.2163   22.8597 N   0  0  0  0  0  0  0  0  0  0  0  0
   12.5422  -15.7310   23.8835 C   0  0  0  0  0  0  0  0  0  0  0  0
   13.7369  -16.5902   23.9280 C   0  0  0  0  0  0  0  0  0  0  0  0
   14.7473  -16.3233   24.8156 O   0  0  0  0  0  0  0  0  0  0  0  0
   13.8229  -17.5615   23.1536 O   0  0  0  0  0  0  0  0  0  0  0  0
  2  1  1  1
  2  4  1  0
  2  3  1  0
  4  5  2  0
  6  4  1  0
  7  6  1  0
  7  8  1  6
  9  8  1  0
 10  9  1  0
 11 10  2  0
 12  7  1  0
 13 12  2  0
 14 10  1  0
 15 12  1  0
 16 15  1  0
 17 16  1  0
 18 17  1  0
 19 17  2  0
M  END
$$$$
