AEG.pdb
     RDKit          3D

 19 18  0  0  1  0  0  0  0  0999 V2000
    7.4064  -12.3088   20.0195 C   0  0  0  0  0  0  0  0  0  0  0  0
    8.3064  -13.4858   19.6810 C   0  0  2  0  0  0  0  0  0  0  0  0
    7.7472  -14.2646   18.5943 N   0  0  0  0  0  0  0  0  0  0  0  0
    8.4429  -14.3399   20.8726 C   0  0  0  0  0  0  0  0  0  0  0  0
    8.8594  -13.8370   21.9419 O   0  0  0  0  0  0  0  0  0  0  0  0
    8.1114  -15.7427   20.8477 N   0  0  0  0  0  0  0  0  0  0  0  0
    8.2912  -16.4992   22.0536 C   0  0  1  0  0  0  0  0  0  0  0  0
    7.3681  -17.6648   22.1745 C   0  0  0  0  0  0  0  0  0  0  0  0
    5.9236  -17.2717   22.3566 C   0  0  0  0  0  0  0  0  0  0  0  0
    5.1286  -18.5281   22.3974 C   0  0  0  0  0  0  0  0  0  0  0  0
    5.2439  -19.3882   23.3122 O   0  0  0  0  0  0  0  0  0  0  0  0
    9.6941  -17.0431   22.1454 C   0  0  0  0  0  0  0  0  0  0  0  0
   10.3275  -17.4445   21.1429 O   0  0  0  0  0  0  0  0  0  0  0  0
    4.2040  -18.8074   21.4021 O   0  0  0  0  0  0  0  0  0  0  0  0
   10.3365  -17.1091   23.4088 N   0  0  0  0  0  0  0  0  0  0  0  0
   11.0846  -16.0186   23.9643 C   0  0  0  0  0  0  0  0  0  0  0  0
   12.5061  -16.3980   24.0181 C   0  0  0  0  0  0  0  0  0  0  0  0
   12.9223  -17.4015   24.8547 O   0  0  0  0  0  0  0  0  0  0  0  0
   13.3278  -15.8007   23.2980 O   0  0  0  0  0  0  0  0  0  0  0  0
  2  1  1  1
  2  4  1  0
  2  3  1  0
  4  5  2  0
  6  4  1  0
  7  6  1  0
  7  8  1  6
  9  8  1  0
 10  9  1  0
 11 10  2  0
 12  7  1  0
 13 12  2  0
 14 10  1  0
 15 12  1  0
 16 15  1  0
 17 16  1  0
 18 17  1  0
 19 17  2  0
M  END
$$$$
