AEG.pdb
     RDKit          3D

 19 18  0  0  1  0  0  0  0  0999 V2000
    7.0682  -13.6105   22.1480 C   0  0  0  0  0  0  0  0  0  0  0  0
    7.7749  -14.6679   21.3159 C   0  0  2  0  0  0  0  0  0  0  0  0
    6.8306  -15.3762   20.4750 N   0  0  0  0  0  0  0  0  0  0  0  0
    8.4344  -15.6244   22.2205 C   0  0  0  0  0  0  0  0  0  0  0  0
    7.8309  -16.6720   22.5494 O   0  0  0  0  0  0  0  0  0  0  0  0
    9.7582  -15.3926   22.7422 N   0  0  0  0  0  0  0  0  0  0  0  0
   10.3616  -16.4267   23.5330 C   0  0  1  0  0  0  0  0  0  0  0  0
   11.8282  -16.5777   23.3059 C   0  0  0  0  0  0  0  0  0  0  0  0
   12.1740  -17.0962   21.9326 C   0  0  0  0  0  0  0  0  0  0  0  0
   13.6573  -17.1727   21.8531 C   0  0  0  0  0  0  0  0  0  0  0  0
   14.2732  -17.5867   20.8337 O   0  0  0  0  0  0  0  0  0  0  0  0
   10.1737  -16.1599   25.0046 C   0  0  0  0  0  0  0  0  0  0  0  0
    9.9372  -15.0167   25.4568 O   0  0  0  0  0  0  0  0  0  0  0  0
   14.4400  -16.7794   22.9284 O   0  0  0  0  0  0  0  0  0  0  0  0
   10.2643  -17.2346   25.9267 N   0  0  0  0  0  0  0  0  0  0  0  0
   10.1078  -17.0663   27.3425 C   0  0  0  0  0  0  0  0  0  0  0  0
   10.3249  -18.3651   28.0008 C   0  0  0  0  0  0  0  0  0  0  0  0
   10.3851  -18.4452   29.3683 O   0  0  0  0  0  0  0  0  0  0  0  0
   10.4533  -19.3906   27.3064 O   0  0  0  0  0  0  0  0  0  0  0  0
  2  1  1  1
  2  4  1  0
  2  3  1  0
  4  5  2  0
  6  4  1  0
  7  6  1  0
  7  8  1  1
  9  8  1  0
 10  9  1  0
 11 10  2  0
 12  7  1  0
 13 12  2  0
 14 10  1  0
 15 12  1  0
 16 15  1  0
 17 16  1  0
 18 17  1  0
 19 17  2  0
M  END
$$$$
