AEG.pdb
     RDKit          3D

 19 18  0  0  1  0  0  0  0  0999 V2000
    7.9704  -12.1822   20.4731 C   0  0  0  0  0  0  0  0  0  0  0  0
    8.3300  -13.4550   19.7241 C   0  0  2  0  0  0  0  0  0  0  0  0
    7.7691  -13.4409   18.3879 N   0  0  0  0  0  0  0  0  0  0  0  0
    7.7964  -14.6107   20.4643 C   0  0  0  0  0  0  0  0  0  0  0  0
    6.6261  -14.9961   20.2369 O   0  0  0  0  0  0  0  0  0  0  0  0
    8.5813  -15.3157   21.4468 N   0  0  0  0  0  0  0  0  0  0  0  0
    8.0105  -16.4841   22.0531 C   0  0  1  0  0  0  0  0  0  0  0  0
    8.6809  -17.7558   21.6545 C   0  0  0  0  0  0  0  0  0  0  0  0
    8.5817  -18.0512   20.1790 C   0  0  0  0  0  0  0  0  0  0  0  0
    9.2819  -19.3419   19.9417 C   0  0  0  0  0  0  0  0  0  0  0  0
   10.4957  -19.4174   19.6091 O   0  0  0  0  0  0  0  0  0  0  0  0
    8.0867  -16.4040   23.5564 C   0  0  0  0  0  0  0  0  0  0  0  0
    9.0419  -15.8582   24.1540 O   0  0  0  0  0  0  0  0  0  0  0  0
    8.6055  -20.5445   20.0823 O   0  0  0  0  0  0  0  0  0  0  0  0
    7.0439  -16.9630   24.3397 N   0  0  0  0  0  0  0  0  0  0  0  0
    6.9593  -16.7986   25.7620 C   0  0  0  0  0  0  0  0  0  0  0  0
    7.8015  -17.8191   26.4078 C   0  0  0  0  0  0  0  0  0  0  0  0
    7.7685  -17.9820   27.7688 O   0  0  0  0  0  0  0  0  0  0  0  0
    8.5442  -18.5333   25.7086 O   0  0  0  0  0  0  0  0  0  0  0  0
  2  1  1  1
  2  4  1  0
  2  3  1  0
  4  5  2  0
  6  4  1  0
  7  6  1  0
  7  8  1  6
  9  8  1  0
 10  9  1  0
 11 10  2  0
 12  7  1  0
 13 12  2  0
 14 10  1  0
 15 12  1  0
 16 15  1  0
 17 16  1  0
 18 17  1  0
 19 17  2  0
M  END
$$$$
