AEG.pdb
     RDKit          3D

 19 18  0  0  1  0  0  0  0  0999 V2000
    7.5296  -18.3276   20.8361 C   0  0  0  0  0  0  0  0  0  0  0  0
    8.0821  -16.9140   20.9179 C   0  0  2  0  0  0  0  0  0  0  0  0
    9.3297  -16.8067   20.1883 N   0  0  0  0  0  0  0  0  0  0  0  0
    8.3136  -16.5736   22.3316 C   0  0  0  0  0  0  0  0  0  0  0  0
    9.4017  -16.8889   22.8670 O   0  0  0  0  0  0  0  0  0  0  0  0
    7.3236  -15.8863   23.1228 N   0  0  0  0  0  0  0  0  0  0  0  0
    7.6577  -15.5507   24.4772 C   0  0  1  0  0  0  0  0  0  0  0  0
    6.8999  -14.3816   25.0105 C   0  0  0  0  0  0  0  0  0  0  0  0
    7.3271  -13.9695   26.3969 C   0  0  0  0  0  0  0  0  0  0  0  0
    6.5904  -12.7212   26.7303 C   0  0  0  0  0  0  0  0  0  0  0  0
    5.5033  -12.3941   26.1817 O   0  0  0  0  0  0  0  0  0  0  0  0
    7.3827  -16.7076   25.4035 C   0  0  0  0  0  0  0  0  0  0  0  0
    6.2670  -17.2727   25.4621 O   0  0  0  0  0  0  0  0  0  0  0  0
    7.0866  -11.8460   27.6850 O   0  0  0  0  0  0  0  0  0  0  0  0
    8.4169  -17.1877   26.2479 N   0  0  0  0  0  0  0  0  0  0  0  0
    8.2378  -18.2782   27.1623 C   0  0  0  0  0  0  0  0  0  0  0  0
    9.4604  -18.4258   27.9690 C   0  0  0  0  0  0  0  0  0  0  0  0
    9.5025  -19.3271   29.0015 O   0  0  0  0  0  0  0  0  0  0  0  0
   10.4563  -17.7259   27.7067 O   0  0  0  0  0  0  0  0  0  0  0  0
  2  1  1  1
  2  4  1  0
  2  3  1  0
  4  5  2  0
  6  4  1  0
  7  6  1  0
  7  8  1  1
  9  8  1  0
 10  9  1  0
 11 10  2  0
 12  7  1  0
 13 12  2  0
 14 10  1  0
 15 12  1  0
 16 15  1  0
 17 16  1  0
 18 17  1  0
 19 17  2  0
M  END
$$$$
