FEL.pdb
     RDKit          3D

 29 29  0  0  1  0  0  0  0  0999 V2000
   27.3235  -22.3480  -11.4253 N   0  0  0  0  0  0  0  0  0  0  0  0
   26.3142  -21.4067  -10.9154 C   0  0  1  0  0  0  0  0  0  0  0  0
   27.0835  -20.0978  -10.7005 C   0  0  0  0  0  0  0  0  0  0  0  0
   27.5786  -20.0084   -9.3055 C   0  0  0  0  0  0  0  0  0  0  0  0
   26.7833  -19.5197   -8.2752 C   0  0  0  0  0  0  0  0  0  0  0  0
   27.2526  -19.4432   -6.9857 C   0  0  0  0  0  0  0  0  0  0  0  0
   28.5438  -19.8609   -6.7052 C   0  0  0  0  0  0  0  0  0  0  0  0
   29.3686  -20.3539   -7.7012 C   0  0  0  0  0  0  0  0  0  0  0  0
   28.8614  -20.4150   -8.9824 C   0  0  0  0  0  0  0  0  0  0  0  0
   25.3214  -21.2301  -12.0209 C   0  0  0  0  0  0  0  0  0  0  0  0
   25.6681  -21.3015  -13.2270 O   0  0  0  0  0  0  0  0  0  0  0  0
   23.9465  -20.9736  -11.7443 N   0  0  0  0  0  0  0  0  0  0  0  0
   22.9104  -21.1375  -12.8117 C   0  0  1  0  0  0  0  0  0  0  0  0
   21.7919  -21.8649  -12.2063 C   0  0  0  0  0  0  0  0  0  0  0  0
   20.5730  -22.2123  -12.9423 C   0  0  0  0  0  0  0  0  0  0  0  0
   19.3773  -21.4059  -12.6426 C   0  0  0  0  0  0  0  0  0  0  0  0
   19.3646  -20.6213  -11.6856 O   0  0  0  0  0  0  0  0  0  0  0  0
   22.7455  -19.8885  -13.5362 C   0  0  0  0  0  0  0  0  0  0  0  0
   22.6472  -18.7605  -12.9052 O   0  0  0  0  0  0  0  0  0  0  0  0
   18.2427  -21.5517  -13.4741 O   0  0  0  0  0  0  0  0  0  0  0  0
   23.7611  -17.4424  -19.0739 C   0  0  0  0  0  0  0  0  0  0  0  0
   23.0700  -17.2607  -17.7351 C   0  0  2  0  0  0  0  0  0  0  0  0
   23.3644  -15.9333  -17.1591 C   0  0  0  0  0  0  0  0  0  0  0  0
   23.0955  -18.4420  -16.8620 C   0  0  0  0  0  0  0  0  0  0  0  0
   22.3580  -18.4173  -15.5648 C   0  0  2  0  0  0  0  0  0  0  0  0
   22.6866  -19.7278  -14.9519 N   0  0  0  0  0  0  0  0  0  0  0  0
   20.9157  -18.2590  -15.7588 C   0  0  0  0  0  0  0  0  0  0  0  0
   20.2084  -19.2247  -16.4405 O   0  0  0  0  0  0  0  0  0  0  0  0
   20.2950  -17.2696  -15.3252 O   0  0  0  0  0  0  0  0  0  0  0  0
  2 10  1  0
  2  1  1  6
  3  2  1  0
  3  4  1  0
  4  5  2  0
  4  9  1  0
  5  6  1  0
  6  7  2  0
  8  7  1  0
  9  8  2  0
 10 11  2  0
 12 13  1  0
 12 10  1  0
 13 14  1  1
 14 15  1  0
 16 15  1  0
 16 17  2  0
 18 13  1  0
 18 19  2  0
 20 16  1  0
 22 21  1  6
 22 23  1  0
 22 24  1  0
 25 24  1  6
 25 27  1  0
 25 26  1  0
 26 18  1  0
 27 28  1  0
 29 27  2  0
M  END
$$$$
