FEL.pdb
     RDKit          3D

 29 29  0  0  1  0  0  0  0  0999 V2000
   26.7055  -22.2261  -12.3589 N   0  0  0  0  0  0  0  0  0  0  0  0
   26.1389  -21.5589  -11.1762 C   0  0  1  0  0  0  0  0  0  0  0  0
   27.0049  -20.3072  -10.9896 C   0  0  0  0  0  0  0  0  0  0  0  0
   27.5155  -20.2304   -9.5994 C   0  0  0  0  0  0  0  0  0  0  0  0
   26.8366  -19.5334   -8.6065 C   0  0  0  0  0  0  0  0  0  0  0  0
   27.3190  -19.4707   -7.3210 C   0  0  0  0  0  0  0  0  0  0  0  0
   28.5053  -20.1143   -7.0068 C   0  0  0  0  0  0  0  0  0  0  0  0
   29.2125  -20.8191   -7.9652 C   0  0  0  0  0  0  0  0  0  0  0  0
   28.6960  -20.8589   -9.2436 C   0  0  0  0  0  0  0  0  0  0  0  0
   24.7494  -21.1560  -11.5579 C   0  0  0  0  0  0  0  0  0  0  0  0
   24.3553  -21.2205  -12.7498 O   0  0  0  0  0  0  0  0  0  0  0  0
   23.8233  -20.6838  -10.5821 N   0  0  0  0  0  0  0  0  0  0  0  0
   22.3490  -20.7815  -10.8198 C   0  0  1  0  0  0  0  0  0  0  0  0
   21.7014  -20.6591   -9.5113 C   0  0  0  0  0  0  0  0  0  0  0  0
   20.2497  -20.7429   -9.3274 C   0  0  0  0  0  0  0  0  0  0  0  0
   19.7112  -22.0692   -8.9796 C   0  0  0  0  0  0  0  0  0  0  0  0
   20.4680  -23.0092   -8.7054 O   0  0  0  0  0  0  0  0  0  0  0  0
   21.9787  -19.9704  -11.9674 C   0  0  0  0  0  0  0  0  0  0  0  0
   22.3196  -18.7218  -12.0384 O   0  0  0  0  0  0  0  0  0  0  0  0
   18.3078  -22.2428   -8.9689 O   0  0  0  0  0  0  0  0  0  0  0  0
   20.6492  -20.2607  -17.9081 C   0  0  0  0  0  0  0  0  0  0  0  0
   20.4847  -19.4359  -16.6450 C   0  0  2  0  0  0  0  0  0  0  0  0
   20.8977  -18.0355  -16.8653 C   0  0  0  0  0  0  0  0  0  0  0  0
   20.8891  -20.1155  -15.4069 C   0  0  0  0  0  0  0  0  0  0  0  0
   20.7096  -19.4278  -14.0946 C   0  0  2  0  0  0  0  0  0  0  0  0
   21.2486  -20.4018  -13.1139 N   0  0  0  0  0  0  0  0  0  0  0  0
   19.3043  -19.1158  -13.8285 C   0  0  0  0  0  0  0  0  0  0  0  0
   18.8503  -17.8245  -13.9837 O   0  0  0  0  0  0  0  0  0  0  0  0
   18.4921  -19.9860  -13.4610 O   0  0  0  0  0  0  0  0  0  0  0  0
  2 10  1  0
  2  1  1  6
  3  2  1  0
  3  4  1  0
  4  5  2  0
  4  9  1  0
  5  6  1  0
  6  7  2  0
  8  7  1  0
  9  8  2  0
 10 11  2  0
 12 13  1  0
 12 10  1  0
 13 14  1  1
 14 15  1  0
 16 15  1  0
 16 17  2  0
 18 13  1  0
 18 19  2  0
 20 16  1  0
 22 21  1  6
 22 23  1  0
 22 24  1  0
 25 24  1  6
 25 27  1  0
 25 26  1  0
 26 18  1  0
 27 28  1  0
 29 27  2  0
M  END
$$$$
