FEL.pdb
     RDKit          3D

 29 29  0  0  1  0  0  0  0  0999 V2000
   21.4275   -8.1652  -15.1829 N   0  0  0  0  0  0  0  0  0  0  0  0
   21.0403   -8.8604  -13.9452 C   0  0  1  0  0  0  0  0  0  0  0  0
   22.3666   -9.3391  -13.3426 C   0  0  0  0  0  0  0  0  0  0  0  0
   22.9958  -10.3602  -14.2148 C   0  0  0  0  0  0  0  0  0  0  0  0
   24.3758  -10.4580  -14.3513 C   0  0  0  0  0  0  0  0  0  0  0  0
   24.9475  -11.4097  -15.1615 C   0  0  0  0  0  0  0  0  0  0  0  0
   24.1338  -12.2898  -15.8568 C   0  0  0  0  0  0  0  0  0  0  0  0
   22.7555  -12.2270  -15.7492 C   0  0  0  0  0  0  0  0  0  0  0  0
   22.2197  -11.2583  -14.9263 C   0  0  0  0  0  0  0  0  0  0  0  0
   20.4341   -7.8171  -13.0603 C   0  0  0  0  0  0  0  0  0  0  0  0
   20.2511   -8.0271  -11.8346 O   0  0  0  0  0  0  0  0  0  0  0  0
   20.0419   -6.5477  -13.5773 N   0  0  0  0  0  0  0  0  0  0  0  0
   19.4443   -5.5102  -12.6796 C   0  0  1  0  0  0  0  0  0  0  0  0
   19.7494   -4.2079  -13.2776 C   0  0  0  0  0  0  0  0  0  0  0  0
   19.2217   -2.9449  -12.7537 C   0  0  0  0  0  0  0  0  0  0  0  0
   19.6888   -1.7164  -13.4189 C   0  0  0  0  0  0  0  0  0  0  0  0
   18.8870   -0.9406  -13.9544 O   0  0  0  0  0  0  0  0  0  0  0  0
   18.1026   -5.9089  -12.2882 C   0  0  0  0  0  0  0  0  0  0  0  0
   17.2852   -6.4303  -13.1486 O   0  0  0  0  0  0  0  0  0  0  0  0
   21.0768   -1.4459  -13.4327 O   0  0  0  0  0  0  0  0  0  0  0  0
   14.5966   -6.0410   -7.2409 C   0  0  0  0  0  0  0  0  0  0  0  0
   14.6991   -6.5567   -8.6644 C   0  0  2  0  0  0  0  0  0  0  0  0
   14.0141   -7.8566   -8.8110 C   0  0  0  0  0  0  0  0  0  0  0  0
   16.0100   -6.3624   -9.2985 C   0  0  0  0  0  0  0  0  0  0  0  0
   16.0866   -6.0581  -10.7575 C   0  0  2  0  0  0  0  0  0  0  0  0
   17.5307   -5.8067  -10.9859 N   0  0  0  0  0  0  0  0  0  0  0  0
   15.2733   -4.8952  -11.1170 C   0  0  0  0  0  0  0  0  0  0  0  0
   15.7459   -3.6265  -10.8626 O   0  0  0  0  0  0  0  0  0  0  0  0
   14.1537   -5.0111  -11.6510 O   0  0  0  0  0  0  0  0  0  0  0  0
  2 10  1  0
  2  1  1  6
  3  2  1  0
  3  4  1  0
  4  5  2  0
  4  9  1  0
  5  6  1  0
  6  7  2  0
  8  7  1  0
  9  8  2  0
 10 11  2  0
 12 13  1  0
 12 10  1  0
 13 14  1  6
 14 15  1  0
 16 15  1  0
 16 17  2  0
 18 13  1  0
 18 19  2  0
 20 16  1  0
 22 21  1  1
 22 23  1  0
 22 24  1  0
 25 24  1  1
 25 27  1  0
 25 26  1  0
 26 18  1  0
 27 28  1  0
 29 27  2  0
M  END
$$$$
