FEL.pdb
     RDKit          3D

 29 29  0  0  1  0  0  0  0  0999 V2000
   20.8302  -21.2328  -16.1562 N   0  0  0  0  0  0  0  0  0  0  0  0
   21.5862  -19.9731  -16.2381 C   0  0  1  0  0  0  0  0  0  0  0  0
   20.8866  -19.0399  -15.2426 C   0  0  0  0  0  0  0  0  0  0  0  0
   20.8916  -17.6448  -15.7456 C   0  0  0  0  0  0  0  0  0  0  0  0
   21.8361  -16.7165  -15.3228 C   0  0  0  0  0  0  0  0  0  0  0  0
   21.8317  -15.4266  -15.7974 C   0  0  0  0  0  0  0  0  0  0  0  0
   20.8675  -15.0422  -16.7154 C   0  0  0  0  0  0  0  0  0  0  0  0
   19.9091  -15.9349  -17.1625 C   0  0  0  0  0  0  0  0  0  0  0  0
   19.9465  -17.2201  -16.6630 C   0  0  0  0  0  0  0  0  0  0  0  0
   22.9643  -20.2883  -15.7478 C   0  0  0  0  0  0  0  0  0  0  0  0
   23.1727  -21.2402  -14.9537 O   0  0  0  0  0  0  0  0  0  0  0  0
   24.0900  -19.5187  -16.1640 N   0  0  0  0  0  0  0  0  0  0  0  0
   25.4785  -19.9374  -15.7951 C   0  0  1  0  0  0  0  0  0  0  0  0
   26.3550  -19.4995  -16.8844 C   0  0  0  0  0  0  0  0  0  0  0  0
   26.2373  -20.0026  -18.2560 C   0  0  0  0  0  0  0  0  0  0  0  0
   25.5511  -19.1225  -19.2175 C   0  0  0  0  0  0  0  0  0  0  0  0
   26.0441  -18.0364  -19.5474 O   0  0  0  0  0  0  0  0  0  0  0  0
   25.7334  -19.6278  -14.3983 C   0  0  0  0  0  0  0  0  0  0  0  0
   25.4317  -18.4664  -13.9078 O   0  0  0  0  0  0  0  0  0  0  0  0
   24.3133  -19.5481  -19.7530 O   0  0  0  0  0  0  0  0  0  0  0  0
   27.2598  -20.4347   -9.1071 C   0  0  0  0  0  0  0  0  0  0  0  0
   25.8917  -20.1963   -9.7189 C   0  0  2  0  0  0  0  0  0  0  0  0
   24.8157  -20.6074   -8.7950 C   0  0  0  0  0  0  0  0  0  0  0  0
   25.7836  -20.5412  -11.1428 C   0  0  0  0  0  0  0  0  0  0  0  0
   26.7729  -19.9881  -12.1137 C   0  0  2  0  0  0  0  0  0  0  0  0
   26.3003  -20.5004  -13.4232 N   0  0  0  0  0  0  0  0  0  0  0  0
   28.1357  -20.4345  -11.8198 C   0  0  0  0  0  0  0  0  0  0  0  0
   28.5620  -21.6660  -12.2664 O   0  0  0  0  0  0  0  0  0  0  0  0
   28.9357  -19.7334  -11.1713 O   0  0  0  0  0  0  0  0  0  0  0  0
  2 10  1  0
  2  1  1  1
  3  2  1  0
  3  4  1  0
  4  5  2  0
  4  9  1  0
  5  6  1  0
  6  7  2  0
  8  7  1  0
  9  8  2  0
 10 11  2  0
 12 13  1  0
 12 10  1  0
 13 14  1  6
 14 15  1  0
 16 15  1  0
 16 17  2  0
 18 13  1  0
 18 19  2  0
 20 16  1  0
 22 21  1  1
 22 23  1  0
 22 24  1  0
 25 24  1  1
 25 27  1  0
 25 26  1  0
 26 18  1  0
 27 28  1  0
 29 27  2  0
M  END
$$$$
