FEL.pdb
     RDKit          3D

 29 29  0  0  1  0  0  0  0  0999 V2000
   24.6799  -11.3866  -17.4951 N   0  0  0  0  0  0  0  0  0  0  0  0
   24.5477  -10.6780  -16.2124 C   0  0  1  0  0  0  0  0  0  0  0  0
   25.8496   -9.8787  -16.0793 C   0  0  0  0  0  0  0  0  0  0  0  0
   27.0162  -10.7919  -16.0133 C   0  0  0  0  0  0  0  0  0  0  0  0
   27.0875  -11.8241  -15.0849 C   0  0  0  0  0  0  0  0  0  0  0  0
   28.1733  -12.6653  -15.0343 C   0  0  0  0  0  0  0  0  0  0  0  0
   29.2184  -12.4822  -15.9256 C   0  0  0  0  0  0  0  0  0  0  0  0
   29.1875  -11.4670  -16.8657 C   0  0  0  0  0  0  0  0  0  0  0  0
   28.0809  -10.6438  -16.8849 C   0  0  0  0  0  0  0  0  0  0  0  0
   23.3959   -9.7376  -16.3793 C   0  0  0  0  0  0  0  0  0  0  0  0
   23.0133   -9.3700  -17.5188 O   0  0  0  0  0  0  0  0  0  0  0  0
   22.6921   -9.2247  -15.2504 N   0  0  0  0  0  0  0  0  0  0  0  0
   21.4912   -8.3507  -15.4331 C   0  0  1  0  0  0  0  0  0  0  0  0
   20.4486   -8.8751  -14.5473 C   0  0  0  0  0  0  0  0  0  0  0  0
   19.1049   -8.2957  -14.4642 C   0  0  0  0  0  0  0  0  0  0  0  0
   18.1799   -8.6325  -15.5601 C   0  0  0  0  0  0  0  0  0  0  0  0
   18.4810   -9.4850  -16.4051 O   0  0  0  0  0  0  0  0  0  0  0  0
   21.8935   -6.9542  -15.4452 C   0  0  0  0  0  0  0  0  0  0  0  0
   22.7336   -6.4956  -14.5710 O   0  0  0  0  0  0  0  0  0  0  0  0
   16.9397   -7.9560  -15.6243 O   0  0  0  0  0  0  0  0  0  0  0  0
   24.1976   -3.9666  -18.0622 C   0  0  0  0  0  0  0  0  0  0  0  0
   22.7859   -4.2213  -18.5572 C   0  0  2  0  0  0  0  0  0  0  0  0
   22.6103   -3.7356  -19.9406 C   0  0  0  0  0  0  0  0  0  0  0  0
   21.7296   -3.9652  -17.5688 C   0  0  0  0  0  0  0  0  0  0  0  0
   21.8520   -4.5318  -16.1936 C   0  0  2  0  0  0  0  0  0  0  0  0
   21.4651   -5.9535  -16.3665 N   0  0  0  0  0  0  0  0  0  0  0  0
   20.9775   -3.8468  -15.2402 C   0  0  0  0  0  0  0  0  0  0  0  0
   21.3705   -2.6440  -14.6955 O   0  0  0  0  0  0  0  0  0  0  0  0
   19.8762   -4.3175  -14.8971 O   0  0  0  0  0  0  0  0  0  0  0  0
  2 10  1  0
  2  1  1  6
  3  2  1  0
  3  4  1  0
  4  5  2  0
  4  9  1  0
  5  6  1  0
  6  7  2  0
  8  7  1  0
  9  8  2  0
 10 11  2  0
 12 13  1  0
 12 10  1  0
 13 14  1  1
 14 15  1  0
 16 15  1  0
 16 17  2  0
 18 13  1  0
 18 19  2  0
 20 16  1  0
 22 21  1  1
 22 23  1  0
 22 24  1  0
 25 24  1  6
 25 27  1  0
 25 26  1  0
 26 18  1  0
 27 28  1  0
 29 27  2  0
M  END
$$$$
