FEL.pdb
     RDKit          3D

 29 29  0  0  1  0  0  0  0  0999 V2000
   26.0162  -18.5955  -15.5460 N   0  0  0  0  0  0  0  0  0  0  0  0
   26.9107  -19.1570  -14.5215 C   0  0  1  0  0  0  0  0  0  0  0  0
   28.0916  -18.1803  -14.4656 C   0  0  0  0  0  0  0  0  0  0  0  0
   28.9660  -18.3530  -15.6508 C   0  0  0  0  0  0  0  0  0  0  0  0
   29.6541  -19.5375  -15.8878 C   0  0  0  0  0  0  0  0  0  0  0  0
   30.4605  -19.6865  -16.9908 C   0  0  0  0  0  0  0  0  0  0  0  0
   30.5914  -18.6362  -17.8852 C   0  0  0  0  0  0  0  0  0  0  0  0
   29.9241  -17.4401  -17.6869 C   0  0  0  0  0  0  0  0  0  0  0  0
   29.1244  -17.3293  -16.5685 C   0  0  0  0  0  0  0  0  0  0  0  0
   26.1495  -19.0987  -13.2347 C   0  0  0  0  0  0  0  0  0  0  0  0
   25.6572  -18.0206  -12.8158 O   0  0  0  0  0  0  0  0  0  0  0  0
   25.9564  -20.2650  -12.4377 N   0  0  0  0  0  0  0  0  0  0  0  0
   25.1578  -20.2014  -11.1737 C   0  0  1  0  0  0  0  0  0  0  0  0
   23.7769  -20.5376  -11.5294 C   0  0  0  0  0  0  0  0  0  0  0  0
   22.6719  -20.4984  -10.5673 C   0  0  0  0  0  0  0  0  0  0  0  0
   21.3683  -20.9856  -11.0502 C   0  0  0  0  0  0  0  0  0  0  0  0
   21.2313  -21.3843  -12.2138 O   0  0  0  0  0  0  0  0  0  0  0  0
   25.8822  -20.8570  -10.0978 C   0  0  0  0  0  0  0  0  0  0  0  0
   26.2783  -22.0858  -10.2137 O   0  0  0  0  0  0  0  0  0  0  0  0
   20.2759  -20.9848  -10.1521 O   0  0  0  0  0  0  0  0  0  0  0  0
   29.1660  -20.8099   -6.5530 C   0  0  0  0  0  0  0  0  0  0  0  0
   28.1464  -19.6859   -6.5412 C   0  0  2  0  0  0  0  0  0  0  0  0
   28.5484  -18.6114   -5.6116 C   0  0  0  0  0  0  0  0  0  0  0  0
   26.7444  -20.1240   -6.5662 C   0  0  0  0  0  0  0  0  0  0  0  0
   26.2921  -21.0936   -7.6067 C   0  0  2  0  0  0  0  0  0  0  0  0
   26.2527  -20.2808   -8.8471 N   0  0  0  0  0  0  0  0  0  0  0  0
   24.9800  -21.6611   -7.2918 C   0  0  0  0  0  0  0  0  0  0  0  0
   23.8407  -20.9304   -7.5479 O   0  0  0  0  0  0  0  0  0  0  0  0
   24.8529  -22.7957   -6.7931 O   0  0  0  0  0  0  0  0  0  0  0  0
  2 10  1  0
  2  1  1  6
  3  2  1  0
  3  4  1  0
  4  5  2  0
  4  9  1  0
  5  6  1  0
  6  7  2  0
  8  7  1  0
  9  8  2  0
 10 11  2  0
 12 13  1  0
 12 10  1  0
 13 14  1  6
 14 15  1  0
 16 15  1  0
 16 17  2  0
 18 13  1  0
 18 19  2  0
 20 16  1  0
 22 21  1  1
 22 23  1  0
 22 24  1  0
 25 24  1  1
 25 27  1  0
 25 26  1  0
 26 18  1  0
 27 28  1  0
 29 27  2  0
M  END
$$$$
