FEL.pdb
     RDKit          3D

 29 29  0  0  1  0  0  0  0  0999 V2000
   25.2311  -35.2261   -9.8803 N   0  0  0  0  0  0  0  0  0  0  0  0
   26.0486  -34.2806   -9.1040 C   0  0  1  0  0  0  0  0  0  0  0  0
   25.4689  -32.9023   -9.4445 C   0  0  0  0  0  0  0  0  0  0  0  0
   25.8356  -32.5108  -10.8270 C   0  0  0  0  0  0  0  0  0  0  0  0
   27.1511  -32.2446  -11.1891 C   0  0  0  0  0  0  0  0  0  0  0  0
   27.4790  -31.8842  -12.4742 C   0  0  0  0  0  0  0  0  0  0  0  0
   26.4799  -31.7837  -13.4291 C   0  0  0  0  0  0  0  0  0  0  0  0
   25.1577  -32.0401  -13.1109 C   0  0  0  0  0  0  0  0  0  0  0  0
   24.8687  -32.3990  -11.8108 C   0  0  0  0  0  0  0  0  0  0  0  0
   25.7851  -34.5947   -7.6650 C   0  0  0  0  0  0  0  0  0  0  0  0
   24.6398  -34.9285   -7.2690 O   0  0  0  0  0  0  0  0  0  0  0  0
   26.8248  -34.5256   -6.6920 N   0  0  0  0  0  0  0  0  0  0  0  0
   26.5819  -34.9692   -5.2835 C   0  0  1  0  0  0  0  0  0  0  0  0
   27.8973  -35.1305   -4.6588 C   0  0  0  0  0  0  0  0  0  0  0  0
   28.0738  -35.5301   -3.2597 C   0  0  0  0  0  0  0  0  0  0  0  0
   29.4624  -35.7091   -2.8022 C   0  0  0  0  0  0  0  0  0  0  0  0
   30.0638  -36.7724   -3.0006 O   0  0  0  0  0  0  0  0  0  0  0  0
   25.5148  -34.1785   -4.6935 C   0  0  0  0  0  0  0  0  0  0  0  0
   25.4220  -32.9066   -4.9254 O   0  0  0  0  0  0  0  0  0  0  0  0
   30.0914  -34.6366   -2.1283 O   0  0  0  0  0  0  0  0  0  0  0  0
   19.6972  -34.0030   -4.1044 C   0  0  0  0  0  0  0  0  0  0  0  0
   20.9749  -33.3576   -3.6007 C   0  0  2  0  0  0  0  0  0  0  0  0
   20.9397  -31.8926   -3.7828 C   0  0  0  0  0  0  0  0  0  0  0  0
   22.2061  -34.0903   -3.9254 C   0  0  0  0  0  0  0  0  0  0  0  0
   23.4835  -33.7260   -3.2449 C   0  0  2  0  0  0  0  0  0  0  0  0
   24.4741  -34.6545   -3.8426 N   0  0  0  0  0  0  0  0  0  0  0  0
   23.3960  -33.8920   -1.7931 C   0  0  0  0  0  0  0  0  0  0  0  0
   22.9656  -32.8431   -1.0106 O   0  0  0  0  0  0  0  0  0  0  0  0
   23.7013  -34.9607   -1.2303 O   0  0  0  0  0  0  0  0  0  0  0  0
  2 10  1  0
  2  1  1  6
  3  2  1  0
  3  4  1  0
  4  5  2  0
  4  9  1  0
  5  6  1  0
  6  7  2  0
  8  7  1  0
  9  8  2  0
 10 11  2  0
 12 13  1  0
 12 10  1  0
 13 14  1  1
 14 15  1  0
 16 15  1  0
 16 17  2  0
 18 13  1  0
 18 19  2  0
 20 16  1  0
 22 21  1  6
 22 23  1  0
 22 24  1  0
 25 24  1  6
 25 27  1  0
 25 26  1  0
 26 18  1  0
 27 28  1  0
 29 27  2  0
M  END
$$$$
