FEL.pdb
     RDKit          3D

 29 29  0  0  1  0  0  0  0  0999 V2000
   18.9608  -13.3101  -18.1173 N   0  0  0  0  0  0  0  0  0  0  0  0
   17.9112  -12.3257  -17.8103 C   0  0  1  0  0  0  0  0  0  0  0  0
   17.5119  -12.6294  -16.3612 C   0  0  0  0  0  0  0  0  0  0  0  0
   16.6480  -13.8333  -16.3011 C   0  0  0  0  0  0  0  0  0  0  0  0
   15.3235  -13.8069  -16.7225 C   0  0  0  0  0  0  0  0  0  0  0  0
   14.5329  -14.9297  -16.6635 C   0  0  0  0  0  0  0  0  0  0  0  0
   15.0650  -16.1121  -16.1746 C   0  0  0  0  0  0  0  0  0  0  0  0
   16.3787  -16.1817  -15.7448 C   0  0  0  0  0  0  0  0  0  0  0  0
   17.1400  -15.0339  -15.8198 C   0  0  0  0  0  0  0  0  0  0  0  0
   18.5723  -10.9852  -17.8787 C   0  0  0  0  0  0  0  0  0  0  0  0
   19.7878  -10.8415  -17.5923 O   0  0  0  0  0  0  0  0  0  0  0  0
   17.8456   -9.8229  -18.2706 N   0  0  0  0  0  0  0  0  0  0  0  0
   18.5023   -8.4782  -18.2744 C   0  0  1  0  0  0  0  0  0  0  0  0
   17.7535   -7.6453  -19.2190 C   0  0  0  0  0  0  0  0  0  0  0  0
   18.0554   -6.2296  -19.4493 C   0  0  0  0  0  0  0  0  0  0  0  0
   17.1493   -5.5087  -20.3598 C   0  0  0  0  0  0  0  0  0  0  0  0
   16.2111   -6.0936  -20.9158 O   0  0  0  0  0  0  0  0  0  0  0  0
   18.7934   -8.0665  -16.9114 C   0  0  0  0  0  0  0  0  0  0  0  0
   18.0415   -8.4460  -15.9261 O   0  0  0  0  0  0  0  0  0  0  0  0
   17.3790   -4.1316  -20.5851 O   0  0  0  0  0  0  0  0  0  0  0  0
   21.1939   -7.7265  -12.1694 C   0  0  0  0  0  0  0  0  0  0  0  0
   21.8886   -7.0491  -13.3362 C   0  0  2  0  0  0  0  0  0  0  0  0
   22.2091   -5.6424  -13.0219 C   0  0  0  0  0  0  0  0  0  0  0  0
   21.3400   -7.3805  -14.6581 C   0  0  0  0  0  0  0  0  0  0  0  0
   20.0161   -6.8267  -15.0682 C   0  0  2  0  0  0  0  0  0  0  0  0
   19.8831   -7.2525  -16.4830 N   0  0  0  0  0  0  0  0  0  0  0  0
   19.9687   -5.3695  -14.9367 C   0  0  0  0  0  0  0  0  0  0  0  0
   19.5141   -4.8041  -13.7656 O   0  0  0  0  0  0  0  0  0  0  0  0
   20.3281   -4.6106  -15.8569 O   0  0  0  0  0  0  0  0  0  0  0  0
  2 10  1  0
  2  1  1  1
  3  2  1  0
  3  4  1  0
  4  5  2  0
  4  9  1  0
  5  6  1  0
  6  7  2  0
  8  7  1  0
  9  8  2  0
 10 11  2  0
 12 13  1  0
 12 10  1  0
 13 14  1  1
 14 15  1  0
 16 15  1  0
 16 17  2  0
 18 13  1  0
 18 19  2  0
 20 16  1  0
 22 21  1  1
 22 23  1  0
 22 24  1  0
 25 24  1  6
 25 27  1  0
 25 26  1  0
 26 18  1  0
 27 28  1  0
 29 27  2  0
M  END
$$$$
