VTP.pdb
     RDKit          3D

 22 22  0  0  1  0  0  0  0  0999 V2000
   25.0035  -22.4285  -10.5055 C   0  0  0  0  0  0  0  0  0  0  0  0
   25.5675  -21.6783  -11.6886 C   0  0  2  0  0  0  0  0  0  0  0  0
   27.0182  -21.3689  -11.4947 C   0  0  0  0  0  0  0  0  0  0  0  0
   24.8088  -20.4059  -11.9271 C   0  0  2  0  0  0  0  0  0  0  0  0
   23.3931  -20.7089  -12.1605 N   0  0  0  0  0  0  0  0  0  0  0  0
   25.2890  -19.6959  -13.1491 C   0  0  0  0  0  0  0  0  0  0  0  0
   26.5031  -19.3878  -13.1875 O   0  0  0  0  0  0  0  0  0  0  0  0
   25.3063  -20.5648  -16.9733 C   0  0  0  0  0  0  0  0  0  0  0  0
   24.4585  -19.3379  -16.6974 C   0  0  1  0  0  0  0  0  0  0  0  0
   23.1116  -19.6024  -16.7284 O   0  0  0  0  0  0  0  0  0  0  0  0
   24.9352  -18.6866  -15.4387 C   0  0  2  0  0  0  0  0  0  0  0  0
   24.4858  -19.3565  -14.2385 N   0  0  0  0  0  0  0  0  0  0  0  0
   24.6006  -17.2417  -15.4071 C   0  0  0  0  0  0  0  0  0  0  0  0
   23.4429  -16.9386  -14.9543 O   0  0  0  0  0  0  0  0  0  0  0  0
   25.4054  -16.1765  -15.8121 N   0  0  0  0  0  0  0  0  0  0  0  0
   26.7554  -16.2541  -16.3222 C   0  0  0  0  0  0  0  0  0  0  0  0
   27.4027  -14.9421  -15.8585 C   0  0  0  0  0  0  0  0  0  0  0  0
   26.2587  -13.9761  -16.1571 C   0  0  0  0  0  0  0  0  0  0  0  0
   25.0478  -14.7747  -15.7756 C   0  0  1  0  0  0  0  0  0  0  0  0
   23.9661  -14.4785  -16.7497 C   0  0  0  0  0  0  0  0  0  0  0  0
   23.2845  -13.2783  -16.6286 O   0  0  0  0  0  0  0  0  0  0  0  0
   23.6574  -15.2625  -17.6575 O   0  0  0  0  0  0  0  0  0  0  0  0
  2  1  1  1
  2  3  1  0
  4  2  1  0
  4  6  1  0
  4  5  1  6
  6  7  2  0
  9  8  1  1
  9 11  1  0
 10  9  1  0
 11 13  1  0
 11 12  1  1
 12  6  1  0
 13 14  2  0
 13 15  1  0
 15 19  1  0
 16 15  1  0
 17 16  1  0
 18 17  1  0
 18 19  1  0
 19 20  1  6
 20 22  2  0
 20 21  1  0
M  END
$$$$
