VTP.pdb
     RDKit          3D

 22 22  0  0  1  0  0  0  0  0999 V2000
   26.2175  -20.1766   -9.4873 C   0  0  0  0  0  0  0  0  0  0  0  0
   25.0867  -20.4627  -10.4466 C   0  0  2  0  0  0  0  0  0  0  0  0
   24.0299  -21.3052   -9.8053 C   0  0  0  0  0  0  0  0  0  0  0  0
   25.5933  -21.1453  -11.6832 C   0  0  2  0  0  0  0  0  0  0  0  0
   26.5763  -22.1699  -11.3167 N   0  0  0  0  0  0  0  0  0  0  0  0
   26.3020  -20.1944  -12.5894 C   0  0  0  0  0  0  0  0  0  0  0  0
   27.4326  -19.7961  -12.2237 O   0  0  0  0  0  0  0  0  0  0  0  0
   28.4886  -20.1242  -15.0876 C   0  0  0  0  0  0  0  0  0  0  0  0
   27.2863  -19.4704  -15.7413 C   0  0  1  0  0  0  0  0  0  0  0  0
   26.5866  -20.3302  -16.5515 O   0  0  0  0  0  0  0  0  0  0  0  0
   26.4627  -18.7985  -14.6898 C   0  0  2  0  0  0  0  0  0  0  0  0
   25.7959  -19.7249  -13.8020 N   0  0  0  0  0  0  0  0  0  0  0  0
   25.5042  -17.8307  -15.2778 C   0  0  0  0  0  0  0  0  0  0  0  0
   24.3182  -18.2638  -15.4853 O   0  0  0  0  0  0  0  0  0  0  0  0
   25.7484  -16.5024  -15.6274 N   0  0  0  0  0  0  0  0  0  0  0  0
   26.9895  -15.7783  -15.4719 C   0  0  0  0  0  0  0  0  0  0  0  0
   26.5453  -14.3297  -15.2281 C   0  0  0  0  0  0  0  0  0  0  0  0
   25.4338  -14.2270  -16.2698 C   0  0  0  0  0  0  0  0  0  0  0  0
   24.7894  -15.5793  -16.1954 C   0  0  1  0  0  0  0  0  0  0  0  0
   24.4076  -15.9918  -17.5705 C   0  0  0  0  0  0  0  0  0  0  0  0
   23.3409  -15.3478  -18.1764 O   0  0  0  0  0  0  0  0  0  0  0  0
   25.0065  -16.8842  -18.1862 O   0  0  0  0  0  0  0  0  0  0  0  0
  2  1  1  1
  2  3  1  0
  4  2  1  0
  4  6  1  0
  4  5  1  1
  6  7  2  0
  9  8  1  1
  9 11  1  0
 10  9  1  0
 11 13  1  0
 11 12  1  6
 12  6  1  0
 13 14  2  0
 13 15  1  0
 15 19  1  0
 16 15  1  0
 17 16  1  0
 18 17  1  0
 18 19  1  0
 19 20  1  6
 20 22  2  0
 20 21  1  0
M  END
$$$$
