VTP.pdb
     RDKit          3D

 22 22  0  0  1  0  0  0  0  0999 V2000
   24.5806  -12.5024  -16.1891 C   0  0  0  0  0  0  0  0  0  0  0  0
   23.5983  -13.1112  -15.2169 C   0  0  2  0  0  0  0  0  0  0  0  0
   23.9667  -14.5223  -14.8839 C   0  0  0  0  0  0  0  0  0  0  0  0
   22.2038  -13.0720  -15.7696 C   0  0  2  0  0  0  0  0  0  0  0  0
   22.1211  -13.9140  -16.9674 N   0  0  0  0  0  0  0  0  0  0  0  0
   21.8179  -11.6962  -16.2012 C   0  0  0  0  0  0  0  0  0  0  0  0
   22.0296  -11.3958  -17.3993 O   0  0  0  0  0  0  0  0  0  0  0  0
   18.5994  -10.0938  -16.6885 C   0  0  0  0  0  0  0  0  0  0  0  0
   19.3047   -9.2476  -15.6462 C   0  0  1  0  0  0  0  0  0  0  0  0
   18.8228   -9.4533  -14.3771 O   0  0  0  0  0  0  0  0  0  0  0  0
   20.7822   -9.4286  -15.7870 C   0  0  2  0  0  0  0  0  0  0  0  0
   21.2442  -10.7337  -15.3695 N   0  0  0  0  0  0  0  0  0  0  0  0
   21.5356   -8.3469  -15.1063 C   0  0  0  0  0  0  0  0  0  0  0  0
   22.0272   -8.6342  -13.9605 O   0  0  0  0  0  0  0  0  0  0  0  0
   21.7708   -7.0540  -15.5746 N   0  0  0  0  0  0  0  0  0  0  0  0
   21.3506   -6.5002  -16.8417 C   0  0  0  0  0  0  0  0  0  0  0  0
   22.4502   -5.4866  -17.1860 C   0  0  0  0  0  0  0  0  0  0  0  0
   22.6442   -4.8473  -15.8132 C   0  0  0  0  0  0  0  0  0  0  0  0
   22.5090   -6.0177  -14.8850 C   0  0  1  0  0  0  0  0  0  0  0  0
   21.7822   -5.5693  -13.6695 C   0  0  0  0  0  0  0  0  0  0  0  0
   22.4808   -4.8453  -12.7170 O   0  0  0  0  0  0  0  0  0  0  0  0
   20.5837   -5.8196  -13.4825 O   0  0  0  0  0  0  0  0  0  0  0  0
  2  1  1  6
  2  3  1  0
  4  2  1  0
  4  6  1  0
  4  5  1  6
  6  7  2  0
  9  8  1  6
  9 11  1  0
 10  9  1  0
 11 13  1  0
 11 12  1  1
 12  6  1  0
 13 14  2  0
 13 15  1  0
 15 19  1  0
 16 15  1  0
 17 16  1  0
 18 17  1  0
 18 19  1  0
 19 20  1  1
 20 22  2  0
 20 21  1  0
M  END
$$$$
