VTP.pdb
     RDKit          3D

 22 22  0  0  1  0  0  0  0  0999 V2000
   27.7193  -17.8816  -16.6407 C   0  0  0  0  0  0  0  0  0  0  0  0
   26.9133  -16.8669  -17.4164 C   0  0  2  0  0  0  0  0  0  0  0  0
   27.0575  -15.4971  -16.8326 C   0  0  0  0  0  0  0  0  0  0  0  0
   25.4627  -17.2491  -17.4516 C   0  0  2  0  0  0  0  0  0  0  0  0
   24.6623  -16.1150  -17.9245 N   0  0  0  0  0  0  0  0  0  0  0  0
   24.9456  -17.5848  -16.0922 C   0  0  0  0  0  0  0  0  0  0  0  0
   24.6288  -16.6249  -15.3513 O   0  0  0  0  0  0  0  0  0  0  0  0
   21.9712  -18.2669  -14.7221 C   0  0  0  0  0  0  0  0  0  0  0  0
   22.7341  -19.5444  -14.4284 C   0  0  1  0  0  0  0  0  0  0  0  0
   22.4261  -20.5613  -15.2980 O   0  0  0  0  0  0  0  0  0  0  0  0
   24.1928  -19.2316  -14.3294 C   0  0  2  0  0  0  0  0  0  0  0  0
   24.7932  -18.8805  -15.5972 N   0  0  0  0  0  0  0  0  0  0  0  0
   24.9443  -20.3220  -13.6607 C   0  0  0  0  0  0  0  0  0  0  0  0
   25.4899  -21.1874  -14.4291 O   0  0  0  0  0  0  0  0  0  0  0  0
   25.1258  -20.5091  -12.2901 N   0  0  0  0  0  0  0  0  0  0  0  0
   24.6384  -19.6607  -11.2265 C   0  0  0  0  0  0  0  0  0  0  0  0
   25.6957  -19.8048  -10.1235 C   0  0  0  0  0  0  0  0  0  0  0  0
   25.9303  -21.3118  -10.1931 C   0  0  0  0  0  0  0  0  0  0  0  0
   25.8649  -21.5857  -11.6663 C   0  0  1  0  0  0  0  0  0  0  0  0
   25.1783  -22.8871  -11.8702 C   0  0  0  0  0  0  0  0  0  0  0  0
   25.8839  -24.0498  -11.6057 O   0  0  0  0  0  0  0  0  0  0  0  0
   24.0069  -22.9649  -12.2651 O   0  0  0  0  0  0  0  0  0  0  0  0
  2  1  1  1
  2  3  1  0
  4  2  1  0
  4  6  1  0
  4  5  1  1
  6  7  2  0
  9  8  1  6
  9 11  1  0
 10  9  1  0
 11 13  1  0
 11 12  1  6
 12  6  1  0
 13 14  2  0
 13 15  1  0
 15 19  1  0
 16 15  1  0
 17 16  1  0
 18 17  1  0
 18 19  1  0
 19 20  1  1
 20 22  2  0
 20 21  1  0
M  END
$$$$
