VTP.pdb
     RDKit          3D

 22 22  0  0  1  0  0  0  0  0999 V2000
   13.1813   -9.4057  -14.4094 C   0  0  0  0  0  0  0  0  0  0  0  0
   14.6439   -9.2405  -14.0712 C   0  0  2  0  0  0  0  0  0  0  0  0
   15.0430   -7.7988  -14.0740 C   0  0  0  0  0  0  0  0  0  0  0  0
   15.5057  -10.0034  -15.0341 C   0  0  2  0  0  0  0  0  0  0  0  0
   15.3268  -11.4438  -14.8259 N   0  0  0  0  0  0  0  0  0  0  0  0
   16.9565   -9.7287  -14.8158 C   0  0  0  0  0  0  0  0  0  0  0  0
   17.5269  -10.3751  -13.9062 O   0  0  0  0  0  0  0  0  0  0  0  0
   19.9833  -10.1950  -17.0583 C   0  0  0  0  0  0  0  0  0  0  0  0
   19.8851   -8.7261  -16.6938 C   0  0  1  0  0  0  0  0  0  0  0  0
   19.4041   -7.9527  -17.7213 O   0  0  0  0  0  0  0  0  0  0  0  0
   19.1331   -8.5899  -15.4088 C   0  0  2  0  0  0  0  0  0  0  0  0
   17.7109   -8.8114  -15.5482 N   0  0  0  0  0  0  0  0  0  0  0  0
   19.4142   -7.2946  -14.7423 C   0  0  0  0  0  0  0  0  0  0  0  0
   18.5247   -6.3847  -14.8759 O   0  0  0  0  0  0  0  0  0  0  0  0
   20.5361   -6.9574  -13.9849 N   0  0  0  0  0  0  0  0  0  0  0  0
   21.6278   -7.8295  -13.6154 C   0  0  0  0  0  0  0  0  0  0  0  0
   22.0895   -7.2894  -12.2551 C   0  0  0  0  0  0  0  0  0  0  0  0
   22.0411   -5.7918  -12.5477 C   0  0  0  0  0  0  0  0  0  0  0  0
   20.8120   -5.6637  -13.3978 C   0  0  1  0  0  0  0  0  0  0  0  0
   21.0751   -4.6495  -14.4508 C   0  0  0  0  0  0  0  0  0  0  0  0
   21.1001   -3.3138  -14.0837 O   0  0  0  0  0  0  0  0  0  0  0  0
   21.2707   -4.9570  -15.6346 O   0  0  0  0  0  0  0  0  0  0  0  0
  2  1  1  6
  2  3  1  0
  4  2  1  0
  4  6  1  0
  4  5  1  1
  6  7  2  0
  9  8  1  6
  9 11  1  0
 10  9  1  0
 11 13  1  0
 11 12  1  6
 12  6  1  0
 13 14  2  0
 13 15  1  0
 15 19  1  0
 16 15  1  0
 17 16  1  0
 18 17  1  0
 18 19  1  0
 19 20  1  6
 20 22  2  0
 20 21  1  0
M  END
$$$$
