VTP.pdb
     RDKit          3D

 22 22  0  0  1  0  0  0  0  0999 V2000
   24.4734  -12.0792  -14.5548 C   0  0  0  0  0  0  0  0  0  0  0  0
   23.8205  -13.3578  -15.0235 C   0  0  2  0  0  0  0  0  0  0  0  0
   24.7800  -14.2067  -15.7958 C   0  0  0  0  0  0  0  0  0  0  0  0
   22.6149  -13.0652  -15.8678 C   0  0  2  0  0  0  0  0  0  0  0  0
   22.5819  -13.9749  -17.0175 N   0  0  0  0  0  0  0  0  0  0  0  0
   22.6562  -11.6838  -16.4317 C   0  0  0  0  0  0  0  0  0  0  0  0
   23.4903  -11.4657  -17.3413 O   0  0  0  0  0  0  0  0  0  0  0  0
   20.7215   -9.9576  -18.7676 C   0  0  0  0  0  0  0  0  0  0  0  0
   20.5576   -9.1430  -17.4989 C   0  0  1  0  0  0  0  0  0  0  0  0
   19.3639   -9.3801  -16.8633 O   0  0  0  0  0  0  0  0  0  0  0  0
   21.7669   -9.3275  -16.6392 C   0  0  2  0  0  0  0  0  0  0  0  0
   21.8380  -10.6317  -16.0186 N   0  0  0  0  0  0  0  0  0  0  0  0
   21.8966   -8.2443  -15.6337 C   0  0  0  0  0  0  0  0  0  0  0  0
   21.6023   -8.5535  -14.4276 O   0  0  0  0  0  0  0  0  0  0  0  0
   22.3055   -6.9287  -15.8536 N   0  0  0  0  0  0  0  0  0  0  0  0
   22.7561   -6.3573  -17.1023 C   0  0  0  0  0  0  0  0  0  0  0  0
   23.7675   -5.2849  -16.6754 C   0  0  0  0  0  0  0  0  0  0  0  0
   23.0110   -4.6785  -15.4961 C   0  0  0  0  0  0  0  0  0  0  0  0
   22.3807   -5.8808  -14.8583 C   0  0  1  0  0  0  0  0  0  0  0  0
   21.0247   -5.5022  -14.3844 C   0  0  0  0  0  0  0  0  0  0  0  0
   20.9211   -4.7442  -13.2293 O   0  0  0  0  0  0  0  0  0  0  0  0
   19.9941   -5.8392  -14.9832 O   0  0  0  0  0  0  0  0  0  0  0  0
  2  1  1  6
  2  3  1  0
  4  2  1  0
  4  6  1  0
  4  5  1  6
  6  7  2  0
  9  8  1  6
  9 11  1  0
 10  9  1  0
 11 13  1  0
 11 12  1  1
 12  6  1  0
 13 14  2  0
 13 15  1  0
 15 19  1  0
 16 15  1  0
 17 16  1  0
 18 17  1  0
 18 19  1  0
 19 20  1  6
 20 22  2  0
 20 21  1  0
M  END
$$$$
