VTP.pdb
     RDKit          3D

 22 22  0  0  1  0  0  0  0  0999 V2000
   22.2947  -21.2269   -9.1442 C   0  0  0  0  0  0  0  0  0  0  0  0
   23.1915  -20.4689  -10.0939 C   0  0  2  0  0  0  0  0  0  0  0  0
   22.6861  -20.5492  -11.4996 C   0  0  0  0  0  0  0  0  0  0  0  0
   24.5974  -20.9900  -10.0338 C   0  0  2  0  0  0  0  0  0  0  0  0
   25.1463  -20.7821   -8.6900 N   0  0  0  0  0  0  0  0  0  0  0  0
   25.5000  -20.2567  -10.9696 C   0  0  0  0  0  0  0  0  0  0  0  0
   26.0532  -19.2211  -10.5314 O   0  0  0  0  0  0  0  0  0  0  0  0
   28.7458  -21.0437  -12.3246 C   0  0  0  0  0  0  0  0  0  0  0  0
   27.8658  -20.8546  -13.5453 C   0  0  1  0  0  0  0  0  0  0  0  0
   27.5330  -22.0407  -14.1517 O   0  0  0  0  0  0  0  0  0  0  0  0
   26.6987  -19.9950  -13.1788 C   0  0  2  0  0  0  0  0  0  0  0  0
   25.7656  -20.6427  -12.2839 N   0  0  0  0  0  0  0  0  0  0  0  0
   26.0112  -19.4608  -14.3800 C   0  0  0  0  0  0  0  0  0  0  0  0
   25.0149  -20.1385  -14.8102 O   0  0  0  0  0  0  0  0  0  0  0  0
   26.3259  -18.3027  -15.0915 N   0  0  0  0  0  0  0  0  0  0  0  0
   27.3669  -17.3495  -14.7810 C   0  0  0  0  0  0  0  0  0  0  0  0
   26.8069  -16.0122  -15.2842 C   0  0  0  0  0  0  0  0  0  0  0  0
   26.2141  -16.4704  -16.6144 C   0  0  0  0  0  0  0  0  0  0  0  0
   25.6475  -17.8168  -16.2739 C   0  0  1  0  0  0  0  0  0  0  0  0
   25.8758  -18.7255  -17.4265 C   0  0  0  0  0  0  0  0  0  0  0  0
   25.1417  -18.5161  -18.5827 O   0  0  0  0  0  0  0  0  0  0  0  0
   26.6934  -19.6551  -17.3872 O   0  0  0  0  0  0  0  0  0  0  0  0
  2  1  1  1
  2  3  1  0
  4  2  1  0
  4  6  1  0
  4  5  1  1
  6  7  2  0
  9  8  1  1
  9 11  1  0
 10  9  1  0
 11 13  1  0
 11 12  1  6
 12  6  1  0
 13 14  2  0
 13 15  1  0
 15 19  1  0
 16 15  1  0
 17 16  1  0
 18 17  1  0
 18 19  1  0
 19 20  1  6
 20 22  2  0
 20 21  1  0
M  END
$$$$
