HRQ.pdb
     RDKit          3D

 31 31  0  0  1  0  0  0  0  0999 V2000
   13.5622  -14.0114   17.8125 N   0  0  0  0  0  0  0  0  0  0  0  0
   13.7343  -14.6497   19.0850 C   0  0  1  0  0  0  0  0  0  0  0  0
   14.8661  -14.0476   19.8836 C   0  0  0  0  0  0  0  0  0  0  0  0
   16.1157  -14.1669   19.0659 C   0  0  0  0  0  0  0  0  0  0  0  0
   16.2841  -14.7113   17.8146 C   0  0  0  0  0  0  0  0  0  0  0  0
   17.5734  -14.6250   17.4301 N   0  0  0  0  0  0  0  0  0  0  0  0
   18.2167  -14.0236   18.4452 C   0  0  0  0  0  0  0  0  0  0  0  0
   17.3569  -13.7411   19.4368 N   0  0  0  0  0  0  0  0  0  0  0  0
   12.4700  -14.6836   19.8457 C   0  0  0  0  0  0  0  0  0  0  0  0
   11.5371  -13.8642   19.6770 O   0  0  0  0  0  0  0  0  0  0  0  0
    9.3018  -17.3088   17.1706 N   0  0  0  0  0  0  0  0  0  0  0  0
   10.1744  -18.4137   17.0474 C   0  0  0  0  0  0  0  0  0  0  0  0
   10.6629  -18.7391   15.8857 N   0  0  0  0  0  0  0  0  0  0  0  0
   10.5585  -19.2121   18.1518 N   0  0  0  0  0  0  0  0  0  0  0  0
   10.1858  -18.8845   19.5158 C   0  0  0  0  0  0  0  0  0  0  0  0
   10.7786  -17.5520   19.9024 C   0  0  0  0  0  0  0  0  0  0  0  0
   10.4533  -17.1090   21.2868 C   0  0  0  0  0  0  0  0  0  0  0  0
   11.1332  -15.7965   21.6756 C   0  0  2  0  0  0  0  0  0  0  0  0
   12.2975  -15.6982   20.8225 N   0  0  0  0  0  0  0  0  0  0  0  0
   11.5855  -16.0248   23.0885 C   0  0  0  0  0  0  0  0  0  0  0  0
   12.7617  -16.4413   23.2342 O   0  0  0  0  0  0  0  0  0  0  0  0
   11.2685  -19.5786   15.7840 N   0  0  0  0  0  0  0  0  0  0  0  0
    8.9223  -13.5704   28.2905 C   0  0  0  0  0  0  0  0  0  0  0  0
   10.0407  -14.2589   28.7960 O   0  0  0  0  0  0  0  0  0  0  0  0
   10.2750  -14.2249   30.0292 C   0  0  0  0  0  0  0  0  0  0  0  0
   10.9120  -15.0076   27.9048 C   0  0  0  0  0  0  0  0  0  0  0  0
   10.5541  -15.0331   26.4607 C   0  0  1  0  0  0  0  0  0  0  0  0
   11.3703  -15.9031   25.5575 N   0  0  0  0  0  0  0  0  0  0  0  0
   10.7651  -15.7955   24.1938 C   0  0  0  0  0  0  0  0  0  0  0  0
   11.4387  -17.3314   25.8946 O   0  0  0  0  0  0  0  0  0  0  0  0
   12.3951  -17.8898   26.7269 O   0  0  0  0  0  0  0  0  0  0  0  0
  2  1  1  6
  2  9  1  0
  2  3  1  0
  3  4  1  0
  4  8  1  0
  4  5  2  0
  5  6  1  0
  7  6  1  0
  8  7  2  0
  9 10  2  0
 12 14  1  0
 12 11  1  0
 13 12  2  0
 15 16  1  0
 15 14  1  0
 16 17  1  0
 18 17  1  6
 19  9  1  0
 19 18  1  0
 20 28  1  0
 20 18  1  0
 21 20  2  0
 22 23  1  0
 23 24  2  0
 25 23  1  0
 25 26  1  0
 27 26  1  6
 27 29  1  0
 27 28  1  0
 29 30  1  0
 31 29  2  0
M  END
$$$$
