HRQ.pdb
     RDKit          3D

 31 31  0  0  1  0  0  0  0  0999 V2000
    6.9679  -16.3297   19.9642 N   0  0  0  0  0  0  0  0  0  0  0  0
    7.6721  -15.7297   21.0599 C   0  0  1  0  0  0  0  0  0  0  0  0
    7.3751  -14.2552   21.1978 C   0  0  0  0  0  0  0  0  0  0  0  0
    7.7548  -13.5907   19.9100 C   0  0  0  0  0  0  0  0  0  0  0  0
    8.3275  -14.1398   18.7871 C   0  0  0  0  0  0  0  0  0  0  0  0
    8.5125  -13.1976   17.8407 N   0  0  0  0  0  0  0  0  0  0  0  0
    8.0536  -12.0521   18.3727 C   0  0  0  0  0  0  0  0  0  0  0  0
    7.5945  -12.2689   19.6155 N   0  0  0  0  0  0  0  0  0  0  0  0
    7.4396  -16.4665   22.3174 C   0  0  0  0  0  0  0  0  0  0  0  0
    6.7444  -16.0247   23.2616 O   0  0  0  0  0  0  0  0  0  0  0  0
    4.6908  -22.9893   25.9378 N   0  0  0  0  0  0  0  0  0  0  0  0
    5.9635  -22.9137   26.5476 C   0  0  0  0  0  0  0  0  0  0  0  0
    6.1431  -23.3714   27.7528 N   0  0  0  0  0  0  0  0  0  0  0  0
    7.0895  -22.3495   25.9008 N   0  0  0  0  0  0  0  0  0  0  0  0
    6.9655  -21.3974   24.8122 C   0  0  0  0  0  0  0  0  0  0  0  0
    8.3341  -20.9289   24.3835 C   0  0  0  0  0  0  0  0  0  0  0  0
    8.3297  -19.9615   23.2509 C   0  0  0  0  0  0  0  0  0  0  0  0
    7.8979  -18.5540   23.6615 C   0  0  2  0  0  0  0  0  0  0  0  0
    8.0342  -17.7459   22.4693 N   0  0  0  0  0  0  0  0  0  0  0  0
    8.9383  -18.1293   24.6565 C   0  0  0  0  0  0  0  0  0  0  0  0
   10.1155  -18.0439   24.2262 O   0  0  0  0  0  0  0  0  0  0  0  0
    7.0807  -23.3248   28.2008 N   0  0  0  0  0  0  0  0  0  0  0  0
    8.8635  -13.3438   28.2170 C   0  0  0  0  0  0  0  0  0  0  0  0
    9.8916  -14.0626   28.8545 O   0  0  0  0  0  0  0  0  0  0  0  0
   10.5059  -13.5330   29.8131 C   0  0  0  0  0  0  0  0  0  0  0  0
   10.2357  -15.4054   28.4159 C   0  0  0  0  0  0  0  0  0  0  0  0
    9.4014  -16.0087   27.3415 C   0  0  1  0  0  0  0  0  0  0  0  0
    9.7533  -17.3878   26.8799 N   0  0  0  0  0  0  0  0  0  0  0  0
    8.6403  -17.8406   25.9889 C   0  0  0  0  0  0  0  0  0  0  0  0
    9.9267  -18.4120   27.9186 O   0  0  0  0  0  0  0  0  0  0  0  0
    8.9176  -19.2531   28.3588 O   0  0  0  0  0  0  0  0  0  0  0  0
  2  1  1  6
  2  9  1  0
  2  3  1  0
  3  4  1  0
  4  8  1  0
  4  5  2  0
  5  6  1  0
  7  6  1  0
  8  7  2  0
  9 10  2  0
 12 14  1  0
 12 11  1  0
 13 12  2  0
 15 16  1  0
 15 14  1  0
 16 17  1  0
 18 17  1  6
 19  9  1  0
 19 18  1  0
 20 28  1  0
 20 18  1  0
 21 20  2  0
 22 23  1  0
 23 24  2  0
 25 23  1  0
 25 26  1  0
 27 26  1  6
 27 29  1  0
 27 28  1  0
 29 30  1  0
 31 29  2  0
M  END
$$$$
