HRQ.pdb
     RDKit          3D

 31 31  0  0  1  0  0  0  0  0999 V2000
    8.5137  -15.9987   19.9939 N   0  0  0  0  0  0  0  0  0  0  0  0
    7.6835  -14.9679   20.5456 C   0  0  1  0  0  0  0  0  0  0  0  0
    6.5394  -14.5982   19.6316 C   0  0  0  0  0  0  0  0  0  0  0  0
    7.1125  -14.3025   18.2794 C   0  0  0  0  0  0  0  0  0  0  0  0
    8.4158  -14.3950   17.8512 C   0  0  0  0  0  0  0  0  0  0  0  0
    8.5156  -14.0342   16.5560 N   0  0  0  0  0  0  0  0  0  0  0  0
    7.2690  -13.7138   16.1702 C   0  0  0  0  0  0  0  0  0  0  0  0
    6.4126  -13.8689   17.1924 N   0  0  0  0  0  0  0  0  0  0  0  0
    7.2234  -15.3165   21.9039 C   0  0  0  0  0  0  0  0  0  0  0  0
    6.5361  -14.5523   22.6206 O   0  0  0  0  0  0  0  0  0  0  0  0
    6.0124  -23.6040   25.2829 N   0  0  0  0  0  0  0  0  0  0  0  0
    6.0849  -22.6673   26.3387 C   0  0  0  0  0  0  0  0  0  0  0  0
    5.9026  -23.0492   27.5697 N   0  0  0  0  0  0  0  0  0  0  0  0
    6.3526  -21.2935   26.1257 N   0  0  0  0  0  0  0  0  0  0  0  0
    6.5186  -20.7298   24.7984 C   0  0  0  0  0  0  0  0  0  0  0  0
    6.6671  -19.2314   24.8937 C   0  0  0  0  0  0  0  0  0  0  0  0
    7.0830  -18.5695   23.6257 C   0  0  0  0  0  0  0  0  0  0  0  0
    7.1722  -17.0480   23.7405 C   0  0  2  0  0  0  0  0  0  0  0  0
    7.5766  -16.5858   22.4306 N   0  0  0  0  0  0  0  0  0  0  0  0
    8.3002  -16.8208   24.7042 C   0  0  0  0  0  0  0  0  0  0  0  0
    9.4584  -17.0181   24.2594 O   0  0  0  0  0  0  0  0  0  0  0  0
    5.9084  -22.3547   28.3441 N   0  0  0  0  0  0  0  0  0  0  0  0
    9.7903  -12.4714   28.3317 C   0  0  0  0  0  0  0  0  0  0  0  0
   10.3063  -13.4779   29.1689 O   0  0  0  0  0  0  0  0  0  0  0  0
   11.0808  -13.1592   30.1045 C   0  0  0  0  0  0  0  0  0  0  0  0
    9.9431  -14.8703   28.9602 C   0  0  0  0  0  0  0  0  0  0  0  0
    8.9539  -15.1657   27.8887 C   0  0  1  0  0  0  0  0  0  0  0  0
    9.3004  -16.2316   26.8974 N   0  0  0  0  0  0  0  0  0  0  0  0
    8.0998  -16.4140   26.0240 C   0  0  0  0  0  0  0  0  0  0  0  0
    9.6536  -17.5515   27.4373 O   0  0  0  0  0  0  0  0  0  0  0  0
   10.9525  -17.9813   27.6549 O   0  0  0  0  0  0  0  0  0  0  0  0
  2  1  1  6
  2  9  1  0
  2  3  1  0
  3  4  1  0
  4  8  1  0
  4  5  2  0
  5  6  1  0
  7  6  1  0
  8  7  2  0
  9 10  2  0
 12 14  1  0
 12 11  1  0
 13 12  2  0
 15 16  1  0
 15 14  1  0
 16 17  1  0
 18 17  1  6
 19  9  1  0
 19 18  1  0
 20 28  1  0
 20 18  1  0
 21 20  2  0
 22 23  1  0
 23 24  2  0
 25 23  1  0
 25 26  1  0
 27 26  1  6
 27 29  1  0
 27 28  1  0
 29 30  1  0
 31 29  2  0
M  END
$$$$
