HRQ.pdb
     RDKit          3D

 31 31  0  0  1  0  0  0  0  0999 V2000
    6.2980  -16.2659   20.0164 N   0  0  0  0  0  0  0  0  0  0  0  0
    7.4919  -15.9673   20.7524 C   0  0  1  0  0  0  0  0  0  0  0  0
    7.9088  -14.5223   20.6133 C   0  0  0  0  0  0  0  0  0  0  0  0
    8.1254  -14.2480   19.1565 C   0  0  0  0  0  0  0  0  0  0  0  0
    8.0330  -15.1096   18.0891 C   0  0  0  0  0  0  0  0  0  0  0  0
    8.3081  -14.4669   16.9363 N   0  0  0  0  0  0  0  0  0  0  0  0
    8.5743  -13.1961   17.2825 C   0  0  0  0  0  0  0  0  0  0  0  0
    8.4695  -13.0459   18.6125 N   0  0  0  0  0  0  0  0  0  0  0  0
    7.3715  -16.3807   22.1641 C   0  0  0  0  0  0  0  0  0  0  0  0
    6.4418  -16.0104   22.9182 O   0  0  0  0  0  0  0  0  0  0  0  0
   12.2501  -21.2809   23.2534 N   0  0  0  0  0  0  0  0  0  0  0  0
   12.7464  -20.4876   24.3126 C   0  0  0  0  0  0  0  0  0  0  0  0
   13.9964  -20.1252   24.3324 N   0  0  0  0  0  0  0  0  0  0  0  0
   11.9346  -20.0517   25.3875 N   0  0  0  0  0  0  0  0  0  0  0  0
   10.5739  -20.5211   25.5750 C   0  0  0  0  0  0  0  0  0  0  0  0
    9.6163  -19.3576   25.4999 C   0  0  0  0  0  0  0  0  0  0  0  0
    9.3737  -18.8445   24.1227 C   0  0  0  0  0  0  0  0  0  0  0  0
    8.3692  -17.6934   24.0760 C   0  0  2  0  0  0  0  0  0  0  0  0
    8.3609  -17.2448   22.7006 N   0  0  0  0  0  0  0  0  0  0  0  0
    8.9949  -16.6289   24.9293 C   0  0  0  0  0  0  0  0  0  0  0  0
   10.0132  -16.0656   24.4560 O   0  0  0  0  0  0  0  0  0  0  0  0
   14.3654  -19.5447   25.1126 N   0  0  0  0  0  0  0  0  0  0  0  0
    5.5892  -12.1836   26.4476 C   0  0  0  0  0  0  0  0  0  0  0  0
    6.7632  -11.7667   27.1019 O   0  0  0  0  0  0  0  0  0  0  0  0
    6.8169  -10.6092   27.5856 C   0  0  0  0  0  0  0  0  0  0  0  0
    7.8994  -12.6657   27.2247 C   0  0  0  0  0  0  0  0  0  0  0  0
    7.7455  -14.0408   26.6773 C   0  0  1  0  0  0  0  0  0  0  0  0
    8.9238  -14.9590   26.7634 N   0  0  0  0  0  0  0  0  0  0  0  0
    8.4933  -16.2676   26.1804 C   0  0  0  0  0  0  0  0  0  0  0  0
    9.4571  -15.2317   28.1048 O   0  0  0  0  0  0  0  0  0  0  0  0
   10.3357  -14.3981   28.7775 O   0  0  0  0  0  0  0  0  0  0  0  0
  2  1  1  6
  2  9  1  0
  2  3  1  0
  3  4  1  0
  4  8  1  0
  4  5  2  0
  5  6  1  0
  7  6  1  0
  8  7  2  0
  9 10  2  0
 12 14  1  0
 12 11  1  0
 13 12  2  0
 15 16  1  0
 15 14  1  0
 16 17  1  0
 18 17  1  6
 19  9  1  0
 19 18  1  0
 20 28  1  0
 20 18  1  0
 21 20  2  0
 22 23  1  0
 23 24  2  0
 25 23  1  0
 25 26  1  0
 27 26  1  6
 27 29  1  0
 27 28  1  0
 29 30  1  0
 31 29  2  0
M  END
$$$$
