HRQ.pdb
     RDKit          3D

 31 31  0  0  1  0  0  0  0  0999 V2000
   11.2026  -14.8618   18.7187 N   0  0  0  0  0  0  0  0  0  0  0  0
   10.8937  -13.8863   19.7234 C   0  0  1  0  0  0  0  0  0  0  0  0
   10.2085  -12.6675   19.1522 C   0  0  0  0  0  0  0  0  0  0  0  0
    9.0048  -13.1346   18.3924 C   0  0  0  0  0  0  0  0  0  0  0  0
    7.6747  -12.8899   18.6401 C   0  0  0  0  0  0  0  0  0  0  0  0
    6.9016  -13.4974   17.7177 N   0  0  0  0  0  0  0  0  0  0  0  0
    7.7509  -14.1261   16.8876 C   0  0  0  0  0  0  0  0  0  0  0  0
    9.0189  -13.9194   17.2774 N   0  0  0  0  0  0  0  0  0  0  0  0
   10.1332  -14.4839   20.8381 C   0  0  0  0  0  0  0  0  0  0  0  0
    9.7002  -13.8266   21.8131 O   0  0  0  0  0  0  0  0  0  0  0  0
    5.1289  -19.4009   17.2001 N   0  0  0  0  0  0  0  0  0  0  0  0
    6.5032  -19.2780   16.8938 C   0  0  0  0  0  0  0  0  0  0  0  0
    6.9576  -19.6755   15.7407 N   0  0  0  0  0  0  0  0  0  0  0  0
    7.4430  -18.7301   17.7999 N   0  0  0  0  0  0  0  0  0  0  0  0
    7.0858  -18.3444   19.1529 C   0  0  0  0  0  0  0  0  0  0  0  0
    8.2747  -17.7153   19.8365 C   0  0  0  0  0  0  0  0  0  0  0  0
    8.0267  -17.2924   21.2430 C   0  0  0  0  0  0  0  0  0  0  0  0
    9.2266  -16.5955   21.8839 C   0  0  2  0  0  0  0  0  0  0  0  0
    9.8760  -15.8791   20.8078 N   0  0  0  0  0  0  0  0  0  0  0  0
   10.1142  -17.7248   22.3193 C   0  0  0  0  0  0  0  0  0  0  0  0
   10.6193  -18.4189   21.4022 O   0  0  0  0  0  0  0  0  0  0  0  0
    7.9753  -19.6306   15.5304 N   0  0  0  0  0  0  0  0  0  0  0  0
   14.4463  -15.3185   22.4615 C   0  0  0  0  0  0  0  0  0  0  0  0
   14.9675  -16.3014   23.3232 O   0  0  0  0  0  0  0  0  0  0  0  0
   16.1793  -16.2506   23.6486 C   0  0  0  0  0  0  0  0  0  0  0  0
   14.1141  -17.3599   23.8382 C   0  0  0  0  0  0  0  0  0  0  0  0
   12.6654  -17.2933   23.5050 C   0  0  1  0  0  0  0  0  0  0  0  0
   11.7781  -18.3714   24.0429 N   0  0  0  0  0  0  0  0  0  0  0  0
   10.3785  -18.0081   23.6599 C   0  0  0  0  0  0  0  0  0  0  0  0
   11.7938  -18.5809   25.4969 O   0  0  0  0  0  0  0  0  0  0  0  0
   12.2667  -19.7281   26.1130 O   0  0  0  0  0  0  0  0  0  0  0  0
  2  1  1  6
  2  9  1  0
  2  3  1  0
  3  4  1  0
  4  8  1  0
  4  5  2  0
  5  6  1  0
  7  6  1  0
  8  7  2  0
  9 10  2  0
 12 14  1  0
 12 11  1  0
 13 12  2  0
 15 16  1  0
 15 14  1  0
 16 17  1  0
 18 17  1  6
 19  9  1  0
 19 18  1  0
 20 28  1  0
 20 18  1  0
 21 20  2  0
 22 23  1  0
 23 24  2  0
 25 23  1  0
 25 26  1  0
 27 26  1  6
 27 29  1  0
 27 28  1  0
 29 30  1  0
 31 29  2  0
M  END
$$$$
