HRQ.pdb
     RDKit          3D

 31 31  0  0  1  0  0  0  0  0999 V2000
    8.6612  -16.6473   18.8901 N   0  0  0  0  0  0  0  0  0  0  0  0
    9.8314  -15.8199   18.8449 C   0  0  1  0  0  0  0  0  0  0  0  0
    9.6159  -14.4797   19.5073 C   0  0  0  0  0  0  0  0  0  0  0  0
    8.4617  -13.8130   18.8236 C   0  0  0  0  0  0  0  0  0  0  0  0
    7.3335  -13.2530   19.3750 C   0  0  0  0  0  0  0  0  0  0  0  0
    6.5318  -12.7564   18.4116 N   0  0  0  0  0  0  0  0  0  0  0  0
    7.1601  -13.0063   17.2504 C   0  0  0  0  0  0  0  0  0  0  0  0
    8.3212  -13.6406   17.4783 N   0  0  0  0  0  0  0  0  0  0  0  0
   11.0109  -16.5257   19.3825 C   0  0  0  0  0  0  0  0  0  0  0  0
   10.9416  -17.4449   20.2312 O   0  0  0  0  0  0  0  0  0  0  0  0
   17.2157  -13.0302   18.7425 N   0  0  0  0  0  0  0  0  0  0  0  0
   16.7544  -13.5266   17.5023 C   0  0  0  0  0  0  0  0  0  0  0  0
   16.4745  -12.7079   16.5299 N   0  0  0  0  0  0  0  0  0  0  0  0
   16.5732  -14.9081   17.2507 N   0  0  0  0  0  0  0  0  0  0  0  0
   17.1114  -15.9351   18.1239 C   0  0  0  0  0  0  0  0  0  0  0  0
   15.9886  -16.6114   18.8710 C   0  0  0  0  0  0  0  0  0  0  0  0
   14.6436  -16.0155   18.6376 C   0  0  0  0  0  0  0  0  0  0  0  0
   13.5274  -16.7278   19.4012 C   0  0  2  0  0  0  0  0  0  0  0  0
   12.2956  -16.1454   18.9151 N   0  0  0  0  0  0  0  0  0  0  0  0
   13.7339  -16.3054   20.8265 C   0  0  0  0  0  0  0  0  0  0  0  0
   13.4980  -15.0994   21.0877 O   0  0  0  0  0  0  0  0  0  0  0  0
   16.1460  -13.0711   15.6121 N   0  0  0  0  0  0  0  0  0  0  0  0
   11.9426  -19.5973   25.6057 C   0  0  0  0  0  0  0  0  0  0  0  0
   12.5479  -18.5059   26.2557 O   0  0  0  0  0  0  0  0  0  0  0  0
   12.5008  -18.4361   27.5086 C   0  0  0  0  0  0  0  0  0  0  0  0
   13.2269  -17.4737   25.4892 C   0  0  0  0  0  0  0  0  0  0  0  0
   13.3036  -17.6561   24.0144 C   0  0  1  0  0  0  0  0  0  0  0  0
   14.1565  -16.7018   23.2393 N   0  0  0  0  0  0  0  0  0  0  0  0
   14.1631  -17.1830   21.8230 C   0  0  0  0  0  0  0  0  0  0  0  0
   15.5569  -16.5679   23.6627 O   0  0  0  0  0  0  0  0  0  0  0  0
   16.6228  -17.1925   23.0359 O   0  0  0  0  0  0  0  0  0  0  0  0
  2  1  1  1
  2  9  1  0
  2  3  1  0
  3  4  1  0
  4  8  1  0
  4  5  2  0
  5  6  1  0
  7  6  1  0
  8  7  2  0
  9 10  2  0
 12 14  1  0
 12 11  1  0
 13 12  2  0
 15 16  1  0
 15 14  1  0
 16 17  1  0
 18 17  1  6
 19  9  1  0
 19 18  1  0
 20 28  1  0
 20 18  1  0
 21 20  2  0
 22 23  1  0
 23 24  2  0
 25 23  1  0
 25 26  1  0
 27 26  1  6
 27 29  1  0
 27 28  1  0
 29 30  1  0
 31 29  2  0
M  END
$$$$
