HRQ.pdb
     RDKit          3D

 31 31  0  0  1  0  0  0  0  0999 V2000
   10.4173  -13.2263   19.3894 N   0  0  0  0  0  0  0  0  0  0  0  0
   10.3349  -14.6016   18.9919 C   0  0  1  0  0  0  0  0  0  0  0  0
    9.4199  -14.8057   17.8078 C   0  0  0  0  0  0  0  0  0  0  0  0
    8.1829  -13.9937   18.0415 C   0  0  0  0  0  0  0  0  0  0  0  0
    7.8960  -13.1274   19.0700 C   0  0  0  0  0  0  0  0  0  0  0  0
    6.6672  -12.5957   18.9127 N   0  0  0  0  0  0  0  0  0  0  0  0
    6.1810  -13.1310   17.7802 C   0  0  0  0  0  0  0  0  0  0  0  0
    7.0777  -13.9734   17.2429 N   0  0  0  0  0  0  0  0  0  0  0  0
   11.6749  -15.1786   18.7686 C   0  0  0  0  0  0  0  0  0  0  0  0
   11.8700  -16.3719   18.4398 O   0  0  0  0  0  0  0  0  0  0  0  0
   19.0689  -14.9508   17.5748 N   0  0  0  0  0  0  0  0  0  0  0  0
   18.9659  -13.5602   17.3444 C   0  0  0  0  0  0  0  0  0  0  0  0
   19.8450  -12.7436   17.8491 N   0  0  0  0  0  0  0  0  0  0  0  0
   17.9269  -12.9875   16.5717 N   0  0  0  0  0  0  0  0  0  0  0  0
   16.7708  -13.7493   16.1360 C   0  0  0  0  0  0  0  0  0  0  0  0
   16.1592  -14.4691   17.3126 C   0  0  0  0  0  0  0  0  0  0  0  0
   14.7679  -14.0490   17.6391 C   0  0  0  0  0  0  0  0  0  0  0  0
   14.1715  -14.8071   18.8248 C   0  0  2  0  0  0  0  0  0  0  0  0
   12.8069  -14.3392   18.9342 N   0  0  0  0  0  0  0  0  0  0  0  0
   14.9512  -14.3078   20.0061 C   0  0  0  0  0  0  0  0  0  0  0  0
   14.5311  -13.2523   20.5424 O   0  0  0  0  0  0  0  0  0  0  0  0
   19.7274  -11.7148   17.7505 N   0  0  0  0  0  0  0  0  0  0  0  0
   12.2493  -16.2526   24.2177 C   0  0  0  0  0  0  0  0  0  0  0  0
   13.4117  -17.0295   24.0578 O   0  0  0  0  0  0  0  0  0  0  0  0
   13.3418  -18.2744   24.2071 C   0  0  0  0  0  0  0  0  0  0  0  0
   14.6782  -16.4023   23.7164 C   0  0  0  0  0  0  0  0  0  0  0  0
   14.8332  -15.8848   22.3299 C   0  0  1  0  0  0  0  0  0  0  0  0
   16.1425  -15.2599   21.9635 N   0  0  0  0  0  0  0  0  0  0  0  0
   16.0818  -14.9605   20.4993 C   0  0  0  0  0  0  0  0  0  0  0  0
   17.3503  -16.0633   22.1964 O   0  0  0  0  0  0  0  0  0  0  0  0
   18.0924  -16.6623   21.1916 O   0  0  0  0  0  0  0  0  0  0  0  0
  2  1  1  6
  2  9  1  0
  2  3  1  0
  3  4  1  0
  4  8  1  0
  4  5  2  0
  5  6  1  0
  7  6  1  0
  8  7  2  0
  9 10  2  0
 12 14  1  0
 12 11  1  0
 13 12  2  0
 15 16  1  0
 15 14  1  0
 16 17  1  0
 18 17  1  6
 19  9  1  0
 19 18  1  0
 20 28  1  0
 20 18  1  0
 21 20  2  0
 22 23  1  0
 23 24  2  0
 25 23  1  0
 25 26  1  0
 27 26  1  1
 27 29  1  0
 27 28  1  0
 29 30  1  0
 31 29  2  0
M  END
$$$$
