HRQ.pdb
     RDKit          3D

 31 31  0  0  1  0  0  0  0  0999 V2000
   14.1127  -14.5517   18.3332 N   0  0  0  0  0  0  0  0  0  0  0  0
   12.9815  -15.4005   18.5703 C   0  0  1  0  0  0  0  0  0  0  0  0
   13.3050  -16.8620   18.3688 C   0  0  0  0  0  0  0  0  0  0  0  0
   13.5149  -17.0851   16.9024 C   0  0  0  0  0  0  0  0  0  0  0  0
   12.6040  -17.4612   15.9436 C   0  0  0  0  0  0  0  0  0  0  0  0
   13.1979  -17.5553   14.7370 N   0  0  0  0  0  0  0  0  0  0  0  0
   14.4875  -17.2368   14.9400 C   0  0  0  0  0  0  0  0  0  0  0  0
   14.6966  -16.9514   16.2350 N   0  0  0  0  0  0  0  0  0  0  0  0
   12.3795  -15.1385   19.8921 C   0  0  0  0  0  0  0  0  0  0  0  0
   13.0460  -14.8438   20.9114 O   0  0  0  0  0  0  0  0  0  0  0  0
    7.5039  -14.3304   15.7215 N   0  0  0  0  0  0  0  0  0  0  0  0
    8.1344  -13.2095   16.3076 C   0  0  0  0  0  0  0  0  0  0  0  0
    8.4619  -12.1832   15.5771 N   0  0  0  0  0  0  0  0  0  0  0  0
    8.4400  -13.1385   17.6883 N   0  0  0  0  0  0  0  0  0  0  0  0
    7.9027  -14.0801   18.6535 C   0  0  0  0  0  0  0  0  0  0  0  0
    8.4028  -13.7379   20.0352 C   0  0  0  0  0  0  0  0  0  0  0  0
    8.7789  -14.9159   20.8658 C   0  0  0  0  0  0  0  0  0  0  0  0
   10.2588  -14.9373   21.2472 C   0  0  2  0  0  0  0  0  0  0  0  0
   10.9689  -15.2239   20.0197 N   0  0  0  0  0  0  0  0  0  0  0  0
   10.3816  -16.1184   22.1652 C   0  0  0  0  0  0  0  0  0  0  0  0
   10.2323  -17.2489   21.6380 O   0  0  0  0  0  0  0  0  0  0  0  0
    8.9268  -11.3572   16.0056 N   0  0  0  0  0  0  0  0  0  0  0  0
   15.1671  -17.6266   24.8873 C   0  0  0  0  0  0  0  0  0  0  0  0
   14.6426  -17.6894   23.5830 O   0  0  0  0  0  0  0  0  0  0  0  0
   15.4236  -17.8723   22.6169 C   0  0  0  0  0  0  0  0  0  0  0  0
   13.2134  -17.5519   23.3542 C   0  0  0  0  0  0  0  0  0  0  0  0
   12.3463  -17.3498   24.5465 C   0  0  2  0  0  0  0  0  0  0  0  0
   10.8708  -17.2422   24.3227 N   0  0  0  0  0  0  0  0  0  0  0  0
   10.6455  -15.9940   23.5298 C   0  0  0  0  0  0  0  0  0  0  0  0
   10.0217  -17.1603   25.5188 O   0  0  0  0  0  0  0  0  0  0  0  0
    9.8992  -18.1720   26.4573 O   0  0  0  0  0  0  0  0  0  0  0  0
  2  1  1  1
  2  9  1  0
  2  3  1  0
  3  4  1  0
  4  8  1  0
  4  5  2  0
  5  6  1  0
  7  6  1  0
  8  7  2  0
  9 10  2  0
 12 14  1  0
 12 11  1  0
 13 12  2  0
 15 16  1  0
 15 14  1  0
 16 17  1  0
 18 17  1  6
 19  9  1  0
 19 18  1  0
 20 28  1  0
 20 18  1  0
 21 20  2  0
 22 23  1  0
 23 24  2  0
 25 23  1  0
 25 26  1  0
 27 26  1  6
 27 29  1  0
 27 28  1  0
 29 30  1  0
 31 29  2  0
M  END
$$$$
