RPQ.pdb
     RDKit          3D

 28 28  0  0  1  0  0  0  0  0999 V2000
   18.3192  -23.1984  -15.4887 N   0  0  0  0  0  0  0  0  0  0  0  0
   18.0224  -23.6239  -14.1711 C   0  0  0  0  0  0  0  0  0  0  0  0
   17.0702  -24.4808  -13.9446 N   0  0  0  0  0  0  0  0  0  0  0  0
   18.7488  -23.1393  -13.0378 N   0  0  0  0  0  0  0  0  0  0  0  0
   20.2203  -23.1761  -13.0263 C   0  0  0  0  0  0  0  0  0  0  0  0
   20.6859  -22.7285  -14.3653 C   0  0  0  0  0  0  0  0  0  0  0  0
   22.0173  -22.0825  -14.4333 C   0  0  0  0  0  0  0  0  0  0  0  0
   22.2857  -21.0128  -13.4062 C   0  0  2  0  0  0  0  0  0  0  0  0
   21.2575  -20.0466  -13.2861 N   0  0  0  0  0  0  0  0  0  0  0  0
   23.6376  -20.4369  -13.5388 C   0  0  0  0  0  0  0  0  0  0  0  0
   23.6766  -19.2276  -13.9866 O   0  0  0  0  0  0  0  0  0  0  0  0
   16.8426  -24.7398  -12.9596 N   0  0  0  0  0  0  0  0  0  0  0  0
   24.8597  -21.1055  -13.2173 C   0  0  0  0  0  0  0  0  0  0  0  0
   25.0839  -22.3981  -12.6498 C   0  0  0  0  0  0  0  0  0  0  0  0
   26.3389  -22.2711  -11.8288 C   0  0  0  0  0  0  0  0  0  0  0  0
   26.9751  -21.0130  -12.3211 C   0  0  1  0  0  0  0  0  0  0  0  0
   26.1492  -20.5076  -13.4461 C   0  0  0  0  0  0  0  0  0  0  0  0
   26.7089  -20.7745  -14.7872 O   0  0  0  0  0  0  0  0  0  0  0  0
   26.3915  -21.8507  -15.3556 N   0  0  0  0  0  0  0  0  0  0  0  0
   29.6010  -16.5093  -18.3124 C   0  0  0  0  0  0  0  0  0  0  0  0
   28.2249  -16.5792  -18.0345 O   0  0  0  0  0  0  0  0  0  0  0  0
   27.5004  -15.5796  -18.1756 C   0  0  0  0  0  0  0  0  0  0  0  0
   27.6054  -17.8537  -17.5650 C   0  0  0  0  0  0  0  0  0  0  0  0
   28.6279  -18.9518  -17.4669 C   0  0  2  0  0  0  0  0  0  0  0  0
   28.0639  -20.1524  -16.8335 N   0  0  0  0  0  0  0  0  0  0  0  0
   27.5770  -19.9028  -15.4752 C   0  0  0  0  0  0  0  0  0  0  0  0
   28.9453  -21.3191  -16.8805 O   0  0  0  0  0  0  0  0  0  0  0  0
   29.2832  -21.8690  -18.1053 O   0  0  0  0  0  0  0  0  0  0  0  0
  2  1  1  0
  3  2  2  0
  4  2  1  0
  5  4  1  0
  6  5  1  0
  7  6  1  0
  8  9  1  6
  8  7  1  0
 10  8  1  0
 11 10  2  0
 12 10  1  0
 12 16  1  0
 13 14  1  0
 13 12  1  0
 14 15  1  0
 15 16  1  0
 16 17  1  6
 17 18  2  0
 20 21  2  0
 20 19  1  0
 22 20  1  0
 23 22  1  0
 24 23  1  6
 24 26  1  0
 25 17  1  0
 25 24  1  0
 26 28  2  0
 26 27  1  0
M  END
$$$$
