RPQ.pdb
     RDKit          3D

 28 28  0  0  1  0  0  0  0  0999 V2000
   25.1516  -21.1407  -18.7141 N   0  0  0  0  0  0  0  0  0  0  0  0
   24.5393  -19.9236  -18.3284 C   0  0  0  0  0  0  0  0  0  0  0  0
   23.3061  -19.6646  -18.6517 N   0  0  0  0  0  0  0  0  0  0  0  0
   25.2385  -18.9316  -17.5708 N   0  0  0  0  0  0  0  0  0  0  0  0
   25.4889  -19.1324  -16.1342 C   0  0  0  0  0  0  0  0  0  0  0  0
   26.9624  -19.1382  -15.9372 C   0  0  0  0  0  0  0  0  0  0  0  0
   27.4626  -19.5790  -14.6143 C   0  0  0  0  0  0  0  0  0  0  0  0
   27.3833  -21.0583  -14.3375 C   0  0  2  0  0  0  0  0  0  0  0  0
   27.6891  -21.8785  -15.4506 N   0  0  0  0  0  0  0  0  0  0  0  0
   26.1365  -21.4310  -13.6421 C   0  0  0  0  0  0  0  0  0  0  0  0
   25.3655  -22.2351  -14.2928 O   0  0  0  0  0  0  0  0  0  0  0  0
   22.7993  -20.3177  -19.2887 N   0  0  0  0  0  0  0  0  0  0  0  0
   25.7416  -20.9764  -12.3456 C   0  0  0  0  0  0  0  0  0  0  0  0
   26.3899  -20.0746  -11.4458 C   0  0  0  0  0  0  0  0  0  0  0  0
   26.0387  -20.5548  -10.0633 C   0  0  0  0  0  0  0  0  0  0  0  0
   24.8691  -21.4589  -10.2738 C   0  0  2  0  0  0  0  0  0  0  0  0
   24.5210  -21.4076  -11.7157 C   0  0  0  0  0  0  0  0  0  0  0  0
   23.3478  -20.5681  -12.0349 O   0  0  0  0  0  0  0  0  0  0  0  0
   23.5416  -19.3473  -12.2681 N   0  0  0  0  0  0  0  0  0  0  0  0
   21.2511  -24.5664  -15.6187 C   0  0  0  0  0  0  0  0  0  0  0  0
   20.3382  -23.5573  -15.9715 O   0  0  0  0  0  0  0  0  0  0  0  0
   19.5390  -23.7277  -16.9076 C   0  0  0  0  0  0  0  0  0  0  0  0
   20.3092  -22.2619  -15.2301 C   0  0  0  0  0  0  0  0  0  0  0  0
   21.2049  -22.3057  -14.0231 C   0  0  1  0  0  0  0  0  0  0  0  0
   21.2096  -21.0180  -13.3140 N   0  0  0  0  0  0  0  0  0  0  0  0
   22.0221  -21.0431  -12.0960 C   0  0  0  0  0  0  0  0  0  0  0  0
   19.8753  -20.4763  -13.0566 O   0  0  0  0  0  0  0  0  0  0  0  0
   19.1336  -20.9670  -11.9955 O   0  0  0  0  0  0  0  0  0  0  0  0
  2  1  1  0
  3  2  2  0
  4  2  1  0
  5  4  1  0
  6  5  1  0
  7  6  1  0
  8  9  1  6
  8  7  1  0
 10  8  1  0
 11 10  2  0
 12 10  1  0
 12 16  1  0
 13 14  1  0
 13 12  1  0
 14 15  1  0
 15 16  1  0
 16 17  1  1
 17 18  2  0
 20 21  2  0
 20 19  1  0
 22 20  1  0
 23 22  1  0
 24 23  1  6
 24 26  1  0
 25 17  1  0
 25 24  1  0
 26 28  2  0
 26 27  1  0
M  END
$$$$
