RPQ.pdb
     RDKit          3D

 28 28  0  0  1  0  0  0  0  0999 V2000
   29.3929  -24.3159  -16.3902 N   0  0  0  0  0  0  0  0  0  0  0  0
   29.0875  -23.1628  -17.1532 C   0  0  0  0  0  0  0  0  0  0  0  0
   29.0754  -23.2062  -18.4534 N   0  0  0  0  0  0  0  0  0  0  0  0
   28.7785  -21.9085  -16.5383 N   0  0  0  0  0  0  0  0  0  0  0  0
   28.3681  -21.8537  -15.1257 C   0  0  0  0  0  0  0  0  0  0  0  0
   27.1279  -21.0369  -15.0553 C   0  0  0  0  0  0  0  0  0  0  0  0
   25.8390  -21.7665  -15.0897 C   0  0  0  0  0  0  0  0  0  0  0  0
   25.6374  -22.8022  -14.0137 C   0  0  2  0  0  0  0  0  0  0  0  0
   25.7053  -24.1407  -14.4706 N   0  0  0  0  0  0  0  0  0  0  0  0
   24.4590  -22.5139  -13.1739 C   0  0  0  0  0  0  0  0  0  0  0  0
   23.4240  -23.2464  -13.4120 O   0  0  0  0  0  0  0  0  0  0  0  0
   28.8156  -22.3487  -18.9886 N   0  0  0  0  0  0  0  0  0  0  0  0
   24.3911  -21.5142  -12.1543 C   0  0  0  0  0  0  0  0  0  0  0  0
   25.3791  -20.5838  -11.7055 C   0  0  0  0  0  0  0  0  0  0  0  0
   25.1163  -20.3864  -10.2367 C   0  0  0  0  0  0  0  0  0  0  0  0
   23.7304  -20.9056  -10.0377 C   0  0  1  0  0  0  0  0  0  0  0  0
   23.2040  -21.2908  -11.3710 C   0  0  0  0  0  0  0  0  0  0  0  0
   22.2634  -20.3182  -11.9644 O   0  0  0  0  0  0  0  0  0  0  0  0
   22.7244  -19.2159  -12.3576 N   0  0  0  0  0  0  0  0  0  0  0  0
   20.3839  -22.6434  -14.9235 C   0  0  0  0  0  0  0  0  0  0  0  0
   19.0811  -22.5610  -14.4020 O   0  0  0  0  0  0  0  0  0  0  0  0
   18.3665  -23.5745  -14.3247 C   0  0  0  0  0  0  0  0  0  0  0  0
   18.5295  -21.2565  -13.9304 C   0  0  0  0  0  0  0  0  0  0  0  0
   19.5256  -20.1455  -14.1162 C   0  0  1  0  0  0  0  0  0  0  0  0
   19.9866  -19.6191  -12.8234 N   0  0  0  0  0  0  0  0  0  0  0  0
   20.8804  -20.5416  -12.1203 C   0  0  0  0  0  0  0  0  0  0  0  0
   18.9076  -19.1513  -11.9533 O   0  0  0  0  0  0  0  0  0  0  0  0
   18.7158  -19.7536  -10.7215 O   0  0  0  0  0  0  0  0  0  0  0  0
  2  1  1  0
  3  2  2  0
  4  2  1  0
  5  4  1  0
  6  5  1  0
  7  6  1  0
  8  9  1  6
  8  7  1  0
 10  8  1  0
 11 10  2  0
 12 10  1  0
 12 16  1  0
 13 14  1  0
 13 12  1  0
 14 15  1  0
 15 16  1  0
 16 17  1  6
 17 18  2  0
 20 21  2  0
 20 19  1  0
 22 20  1  0
 23 22  1  0
 24 23  1  6
 24 26  1  0
 25 17  1  0
 25 24  1  0
 26 28  2  0
 26 27  1  0
M  END
$$$$
