RPQ.pdb
     RDKit          3D

 28 28  0  0  1  0  0  0  0  0999 V2000
   20.7502  -24.4785  -11.9452 N   0  0  0  0  0  0  0  0  0  0  0  0
   20.2166  -23.1760  -12.1003 C   0  0  0  0  0  0  0  0  0  0  0  0
   19.0386  -22.8773  -11.6362 N   0  0  0  0  0  0  0  0  0  0  0  0
   20.9400  -22.1362  -12.7655 N   0  0  0  0  0  0  0  0  0  0  0  0
   22.2604  -22.4092  -13.3560 C   0  0  0  0  0  0  0  0  0  0  0  0
   23.2279  -22.5461  -12.2356 C   0  0  0  0  0  0  0  0  0  0  0  0
   24.6586  -22.6824  -12.5951 C   0  0  0  0  0  0  0  0  0  0  0  0
   25.5879  -21.6503  -12.0101 C   0  0  2  0  0  0  0  0  0  0  0  0
   25.3959  -21.4070  -10.6284 N   0  0  0  0  0  0  0  0  0  0  0  0
   25.6526  -20.4264  -12.8316 C   0  0  0  0  0  0  0  0  0  0  0  0
   25.0214  -19.4094  -12.3502 O   0  0  0  0  0  0  0  0  0  0  0  0
   18.6386  -21.9336  -11.8329 N   0  0  0  0  0  0  0  0  0  0  0  0
   26.3408  -20.2989  -14.0780 C   0  0  0  0  0  0  0  0  0  0  0  0
   27.0703  -21.2683  -14.8339 C   0  0  0  0  0  0  0  0  0  0  0  0
   28.1696  -20.5054  -15.5229 C   0  0  0  0  0  0  0  0  0  0  0  0
   27.7368  -19.0788  -15.4379 C   0  0  2  0  0  0  0  0  0  0  0  0
   26.3937  -19.0583  -14.8065 C   0  0  0  0  0  0  0  0  0  0  0  0
   25.2740  -18.8647  -15.7509 O   0  0  0  0  0  0  0  0  0  0  0  0
   24.7290  -19.8884  -16.2378 N   0  0  0  0  0  0  0  0  0  0  0  0
   20.0084  -14.0126  -17.3317 C   0  0  0  0  0  0  0  0  0  0  0  0
   20.7424  -14.8073  -16.4341 O   0  0  0  0  0  0  0  0  0  0  0  0
   20.8433  -14.4818  -15.2392 C   0  0  0  0  0  0  0  0  0  0  0  0
   21.4150  -16.0573  -16.8965 C   0  0  0  0  0  0  0  0  0  0  0  0
   22.7632  -16.2204  -16.2509 C   0  0  2  0  0  0  0  0  0  0  0  0
   23.4550  -17.4164  -16.7528 N   0  0  0  0  0  0  0  0  0  0  0  0
   24.7734  -17.6073  -16.1448 C   0  0  0  0  0  0  0  0  0  0  0  0
   23.5216  -17.4960  -18.2121 O   0  0  0  0  0  0  0  0  0  0  0  0
   22.3771  -17.7957  -18.9312 O   0  0  0  0  0  0  0  0  0  0  0  0
  2  1  1  0
  3  2  2  0
  4  2  1  0
  5  4  1  0
  6  5  1  0
  7  6  1  0
  8  9  1  1
  8  7  1  0
 10  8  1  0
 11 10  2  0
 12 10  1  0
 12 16  1  0
 13 14  1  0
 13 12  1  0
 14 15  1  0
 15 16  1  0
 16 17  1  6
 17 18  2  0
 20 21  2  0
 20 19  1  0
 22 20  1  0
 23 22  1  0
 24 23  1  1
 24 26  1  0
 25 17  1  0
 25 24  1  0
 26 28  2  0
 26 27  1  0
M  END
$$$$
