RPQ.pdb
     RDKit          3D

 28 28  0  0  1  0  0  0  0  0999 V2000
   19.9517  -22.1955  -13.9372 N   0  0  0  0  0  0  0  0  0  0  0  0
   20.5892  -20.9904  -14.3199 C   0  0  0  0  0  0  0  0  0  0  0  0
   19.9620  -20.0999  -15.0313 N   0  0  0  0  0  0  0  0  0  0  0  0
   21.9381  -20.6958  -13.9452 N   0  0  0  0  0  0  0  0  0  0  0  0
   22.7393  -21.6877  -13.2096 C   0  0  0  0  0  0  0  0  0  0  0  0
   22.8842  -21.1947  -11.8146 C   0  0  0  0  0  0  0  0  0  0  0  0
   23.9074  -21.8546  -10.9707 C   0  0  0  0  0  0  0  0  0  0  0  0
   24.9869  -20.9590  -10.4196 C   0  0  2  0  0  0  0  0  0  0  0  0
   24.6192  -20.2527   -9.2487 N   0  0  0  0  0  0  0  0  0  0  0  0
   25.5991  -20.1141  -11.4627 C   0  0  0  0  0  0  0  0  0  0  0  0
   25.2432  -18.8741  -11.4422 O   0  0  0  0  0  0  0  0  0  0  0  0
   20.4458  -19.2063  -15.2695 N   0  0  0  0  0  0  0  0  0  0  0  0
   26.5236  -20.5619  -12.4568 C   0  0  0  0  0  0  0  0  0  0  0  0
   26.9989  -21.8776  -12.7505 C   0  0  0  0  0  0  0  0  0  0  0  0
   28.4116  -21.7016  -13.2387 C   0  0  0  0  0  0  0  0  0  0  0  0
   28.5042  -20.2515  -13.5827 C   0  0  2  0  0  0  0  0  0  0  0  0
   27.1577  -19.6600  -13.3826 C   0  0  0  0  0  0  0  0  0  0  0  0
   26.3936  -19.4372  -14.6275 O   0  0  0  0  0  0  0  0  0  0  0  0
   25.7541  -20.4074  -15.1090 N   0  0  0  0  0  0  0  0  0  0  0  0
   26.7966  -14.1723  -14.9724 C   0  0  0  0  0  0  0  0  0  0  0  0
   25.7318  -14.4002  -15.8612 O   0  0  0  0  0  0  0  0  0  0  0  0
   25.3693  -13.5140  -16.6532 C   0  0  0  0  0  0  0  0  0  0  0  0
   25.0151  -15.7097  -15.8729 C   0  0  0  0  0  0  0  0  0  0  0  0
   25.5272  -16.6004  -16.9708 C   0  0  2  0  0  0  0  0  0  0  0  0
   25.5640  -18.0069  -16.5448 N   0  0  0  0  0  0  0  0  0  0  0  0
   26.3323  -18.2080  -15.3145 C   0  0  0  0  0  0  0  0  0  0  0  0
   25.9822  -18.9353  -17.5951 O   0  0  0  0  0  0  0  0  0  0  0  0
   25.0636  -19.3480  -18.5452 O   0  0  0  0  0  0  0  0  0  0  0  0
  2  1  1  0
  3  2  2  0
  4  2  1  0
  5  4  1  0
  6  5  1  0
  7  6  1  0
  8  9  1  1
  8  7  1  0
 10  8  1  0
 11 10  2  0
 12 10  1  0
 12 16  1  0
 13 14  1  0
 13 12  1  0
 14 15  1  0
 15 16  1  0
 16 17  1  6
 17 18  2  0
 20 21  2  0
 20 19  1  0
 22 20  1  0
 23 22  1  0
 24 23  1  1
 24 26  1  0
 25 17  1  0
 25 24  1  0
 26 28  2  0
 26 27  1  0
M  END
$$$$
