PPG.pdb
     RDKit          3D

 19 20  0  0  1  0  0  0  0  0999 V2000
   27.3422  -20.2505  -15.7636 N   0  0  0  0  0  0  0  0  0  0  0  0
   27.8223  -19.0811  -16.4867 C   0  0  0  0  0  0  0  0  0  0  0  0
   28.1058  -18.0199  -15.4659 C   0  0  0  0  0  0  0  0  0  0  0  0
   27.1678  -18.3576  -14.3532 C   0  0  0  0  0  0  0  0  0  0  0  0
   27.0796  -19.8687  -14.4371 C   0  0  1  0  0  0  0  0  0  0  0  0
   25.8483  -20.3831  -13.7976 C   0  0  0  0  0  0  0  0  0  0  0  0
   24.8341  -20.2966  -14.5835 O   0  0  0  0  0  0  0  0  0  0  0  0
   25.6916  -20.9134  -12.5218 N   0  0  0  0  0  0  0  0  0  0  0  0
   26.6690  -21.6686  -11.7094 C   0  0  0  0  0  0  0  0  0  0  0  0
   26.6322  -20.8018  -10.4397 C   0  0  0  0  0  0  0  0  0  0  0  0
   25.2796  -20.0803  -10.4714 C   0  0  0  0  0  0  0  0  0  0  0  0
   24.6134  -20.8701  -11.5961 C   0  0  1  0  0  0  0  0  0  0  0  0
   23.3091  -20.4343  -11.9508 C   0  0  0  0  0  0  0  0  0  0  0  0
   22.9727  -19.2733  -12.1544 O   0  0  0  0  0  0  0  0  0  0  0  0
   22.2721  -21.4310  -12.0888 N   0  0  0  0  0  0  0  0  0  0  0  0
   20.9303  -21.0314  -12.4568 C   0  0  0  0  0  0  0  0  0  0  0  0
   20.7935  -20.8564  -13.9221 C   0  0  0  0  0  0  0  0  0  0  0  0
   20.5183  -19.6515  -14.5224 O   0  0  0  0  0  0  0  0  0  0  0  0
   20.9382  -21.8700  -14.6512 O   0  0  0  0  0  0  0  0  0  0  0  0
  1  5  1  0
  1  2  1  0
  2  3  1  0
  3  4  1  0
  5  6  1  6
  5  4  1  0
  6  8  1  0
  7  6  2  0
  8 12  1  0
  8  9  1  0
 10  9  1  0
 11 12  1  0
 11 10  1  0
 12 13  1  6
 13 14  2  0
 13 15  1  0
 15 16  1  0
 17 16  1  0
 17 18  1  0
 19 17  2  0
M  END
$$$$
