PPG.pdb
     RDKit          3D

 19 20  0  0  1  0  0  0  0  0999 V2000
   25.2167  -19.5677  -10.4852 N   0  0  0  0  0  0  0  0  0  0  0  0
   24.7384  -20.6745   -9.6684 C   0  0  0  0  0  0  0  0  0  0  0  0
   25.4258  -21.9126  -10.1612 C   0  0  0  0  0  0  0  0  0  0  0  0
   25.7035  -21.6007  -11.5956 C   0  0  0  0  0  0  0  0  0  0  0  0
   25.9256  -20.1012  -11.5749 C   0  0  1  0  0  0  0  0  0  0  0  0
   25.7087  -19.4956  -12.9075 C   0  0  0  0  0  0  0  0  0  0  0  0
   24.4860  -19.1317  -13.0697 O   0  0  0  0  0  0  0  0  0  0  0  0
   26.6314  -19.2953  -13.9283 N   0  0  0  0  0  0  0  0  0  0  0  0
   28.0802  -19.0205  -13.8225 C   0  0  0  0  0  0  0  0  0  0  0  0
   28.5966  -20.1565  -14.7210 C   0  0  0  0  0  0  0  0  0  0  0  0
   27.4261  -20.5183  -15.6431 C   0  0  0  0  0  0  0  0  0  0  0  0
   26.5110  -19.3325  -15.3444 C   0  0  1  0  0  0  0  0  0  0  0  0
   25.2575  -19.3529  -16.0118 C   0  0  0  0  0  0  0  0  0  0  0  0
   25.0929  -19.4301  -17.2240 O   0  0  0  0  0  0  0  0  0  0  0  0
   24.0579  -19.2766  -15.2100 N   0  0  0  0  0  0  0  0  0  0  0  0
   22.7738  -19.5920  -15.7994 C   0  0  0  0  0  0  0  0  0  0  0  0
   22.1725  -20.8006  -15.1878 C   0  0  0  0  0  0  0  0  0  0  0  0
   22.5619  -22.0824  -15.4933 O   0  0  0  0  0  0  0  0  0  0  0  0
   21.2557  -20.6380  -14.3434 O   0  0  0  0  0  0  0  0  0  0  0  0
  1  5  1  0
  1  2  1  0
  2  3  1  0
  3  4  1  0
  5  6  1  6
  5  4  1  0
  6  8  1  0
  7  6  2  0
  8 12  1  0
  8  9  1  0
 10  9  1  0
 11 12  1  0
 11 10  1  0
 12 13  1  1
 13 14  2  0
 13 15  1  0
 15 16  1  0
 17 16  1  0
 17 18  1  0
 19 17  2  0
M  END
$$$$
