PPG.pdb
     RDKit          3D

 19 20  0  0  1  0  0  0  0  0999 V2000
   27.5107  -20.8316  -15.2671 N   0  0  0  0  0  0  0  0  0  0  0  0
   28.0479  -19.7639  -16.0992 C   0  0  0  0  0  0  0  0  0  0  0  0
   28.2606  -18.5774  -15.2072 C   0  0  0  0  0  0  0  0  0  0  0  0
   27.2419  -18.7721  -14.1318 C   0  0  0  0  0  0  0  0  0  0  0  0
   27.1532  -20.2816  -14.0244 C   0  0  1  0  0  0  0  0  0  0  0  0
   25.8759  -20.7145  -13.4155 C   0  0  0  0  0  0  0  0  0  0  0  0
   24.9289  -20.7634  -14.2841 O   0  0  0  0  0  0  0  0  0  0  0  0
   25.6178  -21.0502  -12.0910 N   0  0  0  0  0  0  0  0  0  0  0  0
   26.5286  -21.6596  -11.0987 C   0  0  0  0  0  0  0  0  0  0  0  0
   26.3852  -20.6132   -9.9810 C   0  0  0  0  0  0  0  0  0  0  0  0
   25.0371  -19.9262  -10.2291 C   0  0  0  0  0  0  0  0  0  0  0  0
   24.4676  -20.8860  -11.2717 C   0  0  1  0  0  0  0  0  0  0  0  0
   23.1950  -20.5290  -11.7911 C   0  0  0  0  0  0  0  0  0  0  0  0
   22.1629  -20.4126  -11.1401 O   0  0  0  0  0  0  0  0  0  0  0  0
   23.0848  -20.2764  -13.2095 N   0  0  0  0  0  0  0  0  0  0  0  0
   21.8580  -19.7340  -13.7536 C   0  0  0  0  0  0  0  0  0  0  0  0
   20.8731  -20.8003  -14.0529 C   0  0  0  0  0  0  0  0  0  0  0  0
   20.9825  -21.6601  -15.1191 O   0  0  0  0  0  0  0  0  0  0  0  0
   19.8849  -20.9200  -13.2854 O   0  0  0  0  0  0  0  0  0  0  0  0
  1  5  1  0
  1  2  1  0
  2  3  1  0
  3  4  1  0
  5  6  1  6
  5  4  1  0
  6  8  1  0
  7  6  2  0
  8 12  1  0
  8  9  1  0
 10  9  1  0
 11 12  1  0
 11 10  1  0
 12 13  1  6
 13 14  2  0
 13 15  1  0
 15 16  1  0
 17 16  1  0
 17 18  1  0
 19 17  2  0
M  END
$$$$
