PPG.pdb
     RDKit          3D

 19 20  0  0  1  0  0  0  0  0999 V2000
   27.6758  -20.6593  -15.2822 N   0  0  0  0  0  0  0  0  0  0  0  0
   28.2242  -19.6350  -16.1603 C   0  0  0  0  0  0  0  0  0  0  0  0
   28.3193  -18.3729  -15.3562 C   0  0  0  0  0  0  0  0  0  0  0  0
   27.2349  -18.5327  -14.3410 C   0  0  0  0  0  0  0  0  0  0  0  0
   27.2053  -20.0316  -14.1163 C   0  0  1  0  0  0  0  0  0  0  0  0
   25.9076  -20.4782  -13.5630 C   0  0  0  0  0  0  0  0  0  0  0  0
   24.9691  -20.4081  -14.4393 O   0  0  0  0  0  0  0  0  0  0  0  0
   25.6239  -20.9342  -12.2804 N   0  0  0  0  0  0  0  0  0  0  0  0
   26.5169  -21.6292  -11.3290 C   0  0  0  0  0  0  0  0  0  0  0  0
   26.3457  -20.6897  -10.1238 C   0  0  0  0  0  0  0  0  0  0  0  0
   24.9998  -19.9866  -10.3362 C   0  0  0  0  0  0  0  0  0  0  0  0
   24.4564  -20.8488  -11.4737 C   0  0  1  0  0  0  0  0  0  0  0  0
   23.1930  -20.4493  -11.9848 C   0  0  0  0  0  0  0  0  0  0  0  0
   22.8777  -19.3085  -12.3036 O   0  0  0  0  0  0  0  0  0  0  0  0
   22.1750  -21.4612  -12.1514 N   0  0  0  0  0  0  0  0  0  0  0  0
   20.8614  -21.0917  -12.6345 C   0  0  0  0  0  0  0  0  0  0  0  0
   20.8773  -20.7854  -14.0845 C   0  0  0  0  0  0  0  0  0  0  0  0
   20.0953  -19.8171  -14.6665 O   0  0  0  0  0  0  0  0  0  0  0  0
   21.6512  -21.4515  -14.8176 O   0  0  0  0  0  0  0  0  0  0  0  0
  1  5  1  0
  1  2  1  0
  2  3  1  0
  3  4  1  0
  5  6  1  6
  5  4  1  0
  6  8  1  0
  7  6  2  0
  8 12  1  0
  8  9  1  0
 10  9  1  0
 11 12  1  0
 11 10  1  0
 12 13  1  6
 13 14  2  0
 13 15  1  0
 15 16  1  0
 17 16  1  0
 17 18  1  0
 19 17  2  0
M  END
$$$$
