PPG.pdb
     RDKit          3D

 19 20  0  0  1  0  0  0  0  0999 V2000
   24.5787  -19.8674  -10.4678 N   0  0  0  0  0  0  0  0  0  0  0  0
   23.8806  -20.9192   -9.7417 C   0  0  0  0  0  0  0  0  0  0  0  0
   24.6930  -22.1704   -9.8930 C   0  0  0  0  0  0  0  0  0  0  0  0
   25.3934  -21.9669  -11.1969 C   0  0  0  0  0  0  0  0  0  0  0  0
   25.5896  -20.4643  -11.2402 C   0  0  1  0  0  0  0  0  0  0  0  0
   25.7861  -19.9759  -12.6230 C   0  0  0  0  0  0  0  0  0  0  0  0
   24.6741  -19.6229  -13.1639 O   0  0  0  0  0  0  0  0  0  0  0  0
   26.9706  -19.8683  -13.3434 N   0  0  0  0  0  0  0  0  0  0  0  0
   28.3376  -19.6161  -12.8402 C   0  0  0  0  0  0  0  0  0  0  0  0
   29.0444  -20.8242  -13.4771 C   0  0  0  0  0  0  0  0  0  0  0  0
   28.1748  -21.2276  -14.6738 C   0  0  0  0  0  0  0  0  0  0  0  0
   27.2610  -20.0051  -14.7284 C   0  0  1  0  0  0  0  0  0  0  0  0
   26.2526  -20.0480  -15.7276 C   0  0  0  0  0  0  0  0  0  0  0  0
   26.3211  -19.5310  -16.8368 O   0  0  0  0  0  0  0  0  0  0  0  0
   25.0299  -20.7585  -15.4308 N   0  0  0  0  0  0  0  0  0  0  0  0
   24.3937  -21.5603  -16.4545 C   0  0  0  0  0  0  0  0  0  0  0  0
   23.2612  -20.8433  -17.0868 C   0  0  0  0  0  0  0  0  0  0  0  0
   23.1240  -19.4762  -17.0751 O   0  0  0  0  0  0  0  0  0  0  0  0
   22.3803  -21.5290  -17.6645 O   0  0  0  0  0  0  0  0  0  0  0  0
  1  5  1  0
  1  2  1  0
  2  3  1  0
  3  4  1  0
  5  6  1  6
  5  4  1  0
  6  8  1  0
  7  6  2  0
  8 12  1  0
  8  9  1  0
 10  9  1  0
 11 12  1  0
 11 10  1  0
 12 13  1  6
 13 14  2  0
 13 15  1  0
 15 16  1  0
 17 16  1  0
 17 18  1  0
 19 17  2  0
M  END
$$$$
