PPG.pdb
     RDKit          3D

 19 20  0  0  1  0  0  0  0  0999 V2000
   26.6141  -21.1709  -15.1144 N   0  0  0  0  0  0  0  0  0  0  0  0
   26.6977  -20.1686  -16.1677 C   0  0  0  0  0  0  0  0  0  0  0  0
   26.9818  -18.8553  -15.5021 C   0  0  0  0  0  0  0  0  0  0  0  0
   26.3822  -19.0243  -14.1441 C   0  0  0  0  0  0  0  0  0  0  0  0
   26.5693  -20.5050  -13.8778 C   0  0  1  0  0  0  0  0  0  0  0  0
   25.6225  -21.0027  -12.8554 C   0  0  0  0  0  0  0  0  0  0  0  0
   24.4926  -21.3302  -13.3747 O   0  0  0  0  0  0  0  0  0  0  0  0
   25.8207  -21.1418  -11.4861 N   0  0  0  0  0  0  0  0  0  0  0  0
   27.0537  -21.5251  -10.7659 C   0  0  0  0  0  0  0  0  0  0  0  0
   27.1415  -20.3274   -9.8055 C   0  0  0  0  0  0  0  0  0  0  0  0
   25.7136  -19.7792   -9.6973 C   0  0  0  0  0  0  0  0  0  0  0  0
   24.9650  -20.9272  -10.3713 C   0  0  1  0  0  0  0  0  0  0  0  0
   23.5627  -20.7420  -10.4995 C   0  0  0  0  0  0  0  0  0  0  0  0
   22.7894  -20.4744   -9.5869 O   0  0  0  0  0  0  0  0  0  0  0  0
   22.9754  -20.8765  -11.8128 N   0  0  0  0  0  0  0  0  0  0  0  0
   21.7967  -20.1107  -12.1589 C   0  0  0  0  0  0  0  0  0  0  0  0
   21.3275  -20.4176  -13.5308 C   0  0  0  0  0  0  0  0  0  0  0  0
   20.2506  -19.8027  -14.1224 O   0  0  0  0  0  0  0  0  0  0  0  0
   21.9533  -21.2898  -14.1847 O   0  0  0  0  0  0  0  0  0  0  0  0
  1  5  1  0
  1  2  1  0
  2  3  1  0
  3  4  1  0
  5  6  1  1
  5  4  1  0
  6  8  1  0
  7  6  2  0
  8 12  1  0
  8  9  1  0
 10  9  1  0
 11 12  1  0
 11 10  1  0
 12 13  1  6
 13 14  2  0
 13 15  1  0
 15 16  1  0
 17 16  1  0
 17 18  1  0
 19 17  2  0
M  END
$$$$
