PPG.pdb
     RDKit          3D

 19 20  0  0  1  0  0  0  0  0999 V2000
   18.9235  -12.4213  -15.8053 N   0  0  0  0  0  0  0  0  0  0  0  0
   17.5078  -12.7597  -15.8501 C   0  0  0  0  0  0  0  0  0  0  0  0
   16.8900  -11.9206  -16.9285 C   0  0  0  0  0  0  0  0  0  0  0  0
   17.7676  -10.7121  -16.9652 C   0  0  0  0  0  0  0  0  0  0  0  0
   19.1251  -11.2729  -16.5897 C   0  0  1  0  0  0  0  0  0  0  0  0
   20.0265  -10.2234  -16.0649 C   0  0  0  0  0  0  0  0  0  0  0  0
   19.6756   -9.8417  -14.8881 O   0  0  0  0  0  0  0  0  0  0  0  0
   21.1368   -9.6506  -16.6755 N   0  0  0  0  0  0  0  0  0  0  0  0
   22.0904  -10.2671  -17.6222 C   0  0  0  0  0  0  0  0  0  0  0  0
   21.9841   -9.2377  -18.7596 C   0  0  0  0  0  0  0  0  0  0  0  0
   21.4889   -7.9445  -18.1012 C   0  0  0  0  0  0  0  0  0  0  0  0
   21.6749   -8.3353  -16.6365 C   0  0  1  0  0  0  0  0  0  0  0  0
   21.2588   -7.3591  -15.6927 C   0  0  0  0  0  0  0  0  0  0  0  0
   20.1188   -6.9273  -15.5644 O   0  0  0  0  0  0  0  0  0  0  0  0
   22.2509   -6.8135  -14.7950 N   0  0  0  0  0  0  0  0  0  0  0  0
   21.8599   -5.8565  -13.7817 C   0  0  0  0  0  0  0  0  0  0  0  0
   21.7008   -4.4954  -14.3460 C   0  0  0  0  0  0  0  0  0  0  0  0
   22.0147   -4.1676  -15.6429 O   0  0  0  0  0  0  0  0  0  0  0  0
   21.2535   -3.5949  -13.5917 O   0  0  0  0  0  0  0  0  0  0  0  0
  1  5  1  0
  1  2  1  0
  2  3  1  0
  3  4  1  0
  5  6  1  1
  5  4  1  0
  6  8  1  0
  7  6  2  0
  8 12  1  0
  8  9  1  0
 10  9  1  0
 11 12  1  0
 11 10  1  0
 12 13  1  1
 13 14  2  0
 13 15  1  0
 15 16  1  0
 17 16  1  0
 17 18  1  0
 19 17  2  0
M  END
$$$$
