PPG.pdb
     RDKit          3D

 19 20  0  0  1  0  0  0  0  0999 V2000
   27.9553  -21.4271  -13.5706 N   0  0  0  0  0  0  0  0  0  0  0  0
   27.9644  -20.5463  -14.7304 C   0  0  0  0  0  0  0  0  0  0  0  0
   28.0761  -19.1428  -14.2145 C   0  0  0  0  0  0  0  0  0  0  0  0
   27.4506  -19.2263  -12.8603 C   0  0  0  0  0  0  0  0  0  0  0  0
   27.7920  -20.6363  -12.4205 C   0  0  1  0  0  0  0  0  0  0  0  0
   26.8705  -21.1219  -11.3695 C   0  0  0  0  0  0  0  0  0  0  0  0
   25.8810  -21.7729  -11.8702 O   0  0  0  0  0  0  0  0  0  0  0  0
   26.9633  -20.9557   -9.9921 N   0  0  0  0  0  0  0  0  0  0  0  0
   28.1674  -21.0021   -9.1355 C   0  0  0  0  0  0  0  0  0  0  0  0
   28.0105  -19.6381   -8.4430 C   0  0  0  0  0  0  0  0  0  0  0  0
   26.5187  -19.2964   -8.5371 C   0  0  0  0  0  0  0  0  0  0  0  0
   25.9913  -20.6530   -8.9997 C   0  0  1  0  0  0  0  0  0  0  0  0
   24.5938  -20.7060   -9.2472 C   0  0  0  0  0  0  0  0  0  0  0  0
   23.7184  -20.2745   -8.5056 O   0  0  0  0  0  0  0  0  0  0  0  0
   24.1425  -21.3188  -10.4755 N   0  0  0  0  0  0  0  0  0  0  0  0
   22.7327  -21.3258  -10.8038 C   0  0  0  0  0  0  0  0  0  0  0  0
   22.4357  -20.4505  -11.9623 C   0  0  0  0  0  0  0  0  0  0  0  0
   23.3542  -20.1377  -12.9352 O   0  0  0  0  0  0  0  0  0  0  0  0
   21.2777  -19.9705  -12.0548 O   0  0  0  0  0  0  0  0  0  0  0  0
  1  5  1  0
  1  2  1  0
  2  3  1  0
  3  4  1  0
  5  6  1  1
  5  4  1  0
  6  8  1  0
  7  6  2  0
  8 12  1  0
  8  9  1  0
 10  9  1  0
 11 12  1  0
 11 10  1  0
 12 13  1  6
 13 14  2  0
 13 15  1  0
 15 16  1  0
 17 16  1  0
 17 18  1  0
 19 17  2  0
M  END
$$$$
