PPG.pdb
     RDKit          3D

 19 20  0  0  1  0  0  0  0  0999 V2000
   22.9636  -13.4663  -18.1494 N   0  0  0  0  0  0  0  0  0  0  0  0
   22.8950  -13.9001  -19.5379 C   0  0  0  0  0  0  0  0  0  0  0  0
   24.2135  -13.5640  -20.1682 C   0  0  0  0  0  0  0  0  0  0  0  0
   24.6849  -12.3930  -19.3691 C   0  0  0  0  0  0  0  0  0  0  0  0
   24.1146  -12.6754  -17.9932 C   0  0  1  0  0  0  0  0  0  0  0  0
   24.0053  -11.4436  -17.1808 C   0  0  0  0  0  0  0  0  0  0  0  0
   22.8899  -10.8374  -17.3862 O   0  0  0  0  0  0  0  0  0  0  0  0
   24.9243  -10.9151  -16.2810 N   0  0  0  0  0  0  0  0  0  0  0  0
   25.9726  -11.6187  -15.5118 C   0  0  0  0  0  0  0  0  0  0  0  0
   27.1829  -10.7759  -15.9471 C   0  0  0  0  0  0  0  0  0  0  0  0
   26.6079   -9.4246  -16.3880 C   0  0  0  0  0  0  0  0  0  0  0  0
   25.1857   -9.5843  -15.8547 C   0  0  1  0  0  0  0  0  0  0  0  0
   24.3111   -8.4999  -16.1308 C   0  0  0  0  0  0  0  0  0  0  0  0
   24.3140   -7.8193  -17.1502 O   0  0  0  0  0  0  0  0  0  0  0  0
   23.3233   -8.1515  -15.1355 N   0  0  0  0  0  0  0  0  0  0  0  0
   22.3573   -7.1090  -15.4104 C   0  0  0  0  0  0  0  0  0  0  0  0
   21.1277   -7.6523  -16.0343 C   0  0  0  0  0  0  0  0  0  0  0  0
   20.0404   -8.0909  -15.3178 O   0  0  0  0  0  0  0  0  0  0  0  0
   21.0827   -7.7129  -17.2890 O   0  0  0  0  0  0  0  0  0  0  0  0
  1  5  1  0
  1  2  1  0
  2  3  1  0
  3  4  1  0
  5  6  1  6
  5  4  1  0
  6  8  1  0
  7  6  2  0
  8 12  1  0
  8  9  1  0
 10  9  1  0
 11 12  1  0
 11 10  1  0
 12 13  1  6
 13 14  2  0
 13 15  1  0
 15 16  1  0
 17 16  1  0
 17 18  1  0
 19 17  2  0
M  END
$$$$
