WIY.pdb
     RDKit          3D

 35 37  0  0  1  0  0  0  0  0999 V2000
   27.2461  -20.1257  -17.1299 N   0  0  0  0  0  0  0  0  0  0  0  0
   26.9087  -19.3090  -15.9440 C   0  0  1  0  0  0  0  0  0  0  0  0
   25.4363  -18.9793  -16.1218 C   0  0  0  0  0  0  0  0  0  0  0  0
   25.1967  -17.9949  -17.1943 C   0  0  0  0  0  0  0  0  0  0  0  0
   26.1454  -17.2590  -17.9155 C   0  0  0  0  0  0  0  0  0  0  0  0
   25.5322  -16.4644  -18.8057 N   0  0  0  0  0  0  0  0  0  0  0  0
   24.1903  -16.6513  -18.6972 C   0  0  0  0  0  0  0  0  0  0  0  0
   23.1639  -16.0583  -19.4027 C   0  0  0  0  0  0  0  0  0  0  0  0
   21.8653  -16.4317  -19.0958 C   0  0  0  0  0  0  0  0  0  0  0  0
   21.6506  -17.3688  -18.1110 C   0  0  0  0  0  0  0  0  0  0  0  0
   22.6897  -17.9626  -17.4039 C   0  0  0  0  0  0  0  0  0  0  0  0
   23.9758  -17.5932  -17.7066 C   0  0  0  0  0  0  0  0  0  0  0  0
   26.9899  -20.1841  -14.7458 C   0  0  0  0  0  0  0  0  0  0  0  0
   26.5937  -21.4070  -14.8124 O   0  0  0  0  0  0  0  0  0  0  0  0
   31.1297  -20.7467  -11.5220 C   0  0  0  0  0  0  0  0  0  0  0  0
   29.8773  -20.8331  -12.3615 C   0  0  0  0  0  0  0  0  0  0  0  0
   28.7252  -20.3418  -11.5293 C   0  0  2  0  0  0  0  0  0  0  0  0
   28.6118  -21.2546  -10.3281 C   0  0  0  0  0  0  0  0  0  0  0  0
   27.4115  -20.4086  -12.3042 C   0  0  2  0  0  0  0  0  0  0  0  0
   27.5023  -19.6697  -13.5381 N   0  0  0  0  0  0  0  0  0  0  0  0
   26.3478  -19.9358  -11.3964 C   0  0  0  0  0  0  0  0  0  0  0  0
   26.0864  -18.7115  -11.3883 O   0  0  0  0  0  0  0  0  0  0  0  0
   18.0871  -20.4341  -12.4960 O   0  0  0  0  0  0  0  0  0  0  0  0
   19.4762  -20.5251  -12.3816 C   0  0  0  0  0  0  0  0  0  0  0  0
   20.2928  -19.4150  -12.4812 C   0  0  0  0  0  0  0  0  0  0  0  0
   21.6612  -19.5622  -12.3605 C   0  0  0  0  0  0  0  0  0  0  0  0
   22.2093  -20.8068  -12.1420 C   0  0  0  0  0  0  0  0  0  0  0  0
   23.6729  -20.9245  -12.0114 C   0  0  0  0  0  0  0  0  0  0  0  0
   24.1403  -20.6797  -10.5819 C   0  0  2  0  0  0  0  0  0  0  0  0
   25.6098  -20.7880  -10.5427 N   0  0  0  0  0  0  0  0  0  0  0  0
   23.5546  -21.6276   -9.6347 C   0  0  0  0  0  0  0  0  0  0  0  0
   22.6427  -21.3233   -8.8600 O   0  0  0  0  0  0  0  0  0  0  0  0
   21.3783  -21.9280  -12.0422 C   0  0  0  0  0  0  0  0  0  0  0  0
   20.0101  -21.7888  -12.1618 C   0  0  0  0  0  0  0  0  0  0  0  0
   24.0006  -22.9655   -9.5429 O   0  0  0  0  0  0  0  0  0  0  0  0
  2  1  1  6
  2  3  1  0
  3  4  1  0
  4  5  2  0
  6  5  1  0
  7  6  1  0
  8  7  2  0
  9  8  1  0
 10  9  2  0
 10 11  1  0
 11 12  2  0
 12  7  1  0
 12  4  1  0
 13  2  1  0
 14 13  2  0
 15 16  1  0
 17 19  1  0
 17 16  1  0
 17 18  1  1
 19 20  1  6
 20 13  1  0
 21 19  1  0
 21 22  2  0
 23 24  1  0
 24 34  2  0
 24 25  1  0
 25 26  2  0
 26 27  1  0
 27 28  1  0
 29 28  1  6
 29 30  1  0
 30 21  1  0
 31 29  1  0
 32 31  2  0
 33 27  2  0
 34 33  1  0
 35 31  1  0
M  END
$$$$
