WIY.pdb
     RDKit          3D

 35 37  0  0  1  0  0  0  0  0999 V2000
   27.1278  -21.3021  -13.5764 N   0  0  0  0  0  0  0  0  0  0  0  0
   26.4320  -20.2778  -12.7677 C   0  0  1  0  0  0  0  0  0  0  0  0
   25.2222  -19.8971  -13.6043 C   0  0  0  0  0  0  0  0  0  0  0  0
   25.5891  -19.2441  -14.8754 C   0  0  0  0  0  0  0  0  0  0  0  0
   25.4266  -19.7382  -16.1758 C   0  0  0  0  0  0  0  0  0  0  0  0
   25.8880  -18.8484  -17.0675 N   0  0  0  0  0  0  0  0  0  0  0  0
   26.3577  -17.7661  -16.3926 C   0  0  0  0  0  0  0  0  0  0  0  0
   26.9222  -16.6065  -16.8819 C   0  0  0  0  0  0  0  0  0  0  0  0
   27.3211  -15.6436  -15.9687 C   0  0  0  0  0  0  0  0  0  0  0  0
   27.1411  -15.8772  -14.6244 C   0  0  0  0  0  0  0  0  0  0  0  0
   26.5714  -17.0482  -14.1381 C   0  0  0  0  0  0  0  0  0  0  0  0
   26.1767  -18.0024  -15.0413 C   0  0  0  0  0  0  0  0  0  0  0  0
   25.8953  -20.9403  -11.5507 C   0  0  0  0  0  0  0  0  0  0  0  0
   25.5278  -22.1730  -11.5966 O   0  0  0  0  0  0  0  0  0  0  0  0
   27.7794  -19.0872   -6.8908 C   0  0  0  0  0  0  0  0  0  0  0  0
   27.3142  -20.1414   -7.8669 C   0  0  0  0  0  0  0  0  0  0  0  0
   25.8113  -20.1095   -7.9042 C   0  0  2  0  0  0  0  0  0  0  0  0
   25.3116  -20.8521   -6.6844 C   0  0  0  0  0  0  0  0  0  0  0  0
   25.2709  -20.8146   -9.1457 C   0  0  2  0  0  0  0  0  0  0  0  0
   25.7913  -20.2138  -10.3477 N   0  0  0  0  0  0  0  0  0  0  0  0
   23.7980  -20.7922   -9.0508 C   0  0  0  0  0  0  0  0  0  0  0  0
   23.1814  -19.9290   -9.7157 O   0  0  0  0  0  0  0  0  0  0  0  0
   16.0799  -23.3202  -11.3171 O   0  0  0  0  0  0  0  0  0  0  0  0
   17.4163  -23.1020  -10.9747 C   0  0  0  0  0  0  0  0  0  0  0  0
   18.1990  -24.0929  -10.4136 C   0  0  0  0  0  0  0  0  0  0  0  0
   19.5156  -23.8225  -10.0939 C   0  0  0  0  0  0  0  0  0  0  0  0
   20.0460  -22.5739  -10.3323 C   0  0  0  0  0  0  0  0  0  0  0  0
   21.4566  -22.3240   -9.9848 C   0  0  0  0  0  0  0  0  0  0  0  0
   21.6125  -21.8250   -8.5535 C   0  0  2  0  0  0  0  0  0  0  0  0
   23.0500  -21.6916   -8.2561 N   0  0  0  0  0  0  0  0  0  0  0  0
   20.9930  -22.7235   -7.5801 C   0  0  0  0  0  0  0  0  0  0  0  0
   21.6071  -23.6441   -7.0328 O   0  0  0  0  0  0  0  0  0  0  0  0
   19.2494  -21.5737  -10.9004 C   0  0  0  0  0  0  0  0  0  0  0  0
   17.9330  -21.8364  -11.2225 C   0  0  0  0  0  0  0  0  0  0  0  0
   19.6374  -22.5957   -7.2012 O   0  0  0  0  0  0  0  0  0  0  0  0
  2  1  1  6
  2  3  1  0
  3  4  1  0
  4  5  2  0
  6  5  1  0
  7  6  1  0
  8  7  2  0
  9  8  1  0
 10  9  2  0
 10 11  1  0
 11 12  2  0
 12  7  1  0
 12  4  1  0
 13  2  1  0
 14 13  2  0
 15 16  1  0
 17 19  1  0
 17 16  1  0
 17 18  1  1
 19 20  1  6
 20 13  1  0
 21 19  1  0
 21 22  2  0
 23 24  1  0
 24 34  2  0
 24 25  1  0
 25 26  2  0
 26 27  1  0
 27 28  1  0
 29 28  1  6
 29 30  1  0
 30 21  1  0
 31 29  1  0
 32 31  2  0
 33 27  2  0
 34 33  1  0
 35 31  1  0
M  END
$$$$
