WIY.pdb
     RDKit          3D

 35 37  0  0  1  0  0  0  0  0999 V2000
   26.7926  -18.2423   -8.6096 N   0  0  0  0  0  0  0  0  0  0  0  0
   26.9809  -19.5431   -9.2877 C   0  0  1  0  0  0  0  0  0  0  0  0
   26.4675  -20.5654   -8.2879 C   0  0  0  0  0  0  0  0  0  0  0  0
   26.9562  -20.3199   -6.9176 C   0  0  0  0  0  0  0  0  0  0  0  0
   26.2831  -19.6899   -5.8632 C   0  0  0  0  0  0  0  0  0  0  0  0
   27.0646  -19.6555   -4.7733 N   0  0  0  0  0  0  0  0  0  0  0  0
   28.2496  -20.2494   -5.0740 C   0  0  0  0  0  0  0  0  0  0  0  0
   29.3565  -20.4489   -4.2753 C   0  0  0  0  0  0  0  0  0  0  0  0
   30.4504  -21.0923   -4.8316 C   0  0  0  0  0  0  0  0  0  0  0  0
   30.3925  -21.5033   -6.1437 C   0  0  0  0  0  0  0  0  0  0  0  0
   29.2737  -21.2990   -6.9431 C   0  0  0  0  0  0  0  0  0  0  0  0
   28.1902  -20.6617   -6.3935 C   0  0  0  0  0  0  0  0  0  0  0  0
   26.0485  -19.5975  -10.4433 C   0  0  0  0  0  0  0  0  0  0  0  0
   25.3792  -18.5514  -10.7817 O   0  0  0  0  0  0  0  0  0  0  0  0
   27.4774  -19.3831  -15.5652 C   0  0  0  0  0  0  0  0  0  0  0  0
   26.3217  -20.0241  -14.8344 C   0  0  0  0  0  0  0  0  0  0  0  0
   26.7033  -20.1554  -13.3858 C   0  0  2  0  0  0  0  0  0  0  0  0
   27.9154  -21.0582  -13.3163 C   0  0  0  0  0  0  0  0  0  0  0  0
   25.5831  -20.7983  -12.5720 C   0  0  2  0  0  0  0  0  0  0  0  0
   25.9011  -20.7980  -11.1665 N   0  0  0  0  0  0  0  0  0  0  0  0
   25.3532  -22.1427  -13.1367 C   0  0  0  0  0  0  0  0  0  0  0  0
   26.0188  -23.0952  -12.6707 O   0  0  0  0  0  0  0  0  0  0  0  0
   17.5777  -23.3313  -10.6083 O   0  0  0  0  0  0  0  0  0  0  0  0
   18.8153  -22.9663  -11.1429 C   0  0  0  0  0  0  0  0  0  0  0  0
   19.9281  -23.7780  -11.0327 C   0  0  0  0  0  0  0  0  0  0  0  0
   21.1283  -23.3676  -11.5802 C   0  0  0  0  0  0  0  0  0  0  0  0
   21.2167  -22.1575  -12.2321 C   0  0  0  0  0  0  0  0  0  0  0  0
   22.5119  -21.7558  -12.8099 C   0  0  0  0  0  0  0  0  0  0  0  0
   23.0613  -22.8069  -13.7665 C   0  0  2  0  0  0  0  0  0  0  0  0
   24.4234  -22.4112  -14.1678 N   0  0  0  0  0  0  0  0  0  0  0  0
   22.2274  -22.9661  -14.9572 C   0  0  0  0  0  0  0  0  0  0  0  0
   21.4762  -23.9315  -15.1246 O   0  0  0  0  0  0  0  0  0  0  0  0
   20.0872  -21.3388  -12.3409 C   0  0  0  0  0  0  0  0  0  0  0  0
   18.8845  -21.7421  -11.7963 C   0  0  0  0  0  0  0  0  0  0  0  0
   22.2294  -22.0168  -16.0042 O   0  0  0  0  0  0  0  0  0  0  0  0
  2  1  1  1
  2  3  1  0
  3  4  1  0
  4  5  2  0
  6  5  1  0
  7  6  1  0
  8  7  2  0
  9  8  1  0
 10  9  2  0
 10 11  1  0
 11 12  2  0
 12  7  1  0
 12  4  1  0
 13  2  1  0
 14 13  2  0
 15 16  1  0
 17 19  1  0
 17 16  1  0
 17 18  1  6
 19 20  1  1
 20 13  1  0
 21 19  1  0
 21 22  2  0
 23 24  1  0
 24 34  2  0
 24 25  1  0
 25 26  2  0
 26 27  1  0
 27 28  1  0
 29 28  1  1
 29 30  1  0
 30 21  1  0
 31 29  1  0
 32 31  2  0
 33 27  2  0
 34 33  1  0
 35 31  1  0
M  END
$$$$
