WIY.pdb
     RDKit          3D

 35 37  0  0  1  0  0  0  0  0999 V2000
   21.9132  -17.6164  -18.6964 N   0  0  0  0  0  0  0  0  0  0  0  0
   22.6622  -17.1862  -17.4960 C   0  0  1  0  0  0  0  0  0  0  0  0
   21.7002  -17.4309  -16.3457 C   0  0  0  0  0  0  0  0  0  0  0  0
   20.5040  -16.5697  -16.4082 C   0  0  0  0  0  0  0  0  0  0  0  0
   19.1937  -16.9384  -16.7380 C   0  0  0  0  0  0  0  0  0  0  0  0
   18.3871  -15.8675  -16.6865 N   0  0  0  0  0  0  0  0  0  0  0  0
   19.1291  -14.7863  -16.3290 C   0  0  0  0  0  0  0  0  0  0  0  0
   18.7367  -13.4764  -16.1477 C   0  0  0  0  0  0  0  0  0  0  0  0
   19.7025  -12.5554  -15.7751 C   0  0  0  0  0  0  0  0  0  0  0  0
   21.0012  -12.9767  -15.6016 C   0  0  0  0  0  0  0  0  0  0  0  0
   21.3899  -14.2985  -15.7860 C   0  0  0  0  0  0  0  0  0  0  0  0
   20.4345  -15.2111  -16.1555 C   0  0  0  0  0  0  0  0  0  0  0  0
   23.7896  -18.1329  -17.2945 C   0  0  0  0  0  0  0  0  0  0  0  0
   23.6385  -19.3823  -17.5647 O   0  0  0  0  0  0  0  0  0  0  0  0
   28.9407  -16.7749  -18.4323 C   0  0  0  0  0  0  0  0  0  0  0  0
   27.5989  -17.4461  -18.2596 C   0  0  0  0  0  0  0  0  0  0  0  0
   27.4618  -17.8464  -16.8166 C   0  0  2  0  0  0  0  0  0  0  0  0
   28.5756  -18.8232  -16.5093 C   0  0  0  0  0  0  0  0  0  0  0  0
   26.1298  -18.5460  -16.5579 C   0  0  2  0  0  0  0  0  0  0  0  0
   25.0233  -17.6571  -16.8074 N   0  0  0  0  0  0  0  0  0  0  0  0
   26.1779  -19.0752  -15.1807 C   0  0  0  0  0  0  0  0  0  0  0  0
   26.6257  -18.3279  -14.2816 O   0  0  0  0  0  0  0  0  0  0  0  0
   24.3796  -21.1395   -7.2088 O   0  0  0  0  0  0  0  0  0  0  0  0
   24.5395  -20.7767   -8.5480 C   0  0  0  0  0  0  0  0  0  0  0  0
   25.7054  -20.2017   -9.0161 C   0  0  0  0  0  0  0  0  0  0  0  0
   25.8099  -19.8620  -10.3512 C   0  0  0  0  0  0  0  0  0  0  0  0
   24.7595  -20.0945  -11.2113 C   0  0  0  0  0  0  0  0  0  0  0  0
   24.9096  -19.7255  -12.6306 C   0  0  0  0  0  0  0  0  0  0  0  0
   25.7682  -20.7268  -13.3934 C   0  0  2  0  0  0  0  0  0  0  0  0
   25.7440  -20.3730  -14.8242 N   0  0  0  0  0  0  0  0  0  0  0  0
   25.3038  -22.1029  -13.2220 C   0  0  0  0  0  0  0  0  0  0  0  0
   25.8579  -22.9076  -12.4672 O   0  0  0  0  0  0  0  0  0  0  0  0
   23.5808  -20.6768  -10.7326 C   0  0  0  0  0  0  0  0  0  0  0  0
   23.4690  -21.0189   -9.3999 C   0  0  0  0  0  0  0  0  0  0  0  0
   24.1810  -22.6055  -13.9176 O   0  0  0  0  0  0  0  0  0  0  0  0
  2  1  1  6
  2  3  1  0
  3  4  1  0
  4  5  2  0
  6  5  1  0
  7  6  1  0
  8  7  2  0
  9  8  1  0
 10  9  2  0
 10 11  1  0
 11 12  2  0
 12  7  1  0
 12  4  1  0
 13  2  1  0
 14 13  2  0
 15 16  1  0
 17 19  1  0
 17 16  1  0
 17 18  1  6
 19 20  1  1
 20 13  1  0
 21 19  1  0
 21 22  2  0
 23 24  1  0
 24 34  2  0
 24 25  1  0
 25 26  2  0
 26 27  1  0
 27 28  1  0
 29 28  1  1
 29 30  1  0
 30 21  1  0
 31 29  1  0
 32 31  2  0
 33 27  2  0
 34 33  1  0
 35 31  1  0
M  END
$$$$
