WIY.pdb
     RDKit          3D

 35 37  0  0  1  0  0  0  0  0999 V2000
   25.2668  -19.3073  -16.9537 N   0  0  0  0  0  0  0  0  0  0  0  0
   24.0085  -19.3633  -16.1785 C   0  0  1  0  0  0  0  0  0  0  0  0
   22.9247  -19.5140  -17.2326 C   0  0  0  0  0  0  0  0  0  0  0  0
   22.7050  -18.2777  -18.0070 C   0  0  0  0  0  0  0  0  0  0  0  0
   23.3784  -17.8519  -19.1589 C   0  0  0  0  0  0  0  0  0  0  0  0
   22.8920  -16.6697  -19.5662 N   0  0  0  0  0  0  0  0  0  0  0  0
   21.9053  -16.2923  -18.7110 C   0  0  0  0  0  0  0  0  0  0  0  0
   21.1197  -15.1585  -18.7264 C   0  0  0  0  0  0  0  0  0  0  0  0
   20.1707  -15.0132  -17.7272 C   0  0  0  0  0  0  0  0  0  0  0  0
   20.0487  -15.9933  -16.7689 C   0  0  0  0  0  0  0  0  0  0  0  0
   20.8438  -17.1336  -16.7593 C   0  0  0  0  0  0  0  0  0  0  0  0
   21.7840  -17.2782  -17.7478 C   0  0  0  0  0  0  0  0  0  0  0  0
   24.0034  -20.6306  -15.4028 C   0  0  0  0  0  0  0  0  0  0  0  0
   24.3709  -21.7303  -15.9617 O   0  0  0  0  0  0  0  0  0  0  0  0
   24.3619  -20.3422   -9.8240 C   0  0  0  0  0  0  0  0  0  0  0  0
   23.6416  -20.4808  -11.1440 C   0  0  0  0  0  0  0  0  0  0  0  0
   24.3023  -21.5865  -11.9201 C   0  0  2  0  0  0  0  0  0  0  0  0
   25.7249  -21.1553  -12.2019 C   0  0  0  0  0  0  0  0  0  0  0  0
   23.6026  -21.8228  -13.2562 C   0  0  2  0  0  0  0  0  0  0  0  0
   23.5953  -20.6227  -14.0540 N   0  0  0  0  0  0  0  0  0  0  0  0
   22.2584  -22.3529  -12.9542 C   0  0  0  0  0  0  0  0  0  0  0  0
   22.1673  -23.2698  -12.1066 O   0  0  0  0  0  0  0  0  0  0  0  0
   20.6017  -16.6950  -11.0001 O   0  0  0  0  0  0  0  0  0  0  0  0
   20.1349  -17.8901  -11.5521 C   0  0  0  0  0  0  0  0  0  0  0  0
   20.1020  -18.1019  -12.9172 C   0  0  0  0  0  0  0  0  0  0  0  0
   19.6301  -19.3034  -13.4095 C   0  0  0  0  0  0  0  0  0  0  0  0
   19.1950  -20.2848  -12.5466 C   0  0  0  0  0  0  0  0  0  0  0  0
   18.7048  -21.5567  -13.1077 C   0  0  0  0  0  0  0  0  0  0  0  0
   19.8193  -22.5861  -13.2487 C   0  0  2  0  0  0  0  0  0  0  0  0
   21.0740  -21.8802  -13.5653 N   0  0  0  0  0  0  0  0  0  0  0  0
   19.5371  -23.5730  -14.2904 C   0  0  0  0  0  0  0  0  0  0  0  0
   20.1928  -23.6520  -15.3335 O   0  0  0  0  0  0  0  0  0  0  0  0
   19.2301  -20.0656  -11.1651 C   0  0  0  0  0  0  0  0  0  0  0  0
   19.7002  -18.8676  -10.6657 C   0  0  0  0  0  0  0  0  0  0  0  0
   18.4840  -24.5078  -14.1695 O   0  0  0  0  0  0  0  0  0  0  0  0
  2  1  1  6
  2  3  1  0
  3  4  1  0
  4  5  2  0
  6  5  1  0
  7  6  1  0
  8  7  2  0
  9  8  1  0
 10  9  2  0
 10 11  1  0
 11 12  2  0
 12  7  1  0
 12  4  1  0
 13  2  1  0
 14 13  2  0
 15 16  1  0
 17 19  1  0
 17 16  1  0
 17 18  1  6
 19 20  1  1
 20 13  1  0
 21 19  1  0
 21 22  2  0
 23 24  1  0
 24 34  2  0
 24 25  1  0
 25 26  2  0
 26 27  1  0
 27 28  1  0
 29 28  1  6
 29 30  1  0
 30 21  1  0
 31 29  1  0
 32 31  2  0
 33 27  2  0
 34 33  1  0
 35 31  1  0
M  END
$$$$
