WIY.pdb
     RDKit          3D

 35 37  0  0  1  0  0  0  0  0999 V2000
   28.2070  -20.9611   -9.2876 N   0  0  0  0  0  0  0  0  0  0  0  0
   26.8355  -21.4899   -9.4508 C   0  0  1  0  0  0  0  0  0  0  0  0
   26.0892  -20.9810   -8.2291 C   0  0  0  0  0  0  0  0  0  0  0  0
   26.8733  -20.0080   -7.4448 C   0  0  0  0  0  0  0  0  0  0  0  0
   26.9754  -18.6252   -7.6425 C   0  0  0  0  0  0  0  0  0  0  0  0
   27.7896  -18.0873   -6.7217 N   0  0  0  0  0  0  0  0  0  0  0  0
   28.2369  -19.0809   -5.9093 C   0  0  0  0  0  0  0  0  0  0  0  0
   29.0886  -19.0096   -4.8265 C   0  0  0  0  0  0  0  0  0  0  0  0
   29.3875  -20.1858   -4.1577 C   0  0  0  0  0  0  0  0  0  0  0  0
   28.8303  -21.3665   -4.5931 C   0  0  0  0  0  0  0  0  0  0  0  0
   27.9726  -21.4311   -5.6851 C   0  0  0  0  0  0  0  0  0  0  0  0
   27.6764  -20.2673   -6.3484 C   0  0  0  0  0  0  0  0  0  0  0  0
   26.2178  -20.8109  -10.6193 C   0  0  0  0  0  0  0  0  0  0  0  0
   26.3149  -19.5340  -10.7486 O   0  0  0  0  0  0  0  0  0  0  0  0
   26.5564  -23.1872  -15.3834 C   0  0  0  0  0  0  0  0  0  0  0  0
   25.7509  -22.8653  -14.1472 C   0  0  0  0  0  0  0  0  0  0  0  0
   25.6777  -21.3690  -14.0168 C   0  0  2  0  0  0  0  0  0  0  0  0
   27.0966  -20.8520  -13.9243 C   0  0  0  0  0  0  0  0  0  0  0  0
   24.9368  -20.9572  -12.7471 C   0  0  2  0  0  0  0  0  0  0  0  0
   25.5264  -21.5707  -11.5840 N   0  0  0  0  0  0  0  0  0  0  0  0
   23.5132  -21.2920  -12.9476 C   0  0  0  0  0  0  0  0  0  0  0  0
   23.1315  -22.4412  -12.6298 O   0  0  0  0  0  0  0  0  0  0  0  0
   19.8843  -23.5582   -8.1538 O   0  0  0  0  0  0  0  0  0  0  0  0
   19.9540  -22.7854   -9.3152 C   0  0  0  0  0  0  0  0  0  0  0  0
   19.3267  -23.1660  -10.4860 C   0  0  0  0  0  0  0  0  0  0  0  0
   19.4285  -22.3636  -11.6060 C   0  0  0  0  0  0  0  0  0  0  0  0
   20.1503  -21.1914  -11.5574 C   0  0  0  0  0  0  0  0  0  0  0  0
   20.2312  -20.3572  -12.7700 C   0  0  0  0  0  0  0  0  0  0  0  0
   21.2217  -20.9170  -13.7835 C   0  0  2  0  0  0  0  0  0  0  0  0
   22.5618  -20.3873  -13.4732 N   0  0  0  0  0  0  0  0  0  0  0  0
   20.8657  -20.5715  -15.1592 C   0  0  0  0  0  0  0  0  0  0  0  0
   21.5389  -19.8031  -15.8524 O   0  0  0  0  0  0  0  0  0  0  0  0
   20.7841  -20.8104  -10.3696 C   0  0  0  0  0  0  0  0  0  0  0  0
   20.6869  -21.6071   -9.2464 C   0  0  0  0  0  0  0  0  0  0  0  0
   19.7157  -21.0988  -15.7892 O   0  0  0  0  0  0  0  0  0  0  0  0
  2  1  1  1
  2  3  1  0
  3  4  1  0
  4  5  2  0
  6  5  1  0
  7  6  1  0
  8  7  2  0
  9  8  1  0
 10  9  2  0
 10 11  1  0
 11 12  2  0
 12  7  1  0
 12  4  1  0
 13  2  1  0
 14 13  2  0
 15 16  1  0
 17 19  1  0
 17 16  1  0
 17 18  1  1
 19 20  1  1
 20 13  1  0
 21 19  1  0
 21 22  2  0
 23 24  1  0
 24 34  2  0
 24 25  1  0
 25 26  2  0
 26 27  1  0
 27 28  1  0
 29 28  1  1
 29 30  1  0
 30 21  1  0
 31 29  1  0
 32 31  2  0
 33 27  2  0
 34 33  1  0
 35 31  1  0
M  END
$$$$
