WIY.pdb
     RDKit          3D

 35 37  0  0  1  0  0  0  0  0999 V2000
   24.1977  -19.5614  -18.3876 N   0  0  0  0  0  0  0  0  0  0  0  0
   24.6282  -18.7455  -17.2317 C   0  0  1  0  0  0  0  0  0  0  0  0
   23.3456  -18.1101  -16.7222 C   0  0  0  0  0  0  0  0  0  0  0  0
   22.8879  -16.9904  -17.5669 C   0  0  0  0  0  0  0  0  0  0  0  0
   21.5767  -16.6794  -17.9485 C   0  0  0  0  0  0  0  0  0  0  0  0
   21.5701  -15.5849  -18.7243 N   0  0  0  0  0  0  0  0  0  0  0  0
   22.8507  -15.1540  -18.8720 C   0  0  0  0  0  0  0  0  0  0  0  0
   23.3343  -14.0715  -19.5771 C   0  0  0  0  0  0  0  0  0  0  0  0
   24.7017  -13.8475  -19.5646 C   0  0  0  0  0  0  0  0  0  0  0  0
   25.5161  -14.7027  -18.8579 C   0  0  0  0  0  0  0  0  0  0  0  0
   25.0220  -15.7919  -18.1494 C   0  0  0  0  0  0  0  0  0  0  0  0
   23.6684  -16.0149  -18.1615 C   0  0  0  0  0  0  0  0  0  0  0  0
   25.0800  -19.6702  -16.1599 C   0  0  0  0  0  0  0  0  0  0  0  0
   24.5213  -20.8218  -16.0240 O   0  0  0  0  0  0  0  0  0  0  0  0
   29.9709  -20.5583  -12.5900 C   0  0  0  0  0  0  0  0  0  0  0  0
   28.4849  -20.7693  -12.7567 C   0  0  0  0  0  0  0  0  0  0  0  0
   27.9991  -19.8301  -13.8258 C   0  0  2  0  0  0  0  0  0  0  0  0
   28.0712  -18.4272  -13.2638 C   0  0  0  0  0  0  0  0  0  0  0  0
   26.5480  -20.1187  -14.2019 C   0  0  2  0  0  0  0  0  0  0  0  0
   26.1219  -19.2812  -15.2945 N   0  0  0  0  0  0  0  0  0  0  0  0
   25.7425  -19.9629  -12.9747 C   0  0  0  0  0  0  0  0  0  0  0  0
   24.8372  -19.0982  -12.9744 O   0  0  0  0  0  0  0  0  0  0  0  0
   19.7873  -20.8694   -7.0434 O   0  0  0  0  0  0  0  0  0  0  0  0
   20.7456  -20.9066   -8.0589 C   0  0  0  0  0  0  0  0  0  0  0  0
   21.7775  -21.8255   -8.0579 C   0  0  0  0  0  0  0  0  0  0  0  0
   22.6984  -21.8176   -9.0877 C   0  0  0  0  0  0  0  0  0  0  0  0
   22.5899  -20.9004  -10.1096 C   0  0  0  0  0  0  0  0  0  0  0  0
   23.5867  -20.9264  -11.1952 C   0  0  0  0  0  0  0  0  0  0  0  0
   24.9780  -20.5479  -10.7024 C   0  0  2  0  0  0  0  0  0  0  0  0
   25.9355  -20.7368  -11.8070 N   0  0  0  0  0  0  0  0  0  0  0  0
   25.3967  -21.3456   -9.5504 C   0  0  0  0  0  0  0  0  0  0  0  0
   25.8615  -22.4843   -9.6575 O   0  0  0  0  0  0  0  0  0  0  0  0
   21.5434  -19.9717  -10.1060 C   0  0  0  0  0  0  0  0  0  0  0  0
   20.6194  -19.9734   -9.0804 C   0  0  0  0  0  0  0  0  0  0  0  0
   25.2932  -20.8601   -8.2271 O   0  0  0  0  0  0  0  0  0  0  0  0
  2  1  1  6
  2  3  1  0
  3  4  1  0
  4  5  2  0
  6  5  1  0
  7  6  1  0
  8  7  2  0
  9  8  1  0
 10  9  2  0
 10 11  1  0
 11 12  2  0
 12  7  1  0
 12  4  1  0
 13  2  1  0
 14 13  2  0
 15 16  1  0
 17 19  1  0
 17 16  1  0
 17 18  1  1
 19 20  1  6
 20 13  1  0
 21 19  1  0
 21 22  2  0
 23 24  1  0
 24 34  2  0
 24 25  1  0
 25 26  2  0
 26 27  1  0
 27 28  1  0
 29 28  1  6
 29 30  1  0
 30 21  1  0
 31 29  1  0
 32 31  2  0
 33 27  2  0
 34 33  1  0
 35 31  1  0
M  END
$$$$
