SGF.pdb
     RDKit          3D

 22 22  0  0  1  0  0  0  0  0999 V2000
    7.4342  -13.8761   17.7964 O   0  0  0  0  0  0  0  0  0  0  0  0
    7.7298  -12.7888   18.5777 C   0  0  0  0  0  0  0  0  0  0  0  0
    8.6625  -13.1028   19.7166 C   0  0  2  0  0  0  0  0  0  0  0  0
    9.8875  -13.7107   19.2907 N   0  0  0  0  0  0  0  0  0  0  0  0
    8.0357  -13.9085   20.7736 C   0  0  0  0  0  0  0  0  0  0  0  0
    6.9840  -13.5540   21.3820 O   0  0  0  0  0  0  0  0  0  0  0  0
    8.6432  -15.1437   21.1257 N   0  0  0  0  0  0  0  0  0  0  0  0
    7.9801  -16.0943   21.9753 C   0  0  0  0  0  0  0  0  0  0  0  0
    8.6266  -16.0146   23.3237 C   0  0  0  0  0  0  0  0  0  0  0  0
    9.8481  -15.7483   23.4731 O   0  0  0  0  0  0  0  0  0  0  0  0
    7.8497  -16.2441   24.4725 N   0  0  0  0  0  0  0  0  0  0  0  0
    8.4381  -16.2086   25.8151 C   0  0  1  0  0  0  0  0  0  0  0  0
    7.3704  -15.7308   26.7395 C   0  0  0  0  0  0  0  0  0  0  0  0
    7.1855  -14.2757   26.5956 C   0  0  0  0  0  0  0  0  0  0  0  0
    5.9836  -13.6956   26.2202 C   0  0  0  0  0  0  0  0  0  0  0  0
    5.8329  -12.3293   26.0965 C   0  0  0  0  0  0  0  0  0  0  0  0
    6.9105  -11.5138   26.3538 C   0  0  0  0  0  0  0  0  0  0  0  0
    8.1172  -12.0580   26.7282 C   0  0  0  0  0  0  0  0  0  0  0  0
    8.2498  -13.4245   26.8469 C   0  0  0  0  0  0  0  0  0  0  0  0
    9.0058  -17.5153   26.1801 C   0  0  0  0  0  0  0  0  0  0  0  0
    9.9600  -17.5857   27.2143 O   0  0  0  0  0  0  0  0  0  0  0  0
    8.7143  -18.5971   25.6456 O   0  0  0  0  0  0  0  0  0  0  0  0
  1  2  1  0
  2  3  1  0
  3  5  1  0
  3  4  1  6
  5  7  1  0
  6  5  2  0
  7  8  1  0
  8  9  1  0
  9 11  1  0
  9 10  2  0
 11 12  1  0
 12 13  1  1
 13 14  1  0
 14 19  2  0
 15 16  2  0
 15 14  1  0
 16 17  1  0
 17 18  2  0
 19 18  1  0
 20 12  1  0
 20 21  1  0
 22 20  2  0
M  END
$$$$
