SGF.pdb
     RDKit          3D

 22 22  0  0  1  0  0  0  0  0999 V2000
    9.7013  -12.4194   18.0908 O   0  0  0  0  0  0  0  0  0  0  0  0
    8.9582  -12.7432   19.1967 C   0  0  0  0  0  0  0  0  0  0  0  0
    8.2597  -14.0716   19.0836 C   0  0  2  0  0  0  0  0  0  0  0  0
    7.2889  -14.1102   18.0312 N   0  0  0  0  0  0  0  0  0  0  0  0
    7.6578  -14.5192   20.3472 C   0  0  0  0  0  0  0  0  0  0  0  0
    6.6067  -14.0076   20.8323 O   0  0  0  0  0  0  0  0  0  0  0  0
    8.2898  -15.5773   21.0543 N   0  0  0  0  0  0  0  0  0  0  0  0
    7.6673  -16.2030   22.1883 C   0  0  0  0  0  0  0  0  0  0  0  0
    8.4899  -15.8631   23.3927 C   0  0  0  0  0  0  0  0  0  0  0  0
    9.6436  -15.3666   23.3051 O   0  0  0  0  0  0  0  0  0  0  0  0
    7.9637  -16.1034   24.6738 N   0  0  0  0  0  0  0  0  0  0  0  0
    8.7385  -15.8198   25.8859 C   0  0  1  0  0  0  0  0  0  0  0  0
    7.7604  -15.4165   26.9364 C   0  0  0  0  0  0  0  0  0  0  0  0
    7.2712  -14.0502   26.6795 C   0  0  0  0  0  0  0  0  0  0  0  0
    8.0482  -12.9172   26.8649 C   0  0  0  0  0  0  0  0  0  0  0  0
    7.5696  -11.6474   26.6130 C   0  0  0  0  0  0  0  0  0  0  0  0
    6.2781  -11.4990   26.1629 C   0  0  0  0  0  0  0  0  0  0  0  0
    5.4810  -12.6032   25.9689 C   0  0  0  0  0  0  0  0  0  0  0  0
    5.9753  -13.8637   26.2253 C   0  0  0  0  0  0  0  0  0  0  0  0
    9.5790  -16.9677   26.2589 C   0  0  0  0  0  0  0  0  0  0  0  0
   10.6451  -16.7754   27.1595 O   0  0  0  0  0  0  0  0  0  0  0  0
    9.4330  -18.1276   25.8414 O   0  0  0  0  0  0  0  0  0  0  0  0
  1  2  1  0
  2  3  1  0
  3  5  1  0
  3  4  1  6
  5  7  1  0
  6  5  2  0
  7  8  1  0
  8  9  1  0
  9 11  1  0
  9 10  2  0
 11 12  1  0
 12 13  1  1
 13 14  1  0
 14 19  2  0
 15 16  2  0
 15 14  1  0
 16 17  1  0
 17 18  2  0
 19 18  1  0
 20 12  1  0
 20 21  1  0
 22 20  2  0
M  END
$$$$
