SGF.pdb
     RDKit          3D

 22 22  0  0  1  0  0  0  0  0999 V2000
    3.1527  -17.9738   20.6955 O   0  0  0  0  0  0  0  0  0  0  0  0
    4.1672  -18.8905   20.7983 C   0  0  0  0  0  0  0  0  0  0  0  0
    5.1762  -18.5534   21.8630 C   0  0  2  0  0  0  0  0  0  0  0  0
    4.5791  -18.2409   23.1268 N   0  0  0  0  0  0  0  0  0  0  0  0
    6.1068  -17.4887   21.4632 C   0  0  0  0  0  0  0  0  0  0  0  0
    7.0387  -17.6630   20.6248 O   0  0  0  0  0  0  0  0  0  0  0  0
    5.9485  -16.2038   22.0488 N   0  0  0  0  0  0  0  0  0  0  0  0
    6.7438  -15.0822   21.6310 C   0  0  0  0  0  0  0  0  0  0  0  0
    7.8525  -14.9262   22.6255 C   0  0  0  0  0  0  0  0  0  0  0  0
    8.8811  -14.2398   22.3892 O   0  0  0  0  0  0  0  0  0  0  0  0
    7.7510  -15.5661   23.8730 N   0  0  0  0  0  0  0  0  0  0  0  0
    8.7880  -15.4146   24.8985 C   0  0  1  0  0  0  0  0  0  0  0  0
    8.0830  -15.2664   26.2038 C   0  0  0  0  0  0  0  0  0  0  0  0
    7.4698  -13.9298   26.3028 C   0  0  0  0  0  0  0  0  0  0  0  0
    8.1992  -12.7743   26.5370 C   0  0  0  0  0  0  0  0  0  0  0  0
    7.6033  -11.5323   26.6211 C   0  0  0  0  0  0  0  0  0  0  0  0
    6.2396  -11.4355   26.4678 C   0  0  0  0  0  0  0  0  0  0  0  0
    5.4871  -12.5632   26.2345 C   0  0  0  0  0  0  0  0  0  0  0  0
    6.0987  -13.7954   26.1534 C   0  0  0  0  0  0  0  0  0  0  0  0
    9.7426  -16.5327   24.8568 C   0  0  0  0  0  0  0  0  0  0  0  0
    9.5470  -17.5692   23.9228 O   0  0  0  0  0  0  0  0  0  0  0  0
   10.7366  -16.6533   25.5905 O   0  0  0  0  0  0  0  0  0  0  0  0
  1  2  1  0
  2  3  1  0
  3  5  1  0
  3  4  1  1
  5  7  1  0
  6  5  2  0
  7  8  1  0
  8  9  1  0
  9 11  1  0
  9 10  2  0
 11 12  1  0
 12 13  1  1
 13 14  1  0
 14 19  2  0
 15 16  2  0
 15 14  1  0
 16 17  1  0
 17 18  2  0
 19 18  1  0
 20 12  1  0
 20 21  1  0
 22 20  2  0
M  END
$$$$
