SGF.pdb
     RDKit          3D

 22 22  0  0  1  0  0  0  0  0999 V2000
    6.8407  -13.7573   17.4109 O   0  0  0  0  0  0  0  0  0  0  0  0
    7.0747  -12.8717   18.4311 C   0  0  0  0  0  0  0  0  0  0  0  0
    8.3258  -13.1716   19.2122 C   0  0  2  0  0  0  0  0  0  0  0  0
    9.5042  -13.2037   18.3986 N   0  0  0  0  0  0  0  0  0  0  0  0
    8.2281  -14.3991   20.0141 C   0  0  0  0  0  0  0  0  0  0  0  0
    8.7619  -15.4941   19.6708 O   0  0  0  0  0  0  0  0  0  0  0  0
    7.4984  -14.3490   21.2323 N   0  0  0  0  0  0  0  0  0  0  0  0
    7.2743  -15.5263   22.0253 C   0  0  0  0  0  0  0  0  0  0  0  0
    8.2002  -15.4556   23.2002 C   0  0  0  0  0  0  0  0  0  0  0  0
    9.3403  -14.9258   23.1316 O   0  0  0  0  0  0  0  0  0  0  0  0
    7.7909  -15.9981   24.4306 N   0  0  0  0  0  0  0  0  0  0  0  0
    8.6400  -15.9186   25.6235 C   0  0  1  0  0  0  0  0  0  0  0  0
    7.7642  -15.4749   26.7455 C   0  0  0  0  0  0  0  0  0  0  0  0
    7.3767  -14.0648   26.5623 C   0  0  0  0  0  0  0  0  0  0  0  0
    8.2454  -13.0046   26.7705 C   0  0  0  0  0  0  0  0  0  0  0  0
    7.8611  -11.6916   26.5880 C   0  0  0  0  0  0  0  0  0  0  0  0
    6.5730  -11.4238   26.1861 C   0  0  0  0  0  0  0  0  0  0  0  0
    5.6863  -12.4534   25.9710 C   0  0  0  0  0  0  0  0  0  0  0  0
    6.0871  -13.7585   26.1581 C   0  0  0  0  0  0  0  0  0  0  0  0
    9.3291  -17.1944   25.8699 C   0  0  0  0  0  0  0  0  0  0  0  0
    8.9626  -18.3297   25.1205 O   0  0  0  0  0  0  0  0  0  0  0  0
   10.2325  -17.3710   26.7027 O   0  0  0  0  0  0  0  0  0  0  0  0
  1  2  1  0
  2  3  1  0
  3  5  1  0
  3  4  1  6
  5  7  1  0
  6  5  2  0
  7  8  1  0
  8  9  1  0
  9 11  1  0
  9 10  2  0
 11 12  1  0
 12 13  1  1
 13 14  1  0
 14 19  2  0
 15 16  2  0
 15 14  1  0
 16 17  1  0
 17 18  2  0
 19 18  1  0
 20 12  1  0
 20 21  1  0
 22 20  2  0
M  END
$$$$
