SGF.pdb
     RDKit          3D

 22 22  0  0  1  0  0  0  0  0999 V2000
    9.6777  -13.0969   17.4041 O   0  0  0  0  0  0  0  0  0  0  0  0
    9.5111  -13.9186   18.4889 C   0  0  0  0  0  0  0  0  0  0  0  0
    8.0691  -14.2140   18.8033 C   0  0  2  0  0  0  0  0  0  0  0  0
    7.2977  -13.0370   19.0696 N   0  0  0  0  0  0  0  0  0  0  0  0
    7.9008  -15.1888   19.8899 C   0  0  0  0  0  0  0  0  0  0  0  0
    8.4112  -16.3467   19.8659 O   0  0  0  0  0  0  0  0  0  0  0  0
    7.1271  -14.8084   21.0194 N   0  0  0  0  0  0  0  0  0  0  0  0
    6.8875  -15.7149   22.1084 C   0  0  0  0  0  0  0  0  0  0  0  0
    7.9316  -15.4486   23.1484 C   0  0  0  0  0  0  0  0  0  0  0  0
    9.0249  -14.8848   22.8800 O   0  0  0  0  0  0  0  0  0  0  0  0
    7.6921  -15.8387   24.4775 N   0  0  0  0  0  0  0  0  0  0  0  0
    8.7053  -15.6610   25.5225 C   0  0  1  0  0  0  0  0  0  0  0  0
    7.9816  -15.2347   26.7544 C   0  0  0  0  0  0  0  0  0  0  0  0
    7.4627  -13.8648   26.5920 C   0  0  0  0  0  0  0  0  0  0  0  0
    8.2660  -12.7362   26.6470 C   0  0  0  0  0  0  0  0  0  0  0  0
    7.7580  -11.4629   26.4873 C   0  0  0  0  0  0  0  0  0  0  0  0
    6.4092  -11.3062   26.2662 C   0  0  0  0  0  0  0  0  0  0  0  0
    5.5848  -12.4059   26.2063 C   0  0  0  0  0  0  0  0  0  0  0  0
    6.1092  -13.6700   26.3679 C   0  0  0  0  0  0  0  0  0  0  0  0
    9.5111  -16.8796   25.6926 C   0  0  0  0  0  0  0  0  0  0  0  0
    9.1790  -18.0321   24.9536 O   0  0  0  0  0  0  0  0  0  0  0  0
   10.4878  -16.9921   26.4504 O   0  0  0  0  0  0  0  0  0  0  0  0
  1  2  1  0
  2  3  1  0
  3  5  1  0
  3  4  1  1
  5  7  1  0
  6  5  2  0
  7  8  1  0
  8  9  1  0
  9 11  1  0
  9 10  2  0
 11 12  1  0
 12 13  1  1
 13 14  1  0
 14 19  2  0
 15 16  2  0
 15 14  1  0
 16 17  1  0
 17 18  2  0
 19 18  1  0
 20 12  1  0
 20 21  1  0
 22 20  2  0
M  END
$$$$
