SGF.pdb
     RDKit          3D

 22 22  0  0  1  0  0  0  0  0999 V2000
    8.1612  -12.0299   18.5341 O   0  0  0  0  0  0  0  0  0  0  0  0
    9.1692  -12.9223   18.7937 C   0  0  0  0  0  0  0  0  0  0  0  0
    8.7511  -14.3608   18.6469 C   0  0  2  0  0  0  0  0  0  0  0  0
    8.0687  -14.6265   17.4160 N   0  0  0  0  0  0  0  0  0  0  0  0
    7.9603  -14.8533   19.7832 C   0  0  0  0  0  0  0  0  0  0  0  0
    6.6949  -14.8768   19.7871 O   0  0  0  0  0  0  0  0  0  0  0  0
    8.6542  -15.3246   20.9301 N   0  0  0  0  0  0  0  0  0  0  0  0
    7.9599  -15.9170   22.0402 C   0  0  0  0  0  0  0  0  0  0  0  0
    8.7808  -15.6630   23.2666 C   0  0  0  0  0  0  0  0  0  0  0  0
    9.9468  -15.1908   23.2138 O   0  0  0  0  0  0  0  0  0  0  0  0
    8.2388  -15.9593   24.5292 N   0  0  0  0  0  0  0  0  0  0  0  0
    9.0030  -15.7409   25.7615 C   0  0  1  0  0  0  0  0  0  0  0  0
    8.0146  -15.4052   26.8261 C   0  0  0  0  0  0  0  0  0  0  0  0
    7.4509  -14.0636   26.5932 C   0  0  0  0  0  0  0  0  0  0  0  0
    8.2178  -12.9087   26.5790 C   0  0  0  0  0  0  0  0  0  0  0  0
    7.6681  -11.6629   26.3540 C   0  0  0  0  0  0  0  0  0  0  0  0
    6.3135  -11.5616   26.1363 C   0  0  0  0  0  0  0  0  0  0  0  0
    5.5244  -12.6884   26.1441 C   0  0  0  0  0  0  0  0  0  0  0  0
    6.0902  -13.9244   26.3704 C   0  0  0  0  0  0  0  0  0  0  0  0
    9.8487  -16.9029   26.0741 C   0  0  0  0  0  0  0  0  0  0  0  0
    9.7312  -18.0690   25.2922 O   0  0  0  0  0  0  0  0  0  0  0  0
   10.6833  -16.9550   26.9915 O   0  0  0  0  0  0  0  0  0  0  0  0
  1  2  1  0
  2  3  1  0
  3  5  1  0
  3  4  1  6
  5  7  1  0
  6  5  2  0
  7  8  1  0
  8  9  1  0
  9 11  1  0
  9 10  2  0
 11 12  1  0
 12 13  1  1
 13 14  1  0
 14 19  2  0
 15 16  2  0
 15 14  1  0
 16 17  1  0
 17 18  2  0
 19 18  1  0
 20 12  1  0
 20 21  1  0
 22 20  2  0
M  END
$$$$
