SGF.pdb
     RDKit          3D

 22 22  0  0  1  0  0  0  0  0999 V2000
    7.8298  -15.6454   16.5369 O   0  0  0  0  0  0  0  0  0  0  0  0
    8.0185  -14.3694   17.0019 C   0  0  0  0  0  0  0  0  0  0  0  0
    8.8657  -14.3017   18.2442 C   0  0  2  0  0  0  0  0  0  0  0  0
    9.9308  -15.2592   18.2530 N   0  0  0  0  0  0  0  0  0  0  0  0
    8.0840  -14.3993   19.4847 C   0  0  0  0  0  0  0  0  0  0  0  0
    7.1100  -13.6362   19.7505 O   0  0  0  0  0  0  0  0  0  0  0  0
    8.4429  -15.4000   20.4274 N   0  0  0  0  0  0  0  0  0  0  0  0
    7.6165  -15.6937   21.5658 C   0  0  0  0  0  0  0  0  0  0  0  0
    8.4889  -15.6215   22.7808 C   0  0  0  0  0  0  0  0  0  0  0  0
    9.7355  -15.4596   22.7094 O   0  0  0  0  0  0  0  0  0  0  0  0
    7.9044  -15.7377   24.0539 N   0  0  0  0  0  0  0  0  0  0  0  0
    8.6973  -15.5855   25.2779 C   0  0  1  0  0  0  0  0  0  0  0  0
    7.7353  -15.2975   26.3799 C   0  0  0  0  0  0  0  0  0  0  0  0
    7.2425  -13.9123   26.2771 C   0  0  0  0  0  0  0  0  0  0  0  0
    5.9103  -13.5653   26.4408 C   0  0  0  0  0  0  0  0  0  0  0  0
    5.4727  -12.2599   26.3445 C   0  0  0  0  0  0  0  0  0  0  0  0
    6.3879  -11.2681   26.0770 C   0  0  0  0  0  0  0  0  0  0  0  0
    7.7173  -11.5793   25.9091 C   0  0  0  0  0  0  0  0  0  0  0  0
    8.1367  -12.8882   26.0087 C   0  0  0  0  0  0  0  0  0  0  0  0
    9.5416  -16.7666   25.5131 C   0  0  0  0  0  0  0  0  0  0  0  0
   10.6889  -16.6416   26.3211 O   0  0  0  0  0  0  0  0  0  0  0  0
    9.3321  -17.8999   25.0520 O   0  0  0  0  0  0  0  0  0  0  0  0
  1  2  1  0
  2  3  1  0
  3  5  1  0
  3  4  1  6
  5  7  1  0
  6  5  2  0
  7  8  1  0
  8  9  1  0
  9 11  1  0
  9 10  2  0
 11 12  1  0
 12 13  1  1
 13 14  1  0
 14 19  2  0
 15 16  2  0
 15 14  1  0
 16 17  1  0
 17 18  2  0
 19 18  1  0
 20 12  1  0
 20 21  1  0
 22 20  2  0
M  END
$$$$
