GMR.pdb
     RDKit          3D

 24 23  0  0  1  0  0  0  0  0999 V2000
    8.5148  -14.4727   19.2884 N   0  0  0  0  0  0  0  0  0  0  0  0
    7.6871  -15.0383   20.3309 C   0  0  0  0  0  0  0  0  0  0  0  0
    8.1799  -14.6901   21.6831 C   0  0  0  0  0  0  0  0  0  0  0  0
    9.3335  -14.1961   21.7640 O   0  0  0  0  0  0  0  0  0  0  0  0
    6.4992  -12.2534   27.4738 C   0  0  0  0  0  0  0  0  0  0  0  0
    5.8391  -11.6770   25.9039 S   0  0  0  0  0  0  0  0  0  0  0  0
    6.7028  -12.5410   24.5394 C   0  0  0  0  0  0  0  0  0  0  0  0
    7.0026  -13.9236   25.0148 C   0  0  0  0  0  0  0  0  0  0  0  0
    7.9976  -14.6809   24.1963 C   0  0  2  0  0  0  0  0  0  0  0  0
    7.4448  -14.8767   22.8696 N   0  0  0  0  0  0  0  0  0  0  0  0
    8.4186  -15.9690   24.7664 C   0  0  0  0  0  0  0  0  0  0  0  0
    7.7732  -17.0378   24.6199 O   0  0  0  0  0  0  0  0  0  0  0  0
   13.4325  -19.5944   29.3492 N   0  0  0  0  0  0  0  0  0  0  0  0
   13.1014  -18.7208   30.3969 C   0  0  0  0  0  0  0  0  0  0  0  0
   13.1146  -19.0946   31.6530 N   0  0  0  0  0  0  0  0  0  0  0  0
   12.7389  -17.3864   30.1251 N   0  0  0  0  0  0  0  0  0  0  0  0
   11.3374  -16.9787   30.0564 C   0  0  0  0  0  0  0  0  0  0  0  0
   10.6816  -17.5323   28.8112 C   0  0  0  0  0  0  0  0  0  0  0  0
   10.5373  -16.4649   27.7533 C   0  0  0  0  0  0  0  0  0  0  0  0
    9.8755  -17.0414   26.4983 C   0  0  2  0  0  0  0  0  0  0  0  0
    9.6169  -16.0321   25.5281 N   0  0  0  0  0  0  0  0  0  0  0  0
    8.6791  -17.8289   26.8806 C   0  0  0  0  0  0  0  0  0  0  0  0
    8.8088  -19.0790   26.9531 O   0  0  0  0  0  0  0  0  0  0  0  0
    7.4431  -17.2978   27.1609 O   0  0  0  0  0  0  0  0  0  0  0  0
  2  1  1  0
  3  2  1  0
  3  4  2  0
  6  5  1  0
  7  8  1  0
  7  6  1  0
  9  8  1  1
  9 10  1  0
 10  3  1  0
 11  9  1  0
 12 11  2  0
 14 13  1  0
 14 15  2  0
 16 14  1  0
 17 16  1  0
 18 17  1  0
 19 18  1  0
 20 21  1  0
 20 19  1  1
 21 11  1  0
 22 20  1  0
 23 22  2  0
 24 22  1  0
M  END
$$$$
