GMR.pdb
     RDKit          3D

 24 23  0  0  1  0  0  0  0  0999 V2000
    6.3913  -20.4775   19.8526 N   0  0  0  0  0  0  0  0  0  0  0  0
    6.1763  -19.4479   20.8454 C   0  0  0  0  0  0  0  0  0  0  0  0
    7.2189  -18.3978   20.7927 C   0  0  0  0  0  0  0  0  0  0  0  0
    8.3369  -18.7222   20.3173 O   0  0  0  0  0  0  0  0  0  0  0  0
    6.9045  -11.9320   19.0928 C   0  0  0  0  0  0  0  0  0  0  0  0
    7.4532  -12.0690   20.7994 S   0  0  0  0  0  0  0  0  0  0  0  0
    8.4425  -13.5989   20.9877 C   0  0  0  0  0  0  0  0  0  0  0  0
    7.4796  -14.7287   21.1418 C   0  0  0  0  0  0  0  0  0  0  0  0
    8.0967  -16.0840   21.2673 C   0  0  2  0  0  0  0  0  0  0  0  0
    7.0371  -17.0740   21.2375 N   0  0  0  0  0  0  0  0  0  0  0  0
    8.9376  -16.2754   22.4580 C   0  0  0  0  0  0  0  0  0  0  0  0
    8.4935  -16.6691   23.5662 O   0  0  0  0  0  0  0  0  0  0  0  0
   13.1488  -22.0945   23.5369 N   0  0  0  0  0  0  0  0  0  0  0  0
   13.5941  -21.6020   24.7736 C   0  0  0  0  0  0  0  0  0  0  0  0
   14.4529  -22.2527   25.5199 N   0  0  0  0  0  0  0  0  0  0  0  0
   13.1234  -20.3663   25.2605 N   0  0  0  0  0  0  0  0  0  0  0  0
   11.9948  -19.6824   24.6329 C   0  0  0  0  0  0  0  0  0  0  0  0
   12.4407  -18.9519   23.3861 C   0  0  0  0  0  0  0  0  0  0  0  0
   11.2845  -18.2301   22.7370 C   0  0  0  0  0  0  0  0  0  0  0  0
   11.3145  -16.7412   23.0945 C   0  0  2  0  0  0  0  0  0  0  0  0
   10.3307  -16.0064   22.3742 N   0  0  0  0  0  0  0  0  0  0  0  0
   12.6921  -16.2167   22.9368 C   0  0  0  0  0  0  0  0  0  0  0  0
   13.4466  -16.2616   23.9436 O   0  0  0  0  0  0  0  0  0  0  0  0
   13.2053  -15.6870   21.7773 O   0  0  0  0  0  0  0  0  0  0  0  0
  2  1  1  0
  3  2  1  0
  3  4  2  0
  6  5  1  0
  7  8  1  0
  7  6  1  0
  9  8  1  1
  9 10  1  0
 10  3  1  0
 11  9  1  0
 12 11  2  0
 14 13  1  0
 14 15  2  0
 16 14  1  0
 17 16  1  0
 18 17  1  0
 19 18  1  0
 20 21  1  0
 20 19  1  6
 21 11  1  0
 22 20  1  0
 23 22  2  0
 24 22  1  0
M  END
$$$$
