GMR.pdb
     RDKit          3D

 24 23  0  0  1  0  0  0  0  0999 V2000
    6.5634  -18.3479   20.9884 N   0  0  0  0  0  0  0  0  0  0  0  0
    6.3657  -17.8569   22.3345 C   0  0  0  0  0  0  0  0  0  0  0  0
    7.1301  -16.6151   22.5916 C   0  0  0  0  0  0  0  0  0  0  0  0
    7.9719  -16.2691   21.7239 O   0  0  0  0  0  0  0  0  0  0  0  0
    7.1492  -12.6360   28.0098 C   0  0  0  0  0  0  0  0  0  0  0  0
    6.7171  -11.6556   26.5660 S   0  0  0  0  0  0  0  0  0  0  0  0
    7.5594  -12.3529   25.0966 C   0  0  0  0  0  0  0  0  0  0  0  0
    6.9373  -13.6816   24.8229 C   0  0  0  0  0  0  0  0  0  0  0  0
    7.7551  -14.6118   23.9865 C   0  0  2  0  0  0  0  0  0  0  0  0
    6.9740  -15.8078   23.7349 N   0  0  0  0  0  0  0  0  0  0  0  0
    9.0633  -14.9694   24.5540 C   0  0  0  0  0  0  0  0  0  0  0  0
    9.9635  -14.1295   24.8081 O   0  0  0  0  0  0  0  0  0  0  0  0
    9.5099  -19.4889   30.0306 N   0  0  0  0  0  0  0  0  0  0  0  0
   10.7336  -20.1572   29.8672 C   0  0  0  0  0  0  0  0  0  0  0  0
   11.3545  -20.7379   30.8646 N   0  0  0  0  0  0  0  0  0  0  0  0
   11.3440  -20.2273   28.5991 N   0  0  0  0  0  0  0  0  0  0  0  0
   11.7731  -19.0212   27.8945 C   0  0  0  0  0  0  0  0  0  0  0  0
   10.5768  -18.2200   27.4321 C   0  0  0  0  0  0  0  0  0  0  0  0
   10.4803  -18.2089   25.9254 C   0  0  0  0  0  0  0  0  0  0  0  0
   10.5807  -16.7763   25.3933 C   0  0  2  0  0  0  0  0  0  0  0  0
    9.3471  -16.3328   24.8383 N   0  0  0  0  0  0  0  0  0  0  0  0
   11.7316  -16.6671   24.4654 C   0  0  0  0  0  0  0  0  0  0  0  0
   11.5421  -17.0036   23.2671 O   0  0  0  0  0  0  0  0  0  0  0  0
   12.9859  -16.2272   24.8144 O   0  0  0  0  0  0  0  0  0  0  0  0
  2  1  1  0
  3  2  1  0
  3  4  2  0
  6  5  1  0
  7  8  1  0
  7  6  1  0
  9  8  1  1
  9 10  1  0
 10  3  1  0
 11  9  1  0
 12 11  2  0
 14 13  1  0
 14 15  2  0
 16 14  1  0
 17 16  1  0
 18 17  1  0
 19 18  1  0
 20 21  1  0
 20 19  1  6
 21 11  1  0
 22 20  1  0
 23 22  2  0
 24 22  1  0
M  END
$$$$
