GMR.pdb
     RDKit          3D

 24 23  0  0  1  0  0  0  0  0999 V2000
    7.0750  -20.1769   27.2714 N   0  0  0  0  0  0  0  0  0  0  0  0
    8.0020  -19.0751   27.4082 C   0  0  0  0  0  0  0  0  0  0  0  0
    7.5988  -17.9046   26.5960 C   0  0  0  0  0  0  0  0  0  0  0  0
    6.5987  -18.0431   25.8464 O   0  0  0  0  0  0  0  0  0  0  0  0
    5.3434  -11.7866   26.7741 C   0  0  0  0  0  0  0  0  0  0  0  0
    7.1292  -11.8270   26.9790 S   0  0  0  0  0  0  0  0  0  0  0  0
    7.8410  -13.0170   25.7824 C   0  0  0  0  0  0  0  0  0  0  0  0
    8.1219  -14.2775   26.5306 C   0  0  0  0  0  0  0  0  0  0  0  0
    7.8828  -15.5412   25.7694 C   0  0  2  0  0  0  0  0  0  0  0  0
    8.2591  -16.6608   26.6113 N   0  0  0  0  0  0  0  0  0  0  0  0
    8.5725  -15.6254   24.4738 C   0  0  0  0  0  0  0  0  0  0  0  0
    9.8213  -15.5567   24.3456 O   0  0  0  0  0  0  0  0  0  0  0  0
    7.0937  -15.4090   16.6098 N   0  0  0  0  0  0  0  0  0  0  0  0
    7.8000  -14.1988   16.6943 C   0  0  0  0  0  0  0  0  0  0  0  0
    8.1271  -13.5018   15.6337 N   0  0  0  0  0  0  0  0  0  0  0  0
    8.1856  -13.6842   17.9481 N   0  0  0  0  0  0  0  0  0  0  0  0
    7.5830  -14.1709   19.1872 C   0  0  0  0  0  0  0  0  0  0  0  0
    8.1455  -13.4307   20.3800 C   0  0  0  0  0  0  0  0  0  0  0  0
    7.5802  -13.9721   21.6709 C   0  0  0  0  0  0  0  0  0  0  0  0
    8.2224  -15.3197   22.0129 C   0  0  2  0  0  0  0  0  0  0  0  0
    7.8056  -15.7934   23.2890 N   0  0  0  0  0  0  0  0  0  0  0  0
    9.6937  -15.2263   21.8572 C   0  0  0  0  0  0  0  0  0  0  0  0
   10.2031  -15.7681   20.8414 O   0  0  0  0  0  0  0  0  0  0  0  0
   10.5402  -14.5943   22.7361 O   0  0  0  0  0  0  0  0  0  0  0  0
  2  1  1  0
  3  2  1  0
  3  4  2  0
  6  5  1  0
  7  8  1  0
  7  6  1  0
  9  8  1  1
  9 10  1  0
 10  3  1  0
 11  9  1  0
 12 11  2  0
 14 13  1  0
 14 15  2  0
 16 14  1  0
 17 16  1  0
 18 17  1  0
 19 18  1  0
 20 21  1  0
 20 19  1  1
 21 11  1  0
 22 20  1  0
 23 22  2  0
 24 22  1  0
M  END
$$$$
