GMR.pdb
     RDKit          3D

 24 23  0  0  1  0  0  0  0  0999 V2000
    4.3454  -18.6828   22.9554 N   0  0  0  0  0  0  0  0  0  0  0  0
    5.2887  -18.5398   24.0425 C   0  0  0  0  0  0  0  0  0  0  0  0
    6.1135  -17.3177   23.9064 C   0  0  0  0  0  0  0  0  0  0  0  0
    6.3692  -16.9247   22.7396 O   0  0  0  0  0  0  0  0  0  0  0  0
    7.7833  -11.7479   27.2022 C   0  0  0  0  0  0  0  0  0  0  0  0
    6.3391  -12.7552   27.5656 S   0  0  0  0  0  0  0  0  0  0  0  0
    6.1564  -14.0295   26.2627 C   0  0  0  0  0  0  0  0  0  0  0  0
    7.5082  -14.6182   26.0313 C   0  0  0  0  0  0  0  0  0  0  0  0
    7.6166  -15.5300   24.8521 C   0  0  2  0  0  0  0  0  0  0  0  0
    6.6231  -16.5777   24.9908 N   0  0  0  0  0  0  0  0  0  0  0  0
    8.9480  -16.1168   24.6415 C   0  0  0  0  0  0  0  0  0  0  0  0
    9.4108  -17.0569   25.3362 O   0  0  0  0  0  0  0  0  0  0  0  0
    8.3701  -12.2769   19.3353 N   0  0  0  0  0  0  0  0  0  0  0  0
    8.1944  -13.5643   18.8040 C   0  0  0  0  0  0  0  0  0  0  0  0
    7.4661  -13.7901   17.7380 N   0  0  0  0  0  0  0  0  0  0  0  0
    8.8099  -14.6767   19.4118 N   0  0  0  0  0  0  0  0  0  0  0  0
    9.8380  -14.5105   20.4367 C   0  0  0  0  0  0  0  0  0  0  0  0
   10.4190  -15.8499   20.8310 C   0  0  0  0  0  0  0  0  0  0  0  0
   11.5011  -15.6874   21.8712 C   0  0  0  0  0  0  0  0  0  0  0  0
   11.0164  -16.1966   23.2318 C   0  0  2  0  0  0  0  0  0  0  0  0
    9.7735  -15.6091   23.6019 N   0  0  0  0  0  0  0  0  0  0  0  0
   12.0880  -16.0231   24.2413 C   0  0  0  0  0  0  0  0  0  0  0  0
   11.8301  -15.3012   25.2399 O   0  0  0  0  0  0  0  0  0  0  0  0
   13.3378  -16.5898   24.1687 O   0  0  0  0  0  0  0  0  0  0  0  0
  2  1  1  0
  3  2  1  0
  3  4  2  0
  6  5  1  0
  7  8  1  0
  7  6  1  0
  9  8  1  1
  9 10  1  0
 10  3  1  0
 11  9  1  0
 12 11  2  0
 14 13  1  0
 14 15  2  0
 16 14  1  0
 17 16  1  0
 18 17  1  0
 19 18  1  0
 20 21  1  0
 20 19  1  6
 21 11  1  0
 22 20  1  0
 23 22  2  0
 24 22  1  0
M  END
$$$$
