GMR.pdb
     RDKit          3D

 24 23  0  0  1  0  0  0  0  0999 V2000
    7.7639  -16.2689   19.1257 N   0  0  0  0  0  0  0  0  0  0  0  0
    6.8950  -16.0899   20.2681 C   0  0  0  0  0  0  0  0  0  0  0  0
    7.6298  -15.5929   21.4536 C   0  0  0  0  0  0  0  0  0  0  0  0
    8.8330  -15.9394   21.5701 O   0  0  0  0  0  0  0  0  0  0  0  0
    7.0322  -11.0488   27.9227 C   0  0  0  0  0  0  0  0  0  0  0  0
    6.3748  -11.6678   26.3680 S   0  0  0  0  0  0  0  0  0  0  0  0
    7.4907  -12.9693   25.7235 C   0  0  0  0  0  0  0  0  0  0  0  0
    6.9435  -13.4038   24.4048 C   0  0  0  0  0  0  0  0  0  0  0  0
    7.7216  -14.4736   23.7093 C   0  0  2  0  0  0  0  0  0  0  0  0
    7.0702  -14.7660   22.4468 N   0  0  0  0  0  0  0  0  0  0  0  0
    7.9068  -15.7095   24.4837 C   0  0  0  0  0  0  0  0  0  0  0  0
    6.9678  -16.4909   24.7804 O   0  0  0  0  0  0  0  0  0  0  0  0
   10.9120  -17.9458   20.3361 N   0  0  0  0  0  0  0  0  0  0  0  0
   12.0275  -18.7224   20.6869 C   0  0  0  0  0  0  0  0  0  0  0  0
   12.8983  -19.1401   19.8009 N   0  0  0  0  0  0  0  0  0  0  0  0
   12.2514  -19.0829   22.0306 N   0  0  0  0  0  0  0  0  0  0  0  0
   11.1403  -19.3576   22.9389 C   0  0  0  0  0  0  0  0  0  0  0  0
   10.9108  -18.1878   23.8695 C   0  0  0  0  0  0  0  0  0  0  0  0
    9.7372  -18.4436   24.7841 C   0  0  0  0  0  0  0  0  0  0  0  0
    9.4889  -17.2324   25.6878 C   0  0  2  0  0  0  0  0  0  0  0  0
    9.2097  -16.0591   24.9314 N   0  0  0  0  0  0  0  0  0  0  0  0
   10.6145  -17.0802   26.6404 C   0  0  0  0  0  0  0  0  0  0  0  0
   11.2946  -16.0233   26.5676 O   0  0  0  0  0  0  0  0  0  0  0  0
   10.9696  -18.0037   27.5940 O   0  0  0  0  0  0  0  0  0  0  0  0
  2  1  1  0
  3  2  1  0
  3  4  2  0
  6  5  1  0
  7  8  1  0
  7  6  1  0
  9  8  1  1
  9 10  1  0
 10  3  1  0
 11  9  1  0
 12 11  2  0
 14 13  1  0
 14 15  2  0
 16 14  1  0
 17 16  1  0
 18 17  1  0
 19 18  1  0
 20 21  1  0
 20 19  1  6
 21 11  1  0
 22 20  1  0
 23 22  2  0
 24 22  1  0
M  END
$$$$
