GMR.pdb
     RDKit          3D

 24 23  0  0  1  0  0  0  0  0999 V2000
    7.6426  -13.4364   19.2459 N   0  0  0  0  0  0  0  0  0  0  0  0
    7.0542  -14.2171   20.3119 C   0  0  0  0  0  0  0  0  0  0  0  0
    7.8471  -14.1414   21.5600 C   0  0  0  0  0  0  0  0  0  0  0  0
    9.0195  -13.6958   21.4691 O   0  0  0  0  0  0  0  0  0  0  0  0
    6.8251  -12.0898   27.5213 C   0  0  0  0  0  0  0  0  0  0  0  0
    5.9075  -11.6949   26.0265 S   0  0  0  0  0  0  0  0  0  0  0  0
    6.7545  -12.4497   24.5887 C   0  0  0  0  0  0  0  0  0  0  0  0
    7.3981  -13.7078   25.0686 C   0  0  0  0  0  0  0  0  0  0  0  0
    8.1705  -14.4658   24.0379 C   0  0  2  0  0  0  0  0  0  0  0  0
    7.3744  -14.5335   22.8273 N   0  0  0  0  0  0  0  0  0  0  0  0
    8.5917  -15.8142   24.4450 C   0  0  0  0  0  0  0  0  0  0  0  0
    7.8019  -16.7866   24.5506 O   0  0  0  0  0  0  0  0  0  0  0  0
   12.5046  -18.4280   28.9707 N   0  0  0  0  0  0  0  0  0  0  0  0
   12.3734  -18.0055   30.3029 C   0  0  0  0  0  0  0  0  0  0  0  0
   13.0124  -18.5858   31.2892 N   0  0  0  0  0  0  0  0  0  0  0  0
   11.5348  -16.9207   30.6278 N   0  0  0  0  0  0  0  0  0  0  0  0
   10.8399  -16.1605   29.5913 C   0  0  0  0  0  0  0  0  0  0  0  0
   11.2220  -16.6613   28.2164 C   0  0  0  0  0  0  0  0  0  0  0  0
   10.4125  -15.9733   27.1437 C   0  0  0  0  0  0  0  0  0  0  0  0
   10.3989  -16.8125   25.8627 C   0  0  2  0  0  0  0  0  0  0  0  0
    9.9612  -16.0538   24.7404 N   0  0  0  0  0  0  0  0  0  0  0  0
    9.6234  -18.0558   26.0875 C   0  0  0  0  0  0  0  0  0  0  0  0
    8.6571  -17.9969   26.8923 O   0  0  0  0  0  0  0  0  0  0  0  0
    9.8798  -19.2639   25.4849 O   0  0  0  0  0  0  0  0  0  0  0  0
  2  1  1  0
  3  2  1  0
  3  4  2  0
  6  5  1  0
  7  8  1  0
  7  6  1  0
  9  8  1  1
  9 10  1  0
 10  3  1  0
 11  9  1  0
 12 11  2  0
 14 13  1  0
 14 15  2  0
 16 14  1  0
 17 16  1  0
 18 17  1  0
 19 18  1  0
 20 21  1  0
 20 19  1  1
 21 11  1  0
 22 20  1  0
 23 22  2  0
 24 22  1  0
M  END
$$$$
