GMR.pdb
     RDKit          3D

 24 23  0  0  1  0  0  0  0  0999 V2000
    5.8736  -16.9122   20.3039 N   0  0  0  0  0  0  0  0  0  0  0  0
    5.7316  -17.0356   21.7379 C   0  0  0  0  0  0  0  0  0  0  0  0
    6.7613  -16.2614   22.4678 C   0  0  0  0  0  0  0  0  0  0  0  0
    7.6988  -15.7704   21.7887 O   0  0  0  0  0  0  0  0  0  0  0  0
    5.6605  -10.8047   26.4978 C   0  0  0  0  0  0  0  0  0  0  0  0
    6.6268  -12.2848   26.8263 S   0  0  0  0  0  0  0  0  0  0  0  0
    6.3929  -13.4689   25.4487 C   0  0  0  0  0  0  0  0  0  0  0  0
    7.2235  -14.6701   25.7559 C   0  0  0  0  0  0  0  0  0  0  0  0
    7.8175  -15.3587   24.5699 C   0  0  2  0  0  0  0  0  0  0  0  0
    6.7552  -16.0444   23.8592 N   0  0  0  0  0  0  0  0  0  0  0  0
    8.9092  -16.2941   24.8776 C   0  0  0  0  0  0  0  0  0  0  0  0
    8.7260  -17.4443   25.3509 O   0  0  0  0  0  0  0  0  0  0  0  0
   17.8975  -16.2375   23.7467 N   0  0  0  0  0  0  0  0  0  0  0  0
   17.1324  -17.4125   23.6803 C   0  0  0  0  0  0  0  0  0  0  0  0
   17.3503  -18.3419   22.7823 N   0  0  0  0  0  0  0  0  0  0  0  0
   16.0858  -17.6348   24.5973 N   0  0  0  0  0  0  0  0  0  0  0  0
   14.9874  -16.6821   24.7422 C   0  0  0  0  0  0  0  0  0  0  0  0
   13.7332  -17.2104   24.0828 C   0  0  0  0  0  0  0  0  0  0  0  0
   12.6267  -16.1840   24.1197 C   0  0  0  0  0  0  0  0  0  0  0  0
   11.3617  -16.7829   24.7414 C   0  0  2  0  0  0  0  0  0  0  0  0
   10.2521  -15.8972   24.6347 N   0  0  0  0  0  0  0  0  0  0  0  0
   11.6468  -17.2257   26.1271 C   0  0  0  0  0  0  0  0  0  0  0  0
   11.5001  -16.3783   27.0465 O   0  0  0  0  0  0  0  0  0  0  0  0
   12.0579  -18.4881   26.4817 O   0  0  0  0  0  0  0  0  0  0  0  0
  2  1  1  0
  3  2  1  0
  3  4  2  0
  6  5  1  0
  7  8  1  0
  7  6  1  0
  9  8  1  1
  9 10  1  0
 10  3  1  0
 11  9  1  0
 12 11  2  0
 14 13  1  0
 14 15  2  0
 16 14  1  0
 17 16  1  0
 18 17  1  0
 19 18  1  0
 20 21  1  0
 20 19  1  1
 21 11  1  0
 22 20  1  0
 23 22  2  0
 24 22  1  0
M  END
$$$$
