GMR.pdb
     RDKit          3D

 24 23  0  0  1  0  0  0  0  0999 V2000
    7.8337  -17.0883   19.1675 N   0  0  0  0  0  0  0  0  0  0  0  0
    7.5403  -17.3757   20.5544 C   0  0  0  0  0  0  0  0  0  0  0  0
    8.1468  -16.3817   21.4690 C   0  0  0  0  0  0  0  0  0  0  0  0
    9.3735  -16.1443   21.3268 O   0  0  0  0  0  0  0  0  0  0  0  0
    6.5508  -11.0660   27.1220 C   0  0  0  0  0  0  0  0  0  0  0  0
    6.0315  -12.3788   26.0087 S   0  0  0  0  0  0  0  0  0  0  0  0
    7.5002  -13.0358   25.1336 C   0  0  0  0  0  0  0  0  0  0  0  0
    7.0111  -14.0518   24.1559 C   0  0  0  0  0  0  0  0  0  0  0  0
    8.0764  -14.8278   23.4513 C   0  0  2  0  0  0  0  0  0  0  0  0
    7.4425  -15.6946   22.4764 N   0  0  0  0  0  0  0  0  0  0  0  0
    8.9582  -15.6103   24.3296 C   0  0  0  0  0  0  0  0  0  0  0  0
    8.6999  -16.7806   24.7093 O   0  0  0  0  0  0  0  0  0  0  0  0
   10.5164  -18.5254   29.1447 N   0  0  0  0  0  0  0  0  0  0  0  0
   11.2312  -17.8162   30.1226 C   0  0  0  0  0  0  0  0  0  0  0  0
   11.9316  -18.4168   31.0535 N   0  0  0  0  0  0  0  0  0  0  0  0
   11.2192  -16.4071   30.1331 N   0  0  0  0  0  0  0  0  0  0  0  0
   10.2944  -15.6488   29.2935 C   0  0  0  0  0  0  0  0  0  0  0  0
   10.9536  -15.2629   27.9883 C   0  0  0  0  0  0  0  0  0  0  0  0
   10.5771  -16.2225   26.8853 C   0  0  0  0  0  0  0  0  0  0  0  0
   11.1439  -15.7460   25.5448 C   0  0  2  0  0  0  0  0  0  0  0  0
   10.1735  -15.0319   24.7863 N   0  0  0  0  0  0  0  0  0  0  0  0
   11.7487  -16.8906   24.8224 C   0  0  0  0  0  0  0  0  0  0  0  0
   13.0053  -16.9652   24.8062 O   0  0  0  0  0  0  0  0  0  0  0  0
   11.0421  -17.8731   24.1712 O   0  0  0  0  0  0  0  0  0  0  0  0
  2  1  1  0
  3  2  1  0
  3  4  2  0
  6  5  1  0
  7  8  1  0
  7  6  1  0
  9  8  1  1
  9 10  1  0
 10  3  1  0
 11  9  1  0
 12 11  2  0
 14 13  1  0
 14 15  2  0
 16 14  1  0
 17 16  1  0
 18 17  1  0
 19 18  1  0
 20 21  1  0
 20 19  1  1
 21 11  1  0
 22 20  1  0
 23 22  2  0
 24 22  1  0
M  END
$$$$
