AIK.pdb
     RDKit          3D

 23 22  0  0  1  0  0  0  0  0999 V2000
    7.4794  -13.7783   20.1642 C   0  0  0  0  0  0  0  0  0  0  0  0
    7.2993  -14.9363   21.1218 C   0  0  2  0  0  0  0  0  0  0  0  0
    5.9120  -15.2247   21.3647 N   0  0  0  0  0  0  0  0  0  0  0  0
    8.0649  -14.7395   22.3743 C   0  0  0  0  0  0  0  0  0  0  0  0
    9.3188  -14.7337   22.3191 O   0  0  0  0  0  0  0  0  0  0  0  0
    5.9204  -11.5424   26.0097 C   0  0  0  0  0  0  0  0  0  0  0  0
    6.9343  -12.2227   25.0665 C   0  0  0  0  0  0  0  0  0  0  0  0
    7.3950  -13.4580   25.7473 C   0  0  2  0  0  0  0  0  0  0  0  0
    7.9837  -13.1907   27.1110 C   0  0  0  0  0  0  0  0  0  0  0  0
    8.2401  -14.3246   24.8670 C   0  0  2  0  0  0  0  0  0  0  0  0
    7.4525  -14.5564   23.6393 N   0  0  0  0  0  0  0  0  0  0  0  0
    8.6121  -15.6039   25.4841 C   0  0  0  0  0  0  0  0  0  0  0  0
    7.6645  -16.4018   25.8127 O   0  0  0  0  0  0  0  0  0  0  0  0
    9.9062  -16.0755   25.7629 N   0  0  0  0  0  0  0  0  0  0  0  0
   10.1828  -17.4080   26.2701 C   0  0  1  0  0  0  0  0  0  0  0  0
   11.3420  -18.0649   25.5569 C   0  0  0  0  0  0  0  0  0  0  0  0
   11.5751  -19.4464   26.1358 C   0  0  0  0  0  0  0  0  0  0  0  0
   12.8141  -20.0890   25.5530 C   0  0  0  0  0  0  0  0  0  0  0  0
   12.9103  -21.4787   26.1948 C   0  0  0  0  0  0  0  0  0  0  0  0
   14.1484  -22.1238   25.7380 N   0  0  0  0  0  0  0  0  0  0  0  0
   10.5379  -17.2849   27.7048 C   0  0  0  0  0  0  0  0  0  0  0  0
   10.2762  -18.3305   28.6113 O   0  0  0  0  0  0  0  0  0  0  0  0
   11.0836  -16.2710   28.2134 O   0  0  0  0  0  0  0  0  0  0  0  0
  2  1  1  6
  2  3  1  0
  2  4  1  0
  4  5  2  0
  7  6  1  0
  8  9  1  1
  8  7  1  0
 10  8  1  0
 11  4  1  0
 10 11  1  6
 12 14  1  0
 12 10  1  0
 13 12  2  0
 15 21  1  0
 15 14  1  0
 15 16  1  6
 16 17  1  0
 18 17  1  0
 19 18  1  0
 20 19  1  0
 21 22  1  0
 23 21  2  0
M  END
$$$$
