AIK.pdb
     RDKit          3D

 23 22  0  0  1  0  0  0  0  0999 V2000
    6.3203  -16.1161   21.0293 C   0  0  0  0  0  0  0  0  0  0  0  0
    6.7319  -14.6714   21.2128 C   0  0  2  0  0  0  0  0  0  0  0  0
    7.2852  -14.1111   20.0099 N   0  0  0  0  0  0  0  0  0  0  0  0
    7.6245  -14.4971   22.3818 C   0  0  0  0  0  0  0  0  0  0  0  0
    8.8646  -14.5881   22.2115 O   0  0  0  0  0  0  0  0  0  0  0  0
    5.8905  -11.4282   26.4729 C   0  0  0  0  0  0  0  0  0  0  0  0
    6.7994  -12.0149   25.3729 C   0  0  0  0  0  0  0  0  0  0  0  0
    7.3044  -13.3151   25.8788 C   0  0  2  0  0  0  0  0  0  0  0  0
    8.0118  -13.1926   27.2063 C   0  0  0  0  0  0  0  0  0  0  0  0
    8.0610  -14.0862   24.8428 C   0  0  2  0  0  0  0  0  0  0  0  0
    7.1491  -14.2314   23.6902 N   0  0  0  0  0  0  0  0  0  0  0  0
    8.5135  -15.4043   25.3051 C   0  0  0  0  0  0  0  0  0  0  0  0
    7.6156  -16.2685   25.6040 O   0  0  0  0  0  0  0  0  0  0  0  0
    9.8376  -15.8485   25.4612 N   0  0  0  0  0  0  0  0  0  0  0  0
   10.1887  -17.1977   25.8681 C   0  0  1  0  0  0  0  0  0  0  0  0
   11.4577  -17.6849   25.2078 C   0  0  0  0  0  0  0  0  0  0  0  0
   11.2547  -17.7498   23.7069 C   0  0  0  0  0  0  0  0  0  0  0  0
   12.4837  -18.2825   23.0045 C   0  0  0  0  0  0  0  0  0  0  0  0
   12.1127  -18.3780   21.5193 C   0  0  0  0  0  0  0  0  0  0  0  0
   13.2900  -18.8338   20.7682 N   0  0  0  0  0  0  0  0  0  0  0  0
   10.4097  -17.1884   27.3346 C   0  0  0  0  0  0  0  0  0  0  0  0
   10.5774  -18.3883   28.0527 O   0  0  0  0  0  0  0  0  0  0  0  0
   10.4639  -16.1437   28.0346 O   0  0  0  0  0  0  0  0  0  0  0  0
  2  1  1  6
  2  3  1  0
  2  4  1  0
  4  5  2  0
  7  6  1  0
  8  9  1  1
  8  7  1  0
 10  8  1  0
 11  4  1  0
 10 11  1  6
 12 14  1  0
 12 10  1  0
 13 12  2  0
 15 21  1  0
 15 14  1  0
 15 16  1  6
 16 17  1  0
 18 17  1  0
 19 18  1  0
 20 19  1  0
 21 22  1  0
 23 21  2  0
M  END
$$$$
