AIK.pdb
     RDKit          3D

 23 22  0  0  1  0  0  0  0  0999 V2000
   -1.1414  -25.1896   27.8270 C   0  0  0  0  0  0  0  0  0  0  0  0
   -0.3238  -25.6665   29.0079 C   0  0  2  0  0  0  0  0  0  0  0  0
    0.9163  -26.2673   28.5980 N   0  0  0  0  0  0  0  0  0  0  0  0
   -1.1105  -26.5454   29.9036 C   0  0  0  0  0  0  0  0  0  0  0  0
   -1.3524  -27.7203   29.5341 O   0  0  0  0  0  0  0  0  0  0  0  0
    0.1189  -27.9949   34.6282 C   0  0  0  0  0  0  0  0  0  0  0  0
   -0.5483  -28.0168   33.2372 C   0  0  0  0  0  0  0  0  0  0  0  0
   -1.7363  -27.1312   33.3147 C   0  0  2  0  0  0  0  0  0  0  0  0
   -2.6333  -27.4550   34.4845 C   0  0  0  0  0  0  0  0  0  0  0  0
   -2.4492  -27.0012   32.0051 C   0  0  2  0  0  0  0  0  0  0  0  0
   -1.6074  -26.1271   31.1632 N   0  0  0  0  0  0  0  0  0  0  0  0
   -3.8026  -26.4447   32.1253 C   0  0  0  0  0  0  0  0  0  0  0  0
   -3.9135  -25.2410   32.5509 O   0  0  0  0  0  0  0  0  0  0  0  0
   -5.0191  -27.0795   31.8220 N   0  0  0  0  0  0  0  0  0  0  0  0
   -6.3143  -26.4352   31.9502 C   0  0  1  0  0  0  0  0  0  0  0  0
   -7.3850  -27.1321   31.1428 C   0  0  0  0  0  0  0  0  0  0  0  0
   -8.7231  -26.4658   31.3947 C   0  0  0  0  0  0  0  0  0  0  0  0
   -9.8293  -27.1292   30.6049 C   0  0  0  0  0  0  0  0  0  0  0  0
  -11.1242  -26.4136   31.0093 C   0  0  0  0  0  0  0  0  0  0  0  0
  -12.2212  -26.9154   30.1711 N   0  0  0  0  0  0  0  0  0  0  0  0
   -6.7102  -26.4881   33.3785 C   0  0  0  0  0  0  0  0  0  0  0  0
   -7.3809  -25.4100   33.9879 O   0  0  0  0  0  0  0  0  0  0  0  0
   -6.4874  -27.4669   34.1380 O   0  0  0  0  0  0  0  0  0  0  0  0
  2  1  1  6
  2  3  1  0
  2  4  1  0
  4  5  2  0
  7  6  1  0
  8  9  1  1
  8  7  1  0
 10  8  1  0
 11  4  1  0
 10 11  1  6
 12 14  1  0
 12 10  1  0
 13 12  2  0
 15 21  1  0
 15 14  1  0
 15 16  1  6
 16 17  1  0
 18 17  1  0
 19 18  1  0
 20 19  1  0
 21 22  1  0
 23 21  2  0
M  END
$$$$
