AIK.pdb
     RDKit          3D

 23 22  0  0  1  0  0  0  0  0999 V2000
    6.0588  -16.0809   21.2340 C   0  0  0  0  0  0  0  0  0  0  0  0
    6.7860  -14.7557   21.3086 C   0  0  2  0  0  0  0  0  0  0  0  0
    7.4858  -14.4550   20.0893 N   0  0  0  0  0  0  0  0  0  0  0  0
    7.6625  -14.6747   22.4998 C   0  0  0  0  0  0  0  0  0  0  0  0
    8.8700  -14.9961   22.3820 O   0  0  0  0  0  0  0  0  0  0  0  0
    6.1534  -11.2437   26.3855 C   0  0  0  0  0  0  0  0  0  0  0  0
    7.0400  -11.9556   25.3427 C   0  0  0  0  0  0  0  0  0  0  0  0
    7.4250  -13.2647   25.9256 C   0  0  2  0  0  0  0  0  0  0  0  0
    8.1413  -13.1298   27.2471 C   0  0  0  0  0  0  0  0  0  0  0  0
    8.1077  -14.1603   24.9397 C   0  0  2  0  0  0  0  0  0  0  0  0
    7.2067  -14.2508   23.7730 N   0  0  0  0  0  0  0  0  0  0  0  0
    8.3983  -15.5001   25.4657 C   0  0  0  0  0  0  0  0  0  0  0  0
    7.4063  -16.2859   25.6679 O   0  0  0  0  0  0  0  0  0  0  0  0
    9.6563  -16.0424   25.7788 N   0  0  0  0  0  0  0  0  0  0  0  0
    9.8581  -17.4249   26.1751 C   0  0  1  0  0  0  0  0  0  0  0  0
   10.8630  -18.1335   25.2964 C   0  0  0  0  0  0  0  0  0  0  0  0
   11.1263  -19.5214   25.8462 C   0  0  0  0  0  0  0  0  0  0  0  0
   12.2095  -20.2304   25.0641 C   0  0  0  0  0  0  0  0  0  0  0  0
   12.3478  -21.6197   25.6991 C   0  0  0  0  0  0  0  0  0  0  0  0
   13.2567  -22.4264   24.8739 N   0  0  0  0  0  0  0  0  0  0  0  0
   10.3797  -17.4296   27.5634 C   0  0  0  0  0  0  0  0  0  0  0  0
   10.3255  -18.5918   28.3570 O   0  0  0  0  0  0  0  0  0  0  0  0
   10.8961  -16.4300   28.1278 O   0  0  0  0  0  0  0  0  0  0  0  0
  2  1  1  6
  2  3  1  0
  2  4  1  0
  4  5  2  0
  7  6  1  0
  8  9  1  1
  8  7  1  0
 10  8  1  0
 11  4  1  0
 10 11  1  6
 12 14  1  0
 12 10  1  0
 13 12  2  0
 15 21  1  0
 15 14  1  0
 15 16  1  6
 16 17  1  0
 18 17  1  0
 19 18  1  0
 20 19  1  0
 21 22  1  0
 23 21  2  0
M  END
$$$$
