AIK.pdb
     RDKit          3D

 23 22  0  0  1  0  0  0  0  0999 V2000
    5.9081  -16.8412   21.5609 C   0  0  0  0  0  0  0  0  0  0  0  0
    6.3938  -15.4085   21.5175 C   0  0  2  0  0  0  0  0  0  0  0  0
    6.9065  -15.0517   20.2227 N   0  0  0  0  0  0  0  0  0  0  0  0
    7.3547  -15.1194   22.6069 C   0  0  0  0  0  0  0  0  0  0  0  0
    8.5813  -15.2595   22.3808 O   0  0  0  0  0  0  0  0  0  0  0  0
    5.9159  -11.4647   26.2383 C   0  0  0  0  0  0  0  0  0  0  0  0
    6.7889  -12.2285   25.2211 C   0  0  0  0  0  0  0  0  0  0  0  0
    7.2758  -13.4526   25.9039 C   0  0  2  0  0  0  0  0  0  0  0  0
    8.0658  -13.1514   27.1540 C   0  0  0  0  0  0  0  0  0  0  0  0
    7.9399  -14.4135   24.9681 C   0  0  2  0  0  0  0  0  0  0  0  0
    6.9597  -14.6905   23.8986 N   0  0  0  0  0  0  0  0  0  0  0  0
    8.3611  -15.6644   25.6113 C   0  0  0  0  0  0  0  0  0  0  0  0
    7.4447  -16.4303   26.0758 O   0  0  0  0  0  0  0  0  0  0  0  0
    9.6725  -16.1396   25.7822 N   0  0  0  0  0  0  0  0  0  0  0  0
    9.9863  -17.4776   26.2519 C   0  0  1  0  0  0  0  0  0  0  0  0
   11.0297  -18.1570   25.3954 C   0  0  0  0  0  0  0  0  0  0  0  0
   11.3193  -19.5377   25.9503 C   0  0  0  0  0  0  0  0  0  0  0  0
   12.3189  -20.2807   25.0921 C   0  0  0  0  0  0  0  0  0  0  0  0
   12.4756  -21.6663   25.7309 C   0  0  0  0  0  0  0  0  0  0  0  0
   13.2671  -22.5138   24.8292 N   0  0  0  0  0  0  0  0  0  0  0  0
   10.5274  -17.3622   27.6279 C   0  0  0  0  0  0  0  0  0  0  0  0
   10.4605  -18.4427   28.5289 O   0  0  0  0  0  0  0  0  0  0  0  0
   11.0722  -16.3252   28.0886 O   0  0  0  0  0  0  0  0  0  0  0  0
  2  1  1  6
  2  3  1  0
  2  4  1  0
  4  5  2  0
  7  6  1  0
  8  9  1  1
  8  7  1  0
 10  8  1  0
 11  4  1  0
 10 11  1  6
 12 14  1  0
 12 10  1  0
 13 12  2  0
 15 21  1  0
 15 14  1  0
 15 16  1  6
 16 17  1  0
 18 17  1  0
 19 18  1  0
 20 19  1  0
 21 22  1  0
 23 21  2  0
M  END
$$$$
