AIK.pdb
     RDKit          3D

 23 22  0  0  1  0  0  0  0  0999 V2000
    6.4059  -16.1246   20.7691 C   0  0  0  0  0  0  0  0  0  0  0  0
    6.9696  -14.7200   20.7735 C   0  0  2  0  0  0  0  0  0  0  0  0
    7.6931  -14.4253   19.5666 N   0  0  0  0  0  0  0  0  0  0  0  0
    7.7667  -14.4502   21.9923 C   0  0  0  0  0  0  0  0  0  0  0  0
    9.0103  -14.6136   21.9470 O   0  0  0  0  0  0  0  0  0  0  0  0
    7.1135  -11.4681   27.2780 C   0  0  0  0  0  0  0  0  0  0  0  0
    7.9871  -12.4937   26.5263 C   0  0  0  0  0  0  0  0  0  0  0  0
    7.2392  -12.8852   25.3061 C   0  0  2  0  0  0  0  0  0  0  0  0
    5.8201  -13.3072   25.5986 C   0  0  0  0  0  0  0  0  0  0  0  0
    8.0020  -13.8370   24.4387 C   0  0  2  0  0  0  0  0  0  0  0  0
    7.1957  -14.0146   23.2141 N   0  0  0  0  0  0  0  0  0  0  0  0
    8.2578  -15.1356   25.0744 C   0  0  0  0  0  0  0  0  0  0  0  0
    7.2913  -15.9762   25.1163 O   0  0  0  0  0  0  0  0  0  0  0  0
    9.4576  -15.5841   25.6525 N   0  0  0  0  0  0  0  0  0  0  0  0
    9.7145  -16.9723   25.9932 C   0  0  1  0  0  0  0  0  0  0  0  0
   10.8259  -17.5715   25.1628 C   0  0  0  0  0  0  0  0  0  0  0  0
   11.1171  -18.9784   25.6464 C   0  0  0  0  0  0  0  0  0  0  0  0
   12.2544  -19.6058   24.8716 C   0  0  0  0  0  0  0  0  0  0  0  0
   12.4186  -21.0224   25.4362 C   0  0  0  0  0  0  0  0  0  0  0  0
   13.4866  -21.7047   24.6933 N   0  0  0  0  0  0  0  0  0  0  0  0
   10.1276  -17.0232   27.4167 C   0  0  0  0  0  0  0  0  0  0  0  0
   10.0904  -18.2297   28.1424 O   0  0  0  0  0  0  0  0  0  0  0  0
   10.5317  -16.0270   28.0715 O   0  0  0  0  0  0  0  0  0  0  0  0
  2  1  1  6
  2  3  1  0
  2  4  1  0
  4  5  2  0
  7  6  1  0
  8  9  1  1
  8  7  1  0
 10  8  1  0
 11  4  1  0
 10 11  1  6
 12 14  1  0
 12 10  1  0
 13 12  2  0
 15 21  1  0
 15 14  1  0
 15 16  1  6
 16 17  1  0
 18 17  1  0
 19 18  1  0
 20 19  1  0
 21 22  1  0
 23 21  2  0
M  END
$$$$
