AIK.pdb
     RDKit          3D

 23 22  0  0  1  0  0  0  0  0999 V2000
    8.1451  -19.6110   18.5725 C   0  0  0  0  0  0  0  0  0  0  0  0
    8.3133  -18.2365   17.9621 C   0  0  2  0  0  0  0  0  0  0  0  0
    8.9817  -18.2891   16.6903 N   0  0  0  0  0  0  0  0  0  0  0  0
    8.9582  -17.2912   18.9024 C   0  0  0  0  0  0  0  0  0  0  0  0
   10.1932  -17.3898   19.1031 O   0  0  0  0  0  0  0  0  0  0  0  0
    6.6905  -12.4117   19.7567 C   0  0  0  0  0  0  0  0  0  0  0  0
    7.8092  -13.4397   19.4887 C   0  0  0  0  0  0  0  0  0  0  0  0
    7.9964  -14.2104   20.7428 C   0  0  2  0  0  0  0  0  0  0  0  0
    8.3259  -13.3333   21.9259 C   0  0  0  0  0  0  0  0  0  0  0  0
    8.9067  -15.3859   20.5708 C   0  0  2  0  0  0  0  0  0  0  0  0
    8.2499  -16.2753   19.5916 N   0  0  0  0  0  0  0  0  0  0  0  0
    9.1737  -16.1103   21.8197 C   0  0  0  0  0  0  0  0  0  0  0  0
    8.2338  -16.8409   22.2943 O   0  0  0  0  0  0  0  0  0  0  0  0
   10.3585  -16.1057   22.5753 N   0  0  0  0  0  0  0  0  0  0  0  0
   10.6010  -17.0008   23.6930 C   0  0  1  0  0  0  0  0  0  0  0  0
   11.1282  -18.3454   23.2482 C   0  0  0  0  0  0  0  0  0  0  0  0
   11.3463  -19.2298   24.4599 C   0  0  0  0  0  0  0  0  0  0  0  0
   11.7993  -20.6161   24.0593 C   0  0  0  0  0  0  0  0  0  0  0  0
   11.9136  -21.4158   25.3630 C   0  0  0  0  0  0  0  0  0  0  0  0
   12.1436  -22.8281   25.0306 N   0  0  0  0  0  0  0  0  0  0  0  0
   11.6233  -16.3737   24.5656 C   0  0  0  0  0  0  0  0  0  0  0  0
   11.7363  -16.7277   25.9241 O   0  0  0  0  0  0  0  0  0  0  0  0
   12.4460  -15.5035   24.1778 O   0  0  0  0  0  0  0  0  0  0  0  0
  2  1  1  1
  2  3  1  0
  2  4  1  0
  4  5  2  0
  7  6  1  0
  8  9  1  1
  8  7  1  0
 10  8  1  0
 11  4  1  0
 10 11  1  6
 12 14  1  0
 12 10  1  0
 13 12  2  0
 15 21  1  0
 15 14  1  0
 15 16  1  6
 16 17  1  0
 18 17  1  0
 19 18  1  0
 20 19  1  0
 21 22  1  0
 23 21  2  0
M  END
$$$$
