AIK.pdb
     RDKit          3D

 23 22  0  0  1  0  0  0  0  0999 V2000
    6.4499  -15.3485   20.5685 C   0  0  0  0  0  0  0  0  0  0  0  0
    6.9471  -13.9687   20.9417 C   0  0  2  0  0  0  0  0  0  0  0  0
    7.6178  -13.3224   19.8466 N   0  0  0  0  0  0  0  0  0  0  0  0
    7.7685  -13.9937   22.1739 C   0  0  0  0  0  0  0  0  0  0  0  0
    9.0154  -14.0858   22.0647 O   0  0  0  0  0  0  0  0  0  0  0  0
    5.9210  -11.3281   26.4545 C   0  0  0  0  0  0  0  0  0  0  0  0
    6.8243  -11.8709   25.3277 C   0  0  0  0  0  0  0  0  0  0  0  0
    7.2764  -13.2198   25.7493 C   0  0  2  0  0  0  0  0  0  0  0  0
    7.9249  -13.2211   27.1121 C   0  0  0  0  0  0  0  0  0  0  0  0
    8.0619  -13.9259   24.6889 C   0  0  2  0  0  0  0  0  0  0  0  0
    7.2173  -13.9188   23.4774 N   0  0  0  0  0  0  0  0  0  0  0  0
    8.4290  -15.3017   25.0474 C   0  0  0  0  0  0  0  0  0  0  0  0
    7.4776  -16.1275   25.2819 O   0  0  0  0  0  0  0  0  0  0  0  0
    9.7220  -15.8396   25.1648 N   0  0  0  0  0  0  0  0  0  0  0  0
    9.9860  -17.2326   25.4792 C   0  0  1  0  0  0  0  0  0  0  0  0
   11.1610  -17.7836   24.7047 C   0  0  0  0  0  0  0  0  0  0  0  0
   10.8246  -17.8119   23.2268 C   0  0  0  0  0  0  0  0  0  0  0  0
   12.0266  -18.1950   22.3927 C   0  0  0  0  0  0  0  0  0  0  0  0
   11.5716  -18.1051   20.9307 C   0  0  0  0  0  0  0  0  0  0  0  0
   12.7161  -18.4099   20.0617 N   0  0  0  0  0  0  0  0  0  0  0  0
   10.3082  -17.3205   26.9243 C   0  0  0  0  0  0  0  0  0  0  0  0
   10.4569  -16.1600   27.7083 O   0  0  0  0  0  0  0  0  0  0  0  0
   10.4697  -18.4019   27.5480 O   0  0  0  0  0  0  0  0  0  0  0  0
  2  1  1  6
  2  3  1  0
  2  4  1  0
  4  5  2  0
  7  6  1  0
  8  9  1  1
  8  7  1  0
 10  8  1  0
 11  4  1  0
 10 11  1  6
 12 14  1  0
 12 10  1  0
 13 12  2  0
 15 21  1  0
 15 14  1  0
 15 16  1  6
 16 17  1  0
 18 17  1  0
 19 18  1  0
 20 19  1  0
 21 22  1  0
 23 21  2  0
M  END
$$$$
