AIK.pdb
     RDKit          3D

 23 22  0  0  1  0  0  0  0  0999 V2000
    6.1016  -16.2833   21.1634 C   0  0  0  0  0  0  0  0  0  0  0  0
    6.6543  -14.8749   21.1979 C   0  0  2  0  0  0  0  0  0  0  0  0
    7.2370  -14.4930   19.9404 N   0  0  0  0  0  0  0  0  0  0  0  0
    7.5808  -14.6745   22.3359 C   0  0  0  0  0  0  0  0  0  0  0  0
    8.8115  -14.8303   22.1451 O   0  0  0  0  0  0  0  0  0  0  0  0
    6.0168  -11.2696   26.2247 C   0  0  0  0  0  0  0  0  0  0  0  0
    6.8616  -11.9676   25.1387 C   0  0  0  0  0  0  0  0  0  0  0  0
    7.3806  -13.2226   25.7362 C   0  0  2  0  0  0  0  0  0  0  0  0
    8.1350  -12.9910   27.0226 C   0  0  0  0  0  0  0  0  0  0  0  0
    8.0976  -14.0841   24.7443 C   0  0  2  0  0  0  0  0  0  0  0  0
    7.1484  -14.3139   23.6364 N   0  0  0  0  0  0  0  0  0  0  0  0
    8.5541  -15.3645   25.2994 C   0  0  0  0  0  0  0  0  0  0  0  0
    7.6603  -16.1825   25.7167 O   0  0  0  0  0  0  0  0  0  0  0  0
    9.8780  -15.8173   25.4302 N   0  0  0  0  0  0  0  0  0  0  0  0
   10.2281  -17.1732   25.8153 C   0  0  1  0  0  0  0  0  0  0  0  0
   11.5773  -17.5925   25.2790 C   0  0  0  0  0  0  0  0  0  0  0  0
   11.8480  -19.0343   25.6609 C   0  0  0  0  0  0  0  0  0  0  0  0
   12.7754  -19.7043   24.6715 C   0  0  0  0  0  0  0  0  0  0  0  0
   12.9944  -21.1287   25.1964 C   0  0  0  0  0  0  0  0  0  0  0  0
   14.0424  -21.7710   24.3922 N   0  0  0  0  0  0  0  0  0  0  0  0
   10.2874  -17.2253   27.2963 C   0  0  0  0  0  0  0  0  0  0  0  0
   10.0974  -18.4363   27.9897 O   0  0  0  0  0  0  0  0  0  0  0  0
   10.5047  -16.2263   28.0306 O   0  0  0  0  0  0  0  0  0  0  0  0
  2  1  1  6
  2  3  1  0
  2  4  1  0
  4  5  2  0
  7  6  1  0
  8  9  1  1
  8  7  1  0
 10  8  1  0
 11  4  1  0
 10 11  1  6
 12 14  1  0
 12 10  1  0
 13 12  2  0
 15 21  1  0
 15 14  1  0
 15 16  1  6
 16 17  1  0
 18 17  1  0
 19 18  1  0
 20 19  1  0
 21 22  1  0
 23 21  2  0
M  END
$$$$
