HEN.pdb
     RDKit          3D

 28 28  0  0  1  0  0  0  0  0999 V2000
   13.7356  -10.7965  -11.0093 N   0  0  0  0  0  0  0  0  0  0  0  0
   15.0909  -10.4872  -10.6724 C   0  0  1  0  0  0  0  0  0  0  0  0
   16.0879  -11.3682  -11.3864 C   0  0  0  0  0  0  0  0  0  0  0  0
   15.6782  -12.7841  -11.1116 C   0  0  0  0  0  0  0  0  0  0  0  0
   15.8118  -13.4576   -9.8950 C   0  0  0  0  0  0  0  0  0  0  0  0
   15.3361  -14.7026  -10.0364 N   0  0  0  0  0  0  0  0  0  0  0  0
   14.9083  -14.8403  -11.2929 C   0  0  0  0  0  0  0  0  0  0  0  0
   15.1157  -13.6764  -11.9455 N   0  0  0  0  0  0  0  0  0  0  0  0
   15.4007   -9.0470  -10.7884 C   0  0  0  0  0  0  0  0  0  0  0  0
   15.3177   -8.5136  -11.9213 O   0  0  0  0  0  0  0  0  0  0  0  0
   15.7905   -8.2601   -9.6379 N   0  0  0  0  0  0  0  0  0  0  0  0
   16.0308   -6.8762   -9.8249 C   0  0  1  0  0  0  0  0  0  0  0  0
   15.4955   -6.0118   -8.7204 C   0  0  0  0  0  0  0  0  0  0  0  0
   15.6513   -4.5483   -8.8774 C   0  0  0  0  0  0  0  0  0  0  0  0
   15.1312   -3.7029   -7.7953 C   0  0  0  0  0  0  0  0  0  0  0  0
   14.6885   -4.1925   -6.7035 O   0  0  0  0  0  0  0  0  0  0  0  0
   17.4554   -6.5659  -10.1278 C   0  0  0  0  0  0  0  0  0  0  0  0
   18.3403   -7.0633   -9.3963 O   0  0  0  0  0  0  0  0  0  0  0  0
   15.0979   -2.3263   -7.9129 O   0  0  0  0  0  0  0  0  0  0  0  0
   21.8615   -5.5646  -12.6883 N   0  0  0  0  0  0  0  0  0  0  0  0
   21.2152   -6.8166  -12.5562 C   0  0  0  0  0  0  0  0  0  0  0  0
   21.8533   -7.8371  -12.8988 O   0  0  0  0  0  0  0  0  0  0  0  0
   19.8488   -6.9512  -12.0407 C   0  0  0  0  0  0  0  0  0  0  0  0
   19.2040   -5.6454  -11.6882 C   0  0  2  0  0  0  0  0  0  0  0  0
   17.8673   -5.7360  -11.2016 N   0  0  0  0  0  0  0  0  0  0  0  0
   19.3235   -4.6845  -12.8396 C   0  0  0  0  0  0  0  0  0  0  0  0
   20.4316   -3.8925  -13.0173 O   0  0  0  0  0  0  0  0  0  0  0  0
   18.3816   -4.5908  -13.6806 O   0  0  0  0  0  0  0  0  0  0  0  0
  2  1  1  6
  2  9  1  0
  3  2  1  0
  4  3  1  0
  5  4  2  0
  6  7  1  0
  6  5  1  0
  7  8  2  0
  8  4  1  0
  9 11  1  0
 10  9  2  0
 11 12  1  0
 12 13  1  1
 13 14  1  0
 14 15  1  0
 15 16  2  0
 15 19  1  0
 17 18  2  0
 17 12  1  0
 20 21  1  0
 21 23  1  0
 21 22  2  0
 24 23  1  6
 24 25  1  0
 25 17  1  0
 26 24  1  0
 26 27  1  0
 28 26  2  0
M  END
$$$$
