HEN.pdb
     RDKit          3D

 28 28  0  0  1  0  0  0  0  0999 V2000
   26.7227  -19.4529  -15.0319 N   0  0  0  0  0  0  0  0  0  0  0  0
   25.6880  -19.4227  -16.0190 C   0  0  1  0  0  0  0  0  0  0  0  0
   25.6048  -20.6998  -16.8202 C   0  0  0  0  0  0  0  0  0  0  0  0
   26.9639  -20.9187  -17.4144 C   0  0  0  0  0  0  0  0  0  0  0  0
   27.3806  -20.5153  -18.6853 C   0  0  0  0  0  0  0  0  0  0  0  0
   28.6565  -20.8870  -18.8594 N   0  0  0  0  0  0  0  0  0  0  0  0
   29.0601  -21.5083  -17.7496 C   0  0  0  0  0  0  0  0  0  0  0  0
   28.0334  -21.5276  -16.8726 N   0  0  0  0  0  0  0  0  0  0  0  0
   24.3831  -18.9922  -15.4751 C   0  0  0  0  0  0  0  0  0  0  0  0
   24.1241  -19.2610  -14.2770 O   0  0  0  0  0  0  0  0  0  0  0  0
   23.4204  -18.2803  -16.2880 N   0  0  0  0  0  0  0  0  0  0  0  0
   22.1705  -17.9495  -15.7082 C   0  0  1  0  0  0  0  0  0  0  0  0
   21.4874  -16.7828  -16.3609 C   0  0  0  0  0  0  0  0  0  0  0  0
   20.2214  -16.3185  -15.7507 C   0  0  0  0  0  0  0  0  0  0  0  0
   19.5198  -15.2196  -16.4262 C   0  0  0  0  0  0  0  0  0  0  0  0
   19.1219  -15.3087  -17.6352 O   0  0  0  0  0  0  0  0  0  0  0  0
   21.2592  -19.1198  -15.5765 C   0  0  0  0  0  0  0  0  0  0  0  0
   21.3623  -20.0496  -16.4074 O   0  0  0  0  0  0  0  0  0  0  0  0
   19.2571  -14.0287  -15.7762 O   0  0  0  0  0  0  0  0  0  0  0  0
   17.4122  -22.1074  -12.1990 N   0  0  0  0  0  0  0  0  0  0  0  0
   18.5664  -22.2201  -13.0101 C   0  0  0  0  0  0  0  0  0  0  0  0
   18.7420  -23.2978  -13.6213 O   0  0  0  0  0  0  0  0  0  0  0  0
   19.5422  -21.1345  -13.1528 C   0  0  0  0  0  0  0  0  0  0  0  0
   19.3903  -20.3471  -14.4184 C   0  0  2  0  0  0  0  0  0  0  0  0
   20.2778  -19.2407  -14.5597 N   0  0  0  0  0  0  0  0  0  0  0  0
   17.9523  -19.9469  -14.6065 C   0  0  0  0  0  0  0  0  0  0  0  0
   17.0274  -20.7913  -15.1707 O   0  0  0  0  0  0  0  0  0  0  0  0
   17.5658  -18.7987  -14.2383 O   0  0  0  0  0  0  0  0  0  0  0  0
  2  1  1  1
  2  9  1  0
  3  2  1  0
  4  3  1  0
  5  4  2  0
  6  7  1  0
  6  5  1  0
  7  8  2  0
  8  4  1  0
  9 11  1  0
 10  9  2  0
 11 12  1  0
 12 13  1  6
 13 14  1  0
 14 15  1  0
 15 16  2  0
 15 19  1  0
 17 18  2  0
 17 12  1  0
 20 21  1  0
 21 23  1  0
 21 22  2  0
 24 23  1  1
 24 25  1  0
 25 17  1  0
 26 24  1  0
 26 27  1  0
 28 26  2  0
M  END
$$$$
