HEN.pdb
     RDKit          3D

 28 28  0  0  1  0  0  0  0  0999 V2000
   19.7401  -11.9154  -15.5835 N   0  0  0  0  0  0  0  0  0  0  0  0
   19.9281  -11.0095  -16.6743 C   0  0  1  0  0  0  0  0  0  0  0  0
   19.0508  -11.3306  -17.8606 C   0  0  0  0  0  0  0  0  0  0  0  0
   19.3653  -12.7432  -18.2525 C   0  0  0  0  0  0  0  0  0  0  0  0
   18.8927  -13.8965  -17.6215 C   0  0  0  0  0  0  0  0  0  0  0  0
   19.3890  -14.9688  -18.2541 N   0  0  0  0  0  0  0  0  0  0  0  0
   20.1550  -14.5375  -19.2579 C   0  0  0  0  0  0  0  0  0  0  0  0
   20.1408  -13.1872  -19.2573 N   0  0  0  0  0  0  0  0  0  0  0  0
   19.8567   -9.5911  -16.2661 C   0  0  0  0  0  0  0  0  0  0  0  0
   19.3941   -9.3251  -15.1303 O   0  0  0  0  0  0  0  0  0  0  0  0
   20.3034   -8.5271  -17.1397 N   0  0  0  0  0  0  0  0  0  0  0  0
   20.3148   -7.2047  -16.6308 C   0  0  1  0  0  0  0  0  0  0  0  0
   21.0772   -7.0544  -15.3463 C   0  0  0  0  0  0  0  0  0  0  0  0
   21.0996   -5.7078  -14.7323 C   0  0  0  0  0  0  0  0  0  0  0  0
   21.8340   -5.5637  -13.4690 C   0  0  0  0  0  0  0  0  0  0  0  0
   22.9356   -4.9245  -13.3924 O   0  0  0  0  0  0  0  0  0  0  0  0
   20.7307   -6.1931  -17.6414 C   0  0  0  0  0  0  0  0  0  0  0  0
   21.9418   -5.8871  -17.7122 O   0  0  0  0  0  0  0  0  0  0  0  0
   21.3600   -6.1194  -12.2958 O   0  0  0  0  0  0  0  0  0  0  0  0
   18.0865   -1.6791  -18.2246 N   0  0  0  0  0  0  0  0  0  0  0  0
   17.7124   -2.6935  -17.3113 C   0  0  0  0  0  0  0  0  0  0  0  0
   16.7908   -2.4360  -16.5049 O   0  0  0  0  0  0  0  0  0  0  0  0
   18.3589   -4.0097  -17.2823 C   0  0  0  0  0  0  0  0  0  0  0  0
   19.3547   -4.2188  -18.3821 C   0  0  2  0  0  0  0  0  0  0  0  0
   19.8290   -5.5548  -18.5308 N   0  0  0  0  0  0  0  0  0  0  0  0
   20.4806   -3.2295  -18.2524 C   0  0  0  0  0  0  0  0  0  0  0  0
   20.4448   -1.9988  -18.8616 O   0  0  0  0  0  0  0  0  0  0  0  0
   21.5010   -3.5249  -17.5633 O   0  0  0  0  0  0  0  0  0  0  0  0
  2  1  1  1
  2  9  1  0
  3  2  1  0
  4  3  1  0
  5  4  2  0
  6  7  1  0
  6  5  1  0
  7  8  2  0
  8  4  1  0
  9 11  1  0
 10  9  2  0
 11 12  1  0
 12 13  1  1
 13 14  1  0
 14 15  1  0
 15 16  2  0
 15 19  1  0
 17 18  2  0
 17 12  1  0
 20 21  1  0
 21 23  1  0
 21 22  2  0
 24 23  1  1
 24 25  1  0
 25 17  1  0
 26 24  1  0
 26 27  1  0
 28 26  2  0
M  END
$$$$
