HEN.pdb
     RDKit          3D

 28 28  0  0  1  0  0  0  0  0999 V2000
   27.2085  -10.5661  -19.8037 N   0  0  0  0  0  0  0  0  0  0  0  0
   26.9431  -10.4446  -18.4034 C   0  0  1  0  0  0  0  0  0  0  0  0
   28.0617   -9.7636  -17.6518 C   0  0  0  0  0  0  0  0  0  0  0  0
   29.3019  -10.5630  -17.9184 C   0  0  0  0  0  0  0  0  0  0  0  0
   30.5319  -10.0554  -18.3438 C   0  0  0  0  0  0  0  0  0  0  0  0
   31.3965  -11.0714  -18.4733 N   0  0  0  0  0  0  0  0  0  0  0  0
   30.7606  -12.1981  -18.1466 C   0  0  0  0  0  0  0  0  0  0  0  0
   29.4897  -11.8900  -17.8099 N   0  0  0  0  0  0  0  0  0  0  0  0
   25.6137   -9.8669  -18.1154 C   0  0  0  0  0  0  0  0  0  0  0  0
   25.2106   -8.9224  -18.8365 O   0  0  0  0  0  0  0  0  0  0  0  0
   24.7883  -10.3648  -17.0359 N   0  0  0  0  0  0  0  0  0  0  0  0
   23.5225   -9.7622  -16.8297 C   0  0  1  0  0  0  0  0  0  0  0  0
   22.5284  -10.6554  -16.1457 C   0  0  0  0  0  0  0  0  0  0  0  0
   22.0496  -11.8325  -16.9046 C   0  0  0  0  0  0  0  0  0  0  0  0
   20.6727  -12.2745  -16.6500 C   0  0  0  0  0  0  0  0  0  0  0  0
   19.7982  -12.3418  -17.5767 O   0  0  0  0  0  0  0  0  0  0  0  0
   23.6099   -8.4286  -16.1729 C   0  0  0  0  0  0  0  0  0  0  0  0
   24.7428   -7.9776  -15.8924 O   0  0  0  0  0  0  0  0  0  0  0  0
   20.2590  -12.6406  -15.3833 O   0  0  0  0  0  0  0  0  0  0  0  0
   22.8095   -3.5481  -14.6846 N   0  0  0  0  0  0  0  0  0  0  0  0
   23.3985   -3.9830  -15.8956 C   0  0  0  0  0  0  0  0  0  0  0  0
   23.9989   -3.1301  -16.5870 O   0  0  0  0  0  0  0  0  0  0  0  0
   23.3277   -5.3741  -16.3551 C   0  0  0  0  0  0  0  0  0  0  0  0
   22.5333   -6.2691  -15.4536 C   0  0  2  0  0  0  0  0  0  0  0  0
   22.4784   -7.6383  -15.8462 N   0  0  0  0  0  0  0  0  0  0  0  0
   21.1634   -5.6892  -15.2291 C   0  0  0  0  0  0  0  0  0  0  0  0
   20.8140   -5.0775  -14.0499 O   0  0  0  0  0  0  0  0  0  0  0  0
   20.2931   -5.7588  -16.1461 O   0  0  0  0  0  0  0  0  0  0  0  0
  2  1  1  6
  2  9  1  0
  3  2  1  0
  4  3  1  0
  5  4  2  0
  6  7  1  0
  6  5  1  0
  7  8  2  0
  8  4  1  0
  9 11  1  0
 10  9  2  0
 11 12  1  0
 12 13  1  1
 13 14  1  0
 14 15  1  0
 15 16  2  0
 15 19  1  0
 17 18  2  0
 17 12  1  0
 20 21  1  0
 21 23  1  0
 21 22  2  0
 24 23  1  6
 24 25  1  0
 25 17  1  0
 26 24  1  0
 26 27  1  0
 28 26  2  0
M  END
$$$$
