HEN.pdb
     RDKit          3D

 28 28  0  0  1  0  0  0  0  0999 V2000
   19.9703  -11.9836  -17.3881 N   0  0  0  0  0  0  0  0  0  0  0  0
   19.5561  -11.5330  -16.0954 C   0  0  1  0  0  0  0  0  0  0  0  0
   19.7574  -12.5734  -15.0197 C   0  0  0  0  0  0  0  0  0  0  0  0
   18.9647  -13.7758  -15.4371 C   0  0  0  0  0  0  0  0  0  0  0  0
   18.3667  -13.9744  -16.6838 C   0  0  0  0  0  0  0  0  0  0  0  0
   17.7474  -15.1631  -16.6810 N   0  0  0  0  0  0  0  0  0  0  0  0
   17.9311  -15.7209  -15.4828 C   0  0  0  0  0  0  0  0  0  0  0  0
   18.6697  -14.8794  -14.7278 N   0  0  0  0  0  0  0  0  0  0  0  0
   20.1143  -10.2122  -15.7377 C   0  0  0  0  0  0  0  0  0  0  0  0
   19.7747   -9.7038  -14.6418 O   0  0  0  0  0  0  0  0  0  0  0  0
   21.0275   -9.5120  -16.6155 N   0  0  0  0  0  0  0  0  0  0  0  0
   21.6225   -8.3155  -16.1441 C   0  0  1  0  0  0  0  0  0  0  0  0
   23.1232   -8.3504  -16.1230 C   0  0  0  0  0  0  0  0  0  0  0  0
   23.7587   -9.4699  -15.3925 C   0  0  0  0  0  0  0  0  0  0  0  0
   25.2180   -9.5922  -15.4995 C   0  0  0  0  0  0  0  0  0  0  0  0
   25.9236   -8.7574  -16.1578 O   0  0  0  0  0  0  0  0  0  0  0  0
   21.1081   -7.0976  -16.8293 C   0  0  0  0  0  0  0  0  0  0  0  0
   20.8228   -7.1755  -18.0451 O   0  0  0  0  0  0  0  0  0  0  0  0
   25.8984  -10.6269  -14.8861 O   0  0  0  0  0  0  0  0  0  0  0  0
   18.6971   -2.6458  -17.9037 N   0  0  0  0  0  0  0  0  0  0  0  0
   18.1172   -3.9335  -17.8121 C   0  0  0  0  0  0  0  0  0  0  0  0
   16.9651   -4.0844  -18.2764 O   0  0  0  0  0  0  0  0  0  0  0  0
   18.8115   -5.0723  -17.2021 C   0  0  0  0  0  0  0  0  0  0  0  0
   20.1962   -4.7528  -16.7273 C   0  0  2  0  0  0  0  0  0  0  0  0
   20.9228   -5.8503  -16.1800 N   0  0  0  0  0  0  0  0  0  0  0  0
   20.1611   -3.5746  -15.7924 C   0  0  0  0  0  0  0  0  0  0  0  0
   20.7348   -2.3691  -16.1153 O   0  0  0  0  0  0  0  0  0  0  0  0
   19.5883   -3.6809  -14.6681 O   0  0  0  0  0  0  0  0  0  0  0  0
  2  1  1  6
  2  9  1  0
  3  2  1  0
  4  3  1  0
  5  4  2  0
  6  7  1  0
  6  5  1  0
  7  8  2  0
  8  4  1  0
  9 11  1  0
 10  9  2  0
 11 12  1  0
 12 13  1  6
 13 14  1  0
 14 15  1  0
 15 16  2  0
 15 19  1  0
 17 18  2  0
 17 12  1  0
 20 21  1  0
 21 23  1  0
 21 22  2  0
 24 23  1  1
 24 25  1  0
 25 17  1  0
 26 24  1  0
 26 27  1  0
 28 26  2  0
M  END
$$$$
