PMY.pdb
     RDKit          3D

 28 29  0  0  1  0  0  0  0  0999 V2000
    7.1642  -19.0386   21.6767 N   0  0  0  0  0  0  0  0  0  0  0  0
    6.2573  -20.0610   21.1344 C   0  0  0  0  0  0  0  0  0  0  0  0
    6.1277  -19.6754   19.6616 C   0  0  0  0  0  0  0  0  0  0  0  0
    7.4599  -19.0467   19.3281 C   0  0  0  0  0  0  0  0  0  0  0  0
    8.2031  -18.9587   20.6465 C   0  0  1  0  0  0  0  0  0  0  0  0
    8.9391  -17.6720   20.7716 C   0  0  0  0  0  0  0  0  0  0  0  0
    9.9718  -17.4253   20.0606 O   0  0  0  0  0  0  0  0  0  0  0  0
    6.8935  -11.6475   20.3537 C   0  0  0  0  0  0  0  0  0  0  0  0
    7.7843  -12.7491   19.2231 S   0  0  0  0  0  0  0  0  0  0  0  0
    7.9699  -14.3789   19.9882 C   0  0  0  0  0  0  0  0  0  0  0  0
    8.3831  -14.2934   21.4202 C   0  0  0  0  0  0  0  0  0  0  0  0
    9.1946  -15.4475   21.8970 C   0  0  2  0  0  0  0  0  0  0  0  0
    8.4736  -16.7174   21.6981 N   0  0  0  0  0  0  0  0  0  0  0  0
    9.4582  -15.3601   23.3543 C   0  0  0  0  0  0  0  0  0  0  0  0
    9.3853  -14.2656   24.0042 O   0  0  0  0  0  0  0  0  0  0  0  0
    7.0099  -10.8750   26.8869 O   0  0  0  0  0  0  0  0  0  0  0  0
    7.2857  -12.2020   26.6054 C   0  0  0  0  0  0  0  0  0  0  0  0
    7.0961  -12.7604   25.3631 C   0  0  0  0  0  0  0  0  0  0  0  0
    7.3716  -14.0816   25.0866 C   0  0  0  0  0  0  0  0  0  0  0  0
    7.8578  -14.8745   26.1027 C   0  0  0  0  0  0  0  0  0  0  0  0
    8.1861  -16.3113   25.9578 C   0  0  0  0  0  0  0  0  0  0  0  0
    9.6271  -16.5425   25.5593 C   0  0  2  0  0  0  0  0  0  0  0  0
    9.8129  -16.4889   24.1401 N   0  0  0  0  0  0  0  0  0  0  0  0
   10.1627  -17.8009   26.0855 C   0  0  0  0  0  0  0  0  0  0  0  0
   10.6911  -18.7589   25.2084 O   0  0  0  0  0  0  0  0  0  0  0  0
    8.0495  -14.3099   27.3582 C   0  0  0  0  0  0  0  0  0  0  0  0
    7.7762  -13.0009   27.6292 C   0  0  0  0  0  0  0  0  0  0  0  0
   10.1748  -18.0769   27.3141 O   0  0  0  0  0  0  0  0  0  0  0  0
  1  5  1  0
  1  2  1  0
  2  3  1  0
  4  3  1  0
  5  4  1  0
  6 13  1  0
  5  6  1  6
  7  6  2  0
  9  8  1  0
 10  9  1  0
 12 11  1  1
 11 10  1  0
 12 13  1  0
 14 12  1  0
 15 14  2  0
 17 16  1  0
 17 27  2  0
 18 17  1  0
 19 18  2  0
 19 20  1  0
 20 26  2  0
 21 20  1  0
 22 21  1  6
 22 24  1  0
 22 23  1  0
 23 14  1  0
 24 25  1  0
 26 27  1  0
 28 24  2  0
M  END
$$$$
