PMY.pdb
     RDKit          3D

 28 29  0  0  1  0  0  0  0  0999 V2000
    7.1590  -15.2284   18.9233 N   0  0  0  0  0  0  0  0  0  0  0  0
    6.5373  -15.0206   17.6072 C   0  0  0  0  0  0  0  0  0  0  0  0
    6.6754  -13.5154   17.3830 C   0  0  0  0  0  0  0  0  0  0  0  0
    7.9499  -13.1518   18.1074 C   0  0  0  0  0  0  0  0  0  0  0  0
    8.3739  -14.4144   18.8313 C   0  0  1  0  0  0  0  0  0  0  0  0
    8.8839  -14.1141   20.1961 C   0  0  0  0  0  0  0  0  0  0  0  0
   10.0217  -13.5603   20.3735 O   0  0  0  0  0  0  0  0  0  0  0  0
    6.9129  -12.0549   27.4652 C   0  0  0  0  0  0  0  0  0  0  0  0
    6.3689  -12.5192   25.7997 S   0  0  0  0  0  0  0  0  0  0  0  0
    7.7659  -13.2075   24.8773 C   0  0  0  0  0  0  0  0  0  0  0  0
    7.4080  -13.5462   23.4682 C   0  0  0  0  0  0  0  0  0  0  0  0
    8.5208  -14.1390   22.6756 C   0  0  2  0  0  0  0  0  0  0  0  0
    8.0823  -14.4542   21.3043 N   0  0  0  0  0  0  0  0  0  0  0  0
    8.9753  -15.4260   23.2570 C   0  0  0  0  0  0  0  0  0  0  0  0
    8.1901  -16.4122   23.4483 O   0  0  0  0  0  0  0  0  0  0  0  0
   11.1996  -15.9406   31.3931 O   0  0  0  0  0  0  0  0  0  0  0  0
   10.8495  -15.7886   30.0626 C   0  0  0  0  0  0  0  0  0  0  0  0
   10.3467  -16.8146   29.2973 C   0  0  0  0  0  0  0  0  0  0  0  0
    9.9994  -16.6597   27.9732 C   0  0  0  0  0  0  0  0  0  0  0  0
   10.1653  -15.4207   27.3944 C   0  0  0  0  0  0  0  0  0  0  0  0
    9.8483  -15.1086   25.9819 C   0  0  0  0  0  0  0  0  0  0  0  0
   10.7143  -15.8755   25.0070 C   0  0  2  0  0  0  0  0  0  0  0  0
   10.3209  -15.6605   23.6466 N   0  0  0  0  0  0  0  0  0  0  0  0
   10.7513  -17.3118   25.2947 C   0  0  0  0  0  0  0  0  0  0  0  0
   10.4833  -18.2377   24.2762 O   0  0  0  0  0  0  0  0  0  0  0  0
   10.6734  -14.3839   28.1681 C   0  0  0  0  0  0  0  0  0  0  0  0
   11.0162  -14.5399   29.4795 C   0  0  0  0  0  0  0  0  0  0  0  0
   11.0172  -17.7728   26.4360 O   0  0  0  0  0  0  0  0  0  0  0  0
  1  5  1  0
  1  2  1  0
  2  3  1  0
  4  3  1  0
  5  4  1  0
  6 13  1  0
  5  6  1  1
  7  6  2  0
  9  8  1  0
 10  9  1  0
 12 11  1  1
 11 10  1  0
 12 13  1  0
 14 12  1  0
 15 14  2  0
 17 16  1  0
 17 27  2  0
 18 17  1  0
 19 18  2  0
 19 20  1  0
 20 26  2  0
 21 20  1  0
 22 21  1  1
 22 24  1  0
 22 23  1  0
 23 14  1  0
 24 25  1  0
 26 27  1  0
 28 24  2  0
M  END
$$$$
