PMY.pdb
     RDKit          3D

 28 29  0  0  1  0  0  0  0  0999 V2000
    7.1728  -15.3930   19.4377 N   0  0  0  0  0  0  0  0  0  0  0  0
    6.6574  -15.0552   18.1028 C   0  0  0  0  0  0  0  0  0  0  0  0
    6.9224  -13.5546   17.9893 C   0  0  0  0  0  0  0  0  0  0  0  0
    8.1694  -13.3386   18.8137 C   0  0  0  0  0  0  0  0  0  0  0  0
    8.4486  -14.6735   19.4758 C   0  0  1  0  0  0  0  0  0  0  0  0
    8.8875  -14.5000   20.8866 C   0  0  0  0  0  0  0  0  0  0  0  0
   10.0167  -13.9741   21.1714 O   0  0  0  0  0  0  0  0  0  0  0  0
    5.8823  -11.1284   26.3310 C   0  0  0  0  0  0  0  0  0  0  0  0
    6.5726  -12.7929   26.1349 S   0  0  0  0  0  0  0  0  0  0  0  0
    6.5002  -13.2759   24.3921 C   0  0  0  0  0  0  0  0  0  0  0  0
    7.0868  -14.6271   24.1496 C   0  0  0  0  0  0  0  0  0  0  0  0
    8.3278  -14.6211   23.3263 C   0  0  2  0  0  0  0  0  0  0  0  0
    8.0274  -14.9302   21.9170 N   0  0  0  0  0  0  0  0  0  0  0  0
    9.2797  -15.6679   23.7723 C   0  0  0  0  0  0  0  0  0  0  0  0
    9.1838  -16.8869   23.4110 O   0  0  0  0  0  0  0  0  0  0  0  0
    9.7870  -15.7715   31.2339 O   0  0  0  0  0  0  0  0  0  0  0  0
   10.3914  -15.8584   29.9916 C   0  0  0  0  0  0  0  0  0  0  0  0
   10.8923  -17.0332   29.4817 C   0  0  0  0  0  0  0  0  0  0  0  0
   11.4934  -17.1160   28.2449 C   0  0  0  0  0  0  0  0  0  0  0  0
   11.5953  -15.9686   27.4894 C   0  0  0  0  0  0  0  0  0  0  0  0
   12.2255  -15.9022   26.1509 C   0  0  0  0  0  0  0  0  0  0  0  0
   11.3109  -16.3946   25.0511 C   0  0  2  0  0  0  0  0  0  0  0  0
   10.3726  -15.3945   24.6373 N   0  0  0  0  0  0  0  0  0  0  0  0
   10.6015  -17.6238   25.4156 C   0  0  0  0  0  0  0  0  0  0  0  0
    9.2684  -17.5624   25.8460 O   0  0  0  0  0  0  0  0  0  0  0  0
   11.0888  -14.7814   28.0049 C   0  0  0  0  0  0  0  0  0  0  0  0
   10.4937  -14.7023   29.2301 C   0  0  0  0  0  0  0  0  0  0  0  0
   11.1371  -18.7623   25.3626 O   0  0  0  0  0  0  0  0  0  0  0  0
  1  5  1  0
  1  2  1  0
  2  3  1  0
  4  3  1  0
  5  4  1  0
  6 13  1  0
  5  6  1  1
  7  6  2  0
  9  8  1  0
 10  9  1  0
 12 11  1  1
 11 10  1  0
 12 13  1  0
 14 12  1  0
 15 14  2  0
 17 16  1  0
 17 27  2  0
 18 17  1  0
 19 18  2  0
 19 20  1  0
 20 26  2  0
 21 20  1  0
 22 21  1  1
 22 24  1  0
 22 23  1  0
 23 14  1  0
 24 25  1  0
 26 27  1  0
 28 24  2  0
M  END
$$$$
