PMY.pdb
     RDKit          3D

 28 29  0  0  1  0  0  0  0  0999 V2000
    7.0784  -17.7331   21.1553 N   0  0  0  0  0  0  0  0  0  0  0  0
    6.1318  -18.3517   20.2155 C   0  0  0  0  0  0  0  0  0  0  0  0
    5.8113  -17.2213   19.2388 C   0  0  0  0  0  0  0  0  0  0  0  0
    7.0784  -16.4000   19.1993 C   0  0  0  0  0  0  0  0  0  0  0  0
    7.9785  -17.0001   20.2612 C   0  0  1  0  0  0  0  0  0  0  0  0
    8.6980  -15.9452   21.0243 C   0  0  0  0  0  0  0  0  0  0  0  0
    9.7218  -15.3547   20.5384 O   0  0  0  0  0  0  0  0  0  0  0  0
    6.3888  -11.7831   25.9727 C   0  0  0  0  0  0  0  0  0  0  0  0
    6.8955  -13.4840   26.3410 S   0  0  0  0  0  0  0  0  0  0  0  0
    7.0175  -14.4256   24.8001 C   0  0  0  0  0  0  0  0  0  0  0  0
    7.7440  -13.6787   23.7310 C   0  0  0  0  0  0  0  0  0  0  0  0
    8.8058  -14.4647   23.0434 C   0  0  2  0  0  0  0  0  0  0  0  0
    8.2269  -15.6030   22.3078 N   0  0  0  0  0  0  0  0  0  0  0  0
    9.7572  -15.0575   24.0152 C   0  0  0  0  0  0  0  0  0  0  0  0
   10.0955  -14.4705   25.0954 O   0  0  0  0  0  0  0  0  0  0  0  0
   10.7772  -14.0689   30.4950 O   0  0  0  0  0  0  0  0  0  0  0  0
   10.5645  -14.8960   29.4056 C   0  0  0  0  0  0  0  0  0  0  0  0
   11.2871  -16.0448   29.1835 C   0  0  0  0  0  0  0  0  0  0  0  0
   11.0727  -16.8654   28.0979 C   0  0  0  0  0  0  0  0  0  0  0  0
   10.0905  -16.5156   27.1977 C   0  0  0  0  0  0  0  0  0  0  0  0
    9.7567  -17.2913   25.9812 C   0  0  0  0  0  0  0  0  0  0  0  0
   10.8050  -17.1575   24.8987 C   0  0  2  0  0  0  0  0  0  0  0  0
   10.3663  -16.3254   23.8185 N   0  0  0  0  0  0  0  0  0  0  0  0
   11.2496  -18.4542   24.3808 C   0  0  0  0  0  0  0  0  0  0  0  0
   12.1496  -19.2336   25.1218 O   0  0  0  0  0  0  0  0  0  0  0  0
    9.3602  -15.3546   27.4225 C   0  0  0  0  0  0  0  0  0  0  0  0
    9.5743  -14.5438   28.4987 C   0  0  0  0  0  0  0  0  0  0  0  0
   10.8580  -18.9195   23.2782 O   0  0  0  0  0  0  0  0  0  0  0  0
  1  5  1  0
  1  2  1  0
  2  3  1  0
  4  3  1  0
  5  4  1  0
  6 13  1  0
  5  6  1  1
  7  6  2  0
  9  8  1  0
 10  9  1  0
 12 11  1  1
 11 10  1  0
 12 13  1  0
 14 12  1  0
 15 14  2  0
 17 16  1  0
 17 27  2  0
 18 17  1  0
 19 18  2  0
 19 20  1  0
 20 26  2  0
 21 20  1  0
 22 21  1  1
 22 24  1  0
 22 23  1  0
 23 14  1  0
 24 25  1  0
 26 27  1  0
 28 24  2  0
M  END
$$$$
