PMY.pdb
     RDKit          3D

 28 29  0  0  1  0  0  0  0  0999 V2000
    7.0114  -14.8294   18.8360 N   0  0  0  0  0  0  0  0  0  0  0  0
    6.5023  -14.3479   17.5434 C   0  0  0  0  0  0  0  0  0  0  0  0
    6.9579  -12.8899   17.5032 C   0  0  0  0  0  0  0  0  0  0  0  0
    8.2482  -12.8868   18.2883 C   0  0  0  0  0  0  0  0  0  0  0  0
    8.3711  -14.2840   18.8635 C   0  0  1  0  0  0  0  0  0  0  0  0
    8.8740  -14.2541   20.2631 C   0  0  0  0  0  0  0  0  0  0  0  0
   10.0264  -13.7797   20.5453 O   0  0  0  0  0  0  0  0  0  0  0  0
    5.3799  -13.2517   26.1213 C   0  0  0  0  0  0  0  0  0  0  0  0
    6.7469  -12.1914   25.5805 S   0  0  0  0  0  0  0  0  0  0  0  0
    7.9815  -13.1916   24.7137 C   0  0  0  0  0  0  0  0  0  0  0  0
    7.4652  -13.7470   23.4278 C   0  0  0  0  0  0  0  0  0  0  0  0
    8.4299  -14.6194   22.7023 C   0  0  2  0  0  0  0  0  0  0  0  0
    8.0489  -14.7635   21.2860 N   0  0  0  0  0  0  0  0  0  0  0  0
    8.4400  -15.9954   23.2569 C   0  0  0  0  0  0  0  0  0  0  0  0
    7.3862  -16.7058   23.3593 O   0  0  0  0  0  0  0  0  0  0  0  0
   11.5514  -15.9551   31.1735 O   0  0  0  0  0  0  0  0  0  0  0  0
   11.2697  -15.7798   29.8296 C   0  0  0  0  0  0  0  0  0  0  0  0
   10.4910  -14.7507   29.3545 C   0  0  0  0  0  0  0  0  0  0  0  0
   10.2126  -14.5793   28.0163 C   0  0  0  0  0  0  0  0  0  0  0  0
   10.7392  -15.4814   27.1182 C   0  0  0  0  0  0  0  0  0  0  0  0
   10.5159  -15.4318   25.6551 C   0  0  0  0  0  0  0  0  0  0  0  0
    9.9680  -16.7300   25.1047 C   0  0  2  0  0  0  0  0  0  0  0  0
    9.6245  -16.6293   23.7177 N   0  0  0  0  0  0  0  0  0  0  0  0
    8.8199  -17.2263   25.8682 C   0  0  0  0  0  0  0  0  0  0  0  0
    8.9216  -18.4266   26.5861 O   0  0  0  0  0  0  0  0  0  0  0  0
   11.5263  -16.5213   27.5986 C   0  0  0  0  0  0  0  0  0  0  0  0
   11.8008  -16.6885   28.9246 C   0  0  0  0  0  0  0  0  0  0  0  0
    7.7180  -16.6187   25.9164 O   0  0  0  0  0  0  0  0  0  0  0  0
  1  5  1  0
  1  2  1  0
  2  3  1  0
  4  3  1  0
  5  4  1  0
  6 13  1  0
  5  6  1  1
  7  6  2  0
  9  8  1  0
 10  9  1  0
 12 11  1  1
 11 10  1  0
 12 13  1  0
 14 12  1  0
 15 14  2  0
 17 16  1  0
 17 27  2  0
 18 17  1  0
 19 18  2  0
 19 20  1  0
 20 26  2  0
 21 20  1  0
 22 21  1  1
 22 24  1  0
 22 23  1  0
 23 14  1  0
 24 25  1  0
 26 27  1  0
 28 24  2  0
M  END
$$$$
