PMY.pdb
     RDKit          3D

 28 29  0  0  1  0  0  0  0  0999 V2000
    7.1517  -17.3726   19.7367 N   0  0  0  0  0  0  0  0  0  0  0  0
    6.5740  -17.7192   18.4298 C   0  0  0  0  0  0  0  0  0  0  0  0
    6.8163  -16.4653   17.5909 C   0  0  0  0  0  0  0  0  0  0  0  0
    8.0959  -15.8905   18.1509 C   0  0  0  0  0  0  0  0  0  0  0  0
    8.4195  -16.7394   19.3644 C   0  0  1  0  0  0  0  0  0  0  0  0
    8.9182  -15.9081   20.4928 C   0  0  0  0  0  0  0  0  0  0  0  0
   10.0625  -15.3414   20.4457 O   0  0  0  0  0  0  0  0  0  0  0  0
    6.6002  -11.5828   26.6722 C   0  0  0  0  0  0  0  0  0  0  0  0
    6.1364  -12.8044   25.4161 S   0  0  0  0  0  0  0  0  0  0  0  0
    7.6188  -13.3665   24.5429 C   0  0  0  0  0  0  0  0  0  0  0  0
    7.3031  -14.3164   23.4354 C   0  0  0  0  0  0  0  0  0  0  0  0
    8.4972  -14.8570   22.7284 C   0  0  2  0  0  0  0  0  0  0  0  0
    8.0983  -15.7533   21.6287 N   0  0  0  0  0  0  0  0  0  0  0  0
    9.3364  -15.6808   23.6329 C   0  0  0  0  0  0  0  0  0  0  0  0
    8.9975  -16.8491   24.0149 O   0  0  0  0  0  0  0  0  0  0  0  0
   11.5814  -16.4821   31.7388 O   0  0  0  0  0  0  0  0  0  0  0  0
   11.2146  -16.0734   30.4682 C   0  0  0  0  0  0  0  0  0  0  0  0
   11.2763  -14.7633   30.0546 C   0  0  0  0  0  0  0  0  0  0  0  0
   10.9103  -14.3601   28.7892 C   0  0  0  0  0  0  0  0  0  0  0  0
   10.4629  -15.3149   27.9026 C   0  0  0  0  0  0  0  0  0  0  0  0
   10.0247  -15.0293   26.5172 C   0  0  0  0  0  0  0  0  0  0  0  0
   11.0212  -15.5017   25.4816 C   0  0  2  0  0  0  0  0  0  0  0  0
   10.5832  -15.2326   24.1447 N   0  0  0  0  0  0  0  0  0  0  0  0
   11.3499  -16.9228   25.6224 C   0  0  0  0  0  0  0  0  0  0  0  0
   10.3382  -17.8890   25.5269 O   0  0  0  0  0  0  0  0  0  0  0  0
   10.4009  -16.6389   28.3208 C   0  0  0  0  0  0  0  0  0  0  0  0
   10.7644  -17.0356   29.5746 C   0  0  0  0  0  0  0  0  0  0  0  0
   12.5215  -17.3351   25.8301 O   0  0  0  0  0  0  0  0  0  0  0  0
  1  5  1  0
  1  2  1  0
  2  3  1  0
  4  3  1  0
  5  4  1  0
  6 13  1  0
  5  6  1  1
  7  6  2  0
  9  8  1  0
 10  9  1  0
 12 11  1  1
 11 10  1  0
 12 13  1  0
 14 12  1  0
 15 14  2  0
 17 16  1  0
 17 27  2  0
 18 17  1  0
 19 18  2  0
 19 20  1  0
 20 26  2  0
 21 20  1  0
 22 21  1  1
 22 24  1  0
 22 23  1  0
 23 14  1  0
 24 25  1  0
 26 27  1  0
 28 24  2  0
M  END
$$$$
