PMY.pdb
     RDKit          3D

 28 29  0  0  1  0  0  0  0  0999 V2000
    7.0834  -15.4647   19.3244 N   0  0  0  0  0  0  0  0  0  0  0  0
    6.5998  -15.2722   17.9493 C   0  0  0  0  0  0  0  0  0  0  0  0
    7.0061  -13.8347   17.6281 C   0  0  0  0  0  0  0  0  0  0  0  0
    8.2697  -13.6229   18.4279 C   0  0  0  0  0  0  0  0  0  0  0  0
    8.4220  -14.8708   19.2750 C   0  0  1  0  0  0  0  0  0  0  0  0
    8.8784  -14.5415   20.6520 C   0  0  0  0  0  0  0  0  0  0  0  0
   10.0892  -14.2094   20.8893 O   0  0  0  0  0  0  0  0  0  0  0  0
    6.0866  -11.4269   27.3201 C   0  0  0  0  0  0  0  0  0  0  0  0
    5.7267  -12.1571   25.7006 S   0  0  0  0  0  0  0  0  0  0  0  0
    7.2475  -12.8369   24.9925 C   0  0  0  0  0  0  0  0  0  0  0  0
    7.0434  -13.3800   23.6170 C   0  0  0  0  0  0  0  0  0  0  0  0
    8.2508  -14.0161   23.0207 C   0  0  2  0  0  0  0  0  0  0  0  0
    7.9424  -14.6022   21.7041 N   0  0  0  0  0  0  0  0  0  0  0  0
    8.7398  -15.1407   23.8556 C   0  0  0  0  0  0  0  0  0  0  0  0
    8.0865  -16.2257   24.0028 O   0  0  0  0  0  0  0  0  0  0  0  0
   12.0676  -18.1437   31.3435 O   0  0  0  0  0  0  0  0  0  0  0  0
   11.7777  -17.3328   30.2599 C   0  0  0  0  0  0  0  0  0  0  0  0
   11.1778  -16.1015   30.3836 C   0  0  0  0  0  0  0  0  0  0  0  0
   10.8906  -15.2971   29.3028 C   0  0  0  0  0  0  0  0  0  0  0  0
   11.2205  -15.7504   28.0445 C   0  0  0  0  0  0  0  0  0  0  0  0
   10.9621  -15.0031   26.7923 C   0  0  0  0  0  0  0  0  0  0  0  0
   10.2111  -15.8245   25.7677 C   0  0  2  0  0  0  0  0  0  0  0  0
    9.9741  -15.0968   24.5569 N   0  0  0  0  0  0  0  0  0  0  0  0
    8.9475  -16.3549   26.2865 C   0  0  0  0  0  0  0  0  0  0  0  0
    8.8501  -17.7065   26.6471 O   0  0  0  0  0  0  0  0  0  0  0  0
   11.8271  -16.9947   27.9197 C   0  0  0  0  0  0  0  0  0  0  0  0
   12.1106  -17.7893   28.9919 C   0  0  0  0  0  0  0  0  0  0  0  0
    7.9171  -15.6454   26.4301 O   0  0  0  0  0  0  0  0  0  0  0  0
  1  5  1  0
  1  2  1  0
  2  3  1  0
  4  3  1  0
  5  4  1  0
  6 13  1  0
  5  6  1  1
  7  6  2  0
  9  8  1  0
 10  9  1  0
 12 11  1  1
 11 10  1  0
 12 13  1  0
 14 12  1  0
 15 14  2  0
 17 16  1  0
 17 27  2  0
 18 17  1  0
 19 18  2  0
 19 20  1  0
 20 26  2  0
 21 20  1  0
 22 21  1  1
 22 24  1  0
 22 23  1  0
 23 14  1  0
 24 25  1  0
 26 27  1  0
 28 24  2  0
M  END
$$$$
