THL.pdb
     RDKit          3D

 26 26  0  0  1  0  0  0  0  0999 V2000
    8.6674  -12.0317   19.1733 C   0  0  0  0  0  0  0  0  0  0  0  0
    8.7230  -12.9590   20.3614 C   0  0  1  0  0  0  0  0  0  0  0  0
    7.9454  -12.4275   21.3816 O   0  0  0  0  0  0  0  0  0  0  0  0
    8.1643  -14.3166   20.0158 C   0  0  2  0  0  0  0  0  0  0  0  0
    6.8781  -14.2739   19.3977 N   0  0  0  0  0  0  0  0  0  0  0  0
    8.2305  -15.2051   21.2012 C   0  0  0  0  0  0  0  0  0  0  0  0
    7.1526  -15.4584   21.7890 O   0  0  0  0  0  0  0  0  0  0  0  0
    9.4285  -15.7727   21.6952 N   0  0  0  0  0  0  0  0  0  0  0  0
    9.4928  -16.6136   22.8860 C   0  0  1  0  0  0  0  0  0  0  0  0
   10.5704  -17.6233   22.8005 C   0  0  0  0  0  0  0  0  0  0  0  0
   10.1817  -18.7611   21.9400 C   0  0  0  0  0  0  0  0  0  0  0  0
    8.9759  -19.0110   21.2951 C   0  0  0  0  0  0  0  0  0  0  0  0
    9.0569  -20.1875   20.6517 N   0  0  0  0  0  0  0  0  0  0  0  0
   10.2754  -20.7102   20.8577 C   0  0  0  0  0  0  0  0  0  0  0  0
   10.9487  -19.8504   21.6324 N   0  0  0  0  0  0  0  0  0  0  0  0
    9.7166  -15.7481   24.0655 C   0  0  0  0  0  0  0  0  0  0  0  0
   10.6777  -14.9137   24.0956 O   0  0  0  0  0  0  0  0  0  0  0  0
    7.9941  -12.0842   25.6974 C   0  0  0  0  0  0  0  0  0  0  0  0
    7.1932  -13.3293   25.8383 C   0  0  2  0  0  0  0  0  0  0  0  0
    5.7822  -12.9085   26.2945 C   0  0  0  0  0  0  0  0  0  0  0  0
    7.7088  -14.4419   26.6398 C   0  0  0  0  0  0  0  0  0  0  0  0
    9.0592  -15.0005   26.3463 C   0  0  2  0  0  0  0  0  0  0  0  0
    8.8297  -15.8768   25.1577 N   0  0  0  0  0  0  0  0  0  0  0  0
    9.5742  -15.9033   27.3687 C   0  0  0  0  0  0  0  0  0  0  0  0
    9.4702  -17.1564   27.2757 O   0  0  0  0  0  0  0  0  0  0  0  0
   10.2165  -15.3721   28.5116 O   0  0  0  0  0  0  0  0  0  0  0  0
  2  1  1  6
  3  2  1  0
  4  2  1  0
  4  6  1  0
  4  5  1  1
  6  7  2  0
  8  6  1  0
  8  9  1  0
  9 10  1  6
 11 10  1  0
 12 11  2  0
 13 12  1  0
 14 13  1  0
 14 15  2  0
 15 11  1  0
 16  9  1  0
 16 17  2  0
 19 18  1  1
 19 21  1  0
 19 20  1  0
 22 21  1  1
 22 23  1  0
 23 16  1  0
 24 26  1  0
 24 22  1  0
 25 24  2  0
M  END
$$$$
