THL.pdb
     RDKit          3D

 26 26  0  0  1  0  0  0  0  0999 V2000
   11.3641  -14.1335   20.6459 C   0  0  0  0  0  0  0  0  0  0  0  0
   10.5709  -13.3448   19.6343 C   0  0  1  0  0  0  0  0  0  0  0  0
   11.3821  -13.0748   18.5403 O   0  0  0  0  0  0  0  0  0  0  0  0
    9.3826  -14.1333   19.1433 C   0  0  2  0  0  0  0  0  0  0  0  0
    8.5734  -13.4336   18.1978 N   0  0  0  0  0  0  0  0  0  0  0  0
    8.6245  -14.6730   20.2978 C   0  0  0  0  0  0  0  0  0  0  0  0
    7.5787  -14.0672   20.6311 O   0  0  0  0  0  0  0  0  0  0  0  0
    9.0142  -15.8184   21.0310 N   0  0  0  0  0  0  0  0  0  0  0  0
    8.2398  -16.3715   22.1372 C   0  0  1  0  0  0  0  0  0  0  0  0
    8.2536  -17.8505   22.1455 C   0  0  0  0  0  0  0  0  0  0  0  0
    7.3710  -18.4081   21.0984 C   0  0  0  0  0  0  0  0  0  0  0  0
    6.5964  -17.7485   20.1512 C   0  0  0  0  0  0  0  0  0  0  0  0
    5.9220  -18.6560   19.4257 N   0  0  0  0  0  0  0  0  0  0  0  0
    6.2326  -19.8831   19.8706 C   0  0  0  0  0  0  0  0  0  0  0  0
    7.1037  -19.7303   20.8760 N   0  0  0  0  0  0  0  0  0  0  0  0
    8.8007  -15.8631   23.4088 C   0  0  0  0  0  0  0  0  0  0  0  0
   10.0547  -15.6989   23.5551 O   0  0  0  0  0  0  0  0  0  0  0  0
    7.7432  -11.8961   25.6301 C   0  0  0  0  0  0  0  0  0  0  0  0
    6.8401  -13.0720   25.7461 C   0  0  2  0  0  0  0  0  0  0  0  0
    5.5446  -12.5806   26.4218 C   0  0  0  0  0  0  0  0  0  0  0  0
    7.3294  -14.3105   26.3566 C   0  0  0  0  0  0  0  0  0  0  0  0
    8.4702  -15.0406   25.7343 C   0  0  2  0  0  0  0  0  0  0  0  0
    7.9004  -15.5653   24.4563 N   0  0  0  0  0  0  0  0  0  0  0  0
    8.8918  -16.2327   26.4601 C   0  0  0  0  0  0  0  0  0  0  0  0
    8.4305  -17.3774   26.2018 O   0  0  0  0  0  0  0  0  0  0  0  0
    9.8517  -16.1198   27.4928 O   0  0  0  0  0  0  0  0  0  0  0  0
  2  1  1  1
  3  2  1  0
  4  2  1  0
  4  6  1  0
  4  5  1  1
  6  7  2  0
  8  6  1  0
  8  9  1  0
  9 10  1  1
 11 10  1  0
 12 11  2  0
 13 12  1  0
 14 13  1  0
 14 15  2  0
 15 11  1  0
 16  9  1  0
 16 17  2  0
 19 18  1  1
 19 21  1  0
 19 20  1  0
 22 21  1  1
 22 23  1  0
 23 16  1  0
 24 26  1  0
 24 22  1  0
 25 24  2  0
M  END
$$$$
