THL.pdb
     RDKit          3D

 26 26  0  0  1  0  0  0  0  0999 V2000
    9.7069  -13.0122   20.2557 C   0  0  0  0  0  0  0  0  0  0  0  0
    8.8261  -13.1177   19.0361 C   0  0  1  0  0  0  0  0  0  0  0  0
    9.4928  -12.5622   17.9521 O   0  0  0  0  0  0  0  0  0  0  0  0
    8.5292  -14.5589   18.7051 C   0  0  2  0  0  0  0  0  0  0  0  0
    7.7749  -14.7346   17.5057 N   0  0  0  0  0  0  0  0  0  0  0  0
    7.9430  -15.2366   19.8865 C   0  0  0  0  0  0  0  0  0  0  0  0
    6.7586  -14.9512   20.1825 O   0  0  0  0  0  0  0  0  0  0  0  0
    8.6403  -16.1739   20.6846 N   0  0  0  0  0  0  0  0  0  0  0  0
    8.1075  -16.7368   21.9209 C   0  0  1  0  0  0  0  0  0  0  0  0
    8.5626  -18.1262   22.1448 C   0  0  0  0  0  0  0  0  0  0  0  0
    8.0680  -18.6590   23.4324 C   0  0  0  0  0  0  0  0  0  0  0  0
    6.8257  -18.5017   24.0360 C   0  0  0  0  0  0  0  0  0  0  0  0
    6.8312  -19.1302   25.2234 N   0  0  0  0  0  0  0  0  0  0  0  0
    8.0360  -19.6901   25.4110 C   0  0  0  0  0  0  0  0  0  0  0  0
    8.7768  -19.4049   24.3328 N   0  0  0  0  0  0  0  0  0  0  0  0
    8.5373  -15.8856   23.0527 C   0  0  0  0  0  0  0  0  0  0  0  0
    9.6422  -15.2541   23.0177 O   0  0  0  0  0  0  0  0  0  0  0  0
    7.8698  -12.7620   27.4729 C   0  0  0  0  0  0  0  0  0  0  0  0
    7.1899  -12.6639   26.1538 C   0  0  2  0  0  0  0  0  0  0  0  0
    5.8484  -11.9424   26.3907 C   0  0  0  0  0  0  0  0  0  0  0  0
    7.0182  -13.8633   25.3304 C   0  0  0  0  0  0  0  0  0  0  0  0
    8.0949  -14.8933   25.2917 C   0  0  2  0  0  0  0  0  0  0  0  0
    7.6825  -15.7956   24.1741 N   0  0  0  0  0  0  0  0  0  0  0  0
    8.1411  -15.7625   26.4614 C   0  0  0  0  0  0  0  0  0  0  0  0
    7.2143  -16.5717   26.7368 O   0  0  0  0  0  0  0  0  0  0  0  0
    9.2576  -15.7096   27.3283 O   0  0  0  0  0  0  0  0  0  0  0  0
  2  1  1  1
  3  2  1  0
  4  2  1  0
  4  6  1  0
  4  5  1  6
  6  7  2  0
  8  6  1  0
  8  9  1  0
  9 10  1  1
 11 10  1  0
 12 11  2  0
 13 12  1  0
 14 13  1  0
 14 15  2  0
 15 11  1  0
 16  9  1  0
 16 17  2  0
 19 18  1  1
 19 21  1  0
 19 20  1  0
 22 21  1  1
 22 23  1  0
 23 16  1  0
 24 26  1  0
 24 22  1  0
 25 24  2  0
M  END
$$$$
