THL.pdb
     RDKit          3D

 26 26  0  0  1  0  0  0  0  0999 V2000
    6.8730  -20.3276   21.8061 C   0  0  0  0  0  0  0  0  0  0  0  0
    7.6883  -19.0858   22.0663 C   0  0  1  0  0  0  0  0  0  0  0  0
    8.8264  -19.4379   22.7795 O   0  0  0  0  0  0  0  0  0  0  0  0
    8.1333  -18.4489   20.7736 C   0  0  2  0  0  0  0  0  0  0  0  0
    8.8688  -19.3247   19.9191 N   0  0  0  0  0  0  0  0  0  0  0  0
    8.8235  -17.1670   21.0551 C   0  0  0  0  0  0  0  0  0  0  0  0
   10.0456  -17.1018   20.7835 O   0  0  0  0  0  0  0  0  0  0  0  0
    8.1840  -16.0315   21.6058 N   0  0  0  0  0  0  0  0  0  0  0  0
    8.8512  -14.7508   21.8150 C   0  0  1  0  0  0  0  0  0  0  0  0
    8.0877  -13.6216   21.2407 C   0  0  0  0  0  0  0  0  0  0  0  0
    8.0973  -13.6552   19.7625 C   0  0  0  0  0  0  0  0  0  0  0  0
    8.7173  -12.7965   18.8622 C   0  0  0  0  0  0  0  0  0  0  0  0
    8.4244  -13.1858   17.6103 N   0  0  0  0  0  0  0  0  0  0  0  0
    7.6344  -14.2687   17.6676 C   0  0  0  0  0  0  0  0  0  0  0  0
    7.4397  -14.5480   18.9626 N   0  0  0  0  0  0  0  0  0  0  0  0
    9.0284  -14.5410   23.2692 C   0  0  0  0  0  0  0  0  0  0  0  0
    9.7551  -13.5946   23.7131 O   0  0  0  0  0  0  0  0  0  0  0  0
    7.7196  -12.2309   26.5273 C   0  0  0  0  0  0  0  0  0  0  0  0
    6.8954  -13.2844   25.8770 C   0  0  2  0  0  0  0  0  0  0  0  0
    5.4255  -12.9950   26.2399 C   0  0  0  0  0  0  0  0  0  0  0  0
    7.2302  -14.6971   26.0726 C   0  0  0  0  0  0  0  0  0  0  0  0
    8.5527  -15.2129   25.6177 C   0  0  2  0  0  0  0  0  0  0  0  0
    8.3652  -15.4243   24.1503 N   0  0  0  0  0  0  0  0  0  0  0  0
    8.8955  -16.5329   26.1335 C   0  0  0  0  0  0  0  0  0  0  0  0
    8.8019  -17.5760   25.4315 O   0  0  0  0  0  0  0  0  0  0  0  0
    9.3515  -16.6662   27.4659 O   0  0  0  0  0  0  0  0  0  0  0  0
  2  1  1  6
  3  2  1  0
  4  2  1  0
  4  6  1  0
  4  5  1  1
  6  7  2  0
  8  6  1  0
  8  9  1  0
  9 10  1  1
 11 10  1  0
 12 11  2  0
 13 12  1  0
 14 13  1  0
 14 15  2  0
 15 11  1  0
 16  9  1  0
 16 17  2  0
 19 18  1  1
 19 21  1  0
 19 20  1  0
 22 21  1  1
 22 23  1  0
 23 16  1  0
 24 26  1  0
 24 22  1  0
 25 24  2  0
M  END
$$$$
