THL.pdb
     RDKit          3D

 26 26  0  0  1  0  0  0  0  0999 V2000
    9.0140  -12.3281   20.4337 C   0  0  0  0  0  0  0  0  0  0  0  0
    8.3942  -12.9262   19.1957 C   0  0  1  0  0  0  0  0  0  0  0  0
    8.8404  -12.2214   18.0856 O   0  0  0  0  0  0  0  0  0  0  0  0
    8.8080  -14.3663   19.0240 C   0  0  2  0  0  0  0  0  0  0  0  0
    8.3344  -14.9656   17.8178 N   0  0  0  0  0  0  0  0  0  0  0  0
    8.4738  -15.1356   20.2468 C   0  0  0  0  0  0  0  0  0  0  0  0
    7.2820  -15.4976   20.3890 O   0  0  0  0  0  0  0  0  0  0  0  0
    9.4158  -15.4767   21.2458 N   0  0  0  0  0  0  0  0  0  0  0  0
    9.1120  -16.3422   22.3806 C   0  0  1  0  0  0  0  0  0  0  0  0
    9.8748  -17.6087   22.3385 C   0  0  0  0  0  0  0  0  0  0  0  0
    9.3544  -18.5221   21.2988 C   0  0  0  0  0  0  0  0  0  0  0  0
    9.8731  -18.8216   20.0444 C   0  0  0  0  0  0  0  0  0  0  0  0
    9.0465  -19.6767   19.4195 N   0  0  0  0  0  0  0  0  0  0  0  0
    8.0079  -19.9421   20.2264 C   0  0  0  0  0  0  0  0  0  0  0  0
    8.1961  -19.2465   21.3549 N   0  0  0  0  0  0  0  0  0  0  0  0
    9.4283  -15.6140   23.6296 C   0  0  0  0  0  0  0  0  0  0  0  0
   10.5562  -15.0462   23.7918 O   0  0  0  0  0  0  0  0  0  0  0  0
    7.7566  -11.9420   25.8390 C   0  0  0  0  0  0  0  0  0  0  0  0
    6.9461  -13.1884   25.8746 C   0  0  2  0  0  0  0  0  0  0  0  0
    5.5927  -12.8279   26.5182 C   0  0  0  0  0  0  0  0  0  0  0  0
    7.5103  -14.4093   26.4554 C   0  0  0  0  0  0  0  0  0  0  0  0
    8.8051  -14.9413   25.9431 C   0  0  2  0  0  0  0  0  0  0  0  0
    8.4388  -15.5686   24.6371 N   0  0  0  0  0  0  0  0  0  0  0  0
    9.3606  -16.0368   26.7287 C   0  0  0  0  0  0  0  0  0  0  0  0
    9.1270  -17.2460   26.4586 O   0  0  0  0  0  0  0  0  0  0  0  0
   10.1935  -15.7512   27.8358 O   0  0  0  0  0  0  0  0  0  0  0  0
  2  1  1  1
  3  2  1  0
  4  2  1  0
  4  6  1  0
  4  5  1  6
  6  7  2  0
  8  6  1  0
  8  9  1  0
  9 10  1  6
 11 10  1  0
 12 11  2  0
 13 12  1  0
 14 13  1  0
 14 15  2  0
 15 11  1  0
 16  9  1  0
 16 17  2  0
 19 18  1  1
 19 21  1  0
 19 20  1  0
 22 21  1  1
 22 23  1  0
 23 16  1  0
 24 26  1  0
 24 22  1  0
 25 24  2  0
M  END
$$$$
