THL.pdb
     RDKit          3D

 26 26  0  0  1  0  0  0  0  0999 V2000
    8.3798  -12.7572   19.1371 C   0  0  0  0  0  0  0  0  0  0  0  0
    8.4951  -13.4619   20.4655 C   0  0  1  0  0  0  0  0  0  0  0  0
    7.7931  -12.7376   21.4197 O   0  0  0  0  0  0  0  0  0  0  0  0
    7.8929  -14.8431   20.4004 C   0  0  2  0  0  0  0  0  0  0  0  0
    6.5534  -14.8686   19.9070 N   0  0  0  0  0  0  0  0  0  0  0  0
    8.0647  -15.5295   21.7035 C   0  0  0  0  0  0  0  0  0  0  0  0
    7.0443  -15.6663   22.4188 O   0  0  0  0  0  0  0  0  0  0  0  0
    9.3015  -16.0301   22.1739 N   0  0  0  0  0  0  0  0  0  0  0  0
    9.4724  -16.6680   23.4751 C   0  0  1  0  0  0  0  0  0  0  0  0
   10.6054  -17.6187   23.4879 C   0  0  0  0  0  0  0  0  0  0  0  0
   10.2419  -18.9056   22.8568 C   0  0  0  0  0  0  0  0  0  0  0  0
    9.0140  -19.3347   22.3666 C   0  0  0  0  0  0  0  0  0  0  0  0
    9.1367  -20.5938   21.9147 N   0  0  0  0  0  0  0  0  0  0  0  0
   10.4036  -20.9968   22.0955 C   0  0  0  0  0  0  0  0  0  0  0  0
   11.0650  -19.9798   22.6620 N   0  0  0  0  0  0  0  0  0  0  0  0
    9.6958  -15.6165   24.4923 C   0  0  0  0  0  0  0  0  0  0  0  0
   10.5876  -14.7228   24.3289 O   0  0  0  0  0  0  0  0  0  0  0  0
    7.8252  -11.8865   25.5066 C   0  0  0  0  0  0  0  0  0  0  0  0
    7.1448  -13.1440   25.9162 C   0  0  2  0  0  0  0  0  0  0  0  0
    5.6997  -12.7700   26.3008 C   0  0  0  0  0  0  0  0  0  0  0  0
    7.7616  -14.0134   26.9211 C   0  0  0  0  0  0  0  0  0  0  0  0
    9.1208  -14.5750   26.6782 C   0  0  2  0  0  0  0  0  0  0  0  0
    8.8879  -15.6355   25.6513 N   0  0  0  0  0  0  0  0  0  0  0  0
    9.6907  -15.2892   27.8144 C   0  0  0  0  0  0  0  0  0  0  0  0
   10.2068  -14.6905   28.7967 O   0  0  0  0  0  0  0  0  0  0  0  0
    9.6718  -16.7034   27.8323 O   0  0  0  0  0  0  0  0  0  0  0  0
  2  1  1  6
  3  2  1  0
  4  2  1  0
  4  6  1  0
  4  5  1  1
  6  7  2  0
  8  6  1  0
  8  9  1  0
  9 10  1  6
 11 10  1  0
 12 11  2  0
 13 12  1  0
 14 13  1  0
 14 15  2  0
 15 11  1  0
 16  9  1  0
 16 17  2  0
 19 18  1  1
 19 21  1  0
 19 20  1  0
 22 21  1  1
 22 23  1  0
 23 16  1  0
 24 26  1  0
 24 22  1  0
 25 24  2  0
M  END
$$$$
