THL.pdb
     RDKit          3D

 26 26  0  0  1  0  0  0  0  0999 V2000
    9.2921  -11.9402   18.7296 C   0  0  0  0  0  0  0  0  0  0  0  0
    9.0558  -12.8535   19.9063 C   0  0  1  0  0  0  0  0  0  0  0  0
    8.2118  -12.2162   20.8061 O   0  0  0  0  0  0  0  0  0  0  0  0
    8.3856  -14.1333   19.4731 C   0  0  2  0  0  0  0  0  0  0  0  0
    7.1300  -13.9384   18.8220 N   0  0  0  0  0  0  0  0  0  0  0  0
    8.3298  -15.0827   20.6107 C   0  0  0  0  0  0  0  0  0  0  0  0
    7.2070  -15.2945   21.1267 O   0  0  0  0  0  0  0  0  0  0  0  0
    9.4606  -15.7515   21.1358 N   0  0  0  0  0  0  0  0  0  0  0  0
    9.4042  -16.6604   22.2759 C   0  0  1  0  0  0  0  0  0  0  0  0
   10.3956  -17.7530   22.1702 C   0  0  0  0  0  0  0  0  0  0  0  0
   10.2298  -18.7439   23.2550 C   0  0  0  0  0  0  0  0  0  0  0  0
    9.0686  -19.3209   23.7561 C   0  0  0  0  0  0  0  0  0  0  0  0
    9.3879  -20.1414   24.7708 N   0  0  0  0  0  0  0  0  0  0  0  0
   10.7179  -20.1161   24.9455 C   0  0  0  0  0  0  0  0  0  0  0  0
   11.2207  -19.2752   24.0330 N   0  0  0  0  0  0  0  0  0  0  0  0
    9.6506  -15.8851   23.5122 C   0  0  0  0  0  0  0  0  0  0  0  0
   10.6524  -15.1056   23.6106 O   0  0  0  0  0  0  0  0  0  0  0  0
    8.3870  -12.2202   25.4632 C   0  0  0  0  0  0  0  0  0  0  0  0
    7.4248  -13.3541   25.4456 C   0  0  2  0  0  0  0  0  0  0  0  0
    6.0587  -12.7930   25.8872 C   0  0  0  0  0  0  0  0  0  0  0  0
    7.7492  -14.5974   26.1492 C   0  0  0  0  0  0  0  0  0  0  0  0
    9.0273  -15.3036   25.8503 C   0  0  2  0  0  0  0  0  0  0  0  0
    8.7387  -16.0371   24.5807 N   0  0  0  0  0  0  0  0  0  0  0  0
    9.3753  -16.3509   26.8032 C   0  0  0  0  0  0  0  0  0  0  0  0
    9.7236  -16.0957   27.9878 O   0  0  0  0  0  0  0  0  0  0  0  0
    9.3251  -17.7064   26.4018 O   0  0  0  0  0  0  0  0  0  0  0  0
  2  1  1  6
  3  2  1  0
  4  2  1  0
  4  6  1  0
  4  5  1  1
  6  7  2  0
  8  6  1  0
  8  9  1  0
  9 10  1  6
 11 10  1  0
 12 11  2  0
 13 12  1  0
 14 13  1  0
 14 15  2  0
 15 11  1  0
 16  9  1  0
 16 17  2  0
 19 18  1  1
 19 21  1  0
 19 20  1  0
 22 21  1  1
 22 23  1  0
 23 16  1  0
 24 26  1  0
 24 22  1  0
 25 24  2  0
M  END
$$$$
