THL.pdb
     RDKit          3D

 26 26  0  0  1  0  0  0  0  0999 V2000
    8.8615  -12.6067   20.1019 C   0  0  0  0  0  0  0  0  0  0  0  0
    8.4640  -13.1609   18.7568 C   0  0  1  0  0  0  0  0  0  0  0  0
    9.1131  -12.4383   17.7646 O   0  0  0  0  0  0  0  0  0  0  0  0
    8.8786  -14.6046   18.6213 C   0  0  2  0  0  0  0  0  0  0  0  0
    8.5559  -15.1842   17.3572 N   0  0  0  0  0  0  0  0  0  0  0  0
    8.3814  -15.3824   19.7818 C   0  0  0  0  0  0  0  0  0  0  0  0
    7.2028  -15.8060   19.7259 O   0  0  0  0  0  0  0  0  0  0  0  0
    9.1563  -15.6667   20.9308 N   0  0  0  0  0  0  0  0  0  0  0  0
    8.6332  -16.3509   22.1087 C   0  0  1  0  0  0  0  0  0  0  0  0
    9.1826  -17.7167   22.2525 C   0  0  0  0  0  0  0  0  0  0  0  0
   10.6586  -17.7207   22.1650 C   0  0  0  0  0  0  0  0  0  0  0  0
   11.4841  -17.3076   21.1257 C   0  0  0  0  0  0  0  0  0  0  0  0
   12.7645  -17.5294   21.4665 N   0  0  0  0  0  0  0  0  0  0  0  0
   12.7978  -18.0732   22.6926 C   0  0  0  0  0  0  0  0  0  0  0  0
   11.5305  -18.1869   23.1093 N   0  0  0  0  0  0  0  0  0  0  0  0
    8.9693  -15.5524   23.3086 C   0  0  0  0  0  0  0  0  0  0  0  0
   10.0153  -14.8275   23.3439 O   0  0  0  0  0  0  0  0  0  0  0  0
    5.5791  -12.2240   26.8782 C   0  0  0  0  0  0  0  0  0  0  0  0
    6.9187  -12.7901   26.5669 C   0  0  2  0  0  0  0  0  0  0  0  0
    7.8217  -11.6108   26.1545 C   0  0  0  0  0  0  0  0  0  0  0  0
    7.0376  -13.9118   25.6322 C   0  0  0  0  0  0  0  0  0  0  0  0
    8.3206  -14.6651   25.5413 C   0  0  2  0  0  0  0  0  0  0  0  0
    8.0923  -15.6196   24.4143 N   0  0  0  0  0  0  0  0  0  0  0  0
    8.6015  -15.5193   26.6890 C   0  0  0  0  0  0  0  0  0  0  0  0
    8.0084  -16.6164   26.8738 O   0  0  0  0  0  0  0  0  0  0  0  0
    9.5711  -15.1190   27.6380 O   0  0  0  0  0  0  0  0  0  0  0  0
  2  1  1  1
  3  2  1  0
  4  2  1  0
  4  6  1  0
  4  5  1  6
  6  7  2  0
  8  6  1  0
  8  9  1  0
  9 10  1  1
 11 10  1  0
 12 11  2  0
 13 12  1  0
 14 13  1  0
 14 15  2  0
 15 11  1  0
 16  9  1  0
 16 17  2  0
 19 18  1  6
 19 21  1  0
 19 20  1  0
 22 21  1  1
 22 23  1  0
 23 16  1  0
 24 26  1  0
 24 22  1  0
 25 24  2  0
M  END
$$$$
