THL.pdb
     RDKit          3D

 26 26  0  0  1  0  0  0  0  0999 V2000
   10.9675  -16.9697   18.5605 C   0  0  0  0  0  0  0  0  0  0  0  0
   10.0257  -16.6125   19.6830 C   0  0  1  0  0  0  0  0  0  0  0  0
    9.3050  -15.4822   19.3210 O   0  0  0  0  0  0  0  0  0  0  0  0
    9.0401  -17.7252   19.9382 C   0  0  2  0  0  0  0  0  0  0  0  0
    8.1838  -18.0063   18.8310 N   0  0  0  0  0  0  0  0  0  0  0  0
    8.3157  -17.4751   21.2077 C   0  0  0  0  0  0  0  0  0  0  0  0
    7.1574  -17.0030   21.1238 O   0  0  0  0  0  0  0  0  0  0  0  0
    8.8559  -17.7376   22.4887 N   0  0  0  0  0  0  0  0  0  0  0  0
    8.1016  -17.5903   23.7290 C   0  0  1  0  0  0  0  0  0  0  0  0
    7.9625  -18.8715   24.4549 C   0  0  0  0  0  0  0  0  0  0  0  0
    6.7990  -19.6459   23.9723 C   0  0  0  0  0  0  0  0  0  0  0  0
    5.8001  -19.2770   23.0788 C   0  0  0  0  0  0  0  0  0  0  0  0
    4.9200  -20.2853   22.9626 N   0  0  0  0  0  0  0  0  0  0  0  0
    5.3140  -21.2967   23.7513 C   0  0  0  0  0  0  0  0  0  0  0  0
    6.4436  -20.9089   24.3567 N   0  0  0  0  0  0  0  0  0  0  0  0
    8.7933  -16.6051   24.5899 C   0  0  0  0  0  0  0  0  0  0  0  0
   10.0602  -16.4824   24.5615 O   0  0  0  0  0  0  0  0  0  0  0  0
    7.9777  -12.1633   24.8302 C   0  0  0  0  0  0  0  0  0  0  0  0
    7.0930  -13.0216   25.6622 C   0  0  2  0  0  0  0  0  0  0  0  0
    5.9708  -12.1168   26.2082 C   0  0  0  0  0  0  0  0  0  0  0  0
    7.6704  -13.8590   26.7165 C   0  0  0  0  0  0  0  0  0  0  0  0
    8.7108  -14.8691   26.3712 C   0  0  2  0  0  0  0  0  0  0  0  0
    8.0033  -15.8043   25.4448 N   0  0  0  0  0  0  0  0  0  0  0  0
    9.1290  -15.7102   27.4862 C   0  0  0  0  0  0  0  0  0  0  0  0
    8.6769  -16.8745   27.6588 O   0  0  0  0  0  0  0  0  0  0  0  0
   10.0748  -15.2191   28.4164 O   0  0  0  0  0  0  0  0  0  0  0  0
  2  1  1  6
  3  2  1  0
  4  2  1  0
  4  6  1  0
  4  5  1  6
  6  7  2  0
  8  6  1  0
  8  9  1  0
  9 10  1  1
 11 10  1  0
 12 11  2  0
 13 12  1  0
 14 13  1  0
 14 15  2  0
 15 11  1  0
 16  9  1  0
 16 17  2  0
 19 18  1  1
 19 21  1  0
 19 20  1  0
 22 21  1  1
 22 23  1  0
 23 16  1  0
 24 26  1  0
 24 22  1  0
 25 24  2  0
M  END
$$$$
