THL.pdb
     RDKit          3D

 26 26  0  0  1  0  0  0  0  0999 V2000
    9.0984  -12.3410   20.6971 C   0  0  0  0  0  0  0  0  0  0  0  0
    8.2350  -12.8750   19.5818 C   0  0  1  0  0  0  0  0  0  0  0  0
    8.4748  -12.1316   18.4339 O   0  0  0  0  0  0  0  0  0  0  0  0
    8.5709  -14.3135   19.2776 C   0  0  2  0  0  0  0  0  0  0  0  0
    7.8568  -14.8527   18.1652 N   0  0  0  0  0  0  0  0  0  0  0  0
    8.4615  -15.1281   20.5119 C   0  0  0  0  0  0  0  0  0  0  0  0
    7.3217  -15.5472   20.8234 O   0  0  0  0  0  0  0  0  0  0  0  0
    9.5596  -15.4518   21.3430 N   0  0  0  0  0  0  0  0  0  0  0  0
    9.4581  -16.3124   22.5169 C   0  0  1  0  0  0  0  0  0  0  0  0
   10.4662  -17.3947   22.5063 C   0  0  0  0  0  0  0  0  0  0  0  0
   10.0541  -18.5124   21.6303 C   0  0  0  0  0  0  0  0  0  0  0  0
    8.8928  -18.6682   20.8823 C   0  0  0  0  0  0  0  0  0  0  0  0
    8.9238  -19.8614   20.2658 N   0  0  0  0  0  0  0  0  0  0  0  0
   10.0665  -20.4858   20.5889 C   0  0  0  0  0  0  0  0  0  0  0  0
   10.7434  -19.6723   21.4092 N   0  0  0  0  0  0  0  0  0  0  0  0
    9.6345  -15.4824   23.7294 C   0  0  0  0  0  0  0  0  0  0  0  0
   10.6547  -14.7341   23.8711 O   0  0  0  0  0  0  0  0  0  0  0  0
    7.7007  -11.9539   25.6875 C   0  0  0  0  0  0  0  0  0  0  0  0
    6.9700  -13.2460   25.7781 C   0  0  2  0  0  0  0  0  0  0  0  0
    5.5662  -12.9322   26.3322 C   0  0  0  0  0  0  0  0  0  0  0  0
    7.5808  -14.3827   26.4715 C   0  0  0  0  0  0  0  0  0  0  0  0
    8.9152  -14.8839   26.0355 C   0  0  2  0  0  0  0  0  0  0  0  0
    8.6345  -15.5462   24.7255 N   0  0  0  0  0  0  0  0  0  0  0  0
    9.4626  -15.9471   26.8696 C   0  0  0  0  0  0  0  0  0  0  0  0
    9.9441  -15.7259   28.0137 O   0  0  0  0  0  0  0  0  0  0  0  0
    9.4610  -17.2795   26.3947 O   0  0  0  0  0  0  0  0  0  0  0  0
  2  1  1  1
  3  2  1  0
  4  2  1  0
  4  6  1  0
  4  5  1  6
  6  7  2  0
  8  6  1  0
  8  9  1  0
  9 10  1  6
 11 10  1  0
 12 11  2  0
 13 12  1  0
 14 13  1  0
 14 15  2  0
 15 11  1  0
 16  9  1  0
 16 17  2  0
 19 18  1  1
 19 21  1  0
 19 20  1  0
 22 21  1  1
 22 23  1  0
 23 16  1  0
 24 26  1  0
 24 22  1  0
 25 24  2  0
M  END
$$$$
