THL.pdb
     RDKit          3D

 26 26  0  0  1  0  0  0  0  0999 V2000
    9.9348  -12.4300   20.5417 C   0  0  0  0  0  0  0  0  0  0  0  0
    8.9668  -12.6672   19.4097 C   0  0  1  0  0  0  0  0  0  0  0  0
    9.4350  -12.0169   18.2758 O   0  0  0  0  0  0  0  0  0  0  0  0
    8.8597  -14.1366   19.0871 C   0  0  2  0  0  0  0  0  0  0  0  0
    8.0066  -14.4261   17.9795 N   0  0  0  0  0  0  0  0  0  0  0  0
    8.5274  -14.8989   20.3148 C   0  0  0  0  0  0  0  0  0  0  0  0
    7.3168  -14.9790   20.6303 O   0  0  0  0  0  0  0  0  0  0  0  0
    9.4911  -15.5305   21.1357 N   0  0  0  0  0  0  0  0  0  0  0  0
    9.1525  -16.3511   22.2938 C   0  0  1  0  0  0  0  0  0  0  0  0
    9.9387  -17.6031   22.3416 C   0  0  0  0  0  0  0  0  0  0  0  0
    9.3492  -18.6482   21.4776 C   0  0  0  0  0  0  0  0  0  0  0  0
    8.1835  -18.6165   20.7209 C   0  0  0  0  0  0  0  0  0  0  0  0
    8.0160  -19.8071   20.1215 N   0  0  0  0  0  0  0  0  0  0  0  0
    9.0341  -20.6110   20.4641 C   0  0  0  0  0  0  0  0  0  0  0  0
    9.8333  -19.9114   21.2792 N   0  0  0  0  0  0  0  0  0  0  0  0
    9.4001  -15.5629   23.5216 C   0  0  0  0  0  0  0  0  0  0  0  0
   10.4597  -14.8698   23.6552 O   0  0  0  0  0  0  0  0  0  0  0  0
    7.4567  -12.0393   25.5149 C   0  0  0  0  0  0  0  0  0  0  0  0
    6.7454  -13.3366   25.6658 C   0  0  2  0  0  0  0  0  0  0  0  0
    5.3793  -13.0295   26.3104 C   0  0  0  0  0  0  0  0  0  0  0  0
    7.4118  -14.4617   26.3263 C   0  0  0  0  0  0  0  0  0  0  0  0
    8.7404  -14.9254   25.8350 C   0  0  2  0  0  0  0  0  0  0  0  0
    8.4232  -15.6034   24.5415 N   0  0  0  0  0  0  0  0  0  0  0  0
    9.3552  -15.9669   26.6493 C   0  0  0  0  0  0  0  0  0  0  0  0
    9.2514  -17.1916   26.3681 O   0  0  0  0  0  0  0  0  0  0  0  0
   10.0983  -15.6087   27.7984 O   0  0  0  0  0  0  0  0  0  0  0  0
  2  1  1  1
  3  2  1  0
  4  2  1  0
  4  6  1  0
  4  5  1  6
  6  7  2  0
  8  6  1  0
  8  9  1  0
  9 10  1  1
 11 10  1  0
 12 11  2  0
 13 12  1  0
 14 13  1  0
 14 15  2  0
 15 11  1  0
 16  9  1  0
 16 17  2  0
 19 18  1  1
 19 21  1  0
 19 20  1  0
 22 21  1  1
 22 23  1  0
 23 16  1  0
 24 26  1  0
 24 22  1  0
 25 24  2  0
M  END
$$$$
