THL.pdb
     RDKit          3D

 26 26  0  0  1  0  0  0  0  0999 V2000
    9.8568  -21.1559   22.1469 C   0  0  0  0  0  0  0  0  0  0  0  0
    9.9001  -19.6731   22.4188 C   0  0  1  0  0  0  0  0  0  0  0  0
   11.0550  -19.3817   23.1326 O   0  0  0  0  0  0  0  0  0  0  0  0
    9.9430  -18.8872   21.1323 C   0  0  2  0  0  0  0  0  0  0  0  0
   11.0566  -19.2034   20.2967 N   0  0  0  0  0  0  0  0  0  0  0  0
    9.8026  -17.4396   21.4215 C   0  0  0  0  0  0  0  0  0  0  0  0
   10.8580  -16.7793   21.5698 O   0  0  0  0  0  0  0  0  0  0  0  0
    8.5588  -16.7755   21.5369 N   0  0  0  0  0  0  0  0  0  0  0  0
    8.4275  -15.3473   21.8054 C   0  0  1  0  0  0  0  0  0  0  0  0
    7.3571  -14.7222   20.9984 C   0  0  0  0  0  0  0  0  0  0  0  0
    7.8499  -14.3131   19.6658 C   0  0  0  0  0  0  0  0  0  0  0  0
    9.1290  -14.4046   19.1293 C   0  0  0  0  0  0  0  0  0  0  0  0
    9.1273  -13.8731   17.8955 N   0  0  0  0  0  0  0  0  0  0  0  0
    7.8896  -13.4391   17.6130 C   0  0  0  0  0  0  0  0  0  0  0  0
    7.1244  -13.7051   18.6791 N   0  0  0  0  0  0  0  0  0  0  0  0
    8.1368  -15.1607   23.2445 C   0  0  0  0  0  0  0  0  0  0  0  0
    7.0345  -15.5503   23.7484 O   0  0  0  0  0  0  0  0  0  0  0  0
    5.3084  -12.5447   26.3288 C   0  0  0  0  0  0  0  0  0  0  0  0
    6.6922  -13.0685   26.4786 C   0  0  2  0  0  0  0  0  0  0  0  0
    7.4576  -12.0713   27.3708 C   0  0  0  0  0  0  0  0  0  0  0  0
    7.4673  -13.4325   25.2900 C   0  0  0  0  0  0  0  0  0  0  0  0
    8.7523  -14.1720   25.4438 C   0  0  2  0  0  0  0  0  0  0  0  0
    9.1217  -14.5363   24.0423 N   0  0  0  0  0  0  0  0  0  0  0  0
    8.6334  -15.4519   26.1320 C   0  0  0  0  0  0  0  0  0  0  0  0
    7.9364  -16.3992   25.6777 O   0  0  0  0  0  0  0  0  0  0  0  0
    9.3179  -15.6555   27.3531 O   0  0  0  0  0  0  0  0  0  0  0  0
  2  1  1  6
  3  2  1  0
  4  2  1  0
  4  6  1  0
  4  5  1  1
  6  7  2  0
  8  6  1  0
  8  9  1  0
  9 10  1  6
 11 10  1  0
 12 11  2  0
 13 12  1  0
 14 13  1  0
 14 15  2  0
 15 11  1  0
 16  9  1  0
 16 17  2  0
 19 18  1  6
 19 21  1  0
 19 20  1  0
 22 21  1  6
 22 23  1  0
 23 16  1  0
 24 26  1  0
 24 22  1  0
 25 24  2  0
M  END
$$$$
