AKM.pdb
     RDKit          3D

 23 22  0  0  1  0  0  0  0  0999 V2000
    8.8715  -12.1033   19.3096 C   0  0  0  0  0  0  0  0  0  0  0  0
    8.7886  -13.4328   18.6277 C   0  0  2  0  0  0  0  0  0  0  0  0
    7.8559  -13.4826   17.5470 N   0  0  0  0  0  0  0  0  0  0  0  0
    8.4635  -14.4553   19.6858 C   0  0  0  0  0  0  0  0  0  0  0  0
    7.2728  -14.7236   19.9830 O   0  0  0  0  0  0  0  0  0  0  0  0
    9.4753  -15.1565   20.3897 N   0  0  0  0  0  0  0  0  0  0  0  0
    9.1751  -16.1560   21.3853 C   0  0  1  0  0  0  0  0  0  0  0  0
   10.2757  -17.2233   21.2515 C   0  0  0  0  0  0  0  0  0  0  0  0
    9.8383  -18.3407   20.3645 C   0  0  0  0  0  0  0  0  0  0  0  0
   10.9562  -19.3345   20.2041 C   0  0  0  0  0  0  0  0  0  0  0  0
   10.4976  -20.5164   19.4061 C   0  0  0  0  0  0  0  0  0  0  0  0
   11.5874  -21.4411   19.1321 N   0  0  0  0  0  0  0  0  0  0  0  0
    9.2941  -15.6266   22.7675 C   0  0  0  0  0  0  0  0  0  0  0  0
   10.3651  -15.0373   23.1004 O   0  0  0  0  0  0  0  0  0  0  0  0
    6.5422  -11.1189   27.9158 C   0  0  0  0  0  0  0  0  0  0  0  0
    6.9785  -11.8966   26.3451 S   0  0  0  0  0  0  0  0  0  0  0  0
    6.8256  -13.6815   26.5085 C   0  0  0  0  0  0  0  0  0  0  0  0
    6.9736  -14.3957   25.1938 C   0  0  0  0  0  0  0  0  0  0  0  0
    8.3461  -15.0022   25.0009 C   0  0  2  0  0  0  0  0  0  0  0  0
    8.2845  -15.7396   23.7367 N   0  0  0  0  0  0  0  0  0  0  0  0
    8.6943  -15.9606   26.0990 C   0  0  0  0  0  0  0  0  0  0  0  0
    8.4940  -17.2079   25.9776 O   0  0  0  0  0  0  0  0  0  0  0  0
    9.2488  -15.5320   27.2925 O   0  0  0  0  0  0  0  0  0  0  0  0
  2  1  1  1
  2  3  1  0
  4  2  1  0
  5  4  2  0
  6  4  1  0
  7 13  1  0
  7  6  1  0
  7  8  1  1
  9  8  1  0
 10 11  1  0
 10  9  1  0
 11 12  1  0
 13 14  2  0
 16 17  1  0
 16 15  1  0
 17 18  1  0
 19 21  1  0
 19 18  1  1
 20 19  1  0
 20 13  1  0
 21 23  1  0
 22 21  2  0
M  END
$$$$
