AKM.pdb
     RDKit          3D

 23 22  0  0  1  0  0  0  0  0999 V2000
    7.4283  -12.5211   18.9237 C   0  0  0  0  0  0  0  0  0  0  0  0
    8.6651  -13.3020   19.2403 C   0  0  2  0  0  0  0  0  0  0  0  0
    9.1623  -14.0830   18.1525 N   0  0  0  0  0  0  0  0  0  0  0  0
    8.3542  -14.1596   20.4396 C   0  0  0  0  0  0  0  0  0  0  0  0
    7.9829  -13.6459   21.5243 O   0  0  0  0  0  0  0  0  0  0  0  0
    8.4645  -15.5729   20.4023 N   0  0  0  0  0  0  0  0  0  0  0  0
    8.2213  -16.3993   21.5591 C   0  0  1  0  0  0  0  0  0  0  0  0
    8.6595  -17.8190   21.1584 C   0  0  0  0  0  0  0  0  0  0  0  0
    8.5255  -18.7677   22.3023 C   0  0  0  0  0  0  0  0  0  0  0  0
    8.9550  -20.1455   21.8776 C   0  0  0  0  0  0  0  0  0  0  0  0
    8.6893  -21.1377   22.9680 C   0  0  0  0  0  0  0  0  0  0  0  0
    8.9558  -22.5017   22.5361 N   0  0  0  0  0  0  0  0  0  0  0  0
    9.0808  -16.0228   22.7100 C   0  0  0  0  0  0  0  0  0  0  0  0
   10.2766  -15.6711   22.4834 O   0  0  0  0  0  0  0  0  0  0  0  0
    5.3425  -12.9979   27.5866 C   0  0  0  0  0  0  0  0  0  0  0  0
    7.0818  -12.8804   27.1141 S   0  0  0  0  0  0  0  0  0  0  0  0
    7.4722  -14.2103   25.9674 C   0  0  0  0  0  0  0  0  0  0  0  0
    8.8818  -14.1307   25.4503 C   0  0  0  0  0  0  0  0  0  0  0  0
    9.4706  -15.4860   25.1259 C   0  0  2  0  0  0  0  0  0  0  0  0
    8.6465  -16.0327   24.0452 N   0  0  0  0  0  0  0  0  0  0  0  0
    9.4070  -16.4190   26.2967 C   0  0  0  0  0  0  0  0  0  0  0  0
    8.6078  -17.4047   26.3155 O   0  0  0  0  0  0  0  0  0  0  0  0
   10.2141  -16.2503   27.4085 O   0  0  0  0  0  0  0  0  0  0  0  0
  2  1  1  6
  2  3  1  0
  4  2  1  0
  5  4  2  0
  6  4  1  0
  7 13  1  0
  7  6  1  0
  7  8  1  6
  9  8  1  0
 10 11  1  0
 10  9  1  0
 11 12  1  0
 13 14  2  0
 16 17  1  0
 16 15  1  0
 17 18  1  0
 19 21  1  0
 19 18  1  1
 20 19  1  0
 20 13  1  0
 21 23  1  0
 22 21  2  0
M  END
$$$$
