AKM.pdb
     RDKit          3D

 23 22  0  0  1  0  0  0  0  0999 V2000
    5.6624  -19.4173   19.7602 C   0  0  0  0  0  0  0  0  0  0  0  0
    6.1099  -18.0032   19.9597 C   0  0  2  0  0  0  0  0  0  0  0  0
    6.7214  -17.4122   18.8121 N   0  0  0  0  0  0  0  0  0  0  0  0
    7.0380  -17.9943   21.1468 C   0  0  0  0  0  0  0  0  0  0  0  0
    6.6981  -18.5147   22.2385 O   0  0  0  0  0  0  0  0  0  0  0  0
    8.3263  -17.4043   21.0895 N   0  0  0  0  0  0  0  0  0  0  0  0
    9.2669  -17.4915   22.1795 C   0  0  1  0  0  0  0  0  0  0  0  0
   10.6543  -17.6162   21.5254 C   0  0  0  0  0  0  0  0  0  0  0  0
   11.2594  -18.9532   21.7953 C   0  0  0  0  0  0  0  0  0  0  0  0
   12.6148  -19.0417   21.1485 C   0  0  0  0  0  0  0  0  0  0  0  0
   13.2589  -20.3583   21.4572 C   0  0  0  0  0  0  0  0  0  0  0  0
   14.5819  -20.4674   20.8607 N   0  0  0  0  0  0  0  0  0  0  0  0
    9.3123  -16.2443   22.9843 C   0  0  0  0  0  0  0  0  0  0  0  0
    9.9656  -15.2565   22.5344 O   0  0  0  0  0  0  0  0  0  0  0  0
    5.7569  -11.0126   27.3538 C   0  0  0  0  0  0  0  0  0  0  0  0
    5.7158  -12.4083   26.2081 S   0  0  0  0  0  0  0  0  0  0  0  0
    7.3218  -13.2188   26.2087 C   0  0  0  0  0  0  0  0  0  0  0  0
    7.3930  -14.3583   25.2304 C   0  0  0  0  0  0  0  0  0  0  0  0
    8.8023  -14.8628   25.0111 C   0  0  2  0  0  0  0  0  0  0  0  0
    8.6704  -16.0910   24.2236 N   0  0  0  0  0  0  0  0  0  0  0  0
    9.4866  -15.1923   26.3029 C   0  0  0  0  0  0  0  0  0  0  0  0
    9.7515  -14.2945   27.1599 O   0  0  0  0  0  0  0  0  0  0  0  0
    9.8604  -16.4865   26.6208 O   0  0  0  0  0  0  0  0  0  0  0  0
  2  1  1  6
  2  3  1  0
  4  2  1  0
  5  4  2  0
  6  4  1  0
  7 13  1  0
  7  6  1  0
  7  8  1  6
  9  8  1  0
 10 11  1  0
 10  9  1  0
 11 12  1  0
 13 14  2  0
 16 17  1  0
 16 15  1  0
 17 18  1  0
 19 21  1  0
 19 18  1  1
 20 19  1  0
 20 13  1  0
 21 23  1  0
 22 21  2  0
M  END
$$$$
