AKM.pdb
     RDKit          3D

 23 22  0  0  1  0  0  0  0  0999 V2000
    7.5628  -12.3870   19.1107 C   0  0  0  0  0  0  0  0  0  0  0  0
    8.6373  -13.3972   19.3649 C   0  0  2  0  0  0  0  0  0  0  0  0
    8.9015  -14.2654   18.2618 N   0  0  0  0  0  0  0  0  0  0  0  0
    8.2374  -14.1714   20.5942 C   0  0  0  0  0  0  0  0  0  0  0  0
    7.9590  -13.5824   21.6683 O   0  0  0  0  0  0  0  0  0  0  0  0
    8.1568  -15.5872   20.5979 N   0  0  0  0  0  0  0  0  0  0  0  0
    7.7750  -16.3379   21.7688 C   0  0  1  0  0  0  0  0  0  0  0  0
    7.6536  -17.8007   21.3064 C   0  0  0  0  0  0  0  0  0  0  0  0
    6.3968  -18.0189   20.5321 C   0  0  0  0  0  0  0  0  0  0  0  0
    6.3518  -19.4315   20.0167 C   0  0  0  0  0  0  0  0  0  0  0  0
    5.1223  -19.6497   19.1894 C   0  0  0  0  0  0  0  0  0  0  0  0
    4.9999  -21.0333   18.7551 N   0  0  0  0  0  0  0  0  0  0  0  0
    8.8332  -16.3319   22.8105 C   0  0  0  0  0  0  0  0  0  0  0  0
   10.0449  -16.2890   22.4430 O   0  0  0  0  0  0  0  0  0  0  0  0
   10.0442  -13.4713   29.9719 C   0  0  0  0  0  0  0  0  0  0  0  0
    8.9605  -13.7182   28.5482 S   0  0  0  0  0  0  0  0  0  0  0  0
    9.7939  -14.7675   27.3480 C   0  0  0  0  0  0  0  0  0  0  0  0
    8.9136  -15.1210   26.1814 C   0  0  0  0  0  0  0  0  0  0  0  0
    9.5964  -16.0226   25.1767 C   0  0  2  0  0  0  0  0  0  0  0  0
    8.5717  -16.3711   24.1895 N   0  0  0  0  0  0  0  0  0  0  0  0
   10.1022  -17.2836   25.8087 C   0  0  0  0  0  0  0  0  0  0  0  0
   11.1476  -17.2907   26.5283 O   0  0  0  0  0  0  0  0  0  0  0  0
    9.4553  -18.4954   25.6381 O   0  0  0  0  0  0  0  0  0  0  0  0
  2  1  1  6
  2  3  1  0
  4  2  1  0
  5  4  2  0
  6  4  1  0
  7 13  1  0
  7  6  1  0
  7  8  1  6
  9  8  1  0
 10 11  1  0
 10  9  1  0
 11 12  1  0
 13 14  2  0
 16 17  1  0
 16 15  1  0
 17 18  1  0
 19 21  1  0
 19 18  1  1
 20 19  1  0
 20 13  1  0
 21 23  1  0
 22 21  2  0
M  END
$$$$
