AKM.pdb
     RDKit          3D

 23 22  0  0  1  0  0  0  0  0999 V2000
    9.4480  -19.4730   19.0657 C   0  0  0  0  0  0  0  0  0  0  0  0
    9.0374  -19.2681   20.4901 C   0  0  2  0  0  0  0  0  0  0  0  0
    7.7038  -19.6869   20.7840 N   0  0  0  0  0  0  0  0  0  0  0  0
    9.2405  -17.8087   20.8054 C   0  0  0  0  0  0  0  0  0  0  0  0
   10.3525  -17.2545   20.6191 O   0  0  0  0  0  0  0  0  0  0  0  0
    8.1974  -16.9989   21.3223 N   0  0  0  0  0  0  0  0  0  0  0  0
    8.3970  -15.6171   21.6844 C   0  0  1  0  0  0  0  0  0  0  0  0
    7.1389  -14.8728   21.2035 C   0  0  0  0  0  0  0  0  0  0  0  0
    7.4991  -13.6580   20.4154 C   0  0  0  0  0  0  0  0  0  0  0  0
    7.8839  -14.0516   19.0153 C   0  0  0  0  0  0  0  0  0  0  0  0
    8.2664  -12.8434   18.2167 C   0  0  0  0  0  0  0  0  0  0  0  0
    8.6775  -13.1949   16.8656 N   0  0  0  0  0  0  0  0  0  0  0  0
    8.4419  -15.4221   23.1559 C   0  0  0  0  0  0  0  0  0  0  0  0
    7.4754  -15.8513   23.8535 O   0  0  0  0  0  0  0  0  0  0  0  0
    5.7898  -11.6075   26.4586 C   0  0  0  0  0  0  0  0  0  0  0  0
    7.3882  -11.7207   27.2920 S   0  0  0  0  0  0  0  0  0  0  0  0
    8.0956  -13.3472   26.9919 C   0  0  0  0  0  0  0  0  0  0  0  0
    8.3241  -13.6159   25.5303 C   0  0  0  0  0  0  0  0  0  0  0  0
    9.4696  -14.5709   25.2762 C   0  0  2  0  0  0  0  0  0  0  0  0
    9.4982  -14.7861   23.8275 N   0  0  0  0  0  0  0  0  0  0  0  0
    9.2591  -15.8910   25.9533 C   0  0  0  0  0  0  0  0  0  0  0  0
    8.9935  -16.9403   25.2906 O   0  0  0  0  0  0  0  0  0  0  0  0
    9.3441  -16.0273   27.3281 O   0  0  0  0  0  0  0  0  0  0  0  0
  2  1  1  6
  2  3  1  0
  4  2  1  0
  5  4  2  0
  6  4  1  0
  7 13  1  0
  7  6  1  0
  7  8  1  1
  9  8  1  0
 10 11  1  0
 10  9  1  0
 11 12  1  0
 13 14  2  0
 16 17  1  0
 16 15  1  0
 17 18  1  0
 19 21  1  0
 19 18  1  6
 20 19  1  0
 20 13  1  0
 21 23  1  0
 22 21  2  0
M  END
$$$$
