AKM.pdb
     RDKit          3D

 23 22  0  0  1  0  0  0  0  0999 V2000
   11.5492  -19.6077   20.7221 C   0  0  0  0  0  0  0  0  0  0  0  0
   10.4260  -18.7684   20.1990 C   0  0  2  0  0  0  0  0  0  0  0  0
   10.4844  -18.5168   18.7942 N   0  0  0  0  0  0  0  0  0  0  0  0
   10.4236  -17.4862   20.9906 C   0  0  0  0  0  0  0  0  0  0  0  0
   11.4877  -17.0157   21.4644 O   0  0  0  0  0  0  0  0  0  0  0  0
    9.2327  -16.7565   21.2361 N   0  0  0  0  0  0  0  0  0  0  0  0
    9.2335  -15.4701   21.8884 C   0  0  1  0  0  0  0  0  0  0  0  0
    8.0868  -14.6729   21.2423 C   0  0  0  0  0  0  0  0  0  0  0  0
    8.5874  -13.8131   20.1302 C   0  0  0  0  0  0  0  0  0  0  0  0
    7.6267  -13.8612   18.9736 C   0  0  0  0  0  0  0  0  0  0  0  0
    8.1793  -13.1115   17.8004 C   0  0  0  0  0  0  0  0  0  0  0  0
    7.2059  -12.9943   16.7249 N   0  0  0  0  0  0  0  0  0  0  0  0
    8.8914  -15.5703   23.3300 C   0  0  0  0  0  0  0  0  0  0  0  0
    7.8459  -16.2040   23.6618 O   0  0  0  0  0  0  0  0  0  0  0  0
    6.4352  -10.8461   26.6201 C   0  0  0  0  0  0  0  0  0  0  0  0
    5.8174  -12.5426   26.6696 S   0  0  0  0  0  0  0  0  0  0  0  0
    7.2061  -13.6704   26.8579 C   0  0  0  0  0  0  0  0  0  0  0  0
    7.8710  -13.9902   25.5478 C   0  0  0  0  0  0  0  0  0  0  0  0
    9.1269  -14.8183   25.7082 C   0  0  2  0  0  0  0  0  0  0  0  0
    9.6617  -15.0011   24.3568 N   0  0  0  0  0  0  0  0  0  0  0  0
    8.8379  -16.1660   26.2962 C   0  0  0  0  0  0  0  0  0  0  0  0
    8.5356  -16.3031   27.5212 O   0  0  0  0  0  0  0  0  0  0  0  0
    8.8868  -17.3201   25.5338 O   0  0  0  0  0  0  0  0  0  0  0  0
  2  1  1  1
  2  3  1  0
  4  2  1  0
  5  4  2  0
  6  4  1  0
  7 13  1  0
  7  6  1  0
  7  8  1  6
  9  8  1  0
 10 11  1  0
 10  9  1  0
 11 12  1  0
 13 14  2  0
 16 17  1  0
 16 15  1  0
 17 18  1  0
 19 21  1  0
 19 18  1  6
 20 19  1  0
 20 13  1  0
 21 23  1  0
 22 21  2  0
M  END
$$$$
