AKM.pdb
     RDKit          3D

 23 22  0  0  1  0  0  0  0  0999 V2000
    6.7096  -20.6747   21.6388 C   0  0  0  0  0  0  0  0  0  0  0  0
    6.5199  -19.5531   22.6112 C   0  0  2  0  0  0  0  0  0  0  0  0
    5.1749  -19.0828   22.7118 N   0  0  0  0  0  0  0  0  0  0  0  0
    7.4624  -18.4495   22.2058 C   0  0  0  0  0  0  0  0  0  0  0  0
    8.6915  -18.6672   22.0636 O   0  0  0  0  0  0  0  0  0  0  0  0
    7.0124  -17.1260   21.9678 N   0  0  0  0  0  0  0  0  0  0  0  0
    7.9030  -16.0666   21.5617 C   0  0  1  0  0  0  0  0  0  0  0  0
    7.0077  -14.9881   20.9266 C   0  0  0  0  0  0  0  0  0  0  0  0
    7.8154  -13.8241   20.4582 C   0  0  0  0  0  0  0  0  0  0  0  0
    7.7024  -13.6907   18.9640 C   0  0  0  0  0  0  0  0  0  0  0  0
    8.5627  -12.5681   18.4706 C   0  0  0  0  0  0  0  0  0  0  0  0
    8.3748  -12.3264   17.0478 N   0  0  0  0  0  0  0  0  0  0  0  0
    8.5623  -15.4113   22.7197 C   0  0  0  0  0  0  0  0  0  0  0  0
    8.8650  -14.1844   22.6299 O   0  0  0  0  0  0  0  0  0  0  0  0
    7.3079  -11.2099   26.6783 C   0  0  0  0  0  0  0  0  0  0  0  0
    6.2726  -12.6890   26.6262 S   0  0  0  0  0  0  0  0  0  0  0  0
    7.3213  -14.1466   26.7340 C   0  0  0  0  0  0  0  0  0  0  0  0
    7.5013  -14.8270   25.4053 C   0  0  0  0  0  0  0  0  0  0  0  0
    8.8995  -15.3676   25.2019 C   0  0  2  0  0  0  0  0  0  0  0  0
    8.8737  -16.0731   23.9183 N   0  0  0  0  0  0  0  0  0  0  0  0
    9.2863  -16.3388   26.2755 C   0  0  0  0  0  0  0  0  0  0  0  0
    9.2975  -17.5901   26.0638 O   0  0  0  0  0  0  0  0  0  0  0  0
    9.6481  -15.9183   27.5435 O   0  0  0  0  0  0  0  0  0  0  0  0
  2  1  1  6
  2  3  1  0
  4  2  1  0
  5  4  2  0
  6  4  1  0
  7 13  1  0
  7  6  1  0
  7  8  1  1
  9  8  1  0
 10 11  1  0
 10  9  1  0
 11 12  1  0
 13 14  2  0
 16 17  1  0
 16 15  1  0
 17 18  1  0
 19 21  1  0
 19 18  1  1
 20 19  1  0
 20 13  1  0
 21 23  1  0
 22 21  2  0
M  END
$$$$
