AKM.pdb
     RDKit          3D

 23 22  0  0  1  0  0  0  0  0999 V2000
    7.2920  -12.3955   19.2134 C   0  0  0  0  0  0  0  0  0  0  0  0
    8.4316  -13.3143   19.5242 C   0  0  2  0  0  0  0  0  0  0  0  0
    8.7115  -14.2713   18.5015 N   0  0  0  0  0  0  0  0  0  0  0  0
    8.1170  -13.9841   20.8368 C   0  0  0  0  0  0  0  0  0  0  0  0
    7.7765  -13.3116   21.8418 O   0  0  0  0  0  0  0  0  0  0  0  0
    8.1893  -15.3910   20.9993 N   0  0  0  0  0  0  0  0  0  0  0  0
    7.7427  -16.0558   22.1988 C   0  0  1  0  0  0  0  0  0  0  0  0
    7.8760  -17.5627   21.9161 C   0  0  0  0  0  0  0  0  0  0  0  0
    6.8168  -18.0305   20.9750 C   0  0  0  0  0  0  0  0  0  0  0  0
    6.9903  -19.4990   20.6982 C   0  0  0  0  0  0  0  0  0  0  0  0
    5.9958  -19.9621   19.6782 C   0  0  0  0  0  0  0  0  0  0  0  0
    6.1439  -21.3791   19.3814 N   0  0  0  0  0  0  0  0  0  0  0  0
    8.6316  -15.7836   23.3568 C   0  0  0  0  0  0  0  0  0  0  0  0
    9.8806  -15.7110   23.1578 O   0  0  0  0  0  0  0  0  0  0  0  0
    5.5942  -12.0417   26.5590 C   0  0  0  0  0  0  0  0  0  0  0  0
    7.3420  -11.7023   26.8623 S   0  0  0  0  0  0  0  0  0  0  0  0
    8.3399  -12.8869   25.9475 C   0  0  0  0  0  0  0  0  0  0  0  0
    8.3790  -14.2381   26.6059 C   0  0  0  0  0  0  0  0  0  0  0  0
    9.0836  -15.2836   25.7698 C   0  0  2  0  0  0  0  0  0  0  0  0
    8.1693  -15.6002   24.6699 N   0  0  0  0  0  0  0  0  0  0  0  0
    9.3505  -16.5363   26.5476 C   0  0  0  0  0  0  0  0  0  0  0  0
    8.6170  -17.5641   26.4199 O   0  0  0  0  0  0  0  0  0  0  0  0
   10.4055  -16.6309   27.4385 O   0  0  0  0  0  0  0  0  0  0  0  0
  2  1  1  6
  2  3  1  0
  4  2  1  0
  5  4  2  0
  6  4  1  0
  7 13  1  0
  7  6  1  0
  7  8  1  6
  9  8  1  0
 10 11  1  0
 10  9  1  0
 11 12  1  0
 13 14  2  0
 16 17  1  0
 16 15  1  0
 17 18  1  0
 19 21  1  0
 19 18  1  1
 20 19  1  0
 20 13  1  0
 21 23  1  0
 22 21  2  0
M  END
$$$$
