RLH.pdb
     RDKit          3D

 30 30  0  0  1  0  0  0  0  0999 V2000
   32.9941  -25.3530  -13.6458 N   0  0  0  0  0  0  0  0  0  0  0  0
   34.0407  -24.8259  -12.8468 C   0  0  0  0  0  0  0  0  0  0  0  0
   35.1733  -25.4162  -12.7159 N   0  0  0  0  0  0  0  0  0  0  0  0
   33.8264  -23.5782  -12.1538 N   0  0  0  0  0  0  0  0  0  0  0  0
   32.5426  -22.9751  -12.1683 C   0  0  0  0  0  0  0  0  0  0  0  0
   31.5135  -23.4286  -11.2293 C   0  0  0  0  0  0  0  0  0  0  0  0
   30.1736  -22.8700  -11.2354 C   0  0  0  0  0  0  0  0  0  0  0  0
   29.9737  -21.5220  -10.6517 C   0  0  2  0  0  0  0  0  0  0  0  0
   31.0689  -20.8688  -10.0583 N   0  0  0  0  0  0  0  0  0  0  0  0
   28.7482  -21.4988   -9.7807 C   0  0  0  0  0  0  0  0  0  0  0  0
   27.9031  -22.4000   -9.9970 O   0  0  0  0  0  0  0  0  0  0  0  0
   35.9129  -25.0337  -12.1183 C   0  0  0  0  0  0  0  0  0  0  0  0
   28.6513  -21.4901   -5.5105 C   0  0  2  0  0  0  0  0  0  0  0  0
   28.6063  -20.0372   -5.9905 C   0  0  0  0  0  0  0  0  0  0  0  0
   28.9839  -19.0393   -4.9740 C   0  0  0  0  0  0  0  0  0  0  0  0
   27.4159  -19.8107   -6.8224 C   0  0  2  0  0  0  0  0  0  0  0  0
   27.2016  -20.5793   -8.0633 N   0  0  0  0  0  0  0  0  0  0  0  0
   28.5019  -20.5586   -8.7713 C   0  0  0  0  0  0  0  0  0  0  0  0
   26.2124  -19.9129   -8.9439 O   0  0  0  0  0  0  0  0  0  0  0  0
   26.4722  -18.8683   -9.5948 N   0  0  0  0  0  0  0  0  0  0  0  0
   24.9075  -20.4364   -9.0912 C   0  0  1  0  0  0  0  0  0  0  0  0
   24.2081  -20.3066  -10.3585 C   0  0  0  0  0  0  0  0  0  0  0  0
   24.8687  -21.0830  -11.4422 C   0  0  0  0  0  0  0  0  0  0  0  0
   24.1008  -20.9579  -12.7003 C   0  0  0  0  0  0  0  0  0  0  0  0
   22.9282  -20.2006  -12.8434 N   0  0  0  0  0  0  0  0  0  0  0  0
   22.4978  -20.3076  -14.0999 C   0  0  0  0  0  0  0  0  0  0  0  0
   23.3496  -21.0965  -14.7435 N   0  0  0  0  0  0  0  0  0  0  0  0
   24.3093  -21.4870  -13.9090 C   0  0  0  0  0  0  0  0  0  0  0  0
   22.8037  -20.7075  -10.2097 O   0  0  0  0  0  0  0  0  0  0  0  0
   21.8978  -19.8911  -10.5837 O   0  0  0  0  0  0  0  0  0  0  0  0
  2  1  1  0
  3  2  2  0
  4  2  1  0
  5  4  1  0
  6  5  1  0
  7  6  1  0
  8  7  1  0
  8  9  1  1
 10  8  1  0
 11 10  2  0
 13 12  1  6
 13 15  1  0
 14 13  1  0
 16 15  1  1
 16 18  1  0
 16 17  1  0
 17 10  1  0
 18 20  1  0
 19 18  2  0
 20 21  1  0
 21 22  1  6
 21 28  1  0
 22 23  1  0
 23 24  2  0
 25 24  1  0
 26 25  1  0
 27 26  2  0
 27 23  1  0
 28 29  2  0
 28 30  1  0
M  END
$$$$
