RLH.pdb
     RDKit          3D

 30 30  0  0  1  0  0  0  0  0999 V2000
   28.5546  -16.6081  -18.1956 N   0  0  0  0  0  0  0  0  0  0  0  0
   27.3952  -16.7457  -19.0008 C   0  0  0  0  0  0  0  0  0  0  0  0
   26.7638  -15.7356  -19.4798 N   0  0  0  0  0  0  0  0  0  0  0  0
   26.9049  -18.0710  -19.2941 N   0  0  0  0  0  0  0  0  0  0  0  0
   27.2333  -19.1505  -18.4345 C   0  0  0  0  0  0  0  0  0  0  0  0
   26.2366  -19.6582  -17.4884 C   0  0  0  0  0  0  0  0  0  0  0  0
   26.3873  -19.4879  -16.0547 C   0  0  0  0  0  0  0  0  0  0  0  0
   26.8320  -20.6534  -15.2535 C   0  0  2  0  0  0  0  0  0  0  0  0
   27.4384  -21.7388  -15.9110 N   0  0  0  0  0  0  0  0  0  0  0  0
   25.7499  -21.0868  -14.3038 C   0  0  0  0  0  0  0  0  0  0  0  0
   25.1997  -22.1841  -14.5613 O   0  0  0  0  0  0  0  0  0  0  0  0
   25.9377  -15.8513  -20.0755 C   0  0  0  0  0  0  0  0  0  0  0  0
   26.2477  -22.3070  -10.5840 C   0  0  2  0  0  0  0  0  0  0  0  0
   25.9289  -20.8271  -10.3562 C   0  0  0  0  0  0  0  0  0  0  0  0
   26.2794  -20.3190   -9.0180 C   0  0  0  0  0  0  0  0  0  0  0  0
   24.6234  -20.4899  -10.9412 C   0  0  2  0  0  0  0  0  0  0  0  0
   24.2734  -20.9171  -12.3093 N   0  0  0  0  0  0  0  0  0  0  0  0
   25.3324  -20.3596  -13.1811 C   0  0  0  0  0  0  0  0  0  0  0  0
   22.9878  -20.3213  -12.7456 O   0  0  0  0  0  0  0  0  0  0  0  0
   22.9178  -19.2364  -13.3786 N   0  0  0  0  0  0  0  0  0  0  0  0
   21.7605  -20.9629  -12.4618 C   0  0  1  0  0  0  0  0  0  0  0  0
   20.5388  -20.5219  -13.1137 C   0  0  0  0  0  0  0  0  0  0  0  0
   20.7976  -19.4617  -14.1249 C   0  0  0  0  0  0  0  0  0  0  0  0
   19.5269  -19.0279  -14.7458 C   0  0  0  0  0  0  0  0  0  0  0  0
   18.2523  -19.3637  -14.2648 N   0  0  0  0  0  0  0  0  0  0  0  0
   17.3343  -18.8116  -15.0573 C   0  0  0  0  0  0  0  0  0  0  0  0
   17.9808  -18.1482  -16.0081 N   0  0  0  0  0  0  0  0  0  0  0  0
   19.2922  -18.2758  -15.8245 C   0  0  0  0  0  0  0  0  0  0  0  0
   19.8429  -21.6637  -13.7198 O   0  0  0  0  0  0  0  0  0  0  0  0
   20.4979  -22.7420  -13.9080 O   0  0  0  0  0  0  0  0  0  0  0  0
  2  1  1  0
  3  2  2  0
  4  2  1  0
  5  4  1  0
  6  5  1  0
  7  6  1  0
  8  7  1  0
  8  9  1  6
 10  8  1  0
 11 10  2  0
 13 12  1  6
 13 15  1  0
 14 13  1  0
 16 15  1  1
 16 18  1  0
 16 17  1  0
 17 10  1  0
 18 20  1  0
 19 18  2  0
 20 21  1  0
 21 22  1  1
 21 28  1  0
 22 23  1  0
 23 24  2  0
 25 24  1  0
 26 25  1  0
 27 26  2  0
 27 23  1  0
 28 29  2  0
 28 30  1  0
M  END
$$$$
