RLH.pdb
     RDKit          3D

 30 30  0  0  1  0  0  0  0  0999 V2000
   46.3937   -5.0874   -4.3940 N   0  0  0  0  0  0  0  0  0  0  0  0
   47.1897   -5.7450   -5.3664 C   0  0  0  0  0  0  0  0  0  0  0  0
   48.3728   -5.3504   -5.6712 N   0  0  0  0  0  0  0  0  0  0  0  0
   46.6509   -6.9021   -6.0399 N   0  0  0  0  0  0  0  0  0  0  0  0
   45.3762   -7.4028   -5.6708 C   0  0  0  0  0  0  0  0  0  0  0  0
   44.8629   -8.6234   -6.2977 C   0  0  0  0  0  0  0  0  0  0  0  0
   43.6131   -8.6360   -7.0362 C   0  0  0  0  0  0  0  0  0  0  0  0
   43.0885   -9.9416   -7.5035 C   0  0  2  0  0  0  0  0  0  0  0  0
   43.9660  -10.8390   -8.1383 N   0  0  0  0  0  0  0  0  0  0  0  0
   41.8055   -9.7546   -8.2649 C   0  0  0  0  0  0  0  0  0  0  0  0
   41.8826   -9.8792   -9.5106 O   0  0  0  0  0  0  0  0  0  0  0  0
   48.9556   -5.8651   -6.3391 C   0  0  0  0  0  0  0  0  0  0  0  0
   38.1455  -12.1237   -8.5718 C   0  0  2  0  0  0  0  0  0  0  0  0
   38.0890  -11.2397   -7.3233 C   0  0  0  0  0  0  0  0  0  0  0  0
   37.0648  -11.6283   -6.3376 C   0  0  0  0  0  0  0  0  0  0  0  0
   38.2414   -9.8249   -7.6918 C   0  0  2  0  0  0  0  0  0  0  0  0
   39.3622   -9.3801   -8.5418 N   0  0  0  0  0  0  0  0  0  0  0  0
   40.5657   -9.4587   -7.6828 C   0  0  0  0  0  0  0  0  0  0  0  0
   39.2020   -7.9618   -8.9430 O   0  0  0  0  0  0  0  0  0  0  0  0
   39.1712   -7.0168   -8.1133 N   0  0  0  0  0  0  0  0  0  0  0  0
   39.0748   -7.6059  -10.3052 C   0  0  1  0  0  0  0  0  0  0  0  0
   38.9176   -6.2116  -10.6834 C   0  0  0  0  0  0  0  0  0  0  0  0
   39.1775   -5.9939  -12.1321 C   0  0  0  0  0  0  0  0  0  0  0  0
   39.2117   -4.5458  -12.4323 C   0  0  0  0  0  0  0  0  0  0  0  0
   39.8600   -3.5854  -11.6409 N   0  0  0  0  0  0  0  0  0  0  0  0
   39.6927   -2.3861  -12.1968 C   0  0  0  0  0  0  0  0  0  0  0  0
   38.9705   -2.5579  -13.2972 N   0  0  0  0  0  0  0  0  0  0  0  0
   38.6813   -3.8485  -13.4406 C   0  0  0  0  0  0  0  0  0  0  0  0
   37.5808   -5.7302  -10.3140 O   0  0  0  0  0  0  0  0  0  0  0  0
   36.5880   -6.5141  -10.4776 O   0  0  0  0  0  0  0  0  0  0  0  0
  2  1  1  0
  3  2  2  0
  4  2  1  0
  5  4  1  0
  6  5  1  0
  7  6  1  0
  8  7  1  0
  8  9  1  6
 10  8  1  0
 11 10  2  0
 13 12  1  1
 13 15  1  0
 14 13  1  0
 16 15  1  6
 16 18  1  0
 16 17  1  0
 17 10  1  0
 18 20  1  0
 19 18  2  0
 20 21  1  0
 21 22  1  1
 21 28  1  0
 22 23  1  0
 23 24  2  0
 25 24  1  0
 26 25  1  0
 27 26  2  0
 27 23  1  0
 28 29  2  0
 28 30  1  0
M  END
$$$$
