RLH.pdb
     RDKit          3D

 30 30  0  0  1  0  0  0  0  0999 V2000
   25.5352  -20.5116  -19.4104 N   0  0  0  0  0  0  0  0  0  0  0  0
   24.6703  -20.8558  -18.3403 C   0  0  0  0  0  0  0  0  0  0  0  0
   23.8080  -21.8030  -18.4273 N   0  0  0  0  0  0  0  0  0  0  0  0
   24.7618  -20.1143  -17.1056 N   0  0  0  0  0  0  0  0  0  0  0  0
   25.7417  -19.0986  -16.9640 C   0  0  0  0  0  0  0  0  0  0  0  0
   27.1180  -19.4573  -16.6127 C   0  0  0  0  0  0  0  0  0  0  0  0
   27.5866  -19.4358  -15.2389 C   0  0  0  0  0  0  0  0  0  0  0  0
   27.7200  -20.7277  -14.5237 C   0  0  2  0  0  0  0  0  0  0  0  0
   28.1001  -21.8707  -15.2500 N   0  0  0  0  0  0  0  0  0  0  0  0
   26.5232  -20.9736  -13.6474 C   0  0  0  0  0  0  0  0  0  0  0  0
   25.6821  -21.7954  -14.0836 O   0  0  0  0  0  0  0  0  0  0  0  0
   23.1894  -22.0403  -17.6452 C   0  0  0  0  0  0  0  0  0  0  0  0
   26.4421  -21.9915   -9.2797 C   0  0  1  0  0  0  0  0  0  0  0  0
   26.3600  -20.4667   -9.3878 C   0  0  0  0  0  0  0  0  0  0  0  0
   26.5248  -19.7475   -8.1122 C   0  0  0  0  0  0  0  0  0  0  0  0
   25.2805  -20.0770  -10.3061 C   0  0  2  0  0  0  0  0  0  0  0  0
   25.1153  -20.7487  -11.6092 N   0  0  0  0  0  0  0  0  0  0  0  0
   26.2987  -20.3580  -12.4088 C   0  0  0  0  0  0  0  0  0  0  0  0
   23.9178  -20.2462  -12.3245 O   0  0  0  0  0  0  0  0  0  0  0  0
   23.6728  -19.0207  -12.4689 N   0  0  0  0  0  0  0  0  0  0  0  0
   22.9815  -21.1441  -12.8863 C   0  0  1  0  0  0  0  0  0  0  0  0
   21.8454  -20.6379  -13.6378 C   0  0  0  0  0  0  0  0  0  0  0  0
   21.6676  -21.3540  -14.9298 C   0  0  0  0  0  0  0  0  0  0  0  0
   20.4975  -20.8136  -15.6558 C   0  0  0  0  0  0  0  0  0  0  0  0
   20.3623  -19.4773  -16.0620 N   0  0  0  0  0  0  0  0  0  0  0  0
   19.1935  -19.3335  -16.6856 C   0  0  0  0  0  0  0  0  0  0  0  0
   18.5971  -20.5193  -16.6853 N   0  0  0  0  0  0  0  0  0  0  0  0
   19.3745  -21.4065  -16.0701 C   0  0  0  0  0  0  0  0  0  0  0  0
   20.6237  -20.7112  -12.8271 O   0  0  0  0  0  0  0  0  0  0  0  0
   20.5774  -21.5603  -11.8764 O   0  0  0  0  0  0  0  0  0  0  0  0
  2  1  1  0
  3  2  2  0
  4  2  1  0
  5  4  1  0
  6  5  1  0
  7  6  1  0
  8  7  1  0
  8  9  1  6
 10  8  1  0
 11 10  2  0
 13 12  1  6
 13 15  1  0
 14 13  1  0
 16 15  1  1
 16 18  1  0
 16 17  1  0
 17 10  1  0
 18 20  1  0
 19 18  2  0
 20 21  1  0
 21 22  1  1
 21 28  1  0
 22 23  1  0
 23 24  2  0
 25 24  1  0
 26 25  1  0
 27 26  2  0
 27 23  1  0
 28 29  2  0
 28 30  1  0
M  END
$$$$
