RLH.pdb
     RDKit          3D

 30 30  0  0  1  0  0  0  0  0999 V2000
   30.5578  -24.6362  -17.5467 N   0  0  0  0  0  0  0  0  0  0  0  0
   30.4002  -23.6982  -18.5987 C   0  0  0  0  0  0  0  0  0  0  0  0
   31.2985  -23.5107  -19.4966 N   0  0  0  0  0  0  0  0  0  0  0  0
   29.1840  -22.9239  -18.6642 N   0  0  0  0  0  0  0  0  0  0  0  0
   28.1598  -23.1374  -17.7064 C   0  0  0  0  0  0  0  0  0  0  0  0
   28.2959  -22.5822  -16.3575 C   0  0  0  0  0  0  0  0  0  0  0  0
   27.2586  -22.7462  -15.3551 C   0  0  0  0  0  0  0  0  0  0  0  0
   25.9456  -22.1003  -15.5933 C   0  0  2  0  0  0  0  0  0  0  0  0
   25.9147  -20.8005  -16.1298 N   0  0  0  0  0  0  0  0  0  0  0  0
   25.0570  -22.2478  -14.3893 C   0  0  0  0  0  0  0  0  0  0  0  0
   24.9107  -23.4149  -13.9540 O   0  0  0  0  0  0  0  0  0  0  0  0
   31.1919  -22.7948  -20.2224 C   0  0  0  0  0  0  0  0  0  0  0  0
   25.0147  -19.8054   -9.3610 C   0  0  1  0  0  0  0  0  0  0  0  0
   24.8493  -20.9494  -10.3647 C   0  0  0  0  0  0  0  0  0  0  0  0
   26.0610  -21.7591  -10.5830 C   0  0  0  0  0  0  0  0  0  0  0  0
   24.0558  -20.5051  -11.5194 C   0  0  2  0  0  0  0  0  0  0  0  0
   23.5925  -21.4687  -12.5360 N   0  0  0  0  0  0  0  0  0  0  0  0
   24.4027  -21.1902  -13.7436 C   0  0  0  0  0  0  0  0  0  0  0  0
   22.1740  -21.2300  -12.8952 O   0  0  0  0  0  0  0  0  0  0  0  0
   21.2441  -21.2395  -12.0481 N   0  0  0  0  0  0  0  0  0  0  0  0
   21.8005  -20.9762  -14.2348 C   0  0  1  0  0  0  0  0  0  0  0  0
   20.4001  -20.7991  -14.5807 C   0  0  0  0  0  0  0  0  0  0  0  0
   20.2294  -20.2601  -15.9569 C   0  0  0  0  0  0  0  0  0  0  0  0
   20.8502  -18.9214  -16.0611 C   0  0  0  0  0  0  0  0  0  0  0  0
   21.3499  -18.1905  -14.9725 N   0  0  0  0  0  0  0  0  0  0  0  0
   21.8356  -17.0326  -15.4186 C   0  0  0  0  0  0  0  0  0  0  0  0
   21.6604  -17.0113  -16.7342 N   0  0  0  0  0  0  0  0  0  0  0  0
   21.0713  -18.1396  -17.1213 C   0  0  0  0  0  0  0  0  0  0  0  0
   19.6710  -22.0631  -14.4202 O   0  0  0  0  0  0  0  0  0  0  0  0
   18.3963  -22.0278  -14.3915 O   0  0  0  0  0  0  0  0  0  0  0  0
  2  1  1  0
  3  2  2  0
  4  2  1  0
  5  4  1  0
  6  5  1  0
  7  6  1  0
  8  7  1  0
  8  9  1  1
 10  8  1  0
 11 10  2  0
 13 12  1  1
 13 15  1  0
 14 13  1  0
 16 15  1  1
 16 18  1  0
 16 17  1  0
 17 10  1  0
 18 20  1  0
 19 18  2  0
 20 21  1  0
 21 22  1  6
 21 28  1  0
 22 23  1  0
 23 24  2  0
 25 24  1  0
 26 25  1  0
 27 26  2  0
 27 23  1  0
 28 29  2  0
 28 30  1  0
M  END
$$$$
