RLH.pdb
     RDKit          3D

 30 30  0  0  1  0  0  0  0  0999 V2000
   16.5367  -10.2505  -21.3080 N   0  0  0  0  0  0  0  0  0  0  0  0
   16.7156  -11.6209  -20.9891 C   0  0  0  0  0  0  0  0  0  0  0  0
   15.7538  -12.3648  -20.5770 N   0  0  0  0  0  0  0  0  0  0  0  0
   18.0283  -12.2032  -21.1329 N   0  0  0  0  0  0  0  0  0  0  0  0
   19.1199  -11.6708  -20.4001 C   0  0  0  0  0  0  0  0  0  0  0  0
   20.4698  -12.1968  -20.6178 C   0  0  0  0  0  0  0  0  0  0  0  0
   21.6348  -11.5929  -19.9970 C   0  0  0  0  0  0  0  0  0  0  0  0
   22.2393  -12.2759  -18.8282 C   0  0  2  0  0  0  0  0  0  0  0  0
   21.6970  -13.5016  -18.4017 N   0  0  0  0  0  0  0  0  0  0  0  0
   22.4385  -11.3085  -17.6945 C   0  0  0  0  0  0  0  0  0  0  0  0
   21.6623  -11.4389  -16.7179 O   0  0  0  0  0  0  0  0  0  0  0  0
   15.8788  -13.3711  -20.4272 C   0  0  0  0  0  0  0  0  0  0  0  0
   25.0305  -11.0644  -14.4239 C   0  0  2  0  0  0  0  0  0  0  0  0
   25.7780  -10.4948  -15.6323 C   0  0  0  0  0  0  0  0  0  0  0  0
   27.2360  -10.3741  -15.4556 C   0  0  0  0  0  0  0  0  0  0  0  0
   25.0236   -9.3785  -16.2199 C   0  0  2  0  0  0  0  0  0  0  0  0
   23.5686   -9.4811  -16.4414 N   0  0  0  0  0  0  0  0  0  0  0  0
   23.4112  -10.3003  -17.6647 C   0  0  0  0  0  0  0  0  0  0  0  0
   22.9733   -8.1529  -16.7239 O   0  0  0  0  0  0  0  0  0  0  0  0
   23.1816   -7.5248  -17.7937 N   0  0  0  0  0  0  0  0  0  0  0  0
   22.1282   -7.5243  -15.7810 C   0  0  1  0  0  0  0  0  0  0  0  0
   21.4533   -6.2826  -16.1199 C   0  0  0  0  0  0  0  0  0  0  0  0
   20.0301   -6.2850  -15.6862 C   0  0  0  0  0  0  0  0  0  0  0  0
   19.3713   -5.0239  -16.0912 C   0  0  0  0  0  0  0  0  0  0  0  0
   19.2652   -3.8860  -15.2771 N   0  0  0  0  0  0  0  0  0  0  0  0
   18.6157   -2.9358  -15.9487 C   0  0  0  0  0  0  0  0  0  0  0  0
   18.3140   -3.4318  -17.1424 N   0  0  0  0  0  0  0  0  0  0  0  0
   18.7646   -4.6804  -17.2305 C   0  0  0  0  0  0  0  0  0  0  0  0
   22.1724   -5.1381  -15.5470 O   0  0  0  0  0  0  0  0  0  0  0  0
   22.7595   -5.2914  -14.4250 O   0  0  0  0  0  0  0  0  0  0  0  0
  2  1  1  0
  3  2  2  0
  4  2  1  0
  5  4  1  0
  6  5  1  0
  7  6  1  0
  8  7  1  0
  8  9  1  1
 10  8  1  0
 11 10  2  0
 13 12  1  6
 13 15  1  0
 14 13  1  0
 16 15  1  1
 16 18  1  0
 16 17  1  0
 17 10  1  0
 18 20  1  0
 19 18  2  0
 20 21  1  0
 21 22  1  1
 21 28  1  0
 22 23  1  0
 23 24  2  0
 25 24  1  0
 26 25  1  0
 27 26  2  0
 27 23  1  0
 28 29  2  0
 28 30  1  0
M  END
$$$$
