HKN.pdb
     RDKit          3D

 28 28  0  0  1  0  0  0  0  0999 V2000
    8.3670  -16.0808   20.5968 N   0  0  0  0  0  0  0  0  0  0  0  0
    8.1889  -14.9887   21.5517 C   0  0  1  0  0  0  0  0  0  0  0  0
    7.1451  -14.0211   21.0032 C   0  0  0  0  0  0  0  0  0  0  0  0
    7.5235  -13.5509   19.6471 C   0  0  0  0  0  0  0  0  0  0  0  0
    6.7277  -13.6221   18.5241 C   0  0  0  0  0  0  0  0  0  0  0  0
    7.4168  -13.1004   17.5038 N   0  0  0  0  0  0  0  0  0  0  0  0
    8.6059  -12.7208   17.9982 C   0  0  0  0  0  0  0  0  0  0  0  0
    8.6802  -12.9932   19.3117 N   0  0  0  0  0  0  0  0  0  0  0  0
    7.7056  -15.5960   22.8164 C   0  0  0  0  0  0  0  0  0  0  0  0
    6.6873  -15.1064   23.3679 O   0  0  0  0  0  0  0  0  0  0  0  0
    8.3502  -16.7023   23.4186 N   0  0  0  0  0  0  0  0  0  0  0  0
    7.8581  -17.2255   24.7151 C   0  0  1  0  0  0  0  0  0  0  0  0
    7.4991  -18.6682   24.5549 C   0  0  0  0  0  0  0  0  0  0  0  0
    7.1602  -19.3068   25.8554 C   0  0  0  0  0  0  0  0  0  0  0  0
    6.8377  -20.7854   25.7100 C   0  0  0  0  0  0  0  0  0  0  0  0
    6.4524  -21.4034   27.0361 C   0  0  0  0  0  0  0  0  0  0  0  0
    6.1630  -22.8123   26.8982 N   0  0  0  0  0  0  0  0  0  0  0  0
    8.8157  -16.8692   25.7415 C   0  0  0  0  0  0  0  0  0  0  0  0
   10.0598  -16.9516   25.4285 O   0  0  0  0  0  0  0  0  0  0  0  0
    8.3704  -12.8622   27.7577 N   0  0  0  0  0  0  0  0  0  0  0  0
    9.4623  -13.7575   27.9767 C   0  0  0  0  0  0  0  0  0  0  0  0
   10.5553  -13.4834   27.4113 O   0  0  0  0  0  0  0  0  0  0  0  0
    9.3419  -14.9614   28.8259 C   0  0  0  0  0  0  0  0  0  0  0  0
    9.6327  -16.1806   27.9952 C   0  0  2  0  0  0  0  0  0  0  0  0
    8.5484  -16.4375   27.0450 N   0  0  0  0  0  0  0  0  0  0  0  0
    9.9452  -17.3900   28.7755 C   0  0  0  0  0  0  0  0  0  0  0  0
   11.1772  -17.6646   29.3332 O   0  0  0  0  0  0  0  0  0  0  0  0
    9.0370  -18.2645   28.9665 O   0  0  0  0  0  0  0  0  0  0  0  0
  2  1  1  6
  2  3  1  0
  4  3  1  0
  5  4  2  0
  6  5  1  0
  7  6  1  0
  7  8  2  0
  8  4  1  0
  9  2  1  0
 10  9  2  0
 11  9  1  0
 12 11  1  0
 12 13  1  6
 13 14  1  0
 14 15  1  0
 16 15  1  0
 17 16  1  0
 18 12  1  0
 19 18  2  0
 20 21  1  0
 21 22  2  0
 21 23  1  0
 24 23  1  1
 24 25  1  0
 25 18  1  0
 26 24  1  0
 27 26  1  0
 28 26  2  0
M  END
$$$$
