HKN.pdb
     RDKit          3D

 28 28  0  0  1  0  0  0  0  0999 V2000
   11.6290  -19.2277   16.5059 N   0  0  0  0  0  0  0  0  0  0  0  0
   12.1300  -20.3985   17.2233 C   0  0  1  0  0  0  0  0  0  0  0  0
   13.6282  -20.2298   17.4544 C   0  0  0  0  0  0  0  0  0  0  0  0
   14.3809  -20.4152   16.1885 C   0  0  0  0  0  0  0  0  0  0  0  0
   13.9290  -21.1004   15.0814 C   0  0  0  0  0  0  0  0  0  0  0  0
   14.8875  -21.0460   14.1505 N   0  0  0  0  0  0  0  0  0  0  0  0
   15.8996  -20.3424   14.6825 C   0  0  0  0  0  0  0  0  0  0  0  0
   15.5978  -19.9515   15.9320 N   0  0  0  0  0  0  0  0  0  0  0  0
   11.4163  -20.4459   18.5234 C   0  0  0  0  0  0  0  0  0  0  0  0
   11.3516  -19.3962   19.2124 O   0  0  0  0  0  0  0  0  0  0  0  0
   10.8096  -21.6278   19.0102 N   0  0  0  0  0  0  0  0  0  0  0  0
   10.0932  -21.6076   20.3076 C   0  0  1  0  0  0  0  0  0  0  0  0
    9.1550  -22.7705   20.3655 C   0  0  0  0  0  0  0  0  0  0  0  0
    8.3414  -22.7697   21.6114 C   0  0  0  0  0  0  0  0  0  0  0  0
    7.4141  -23.9713   21.7004 C   0  0  0  0  0  0  0  0  0  0  0  0
    6.6330  -23.9757   22.9959 C   0  0  0  0  0  0  0  0  0  0  0  0
    5.7759  -25.1351   23.0922 N   0  0  0  0  0  0  0  0  0  0  0  0
   11.0726  -21.4660   21.3650 C   0  0  0  0  0  0  0  0  0  0  0  0
   12.2413  -21.9533   21.1427 O   0  0  0  0  0  0  0  0  0  0  0  0
   11.5806  -24.2699   24.9815 N   0  0  0  0  0  0  0  0  0  0  0  0
   11.8910  -22.8754   24.9512 C   0  0  0  0  0  0  0  0  0  0  0  0
   11.5874  -22.1947   25.9679 O   0  0  0  0  0  0  0  0  0  0  0  0
   12.5404  -22.2332   23.7889 C   0  0  0  0  0  0  0  0  0  0  0  0
   11.9727  -20.8525   23.6087 C   0  0  2  0  0  0  0  0  0  0  0  0
   10.9010  -20.8533   22.6107 N   0  0  0  0  0  0  0  0  0  0  0  0
   12.9740  -19.8164   23.3039 C   0  0  0  0  0  0  0  0  0  0  0  0
   12.8447  -18.8733   22.3048 O   0  0  0  0  0  0  0  0  0  0  0  0
   14.0466  -19.7600   23.9912 O   0  0  0  0  0  0  0  0  0  0  0  0
  2  1  1  6
  2  3  1  0
  4  3  1  0
  5  4  2  0
  6  5  1  0
  7  6  1  0
  7  8  2  0
  8  4  1  0
  9  2  1  0
 10  9  2  0
 11  9  1  0
 12 11  1  0
 12 13  1  1
 13 14  1  0
 14 15  1  0
 16 15  1  0
 17 16  1  0
 18 12  1  0
 19 18  2  0
 20 21  1  0
 21 22  2  0
 21 23  1  0
 24 23  1  6
 24 25  1  0
 25 18  1  0
 26 24  1  0
 27 26  1  0
 28 26  2  0
M  END
$$$$
