HKN.pdb
     RDKit          3D

 28 28  0  0  1  0  0  0  0  0999 V2000
   16.0387  -18.3005   16.5902 N   0  0  0  0  0  0  0  0  0  0  0  0
   16.5663  -19.4320   17.3504 C   0  0  1  0  0  0  0  0  0  0  0  0
   18.0893  -19.4112   17.2700 C   0  0  0  0  0  0  0  0  0  0  0  0
   18.5496  -19.7548   15.9013 C   0  0  0  0  0  0  0  0  0  0  0  0
   18.2850  -20.9348   15.2402 C   0  0  0  0  0  0  0  0  0  0  0  0
   18.8669  -20.8668   14.0382 N   0  0  0  0  0  0  0  0  0  0  0  0
   19.4719  -19.6700   13.9720 C   0  0  0  0  0  0  0  0  0  0  0  0
   19.2826  -18.9813   15.1100 N   0  0  0  0  0  0  0  0  0  0  0  0
   16.1279  -19.2492   18.7562 C   0  0  0  0  0  0  0  0  0  0  0  0
   16.0692  -18.0824   19.2208 O   0  0  0  0  0  0  0  0  0  0  0  0
   15.7759  -20.3397   19.5862 N   0  0  0  0  0  0  0  0  0  0  0  0
   15.1925  -20.0880   20.9252 C   0  0  1  0  0  0  0  0  0  0  0  0
   13.9714  -20.9345   21.0929 C   0  0  0  0  0  0  0  0  0  0  0  0
   13.3553  -20.7656   22.4368 C   0  0  0  0  0  0  0  0  0  0  0  0
   12.1158  -21.6268   22.6201 C   0  0  0  0  0  0  0  0  0  0  0  0
   11.5159  -21.4514   23.9978 C   0  0  0  0  0  0  0  0  0  0  0  0
   10.2964  -22.2125   24.1438 N   0  0  0  0  0  0  0  0  0  0  0  0
   16.2476  -20.2074   21.9100 C   0  0  0  0  0  0  0  0  0  0  0  0
   16.9888  -21.2556   21.8424 O   0  0  0  0  0  0  0  0  0  0  0  0
   20.6908  -18.7096   22.9026 N   0  0  0  0  0  0  0  0  0  0  0  0
   19.3746  -18.1569   22.9664 C   0  0  0  0  0  0  0  0  0  0  0  0
   18.9897  -17.4688   21.9827 O   0  0  0  0  0  0  0  0  0  0  0  0
   18.4818  -18.3680   24.1254 C   0  0  0  0  0  0  0  0  0  0  0  0
   17.6429  -19.5923   23.8838 C   0  0  2  0  0  0  0  0  0  0  0  0
   16.5644  -19.3091   22.9345 N   0  0  0  0  0  0  0  0  0  0  0  0
   17.1150  -20.2210   25.1066 C   0  0  0  0  0  0  0  0  0  0  0  0
   17.8253  -21.0908   25.9084 O   0  0  0  0  0  0  0  0  0  0  0  0
   15.9219  -19.9657   25.4774 O   0  0  0  0  0  0  0  0  0  0  0  0
  2  1  1  6
  2  3  1  0
  4  3  1  0
  5  4  2  0
  6  5  1  0
  7  6  1  0
  7  8  2  0
  8  4  1  0
  9  2  1  0
 10  9  2  0
 11  9  1  0
 12 11  1  0
 12 13  1  1
 13 14  1  0
 14 15  1  0
 16 15  1  0
 17 16  1  0
 18 12  1  0
 19 18  2  0
 20 21  1  0
 21 22  2  0
 21 23  1  0
 24 23  1  1
 24 25  1  0
 25 18  1  0
 26 24  1  0
 27 26  1  0
 28 26  2  0
M  END
$$$$
