HKN.pdb
     RDKit          3D

 28 28  0  0  1  0  0  0  0  0999 V2000
    9.2897  -16.1992   18.7214 N   0  0  0  0  0  0  0  0  0  0  0  0
    8.2959  -16.6174   19.7083 C   0  0  1  0  0  0  0  0  0  0  0  0
    8.2836  -18.1410   19.7788 C   0  0  0  0  0  0  0  0  0  0  0  0
    7.6817  -18.7205   18.5520 C   0  0  0  0  0  0  0  0  0  0  0  0
    6.4627  -18.3672   18.0145 C   0  0  0  0  0  0  0  0  0  0  0  0
    6.2725  -19.1071   16.9171 N   0  0  0  0  0  0  0  0  0  0  0  0
    7.3539  -19.8929   16.7919 C   0  0  0  0  0  0  0  0  0  0  0  0
    8.2233  -19.6626   17.7900 N   0  0  0  0  0  0  0  0  0  0  0  0
    8.7185  -16.0506   21.0130 C   0  0  0  0  0  0  0  0  0  0  0  0
    9.9274  -16.1431   21.3455 O   0  0  0  0  0  0  0  0  0  0  0  0
    7.8097  -15.4128   21.8901 N   0  0  0  0  0  0  0  0  0  0  0  0
    8.3103  -14.7628   23.1245 C   0  0  1  0  0  0  0  0  0  0  0  0
    7.2074  -13.9584   23.7346 C   0  0  0  0  0  0  0  0  0  0  0  0
    7.6130  -13.3462   25.0288 C   0  0  0  0  0  0  0  0  0  0  0  0
    6.5093  -12.4994   25.6421 C   0  0  0  0  0  0  0  0  0  0  0  0
    6.9401  -11.8947   26.9602 C   0  0  0  0  0  0  0  0  0  0  0  0
    5.9065  -11.0531   27.5184 N   0  0  0  0  0  0  0  0  0  0  0  0
    8.9525  -15.7721   23.9407 C   0  0  0  0  0  0  0  0  0  0  0  0
    8.3175  -16.8781   24.1027 O   0  0  0  0  0  0  0  0  0  0  0  0
   11.9264  -18.9468   26.6067 N   0  0  0  0  0  0  0  0  0  0  0  0
   12.7514  -18.1424   25.7616 C   0  0  0  0  0  0  0  0  0  0  0  0
   13.9613  -18.4780   25.6480 O   0  0  0  0  0  0  0  0  0  0  0  0
   12.2329  -16.9613   25.0396 C   0  0  0  0  0  0  0  0  0  0  0  0
   10.7560  -16.8382   25.2941 C   0  0  2  0  0  0  0  0  0  0  0  0
   10.1952  -15.6906   24.5779 N   0  0  0  0  0  0  0  0  0  0  0  0
   10.3835  -16.8019   26.7186 C   0  0  0  0  0  0  0  0  0  0  0  0
   10.1726  -17.9188   27.5009 O   0  0  0  0  0  0  0  0  0  0  0  0
   10.2367  -15.6761   27.2993 O   0  0  0  0  0  0  0  0  0  0  0  0
  2  1  1  6
  2  3  1  0
  4  3  1  0
  5  4  2  0
  6  5  1  0
  7  6  1  0
  7  8  2  0
  8  4  1  0
  9  2  1  0
 10  9  2  0
 11  9  1  0
 12 11  1  0
 12 13  1  1
 13 14  1  0
 14 15  1  0
 16 15  1  0
 17 16  1  0
 18 12  1  0
 19 18  2  0
 20 21  1  0
 21 22  2  0
 21 23  1  0
 24 23  1  1
 24 25  1  0
 25 18  1  0
 26 24  1  0
 27 26  1  0
 28 26  2  0
M  END
$$$$
