HKN.pdb
     RDKit          3D

 28 28  0  0  1  0  0  0  0  0999 V2000
    8.3925  -19.2148   19.2244 N   0  0  0  0  0  0  0  0  0  0  0  0
    8.9980  -20.1719   20.1483 C   0  0  1  0  0  0  0  0  0  0  0  0
   10.4354  -19.7444   20.4273 C   0  0  0  0  0  0  0  0  0  0  0  0
   11.3220  -20.1042   19.2924 C   0  0  0  0  0  0  0  0  0  0  0  0
   11.0257  -19.9281   17.9580 C   0  0  0  0  0  0  0  0  0  0  0  0
   12.0684  -20.3718   17.2481 N   0  0  0  0  0  0  0  0  0  0  0  0
   12.9781  -20.8079   18.1340 C   0  0  0  0  0  0  0  0  0  0  0  0
   12.5289  -20.6477   19.3901 N   0  0  0  0  0  0  0  0  0  0  0  0
    8.2014  -20.1269   21.3995 C   0  0  0  0  0  0  0  0  0  0  0  0
    7.8770  -19.0052   21.8657 O   0  0  0  0  0  0  0  0  0  0  0  0
    7.7973  -21.2992   22.0810 N   0  0  0  0  0  0  0  0  0  0  0  0
    6.9631  -21.1913   23.3013 C   0  0  1  0  0  0  0  0  0  0  0  0
    6.0113  -22.3436   23.3457 C   0  0  0  0  0  0  0  0  0  0  0  0
    5.2104  -22.3580   24.5997 C   0  0  0  0  0  0  0  0  0  0  0  0
    4.3424  -23.6004   24.7204 C   0  0  0  0  0  0  0  0  0  0  0  0
    3.4836  -23.5597   25.9652 C   0  0  0  0  0  0  0  0  0  0  0  0
    2.8414  -24.8315   26.2059 N   0  0  0  0  0  0  0  0  0  0  0  0
    7.8409  -20.9855   24.4347 C   0  0  0  0  0  0  0  0  0  0  0  0
    8.9450  -21.6440   24.4409 O   0  0  0  0  0  0  0  0  0  0  0  0
   10.2272  -19.9049   28.8369 N   0  0  0  0  0  0  0  0  0  0  0  0
    9.5243  -18.7314   28.4235 C   0  0  0  0  0  0  0  0  0  0  0  0
    9.6723  -17.6937   29.1238 O   0  0  0  0  0  0  0  0  0  0  0  0
    8.6540  -18.7086   27.2289 C   0  0  0  0  0  0  0  0  0  0  0  0
    8.5940  -20.0896   26.6372 C   0  0  2  0  0  0  0  0  0  0  0  0
    7.6331  -20.1451   25.5335 N   0  0  0  0  0  0  0  0  0  0  0  0
    8.3346  -21.1609   27.6141 C   0  0  0  0  0  0  0  0  0  0  0  0
    9.3153  -21.8998   28.2438 O   0  0  0  0  0  0  0  0  0  0  0  0
    7.1314  -21.4517   27.9204 O   0  0  0  0  0  0  0  0  0  0  0  0
  2  1  1  6
  2  3  1  0
  4  3  1  0
  5  4  2  0
  6  5  1  0
  7  6  1  0
  7  8  2  0
  8  4  1  0
  9  2  1  0
 10  9  2  0
 11  9  1  0
 12 11  1  0
 12 13  1  1
 13 14  1  0
 14 15  1  0
 16 15  1  0
 17 16  1  0
 18 12  1  0
 19 18  2  0
 20 21  1  0
 21 22  2  0
 21 23  1  0
 24 23  1  1
 24 25  1  0
 25 18  1  0
 26 24  1  0
 27 26  1  0
 28 26  2  0
M  END
$$$$
