HKN.pdb
     RDKit          3D

 28 28  0  0  1  0  0  0  0  0999 V2000
    9.3076  -15.5906   20.7434 N   0  0  0  0  0  0  0  0  0  0  0  0
    8.4385  -14.6956   21.5051 C   0  0  1  0  0  0  0  0  0  0  0  0
    7.1543  -14.4667   20.7145 C   0  0  0  0  0  0  0  0  0  0  0  0
    7.4543  -13.9093   19.3718 C   0  0  0  0  0  0  0  0  0  0  0  0
    8.7128  -13.7567   18.8312 C   0  0  0  0  0  0  0  0  0  0  0  0
    8.5701  -13.2245   17.6128 N   0  0  0  0  0  0  0  0  0  0  0  0
    7.2521  -13.0580   17.4188 C   0  0  0  0  0  0  0  0  0  0  0  0
    6.5601  -13.4752   18.4923 N   0  0  0  0  0  0  0  0  0  0  0  0
    8.1328  -15.3785   22.7865 C   0  0  0  0  0  0  0  0  0  0  0  0
    7.4237  -14.7781   23.6336 O   0  0  0  0  0  0  0  0  0  0  0  0
    8.6109  -16.6764   23.0843 N   0  0  0  0  0  0  0  0  0  0  0  0
    8.4141  -17.2407   24.4407 C   0  0  1  0  0  0  0  0  0  0  0  0
    7.8406  -18.6162   24.3189 C   0  0  0  0  0  0  0  0  0  0  0  0
    7.2368  -18.8526   22.9796 C   0  0  0  0  0  0  0  0  0  0  0  0
    6.6891  -20.2630   22.8300 C   0  0  0  0  0  0  0  0  0  0  0  0
    6.0874  -20.4832   21.4596 C   0  0  0  0  0  0  0  0  0  0  0  0
    5.6144  -21.8394   21.3019 N   0  0  0  0  0  0  0  0  0  0  0  0
    9.6464  -17.0771   25.1838 C   0  0  0  0  0  0  0  0  0  0  0  0
   10.5874  -16.4161   24.6091 O   0  0  0  0  0  0  0  0  0  0  0  0
   10.5635  -13.3518   28.5434 N   0  0  0  0  0  0  0  0  0  0  0  0
    9.9077  -14.6033   28.7567 C   0  0  0  0  0  0  0  0  0  0  0  0
    9.7204  -14.9602   29.9512 O   0  0  0  0  0  0  0  0  0  0  0  0
    9.4577  -15.4625   27.6412 C   0  0  0  0  0  0  0  0  0  0  0  0
   10.3791  -16.6454   27.5284 C   0  0  2  0  0  0  0  0  0  0  0  0
    9.9390  -17.5525   26.4664 N   0  0  0  0  0  0  0  0  0  0  0  0
   10.5906  -17.3761   28.7896 C   0  0  0  0  0  0  0  0  0  0  0  0
    9.7164  -18.3086   29.3096 O   0  0  0  0  0  0  0  0  0  0  0  0
   11.6440  -17.1543   29.4732 O   0  0  0  0  0  0  0  0  0  0  0  0
  2  1  1  6
  2  3  1  0
  4  3  1  0
  5  4  2  0
  6  5  1  0
  7  6  1  0
  7  8  2  0
  8  4  1  0
  9  2  1  0
 10  9  2  0
 11  9  1  0
 12 11  1  0
 12 13  1  6
 13 14  1  0
 14 15  1  0
 16 15  1  0
 17 16  1  0
 18 12  1  0
 19 18  2  0
 20 21  1  0
 21 22  2  0
 21 23  1  0
 24 23  1  1
 24 25  1  0
 25 18  1  0
 26 24  1  0
 27 26  1  0
 28 26  2  0
M  END
$$$$
