HKN.pdb
     RDKit          3D

 28 28  0  0  1  0  0  0  0  0999 V2000
   10.5414  -17.0577   19.8264 N   0  0  0  0  0  0  0  0  0  0  0  0
    9.8311  -17.6399   20.9635 C   0  0  1  0  0  0  0  0  0  0  0  0
   10.5225  -18.9398   21.3620 C   0  0  0  0  0  0  0  0  0  0  0  0
   10.2314  -20.0142   20.3800 C   0  0  0  0  0  0  0  0  0  0  0  0
    9.4092  -21.0982   20.5997 C   0  0  0  0  0  0  0  0  0  0  0  0
    9.4021  -21.8358   19.4843 N   0  0  0  0  0  0  0  0  0  0  0  0
   10.2037  -21.2116   18.6066 C   0  0  0  0  0  0  0  0  0  0  0  0
   10.7165  -20.0936   19.1472 N   0  0  0  0  0  0  0  0  0  0  0  0
    9.9142  -16.6579   22.0728 C   0  0  0  0  0  0  0  0  0  0  0  0
   11.0456  -16.2234   22.4077 O   0  0  0  0  0  0  0  0  0  0  0  0
    8.7677  -16.1973   22.7622 N   0  0  0  0  0  0  0  0  0  0  0  0
    8.9205  -15.2718   23.9098 C   0  0  1  0  0  0  0  0  0  0  0  0
    7.6042  -14.6206   24.1907 C   0  0  0  0  0  0  0  0  0  0  0  0
    7.6624  -13.7369   25.3865 C   0  0  0  0  0  0  0  0  0  0  0  0
    6.3145  -13.1155   25.7158 C   0  0  0  0  0  0  0  0  0  0  0  0
    6.4153  -12.1531   26.8787 C   0  0  0  0  0  0  0  0  0  0  0  0
    5.1131  -11.6763   27.2845 N   0  0  0  0  0  0  0  0  0  0  0  0
    9.5728  -15.9876   24.9867 C   0  0  0  0  0  0  0  0  0  0  0  0
    9.1289  -17.1641   25.2542 O   0  0  0  0  0  0  0  0  0  0  0  0
   10.9746  -14.3206   29.5468 N   0  0  0  0  0  0  0  0  0  0  0  0
    9.8318  -14.5787   28.7288 C   0  0  0  0  0  0  0  0  0  0  0  0
    8.9612  -13.6702   28.6509 O   0  0  0  0  0  0  0  0  0  0  0  0
    9.6535  -15.8491   27.9943 C   0  0  0  0  0  0  0  0  0  0  0  0
   10.8559  -16.0868   27.1232 C   0  0  2  0  0  0  0  0  0  0  0  0
   10.6413  -15.5514   25.7772 N   0  0  0  0  0  0  0  0  0  0  0  0
   11.2998  -17.4899   27.0661 C   0  0  0  0  0  0  0  0  0  0  0  0
   10.4973  -18.5500   26.6969 O   0  0  0  0  0  0  0  0  0  0  0  0
   12.5029  -17.7795   27.3740 O   0  0  0  0  0  0  0  0  0  0  0  0
  2  1  1  6
  2  3  1  0
  4  3  1  0
  5  4  2  0
  6  5  1  0
  7  6  1  0
  7  8  2  0
  8  4  1  0
  9  2  1  0
 10  9  2  0
 11  9  1  0
 12 11  1  0
 12 13  1  1
 13 14  1  0
 14 15  1  0
 16 15  1  0
 17 16  1  0
 18 12  1  0
 19 18  2  0
 20 21  1  0
 21 22  2  0
 21 23  1  0
 24 23  1  1
 24 25  1  0
 25 18  1  0
 26 24  1  0
 27 26  1  0
 28 26  2  0
M  END
$$$$
