CYF.pdb
     RDKit          3D

 30 31  0  0  1  0  0  0  0  0999 V2000
   30.6288   -8.5380  -20.6958 N   0  0  0  0  0  0  0  0  0  0  0  0
   29.7824   -7.7621  -19.8483 C   0  0  1  0  0  0  0  0  0  0  0  0
   29.3636   -6.4472  -20.4435 C   0  0  0  0  0  0  0  0  0  0  0  0
   30.7932   -5.3540  -20.6022 S   0  0  0  0  0  0  0  0  0  0  0  0
   28.5076   -8.5037  -19.5095 C   0  0  0  0  0  0  0  0  0  0  0  0
   27.7238   -8.8593  -20.4229 O   0  0  0  0  0  0  0  0  0  0  0  0
   23.6206  -14.6662  -15.6758 O   0  0  0  0  0  0  0  0  0  0  0  0
   24.5718  -13.7209  -16.0083 C   0  0  0  0  0  0  0  0  0  0  0  0
   25.3860  -13.1516  -15.0579 C   0  0  0  0  0  0  0  0  0  0  0  0
   26.3069  -12.2218  -15.4541 C   0  0  0  0  0  0  0  0  0  0  0  0
   26.4787  -11.8076  -16.7676 C   0  0  0  0  0  0  0  0  0  0  0  0
   27.4307  -10.8052  -17.2024 C   0  0  0  0  0  0  0  0  0  0  0  0
   26.9679   -9.5617  -17.8204 C   0  0  2  0  0  0  0  0  0  0  0  0
   28.1838   -8.8045  -18.1641 N   0  0  0  0  0  0  0  0  0  0  0  0
   26.0849   -8.6764  -17.0371 C   0  0  0  0  0  0  0  0  0  0  0  0
   26.5523   -7.9075  -16.1327 O   0  0  0  0  0  0  0  0  0  0  0  0
   25.6474  -12.3964  -17.6995 C   0  0  0  0  0  0  0  0  0  0  0  0
   24.6974  -13.3492  -17.3237 C   0  0  0  0  0  0  0  0  0  0  0  0
   24.6758   -8.5780  -17.1944 N   0  0  0  0  0  0  0  0  0  0  0  0
   23.8523   -7.7101  -16.3296 C   0  0  1  0  0  0  0  0  0  0  0  0
   24.0822   -6.2724  -16.7154 C   0  0  0  0  0  0  0  0  0  0  0  0
   23.1743   -5.3215  -16.0628 C   0  0  0  0  0  0  0  0  0  0  0  0
   22.1145   -4.7152  -16.7124 C   0  0  0  0  0  0  0  0  0  0  0  0
   21.2923   -3.8348  -16.0469 C   0  0  0  0  0  0  0  0  0  0  0  0
   21.4602   -3.5028  -14.7241 C   0  0  0  0  0  0  0  0  0  0  0  0
   22.5121   -4.0988  -14.0640 C   0  0  0  0  0  0  0  0  0  0  0  0
   23.3427   -4.9805  -14.7140 C   0  0  0  0  0  0  0  0  0  0  0  0
   22.4137   -8.0245  -16.4635 C   0  0  0  0  0  0  0  0  0  0  0  0
   21.9093   -8.4407  -17.5511 O   0  0  0  0  0  0  0  0  0  0  0  0
   21.5499   -7.8803  -15.4026 O   0  0  0  0  0  0  0  0  0  0  0  0
  2  1  1  6
  2  3  1  0
  3  4  1  0
  5  6  2  0
  5  2  1  0
  8  7  1  0
  9  8  2  0
 10  9  1  0
 11 10  2  0
 11 17  1  0
 12 11  1  0
 13 14  1  0
 13 12  1  1
 14  5  1  0
 15 13  1  0
 16 15  2  0
 17 18  2  0
 18  8  1  0
 19 15  1  0
 20 19  1  0
 20 21  1  6
 22 21  1  0
 23 22  2  0
 24 23  1  0
 25 24  2  0
 25 26  1  0
 26 27  2  0
 27 22  1  0
 28 20  1  0
 28 30  1  0
 29 28  2  0
M  END
$$$$
