CYF.pdb
     RDKit          3D

 30 31  0  0  1  0  0  0  0  0999 V2000
   26.3697  -18.8477  -15.9129 N   0  0  0  0  0  0  0  0  0  0  0  0
   27.2417  -19.1030  -14.8125 C   0  0  1  0  0  0  0  0  0  0  0  0
   28.3051  -18.0583  -14.6220 C   0  0  0  0  0  0  0  0  0  0  0  0
   29.3508  -17.9613  -16.0921 S   0  0  0  0  0  0  0  0  0  0  0  0
   26.4793  -19.1801  -13.5076 C   0  0  0  0  0  0  0  0  0  0  0  0
   25.8175  -18.1925  -13.1053 O   0  0  0  0  0  0  0  0  0  0  0  0
   19.9563  -20.1262  -14.7029 O   0  0  0  0  0  0  0  0  0  0  0  0
   21.1250  -20.4818  -14.0574 C   0  0  0  0  0  0  0  0  0  0  0  0
   22.1591  -21.0956  -14.7239 C   0  0  0  0  0  0  0  0  0  0  0  0
   23.2886  -21.4214  -14.0256 C   0  0  0  0  0  0  0  0  0  0  0  0
   23.4654  -21.1716  -12.6718 C   0  0  0  0  0  0  0  0  0  0  0  0
   24.6439  -21.5331  -11.9098 C   0  0  0  0  0  0  0  0  0  0  0  0
   25.6335  -20.5172  -11.5480 C   0  0  2  0  0  0  0  0  0  0  0  0
   26.5024  -20.3616  -12.7273 N   0  0  0  0  0  0  0  0  0  0  0  0
   26.4947  -20.7643  -10.3758 C   0  0  0  0  0  0  0  0  0  0  0  0
   27.3568  -21.7046  -10.3745 O   0  0  0  0  0  0  0  0  0  0  0  0
   22.4106  -20.5546  -12.0294 C   0  0  0  0  0  0  0  0  0  0  0  0
   21.2445  -20.2102  -12.7171 C   0  0  0  0  0  0  0  0  0  0  0  0
   26.4688  -20.0152   -9.1682 N   0  0  0  0  0  0  0  0  0  0  0  0
   27.1998  -20.4522   -7.9624 C   0  0  1  0  0  0  0  0  0  0  0  0
   27.9003  -19.2649   -7.3557 C   0  0  0  0  0  0  0  0  0  0  0  0
   28.5654  -19.5466   -6.0780 C   0  0  0  0  0  0  0  0  0  0  0  0
   29.7639  -20.2300   -5.9800 C   0  0  0  0  0  0  0  0  0  0  0  0
   30.3440  -20.4602   -4.7534 C   0  0  0  0  0  0  0  0  0  0  0  0
   29.7895  -20.0394   -3.5686 C   0  0  0  0  0  0  0  0  0  0  0  0
   28.5955  -19.3576   -3.6506 C   0  0  0  0  0  0  0  0  0  0  0  0
   28.0027  -19.1190   -4.8677 C   0  0  0  0  0  0  0  0  0  0  0  0
   26.2848  -21.0400   -6.9606 C   0  0  0  0  0  0  0  0  0  0  0  0
   25.0304  -20.8506   -6.9948 O   0  0  0  0  0  0  0  0  0  0  0  0
   26.7581  -21.8286   -5.9377 O   0  0  0  0  0  0  0  0  0  0  0  0
  2  1  1  6
  2  3  1  0
  3  4  1  0
  5  6  2  0
  5  2  1  0
  8  7  1  0
  9  8  2  0
 10  9  1  0
 11 10  2  0
 11 17  1  0
 12 11  1  0
 13 14  1  0
 13 12  1  6
 14  5  1  0
 15 13  1  0
 16 15  2  0
 17 18  2  0
 18  8  1  0
 19 15  1  0
 20 19  1  0
 20 21  1  1
 22 21  1  0
 23 22  2  0
 24 23  1  0
 25 24  2  0
 25 26  1  0
 26 27  2  0
 27 22  1  0
 28 20  1  0
 28 30  1  0
 29 28  2  0
M  END
$$$$
