CYF.pdb
     RDKit          3D

 30 31  0  0  1  0  0  0  0  0999 V2000
   28.2826  -21.9450  -17.6207 N   0  0  0  0  0  0  0  0  0  0  0  0
   28.6191  -22.1572  -16.2501 C   0  0  1  0  0  0  0  0  0  0  0  0
   30.0588  -21.8745  -15.9249 C   0  0  0  0  0  0  0  0  0  0  0  0
   31.1034  -23.2319  -16.4995 S   0  0  0  0  0  0  0  0  0  0  0  0
   27.7935  -21.2798  -15.3345 C   0  0  0  0  0  0  0  0  0  0  0  0
   27.7277  -20.0430  -15.5377 O   0  0  0  0  0  0  0  0  0  0  0  0
   19.9385  -19.2747  -12.2929 O   0  0  0  0  0  0  0  0  0  0  0  0
   21.1121  -19.8619  -12.7252 C   0  0  0  0  0  0  0  0  0  0  0  0
   21.5115  -21.0962  -12.2698 C   0  0  0  0  0  0  0  0  0  0  0  0
   22.6841  -21.6207  -12.7380 C   0  0  0  0  0  0  0  0  0  0  0  0
   23.5103  -20.9841  -13.6537 C   0  0  0  0  0  0  0  0  0  0  0  0
   24.7688  -21.5123  -14.1410 C   0  0  0  0  0  0  0  0  0  0  0  0
   26.0342  -21.0839  -13.5430 C   0  0  2  0  0  0  0  0  0  0  0  0
   27.0877  -21.8397  -14.2419 N   0  0  0  0  0  0  0  0  0  0  0  0
   26.2227  -21.2730  -12.0920 C   0  0  0  0  0  0  0  0  0  0  0  0
   26.4189  -22.4318  -11.5956 O   0  0  0  0  0  0  0  0  0  0  0  0
   23.0836  -19.7468  -14.0929 C   0  0  0  0  0  0  0  0  0  0  0  0
   21.8900  -19.1861  -13.6321 C   0  0  0  0  0  0  0  0  0  0  0  0
   26.2128  -20.2337  -11.1226 N   0  0  0  0  0  0  0  0  0  0  0  0
   25.9734  -20.5033   -9.6911 C   0  0  1  0  0  0  0  0  0  0  0  0
   26.3693  -19.2908   -8.8901 C   0  0  0  0  0  0  0  0  0  0  0  0
   27.4014  -19.5481   -7.8787 C   0  0  0  0  0  0  0  0  0  0  0  0
   27.7421  -18.6397   -6.8931 C   0  0  0  0  0  0  0  0  0  0  0  0
   28.7153  -18.9386   -5.9670 C   0  0  0  0  0  0  0  0  0  0  0  0
   29.4009  -20.1295   -5.9546 C   0  0  0  0  0  0  0  0  0  0  0  0
   29.0723  -21.0442   -6.9306 C   0  0  0  0  0  0  0  0  0  0  0  0
   28.1026  -20.7614   -7.8631 C   0  0  0  0  0  0  0  0  0  0  0  0
   24.5512  -20.8135   -9.4313 C   0  0  0  0  0  0  0  0  0  0  0  0
   24.1874  -21.5986   -8.5030 O   0  0  0  0  0  0  0  0  0  0  0  0
   23.5488  -20.2566  -10.1912 O   0  0  0  0  0  0  0  0  0  0  0  0
  2  1  1  6
  2  3  1  0
  3  4  1  0
  5  6  2  0
  5  2  1  0
  8  7  1  0
  9  8  2  0
 10  9  1  0
 11 10  2  0
 11 17  1  0
 12 11  1  0
 13 14  1  0
 13 12  1  6
 14  5  1  0
 15 13  1  0
 16 15  2  0
 17 18  2  0
 18  8  1  0
 19 15  1  0
 20 19  1  0
 20 21  1  1
 22 21  1  0
 23 22  2  0
 24 23  1  0
 25 24  2  0
 25 26  1  0
 26 27  2  0
 27 22  1  0
 28 20  1  0
 28 30  1  0
 29 28  2  0
M  END
$$$$
