CYF.pdb
     RDKit          3D

 30 31  0  0  1  0  0  0  0  0999 V2000
   26.2905  -18.9306  -16.0227 N   0  0  0  0  0  0  0  0  0  0  0  0
   27.1311  -19.2752  -14.9221 C   0  0  1  0  0  0  0  0  0  0  0  0
   28.3371  -18.3906  -14.7755 C   0  0  0  0  0  0  0  0  0  0  0  0
   29.4357  -18.5981  -16.1948 S   0  0  0  0  0  0  0  0  0  0  0  0
   26.3832  -19.1998  -13.6088 C   0  0  0  0  0  0  0  0  0  0  0  0
   25.9164  -18.1046  -13.2115 O   0  0  0  0  0  0  0  0  0  0  0  0
   19.0254  -19.3726  -10.9174 O   0  0  0  0  0  0  0  0  0  0  0  0
   20.3134  -19.8420  -11.0890 C   0  0  0  0  0  0  0  0  0  0  0  0
   21.0379  -20.3598  -10.0415 C   0  0  0  0  0  0  0  0  0  0  0  0
   22.3079  -20.8073  -10.2795 C   0  0  0  0  0  0  0  0  0  0  0  0
   22.9242  -20.7743  -11.5226 C   0  0  0  0  0  0  0  0  0  0  0  0
   24.2775  -21.2193  -11.7884 C   0  0  0  0  0  0  0  0  0  0  0  0
   25.4104  -20.3180  -11.5725 C   0  0  2  0  0  0  0  0  0  0  0  0
   26.2010  -20.3582  -12.8148 N   0  0  0  0  0  0  0  0  0  0  0  0
   26.3196  -20.5936  -10.4437 C   0  0  0  0  0  0  0  0  0  0  0  0
   27.1936  -21.5206  -10.5090 O   0  0  0  0  0  0  0  0  0  0  0  0
   22.1726  -20.2492  -12.5548 C   0  0  0  0  0  0  0  0  0  0  0  0
   20.8726  -19.7845  -12.3413 C   0  0  0  0  0  0  0  0  0  0  0  0
   26.3305  -19.8881   -9.2100 N   0  0  0  0  0  0  0  0  0  0  0  0
   27.1227  -20.3501   -8.0531 C   0  0  1  0  0  0  0  0  0  0  0  0
   27.6901  -19.1528   -7.3369 C   0  0  0  0  0  0  0  0  0  0  0  0
   28.3334  -19.4668   -6.0556 C   0  0  0  0  0  0  0  0  0  0  0  0
   27.7286  -19.2548   -4.8300 C   0  0  0  0  0  0  0  0  0  0  0  0
   28.3792  -19.5742   -3.6600 C   0  0  0  0  0  0  0  0  0  0  0  0
   29.6430  -20.1123   -3.6253 C   0  0  0  0  0  0  0  0  0  0  0  0
   30.2581  -20.3290   -4.8386 C   0  0  0  0  0  0  0  0  0  0  0  0
   29.6223  -20.0157   -6.0165 C   0  0  0  0  0  0  0  0  0  0  0  0
   26.2946  -21.1322   -7.1103 C   0  0  0  0  0  0  0  0  0  0  0  0
   25.0262  -21.0969   -7.1321 O   0  0  0  0  0  0  0  0  0  0  0  0
   26.8691  -21.9432   -6.1591 O   0  0  0  0  0  0  0  0  0  0  0  0
  2  1  1  6
  2  3  1  0
  3  4  1  0
  5  6  2  0
  5  2  1  0
  8  7  1  0
  9  8  2  0
 10  9  1  0
 11 10  2  0
 11 17  1  0
 12 11  1  0
 13 14  1  0
 13 12  1  6
 14  5  1  0
 15 13  1  0
 16 15  2  0
 17 18  2  0
 18  8  1  0
 19 15  1  0
 20 19  1  0
 20 21  1  1
 22 21  1  0
 23 22  2  0
 24 23  1  0
 25 24  2  0
 25 26  1  0
 26 27  2  0
 27 22  1  0
 28 20  1  0
 28 30  1  0
 29 28  2  0
M  END
$$$$
