CYF.pdb
     RDKit          3D

 30 31  0  0  1  0  0  0  0  0999 V2000
   42.1151   -5.5450   -4.9878 N   0  0  0  0  0  0  0  0  0  0  0  0
   41.5200   -4.4050   -5.6067 C   0  0  1  0  0  0  0  0  0  0  0  0
   41.5402   -4.4467   -7.1088 C   0  0  0  0  0  0  0  0  0  0  0  0
   43.2229   -4.1904   -7.7146 S   0  0  0  0  0  0  0  0  0  0  0  0
   40.0701   -4.2488   -5.2026 C   0  0  0  0  0  0  0  0  0  0  0  0
   39.2934   -5.2336   -5.2492 O   0  0  0  0  0  0  0  0  0  0  0  0
   33.6572   -0.7835   -0.1040 O   0  0  0  0  0  0  0  0  0  0  0  0
   34.7767   -1.2256   -0.7823 C   0  0  0  0  0  0  0  0  0  0  0  0
   35.2041   -2.5295   -0.6962 C   0  0  0  0  0  0  0  0  0  0  0  0
   36.3201   -2.9019   -1.3929 C   0  0  0  0  0  0  0  0  0  0  0  0
   37.0612   -2.0424   -2.1919 C   0  0  0  0  0  0  0  0  0  0  0  0
   38.2607   -2.4124   -2.9163 C   0  0  0  0  0  0  0  0  0  0  0  0
   38.1808   -2.8406   -4.3136 C   0  0  2  0  0  0  0  0  0  0  0  0
   39.5731   -2.9957   -4.7689 N   0  0  0  0  0  0  0  0  0  0  0  0
   37.4807   -1.9673   -5.2749 C   0  0  0  0  0  0  0  0  0  0  0  0
   38.0551   -0.9473   -5.7823 O   0  0  0  0  0  0  0  0  0  0  0  0
   36.6082   -0.7400   -2.2590 C   0  0  0  0  0  0  0  0  0  0  0  0
   35.4711   -0.3311   -1.5581 C   0  0  0  0  0  0  0  0  0  0  0  0
   36.1476   -2.1541   -5.7306 N   0  0  0  0  0  0  0  0  0  0  0  0
   35.4811   -1.1790   -6.6163 C   0  0  1  0  0  0  0  0  0  0  0  0
   34.1729   -1.7578   -7.0876 C   0  0  0  0  0  0  0  0  0  0  0  0
   33.4369   -0.8990   -8.0231 C   0  0  0  0  0  0  0  0  0  0  0  0
   33.6180   -0.9387   -9.3936 C   0  0  0  0  0  0  0  0  0  0  0  0
   32.8945   -0.1123  -10.2229 C   0  0  0  0  0  0  0  0  0  0  0  0
   31.9647    0.7884   -9.7618 C   0  0  0  0  0  0  0  0  0  0  0  0
   31.7738    0.8393   -8.3987 C   0  0  0  0  0  0  0  0  0  0  0  0
   32.4881    0.0207   -7.5563 C   0  0  0  0  0  0  0  0  0  0  0  0
   35.2229    0.0972   -5.9156 C   0  0  0  0  0  0  0  0  0  0  0  0
   34.9326    0.1460   -4.6811 O   0  0  0  0  0  0  0  0  0  0  0  0
   35.2889    1.3011   -6.5779 O   0  0  0  0  0  0  0  0  0  0  0  0
  2  1  1  1
  2  3  1  0
  3  4  1  0
  5  6  2  0
  5  2  1  0
  8  7  1  0
  9  8  2  0
 10  9  1  0
 11 10  2  0
 11 17  1  0
 12 11  1  0
 13 14  1  0
 13 12  1  1
 14  5  1  0
 15 13  1  0
 16 15  2  0
 17 18  2  0
 18  8  1  0
 19 15  1  0
 20 19  1  0
 20 21  1  1
 22 21  1  0
 23 22  2  0
 24 23  1  0
 25 24  2  0
 25 26  1  0
 26 27  2  0
 27 22  1  0
 28 20  1  0
 28 30  1  0
 29 28  2  0
M  END
$$$$
