CYF.pdb
     RDKit          3D

 30 31  0  0  1  0  0  0  0  0999 V2000
   26.1679  -19.0499  -15.7813 N   0  0  0  0  0  0  0  0  0  0  0  0
   27.0302  -19.1889  -14.6527 C   0  0  1  0  0  0  0  0  0  0  0  0
   28.0312  -18.0771  -14.5096 C   0  0  0  0  0  0  0  0  0  0  0  0
   29.4818  -18.4120  -15.5331 S   0  0  0  0  0  0  0  0  0  0  0  0
   26.2471  -19.2286  -13.3585 C   0  0  0  0  0  0  0  0  0  0  0  0
   25.5781  -18.2304  -12.9959 O   0  0  0  0  0  0  0  0  0  0  0  0
   19.6339  -20.0962  -14.1882 O   0  0  0  0  0  0  0  0  0  0  0  0
   20.7930  -20.4170  -13.5082 C   0  0  0  0  0  0  0  0  0  0  0  0
   21.0327  -19.9581  -12.2346 C   0  0  0  0  0  0  0  0  0  0  0  0
   22.2003  -20.3127  -11.6179 C   0  0  0  0  0  0  0  0  0  0  0  0
   23.1735  -21.1151  -12.1971 C   0  0  0  0  0  0  0  0  0  0  0  0
   24.4279  -21.4796  -11.5695 C   0  0  0  0  0  0  0  0  0  0  0  0
   25.4515  -20.4652  -11.3137 C   0  0  2  0  0  0  0  0  0  0  0  0
   26.2586  -20.3866  -12.5435 N   0  0  0  0  0  0  0  0  0  0  0  0
   26.3700  -20.6679  -10.1770 C   0  0  0  0  0  0  0  0  0  0  0  0
   27.1840  -21.6499  -10.1509 O   0  0  0  0  0  0  0  0  0  0  0  0
   22.9053  -21.5608  -13.4760 C   0  0  0  0  0  0  0  0  0  0  0  0
   21.7209  -21.2145  -14.1307 C   0  0  0  0  0  0  0  0  0  0  0  0
   26.4546  -19.8290   -9.0329 N   0  0  0  0  0  0  0  0  0  0  0  0
   27.2231  -20.2184   -7.8341 C   0  0  1  0  0  0  0  0  0  0  0  0
   27.7435  -18.9763   -7.1596 C   0  0  0  0  0  0  0  0  0  0  0  0
   28.4514  -19.2276   -5.8986 C   0  0  0  0  0  0  0  0  0  0  0  0
   27.8086  -19.3738   -4.6828 C   0  0  0  0  0  0  0  0  0  0  0  0
   28.5253  -19.6139   -3.5327 C   0  0  0  0  0  0  0  0  0  0  0  0
   29.8950  -19.7228   -3.5093 C   0  0  0  0  0  0  0  0  0  0  0  0
   30.5490  -19.5792   -4.7130 C   0  0  0  0  0  0  0  0  0  0  0  0
   29.8482  -19.3391   -5.8711 C   0  0  0  0  0  0  0  0  0  0  0  0
   26.3856  -20.9749   -6.8788 C   0  0  0  0  0  0  0  0  0  0  0  0
   25.1175  -20.9432   -6.9165 O   0  0  0  0  0  0  0  0  0  0  0  0
   26.9505  -21.7567   -5.8979 O   0  0  0  0  0  0  0  0  0  0  0  0
  2  1  1  6
  2  3  1  0
  3  4  1  0
  5  6  2  0
  5  2  1  0
  8  7  1  0
  9  8  2  0
 10  9  1  0
 11 10  2  0
 11 17  1  0
 12 11  1  0
 13 14  1  0
 13 12  1  6
 14  5  1  0
 15 13  1  0
 16 15  2  0
 17 18  2  0
 18  8  1  0
 19 15  1  0
 20 19  1  0
 20 21  1  1
 22 21  1  0
 23 22  2  0
 24 23  1  0
 25 24  2  0
 25 26  1  0
 26 27  2  0
 27 22  1  0
 28 20  1  0
 28 30  1  0
 29 28  2  0
M  END
$$$$
