GGF.pdb
     RDKit          3D

 20 20  0  0  1  0  0  0  0  0999 V2000
    4.9481  -20.6210   22.5502 N   0  0  0  0  0  0  0  0  0  0  0  0
    5.6347  -19.8419   23.5120 C   0  0  0  0  0  0  0  0  0  0  0  0
    6.4167  -18.7830   22.7995 C   0  0  0  0  0  0  0  0  0  0  0  0
    7.5560  -19.0133   22.3133 O   0  0  0  0  0  0  0  0  0  0  0  0
    5.8958  -17.4679   22.6453 N   0  0  0  0  0  0  0  0  0  0  0  0
    6.6112  -16.4353   21.9407 C   0  0  0  0  0  0  0  0  0  0  0  0
    7.5981  -15.8144   22.8866 C   0  0  0  0  0  0  0  0  0  0  0  0
    8.3241  -14.8352   22.5326 O   0  0  0  0  0  0  0  0  0  0  0  0
    7.7720  -16.2818   24.2126 N   0  0  0  0  0  0  0  0  0  0  0  0
    8.7585  -15.7438   25.1084 C   0  0  1  0  0  0  0  0  0  0  0  0
    8.1912  -15.3403   26.4445 C   0  0  0  0  0  0  0  0  0  0  0  0
    7.5246  -14.0301   26.4171 C   0  0  0  0  0  0  0  0  0  0  0  0
    6.2012  -13.8987   26.7799 C   0  0  0  0  0  0  0  0  0  0  0  0
    5.5586  -12.6615   26.7578 C   0  0  0  0  0  0  0  0  0  0  0  0
    6.2271  -11.5259   26.3715 C   0  0  0  0  0  0  0  0  0  0  0  0
    7.5502  -11.6472   26.0072 C   0  0  0  0  0  0  0  0  0  0  0  0
    8.1794  -12.8774   26.0319 C   0  0  0  0  0  0  0  0  0  0  0  0
    9.8498  -16.7374   25.2505 C   0  0  0  0  0  0  0  0  0  0  0  0
    9.6965  -17.9583   24.9782 O   0  0  0  0  0  0  0  0  0  0  0  0
   11.1190  -16.3677   25.6987 O   0  0  0  0  0  0  0  0  0  0  0  0
  2  1  1  0
  3  2  1  0
  4  3  2  0
  5  3  1  0
  6  5  1  0
  7  8  2  0
  7  6  1  0
  9  7  1  0
 10  9  1  0
 10 11  1  1
 11 12  1  0
 12 17  2  0
 12 13  1  0
 13 14  2  0
 14 15  1  0
 16 15  2  0
 17 16  1  0
 18 10  1  0
 19 18  2  0
 20 18  1  0
M  END
$$$$
