GGF.pdb
     RDKit          3D

 20 20  0  0  1  0  0  0  0  0999 V2000
    8.7625  -17.4322   18.6935 N   0  0  0  0  0  0  0  0  0  0  0  0
    7.6231  -18.0191   19.2940 C   0  0  0  0  0  0  0  0  0  0  0  0
    7.1418  -17.1184   20.3883 C   0  0  0  0  0  0  0  0  0  0  0  0
    6.3522  -17.5237   21.2825 O   0  0  0  0  0  0  0  0  0  0  0  0
    7.5632  -15.7611   20.4572 N   0  0  0  0  0  0  0  0  0  0  0  0
    7.1146  -14.8685   21.4947 C   0  0  0  0  0  0  0  0  0  0  0  0
    8.0373  -15.0091   22.6707 C   0  0  0  0  0  0  0  0  0  0  0  0
    9.2693  -14.7173   22.5806 O   0  0  0  0  0  0  0  0  0  0  0  0
    7.5889  -15.4702   23.9330 N   0  0  0  0  0  0  0  0  0  0  0  0
    8.4160  -15.4602   25.1082 C   0  0  1  0  0  0  0  0  0  0  0  0
    7.6602  -15.1122   26.3641 C   0  0  0  0  0  0  0  0  0  0  0  0
    7.2525  -13.7006   26.4205 C   0  0  0  0  0  0  0  0  0  0  0  0
    8.1874  -12.6958   26.5493 C   0  0  0  0  0  0  0  0  0  0  0  0
    7.8125  -11.3540   26.6039 C   0  0  0  0  0  0  0  0  0  0  0  0
    6.4913  -10.9868   26.5306 C   0  0  0  0  0  0  0  0  0  0  0  0
    5.5495  -11.9841   26.4017 C   0  0  0  0  0  0  0  0  0  0  0  0
    5.9298  -13.3117   26.3484 C   0  0  0  0  0  0  0  0  0  0  0  0
    9.0874  -16.7777   25.2164 C   0  0  0  0  0  0  0  0  0  0  0  0
    8.7287  -17.7804   24.5424 O   0  0  0  0  0  0  0  0  0  0  0  0
   10.1649  -16.9785   26.0809 O   0  0  0  0  0  0  0  0  0  0  0  0
  2  1  1  0
  3  2  1  0
  4  3  2  0
  5  3  1  0
  6  5  1  0
  7  8  2  0
  7  6  1  0
  9  7  1  0
 10  9  1  0
 10 11  1  1
 11 12  1  0
 12 17  2  0
 12 13  1  0
 13 14  2  0
 14 15  1  0
 16 15  2  0
 17 16  1  0
 18 10  1  0
 19 18  2  0
 20 18  1  0
M  END
$$$$
