GGF.pdb
     RDKit          3D

 20 20  0  0  1  0  0  0  0  0999 V2000
    5.1374  -19.6744   21.6788 N   0  0  0  0  0  0  0  0  0  0  0  0
    5.4239  -18.6612   22.6248 C   0  0  0  0  0  0  0  0  0  0  0  0
    6.4426  -17.7342   22.0389 C   0  0  0  0  0  0  0  0  0  0  0  0
    7.4778  -18.1638   21.4634 O   0  0  0  0  0  0  0  0  0  0  0  0
    6.2757  -16.3231   22.1123 N   0  0  0  0  0  0  0  0  0  0  0  0
    7.3116  -15.4047   21.7149 C   0  0  0  0  0  0  0  0  0  0  0  0
    8.2219  -15.1826   22.8881 C   0  0  0  0  0  0  0  0  0  0  0  0
    9.2805  -14.4908   22.7794 O   0  0  0  0  0  0  0  0  0  0  0  0
    7.9528  -15.7271   24.1679 N   0  0  0  0  0  0  0  0  0  0  0  0
    8.8098  -15.5186   25.3026 C   0  0  1  0  0  0  0  0  0  0  0  0
    8.0568  -15.1734   26.5609 C   0  0  0  0  0  0  0  0  0  0  0  0
    7.4135  -13.8524   26.5052 C   0  0  0  0  0  0  0  0  0  0  0  0
    8.1615  -12.6955   26.5539 C   0  0  0  0  0  0  0  0  0  0  0  0
    7.5626  -11.4375   26.5018 C   0  0  0  0  0  0  0  0  0  0  0  0
    6.1992  -11.3086   26.3997 C   0  0  0  0  0  0  0  0  0  0  0  0
    5.4432  -12.4594   26.3504 C   0  0  0  0  0  0  0  0  0  0  0  0
    6.0450  -13.7023   26.4025 C   0  0  0  0  0  0  0  0  0  0  0  0
    9.6521  -16.7261   25.4782 C   0  0  0  0  0  0  0  0  0  0  0  0
   10.5417  -16.8105   26.3669 O   0  0  0  0  0  0  0  0  0  0  0  0
    9.5017  -17.8458   24.6583 O   0  0  0  0  0  0  0  0  0  0  0  0
  2  1  1  0
  3  2  1  0
  4  3  2  0
  5  3  1  0
  6  5  1  0
  7  8  2  0
  7  6  1  0
  9  7  1  0
 10  9  1  0
 10 11  1  1
 11 12  1  0
 12 17  2  0
 12 13  1  0
 13 14  2  0
 14 15  1  0
 16 15  2  0
 17 16  1  0
 18 10  1  0
 19 18  2  0
 20 18  1  0
M  END
$$$$
