GGF.pdb
     RDKit          3D

 20 20  0  0  1  0  0  0  0  0999 V2000
    4.3517  -19.3074   21.3906 N   0  0  0  0  0  0  0  0  0  0  0  0
    4.8813  -18.5798   22.4830 C   0  0  0  0  0  0  0  0  0  0  0  0
    6.0108  -17.7306   21.9894 C   0  0  0  0  0  0  0  0  0  0  0  0
    7.0415  -18.2343   21.4686 O   0  0  0  0  0  0  0  0  0  0  0  0
    5.9590  -16.3124   22.0922 N   0  0  0  0  0  0  0  0  0  0  0  0
    7.0418  -15.4698   21.6541 C   0  0  0  0  0  0  0  0  0  0  0  0
    7.9927  -15.2873   22.8016 C   0  0  0  0  0  0  0  0  0  0  0  0
    9.0729  -14.6348   22.6653 O   0  0  0  0  0  0  0  0  0  0  0  0
    7.7400  -15.8276   24.0866 N   0  0  0  0  0  0  0  0  0  0  0  0
    8.6157  -15.6222   25.2074 C   0  0  1  0  0  0  0  0  0  0  0  0
    7.8836  -15.2815   26.4793 C   0  0  0  0  0  0  0  0  0  0  0  0
    7.3686  -13.9044   26.4982 C   0  0  0  0  0  0  0  0  0  0  0  0
    8.2245  -12.8271   26.5824 C   0  0  0  0  0  0  0  0  0  0  0  0
    7.7477  -11.5170   26.6011 C   0  0  0  0  0  0  0  0  0  0  0  0
    6.4012  -11.2550   26.5359 C   0  0  0  0  0  0  0  0  0  0  0  0
    5.5379  -12.3254   26.4515 C   0  0  0  0  0  0  0  0  0  0  0  0
    6.0191  -13.6208   26.4335 C   0  0  0  0  0  0  0  0  0  0  0  0
    9.4614  -16.8298   25.3651 C   0  0  0  0  0  0  0  0  0  0  0  0
   10.4209  -16.8855   26.1804 O   0  0  0  0  0  0  0  0  0  0  0  0
    9.2361  -17.9817   24.6096 O   0  0  0  0  0  0  0  0  0  0  0  0
  2  1  1  0
  3  2  1  0
  4  3  2  0
  5  3  1  0
  6  5  1  0
  7  8  2  0
  7  6  1  0
  9  7  1  0
 10  9  1  0
 10 11  1  1
 11 12  1  0
 12 17  2  0
 12 13  1  0
 13 14  2  0
 14 15  1  0
 16 15  2  0
 17 16  1  0
 18 10  1  0
 19 18  2  0
 20 18  1  0
M  END
$$$$
