GGF.pdb
     RDKit          3D

 20 20  0  0  1  0  0  0  0  0999 V2000
    7.6187  -12.7264   18.1797 N   0  0  0  0  0  0  0  0  0  0  0  0
    8.6580  -13.2235   19.0020 C   0  0  0  0  0  0  0  0  0  0  0  0
    8.0564  -14.1013   20.0547 C   0  0  0  0  0  0  0  0  0  0  0  0
    6.8181  -14.1062   20.2867 O   0  0  0  0  0  0  0  0  0  0  0  0
    8.8696  -14.9683   20.8368 N   0  0  0  0  0  0  0  0  0  0  0  0
    8.3096  -15.9432   21.7370 C   0  0  0  0  0  0  0  0  0  0  0  0
    8.8432  -15.6757   23.1147 C   0  0  0  0  0  0  0  0  0  0  0  0
    9.9734  -15.1248   23.2884 O   0  0  0  0  0  0  0  0  0  0  0  0
    8.1226  -16.0198   24.2848 N   0  0  0  0  0  0  0  0  0  0  0  0
    8.6282  -15.7908   25.6104 C   0  0  1  0  0  0  0  0  0  0  0  0
    7.5557  -15.4136   26.5989 C   0  0  0  0  0  0  0  0  0  0  0  0
    7.1745  -13.9955   26.5246 C   0  0  0  0  0  0  0  0  0  0  0  0
    8.0999  -12.9985   26.7482 C   0  0  0  0  0  0  0  0  0  0  0  0
    7.7500  -11.6506   26.6805 C   0  0  0  0  0  0  0  0  0  0  0  0
    6.4639  -11.2692   26.3869 C   0  0  0  0  0  0  0  0  0  0  0  0
    5.5319  -12.2586   26.1617 C   0  0  0  0  0  0  0  0  0  0  0  0
    5.8873  -13.5923   26.2309 C   0  0  0  0  0  0  0  0  0  0  0  0
    9.3731  -16.9987   26.0398 C   0  0  0  0  0  0  0  0  0  0  0  0
    9.2424  -18.1155   25.4707 O   0  0  0  0  0  0  0  0  0  0  0  0
   10.2688  -16.9612   27.1098 O   0  0  0  0  0  0  0  0  0  0  0  0
  2  1  1  0
  3  2  1  0
  4  3  2  0
  5  3  1  0
  6  5  1  0
  7  8  2  0
  7  6  1  0
  9  7  1  0
 10  9  1  0
 10 11  1  1
 11 12  1  0
 12 17  2  0
 12 13  1  0
 13 14  2  0
 14 15  1  0
 16 15  2  0
 17 16  1  0
 18 10  1  0
 19 18  2  0
 20 18  1  0
M  END
$$$$
