GGF.pdb
     RDKit          3D

 20 20  0  0  1  0  0  0  0  0999 V2000
    4.7722  -18.6373   19.8767 N   0  0  0  0  0  0  0  0  0  0  0  0
    5.0125  -17.8394   21.0208 C   0  0  0  0  0  0  0  0  0  0  0  0
    6.1817  -16.9467   20.7443 C   0  0  0  0  0  0  0  0  0  0  0  0
    6.4780  -16.5843   19.5746 O   0  0  0  0  0  0  0  0  0  0  0  0
    7.0063  -16.4723   21.8023 N   0  0  0  0  0  0  0  0  0  0  0  0
    8.1143  -15.5810   21.5731 C   0  0  0  0  0  0  0  0  0  0  0  0
    8.6880  -15.1882   22.9038 C   0  0  0  0  0  0  0  0  0  0  0  0
    9.6793  -14.4000   22.9875 O   0  0  0  0  0  0  0  0  0  0  0  0
    8.1604  -15.6704   24.1269 N   0  0  0  0  0  0  0  0  0  0  0  0
    8.8264  -15.4966   25.3885 C   0  0  1  0  0  0  0  0  0  0  0  0
    7.8874  -15.1451   26.5130 C   0  0  0  0  0  0  0  0  0  0  0  0
    7.3322  -13.7884   26.3992 C   0  0  0  0  0  0  0  0  0  0  0  0
    5.9733  -13.5837   26.2900 C   0  0  0  0  0  0  0  0  0  0  0  0
    5.4356  -12.3019   26.1815 C   0  0  0  0  0  0  0  0  0  0  0  0
    6.2470  -11.1940   26.1798 C   0  0  0  0  0  0  0  0  0  0  0  0
    7.6066  -11.3885   26.2885 C   0  0  0  0  0  0  0  0  0  0  0  0
    8.1312  -12.6625   26.3956 C   0  0  0  0  0  0  0  0  0  0  0  0
    9.5993  -16.7277   25.6806 C   0  0  0  0  0  0  0  0  0  0  0  0
    9.4738  -17.7847   25.0059 O   0  0  0  0  0  0  0  0  0  0  0  0
   10.5173  -16.7806   26.7308 O   0  0  0  0  0  0  0  0  0  0  0  0
  2  1  1  0
  3  2  1  0
  4  3  2  0
  5  3  1  0
  6  5  1  0
  7  8  2  0
  7  6  1  0
  9  7  1  0
 10  9  1  0
 10 11  1  1
 11 12  1  0
 12 17  2  0
 12 13  1  0
 13 14  2  0
 14 15  1  0
 16 15  2  0
 17 16  1  0
 18 10  1  0
 19 18  2  0
 20 18  1  0
M  END
$$$$
