GGF.pdb
     RDKit          3D

 20 20  0  0  1  0  0  0  0  0999 V2000
    4.7362  -18.6662   20.0243 N   0  0  0  0  0  0  0  0  0  0  0  0
    5.8314  -18.6536   20.9209 C   0  0  0  0  0  0  0  0  0  0  0  0
    6.6266  -17.4073   20.6868 C   0  0  0  0  0  0  0  0  0  0  0  0
    6.7567  -16.9091   19.5369 O   0  0  0  0  0  0  0  0  0  0  0  0
    7.2688  -16.7360   21.7645 N   0  0  0  0  0  0  0  0  0  0  0  0
    8.0617  -15.5498   21.5682 C   0  0  0  0  0  0  0  0  0  0  0  0
    8.5822  -15.1028   22.9037 C   0  0  0  0  0  0  0  0  0  0  0  0
    9.3366  -14.0877   23.0111 O   0  0  0  0  0  0  0  0  0  0  0  0
    8.2636  -15.7819   24.1055 N   0  0  0  0  0  0  0  0  0  0  0  0
    8.9760  -15.5708   25.3356 C   0  0  1  0  0  0  0  0  0  0  0  0
    8.0708  -15.2820   26.5048 C   0  0  0  0  0  0  0  0  0  0  0  0
    7.4481  -13.9518   26.4384 C   0  0  0  0  0  0  0  0  0  0  0  0
    6.0795  -13.8117   26.3497 C   0  0  0  0  0  0  0  0  0  0  0  0
    5.4779  -12.5555   26.2861 C   0  0  0  0  0  0  0  0  0  0  0  0
    6.2336  -11.4091   26.3098 C   0  0  0  0  0  0  0  0  0  0  0  0
    7.6023  -11.5390   26.3983 C   0  0  0  0  0  0  0  0  0  0  0  0
    8.1904  -12.7880   26.4609 C   0  0  0  0  0  0  0  0  0  0  0  0
    9.8368  -16.7522   25.5839 C   0  0  0  0  0  0  0  0  0  0  0  0
    9.7626  -17.8039   24.8934 O   0  0  0  0  0  0  0  0  0  0  0  0
   10.7856  -16.7611   26.6077 O   0  0  0  0  0  0  0  0  0  0  0  0
  2  1  1  0
  3  2  1  0
  4  3  2  0
  5  3  1  0
  6  5  1  0
  7  8  2  0
  7  6  1  0
  9  7  1  0
 10  9  1  0
 10 11  1  1
 11 12  1  0
 12 17  2  0
 12 13  1  0
 13 14  2  0
 14 15  1  0
 16 15  2  0
 17 16  1  0
 18 10  1  0
 19 18  2  0
 20 18  1  0
M  END
$$$$
