NLC.pdb
     RDKit          3D

 23 22  0  0  1  0  0  0  0  0999 V2000
    6.3582  -15.8345   18.9407 N   0  0  0  0  0  0  0  0  0  0  0  0
    7.4251  -16.3371   19.7412 C   0  0  0  0  0  0  0  0  0  0  0  0
    7.8872  -17.4760   19.5315 O   0  0  0  0  0  0  0  0  0  0  0  0
    8.0015  -15.5120   20.8378 C   0  0  0  0  0  0  0  0  0  0  0  0
    8.2403  -16.3087   22.0551 C   0  0  2  0  0  0  0  0  0  0  0  0
    6.9818  -16.9324   22.5096 N   0  0  0  0  0  0  0  0  0  0  0  0
    8.6743  -15.5165   23.2567 C   0  0  0  0  0  0  0  0  0  0  0  0
    9.8291  -14.9767   23.0749 O   0  0  0  0  0  0  0  0  0  0  0  0
    5.5501  -12.1487   26.2854 C   0  0  0  0  0  0  0  0  0  0  0  0
    6.7130  -12.7622   25.6065 C   0  0  1  0  0  0  0  0  0  0  0  0
    7.7021  -11.6360   25.3099 C   0  0  0  0  0  0  0  0  0  0  0  0
    7.3480  -13.9424   26.1979 C   0  0  0  0  0  0  0  0  0  0  0  0
    8.4750  -14.6428   25.5846 C   0  0  2  0  0  0  0  0  0  0  0  0
    7.9103  -15.3938   24.4194 N   0  0  0  0  0  0  0  0  0  0  0  0
    9.2414  -15.6457   26.3216 C   0  0  0  0  0  0  0  0  0  0  0  0
    9.9368  -15.3491   27.3612 O   0  0  0  0  0  0  0  0  0  0  0  0
    9.3050  -17.0504   25.9970 N   0  0  0  0  0  0  0  0  0  0  0  0
   10.0791  -17.9604   26.7789 C   0  0  1  0  0  0  0  0  0  0  0  0
    9.4159  -19.3420   26.8515 C   0  0  0  0  0  0  0  0  0  0  0  0
    7.8977  -19.2290   27.8334 S   0  0  0  0  0  0  0  0  0  0  0  0
   11.4758  -18.1106   26.3239 C   0  0  0  0  0  0  0  0  0  0  0  0
   12.3221  -18.9779   27.0179 O   0  0  0  0  0  0  0  0  0  0  0  0
   11.9793  -17.5152   25.3481 O   0  0  0  0  0  0  0  0  0  0  0  0
  2  1  1  0
  2  3  2  0
  4  2  1  0
  5  4  1  0
  5  6  1  1
  7  5  1  0
  7  8  2  0
 10  9  1  1
 10 12  1  0
 11 10  1  0
 13 12  1  1
 13 15  1  0
 13 14  1  0
 14  7  1  0
 15 17  1  0
 16 15  2  0
 17 18  1  0
 18 21  1  0
 19 20  1  0
 18 19  1  6
 21 23  2  0
 21 22  1  0
M  END
$$$$
