NLC.pdb
     RDKit          3D

 23 22  0  0  1  0  0  0  0  0999 V2000
   12.2969  -17.9195   14.6855 N   0  0  0  0  0  0  0  0  0  0  0  0
   11.2412  -18.1120   15.6237 C   0  0  0  0  0  0  0  0  0  0  0  0
   10.5242  -19.1304   15.5646 O   0  0  0  0  0  0  0  0  0  0  0  0
   10.9788  -17.1019   16.6850 C   0  0  0  0  0  0  0  0  0  0  0  0
   10.6001  -17.7347   17.9616 C   0  0  2  0  0  0  0  0  0  0  0  0
    9.2132  -18.2357   17.8890 N   0  0  0  0  0  0  0  0  0  0  0  0
   10.5588  -16.8055   19.1425 C   0  0  0  0  0  0  0  0  0  0  0  0
   11.7361  -16.3910   19.4590 O   0  0  0  0  0  0  0  0  0  0  0  0
    6.4050  -13.1890   20.0087 C   0  0  0  0  0  0  0  0  0  0  0  0
    7.7550  -13.7901   19.9336 C   0  0  1  0  0  0  0  0  0  0  0  0
    8.7493  -12.6385   19.7917 C   0  0  0  0  0  0  0  0  0  0  0  0
    8.1582  -14.7753   20.9399 C   0  0  0  0  0  0  0  0  0  0  0  0
    9.4506  -15.4583   20.9256 C   0  0  2  0  0  0  0  0  0  0  0  0
    9.3823  -16.4486   19.8053 N   0  0  0  0  0  0  0  0  0  0  0  0
    9.9114  -16.2415   22.0704 C   0  0  0  0  0  0  0  0  0  0  0  0
    9.4381  -17.4059   22.3395 O   0  0  0  0  0  0  0  0  0  0  0  0
   10.9296  -15.8293   23.0064 N   0  0  0  0  0  0  0  0  0  0  0  0
   11.2453  -16.6151   24.1560 C   0  0  1  0  0  0  0  0  0  0  0  0
   12.6896  -16.3795   24.6170 C   0  0  0  0  0  0  0  0  0  0  0  0
   13.8139  -16.6181   23.2166 S   0  0  0  0  0  0  0  0  0  0  0  0
   10.3282  -16.4137   25.2957 C   0  0  0  0  0  0  0  0  0  0  0  0
   10.5336  -17.1484   26.4653 O   0  0  0  0  0  0  0  0  0  0  0  0
    9.3608  -15.6237   25.3056 O   0  0  0  0  0  0  0  0  0  0  0  0
  2  1  1  0
  2  3  2  0
  4  2  1  0
  5  4  1  0
  5  6  1  6
  7  5  1  0
  7  8  2  0
 10  9  1  1
 10 12  1  0
 11 10  1  0
 13 12  1  1
 13 15  1  0
 13 14  1  0
 14  7  1  0
 15 17  1  0
 16 15  2  0
 17 18  1  0
 18 21  1  0
 19 20  1  0
 18 19  1  1
 21 23  2  0
 21 22  1  0
M  END
$$$$
