NLC.pdb
     RDKit          3D

 23 22  0  0  1  0  0  0  0  0999 V2000
    6.9146  -12.8389   18.5806 N   0  0  0  0  0  0  0  0  0  0  0  0
    7.9850  -13.6312   19.0887 C   0  0  0  0  0  0  0  0  0  0  0  0
    8.4976  -14.5232   18.3844 O   0  0  0  0  0  0  0  0  0  0  0  0
    8.5050  -13.4066   20.4653 C   0  0  0  0  0  0  0  0  0  0  0  0
    8.4209  -14.6270   21.2882 C   0  0  2  0  0  0  0  0  0  0  0  0
    7.0262  -15.1080   21.3434 N   0  0  0  0  0  0  0  0  0  0  0  0
    8.7677  -14.4389   22.7388 C   0  0  0  0  0  0  0  0  0  0  0  0
    9.9845  -14.0445   22.8864 O   0  0  0  0  0  0  0  0  0  0  0  0
    5.7166  -12.0567   26.7508 C   0  0  0  0  0  0  0  0  0  0  0  0
    6.8932  -12.5161   25.9800 C   0  0  1  0  0  0  0  0  0  0  0  0
    8.0784  -11.6582   26.4207 C   0  0  0  0  0  0  0  0  0  0  0  0
    7.2062  -13.9463   25.9337 C   0  0  0  0  0  0  0  0  0  0  0  0
    8.3407  -14.4989   25.1956 C   0  0  2  0  0  0  0  0  0  0  0  0
    7.8716  -14.6708   23.7847 N   0  0  0  0  0  0  0  0  0  0  0  0
    8.9174  -15.7961   25.5437 C   0  0  0  0  0  0  0  0  0  0  0  0
    9.0097  -16.2010   26.7602 O   0  0  0  0  0  0  0  0  0  0  0  0
    9.4284  -16.7610   24.6001 N   0  0  0  0  0  0  0  0  0  0  0  0
    9.9785  -18.0055   25.0329 C   0  0  1  0  0  0  0  0  0  0  0  0
    9.6607  -19.1337   24.0429 C   0  0  0  0  0  0  0  0  0  0  0  0
   10.1723  -18.6344   22.3783 S   0  0  0  0  0  0  0  0  0  0  0  0
   11.4333  -17.9684   25.2829 C   0  0  0  0  0  0  0  0  0  0  0  0
   12.0414  -19.0669   25.8941 O   0  0  0  0  0  0  0  0  0  0  0  0
   12.1867  -17.0168   24.9879 O   0  0  0  0  0  0  0  0  0  0  0  0
  2  1  1  0
  2  3  2  0
  4  2  1  0
  5  4  1  0
  5  6  1  1
  7  5  1  0
  7  8  2  0
 10  9  1  1
 10 12  1  0
 11 10  1  0
 13 12  1  1
 13 15  1  0
 13 14  1  0
 14  7  1  0
 15 17  1  0
 16 15  2  0
 17 18  1  0
 18 21  1  0
 19 20  1  0
 18 19  1  6
 21 23  2  0
 21 22  1  0
M  END
$$$$
