NLC.pdb
     RDKit          3D

 23 22  0  0  1  0  0  0  0  0999 V2000
    6.0136  -16.8218   19.5876 N   0  0  0  0  0  0  0  0  0  0  0  0
    7.3538  -17.2358   19.8409 C   0  0  0  0  0  0  0  0  0  0  0  0
    8.0340  -17.7563   18.9348 O   0  0  0  0  0  0  0  0  0  0  0  0
    7.9596  -17.0543   21.1884 C   0  0  0  0  0  0  0  0  0  0  0  0
    8.2617  -15.6384   21.4667 C   0  0  2  0  0  0  0  0  0  0  0  0
    9.5009  -15.2368   20.7720 N   0  0  0  0  0  0  0  0  0  0  0  0
    8.5679  -15.3260   22.9049 C   0  0  0  0  0  0  0  0  0  0  0  0
    9.8310  -15.3962   23.1451 O   0  0  0  0  0  0  0  0  0  0  0  0
    5.6627  -11.7689   26.1255 C   0  0  0  0  0  0  0  0  0  0  0  0
    6.8644  -12.4915   25.6530 C   0  0  1  0  0  0  0  0  0  0  0  0
    8.0795  -11.7287   26.1786 C   0  0  0  0  0  0  0  0  0  0  0  0
    6.9602  -13.9380   25.8633 C   0  0  0  0  0  0  0  0  0  0  0  0
    8.0057  -14.7704   25.2708 C   0  0  2  0  0  0  0  0  0  0  0  0
    7.5924  -15.0051   23.8515 N   0  0  0  0  0  0  0  0  0  0  0  0
    8.2993  -16.1065   25.7856 C   0  0  0  0  0  0  0  0  0  0  0  0
    7.8416  -17.1712   25.2295 O   0  0  0  0  0  0  0  0  0  0  0  0
    9.1215  -16.3941   26.9362 N   0  0  0  0  0  0  0  0  0  0  0  0
    9.8017  -17.6422   27.0713 C   0  0  1  0  0  0  0  0  0  0  0  0
   10.7595  -17.8887   25.8983 C   0  0  0  0  0  0  0  0  0  0  0  0
   11.2681  -19.6274   25.8928 S   0  0  0  0  0  0  0  0  0  0  0  0
   10.5354  -17.7956   28.3435 C   0  0  0  0  0  0  0  0  0  0  0  0
   10.6511  -19.0681   28.9067 O   0  0  0  0  0  0  0  0  0  0  0  0
   11.0753  -16.8635   28.9758 O   0  0  0  0  0  0  0  0  0  0  0  0
  2  1  1  0
  2  3  2  0
  4  2  1  0
  5  4  1  0
  5  6  1  6
  7  5  1  0
  7  8  2  0
 10  9  1  1
 10 12  1  0
 11 10  1  0
 13 12  1  1
 13 15  1  0
 13 14  1  0
 14  7  1  0
 15 17  1  0
 16 15  2  0
 17 18  1  0
 18 21  1  0
 19 20  1  0
 18 19  1  6
 21 23  2  0
 21 22  1  0
M  END
$$$$
