NLC.pdb
     RDKit          3D

 23 22  0  0  1  0  0  0  0  0999 V2000
    9.5132  -15.6036   18.3474 N   0  0  0  0  0  0  0  0  0  0  0  0
    8.4777  -15.6502   19.3258 C   0  0  0  0  0  0  0  0  0  0  0  0
    7.3670  -16.1419   19.0444 O   0  0  0  0  0  0  0  0  0  0  0  0
    8.7062  -15.1129   20.6950 C   0  0  0  0  0  0  0  0  0  0  0  0
    8.7948  -16.1897   21.6981 C   0  0  2  0  0  0  0  0  0  0  0  0
    7.4890  -16.8646   21.8364 N   0  0  0  0  0  0  0  0  0  0  0  0
    9.0833  -15.7288   23.0996 C   0  0  0  0  0  0  0  0  0  0  0  0
   10.3138  -15.3753   23.2369 O   0  0  0  0  0  0  0  0  0  0  0  0
    6.0017  -12.3477   26.2946 C   0  0  0  0  0  0  0  0  0  0  0  0
    7.1606  -13.0404   25.6890 C   0  0  1  0  0  0  0  0  0  0  0  0
    8.3890  -12.1715   25.9549 C   0  0  0  0  0  0  0  0  0  0  0  0
    7.3848  -14.4570   25.9864 C   0  0  0  0  0  0  0  0  0  0  0  0
    8.5249  -15.2164   25.4761 C   0  0  2  0  0  0  0  0  0  0  0  0
    8.1259  -15.6973   24.1160 N   0  0  0  0  0  0  0  0  0  0  0  0
    9.0061  -16.4177   26.1556 C   0  0  0  0  0  0  0  0  0  0  0  0
    8.2094  -17.3412   26.5615 O   0  0  0  0  0  0  0  0  0  0  0  0
   10.3892  -16.7180   26.4379 N   0  0  0  0  0  0  0  0  0  0  0  0
   10.7612  -17.8736   27.1895 C   0  0  1  0  0  0  0  0  0  0  0  0
   12.1435  -18.3926   26.7726 C   0  0  0  0  0  0  0  0  0  0  0  0
   12.3838  -18.1057   25.0001 S   0  0  0  0  0  0  0  0  0  0  0  0
   10.7322  -17.6775   28.6527 C   0  0  0  0  0  0  0  0  0  0  0  0
   11.0144  -18.7627   29.4849 O   0  0  0  0  0  0  0  0  0  0  0  0
   10.4710  -16.5988   29.2257 O   0  0  0  0  0  0  0  0  0  0  0  0
  2  1  1  0
  2  3  2  0
  4  2  1  0
  5  4  1  0
  5  6  1  1
  7  5  1  0
  7  8  2  0
 10  9  1  1
 10 12  1  0
 11 10  1  0
 13 12  1  1
 13 15  1  0
 13 14  1  0
 14  7  1  0
 15 17  1  0
 16 15  2  0
 17 18  1  0
 18 21  1  0
 19 20  1  0
 18 19  1  6
 21 23  2  0
 21 22  1  0
M  END
$$$$
