LPD.pdb
     RDKit          3D

 24 24  0  0  1  0  0  0  0  0999 V2000
    7.9115  -12.6134   27.0563 C   0  0  0  0  0  0  0  0  0  0  0  0
    7.1092  -13.5178   26.1311 C   0  0  2  0  0  0  0  0  0  0  0  0
    5.7228  -12.9142   26.0148 C   0  0  0  0  0  0  0  0  0  0  0  0
    7.0582  -14.9298   26.6482 C   0  0  0  0  0  0  0  0  0  0  0  0
    6.5959  -15.8768   25.5616 C   0  0  2  0  0  0  0  0  0  0  0  0
    6.1277  -17.0861   26.1473 N   0  0  0  0  0  0  0  0  0  0  0  0
    7.5877  -16.0573   24.5146 C   0  0  0  0  0  0  0  0  0  0  0  0
    8.5586  -16.8314   24.7733 O   0  0  0  0  0  0  0  0  0  0  0  0
    7.5210  -15.4124   23.2304 N   0  0  0  0  0  0  0  0  0  0  0  0
    6.4464  -14.5311   22.8625 C   0  0  0  0  0  0  0  0  0  0  0  0
    6.6409  -14.2454   21.4052 C   0  0  0  0  0  0  0  0  0  0  0  0
    8.1053  -14.4962   21.1489 C   0  0  0  0  0  0  0  0  0  0  0  0
    8.4318  -15.5461   22.1504 C   0  0  1  0  0  0  0  0  0  0  0  0
    9.8721  -15.4929   22.5340 C   0  0  0  0  0  0  0  0  0  0  0  0
   10.2540  -14.5804   23.2911 O   0  0  0  0  0  0  0  0  0  0  0  0
   10.8028  -16.4390   22.0662 N   0  0  0  0  0  0  0  0  0  0  0  0
   12.2243  -16.4151   22.4610 C   0  0  1  0  0  0  0  0  0  0  0  0
   12.3552  -16.6168   23.9263 C   0  0  0  0  0  0  0  0  0  0  0  0
   13.7404  -16.5821   24.4199 C   0  0  0  0  0  0  0  0  0  0  0  0
   14.5533  -15.7530   23.9951 O   0  0  0  0  0  0  0  0  0  0  0  0
   12.9468  -17.4718   21.7305 C   0  0  0  0  0  0  0  0  0  0  0  0
   12.4461  -18.4488   21.1648 O   0  0  0  0  0  0  0  0  0  0  0  0
   14.1849  -17.4989   25.3987 O   0  0  0  0  0  0  0  0  0  0  0  0
   14.3508  -17.3695   21.6626 O   0  0  0  0  0  0  0  0  0  0  0  0
  2  1  1  1
  2  3  1  0
  4  2  1  0
  5  4  1  0
  5  7  1  0
  5  6  1  1
  7  8  2  0
  7  9  1  0
  9 13  1  0
  9 10  1  0
 11 10  1  0
 12 13  1  0
 12 11  1  0
 13 14  1  1
 15 14  2  0
 16 14  1  0
 17 16  1  0
 17 21  1  0
 17 18  1  1
 19 18  1  0
 20 19  2  0
 21 24  1  0
 22 21  2  0
 23 19  1  0
M  END
$$$$
