LPD.pdb
     RDKit          3D

 24 24  0  0  1  0  0  0  0  0999 V2000
    5.8065  -12.3768   26.0981 C   0  0  0  0  0  0  0  0  0  0  0  0
    6.7800  -13.2038   26.9262 C   0  0  2  0  0  0  0  0  0  0  0  0
    7.6016  -12.2291   27.7479 C   0  0  0  0  0  0  0  0  0  0  0  0
    7.6512  -14.0666   26.0542 C   0  0  0  0  0  0  0  0  0  0  0  0
    6.8250  -15.1333   25.3682 C   0  0  2  0  0  0  0  0  0  0  0  0
    6.2544  -15.9984   26.3433 N   0  0  0  0  0  0  0  0  0  0  0  0
    7.5529  -15.8134   24.3097 C   0  0  0  0  0  0  0  0  0  0  0  0
    8.1401  -16.8934   24.6215 O   0  0  0  0  0  0  0  0  0  0  0  0
    7.6370  -15.3281   22.9580 N   0  0  0  0  0  0  0  0  0  0  0  0
    6.7182  -14.3591   22.4256 C   0  0  0  0  0  0  0  0  0  0  0  0
    7.0164  -14.2841   20.9597 C   0  0  0  0  0  0  0  0  0  0  0  0
    8.4393  -14.7639   20.8246 C   0  0  0  0  0  0  0  0  0  0  0  0
    8.5662  -15.7177   21.9586 C   0  0  1  0  0  0  0  0  0  0  0  0
    9.9806  -15.8167   22.4213 C   0  0  0  0  0  0  0  0  0  0  0  0
   10.2718  -15.3722   23.5479 O   0  0  0  0  0  0  0  0  0  0  0  0
   10.9861  -16.3943   21.6242 N   0  0  0  0  0  0  0  0  0  0  0  0
   12.3497  -16.6474   22.1279 C   0  0  1  0  0  0  0  0  0  0  0  0
   12.3022  -17.5290   23.3218 C   0  0  0  0  0  0  0  0  0  0  0  0
   13.3768  -17.2853   24.2963 C   0  0  0  0  0  0  0  0  0  0  0  0
   14.3162  -16.5235   24.0398 O   0  0  0  0  0  0  0  0  0  0  0  0
   13.1516  -17.2714   21.0602 C   0  0  0  0  0  0  0  0  0  0  0  0
   14.2049  -16.8380   20.5829 O   0  0  0  0  0  0  0  0  0  0  0  0
   13.3670  -17.9172   25.5600 O   0  0  0  0  0  0  0  0  0  0  0  0
   12.6806  -18.4853   20.5208 O   0  0  0  0  0  0  0  0  0  0  0  0
  2  1  1  6
  2  3  1  0
  4  2  1  0
  5  4  1  0
  5  7  1  0
  5  6  1  1
  7  8  2  0
  7  9  1  0
  9 13  1  0
  9 10  1  0
 11 10  1  0
 12 13  1  0
 12 11  1  0
 13 14  1  1
 15 14  2  0
 16 14  1  0
 17 16  1  0
 17 21  1  0
 17 18  1  1
 19 18  1  0
 20 19  2  0
 21 24  1  0
 22 21  2  0
 23 19  1  0
M  END
$$$$
