LPD.pdb
     RDKit          3D

 24 24  0  0  1  0  0  0  0  0999 V2000
    5.7805  -12.1230   25.8606 C   0  0  0  0  0  0  0  0  0  0  0  0
    6.7119  -12.9089   26.7730 C   0  0  2  0  0  0  0  0  0  0  0  0
    7.5044  -11.8953   27.5758 C   0  0  0  0  0  0  0  0  0  0  0  0
    7.6134  -13.8215   25.9868 C   0  0  0  0  0  0  0  0  0  0  0  0
    6.8115  -14.9281   25.3359 C   0  0  2  0  0  0  0  0  0  0  0  0
    6.1856  -15.7200   26.3389 N   0  0  0  0  0  0  0  0  0  0  0  0
    7.5838  -15.6844   24.3642 C   0  0  0  0  0  0  0  0  0  0  0  0
    8.2036  -16.7040   24.7942 O   0  0  0  0  0  0  0  0  0  0  0  0
    7.6764  -15.3367   22.9713 N   0  0  0  0  0  0  0  0  0  0  0  0
    6.7177  -14.4849   22.3215 C   0  0  0  0  0  0  0  0  0  0  0  0
    7.0509  -14.5434   20.8624 C   0  0  0  0  0  0  0  0  0  0  0  0
    8.5023  -14.9477   20.8080 C   0  0  0  0  0  0  0  0  0  0  0  0
    8.6534  -15.7702   22.0378 C   0  0  1  0  0  0  0  0  0  0  0  0
   10.0581  -15.7354   22.5379 C   0  0  0  0  0  0  0  0  0  0  0  0
   10.3202  -15.0298   23.5304 O   0  0  0  0  0  0  0  0  0  0  0  0
   11.0863  -16.4728   21.9221 N   0  0  0  0  0  0  0  0  0  0  0  0
   12.4728  -16.4741   22.4269 C   0  0  1  0  0  0  0  0  0  0  0  0
   12.5199  -17.0340   23.8013 C   0  0  0  0  0  0  0  0  0  0  0  0
   13.8754  -17.1501   24.3607 C   0  0  0  0  0  0  0  0  0  0  0  0
   14.8664  -16.7680   23.7279 O   0  0  0  0  0  0  0  0  0  0  0  0
   13.3172  -17.2705   21.5186 C   0  0  0  0  0  0  0  0  0  0  0  0
   13.2202  -18.4816   21.2971 O   0  0  0  0  0  0  0  0  0  0  0  0
   14.0858  -17.7038   25.6434 O   0  0  0  0  0  0  0  0  0  0  0  0
   14.3423  -16.5947   20.8266 O   0  0  0  0  0  0  0  0  0  0  0  0
  2  1  1  6
  2  3  1  0
  4  2  1  0
  5  4  1  0
  5  7  1  0
  5  6  1  1
  7  8  2  0
  7  9  1  0
  9 13  1  0
  9 10  1  0
 11 10  1  0
 12 13  1  0
 12 11  1  0
 13 14  1  1
 15 14  2  0
 16 14  1  0
 17 16  1  0
 17 21  1  0
 17 18  1  1
 19 18  1  0
 20 19  2  0
 21 24  1  0
 22 21  2  0
 23 19  1  0
M  END
$$$$
