LPD.pdb
     RDKit          3D

 24 24  0  0  1  0  0  0  0  0999 V2000
    8.5050  -12.7740   26.9806 C   0  0  0  0  0  0  0  0  0  0  0  0
    7.4967  -13.5019   26.1025 C   0  0  2  0  0  0  0  0  0  0  0  0
    6.2520  -12.6372   26.0473 C   0  0  0  0  0  0  0  0  0  0  0  0
    7.1943  -14.8768   26.6334 C   0  0  0  0  0  0  0  0  0  0  0  0
    6.5906  -15.7437   25.5493 C   0  0  2  0  0  0  0  0  0  0  0  0
    5.9763  -16.8855   26.1354 N   0  0  0  0  0  0  0  0  0  0  0  0
    7.5305  -16.0446   24.4823 C   0  0  0  0  0  0  0  0  0  0  0  0
    8.3901  -16.9477   24.7145 O   0  0  0  0  0  0  0  0  0  0  0  0
    7.5313  -15.3797   23.2065 N   0  0  0  0  0  0  0  0  0  0  0  0
    6.4713  -14.5017   22.7913 C   0  0  0  0  0  0  0  0  0  0  0  0
    6.7461  -14.1910   21.3521 C   0  0  0  0  0  0  0  0  0  0  0  0
    8.2251  -14.4253   21.1764 C   0  0  0  0  0  0  0  0  0  0  0  0
    8.5036  -15.4883   22.1785 C   0  0  1  0  0  0  0  0  0  0  0  0
    9.9191  -15.4290   22.6449 C   0  0  0  0  0  0  0  0  0  0  0  0
   10.2166  -14.6216   23.5456 O   0  0  0  0  0  0  0  0  0  0  0  0
   10.9186  -16.2546   22.0978 N   0  0  0  0  0  0  0  0  0  0  0  0
   12.3134  -16.2363   22.5789 C   0  0  1  0  0  0  0  0  0  0  0  0
   12.3675  -16.6084   24.0154 C   0  0  0  0  0  0  0  0  0  0  0  0
   13.7284  -16.6938   24.5669 C   0  0  0  0  0  0  0  0  0  0  0  0
   14.5127  -15.7409   24.4927 O   0  0  0  0  0  0  0  0  0  0  0  0
   13.1148  -17.1759   21.7744 C   0  0  0  0  0  0  0  0  0  0  0  0
   12.6843  -18.0038   20.9654 O   0  0  0  0  0  0  0  0  0  0  0  0
   14.1816  -17.8724   25.2008 O   0  0  0  0  0  0  0  0  0  0  0  0
   14.5145  -17.1362   21.9341 O   0  0  0  0  0  0  0  0  0  0  0  0
  2  1  1  1
  2  3  1  0
  4  2  1  0
  5  4  1  0
  5  7  1  0
  5  6  1  1
  7  8  2  0
  7  9  1  0
  9 13  1  0
  9 10  1  0
 11 10  1  0
 12 13  1  0
 12 11  1  0
 13 14  1  1
 15 14  2  0
 16 14  1  0
 17 16  1  0
 17 21  1  0
 17 18  1  1
 19 18  1  0
 20 19  2  0
 21 24  1  0
 22 21  2  0
 23 19  1  0
M  END
$$$$
