LPD.pdb
     RDKit          3D

 24 24  0  0  1  0  0  0  0  0999 V2000
    5.7026  -12.4577   26.3022 C   0  0  0  0  0  0  0  0  0  0  0  0
    6.8247  -13.2182   26.9950 C   0  0  2  0  0  0  0  0  0  0  0  0
    7.6503  -12.1962   27.7526 C   0  0  0  0  0  0  0  0  0  0  0  0
    7.6615  -13.9862   26.0082 C   0  0  0  0  0  0  0  0  0  0  0  0
    6.8738  -15.1426   25.4308 C   0  0  2  0  0  0  0  0  0  0  0  0
    6.4580  -16.0101   26.4792 N   0  0  0  0  0  0  0  0  0  0  0  0
    7.5673  -15.8047   24.3384 C   0  0  0  0  0  0  0  0  0  0  0  0
    8.2010  -16.8660   24.6225 O   0  0  0  0  0  0  0  0  0  0  0  0
    7.5692  -15.3220   22.9832 N   0  0  0  0  0  0  0  0  0  0  0  0
    6.5758  -14.4094   22.4860 C   0  0  0  0  0  0  0  0  0  0  0  0
    6.8101  -14.3247   21.0091 C   0  0  0  0  0  0  0  0  0  0  0  0
    8.2515  -14.7232   20.8177 C   0  0  0  0  0  0  0  0  0  0  0  0
    8.4781  -15.6628   21.9481 C   0  0  1  0  0  0  0  0  0  0  0  0
    9.9134  -15.6788   22.3534 C   0  0  0  0  0  0  0  0  0  0  0  0
   10.2734  -14.9540   23.3004 O   0  0  0  0  0  0  0  0  0  0  0  0
   10.8632  -16.4847   21.6988 N   0  0  0  0  0  0  0  0  0  0  0  0
   12.2255  -16.6920   22.2262 C   0  0  1  0  0  0  0  0  0  0  0  0
   12.1666  -17.2890   23.5845 C   0  0  0  0  0  0  0  0  0  0  0  0
   13.4820  -17.5871   24.1714 C   0  0  0  0  0  0  0  0  0  0  0  0
   14.5292  -17.3073   23.5767 O   0  0  0  0  0  0  0  0  0  0  0  0
   12.9700  -17.5737   21.3094 C   0  0  0  0  0  0  0  0  0  0  0  0
   14.0027  -17.2910   20.6940 O   0  0  0  0  0  0  0  0  0  0  0  0
   13.5882  -18.2044   25.4378 O   0  0  0  0  0  0  0  0  0  0  0  0
   12.4637  -18.8731   21.1054 O   0  0  0  0  0  0  0  0  0  0  0  0
  2  1  1  6
  2  3  1  0
  4  2  1  0
  5  4  1  0
  5  7  1  0
  5  6  1  1
  7  8  2  0
  7  9  1  0
  9 13  1  0
  9 10  1  0
 11 10  1  0
 12 13  1  0
 12 11  1  0
 13 14  1  1
 15 14  2  0
 16 14  1  0
 17 16  1  0
 17 21  1  0
 17 18  1  1
 19 18  1  0
 20 19  2  0
 21 24  1  0
 22 21  2  0
 23 19  1  0
M  END
$$$$
