LPD.pdb
     RDKit          3D

 24 24  0  0  1  0  0  0  0  0999 V2000
    5.4759  -12.5600   26.0219 C   0  0  0  0  0  0  0  0  0  0  0  0
    6.5999  -13.1971   26.8270 C   0  0  2  0  0  0  0  0  0  0  0  0
    7.3276  -12.0726   27.5383 C   0  0  0  0  0  0  0  0  0  0  0  0
    7.5280  -13.9895   25.9468 C   0  0  0  0  0  0  0  0  0  0  0  0
    6.8149  -15.1947   25.3723 C   0  0  2  0  0  0  0  0  0  0  0  0
    6.4236  -16.0673   26.4259 N   0  0  0  0  0  0  0  0  0  0  0  0
    7.5653  -15.8353   24.3050 C   0  0  0  0  0  0  0  0  0  0  0  0
    8.1338  -16.9340   24.5848 O   0  0  0  0  0  0  0  0  0  0  0  0
    7.6909  -15.2923   22.9787 N   0  0  0  0  0  0  0  0  0  0  0  0
    6.8470  -14.2347   22.4929 C   0  0  0  0  0  0  0  0  0  0  0  0
    7.1572  -14.1104   21.0329 C   0  0  0  0  0  0  0  0  0  0  0  0
    8.5424  -14.6847   20.8765 C   0  0  0  0  0  0  0  0  0  0  0  0
    8.5945  -15.6991   21.9629 C   0  0  1  0  0  0  0  0  0  0  0  0
    9.9958  -15.9224   22.4222 C   0  0  0  0  0  0  0  0  0  0  0  0
   10.4993  -15.1072   23.2182 O   0  0  0  0  0  0  0  0  0  0  0  0
   10.7574  -17.0211   21.9828 N   0  0  0  0  0  0  0  0  0  0  0  0
   12.1334  -17.2709   22.4531 C   0  0  1  0  0  0  0  0  0  0  0  0
   12.1774  -18.4979   23.2882 C   0  0  0  0  0  0  0  0  0  0  0  0
   13.0699  -18.4043   24.4537 C   0  0  0  0  0  0  0  0  0  0  0  0
   13.8396  -17.4476   24.5983 O   0  0  0  0  0  0  0  0  0  0  0  0
   13.0249  -17.4104   21.2877 C   0  0  0  0  0  0  0  0  0  0  0  0
   12.7934  -18.0508   20.2574 O   0  0  0  0  0  0  0  0  0  0  0  0
   13.0737  -19.4091   25.4469 O   0  0  0  0  0  0  0  0  0  0  0  0
   14.2698  -16.7518   21.3409 O   0  0  0  0  0  0  0  0  0  0  0  0
  2  1  1  6
  2  3  1  0
  4  2  1  0
  5  4  1  0
  5  7  1  0
  5  6  1  1
  7  8  2  0
  7  9  1  0
  9 13  1  0
  9 10  1  0
 11 10  1  0
 12 13  1  0
 12 11  1  0
 13 14  1  1
 15 14  2  0
 16 14  1  0
 17 16  1  0
 17 21  1  0
 17 18  1  6
 19 18  1  0
 20 19  2  0
 21 24  1  0
 22 21  2  0
 23 19  1  0
M  END
$$$$
