LPD.pdb
     RDKit          3D

 24 24  0  0  1  0  0  0  0  0999 V2000
    5.0673  -17.2256   21.2874 C   0  0  0  0  0  0  0  0  0  0  0  0
    6.0992  -16.1070   21.2492 C   0  0  2  0  0  0  0  0  0  0  0  0
    7.2383  -16.5853   20.3695 C   0  0  0  0  0  0  0  0  0  0  0  0
    6.5768  -15.7500   22.6305 C   0  0  0  0  0  0  0  0  0  0  0  0
    7.3327  -14.4388   22.6085 C   0  0  2  0  0  0  0  0  0  0  0  0
    8.0073  -14.2954   21.3638 N   0  0  0  0  0  0  0  0  0  0  0  0
    8.1774  -14.2577   23.7774 C   0  0  0  0  0  0  0  0  0  0  0  0
    9.3588  -14.7137   23.7060 O   0  0  0  0  0  0  0  0  0  0  0  0
    7.7445  -13.6026   24.9828 N   0  0  0  0  0  0  0  0  0  0  0  0
    6.5162  -12.8598   25.0609 C   0  0  0  0  0  0  0  0  0  0  0  0
    6.5418  -12.1783   26.3944 C   0  0  0  0  0  0  0  0  0  0  0  0
    7.4810  -13.0028   27.2376 C   0  0  0  0  0  0  0  0  0  0  0  0
    8.4254  -13.5488   26.2267 C   0  0  1  0  0  0  0  0  0  0  0  0
    9.0069  -14.8452   26.6803 C   0  0  0  0  0  0  0  0  0  0  0  0
    8.2794  -15.8563   26.6832 O   0  0  0  0  0  0  0  0  0  0  0  0
   10.3451  -14.9543   27.1017 N   0  0  0  0  0  0  0  0  0  0  0  0
   10.9028  -16.2031   27.6553 C   0  0  1  0  0  0  0  0  0  0  0  0
   12.3323  -16.3405   27.2779 C   0  0  0  0  0  0  0  0  0  0  0  0
   12.5888  -16.2360   25.8333 C   0  0  0  0  0  0  0  0  0  0  0  0
   11.9575  -16.9178   25.0176 O   0  0  0  0  0  0  0  0  0  0  0  0
   10.7578  -16.1889   29.1220 C   0  0  0  0  0  0  0  0  0  0  0  0
   10.3847  -15.2371   29.8148 O   0  0  0  0  0  0  0  0  0  0  0  0
   13.5683  -15.3493   25.3328 O   0  0  0  0  0  0  0  0  0  0  0  0
   11.0732  -17.3741   29.8164 O   0  0  0  0  0  0  0  0  0  0  0  0
  2  1  1  1
  2  3  1  0
  4  2  1  0
  5  4  1  0
  5  7  1  0
  5  6  1  6
  7  8  2  0
  7  9  1  0
  9 13  1  0
  9 10  1  0
 11 10  1  0
 12 13  1  0
 12 11  1  0
 13 14  1  1
 15 14  2  0
 16 14  1  0
 17 16  1  0
 17 21  1  0
 17 18  1  1
 19 18  1  0
 20 19  2  0
 21 24  1  0
 22 21  2  0
 23 19  1  0
M  END
$$$$
