LPD.pdb
     RDKit          3D

 24 24  0  0  1  0  0  0  0  0999 V2000
    5.7431  -12.4636   27.4101 C   0  0  0  0  0  0  0  0  0  0  0  0
    6.9383  -13.2316   26.8631 C   0  0  2  0  0  0  0  0  0  0  0  0
    8.1741  -12.4115   27.1796 C   0  0  0  0  0  0  0  0  0  0  0  0
    6.8027  -13.4835   25.3860 C   0  0  0  0  0  0  0  0  0  0  0  0
    6.4419  -14.9302   25.1250 C   0  0  2  0  0  0  0  0  0  0  0  0
    6.2008  -15.5942   26.3602 N   0  0  0  0  0  0  0  0  0  0  0  0
    7.3960  -15.5991   24.2562 C   0  0  0  0  0  0  0  0  0  0  0  0
    8.0630  -16.5510   24.7638 O   0  0  0  0  0  0  0  0  0  0  0  0
    7.6144  -15.2382   22.8807 N   0  0  0  0  0  0  0  0  0  0  0  0
    6.7384  -14.3504   22.1658 C   0  0  0  0  0  0  0  0  0  0  0  0
    7.1900  -14.4021   20.7386 C   0  0  0  0  0  0  0  0  0  0  0  0
    8.6284  -14.8494   20.7990 C   0  0  0  0  0  0  0  0  0  0  0  0
    8.6525  -15.6903   22.0254 C   0  0  1  0  0  0  0  0  0  0  0  0
   10.0112  -15.7038   22.6406 C   0  0  0  0  0  0  0  0  0  0  0  0
   10.1813  -15.1115   23.7231 O   0  0  0  0  0  0  0  0  0  0  0  0
   11.0966  -16.3629   22.0343 N   0  0  0  0  0  0  0  0  0  0  0  0
   12.4261  -16.4498   22.6686 C   0  0  1  0  0  0  0  0  0  0  0  0
   12.3257  -17.1328   23.9832 C   0  0  0  0  0  0  0  0  0  0  0  0
   13.6133  -17.3109   24.6717 C   0  0  0  0  0  0  0  0  0  0  0  0
   14.5901  -16.6031   24.4007 O   0  0  0  0  0  0  0  0  0  0  0  0
   13.3403  -17.1848   21.7763 C   0  0  0  0  0  0  0  0  0  0  0  0
   13.1322  -18.2845   21.2543 O   0  0  0  0  0  0  0  0  0  0  0  0
   13.7724  -18.3003   25.6678 O   0  0  0  0  0  0  0  0  0  0  0  0
   14.5803  -16.5838   21.4805 O   0  0  0  0  0  0  0  0  0  0  0  0
  2  1  1  6
  2  3  1  0
  4  2  1  0
  5  4  1  0
  5  7  1  0
  5  6  1  1
  7  8  2  0
  7  9  1  0
  9 13  1  0
  9 10  1  0
 11 10  1  0
 12 13  1  0
 12 11  1  0
 13 14  1  1
 15 14  2  0
 16 14  1  0
 17 16  1  0
 17 21  1  0
 17 18  1  1
 19 18  1  0
 20 19  2  0
 21 24  1  0
 22 21  2  0
 23 19  1  0
M  END
$$$$
