LPD.pdb
     RDKit          3D

 24 24  0  0  1  0  0  0  0  0999 V2000
    7.8205  -12.8200   27.3167 C   0  0  0  0  0  0  0  0  0  0  0  0
    6.9997  -13.5344   26.2520 C   0  0  2  0  0  0  0  0  0  0  0  0
    5.7793  -12.6751   25.9832 C   0  0  0  0  0  0  0  0  0  0  0  0
    6.6161  -14.9217   26.6900 C   0  0  0  0  0  0  0  0  0  0  0  0
    6.3462  -15.8022   25.4887 C   0  0  2  0  0  0  0  0  0  0  0  0
    5.6873  -16.9925   25.9055 N   0  0  0  0  0  0  0  0  0  0  0  0
    7.5306  -16.0209   24.6752 C   0  0  0  0  0  0  0  0  0  0  0  0
    8.3926  -16.8346   25.1263 O   0  0  0  0  0  0  0  0  0  0  0  0
    7.7649  -15.3709   23.4133 N   0  0  0  0  0  0  0  0  0  0  0  0
    6.8707  -14.3825   22.8748 C   0  0  0  0  0  0  0  0  0  0  0  0
    7.3553  -14.1167   21.4827 C   0  0  0  0  0  0  0  0  0  0  0  0
    8.8087  -14.5178   21.4908 C   0  0  0  0  0  0  0  0  0  0  0  0
    8.8387  -15.5971   22.5136 C   0  0  1  0  0  0  0  0  0  0  0  0
   10.1829  -15.6939   23.1525 C   0  0  0  0  0  0  0  0  0  0  0  0
   10.4969  -14.8482   24.0115 O   0  0  0  0  0  0  0  0  0  0  0  0
   11.0978  -16.7075   22.8125 N   0  0  0  0  0  0  0  0  0  0  0  0
   12.4704  -16.7505   23.3523 C   0  0  1  0  0  0  0  0  0  0  0  0
   12.8030  -18.1250   23.8049 C   0  0  0  0  0  0  0  0  0  0  0  0
   12.0877  -18.5518   25.0173 C   0  0  0  0  0  0  0  0  0  0  0  0
   11.4397  -19.6043   25.0440 O   0  0  0  0  0  0  0  0  0  0  0  0
   13.4142  -16.3108   22.3091 C   0  0  0  0  0  0  0  0  0  0  0  0
   14.5687  -15.9087   22.4841 O   0  0  0  0  0  0  0  0  0  0  0  0
   12.1205  -17.7682   26.1926 O   0  0  0  0  0  0  0  0  0  0  0  0
   12.9674  -16.3480   20.9729 O   0  0  0  0  0  0  0  0  0  0  0  0
  2  1  1  1
  2  3  1  0
  4  2  1  0
  5  4  1  0
  5  7  1  0
  5  6  1  1
  7  8  2  0
  7  9  1  0
  9 13  1  0
  9 10  1  0
 11 10  1  0
 12 13  1  0
 12 11  1  0
 13 14  1  1
 15 14  2  0
 16 14  1  0
 17 16  1  0
 17 21  1  0
 17 18  1  6
 19 18  1  0
 20 19  2  0
 21 24  1  0
 22 21  2  0
 23 19  1  0
M  END
$$$$
