LPD.pdb
     RDKit          3D

 24 24  0  0  1  0  0  0  0  0999 V2000
    5.7717  -12.2826   26.2149 C   0  0  0  0  0  0  0  0  0  0  0  0
    6.8752  -13.0298   26.9507 C   0  0  2  0  0  0  0  0  0  0  0  0
    7.7087  -11.9891   27.6734 C   0  0  0  0  0  0  0  0  0  0  0  0
    7.7099  -13.8510   26.0059 C   0  0  0  0  0  0  0  0  0  0  0  0
    6.8985  -14.9961   25.4389 C   0  0  2  0  0  0  0  0  0  0  0  0
    6.4003  -15.8021   26.5005 N   0  0  0  0  0  0  0  0  0  0  0  0
    7.6093  -15.7305   24.4056 C   0  0  0  0  0  0  0  0  0  0  0  0
    8.2110  -16.7874   24.7656 O   0  0  0  0  0  0  0  0  0  0  0  0
    7.6619  -15.3223   23.0271 N   0  0  0  0  0  0  0  0  0  0  0  0
    6.7137  -14.4052   22.4555 C   0  0  0  0  0  0  0  0  0  0  0  0
    6.9875  -14.4086   20.9829 C   0  0  0  0  0  0  0  0  0  0  0  0
    8.4184  -14.8651   20.8518 C   0  0  0  0  0  0  0  0  0  0  0  0
    8.5839  -15.7491   22.0363 C   0  0  1  0  0  0  0  0  0  0  0  0
   10.0071  -15.7912   22.4802 C   0  0  0  0  0  0  0  0  0  0  0  0
   10.3274  -15.1757   23.5147 O   0  0  0  0  0  0  0  0  0  0  0  0
   10.9891  -16.5024   21.7661 N   0  0  0  0  0  0  0  0  0  0  0  0
   12.3929  -16.5823   22.2136 C   0  0  1  0  0  0  0  0  0  0  0  0
   12.4746  -17.2542   23.5352 C   0  0  0  0  0  0  0  0  0  0  0  0
   13.8406  -17.3794   24.0663 C   0  0  0  0  0  0  0  0  0  0  0  0
   14.8144  -16.9388   23.4449 O   0  0  0  0  0  0  0  0  0  0  0  0
   13.1786  -17.3238   21.2109 C   0  0  0  0  0  0  0  0  0  0  0  0
   12.9116  -18.4348   20.7424 O   0  0  0  0  0  0  0  0  0  0  0  0
   14.0812  -18.0094   25.3078 O   0  0  0  0  0  0  0  0  0  0  0  0
   14.3552  -16.7153   20.7296 O   0  0  0  0  0  0  0  0  0  0  0  0
  2  1  1  6
  2  3  1  0
  4  2  1  0
  5  4  1  0
  5  7  1  0
  5  6  1  1
  7  8  2  0
  7  9  1  0
  9 13  1  0
  9 10  1  0
 11 10  1  0
 12 13  1  0
 12 11  1  0
 13 14  1  1
 15 14  2  0
 16 14  1  0
 17 16  1  0
 17 21  1  0
 17 18  1  1
 19 18  1  0
 20 19  2  0
 21 24  1  0
 22 21  2  0
 23 19  1  0
M  END
$$$$
