FVE.pdb
     RDKit          3D

 28 28  0  0  1  0  0  0  0  0999 V2000
   17.0618  -11.7653  -16.6599 N   0  0  0  0  0  0  0  0  0  0  0  0
   17.9863  -10.7887  -17.1394 C   0  0  1  0  0  0  0  0  0  0  0  0
   17.3530   -9.8693  -18.1292 C   0  0  0  0  0  0  0  0  0  0  0  0
   17.0264  -10.6488  -19.3395 C   0  0  0  0  0  0  0  0  0  0  0  0
   15.7529  -11.1041  -19.5611 C   0  0  0  0  0  0  0  0  0  0  0  0
   15.4243  -11.8451  -20.7015 C   0  0  0  0  0  0  0  0  0  0  0  0
   16.4331  -12.1151  -21.6215 C   0  0  0  0  0  0  0  0  0  0  0  0
   17.7147  -11.6661  -21.4145 C   0  0  0  0  0  0  0  0  0  0  0  0
   17.9956  -10.9389  -20.2768 C   0  0  0  0  0  0  0  0  0  0  0  0
   18.6902  -10.0780  -16.0335 C   0  0  0  0  0  0  0  0  0  0  0  0
   18.0483   -9.6767  -15.0562 O   0  0  0  0  0  0  0  0  0  0  0  0
   23.2364   -9.0567  -14.3909 C   0  0  0  0  0  0  0  0  0  0  0  0
   22.0381   -9.9240  -14.5609 C   0  0  2  0  0  0  0  0  0  0  0  0
   22.3055  -11.0205  -15.5737 C   0  0  0  0  0  0  0  0  0  0  0  0
   20.8052   -9.1741  -15.0151 C   0  0  2  0  0  0  0  0  0  0  0  0
   20.0921   -9.8398  -16.0585 N   0  0  0  0  0  0  0  0  0  0  0  0
   21.1159   -7.7468  -15.3419 C   0  0  0  0  0  0  0  0  0  0  0  0
   21.5934   -7.3823  -16.4247 O   0  0  0  0  0  0  0  0  0  0  0  0
   20.8562   -6.7459  -14.3726 N   0  0  0  0  0  0  0  0  0  0  0  0
   21.1782   -5.3453  -14.6272 C   0  0  1  0  0  0  0  0  0  0  0  0
   19.9686   -4.4832  -14.5400 C   0  0  0  0  0  0  0  0  0  0  0  0
   20.1227   -3.0250  -14.6611 C   0  0  0  0  0  0  0  0  0  0  0  0
   19.9116   -2.3639  -15.9254 C   0  0  0  0  0  0  0  0  0  0  0  0
   19.6560   -2.8496  -17.0323 O   0  0  0  0  0  0  0  0  0  0  0  0
   22.3253   -4.9737  -13.8119 C   0  0  0  0  0  0  0  0  0  0  0  0
   22.4126   -5.3406  -12.6244 O   0  0  0  0  0  0  0  0  0  0  0  0
   20.0082   -0.9483  -15.9138 O   0  0  0  0  0  0  0  0  0  0  0  0
   23.3435   -4.2071  -14.3513 O   0  0  0  0  0  0  0  0  0  0  0  0
  2 10  1  0
  2  1  1  1
  3  4  1  0
  3  2  1  0
  4  5  2  0
  5  6  1  0
  7  6  2  0
  8  7  1  0
  9  8  2  0
  9  4  1  0
 10 11  2  0
 13 12  1  6
 14 13  1  0
 15 13  1  0
 15 16  1  6
 16 10  1  0
 17 15  1  0
 18 17  2  0
 19 17  1  0
 20 19  1  0
 20 21  1  1
 22 21  1  0
 23 22  1  0
 24 23  2  0
 25 20  1  0
 25 28  1  0
 26 25  2  0
 27 23  1  0
M  END
$$$$
