FVE.pdb
     RDKit          3D

 28 28  0  0  1  0  0  0  0  0999 V2000
   29.4872  -28.1657  -16.8086 N   0  0  0  0  0  0  0  0  0  0  0  0
   28.0618  -28.1446  -16.7280 C   0  0  1  0  0  0  0  0  0  0  0  0
   27.5569  -29.0512  -15.6561 C   0  0  0  0  0  0  0  0  0  0  0  0
   27.8078  -30.4446  -16.0744 C   0  0  0  0  0  0  0  0  0  0  0  0
   26.9429  -31.0933  -16.9164 C   0  0  0  0  0  0  0  0  0  0  0  0
   27.1632  -32.4137  -17.3232 C   0  0  0  0  0  0  0  0  0  0  0  0
   28.2970  -33.0660  -16.8477 C   0  0  0  0  0  0  0  0  0  0  0  0
   29.1740  -32.4302  -16.0030 C   0  0  0  0  0  0  0  0  0  0  0  0
   28.9190  -31.1281  -15.6268 C   0  0  0  0  0  0  0  0  0  0  0  0
   27.5158  -26.7598  -16.6414 C   0  0  0  0  0  0  0  0  0  0  0  0
   28.2862  -25.8056  -16.4853 O   0  0  0  0  0  0  0  0  0  0  0  0
   26.0073  -24.6778  -19.1615 C   0  0  0  0  0  0  0  0  0  0  0  0
   26.2147  -24.2536  -17.7493 C   0  0  2  0  0  0  0  0  0  0  0  0
   27.6931  -24.1809  -17.4200 C   0  0  0  0  0  0  0  0  0  0  0  0
   25.5665  -25.1728  -16.7377 C   0  0  2  0  0  0  0  0  0  0  0  0
   26.1227  -26.4884  -16.7326 N   0  0  0  0  0  0  0  0  0  0  0  0
   24.0752  -25.1723  -16.8667 C   0  0  0  0  0  0  0  0  0  0  0  0
   23.4561  -25.9178  -17.6373 O   0  0  0  0  0  0  0  0  0  0  0  0
   23.3154  -24.2776  -16.0723 N   0  0  0  0  0  0  0  0  0  0  0  0
   21.8576  -24.3435  -16.0437 C   0  0  1  0  0  0  0  0  0  0  0  0
   21.3038  -23.6474  -14.8510 C   0  0  0  0  0  0  0  0  0  0  0  0
   19.8452  -23.6117  -14.6602 C   0  0  0  0  0  0  0  0  0  0  0  0
   19.2631  -22.8798  -13.5621 C   0  0  0  0  0  0  0  0  0  0  0  0
   19.8182  -22.2324  -12.6681 O   0  0  0  0  0  0  0  0  0  0  0  0
   21.3461  -23.9475  -17.3475 C   0  0  0  0  0  0  0  0  0  0  0  0
   21.8852  -23.0297  -17.9951 O   0  0  0  0  0  0  0  0  0  0  0  0
   17.8466  -22.8954  -13.4823 O   0  0  0  0  0  0  0  0  0  0  0  0
   20.2497  -24.5941  -17.8907 O   0  0  0  0  0  0  0  0  0  0  0  0
  2 10  1  0
  2  1  1  1
  3  4  1  0
  3  2  1  0
  4  5  2  0
  5  6  1  0
  7  6  2  0
  8  7  1  0
  9  8  2  0
  9  4  1  0
 10 11  2  0
 13 12  1  6
 14 13  1  0
 15 13  1  0
 15 16  1  6
 16 10  1  0
 17 15  1  0
 18 17  2  0
 19 17  1  0
 20 19  1  0
 20 21  1  1
 22 21  1  0
 23 22  1  0
 24 23  2  0
 25 20  1  0
 25 28  1  0
 26 25  2  0
 27 23  1  0
M  END
$$$$
