FVE.pdb
     RDKit          3D

 28 28  0  0  1  0  0  0  0  0999 V2000
   28.3256  -23.3493  -11.5238 N   0  0  0  0  0  0  0  0  0  0  0  0
   28.0318  -21.9569  -11.4077 C   0  0  1  0  0  0  0  0  0  0  0  0
   29.0342  -21.1200  -12.1293 C   0  0  0  0  0  0  0  0  0  0  0  0
   30.3341  -21.2644  -11.4446 C   0  0  0  0  0  0  0  0  0  0  0  0
   31.3528  -21.9837  -12.0127 C   0  0  0  0  0  0  0  0  0  0  0  0
   32.5912  -22.1327  -11.3788 C   0  0  0  0  0  0  0  0  0  0  0  0
   32.7707  -21.5256  -10.1393 C   0  0  0  0  0  0  0  0  0  0  0  0
   31.7599  -20.8011   -9.5560 C   0  0  0  0  0  0  0  0  0  0  0  0
   30.5546  -20.6794  -10.2152 C   0  0  0  0  0  0  0  0  0  0  0  0
   26.6207  -21.6394  -11.7706 C   0  0  0  0  0  0  0  0  0  0  0  0
   26.0599  -22.2782  -12.6682 O   0  0  0  0  0  0  0  0  0  0  0  0
   24.2883  -20.4550   -8.6340 C   0  0  0  0  0  0  0  0  0  0  0  0
   23.8833  -19.8296   -9.9231 C   0  0  2  0  0  0  0  0  0  0  0  0
   22.3740  -19.8251  -10.0694 C   0  0  0  0  0  0  0  0  0  0  0  0
   24.4578  -20.5205  -11.1402 C   0  0  2  0  0  0  0  0  0  0  0  0
   25.8828  -20.6153  -11.1153 N   0  0  0  0  0  0  0  0  0  0  0  0
   23.9366  -19.9252  -12.4108 C   0  0  0  0  0  0  0  0  0  0  0  0
   24.2469  -18.7963  -12.8138 O   0  0  0  0  0  0  0  0  0  0  0  0
   23.0394  -20.6794  -13.2076 N   0  0  0  0  0  0  0  0  0  0  0  0
   22.5067  -20.1460  -14.4574 C   0  0  1  0  0  0  0  0  0  0  0  0
   22.2861  -21.2232  -15.4598 C   0  0  0  0  0  0  0  0  0  0  0  0
   21.5812  -20.8996  -16.7101 C   0  0  0  0  0  0  0  0  0  0  0  0
   21.2412  -21.9357  -17.6541 C   0  0  0  0  0  0  0  0  0  0  0  0
   20.1714  -22.1489  -18.2343 O   0  0  0  0  0  0  0  0  0  0  0  0
   21.3813  -19.2750  -14.1519 C   0  0  0  0  0  0  0  0  0  0  0  0
   21.1290  -18.2821  -14.8609 O   0  0  0  0  0  0  0  0  0  0  0  0
   22.2754  -22.8528  -17.9743 O   0  0  0  0  0  0  0  0  0  0  0  0
   20.5680  -19.5442  -13.0650 O   0  0  0  0  0  0  0  0  0  0  0  0
  2 10  1  0
  2  1  1  6
  3  4  1  0
  3  2  1  0
  4  5  2  0
  5  6  1  0
  7  6  2  0
  8  7  1  0
  9  8  2  0
  9  4  1  0
 10 11  2  0
 13 12  1  1
 14 13  1  0
 15 13  1  0
 15 16  1  6
 16 10  1  0
 17 15  1  0
 18 17  2  0
 19 17  1  0
 20 19  1  0
 20 21  1  6
 22 21  1  0
 23 22  1  0
 24 23  2  0
 25 20  1  0
 25 28  1  0
 26 25  2  0
 27 23  1  0
M  END
$$$$
