FVE.pdb
     RDKit          3D

 28 28  0  0  1  0  0  0  0  0999 V2000
   26.2457  -21.2042   -7.6663 N   0  0  0  0  0  0  0  0  0  0  0  0
   26.9514  -20.2726   -8.4866 C   0  0  1  0  0  0  0  0  0  0  0  0
   28.3591  -20.0898   -8.0273 C   0  0  0  0  0  0  0  0  0  0  0  0
   28.3296  -19.5601   -6.6496 C   0  0  0  0  0  0  0  0  0  0  0  0
   27.9241  -18.2755   -6.3980 C   0  0  0  0  0  0  0  0  0  0  0  0
   27.8904  -17.7554   -5.0996 C   0  0  0  0  0  0  0  0  0  0  0  0
   28.2833  -18.5823   -4.0513 C   0  0  0  0  0  0  0  0  0  0  0  0
   28.6924  -19.8724   -4.2863 C   0  0  0  0  0  0  0  0  0  0  0  0
   28.7106  -20.3453   -5.5818 C   0  0  0  0  0  0  0  0  0  0  0  0
   26.8364  -20.5900   -9.9390 C   0  0  0  0  0  0  0  0  0  0  0  0
   27.7274  -21.2405  -10.4969 O   0  0  0  0  0  0  0  0  0  0  0  0
   25.5700  -22.2094  -13.9001 C   0  0  0  0  0  0  0  0  0  0  0  0
   25.6015  -21.9181  -12.4402 C   0  0  2  0  0  0  0  0  0  0  0  0
   24.4185  -22.5555  -11.7376 C   0  0  0  0  0  0  0  0  0  0  0  0
   25.5835  -20.4407  -12.1152 C   0  0  2  0  0  0  0  0  0  0  0  0
   25.7255  -20.1679  -10.7203 N   0  0  0  0  0  0  0  0  0  0  0  0
   24.4005  -19.7554  -12.7244 C   0  0  0  0  0  0  0  0  0  0  0  0
   23.2666  -19.7792  -12.2275 O   0  0  0  0  0  0  0  0  0  0  0  0
   24.5684  -19.0365  -13.9342 N   0  0  0  0  0  0  0  0  0  0  0  0
   23.4866  -18.2300  -14.4908 C   0  0  1  0  0  0  0  0  0  0  0  0
   23.9976  -17.2354  -15.4724 C   0  0  0  0  0  0  0  0  0  0  0  0
   23.0428  -16.3331  -16.1351 C   0  0  0  0  0  0  0  0  0  0  0  0
   23.4915  -15.3794  -17.1197 C   0  0  0  0  0  0  0  0  0  0  0  0
   24.6082  -15.2455  -17.6311 O   0  0  0  0  0  0  0  0  0  0  0  0
   22.4204  -19.1179  -14.9306 C   0  0  0  0  0  0  0  0  0  0  0  0
   22.6789  -20.2052  -15.4813 O   0  0  0  0  0  0  0  0  0  0  0  0
   22.5207  -14.4520  -17.5787 O   0  0  0  0  0  0  0  0  0  0  0  0
   21.0964  -18.7652  -14.7362 O   0  0  0  0  0  0  0  0  0  0  0  0
  2 10  1  0
  2  1  1  1
  3  4  1  0
  3  2  1  0
  4  5  2  0
  5  6  1  0
  7  6  2  0
  8  7  1  0
  9  8  2  0
  9  4  1  0
 10 11  2  0
 13 12  1  6
 14 13  1  0
 15 13  1  0
 15 16  1  1
 16 10  1  0
 17 15  1  0
 18 17  2  0
 19 17  1  0
 20 19  1  0
 20 21  1  6
 22 21  1  0
 23 22  1  0
 24 23  2  0
 25 20  1  0
 25 28  1  0
 26 25  2  0
 27 23  1  0
M  END
$$$$
