FVE.pdb
     RDKit          3D

 28 28  0  0  1  0  0  0  0  0999 V2000
   28.5920  -21.1249   -8.9678 N   0  0  0  0  0  0  0  0  0  0  0  0
   27.2471  -20.6454   -8.9740 C   0  0  1  0  0  0  0  0  0  0  0  0
   27.0972  -19.4140   -8.1451 C   0  0  0  0  0  0  0  0  0  0  0  0
   27.6275  -19.6981   -6.7970 C   0  0  0  0  0  0  0  0  0  0  0  0
   28.8692  -19.2563   -6.4216 C   0  0  0  0  0  0  0  0  0  0  0  0
   29.3892  -19.5164   -5.1490 C   0  0  0  0  0  0  0  0  0  0  0  0
   28.6073  -20.2447   -4.2572 C   0  0  0  0  0  0  0  0  0  0  0  0
   27.3606  -20.6949   -4.6176 C   0  0  0  0  0  0  0  0  0  0  0  0
   26.8861  -20.4163   -5.8823 C   0  0  0  0  0  0  0  0  0  0  0  0
   26.6981  -20.5042  -10.3532 C   0  0  0  0  0  0  0  0  0  0  0  0
   27.4693  -20.3530  -11.3075 O   0  0  0  0  0  0  0  0  0  0  0  0
   24.9563  -22.8884  -12.4930 C   0  0  0  0  0  0  0  0  0  0  0  0
   25.2815  -21.4889  -12.8838 C   0  0  2  0  0  0  0  0  0  0  0  0
   26.7820  -21.2886  -12.9719 C   0  0  0  0  0  0  0  0  0  0  0  0
   24.7376  -20.4497  -11.9284 C   0  0  2  0  0  0  0  0  0  0  0  0
   25.3013  -20.5370  -10.6188 N   0  0  0  0  0  0  0  0  0  0  0  0
   23.2409  -20.4384  -11.9178 C   0  0  0  0  0  0  0  0  0  0  0  0
   22.5625  -20.7480  -10.9293 O   0  0  0  0  0  0  0  0  0  0  0  0
   22.5466  -20.0558  -13.0926 N   0  0  0  0  0  0  0  0  0  0  0  0
   21.1770  -19.5548  -13.0321 C   0  0  1  0  0  0  0  0  0  0  0  0
   20.8939  -18.6062  -14.1429 C   0  0  0  0  0  0  0  0  0  0  0  0
   19.5539  -18.0072  -14.2443 C   0  0  0  0  0  0  0  0  0  0  0  0
   19.2042  -17.1683  -15.3642 C   0  0  0  0  0  0  0  0  0  0  0  0
   19.8296  -16.9502  -16.4072 O   0  0  0  0  0  0  0  0  0  0  0  0
   20.2731  -20.6839  -12.8691 C   0  0  0  0  0  0  0  0  0  0  0  0
   20.4724  -21.7560  -13.4719 O   0  0  0  0  0  0  0  0  0  0  0  0
   17.9633  -16.4866  -15.2705 O   0  0  0  0  0  0  0  0  0  0  0  0
   19.1757  -20.5817  -12.0320 O   0  0  0  0  0  0  0  0  0  0  0  0
  2 10  1  0
  2  1  1  6
  3  4  1  0
  3  2  1  0
  4  5  2  0
  5  6  1  0
  7  6  2  0
  8  7  1  0
  9  8  2  0
  9  4  1  0
 10 11  2  0
 13 12  1  1
 14 13  1  0
 15 13  1  0
 15 16  1  1
 16 10  1  0
 17 15  1  0
 18 17  2  0
 19 17  1  0
 20 19  1  0
 20 21  1  6
 22 21  1  0
 23 22  1  0
 24 23  2  0
 25 20  1  0
 25 28  1  0
 26 25  2  0
 27 23  1  0
M  END
$$$$
