FVE.pdb
     RDKit          3D

 28 28  0  0  1  0  0  0  0  0999 V2000
   29.7272  -19.6188  -12.4961 N   0  0  0  0  0  0  0  0  0  0  0  0
   28.6676  -20.5751  -12.5340 C   0  0  1  0  0  0  0  0  0  0  0  0
   28.4387  -21.1973  -11.1974 C   0  0  0  0  0  0  0  0  0  0  0  0
   29.7302  -21.7123  -10.7011 C   0  0  0  0  0  0  0  0  0  0  0  0
   30.5213  -22.5060  -11.4898 C   0  0  0  0  0  0  0  0  0  0  0  0
   31.7478  -23.0042  -11.0369 C   0  0  0  0  0  0  0  0  0  0  0  0
   32.1549  -22.6723   -9.7481 C   0  0  0  0  0  0  0  0  0  0  0  0
   31.3738  -21.8778   -8.9446 C   0  0  0  0  0  0  0  0  0  0  0  0
   30.1717  -21.4078   -9.4305 C   0  0  0  0  0  0  0  0  0  0  0  0
   27.4274  -20.0281  -13.1554 C   0  0  0  0  0  0  0  0  0  0  0  0
   27.0260  -18.9034  -12.8356 O   0  0  0  0  0  0  0  0  0  0  0  0
   25.6920  -21.4288  -16.9850 C   0  0  0  0  0  0  0  0  0  0  0  0
   25.6802  -20.1228  -16.2699 C   0  0  2  0  0  0  0  0  0  0  0  0
   26.9651  -19.3581  -16.5227 C   0  0  0  0  0  0  0  0  0  0  0  0
   25.5132  -20.2521  -14.7719 C   0  0  2  0  0  0  0  0  0  0  0  0
   26.6762  -20.7598  -14.1161 N   0  0  0  0  0  0  0  0  0  0  0  0
   24.2698  -21.0064  -14.4178 C   0  0  0  0  0  0  0  0  0  0  0  0
   24.2553  -22.2179  -14.1625 O   0  0  0  0  0  0  0  0  0  0  0  0
   23.0346  -20.3134  -14.3671 N   0  0  0  0  0  0  0  0  0  0  0  0
   21.7926  -21.0052  -14.0365 C   0  0  1  0  0  0  0  0  0  0  0  0
   20.7691  -20.0644  -13.5060 C   0  0  0  0  0  0  0  0  0  0  0  0
   19.4166  -20.5693  -13.2218 C   0  0  0  0  0  0  0  0  0  0  0  0
   18.3398  -19.6601  -12.9151 C   0  0  0  0  0  0  0  0  0  0  0  0
   18.3498  -18.4266  -12.8444 O   0  0  0  0  0  0  0  0  0  0  0  0
   21.4108  -21.8442  -15.1629 C   0  0  0  0  0  0  0  0  0  0  0  0
   21.6298  -21.4817  -16.3346 O   0  0  0  0  0  0  0  0  0  0  0  0
   17.0773  -20.2526  -12.6538 O   0  0  0  0  0  0  0  0  0  0  0  0
   20.8003  -23.0669  -14.9445 O   0  0  0  0  0  0  0  0  0  0  0  0
  2 10  1  0
  2  1  1  1
  3  4  1  0
  3  2  1  0
  4  5  2  0
  5  6  1  0
  7  6  2  0
  8  7  1  0
  9  8  2  0
  9  4  1  0
 10 11  2  0
 13 12  1  6
 14 13  1  0
 15 13  1  0
 15 16  1  6
 16 10  1  0
 17 15  1  0
 18 17  2  0
 19 17  1  0
 20 19  1  0
 20 21  1  6
 22 21  1  0
 23 22  1  0
 24 23  2  0
 25 20  1  0
 25 28  1  0
 26 25  2  0
 27 23  1  0
M  END
$$$$
