FVE.pdb
     RDKit          3D

 28 28  0  0  1  0  0  0  0  0999 V2000
   18.5417  -12.4792  -18.0834 N   0  0  0  0  0  0  0  0  0  0  0  0
   19.2272  -11.2325  -18.2033 C   0  0  1  0  0  0  0  0  0  0  0  0
   18.4135  -10.2250  -18.9441 C   0  0  0  0  0  0  0  0  0  0  0  0
   18.2384  -10.7025  -20.3300 C   0  0  0  0  0  0  0  0  0  0  0  0
   17.0582  -11.2686  -20.7356 C   0  0  0  0  0  0  0  0  0  0  0  0
   16.8736  -11.7278  -22.0442 C   0  0  0  0  0  0  0  0  0  0  0  0
   17.9300  -11.5960  -22.9407 C   0  0  0  0  0  0  0  0  0  0  0  0
   19.1197  -11.0309  -22.5503 C   0  0  0  0  0  0  0  0  0  0  0  0
   19.2593  -10.5913  -21.2505 C   0  0  0  0  0  0  0  0  0  0  0  0
   19.7409  -10.7357  -16.8946 C   0  0  0  0  0  0  0  0  0  0  0  0
   19.0134  -10.7744  -15.8958 O   0  0  0  0  0  0  0  0  0  0  0  0
   23.3454   -9.8702  -13.7552 C   0  0  0  0  0  0  0  0  0  0  0  0
   22.8150  -10.3964  -15.0431 C   0  0  2  0  0  0  0  0  0  0  0  0
   23.8558  -10.2857  -16.1403 C   0  0  0  0  0  0  0  0  0  0  0  0
   21.5689   -9.6851  -15.5226 C   0  0  2  0  0  0  0  0  0  0  0  0
   21.0546  -10.2111  -16.7470 N   0  0  0  0  0  0  0  0  0  0  0  0
   21.7606   -8.2011  -15.5622 C   0  0  0  0  0  0  0  0  0  0  0  0
   22.3059   -7.6077  -16.5022 O   0  0  0  0  0  0  0  0  0  0  0  0
   21.2998   -7.4178  -14.4746 N   0  0  0  0  0  0  0  0  0  0  0  0
   21.4133   -5.9627  -14.4894 C   0  0  1  0  0  0  0  0  0  0  0  0
   20.0855   -5.3141  -14.6634 C   0  0  0  0  0  0  0  0  0  0  0  0
   20.0006   -3.8455  -14.6338 C   0  0  0  0  0  0  0  0  0  0  0  0
   18.7219   -3.1799  -14.6799 C   0  0  0  0  0  0  0  0  0  0  0  0
   17.5873   -3.6635  -14.7528 O   0  0  0  0  0  0  0  0  0  0  0  0
   22.2183   -5.5451  -13.3510 C   0  0  0  0  0  0  0  0  0  0  0  0
   22.3283   -6.2705  -12.3440 O   0  0  0  0  0  0  0  0  0  0  0  0
   18.7537   -1.7621  -14.6360 O   0  0  0  0  0  0  0  0  0  0  0  0
   22.8810   -4.3304  -13.3754 O   0  0  0  0  0  0  0  0  0  0  0  0
  2 10  1  0
  2  1  1  1
  3  4  1  0
  3  2  1  0
  4  5  2  0
  5  6  1  0
  7  6  2  0
  8  7  1  0
  9  8  2  0
  9  4  1  0
 10 11  2  0
 13 12  1  1
 14 13  1  0
 15 13  1  0
 15 16  1  6
 16 10  1  0
 17 15  1  0
 18 17  2  0
 19 17  1  0
 20 19  1  0
 20 21  1  1
 22 21  1  0
 23 22  1  0
 24 23  2  0
 25 20  1  0
 25 28  1  0
 26 25  2  0
 27 23  1  0
M  END
$$$$
