FVE.pdb
     RDKit          3D

 28 28  0  0  1  0  0  0  0  0999 V2000
   25.0846  -21.5491   -8.5998 N   0  0  0  0  0  0  0  0  0  0  0  0
   25.1678  -20.5276   -9.5938 C   0  0  1  0  0  0  0  0  0  0  0  0
   26.5787  -20.1063   -9.8345 C   0  0  0  0  0  0  0  0  0  0  0  0
   27.1503  -19.6537   -8.5508 C   0  0  0  0  0  0  0  0  0  0  0  0
   28.1975  -20.3219   -7.9722 C   0  0  0  0  0  0  0  0  0  0  0  0
   28.7519  -19.9089   -6.7557 C   0  0  0  0  0  0  0  0  0  0  0  0
   28.2097  -18.7875   -6.1349 C   0  0  0  0  0  0  0  0  0  0  0  0
   27.1599  -18.1064   -6.7015 C   0  0  0  0  0  0  0  0  0  0  0  0
   26.6433  -18.5475   -7.9018 C   0  0  0  0  0  0  0  0  0  0  0  0
   24.4328  -20.8842  -10.8413 C   0  0  0  0  0  0  0  0  0  0  0  0
   24.4899  -22.0395  -11.2774 O   0  0  0  0  0  0  0  0  0  0  0  0
   20.7915  -19.5191  -10.9086 C   0  0  0  0  0  0  0  0  0  0  0  0
   21.3062  -20.6165  -11.7735 C   0  0  2  0  0  0  0  0  0  0  0  0
   21.5277  -21.8806  -10.9658 C   0  0  0  0  0  0  0  0  0  0  0  0
   22.6091  -20.2834  -12.4663 C   0  0  2  0  0  0  0  0  0  0  0  0
   23.6568  -19.9338  -11.5604 N   0  0  0  0  0  0  0  0  0  0  0  0
   22.4150  -19.2694  -13.5502 C   0  0  0  0  0  0  0  0  0  0  0  0
   22.3190  -18.0533  -13.3385 O   0  0  0  0  0  0  0  0  0  0  0  0
   22.3347  -19.7066  -14.8960 N   0  0  0  0  0  0  0  0  0  0  0  0
   22.0758  -18.7664  -15.9820 C   0  0  1  0  0  0  0  0  0  0  0  0
   22.4044  -19.3596  -17.3065 C   0  0  0  0  0  0  0  0  0  0  0  0
   23.7580  -19.8897  -17.5337 C   0  0  0  0  0  0  0  0  0  0  0  0
   24.1082  -20.5021  -18.7917 C   0  0  0  0  0  0  0  0  0  0  0  0
   24.2955  -19.9781  -19.8948 O   0  0  0  0  0  0  0  0  0  0  0  0
   20.7421  -18.2095  -15.8101 C   0  0  0  0  0  0  0  0  0  0  0  0
   19.8045  -18.9121  -15.3863 O   0  0  0  0  0  0  0  0  0  0  0  0
   24.2645  -21.9123  -18.7778 O   0  0  0  0  0  0  0  0  0  0  0  0
   20.4983  -16.8812  -16.1125 O   0  0  0  0  0  0  0  0  0  0  0  0
  2 10  1  0
  2  1  1  1
  3  4  1  0
  3  2  1  0
  4  5  2  0
  5  6  1  0
  7  6  2  0
  8  7  1  0
  9  8  2  0
  9  4  1  0
 10 11  2  0
 13 12  1  1
 14 13  1  0
 15 13  1  0
 15 16  1  1
 16 10  1  0
 17 15  1  0
 18 17  2  0
 19 17  1  0
 20 19  1  0
 20 21  1  6
 22 21  1  0
 23 22  1  0
 24 23  2  0
 25 20  1  0
 25 28  1  0
 26 25  2  0
 27 23  1  0
M  END
$$$$
