FVE.pdb
     RDKit          3D

 28 28  0  0  1  0  0  0  0  0999 V2000
   18.6641  -13.6995  -16.3253 N   0  0  0  0  0  0  0  0  0  0  0  0
   19.4074  -12.6966  -17.0183 C   0  0  1  0  0  0  0  0  0  0  0  0
   18.5718  -11.9966  -18.0370 C   0  0  0  0  0  0  0  0  0  0  0  0
   18.1453  -12.9882  -19.0441 C   0  0  0  0  0  0  0  0  0  0  0  0
   16.8533  -13.4435  -19.0803 C   0  0  0  0  0  0  0  0  0  0  0  0
   16.4305  -14.3837  -20.0264 C   0  0  0  0  0  0  0  0  0  0  0  0
   17.3638  -14.8550  -20.9450 C   0  0  0  0  0  0  0  0  0  0  0  0
   18.6628  -14.4090  -20.9224 C   0  0  0  0  0  0  0  0  0  0  0  0
   19.0376  -13.4816  -19.9728 C   0  0  0  0  0  0  0  0  0  0  0  0
   20.1156  -11.7684  -16.0908 C   0  0  0  0  0  0  0  0  0  0  0  0
   19.5203  -11.3105  -15.1088 O   0  0  0  0  0  0  0  0  0  0  0  0
   24.3907   -9.9356  -14.3735 C   0  0  0  0  0  0  0  0  0  0  0  0
   23.6321  -10.8765  -15.2432 C   0  0  2  0  0  0  0  0  0  0  0  0
   24.2645  -10.9686  -16.6183 C   0  0  0  0  0  0  0  0  0  0  0  0
   22.1812  -10.4923  -15.4330 C   0  0  2  0  0  0  0  0  0  0  0  0
   21.4695  -11.3829  -16.2936 N   0  0  0  0  0  0  0  0  0  0  0  0
   22.0376   -9.0574  -15.8337 C   0  0  0  0  0  0  0  0  0  0  0  0
   22.1998   -8.6523  -16.9925 O   0  0  0  0  0  0  0  0  0  0  0  0
   21.6982   -8.0975  -14.8477 N   0  0  0  0  0  0  0  0  0  0  0  0
   21.5564   -6.6845  -15.1854 C   0  0  1  0  0  0  0  0  0  0  0  0
   20.1366   -6.3272  -15.4504 C   0  0  0  0  0  0  0  0  0  0  0  0
   19.7922   -4.9202  -15.7087 C   0  0  0  0  0  0  0  0  0  0  0  0
   18.4206   -4.5219  -15.9095 C   0  0  0  0  0  0  0  0  0  0  0  0
   17.3968   -5.2133  -15.9267 O   0  0  0  0  0  0  0  0  0  0  0  0
   22.2724   -5.8933  -14.1955 C   0  0  0  0  0  0  0  0  0  0  0  0
   22.4527   -6.3237  -13.0403 O   0  0  0  0  0  0  0  0  0  0  0  0
   18.1968   -3.1366  -16.1192 O   0  0  0  0  0  0  0  0  0  0  0  0
   22.7703   -4.6459  -14.5294 O   0  0  0  0  0  0  0  0  0  0  0  0
  2 10  1  0
  2  1  1  1
  3  4  1  0
  3  2  1  0
  4  5  2  0
  5  6  1  0
  7  6  2  0
  8  7  1  0
  9  8  2  0
  9  4  1  0
 10 11  2  0
 13 12  1  1
 14 13  1  0
 15 13  1  0
 15 16  1  6
 16 10  1  0
 17 15  1  0
 18 17  2  0
 19 17  1  0
 20 19  1  0
 20 21  1  1
 22 21  1  0
 23 22  1  0
 24 23  2  0
 25 20  1  0
 25 28  1  0
 26 25  2  0
 27 23  1  0
M  END
$$$$
