FVE.pdb
     RDKit          3D

 28 28  0  0  1  0  0  0  0  0999 V2000
   25.1195  -19.1735   -8.4530 N   0  0  0  0  0  0  0  0  0  0  0  0
   26.1209  -19.8253   -9.2345 C   0  0  1  0  0  0  0  0  0  0  0  0
   26.6238  -21.0610   -8.5666 C   0  0  0  0  0  0  0  0  0  0  0  0
   27.2521  -20.6714   -7.2887 C   0  0  0  0  0  0  0  0  0  0  0  0
   28.5151  -20.1405   -7.2585 C   0  0  0  0  0  0  0  0  0  0  0  0
   29.1275  -19.7662   -6.0574 C   0  0  0  0  0  0  0  0  0  0  0  0
   28.4167  -19.9469   -4.8746 C   0  0  0  0  0  0  0  0  0  0  0  0
   27.1498  -20.4778   -4.8874 C   0  0  0  0  0  0  0  0  0  0  0  0
   26.5833  -20.8334   -6.0935 C   0  0  0  0  0  0  0  0  0  0  0  0
   25.6903  -20.0453  -10.6451 C   0  0  0  0  0  0  0  0  0  0  0  0
   24.4982  -20.2553  -10.8965 O   0  0  0  0  0  0  0  0  0  0  0  0
   28.4157  -18.0631  -13.1487 C   0  0  0  0  0  0  0  0  0  0  0  0
   27.5648  -19.0991  -13.7965 C   0  0  2  0  0  0  0  0  0  0  0  0
   27.1176  -18.6460  -15.1728 C   0  0  0  0  0  0  0  0  0  0  0  0
   26.3234  -19.4471  -13.0050 C   0  0  2  0  0  0  0  0  0  0  0  0
   26.6102  -20.0227  -11.7295 N   0  0  0  0  0  0  0  0  0  0  0  0
   25.3661  -20.2679  -13.8115 C   0  0  0  0  0  0  0  0  0  0  0  0
   25.4509  -21.4976  -13.9284 O   0  0  0  0  0  0  0  0  0  0  0  0
   24.2998  -19.6199  -14.4837 N   0  0  0  0  0  0  0  0  0  0  0  0
   23.0749  -20.3364  -14.8253 C   0  0  1  0  0  0  0  0  0  0  0  0
   22.2016  -20.5215  -13.6350 C   0  0  0  0  0  0  0  0  0  0  0  0
   20.9885  -21.3444  -13.7623 C   0  0  0  0  0  0  0  0  0  0  0  0
   20.0365  -21.4261  -12.6819 C   0  0  0  0  0  0  0  0  0  0  0  0
   19.0766  -20.6922  -12.4242 O   0  0  0  0  0  0  0  0  0  0  0  0
   22.4821  -19.7148  -16.0004 C   0  0  0  0  0  0  0  0  0  0  0  0
   21.7965  -20.3805  -16.7999 O   0  0  0  0  0  0  0  0  0  0  0  0
   20.2139  -22.5011  -11.7730 O   0  0  0  0  0  0  0  0  0  0  0  0
   22.6695  -18.3653  -16.2431 O   0  0  0  0  0  0  0  0  0  0  0  0
  2 10  1  0
  2  1  1  1
  3  4  1  0
  3  2  1  0
  4  5  2  0
  5  6  1  0
  7  6  2  0
  8  7  1  0
  9  8  2  0
  9  4  1  0
 10 11  2  0
 13 12  1  1
 14 13  1  0
 15 13  1  0
 15 16  1  1
 16 10  1  0
 17 15  1  0
 18 17  2  0
 19 17  1  0
 20 19  1  0
 20 21  1  1
 22 21  1  0
 23 22  1  0
 24 23  2  0
 25 20  1  0
 25 28  1  0
 26 25  2  0
 27 23  1  0
M  END
$$$$
