FVE.pdb
     RDKit          3D

 28 28  0  0  1  0  0  0  0  0999 V2000
   28.0607  -19.5774  -15.8554 N   0  0  0  0  0  0  0  0  0  0  0  0
   26.9648  -19.0733  -15.0916 C   0  0  1  0  0  0  0  0  0  0  0  0
   26.0890  -18.1817  -15.9062 C   0  0  0  0  0  0  0  0  0  0  0  0
   26.8110  -16.9157  -16.1415 C   0  0  0  0  0  0  0  0  0  0  0  0
   26.8658  -15.9465  -15.1742 C   0  0  0  0  0  0  0  0  0  0  0  0
   27.5442  -14.7400  -15.3788 C   0  0  0  0  0  0  0  0  0  0  0  0
   28.1725  -14.5406  -16.6045 C   0  0  0  0  0  0  0  0  0  0  0  0
   28.1272  -15.5019  -17.5848 C   0  0  0  0  0  0  0  0  0  0  0  0
   27.4474  -16.6770  -17.3415 C   0  0  0  0  0  0  0  0  0  0  0  0
   26.2192  -20.1527  -14.3826 C   0  0  0  0  0  0  0  0  0  0  0  0
   26.0647  -21.2512  -14.9281 O   0  0  0  0  0  0  0  0  0  0  0  0
   25.1125  -20.0358  -10.0874 C   0  0  0  0  0  0  0  0  0  0  0  0
   25.2775  -21.2026  -10.9974 C   0  0  2  0  0  0  0  0  0  0  0  0
   26.7241  -21.6561  -11.0358 C   0  0  0  0  0  0  0  0  0  0  0  0
   24.8476  -20.9276  -12.4216 C   0  0  2  0  0  0  0  0  0  0  0  0
   25.6704  -19.9661  -13.0839 N   0  0  0  0  0  0  0  0  0  0  0  0
   23.3892  -20.6011  -12.5050 C   0  0  0  0  0  0  0  0  0  0  0  0
   22.9021  -19.5400  -12.0928 O   0  0  0  0  0  0  0  0  0  0  0  0
   22.5040  -21.5448  -13.0835 N   0  0  0  0  0  0  0  0  0  0  0  0
   21.0741  -21.2726  -13.1917 C   0  0  1  0  0  0  0  0  0  0  0  0
   20.6234  -21.2804  -14.6097 C   0  0  0  0  0  0  0  0  0  0  0  0
   21.3637  -20.4790  -15.5970 C   0  0  0  0  0  0  0  0  0  0  0  0
   22.1524  -21.1171  -16.6222 C   0  0  0  0  0  0  0  0  0  0  0  0
   21.9534  -22.1813  -17.2175 O   0  0  0  0  0  0  0  0  0  0  0  0
   20.3626  -22.1335  -12.2584 C   0  0  0  0  0  0  0  0  0  0  0  0
   20.9394  -23.0848  -11.6973 O   0  0  0  0  0  0  0  0  0  0  0  0
   23.3330  -20.4361  -17.0165 O   0  0  0  0  0  0  0  0  0  0  0  0
   19.0278  -21.9010  -11.9762 O   0  0  0  0  0  0  0  0  0  0  0  0
  2 10  1  0
  2  1  1  6
  3  4  1  0
  3  2  1  0
  4  5  2  0
  5  6  1  0
  7  6  2  0
  8  7  1  0
  9  8  2  0
  9  4  1  0
 10 11  2  0
 13 12  1  1
 14 13  1  0
 15 13  1  0
 15 16  1  1
 16 10  1  0
 17 15  1  0
 18 17  2  0
 19 17  1  0
 20 19  1  0
 20 21  1  6
 22 21  1  0
 23 22  1  0
 24 23  2  0
 25 20  1  0
 25 28  1  0
 26 25  2  0
 27 23  1  0
M  END
$$$$
