DFH.pdb
     RDKit          3D

 30 31  0  0  1  0  0  0  0  0999 V2000
   21.0539  -11.5569  -17.9140 N   0  0  0  0  0  0  0  0  0  0  0  0
   20.6631  -11.4536  -16.4844 C   0  0  1  0  0  0  0  0  0  0  0  0
   20.7571  -12.8407  -15.9561 C   0  0  0  0  0  0  0  0  0  0  0  0
   19.7809  -13.8082  -16.4113 C   0  0  0  0  0  0  0  0  0  0  0  0
   18.8305  -13.4848  -17.1473 O   0  0  0  0  0  0  0  0  0  0  0  0
   21.5330  -10.4599  -15.8166 C   0  0  0  0  0  0  0  0  0  0  0  0
   21.5722  -10.3662  -14.5736 O   0  0  0  0  0  0  0  0  0  0  0  0
   19.8900  -15.1356  -16.0282 O   0  0  0  0  0  0  0  0  0  0  0  0
   22.3691   -9.5607  -16.5555 N   0  0  0  0  0  0  0  0  0  0  0  0
   23.2269   -8.5748  -15.9057 C   0  0  1  0  0  0  0  0  0  0  0  0
   24.5942   -8.5531  -16.5084 C   0  0  0  0  0  0  0  0  0  0  0  0
   25.3967   -9.7683  -16.2854 C   0  0  0  0  0  0  0  0  0  0  0  0
   26.0270   -9.9480  -15.0772 C   0  0  0  0  0  0  0  0  0  0  0  0
   26.7926  -11.0881  -14.8269 C   0  0  0  0  0  0  0  0  0  0  0  0
   26.9263  -12.0569  -15.8001 C   0  0  0  0  0  0  0  0  0  0  0  0
   26.2862  -11.8515  -16.9974 C   0  0  0  0  0  0  0  0  0  0  0  0
   25.5260  -10.7318  -17.2617 C   0  0  0  0  0  0  0  0  0  0  0  0
   22.5603   -7.2588  -16.0264 C   0  0  0  0  0  0  0  0  0  0  0  0
   22.1513   -6.8407  -17.1450 O   0  0  0  0  0  0  0  0  0  0  0  0
   22.3550   -6.4202  -14.9009 N   0  0  0  0  0  0  0  0  0  0  0  0
   21.6656   -5.1503  -15.0827 C   0  0  1  0  0  0  0  0  0  0  0  0
   20.3672   -5.1627  -14.2962 C   0  0  0  0  0  0  0  0  0  0  0  0
   19.3072   -5.9565  -14.9439 C   0  0  0  0  0  0  0  0  0  0  0  0
   19.2843   -6.5887  -16.1512 C   0  0  0  0  0  0  0  0  0  0  0  0
   18.0691   -7.1673  -16.2779 N   0  0  0  0  0  0  0  0  0  0  0  0
   17.3528   -6.9066  -15.1862 C   0  0  0  0  0  0  0  0  0  0  0  0
   18.0991   -6.1642  -14.3578 N   0  0  0  0  0  0  0  0  0  0  0  0
   22.5309   -4.0391  -14.6185 C   0  0  0  0  0  0  0  0  0  0  0  0
   23.5894   -4.2181  -13.9702 O   0  0  0  0  0  0  0  0  0  0  0  0
   22.1975   -2.7055  -14.8897 O   0  0  0  0  0  0  0  0  0  0  0  0
  2  1  1  6
  2  3  1  0
  4  5  2  0
  4  3  1  0
  6  2  1  0
  6  7  2  0
  8  4  1  0
  9  6  1  0
 10  9  1  0
 11 12  1  0
 10 11  1  6
 12 17  2  0
 13 14  2  0
 13 12  1  0
 14 15  1  0
 15 16  2  0
 17 16  1  0
 18 10  1  0
 18 19  2  0
 20 18  1  0
 21 20  1  0
 21 28  1  0
 21 22  1  1
 23 22  1  0
 24 23  2  0
 25 24  1  0
 26 25  1  0
 26 27  2  0
 27 23  1  0
 28 30  1  0
 29 28  2  0
M  END
$$$$
