DFH.pdb
     RDKit          3D

 30 31  0  0  1  0  0  0  0  0999 V2000
   23.3018  -12.1499  -18.7330 N   0  0  0  0  0  0  0  0  0  0  0  0
   22.9488  -10.7739  -19.1680 C   0  0  1  0  0  0  0  0  0  0  0  0
   21.7747  -10.9408  -20.0656 C   0  0  0  0  0  0  0  0  0  0  0  0
   22.0126  -11.4095  -21.4146 C   0  0  0  0  0  0  0  0  0  0  0  0
   22.9050  -12.2381  -21.6734 O   0  0  0  0  0  0  0  0  0  0  0  0
   22.7186   -9.9334  -17.9718 C   0  0  0  0  0  0  0  0  0  0  0  0
   22.0725  -10.3618  -16.9948 O   0  0  0  0  0  0  0  0  0  0  0  0
   21.2366  -10.9350  -22.4601 O   0  0  0  0  0  0  0  0  0  0  0  0
   23.2214   -8.5951  -17.8729 N   0  0  0  0  0  0  0  0  0  0  0  0
   23.0569   -7.7825  -16.6718 C   0  0  1  0  0  0  0  0  0  0  0  0
   24.3752   -7.3597  -16.1090 C   0  0  0  0  0  0  0  0  0  0  0  0
   25.2623   -8.4609  -15.6957 C   0  0  0  0  0  0  0  0  0  0  0  0
   26.3912   -8.7302  -16.4321 C   0  0  0  0  0  0  0  0  0  0  0  0
   27.2581   -9.7625  -16.0698 C   0  0  0  0  0  0  0  0  0  0  0  0
   26.9879  -10.5319  -14.9568 C   0  0  0  0  0  0  0  0  0  0  0  0
   25.8535  -10.2411  -14.2399 C   0  0  0  0  0  0  0  0  0  0  0  0
   24.9864   -9.2254  -14.5832 C   0  0  0  0  0  0  0  0  0  0  0  0
   22.2237   -6.6149  -17.0369 C   0  0  0  0  0  0  0  0  0  0  0  0
   22.5899   -5.8169  -17.9438 O   0  0  0  0  0  0  0  0  0  0  0  0
   20.9906   -6.3462  -16.3893 N   0  0  0  0  0  0  0  0  0  0  0  0
   20.1722   -5.2376  -16.8607 C   0  0  1  0  0  0  0  0  0  0  0  0
   18.8830   -5.7771  -17.4535 C   0  0  0  0  0  0  0  0  0  0  0  0
   18.0093   -4.7201  -17.9943 C   0  0  0  0  0  0  0  0  0  0  0  0
   18.2893   -3.4361  -18.3558 C   0  0  0  0  0  0  0  0  0  0  0  0
   17.1339   -2.8783  -18.7817 N   0  0  0  0  0  0  0  0  0  0  0  0
   16.1606   -3.7824  -18.6902 C   0  0  0  0  0  0  0  0  0  0  0  0
   16.6822   -4.9182  -18.2084 N   0  0  0  0  0  0  0  0  0  0  0  0
   19.8700   -4.3228  -15.7334 C   0  0  0  0  0  0  0  0  0  0  0  0
   19.6649   -4.7211  -14.5621 O   0  0  0  0  0  0  0  0  0  0  0  0
   19.7981   -2.9373  -15.9299 O   0  0  0  0  0  0  0  0  0  0  0  0
  2  1  1  1
  2  3  1  0
  4  5  2  0
  4  3  1  0
  6  2  1  0
  6  7  2  0
  8  4  1  0
  9  6  1  0
 10  9  1  0
 11 12  1  0
 10 11  1  6
 12 17  2  0
 13 14  2  0
 13 12  1  0
 14 15  1  0
 15 16  2  0
 17 16  1  0
 18 10  1  0
 18 19  2  0
 20 18  1  0
 21 20  1  0
 21 28  1  0
 21 22  1  1
 23 22  1  0
 24 23  2  0
 25 24  1  0
 26 25  1  0
 26 27  2  0
 27 23  1  0
 28 30  1  0
 29 28  2  0
M  END
$$$$
