DFH.pdb
     RDKit          3D

 30 31  0  0  1  0  0  0  0  0999 V2000
   40.8592   -5.2371  -11.1187 N   0  0  0  0  0  0  0  0  0  0  0  0
   40.6950   -3.7925  -10.8135 C   0  0  1  0  0  0  0  0  0  0  0  0
   41.4135   -3.0820  -11.9048 C   0  0  0  0  0  0  0  0  0  0  0  0
   42.8582   -3.1711  -11.9369 C   0  0  0  0  0  0  0  0  0  0  0  0
   43.5443   -3.0800  -10.9022 O   0  0  0  0  0  0  0  0  0  0  0  0
   39.2521   -3.4843  -10.6979 C   0  0  0  0  0  0  0  0  0  0  0  0
   38.4835   -3.6114  -11.6719 O   0  0  0  0  0  0  0  0  0  0  0  0
   43.5141   -3.3630  -13.1425 O   0  0  0  0  0  0  0  0  0  0  0  0
   38.6664   -3.0277   -9.4723 N   0  0  0  0  0  0  0  0  0  0  0  0
   37.2574   -2.6629   -9.3649 C   0  0  1  0  0  0  0  0  0  0  0  0
   36.6609   -3.1443   -8.0820 C   0  0  0  0  0  0  0  0  0  0  0  0
   35.2683   -2.7274   -7.8431 C   0  0  0  0  0  0  0  0  0  0  0  0
   35.0180   -1.6400   -7.0404 C   0  0  0  0  0  0  0  0  0  0  0  0
   33.7124   -1.2122   -6.7939 C   0  0  0  0  0  0  0  0  0  0  0  0
   32.6478   -1.8836   -7.3592 C   0  0  0  0  0  0  0  0  0  0  0  0
   32.9268   -2.9662   -8.1565 C   0  0  0  0  0  0  0  0  0  0  0  0
   34.2099   -3.4024   -8.4108 C   0  0  0  0  0  0  0  0  0  0  0  0
   37.1702   -1.1902   -9.4843 C   0  0  0  0  0  0  0  0  0  0  0  0
   37.9556   -0.4410   -8.8397 O   0  0  0  0  0  0  0  0  0  0  0  0
   36.2098   -0.5647  -10.3201 N   0  0  0  0  0  0  0  0  0  0  0  0
   36.1307    0.8893  -10.3396 C   0  0  1  0  0  0  0  0  0  0  0  0
   36.1813    1.3792  -11.7757 C   0  0  0  0  0  0  0  0  0  0  0  0
   37.5523    1.4551  -12.3121 C   0  0  0  0  0  0  0  0  0  0  0  0
   38.7550    1.2462  -11.7059 C   0  0  0  0  0  0  0  0  0  0  0  0
   39.7141    1.4532  -12.6360 N   0  0  0  0  0  0  0  0  0  0  0  0
   39.1323    1.7814  -13.7878 C   0  0  0  0  0  0  0  0  0  0  0  0
   37.8053    1.7870  -13.6052 N   0  0  0  0  0  0  0  0  0  0  0  0
   34.8704    1.3316   -9.6954 C   0  0  0  0  0  0  0  0  0  0  0  0
   33.7823    0.7219   -9.8253 O   0  0  0  0  0  0  0  0  0  0  0  0
   34.8367    2.4792   -8.8921 O   0  0  0  0  0  0  0  0  0  0  0  0
  2  1  1  6
  2  3  1  0
  4  5  2  0
  4  3  1  0
  6  2  1  0
  6  7  2  0
  8  4  1  0
  9  6  1  0
 10  9  1  0
 11 12  1  0
 10 11  1  1
 12 17  2  0
 13 14  2  0
 13 12  1  0
 14 15  1  0
 15 16  2  0
 17 16  1  0
 18 10  1  0
 18 19  2  0
 20 18  1  0
 21 20  1  0
 21 28  1  0
 21 22  1  6
 23 22  1  0
 24 23  2  0
 25 24  1  0
 26 25  1  0
 26 27  2  0
 27 23  1  0
 28 30  1  0
 29 28  2  0
M  END
$$$$
