DFH.pdb
     RDKit          3D

 30 31  0  0  1  0  0  0  0  0999 V2000
   25.7643  -12.4670  -20.5332 N   0  0  0  0  0  0  0  0  0  0  0  0
   25.4840  -11.0439  -20.2116 C   0  0  1  0  0  0  0  0  0  0  0  0
   24.5488  -10.5841  -21.2727 C   0  0  0  0  0  0  0  0  0  0  0  0
   25.0984  -10.2820  -22.5777 C   0  0  0  0  0  0  0  0  0  0  0  0
   26.3021  -10.4606  -22.8400 O   0  0  0  0  0  0  0  0  0  0  0  0
   24.9670  -10.9544  -18.8278 C   0  0  0  0  0  0  0  0  0  0  0  0
   24.2996  -11.8806  -18.3254 O   0  0  0  0  0  0  0  0  0  0  0  0
   24.2785   -9.7796  -23.5756 O   0  0  0  0  0  0  0  0  0  0  0  0
   25.2034   -9.8097  -17.9988 N   0  0  0  0  0  0  0  0  0  0  0  0
   24.7670   -9.7455  -16.6076 C   0  0  1  0  0  0  0  0  0  0  0  0
   25.9247   -9.5966  -15.6744 C   0  0  0  0  0  0  0  0  0  0  0  0
   26.8395  -10.7501  -15.6217 C   0  0  0  0  0  0  0  0  0  0  0  0
   28.0438  -10.6866  -16.2812 C   0  0  0  0  0  0  0  0  0  0  0  0
   28.9387  -11.7574  -16.2511 C   0  0  0  0  0  0  0  0  0  0  0  0
   28.6204  -12.9035  -15.5518 C   0  0  0  0  0  0  0  0  0  0  0  0
   27.4109  -12.9397  -14.9026 C   0  0  0  0  0  0  0  0  0  0  0  0
   26.5152  -11.8915  -14.9215 C   0  0  0  0  0  0  0  0  0  0  0  0
   23.8261   -8.6090  -16.4899 C   0  0  0  0  0  0  0  0  0  0  0  0
   24.1320   -7.4671  -16.9327 O   0  0  0  0  0  0  0  0  0  0  0  0
   22.5534   -8.7537  -15.8805 N   0  0  0  0  0  0  0  0  0  0  0  0
   21.6705   -7.5980  -15.8061 C   0  0  1  0  0  0  0  0  0  0  0  0
   20.3586   -7.9184  -16.4997 C   0  0  0  0  0  0  0  0  0  0  0  0
   19.4328   -6.7720  -16.5424 C   0  0  0  0  0  0  0  0  0  0  0  0
   19.6154   -5.4701  -16.1824 C   0  0  0  0  0  0  0  0  0  0  0  0
   18.4492   -4.8245  -16.4075 N   0  0  0  0  0  0  0  0  0  0  0  0
   17.5638   -5.6926  -16.8926 C   0  0  0  0  0  0  0  0  0  0  0  0
   18.1525   -6.8926  -16.9812 N   0  0  0  0  0  0  0  0  0  0  0  0
   21.4229   -7.2466  -14.3869 C   0  0  0  0  0  0  0  0  0  0  0  0
   21.4436   -6.0685  -13.9577 O   0  0  0  0  0  0  0  0  0  0  0  0
   21.1478   -8.2391  -13.4368 O   0  0  0  0  0  0  0  0  0  0  0  0
  2  1  1  6
  2  3  1  0
  4  5  2  0
  4  3  1  0
  6  2  1  0
  6  7  2  0
  8  4  1  0
  9  6  1  0
 10  9  1  0
 11 12  1  0
 10 11  1  1
 12 17  2  0
 13 14  2  0
 13 12  1  0
 14 15  1  0
 15 16  2  0
 17 16  1  0
 18 10  1  0
 18 19  2  0
 20 18  1  0
 21 20  1  0
 21 28  1  0
 21 22  1  1
 23 22  1  0
 24 23  2  0
 25 24  1  0
 26 25  1  0
 26 27  2  0
 27 23  1  0
 28 30  1  0
 29 28  2  0
M  END
$$$$
