DFH.pdb
     RDKit          3D

 30 31  0  0  1  0  0  0  0  0999 V2000
   24.0335  -13.3824  -18.2600 N   0  0  0  0  0  0  0  0  0  0  0  0
   23.8233  -11.9630  -18.6452 C   0  0  1  0  0  0  0  0  0  0  0  0
   22.6875  -11.9865  -19.6050 C   0  0  0  0  0  0  0  0  0  0  0  0
   22.8804  -12.6663  -20.8687 C   0  0  0  0  0  0  0  0  0  0  0  0
   22.0219  -13.4368  -21.3369 O   0  0  0  0  0  0  0  0  0  0  0  0
   23.6045  -11.1582  -17.4227 C   0  0  0  0  0  0  0  0  0  0  0  0
   22.9601  -11.6121  -16.4561 O   0  0  0  0  0  0  0  0  0  0  0  0
   24.0455  -12.4671  -21.5921 O   0  0  0  0  0  0  0  0  0  0  0  0
   24.1166   -9.8268  -17.2852 N   0  0  0  0  0  0  0  0  0  0  0  0
   23.8489   -9.0010  -16.1121 C   0  0  1  0  0  0  0  0  0  0  0  0
   25.1113   -8.6150  -15.4116 C   0  0  0  0  0  0  0  0  0  0  0  0
   26.1584   -9.6511  -15.3907 C   0  0  0  0  0  0  0  0  0  0  0  0
   26.1341  -10.6149  -14.4111 C   0  0  0  0  0  0  0  0  0  0  0  0
   27.1063  -11.6153  -14.3608 C   0  0  0  0  0  0  0  0  0  0  0  0
   28.1129  -11.6474  -15.3038 C   0  0  0  0  0  0  0  0  0  0  0  0
   28.1130  -10.6724  -16.2708 C   0  0  0  0  0  0  0  0  0  0  0  0
   27.1607   -9.6772  -16.3356 C   0  0  0  0  0  0  0  0  0  0  0  0
   23.0971   -7.8110  -16.5696 C   0  0  0  0  0  0  0  0  0  0  0  0
   23.1935   -7.4029  -17.7602 O   0  0  0  0  0  0  0  0  0  0  0  0
   22.2447   -7.0861  -15.6977 N   0  0  0  0  0  0  0  0  0  0  0  0
   20.9900   -6.5576  -16.2148 C   0  0  1  0  0  0  0  0  0  0  0  0
   20.1456   -7.6975  -16.7554 C   0  0  0  0  0  0  0  0  0  0  0  0
   20.0071   -7.6682  -18.2227 C   0  0  0  0  0  0  0  0  0  0  0  0
   20.4651   -6.7695  -19.1395 C   0  0  0  0  0  0  0  0  0  0  0  0
   20.0582   -7.1954  -20.3563 N   0  0  0  0  0  0  0  0  0  0  0  0
   19.3675   -8.3240  -20.2081 C   0  0  0  0  0  0  0  0  0  0  0  0
   19.3272   -8.6273  -18.9040 N   0  0  0  0  0  0  0  0  0  0  0  0
   20.2600   -5.8518  -15.1341 C   0  0  0  0  0  0  0  0  0  0  0  0
   20.2244   -6.2608  -13.9492 O   0  0  0  0  0  0  0  0  0  0  0  0
   19.5593   -4.6665  -15.3936 O   0  0  0  0  0  0  0  0  0  0  0  0
  2  1  1  1
  2  3  1  0
  4  5  2  0
  4  3  1  0
  6  2  1  0
  6  7  2  0
  8  4  1  0
  9  6  1  0
 10  9  1  0
 11 12  1  0
 10 11  1  6
 12 17  2  0
 13 14  2  0
 13 12  1  0
 14 15  1  0
 15 16  2  0
 17 16  1  0
 18 10  1  0
 18 19  2  0
 20 18  1  0
 21 20  1  0
 21 28  1  0
 21 22  1  1
 23 22  1  0
 24 23  2  0
 25 24  1  0
 26 25  1  0
 26 27  2  0
 27 23  1  0
 28 30  1  0
 29 28  2  0
M  END
$$$$
