DFH.pdb
     RDKit          3D

 30 31  0  0  1  0  0  0  0  0999 V2000
   27.7104  -22.9963  -17.3800 N   0  0  0  0  0  0  0  0  0  0  0  0
   27.2711  -21.6593  -16.9040 C   0  0  1  0  0  0  0  0  0  0  0  0
   26.4856  -21.0864  -18.0295 C   0  0  0  0  0  0  0  0  0  0  0  0
   26.1255  -19.6857  -17.9624 C   0  0  0  0  0  0  0  0  0  0  0  0
   26.9869  -18.7891  -17.8998 O   0  0  0  0  0  0  0  0  0  0  0  0
   26.5329  -21.8184  -15.6312 C   0  0  0  0  0  0  0  0  0  0  0  0
   25.6744  -22.7117  -15.4887 O   0  0  0  0  0  0  0  0  0  0  0  0
   24.7910  -19.3122  -17.9668 O   0  0  0  0  0  0  0  0  0  0  0  0
   26.7631  -20.9628  -14.5049 N   0  0  0  0  0  0  0  0  0  0  0  0
   26.0269  -21.1005  -13.2523 C   0  0  1  0  0  0  0  0  0  0  0  0
   26.7434  -20.4419  -12.1181 C   0  0  0  0  0  0  0  0  0  0  0  0
   26.0206  -20.4445  -10.8344 C   0  0  0  0  0  0  0  0  0  0  0  0
   24.9525  -19.5971  -10.6600 C   0  0  0  0  0  0  0  0  0  0  0  0
   24.2403  -19.5737   -9.4597 C   0  0  0  0  0  0  0  0  0  0  0  0
   24.6051  -20.4096   -8.4244 C   0  0  0  0  0  0  0  0  0  0  0  0
   25.6757  -21.2455   -8.6259 C   0  0  0  0  0  0  0  0  0  0  0  0
   26.3902  -21.2819   -9.8047 C   0  0  0  0  0  0  0  0  0  0  0  0
   24.6845  -20.5127  -13.4599 C   0  0  0  0  0  0  0  0  0  0  0  0
   24.5446  -19.4207  -14.0775 O   0  0  0  0  0  0  0  0  0  0  0  0
   23.5100  -21.1457  -12.9783 N   0  0  0  0  0  0  0  0  0  0  0  0
   22.2153  -20.5432  -13.2638 C   0  0  1  0  0  0  0  0  0  0  0  0
   21.9453  -20.6084  -14.7563 C   0  0  0  0  0  0  0  0  0  0  0  0
   20.6712  -19.9744  -15.1409 C   0  0  0  0  0  0  0  0  0  0  0  0
   19.7066  -19.3868  -14.3780 C   0  0  0  0  0  0  0  0  0  0  0  0
   18.7312  -18.9699  -15.2161 N   0  0  0  0  0  0  0  0  0  0  0  0
   19.0723  -19.2856  -16.4638 C   0  0  0  0  0  0  0  0  0  0  0  0
   20.2607  -19.9029  -16.4342 N   0  0  0  0  0  0  0  0  0  0  0  0
   21.1524  -21.2643  -12.5226 C   0  0  0  0  0  0  0  0  0  0  0  0
   21.3784  -22.2578  -11.7914 O   0  0  0  0  0  0  0  0  0  0  0  0
   19.8138  -20.8587  -12.6071 O   0  0  0  0  0  0  0  0  0  0  0  0
  2  1  1  6
  2  3  1  0
  4  5  2  0
  4  3  1  0
  6  2  1  0
  6  7  2  0
  8  4  1  0
  9  6  1  0
 10  9  1  0
 11 12  1  0
 10 11  1  1
 12 17  2  0
 13 14  2  0
 13 12  1  0
 14 15  1  0
 15 16  2  0
 17 16  1  0
 18 10  1  0
 18 19  2  0
 20 18  1  0
 21 20  1  0
 21 28  1  0
 21 22  1  6
 23 22  1  0
 24 23  2  0
 25 24  1  0
 26 25  1  0
 26 27  2  0
 27 23  1  0
 28 30  1  0
 29 28  2  0
M  END
$$$$
