DFH.pdb
     RDKit          3D

 30 31  0  0  1  0  0  0  0  0999 V2000
   22.0461  -10.9921  -18.1878 N   0  0  0  0  0  0  0  0  0  0  0  0
   21.0833   -9.9898  -18.7128 C   0  0  1  0  0  0  0  0  0  0  0  0
   19.9273  -10.7848  -19.2063 C   0  0  0  0  0  0  0  0  0  0  0  0
   20.1269  -11.6227  -20.3701 C   0  0  0  0  0  0  0  0  0  0  0  0
   19.4998  -12.6865  -20.5278 O   0  0  0  0  0  0  0  0  0  0  0  0
   20.7723   -9.0135  -17.6448 C   0  0  0  0  0  0  0  0  0  0  0  0
   19.8130   -9.1889  -16.8674 O   0  0  0  0  0  0  0  0  0  0  0  0
   21.0361  -11.2478  -21.3463 O   0  0  0  0  0  0  0  0  0  0  0  0
   21.5496   -7.8256  -17.4487 N   0  0  0  0  0  0  0  0  0  0  0  0
   21.3285   -6.9206  -16.3253 C   0  0  1  0  0  0  0  0  0  0  0  0
   22.5895   -6.6724  -15.5626 C   0  0  0  0  0  0  0  0  0  0  0  0
   23.1718   -7.8588  -14.9117 C   0  0  0  0  0  0  0  0  0  0  0  0
   24.3101   -8.4246  -15.4347 C   0  0  0  0  0  0  0  0  0  0  0  0
   24.8936   -9.5465  -14.8438 C   0  0  0  0  0  0  0  0  0  0  0  0
   24.3278  -10.1056  -13.7163 C   0  0  0  0  0  0  0  0  0  0  0  0
   23.1912   -9.5201  -13.2153 C   0  0  0  0  0  0  0  0  0  0  0  0
   22.6016   -8.4119  -13.7860 C   0  0  0  0  0  0  0  0  0  0  0  0
   20.7692   -5.6639  -16.8717 C   0  0  0  0  0  0  0  0  0  0  0  0
   21.2747   -5.1208  -17.8931 O   0  0  0  0  0  0  0  0  0  0  0  0
   19.6524   -5.0231  -16.2765 N   0  0  0  0  0  0  0  0  0  0  0  0
   19.2032   -3.7453  -16.8118 C   0  0  1  0  0  0  0  0  0  0  0  0
   17.7137   -3.8122  -17.0973 C   0  0  0  0  0  0  0  0  0  0  0  0
   17.1655   -2.5417  -17.6057 C   0  0  0  0  0  0  0  0  0  0  0  0
   17.2967   -1.9427  -18.8230 C   0  0  0  0  0  0  0  0  0  0  0  0
   16.6056   -0.7818  -18.7752 N   0  0  0  0  0  0  0  0  0  0  0  0
   16.0589   -0.6562  -17.5676 C   0  0  0  0  0  0  0  0  0  0  0  0
   16.3935   -1.7287  -16.8381 N   0  0  0  0  0  0  0  0  0  0  0  0
   19.4861   -2.6655  -15.8356 C   0  0  0  0  0  0  0  0  0  0  0  0
   19.5731   -1.4561  -16.1558 O   0  0  0  0  0  0  0  0  0  0  0  0
   19.6736   -2.9538  -14.4773 O   0  0  0  0  0  0  0  0  0  0  0  0
  2  1  1  1
  2  3  1  0
  4  5  2  0
  4  3  1  0
  6  2  1  0
  6  7  2  0
  8  4  1  0
  9  6  1  0
 10  9  1  0
 11 12  1  0
 10 11  1  6
 12 17  2  0
 13 14  2  0
 13 12  1  0
 14 15  1  0
 15 16  2  0
 17 16  1  0
 18 10  1  0
 18 19  2  0
 20 18  1  0
 21 20  1  0
 21 28  1  0
 21 22  1  1
 23 22  1  0
 24 23  2  0
 25 24  1  0
 26 25  1  0
 26 27  2  0
 27 23  1  0
 28 30  1  0
 29 28  2  0
M  END
$$$$
