DFH.pdb
     RDKit          3D

 30 31  0  0  1  0  0  0  0  0999 V2000
   30.1126  -21.5490  -12.2250 N   0  0  0  0  0  0  0  0  0  0  0  0
   29.0868  -20.4750  -12.2641 C   0  0  1  0  0  0  0  0  0  0  0  0
   28.6934  -20.3672  -13.6943 C   0  0  0  0  0  0  0  0  0  0  0  0
   28.2168  -19.0865  -14.1728 C   0  0  0  0  0  0  0  0  0  0  0  0
   28.8035  -18.0236  -13.8973 O   0  0  0  0  0  0  0  0  0  0  0  0
   27.9923  -20.8184  -11.3290 C   0  0  0  0  0  0  0  0  0  0  0  0
   27.4932  -21.9612  -11.3091 O   0  0  0  0  0  0  0  0  0  0  0  0
   27.0784  -19.0208  -14.9602 O   0  0  0  0  0  0  0  0  0  0  0  0
   27.4525  -19.8652  -10.4050 N   0  0  0  0  0  0  0  0  0  0  0  0
   26.2954  -20.1564   -9.5647 C   0  0  1  0  0  0  0  0  0  0  0  0
   26.1849  -19.1925   -8.4279 C   0  0  0  0  0  0  0  0  0  0  0  0
   27.0100  -19.5147   -7.2507 C   0  0  0  0  0  0  0  0  0  0  0  0
   26.7106  -20.6274   -6.5013 C   0  0  0  0  0  0  0  0  0  0  0  0
   27.4715  -20.9676   -5.3816 C   0  0  0  0  0  0  0  0  0  0  0  0
   28.5436  -20.1821   -5.0111 C   0  0  0  0  0  0  0  0  0  0  0  0
   28.8199  -19.0767   -5.7775 C   0  0  0  0  0  0  0  0  0  0  0  0
   28.0792  -18.7258   -6.8864 C   0  0  0  0  0  0  0  0  0  0  0  0
   25.0960  -20.1129  -10.4308 C   0  0  0  0  0  0  0  0  0  0  0  0
   24.9299  -19.1753  -11.2596 O   0  0  0  0  0  0  0  0  0  0  0  0
   24.0925  -21.1133  -10.3667 N   0  0  0  0  0  0  0  0  0  0  0  0
   22.9362  -21.0112  -11.2462 C   0  0  1  0  0  0  0  0  0  0  0  0
   22.6547  -22.3660  -11.8707 C   0  0  0  0  0  0  0  0  0  0  0  0
   21.4151  -22.3880  -12.6683 C   0  0  0  0  0  0  0  0  0  0  0  0
   20.4439  -21.4447  -12.8247 C   0  0  0  0  0  0  0  0  0  0  0  0
   19.5113  -21.9632  -13.6548 N   0  0  0  0  0  0  0  0  0  0  0  0
   19.8849  -23.1916  -14.0076 C   0  0  0  0  0  0  0  0  0  0  0  0
   21.0517  -23.4669  -13.4100 N   0  0  0  0  0  0  0  0  0  0  0  0
   21.7570  -20.5526  -10.4730 C   0  0  0  0  0  0  0  0  0  0  0  0
   21.6634  -20.6726   -9.2281 O   0  0  0  0  0  0  0  0  0  0  0  0
   20.6664  -19.9493  -11.1132 O   0  0  0  0  0  0  0  0  0  0  0  0
  2  1  1  6
  2  3  1  0
  4  5  2  0
  4  3  1  0
  6  2  1  0
  6  7  2  0
  8  4  1  0
  9  6  1  0
 10  9  1  0
 11 12  1  0
 10 11  1  1
 12 17  2  0
 13 14  2  0
 13 12  1  0
 14 15  1  0
 15 16  2  0
 17 16  1  0
 18 10  1  0
 18 19  2  0
 20 18  1  0
 21 20  1  0
 21 28  1  0
 21 22  1  1
 23 22  1  0
 24 23  2  0
 25 24  1  0
 26 25  1  0
 26 27  2  0
 27 23  1  0
 28 30  1  0
 29 28  2  0
M  END
$$$$
