MRK.pdb
     RDKit          3D

 29 28  0  0  1  0  0  0  0  0999 V2000
   19.6282  -26.3048  -15.3499 C   0  0  0  0  0  0  0  0  0  0  0  0
   17.8663  -25.9332  -15.4131 S   0  0  0  0  0  0  0  0  0  0  0  0
   17.4152  -24.5454  -14.3556 C   0  0  0  0  0  0  0  0  0  0  0  0
   18.1663  -23.2909  -14.6684 C   0  0  0  0  0  0  0  0  0  0  0  0
   19.2020  -22.9410  -13.6287 C   0  0  2  0  0  0  0  0  0  0  0  0
   18.5748  -22.6621  -12.3515 N   0  0  0  0  0  0  0  0  0  0  0  0
   20.0645  -21.8236  -14.0255 C   0  0  0  0  0  0  0  0  0  0  0  0
   19.5945  -20.6583  -14.1003 O   0  0  0  0  0  0  0  0  0  0  0  0
   28.6324  -21.8625  -14.9926 N   0  0  0  0  0  0  0  0  0  0  0  0
   27.5789  -22.1370  -15.9294 C   0  0  0  0  0  0  0  0  0  0  0  0
   27.8226  -22.9773  -16.8711 N   0  0  0  0  0  0  0  0  0  0  0  0
   26.3164  -21.5174  -15.8359 N   0  0  0  0  0  0  0  0  0  0  0  0
   26.0814  -20.5123  -14.8383 C   0  0  0  0  0  0  0  0  0  0  0  0
   24.6344  -20.0205  -14.8778 C   0  0  0  0  0  0  0  0  0  0  0  0
   23.7476  -21.2052  -14.5614 C   0  0  0  0  0  0  0  0  0  0  0  0
   22.2840  -20.8442  -14.6505 C   0  0  2  0  0  0  0  0  0  0  0  0
   21.4363  -21.9934  -14.3374 N   0  0  0  0  0  0  0  0  0  0  0  0
   22.0208  -20.3392  -16.0230 C   0  0  0  0  0  0  0  0  0  0  0  0
   21.8682  -21.1313  -16.9851 O   0  0  0  0  0  0  0  0  0  0  0  0
   27.0846  -23.2060  -17.5651 N   0  0  0  0  0  0  0  0  0  0  0  0
   21.9389  -18.9543  -16.2640 C   0  0  2  0  0  0  0  0  0  0  0  0
   21.6136  -18.4603  -17.6696 C   0  0  0  0  0  0  0  0  0  0  0  0
   20.9317  -17.1702  -17.5023 C   0  0  0  0  0  0  0  0  0  0  0  0
   20.3018  -16.4387  -18.5990 C   0  0  0  0  0  0  0  0  0  0  0  0
   19.5572  -15.2008  -18.3202 C   0  0  0  0  0  0  0  0  0  0  0  0
   18.9633  -14.7341  -19.6907 N   0  0  0  0  0  0  0  0  0  0  0  0
   18.1667  -13.5523  -19.4172 C   0  0  0  0  0  0  0  0  0  0  0  0
   22.8305  -18.5943  -18.4240 O   0  0  0  0  0  0  0  0  0  0  0  0
   22.8847  -18.7164  -19.6546 O   0  0  0  0  0  0  0  0  0  0  0  0
  2  1  1  0
  3  2  1  0
  4  3  1  0
  4  5  1  0
  5  7  1  0
  5  6  1  1
  7  8  2  0
  9 10  1  0
 10 12  1  0
 11 10  2  0
 12 13  1  0
 13 14  1  0
 14 15  1  0
 16 15  1  6
 17 16  1  0
 17  7  1  0
 18 19  2  0
 18 16  1  0
 20 18  1  0
 21 27  1  0
 21 20  1  0
 21 22  1  1
 23 22  1  0
 24 23  1  0
 25 24  1  0
 26 25  1  0
 27 29  1  0
 28 27  2  0
M  END
$$$$
