MRK.pdb
     RDKit          3D

 29 28  0  0  1  0  0  0  0  0999 V2000
   27.3757  -17.5922  -20.0654 C   0  0  0  0  0  0  0  0  0  0  0  0
   28.7545  -18.3236  -19.1653 S   0  0  0  0  0  0  0  0  0  0  0  0
   28.5716  -18.1706  -17.3790 C   0  0  0  0  0  0  0  0  0  0  0  0
   27.5213  -19.0698  -16.8098 C   0  0  0  0  0  0  0  0  0  0  0  0
   28.0875  -20.2881  -16.1233 C   0  0  2  0  0  0  0  0  0  0  0  0
   28.5376  -21.2642  -17.0963 N   0  0  0  0  0  0  0  0  0  0  0  0
   27.1513  -20.9067  -15.1794 C   0  0  0  0  0  0  0  0  0  0  0  0
   26.3936  -21.8374  -15.5592 O   0  0  0  0  0  0  0  0  0  0  0  0
   22.5864  -19.9613   -9.3033 N   0  0  0  0  0  0  0  0  0  0  0  0
   23.1037  -20.9228   -8.3703 C   0  0  0  0  0  0  0  0  0  0  0  0
   22.2607  -21.5410   -7.6224 N   0  0  0  0  0  0  0  0  0  0  0  0
   24.4830  -21.1928   -8.2639 N   0  0  0  0  0  0  0  0  0  0  0  0
   25.4007  -20.6290   -9.2129 C   0  0  0  0  0  0  0  0  0  0  0  0
   25.0948  -21.1094  -10.6317 C   0  0  0  0  0  0  0  0  0  0  0  0
   26.1852  -20.5729  -11.5335 C   0  0  0  0  0  0  0  0  0  0  0  0
   25.9723  -20.9859  -12.9703 C   0  0  2  0  0  0  0  0  0  0  0  0
   27.0535  -20.4993  -13.8257 N   0  0  0  0  0  0  0  0  0  0  0  0
   24.6570  -20.4516  -13.4091 C   0  0  0  0  0  0  0  0  0  0  0  0
   24.4324  -19.2163  -13.4213 O   0  0  0  0  0  0  0  0  0  0  0  0
   22.5993  -22.2074   -6.9012 N   0  0  0  0  0  0  0  0  0  0  0  0
   23.6370  -21.3313  -13.8199 C   0  0  2  0  0  0  0  0  0  0  0  0
   22.3270  -20.7581  -14.3498 C   0  0  0  0  0  0  0  0  0  0  0  0
   22.2239  -21.1975  -15.7476 C   0  0  0  0  0  0  0  0  0  0  0  0
   22.9814  -20.5972  -16.8433 C   0  0  0  0  0  0  0  0  0  0  0  0
   22.8506  -21.1379  -18.2052 C   0  0  0  0  0  0  0  0  0  0  0  0
   23.7947  -20.2750  -19.1068 N   0  0  0  0  0  0  0  0  0  0  0  0
   23.6501  -20.7778  -20.4603 C   0  0  0  0  0  0  0  0  0  0  0  0
   21.3299  -21.0838  -13.3662 O   0  0  0  0  0  0  0  0  0  0  0  0
   21.3822  -22.0621  -12.6097 O   0  0  0  0  0  0  0  0  0  0  0  0
  2  1  1  0
  3  2  1  0
  4  3  1  0
  4  5  1  0
  5  7  1  0
  5  6  1  6
  7  8  2  0
  9 10  1  0
 10 12  1  0
 11 10  2  0
 12 13  1  0
 13 14  1  0
 14 15  1  0
 16 15  1  1
 17 16  1  0
 17  7  1  0
 18 19  2  0
 18 16  1  0
 20 18  1  0
 21 27  1  0
 21 20  1  0
 21 22  1  6
 23 22  1  0
 24 23  1  0
 25 24  1  0
 26 25  1  0
 27 29  1  0
 28 27  2  0
M  END
$$$$
