MRK.pdb
     RDKit          3D

 29 28  0  0  1  0  0  0  0  0999 V2000
   23.6554  -18.4077  -19.5026 C   0  0  0  0  0  0  0  0  0  0  0  0
   24.3330  -20.0744  -19.5995 S   0  0  0  0  0  0  0  0  0  0  0  0
   25.2617  -20.5289  -18.1234 C   0  0  0  0  0  0  0  0  0  0  0  0
   25.9505  -21.8510  -18.2380 C   0  0  0  0  0  0  0  0  0  0  0  0
   25.0211  -22.9766  -18.6192 C   0  0  2  0  0  0  0  0  0  0  0  0
   23.8461  -22.9834  -17.7697 N   0  0  0  0  0  0  0  0  0  0  0  0
   25.6687  -24.2920  -18.6005 C   0  0  0  0  0  0  0  0  0  0  0  0
   26.8353  -24.4286  -19.0533 O   0  0  0  0  0  0  0  0  0  0  0  0
   31.4005  -25.7454  -15.1420 N   0  0  0  0  0  0  0  0  0  0  0  0
   30.8299  -25.0945  -16.2881 C   0  0  0  0  0  0  0  0  0  0  0  0
   31.3508  -23.9804  -16.6617 N   0  0  0  0  0  0  0  0  0  0  0  0
   29.7380  -25.6423  -16.9912 N   0  0  0  0  0  0  0  0  0  0  0  0
   29.2170  -26.9276  -16.6210 C   0  0  0  0  0  0  0  0  0  0  0  0
   28.0866  -27.3572  -17.5565 C   0  0  0  0  0  0  0  0  0  0  0  0
   26.8046  -26.7617  -17.0165 C   0  0  0  0  0  0  0  0  0  0  0  0
   25.7172  -26.7387  -18.0641 C   0  0  2  0  0  0  0  0  0  0  0  0
   25.0311  -25.4479  -18.0852 N   0  0  0  0  0  0  0  0  0  0  0  0
   24.7722  -27.8459  -17.7659 C   0  0  0  0  0  0  0  0  0  0  0  0
   23.9452  -27.7544  -16.8255 O   0  0  0  0  0  0  0  0  0  0  0  0
   30.9705  -23.4828  -17.4902 N   0  0  0  0  0  0  0  0  0  0  0  0
   24.7923  -29.0217  -18.5404 C   0  0  2  0  0  0  0  0  0  0  0  0
   23.7805  -30.1245  -18.2478 C   0  0  0  0  0  0  0  0  0  0  0  0
   24.1777  -30.7135  -16.9622 C   0  0  0  0  0  0  0  0  0  0  0  0
   23.7847  -32.0522  -16.5287 C   0  0  0  0  0  0  0  0  0  0  0  0
   22.7890  -32.2113  -15.4574 C   0  0  0  0  0  0  0  0  0  0  0  0
   22.5234  -33.7488  -15.3372 N   0  0  0  0  0  0  0  0  0  0  0  0
   21.6308  -33.9289  -14.2073 C   0  0  0  0  0  0  0  0  0  0  0  0
   22.4858  -29.5342  -18.4555 O   0  0  0  0  0  0  0  0  0  0  0  0
   22.2750  -28.5261  -19.1422 O   0  0  0  0  0  0  0  0  0  0  0  0
  2  1  1  0
  3  2  1  0
  4  3  1  0
  4  5  1  0
  5  7  1  0
  5  6  1  1
  7  8  2  0
  9 10  1  0
 10 12  1  0
 11 10  2  0
 12 13  1  0
 13 14  1  0
 14 15  1  0
 16 15  1  1
 17 16  1  0
 17  7  1  0
 18 19  2  0
 18 16  1  0
 20 18  1  0
 21 27  1  0
 21 20  1  0
 21 22  1  6
 23 22  1  0
 24 23  1  0
 25 24  1  0
 26 25  1  0
 27 29  1  0
 28 27  2  0
M  END
$$$$
