MRK.pdb
     RDKit          3D

 29 28  0  0  1  0  0  0  0  0999 V2000
   17.8590  -24.6957  -15.2463 C   0  0  0  0  0  0  0  0  0  0  0  0
   17.2887  -23.0345  -15.6480 S   0  0  0  0  0  0  0  0  0  0  0  0
   18.0575  -21.7725  -14.6165 C   0  0  0  0  0  0  0  0  0  0  0  0
   18.5857  -22.3032  -13.3223 C   0  0  0  0  0  0  0  0  0  0  0  0
   19.1949  -21.2377  -12.4450 C   0  0  2  0  0  0  0  0  0  0  0  0
   18.2346  -20.1867  -12.1703 N   0  0  0  0  0  0  0  0  0  0  0  0
   20.4269  -20.6676  -12.9992 C   0  0  0  0  0  0  0  0  0  0  0  0
   20.4403  -19.4818  -13.4213 O   0  0  0  0  0  0  0  0  0  0  0  0
   26.4026  -24.2226  -15.9694 N   0  0  0  0  0  0  0  0  0  0  0  0
   27.3439  -23.1503  -15.8056 C   0  0  0  0  0  0  0  0  0  0  0  0
   28.1357  -22.8973  -16.7861 N   0  0  0  0  0  0  0  0  0  0  0  0
   27.4121  -22.3912  -14.6200 N   0  0  0  0  0  0  0  0  0  0  0  0
   26.3150  -22.4041  -13.6945 C   0  0  0  0  0  0  0  0  0  0  0  0
   25.1297  -21.6003  -14.2295 C   0  0  0  0  0  0  0  0  0  0  0  0
   24.0814  -21.5639  -13.1388 C   0  0  0  0  0  0  0  0  0  0  0  0
   22.8660  -20.7736  -13.5613 C   0  0  2  0  0  0  0  0  0  0  0  0
   21.6350  -21.4032  -13.0861 N   0  0  0  0  0  0  0  0  0  0  0  0
   22.8806  -20.6707  -15.0435 C   0  0  0  0  0  0  0  0  0  0  0  0
   22.5353  -21.6406  -15.7624 O   0  0  0  0  0  0  0  0  0  0  0  0
   28.8026  -22.1036  -16.7218 N   0  0  0  0  0  0  0  0  0  0  0  0
   23.2856  -19.4744  -15.6662 C   0  0  2  0  0  0  0  0  0  0  0  0
   23.1862  -19.3528  -17.1830 C   0  0  0  0  0  0  0  0  0  0  0  0
   22.9947  -17.9245  -17.4673 C   0  0  0  0  0  0  0  0  0  0  0  0
   21.6987  -17.3280  -17.7821 C   0  0  0  0  0  0  0  0  0  0  0  0
   21.6151  -15.9004  -18.1277 C   0  0  0  0  0  0  0  0  0  0  0  0
   20.1029  -15.6094  -18.4056 N   0  0  0  0  0  0  0  0  0  0  0  0
   20.0087  -14.2057  -18.7614 C   0  0  0  0  0  0  0  0  0  0  0  0
   24.2966  -20.0992  -17.7100 O   0  0  0  0  0  0  0  0  0  0  0  0
   25.4228  -20.1394  -17.1979 O   0  0  0  0  0  0  0  0  0  0  0  0
  2  1  1  0
  3  2  1  0
  4  3  1  0
  4  5  1  0
  5  7  1  0
  5  6  1  6
  7  8  2  0
  9 10  1  0
 10 12  1  0
 11 10  2  0
 12 13  1  0
 13 14  1  0
 14 15  1  0
 16 15  1  6
 17 16  1  0
 17  7  1  0
 18 19  2  0
 18 16  1  0
 20 18  1  0
 21 27  1  0
 21 20  1  0
 21 22  1  1
 23 22  1  0
 24 23  1  0
 25 24  1  0
 26 25  1  0
 27 29  1  0
 28 27  2  0
M  END
$$$$
