MRK.pdb
     RDKit          3D

 29 28  0  0  1  0  0  0  0  0999 V2000
   21.4177  -20.1553   -6.9369 C   0  0  0  0  0  0  0  0  0  0  0  0
   22.2139  -21.7663   -7.0676 S   0  0  0  0  0  0  0  0  0  0  0  0
   23.8737  -21.6616   -7.7619 C   0  0  0  0  0  0  0  0  0  0  0  0
   23.9147  -21.0142   -9.1091 C   0  0  0  0  0  0  0  0  0  0  0  0
   25.2986  -20.9717   -9.7083 C   0  0  2  0  0  0  0  0  0  0  0  0
   26.2100  -20.2440   -8.8469 N   0  0  0  0  0  0  0  0  0  0  0  0
   25.3246  -20.4117  -11.0632 C   0  0  0  0  0  0  0  0  0  0  0  0
   25.3503  -19.1644  -11.2311 O   0  0  0  0  0  0  0  0  0  0  0  0
   27.6642  -21.7903  -19.0371 N   0  0  0  0  0  0  0  0  0  0  0  0
   27.6988  -22.4576  -17.7658 C   0  0  0  0  0  0  0  0  0  0  0  0
   27.2064  -23.6432  -17.7013 N   0  0  0  0  0  0  0  0  0  0  0  0
   28.2490  -21.8509  -16.6188 N   0  0  0  0  0  0  0  0  0  0  0  0
   28.1268  -22.4899  -15.3392 C   0  0  0  0  0  0  0  0  0  0  0  0
   27.5131  -21.5458  -14.3051 C   0  0  0  0  0  0  0  0  0  0  0  0
   26.0214  -21.5109  -14.5568 C   0  0  0  0  0  0  0  0  0  0  0  0
   25.3092  -20.6291  -13.5590 C   0  0  2  0  0  0  0  0  0  0  0  0
   25.3221  -21.2247  -12.2239 N   0  0  0  0  0  0  0  0  0  0  0  0
   23.9195  -20.4220  -14.0426 C   0  0  0  0  0  0  0  0  0  0  0  0
   22.9791  -21.1489  -13.6381 O   0  0  0  0  0  0  0  0  0  0  0  0
   27.1376  -24.1264  -16.7846 N   0  0  0  0  0  0  0  0  0  0  0  0
   23.6374  -19.3994  -14.9687 C   0  0  2  0  0  0  0  0  0  0  0  0
   22.1851  -19.0793  -15.3062 C   0  0  0  0  0  0  0  0  0  0  0  0
   22.1226  -17.6257  -15.5074 C   0  0  0  0  0  0  0  0  0  0  0  0
   20.8801  -16.8927  -15.7386 C   0  0  0  0  0  0  0  0  0  0  0  0
   20.9194  -15.4395  -15.9648 C   0  0  0  0  0  0  0  0  0  0  0  0
   19.4505  -15.0121  -16.2938 N   0  0  0  0  0  0  0  0  0  0  0  0
   19.4583  -13.5670  -16.4267 C   0  0  0  0  0  0  0  0  0  0  0  0
   21.8052  -20.0141  -16.3308 O   0  0  0  0  0  0  0  0  0  0  0  0
   22.5892  -20.5272  -17.1397 O   0  0  0  0  0  0  0  0  0  0  0  0
  2  1  1  0
  3  2  1  0
  4  3  1  0
  4  5  1  0
  5  7  1  0
  5  6  1  1
  7  8  2  0
  9 10  1  0
 10 12  1  0
 11 10  2  0
 12 13  1  0
 13 14  1  0
 14 15  1  0
 16 15  1  6
 17 16  1  0
 17  7  1  0
 18 19  2  0
 18 16  1  0
 20 18  1  0
 21 27  1  0
 21 20  1  0
 21 22  1  1
 23 22  1  0
 24 23  1  0
 25 24  1  0
 26 25  1  0
 27 29  1  0
 28 27  2  0
M  END
$$$$
