MRK.pdb
     RDKit          3D

 29 28  0  0  1  0  0  0  0  0999 V2000
   21.6784  -19.6200   -7.5325 C   0  0  0  0  0  0  0  0  0  0  0  0
   22.9253  -20.7468   -6.8828 S   0  0  0  0  0  0  0  0  0  0  0  0
   24.3279  -20.9412   -7.9976 C   0  0  0  0  0  0  0  0  0  0  0  0
   24.0002  -20.6362   -9.4242 C   0  0  0  0  0  0  0  0  0  0  0  0
   25.1722  -20.8160  -10.3569 C   0  0  2  0  0  0  0  0  0  0  0  0
   26.2609  -19.9309   -9.9914 N   0  0  0  0  0  0  0  0  0  0  0  0
   24.8207  -20.6323  -11.7686 C   0  0  0  0  0  0  0  0  0  0  0  0
   24.7217  -19.4732  -12.2494 O   0  0  0  0  0  0  0  0  0  0  0  0
   28.0484  -21.3978  -18.0659 N   0  0  0  0  0  0  0  0  0  0  0  0
   28.0956  -22.3951  -17.0335 C   0  0  0  0  0  0  0  0  0  0  0  0
   29.2342  -22.6336  -16.4867 N   0  0  0  0  0  0  0  0  0  0  0  0
   26.9454  -23.0975  -16.6208 N   0  0  0  0  0  0  0  0  0  0  0  0
   25.6894  -22.8680  -17.2769 C   0  0  0  0  0  0  0  0  0  0  0  0
   24.7699  -21.9950  -16.4227 C   0  0  0  0  0  0  0  0  0  0  0  0
   25.0906  -22.2873  -14.9730 C   0  0  0  0  0  0  0  0  0  0  0  0
   24.2058  -21.4987  -14.0374 C   0  0  2  0  0  0  0  0  0  0  0  0
   24.5805  -21.7220  -12.6420 N   0  0  0  0  0  0  0  0  0  0  0  0
   22.7987  -21.9048  -14.2886 C   0  0  0  0  0  0  0  0  0  0  0  0
   22.3301  -22.9565  -13.7877 O   0  0  0  0  0  0  0  0  0  0  0  0
   29.3203  -23.3869  -15.7769 N   0  0  0  0  0  0  0  0  0  0  0  0
   21.9660  -21.1089  -15.0985 C   0  0  2  0  0  0  0  0  0  0  0  0
   20.5093  -21.5148  -15.2957 C   0  0  0  0  0  0  0  0  0  0  0  0
   19.8508  -20.3734  -15.9447 C   0  0  0  0  0  0  0  0  0  0  0  0
   19.2628  -19.2541  -15.2126 C   0  0  0  0  0  0  0  0  0  0  0  0
   18.5853  -18.1746  -15.9475 C   0  0  0  0  0  0  0  0  0  0  0  0
   18.1178  -17.1424  -14.8683 N   0  0  0  0  0  0  0  0  0  0  0  0
   19.1462  -16.1209  -14.7977 C   0  0  0  0  0  0  0  0  0  0  0  0
   20.5438  -22.8230  -15.8919 O   0  0  0  0  0  0  0  0  0  0  0  0
   21.4257  -23.2202  -16.6643 O   0  0  0  0  0  0  0  0  0  0  0  0
  2  1  1  0
  3  2  1  0
  4  3  1  0
  4  5  1  0
  5  7  1  0
  5  6  1  1
  7  8  2  0
  9 10  1  0
 10 12  1  0
 11 10  2  0
 12 13  1  0
 13 14  1  0
 14 15  1  0
 16 15  1  6
 17 16  1  0
 17  7  1  0
 18 19  2  0
 18 16  1  0
 20 18  1  0
 21 27  1  0
 21 20  1  0
 21 22  1  1
 23 22  1  0
 24 23  1  0
 25 24  1  0
 26 25  1  0
 27 29  1  0
 28 27  2  0
M  END
$$$$
