MRK.pdb
     RDKit          3D

 29 28  0  0  1  0  0  0  0  0999 V2000
   28.9186  -19.1303   -7.1676 C   0  0  0  0  0  0  0  0  0  0  0  0
   27.7695  -19.8554   -5.9843 S   0  0  0  0  0  0  0  0  0  0  0  0
   26.5067  -20.8661   -6.7790 C   0  0  0  0  0  0  0  0  0  0  0  0
   26.7367  -21.0621   -8.2433 C   0  0  0  0  0  0  0  0  0  0  0  0
   25.8947  -20.1549   -9.1059 C   0  0  2  0  0  0  0  0  0  0  0  0
   24.5089  -20.1813   -8.6803 N   0  0  0  0  0  0  0  0  0  0  0  0
   25.9924  -20.4631  -10.5361 C   0  0  0  0  0  0  0  0  0  0  0  0
   27.1208  -20.5720  -11.0834 O   0  0  0  0  0  0  0  0  0  0  0  0
   20.8431  -24.5009  -16.4918 N   0  0  0  0  0  0  0  0  0  0  0  0
   21.9430  -23.9680  -17.2461 C   0  0  0  0  0  0  0  0  0  0  0  0
   21.9703  -24.2054  -18.5091 N   0  0  0  0  0  0  0  0  0  0  0  0
   22.9652  -23.2093  -16.6411 N   0  0  0  0  0  0  0  0  0  0  0  0
   22.9397  -22.9686  -15.2262 C   0  0  0  0  0  0  0  0  0  0  0  0
   24.0781  -22.0406  -14.8018 C   0  0  0  0  0  0  0  0  0  0  0  0
   23.9555  -21.8316  -13.3081 C   0  0  0  0  0  0  0  0  0  0  0  0
   24.9853  -20.8526  -12.7967 C   0  0  2  0  0  0  0  0  0  0  0  0
   24.8511  -20.6495  -11.3551 N   0  0  0  0  0  0  0  0  0  0  0  0
   24.8109  -19.5771  -13.5386 C   0  0  0  0  0  0  0  0  0  0  0  0
   23.9007  -18.7690  -13.2303 O   0  0  0  0  0  0  0  0  0  0  0  0
   22.7494  -23.8370  -19.0887 N   0  0  0  0  0  0  0  0  0  0  0  0
   25.6712  -19.2557  -14.6061 C   0  0  2  0  0  0  0  0  0  0  0  0
   25.4503  -17.9587  -15.3771 C   0  0  0  0  0  0  0  0  0  0  0  0
   26.7833  -17.4863  -15.7737 C   0  0  0  0  0  0  0  0  0  0  0  0
   27.0147  -16.2640  -16.5398 C   0  0  0  0  0  0  0  0  0  0  0  0
   28.3830  -15.8979  -16.9374 C   0  0  0  0  0  0  0  0  0  0  0  0
   28.2749  -14.4948  -17.6217 N   0  0  0  0  0  0  0  0  0  0  0  0
   29.6231  -14.1109  -17.9971 C   0  0  0  0  0  0  0  0  0  0  0  0
   24.4187  -18.2441  -16.3374 O   0  0  0  0  0  0  0  0  0  0  0  0
   24.6063  -18.8061  -17.4243 O   0  0  0  0  0  0  0  0  0  0  0  0
  2  1  1  0
  3  2  1  0
  4  3  1  0
  4  5  1  0
  5  7  1  0
  5  6  1  1
  7  8  2  0
  9 10  1  0
 10 12  1  0
 11 10  2  0
 12 13  1  0
 13 14  1  0
 14 15  1  0
 16 15  1  6
 17 16  1  0
 17  7  1  0
 18 19  2  0
 18 16  1  0
 20 18  1  0
 21 27  1  0
 21 20  1  0
 21 22  1  1
 23 22  1  0
 24 23  1  0
 25 24  1  0
 26 25  1  0
 27 29  1  0
 28 27  2  0
M  END
$$$$
