MRK.pdb
     RDKit          3D

 29 28  0  0  1  0  0  0  0  0999 V2000
   26.3442  -16.7118  -18.5054 C   0  0  0  0  0  0  0  0  0  0  0  0
   28.0589  -17.1306  -18.8667 S   0  0  0  0  0  0  0  0  0  0  0  0
   28.6006  -18.6211  -18.0106 C   0  0  0  0  0  0  0  0  0  0  0  0
   27.5496  -19.2149  -17.1282 C   0  0  0  0  0  0  0  0  0  0  0  0
   28.0236  -20.4311  -16.3717 C   0  0  2  0  0  0  0  0  0  0  0  0
   28.4049  -21.4895  -17.2864 N   0  0  0  0  0  0  0  0  0  0  0  0
   27.0419  -20.9274  -15.4022 C   0  0  0  0  0  0  0  0  0  0  0  0
   26.2219  -21.8226  -15.7350 O   0  0  0  0  0  0  0  0  0  0  0  0
   22.6369  -19.9659   -9.5623 N   0  0  0  0  0  0  0  0  0  0  0  0
   23.1934  -20.7832   -8.5205 C   0  0  0  0  0  0  0  0  0  0  0  0
   22.3818  -21.2877   -7.6609 N   0  0  0  0  0  0  0  0  0  0  0  0
   24.5771  -21.0347   -8.4277 N   0  0  0  0  0  0  0  0  0  0  0  0
   25.4736  -20.4915   -9.4084 C   0  0  0  0  0  0  0  0  0  0  0  0
   25.0765  -20.9224  -10.8205 C   0  0  0  0  0  0  0  0  0  0  0  0
   26.1512  -20.4241  -11.7621 C   0  0  0  0  0  0  0  0  0  0  0  0
   25.8698  -20.8261  -13.1903 C   0  0  2  0  0  0  0  0  0  0  0  0
   26.9672  -20.4373  -14.0746 N   0  0  0  0  0  0  0  0  0  0  0  0
   24.5939  -20.1855  -13.6022 C   0  0  0  0  0  0  0  0  0  0  0  0
   24.4996  -18.9374  -13.7013 O   0  0  0  0  0  0  0  0  0  0  0  0
   22.7496  -21.8509   -6.8696 N   0  0  0  0  0  0  0  0  0  0  0  0
   23.4648  -20.9767  -13.8887 C   0  0  2  0  0  0  0  0  0  0  0  0
   22.1875  -20.3031  -14.3788 C   0  0  0  0  0  0  0  0  0  0  0  0
   21.4434  -21.3285  -15.1220 C   0  0  0  0  0  0  0  0  0  0  0  0
   20.1296  -21.1022  -15.7197 C   0  0  0  0  0  0  0  0  0  0  0  0
   19.4415  -22.2029  -16.4119 C   0  0  0  0  0  0  0  0  0  0  0  0
   18.0764  -21.6186  -16.9056 N   0  0  0  0  0  0  0  0  0  0  0  0
   17.3892  -22.6946  -17.5955 C   0  0  0  0  0  0  0  0  0  0  0  0
   21.6347  -19.6304  -13.2343 O   0  0  0  0  0  0  0  0  0  0  0  0
   21.7095  -20.0463  -12.0708 O   0  0  0  0  0  0  0  0  0  0  0  0
  2  1  1  0
  3  2  1  0
  4  3  1  0
  4  5  1  0
  5  7  1  0
  5  6  1  6
  7  8  2  0
  9 10  1  0
 10 12  1  0
 11 10  2  0
 12 13  1  0
 13 14  1  0
 14 15  1  0
 16 15  1  1
 17 16  1  0
 17  7  1  0
 18 19  2  0
 18 16  1  0
 20 18  1  0
 21 27  1  0
 21 20  1  0
 21 22  1  6
 23 22  1  0
 24 23  1  0
 25 24  1  0
 26 25  1  0
 27 29  1  0
 28 27  2  0
M  END
$$$$
