HPN.pdb
     RDKit          3D

 26 27  0  0  1  0  0  0  0  0999 V2000
   10.8022  -15.4260   16.3760 N   0  0  0  0  0  0  0  0  0  0  0  0
    9.6250  -14.9825   17.0475 C   0  0  1  0  0  0  0  0  0  0  0  0
    8.5180  -15.9729   16.7865 C   0  0  0  0  0  0  0  0  0  0  0  0
    8.1230  -15.9677   15.3475 C   0  0  0  0  0  0  0  0  0  0  0  0
    8.3837  -14.9933   14.4045 C   0  0  0  0  0  0  0  0  0  0  0  0
    7.8512  -15.3847   13.2361 N   0  0  0  0  0  0  0  0  0  0  0  0
    7.2574  -16.5793   13.4009 C   0  0  0  0  0  0  0  0  0  0  0  0
    7.4337  -16.9154   14.6888 N   0  0  0  0  0  0  0  0  0  0  0  0
    9.7957  -14.8755   18.5373 C   0  0  0  0  0  0  0  0  0  0  0  0
   10.6450  -15.6384   19.0941 O   0  0  0  0  0  0  0  0  0  0  0  0
    9.0543  -13.9676   19.3332 N   0  0  0  0  0  0  0  0  0  0  0  0
    8.1928  -12.9382   18.8118 C   0  0  0  0  0  0  0  0  0  0  0  0
    7.6370  -12.1699   19.9856 C   0  0  0  0  0  0  0  0  0  0  0  0
    7.9286  -13.0045   21.2044 C   0  0  0  0  0  0  0  0  0  0  0  0
    9.0383  -13.9179   20.7487 C   0  0  1  0  0  0  0  0  0  0  0  0
    8.7682  -15.2400   21.3822 C   0  0  0  0  0  0  0  0  0  0  0  0
    7.9661  -16.0752   20.9472 O   0  0  0  0  0  0  0  0  0  0  0  0
    9.4976  -19.4883   22.4651 N   0  0  0  0  0  0  0  0  0  0  0  0
   10.4745  -18.8672   21.6185 C   0  0  0  0  0  0  0  0  0  0  0  0
   11.0118  -19.6052   20.7634 O   0  0  0  0  0  0  0  0  0  0  0  0
   10.7593  -17.4404   21.8210 C   0  0  0  0  0  0  0  0  0  0  0  0
    9.9320  -16.8648   22.9481 C   0  0  2  0  0  0  0  0  0  0  0  0
    9.4992  -15.5267   22.5639 N   0  0  0  0  0  0  0  0  0  0  0  0
   10.6871  -16.8563   24.2075 C   0  0  0  0  0  0  0  0  0  0  0  0
   10.2190  -17.5292   25.3145 O   0  0  0  0  0  0  0  0  0  0  0  0
   11.7653  -16.2340   24.2805 O   0  0  0  0  0  0  0  0  0  0  0  0
  2  1  1  6
  2  9  1  0
  3  2  1  0
  4  8  1  0
  4  3  1  0
  5  4  2  0
  6  5  1  0
  6  7  1  0
  7  8  2  0
  9 11  1  0
 10  9  2  0
 11 15  1  0
 11 12  1  0
 12 13  1  0
 14 13  1  0
 15 14  1  0
 16 23  1  0
 15 16  1  1
 17 16  2  0
 18 19  1  0
 19 20  2  0
 21 19  1  0
 22 21  1  6
 22 23  1  0
 22 24  1  0
 24 25  1  0
 26 24  2  0
M  END
$$$$
