HPN.pdb
     RDKit          3D

 26 27  0  0  1  0  0  0  0  0999 V2000
   10.2396  -14.1905   20.6611 N   0  0  0  0  0  0  0  0  0  0  0  0
    9.0107  -14.1700   21.3842 C   0  0  1  0  0  0  0  0  0  0  0  0
    8.0150  -15.0487   20.6696 C   0  0  0  0  0  0  0  0  0  0  0  0
    7.7015  -14.5099   19.3138 C   0  0  0  0  0  0  0  0  0  0  0  0
    8.1838  -13.3537   18.7330 C   0  0  0  0  0  0  0  0  0  0  0  0
    7.6489  -13.2434   17.5068 N   0  0  0  0  0  0  0  0  0  0  0  0
    6.8390  -14.2927   17.2836 C   0  0  0  0  0  0  0  0  0  0  0  0
    6.8848  -15.0491   18.3920 N   0  0  0  0  0  0  0  0  0  0  0  0
    9.1407  -14.6836   22.7911 C   0  0  0  0  0  0  0  0  0  0  0  0
   10.0852  -15.4949   23.0423 O   0  0  0  0  0  0  0  0  0  0  0  0
    8.2607  -14.3016   23.8338 N   0  0  0  0  0  0  0  0  0  0  0  0
    7.1471  -13.4024   23.6756 C   0  0  0  0  0  0  0  0  0  0  0  0
    6.5054  -13.2272   25.0300 C   0  0  0  0  0  0  0  0  0  0  0  0
    7.0673  -14.3196   25.9006 C   0  0  0  0  0  0  0  0  0  0  0  0
    8.3285  -14.7288   25.1826 C   0  0  1  0  0  0  0  0  0  0  0  0
    8.4220  -16.2094   25.3284 C   0  0  0  0  0  0  0  0  0  0  0  0
    7.5766  -17.0099   24.9105 O   0  0  0  0  0  0  0  0  0  0  0  0
   12.3097  -17.6654   23.9684 N   0  0  0  0  0  0  0  0  0  0  0  0
   11.2298  -18.4524   24.4892 C   0  0  0  0  0  0  0  0  0  0  0  0
   10.4791  -18.9865   23.6434 O   0  0  0  0  0  0  0  0  0  0  0  0
   11.0958  -18.5649   25.9478 C   0  0  0  0  0  0  0  0  0  0  0  0
    9.7416  -18.0847   26.4186 C   0  0  2  0  0  0  0  0  0  0  0  0
    9.5732  -16.6991   25.9977 N   0  0  0  0  0  0  0  0  0  0  0  0
    9.6025  -18.2368   27.8724 C   0  0  0  0  0  0  0  0  0  0  0  0
    9.5986  -19.4858   28.4533 O   0  0  0  0  0  0  0  0  0  0  0  0
    9.4863  -17.2263   28.5939 O   0  0  0  0  0  0  0  0  0  0  0  0
  2  1  1  6
  2  9  1  0
  3  2  1  0
  4  8  1  0
  4  3  1  0
  5  4  2  0
  6  5  1  0
  6  7  1  0
  7  8  2  0
  9 11  1  0
 10  9  2  0
 11 15  1  0
 11 12  1  0
 12 13  1  0
 14 13  1  0
 15 14  1  0
 16 23  1  0
 15 16  1  6
 17 16  2  0
 18 19  1  0
 19 20  2  0
 21 19  1  0
 22 21  1  1
 22 23  1  0
 22 24  1  0
 24 25  1  0
 26 24  2  0
M  END
$$$$
