HPN.pdb
     RDKit          3D

 26 27  0  0  1  0  0  0  0  0999 V2000
    7.3117  -13.7994   20.6654 N   0  0  0  0  0  0  0  0  0  0  0  0
    8.1815  -14.9138   20.8528 C   0  0  1  0  0  0  0  0  0  0  0  0
    9.3726  -14.7553   19.9416 C   0  0  0  0  0  0  0  0  0  0  0  0
    8.9416  -14.5254   18.5316 C   0  0  0  0  0  0  0  0  0  0  0  0
    8.2425  -13.4462   18.0283 C   0  0  0  0  0  0  0  0  0  0  0  0
    8.0622  -13.6378   16.7121 N   0  0  0  0  0  0  0  0  0  0  0  0
    8.6238  -14.8060   16.3560 C   0  0  0  0  0  0  0  0  0  0  0  0
    9.1518  -15.3288   17.4744 N   0  0  0  0  0  0  0  0  0  0  0  0
    8.6992  -15.0333   22.2591 C   0  0  0  0  0  0  0  0  0  0  0  0
    9.7470  -15.7257   22.4493 O   0  0  0  0  0  0  0  0  0  0  0  0
    8.0706  -14.4109   23.3658 N   0  0  0  0  0  0  0  0  0  0  0  0
    6.9997  -13.4533   23.2656 C   0  0  0  0  0  0  0  0  0  0  0  0
    6.6556  -13.0049   24.6646 C   0  0  0  0  0  0  0  0  0  0  0  0
    7.3201  -13.9879   25.5915 C   0  0  0  0  0  0  0  0  0  0  0  0
    8.3855  -14.6187   24.7310 C   0  0  1  0  0  0  0  0  0  0  0  0
    8.4241  -16.0586   25.1149 C   0  0  0  0  0  0  0  0  0  0  0  0
    7.7642  -16.9488   24.5649 O   0  0  0  0  0  0  0  0  0  0  0  0
   12.4719  -19.7649   25.3817 N   0  0  0  0  0  0  0  0  0  0  0  0
   11.0499  -19.5793   25.3995 C   0  0  0  0  0  0  0  0  0  0  0  0
   10.3617  -20.6094   25.5711 O   0  0  0  0  0  0  0  0  0  0  0  0
   10.5270  -18.2185   25.2178 C   0  0  0  0  0  0  0  0  0  0  0  0
    9.7811  -17.7432   26.4441 C   0  0  2  0  0  0  0  0  0  0  0  0
    9.2880  -16.3953   26.1887 N   0  0  0  0  0  0  0  0  0  0  0  0
   10.6356  -17.7977   27.6371 C   0  0  0  0  0  0  0  0  0  0  0  0
   10.5909  -18.8804   28.4873 O   0  0  0  0  0  0  0  0  0  0  0  0
   11.4124  -16.8548   27.8875 O   0  0  0  0  0  0  0  0  0  0  0  0
  2  1  1  1
  2  9  1  0
  3  2  1  0
  4  8  1  0
  4  3  1  0
  5  4  2  0
  6  5  1  0
  6  7  1  0
  7  8  2  0
  9 11  1  0
 10  9  2  0
 11 15  1  0
 11 12  1  0
 12 13  1  0
 14 13  1  0
 15 14  1  0
 16 23  1  0
 15 16  1  6
 17 16  2  0
 18 19  1  0
 19 20  2  0
 21 19  1  0
 22 21  1  6
 22 23  1  0
 22 24  1  0
 24 25  1  0
 26 24  2  0
M  END
$$$$
