HPN.pdb
     RDKit          3D

 26 27  0  0  1  0  0  0  0  0999 V2000
   10.7923  -15.7127   16.0476 N   0  0  0  0  0  0  0  0  0  0  0  0
    9.5757  -15.4012   16.7230 C   0  0  1  0  0  0  0  0  0  0  0  0
    8.6054  -16.5375   16.5192 C   0  0  0  0  0  0  0  0  0  0  0  0
    8.2268  -16.6671   15.0816 C   0  0  0  0  0  0  0  0  0  0  0  0
    7.6160  -15.7219   14.2815 C   0  0  0  0  0  0  0  0  0  0  0  0
    7.4563  -16.2468   13.0564 N   0  0  0  0  0  0  0  0  0  0  0  0
    7.9456  -17.4987   13.0464 C   0  0  0  0  0  0  0  0  0  0  0  0
    8.4083  -17.7343   14.2846 N   0  0  0  0  0  0  0  0  0  0  0  0
    9.7499  -15.2142   18.2045 C   0  0  0  0  0  0  0  0  0  0  0  0
   10.5845  -15.9614   18.8034 O   0  0  0  0  0  0  0  0  0  0  0  0
    9.0277  -14.2483   18.9481 N   0  0  0  0  0  0  0  0  0  0  0  0
    8.0629  -13.3383   18.3869 C   0  0  0  0  0  0  0  0  0  0  0  0
    7.5669  -12.4528   19.5035 C   0  0  0  0  0  0  0  0  0  0  0  0
    8.0143  -13.1076   20.7833 C   0  0  0  0  0  0  0  0  0  0  0  0
    9.1331  -14.0169   20.3416 C   0  0  1  0  0  0  0  0  0  0  0  0
    9.0002  -15.2575   21.1572 C   0  0  0  0  0  0  0  0  0  0  0  0
    8.1443  -16.1310   20.9707 O   0  0  0  0  0  0  0  0  0  0  0  0
   12.9887  -17.1432   21.1304 N   0  0  0  0  0  0  0  0  0  0  0  0
   11.7685  -17.6175   21.7160 C   0  0  0  0  0  0  0  0  0  0  0  0
   11.1033  -18.4226   21.0277 O   0  0  0  0  0  0  0  0  0  0  0  0
   11.4059  -17.1278   23.0527 C   0  0  0  0  0  0  0  0  0  0  0  0
    9.9953  -16.5840   23.0798 C   0  0  2  0  0  0  0  0  0  0  0  0
    9.9366  -15.4145   22.2115 N   0  0  0  0  0  0  0  0  0  0  0  0
    9.5758  -16.2702   24.4516 C   0  0  0  0  0  0  0  0  0  0  0  0
    9.3191  -14.9709   24.8303 O   0  0  0  0  0  0  0  0  0  0  0  0
    9.4491  -17.1873   25.2870 O   0  0  0  0  0  0  0  0  0  0  0  0
  2  1  1  6
  2  9  1  0
  3  2  1  0
  4  8  1  0
  4  3  1  0
  5  4  2  0
  6  5  1  0
  6  7  1  0
  7  8  2  0
  9 11  1  0
 10  9  2  0
 11 15  1  0
 11 12  1  0
 12 13  1  0
 14 13  1  0
 15 14  1  0
 16 23  1  0
 15 16  1  1
 17 16  2  0
 18 19  1  0
 19 20  2  0
 21 19  1  0
 22 21  1  1
 22 23  1  0
 22 24  1  0
 24 25  1  0
 26 24  2  0
M  END
$$$$
