HPN.pdb
     RDKit          3D

 26 27  0  0  1  0  0  0  0  0999 V2000
   10.8824  -15.4426   16.3168 N   0  0  0  0  0  0  0  0  0  0  0  0
    9.6831  -15.0716   16.9930 C   0  0  1  0  0  0  0  0  0  0  0  0
    8.6371  -16.1270   16.7356 C   0  0  0  0  0  0  0  0  0  0  0  0
    8.3025  -16.2064   15.2835 C   0  0  0  0  0  0  0  0  0  0  0  0
    8.0048  -15.1642   14.4280 C   0  0  0  0  0  0  0  0  0  0  0  0
    7.7650  -15.6745   13.2099 N   0  0  0  0  0  0  0  0  0  0  0  0
    7.8997  -17.0111   13.2579 C   0  0  0  0  0  0  0  0  0  0  0  0
    8.2259  -17.3135   14.5248 N   0  0  0  0  0  0  0  0  0  0  0  0
    9.8525  -14.9551   18.4823 C   0  0  0  0  0  0  0  0  0  0  0  0
   10.7612  -15.6513   19.0329 O   0  0  0  0  0  0  0  0  0  0  0  0
    9.0473  -14.1090   19.2843 N   0  0  0  0  0  0  0  0  0  0  0  0
    8.0895  -13.1643   18.7704 C   0  0  0  0  0  0  0  0  0  0  0  0
    7.4878  -12.4376   19.9479 C   0  0  0  0  0  0  0  0  0  0  0  0
    7.8724  -13.2322   21.1676 C   0  0  0  0  0  0  0  0  0  0  0  0
    9.0507  -14.0482   20.6994 C   0  0  1  0  0  0  0  0  0  0  0  0
    8.9092  -15.3832   21.3474 C   0  0  0  0  0  0  0  0  0  0  0  0
    8.3145  -16.3459   20.8474 O   0  0  0  0  0  0  0  0  0  0  0  0
   10.8602  -19.2566   23.8484 N   0  0  0  0  0  0  0  0  0  0  0  0
   11.4556  -18.6976   22.6695 C   0  0  0  0  0  0  0  0  0  0  0  0
   12.3382  -19.3901   22.1164 O   0  0  0  0  0  0  0  0  0  0  0  0
   10.9886  -17.3808   22.2157 C   0  0  0  0  0  0  0  0  0  0  0  0
    9.9739  -16.7935   23.1706 C   0  0  2  0  0  0  0  0  0  0  0  0
    9.5102  -15.5237   22.6249 N   0  0  0  0  0  0  0  0  0  0  0  0
   10.5418  -16.6377   24.5157 C   0  0  0  0  0  0  0  0  0  0  0  0
   10.2039  -17.5078   25.5286 O   0  0  0  0  0  0  0  0  0  0  0  0
   11.3398  -15.7081   24.7486 O   0  0  0  0  0  0  0  0  0  0  0  0
  2  1  1  6
  2  9  1  0
  3  2  1  0
  4  8  1  0
  4  3  1  0
  5  4  2  0
  6  5  1  0
  6  7  1  0
  7  8  2  0
  9 11  1  0
 10  9  2  0
 11 15  1  0
 11 12  1  0
 12 13  1  0
 14 13  1  0
 15 14  1  0
 16 23  1  0
 15 16  1  1
 17 16  2  0
 18 19  1  0
 19 20  2  0
 21 19  1  0
 22 21  1  6
 22 23  1  0
 22 24  1  0
 24 25  1  0
 26 24  2  0
M  END
$$$$
