DRQ.pdb
     RDKit          3D

 29 28  0  0  1  0  0  0  0  0999 V2000
    9.5931  -16.3914   18.7885 N   0  0  0  0  0  0  0  0  0  0  0  0
    8.8310  -15.2710   19.2465 C   0  0  1  0  0  0  0  0  0  0  0  0
    7.8280  -14.8048   18.1784 C   0  0  0  0  0  0  0  0  0  0  0  0
    8.4526  -14.7776   16.8514 C   0  0  0  0  0  0  0  0  0  0  0  0
    9.3626  -15.5610   16.5304 O   0  0  0  0  0  0  0  0  0  0  0  0
    8.0265  -15.5518   20.4562 C   0  0  0  0  0  0  0  0  0  0  0  0
    7.3245  -14.6292   20.9221 O   0  0  0  0  0  0  0  0  0  0  0  0
    7.9691  -13.8194   15.9582 O   0  0  0  0  0  0  0  0  0  0  0  0
    8.7910  -21.2697   26.0052 N   0  0  0  0  0  0  0  0  0  0  0  0
    7.5558  -20.7829   26.5152 C   0  0  0  0  0  0  0  0  0  0  0  0
    7.2873  -20.8723   27.7804 N   0  0  0  0  0  0  0  0  0  0  0  0
    6.5531  -20.1778   25.6757 N   0  0  0  0  0  0  0  0  0  0  0  0
    6.7534  -20.0941   24.2598 C   0  0  0  0  0  0  0  0  0  0  0  0
    7.6057  -18.8244   24.0087 C   0  0  0  0  0  0  0  0  0  0  0  0
    7.4069  -18.4887   22.5764 C   0  0  0  0  0  0  0  0  0  0  0  0
    7.2991  -17.0205   22.2814 C   0  0  2  0  0  0  0  0  0  0  0  0
    8.0546  -16.8166   21.0543 N   0  0  0  0  0  0  0  0  0  0  0  0
    7.9351  -16.2596   23.3975 C   0  0  0  0  0  0  0  0  0  0  0  0
    9.1719  -16.3030   23.4730 O   0  0  0  0  0  0  0  0  0  0  0  0
    6.3701  -20.5207   28.1026 N   0  0  0  0  0  0  0  0  0  0  0  0
    5.2095  -11.2636   26.3141 C   0  0  0  0  0  0  0  0  0  0  0  0
    6.5134  -11.3744   26.8486 O   0  0  0  0  0  0  0  0  0  0  0  0
    6.9609  -10.4735   27.6458 C   0  0  0  0  0  0  0  0  0  0  0  0
    7.3773  -12.5024   26.5222 C   0  0  0  0  0  0  0  0  0  0  0  0
    6.8282  -13.5175   25.5835 C   0  0  2  0  0  0  0  0  0  0  0  0
    7.7465  -14.6137   25.2474 N   0  0  0  0  0  0  0  0  0  0  0  0
    7.1245  -15.5389   24.2996 C   0  0  0  0  0  0  0  0  0  0  0  0
    8.4054  -15.3963   26.2797 O   0  0  0  0  0  0  0  0  0  0  0  0
    9.6227  -14.9571   26.8403 O   0  0  0  0  0  0  0  0  0  0  0  0
  2  3  1  0
  2  1  1  6
  4  8  1  0
  4  3  1  0
  5  4  2  0
  6  2  1  0
  7  6  2  0
 10  9  1  0
 10 12  1  0
 11 10  2  0
 13 12  1  0
 13 14  1  0
 15 14  1  0
 16 15  1  1
 16 17  1  0
 17  6  1  0
 18 19  2  0
 18 16  1  0
 21 22  2  0
 21 20  1  0
 23 21  1  0
 24 23  1  0
 25 24  1  6
 25 26  1  0
 26 18  1  0
 27 28  1  0
 27 25  1  0
 29 27  2  0
M  END
$$$$
