DRQ.pdb
     RDKit          3D

 29 28  0  0  1  0  0  0  0  0999 V2000
   11.5139  -19.5376   19.5707 N   0  0  0  0  0  0  0  0  0  0  0  0
   12.5279  -18.5288   19.5834 C   0  0  1  0  0  0  0  0  0  0  0  0
   12.6547  -17.8484   18.2104 C   0  0  0  0  0  0  0  0  0  0  0  0
   13.4096  -18.6914   17.2770 C   0  0  0  0  0  0  0  0  0  0  0  0
   13.7971  -19.8332   17.5791 O   0  0  0  0  0  0  0  0  0  0  0  0
   12.2710  -17.4377   20.5492 C   0  0  0  0  0  0  0  0  0  0  0  0
   13.1390  -16.5477   20.6747 O   0  0  0  0  0  0  0  0  0  0  0  0
   13.6731  -18.1428   16.0203 O   0  0  0  0  0  0  0  0  0  0  0  0
    8.0424  -12.9546   18.7905 N   0  0  0  0  0  0  0  0  0  0  0  0
    7.6469  -12.7382   20.1394 C   0  0  0  0  0  0  0  0  0  0  0  0
    7.5230  -11.5333   20.6018 N   0  0  0  0  0  0  0  0  0  0  0  0
    7.3690  -13.8194   21.0504 N   0  0  0  0  0  0  0  0  0  0  0  0
    7.5147  -15.1785   20.6219 C   0  0  0  0  0  0  0  0  0  0  0  0
    9.0364  -15.4692   20.5851 C   0  0  0  0  0  0  0  0  0  0  0  0
    9.3880  -15.9224   21.9544 C   0  0  0  0  0  0  0  0  0  0  0  0
   10.8369  -16.2611   22.1544 C   0  0  2  0  0  0  0  0  0  0  0  0
   11.0875  -17.4088   21.2953 N   0  0  0  0  0  0  0  0  0  0  0  0
   11.0467  -16.6445   23.5820 C   0  0  0  0  0  0  0  0  0  0  0  0
   10.8148  -17.8239   23.8863 O   0  0  0  0  0  0  0  0  0  0  0  0
    7.2954  -11.4249   21.6044 N   0  0  0  0  0  0  0  0  0  0  0  0
    8.8173  -13.6301   28.3317 C   0  0  0  0  0  0  0  0  0  0  0  0
    9.5706  -14.6714   28.9203 O   0  0  0  0  0  0  0  0  0  0  0  0
    9.4378  -14.9352   30.1694 C   0  0  0  0  0  0  0  0  0  0  0  0
   10.5041  -15.4725   28.1380 C   0  0  0  0  0  0  0  0  0  0  0  0
   10.6338  -15.1324   26.6956 C   0  0  1  0  0  0  0  0  0  0  0  0
   11.5361  -16.0034   25.9306 N   0  0  0  0  0  0  0  0  0  0  0  0
   11.4898  -15.6745   24.5056 C   0  0  0  0  0  0  0  0  0  0  0  0
   11.4899  -17.4499   26.0644 O   0  0  0  0  0  0  0  0  0  0  0  0
   10.7356  -18.2265   25.1607 O   0  0  0  0  0  0  0  0  0  0  0  0
  2  3  1  0
  2  1  1  6
  4  8  1  0
  4  3  1  0
  5  4  2  0
  6  2  1  0
  7  6  2  0
 10  9  1  0
 10 12  1  0
 11 10  2  0
 13 12  1  0
 13 14  1  0
 15 14  1  0
 16 15  1  1
 16 17  1  0
 17  6  1  0
 18 19  2  0
 18 16  1  0
 21 22  2  0
 21 20  1  0
 23 21  1  0
 24 23  1  0
 25 24  1  1
 25 26  1  0
 26 18  1  0
 27 28  1  0
 27 25  1  0
 29 27  2  0
M  END
$$$$
