DRQ.pdb
     RDKit          3D

 29 28  0  0  1  0  0  0  0  0999 V2000
   21.0860  -18.2900   16.3819 N   0  0  0  0  0  0  0  0  0  0  0  0
   20.4731  -17.1923   17.0639 C   0  0  1  0  0  0  0  0  0  0  0  0
   20.1303  -16.0524   16.0905 C   0  0  0  0  0  0  0  0  0  0  0  0
   21.3457  -15.3629   15.6444 C   0  0  0  0  0  0  0  0  0  0  0  0
   22.4309  -15.4793   16.2393 O   0  0  0  0  0  0  0  0  0  0  0  0
   19.2016  -17.5423   17.7347 C   0  0  0  0  0  0  0  0  0  0  0  0
   18.5986  -16.6423   18.3574 O   0  0  0  0  0  0  0  0  0  0  0  0
   21.2223  -14.5622   14.5071 O   0  0  0  0  0  0  0  0  0  0  0  0
   16.4326  -23.3499   19.3027 N   0  0  0  0  0  0  0  0  0  0  0  0
   15.0871  -23.6052   18.9190 C   0  0  0  0  0  0  0  0  0  0  0  0
   14.4087  -24.5490   19.4934 N   0  0  0  0  0  0  0  0  0  0  0  0
   14.4153  -22.8496   17.8924 N   0  0  0  0  0  0  0  0  0  0  0  0
   15.1561  -21.9538   17.0552 C   0  0  0  0  0  0  0  0  0  0  0  0
   15.4829  -20.7100   17.9198 C   0  0  0  0  0  0  0  0  0  0  0  0
   16.8669  -20.3209   17.5498 C   0  0  0  0  0  0  0  0  0  0  0  0
   17.3980  -19.1161   18.2714 C   0  0  2  0  0  0  0  0  0  0  0  0
   18.6943  -18.8448   17.6679 N   0  0  0  0  0  0  0  0  0  0  0  0
   17.5754  -19.4608   19.7132 C   0  0  0  0  0  0  0  0  0  0  0  0
   18.5819  -20.1198   20.0131 O   0  0  0  0  0  0  0  0  0  0  0  0
   13.4458  -24.7202   19.1584 N   0  0  0  0  0  0  0  0  0  0  0  0
   12.9955  -20.0598   24.1002 C   0  0  0  0  0  0  0  0  0  0  0  0
   14.2116  -20.4676   24.6944 O   0  0  0  0  0  0  0  0  0  0  0  0
   14.2078  -21.0272   25.8494 C   0  0  0  0  0  0  0  0  0  0  0  0
   15.4904  -20.2748   24.0216 C   0  0  0  0  0  0  0  0  0  0  0  0
   15.4533  -19.6199   22.6864 C   0  0  1  0  0  0  0  0  0  0  0  0
   16.7656  -19.4108   22.0602 N   0  0  0  0  0  0  0  0  0  0  0  0
   16.6152  -19.0336   20.6545 C   0  0  0  0  0  0  0  0  0  0  0  0
   17.8188  -20.4081   22.1526 O   0  0  0  0  0  0  0  0  0  0  0  0
   17.7536  -21.5883   21.3834 O   0  0  0  0  0  0  0  0  0  0  0  0
  2  3  1  0
  2  1  1  6
  4  8  1  0
  4  3  1  0
  5  4  2  0
  6  2  1  0
  7  6  2  0
 10  9  1  0
 10 12  1  0
 11 10  2  0
 13 12  1  0
 13 14  1  0
 15 14  1  0
 16 15  1  6
 16 17  1  0
 17  6  1  0
 18 19  2  0
 18 16  1  0
 21 22  2  0
 21 20  1  0
 23 21  1  0
 24 23  1  0
 25 24  1  1
 25 26  1  0
 26 18  1  0
 27 28  1  0
 27 25  1  0
 29 27  2  0
M  END
$$$$
