DRQ.pdb
     RDKit          3D

 29 28  0  0  1  0  0  0  0  0999 V2000
   14.0248  -17.8823   17.0058 N   0  0  0  0  0  0  0  0  0  0  0  0
   13.2458  -18.6190   17.9525 C   0  0  1  0  0  0  0  0  0  0  0  0
   14.0312  -19.8186   18.5076 C   0  0  0  0  0  0  0  0  0  0  0  0
   14.3809  -20.7560   17.4349 C   0  0  0  0  0  0  0  0  0  0  0  0
   14.4612  -20.4032   16.2457 O   0  0  0  0  0  0  0  0  0  0  0  0
   12.8371  -17.8265   19.1333 C   0  0  0  0  0  0  0  0  0  0  0  0
   13.7334  -17.3870   19.8847 O   0  0  0  0  0  0  0  0  0  0  0  0
   14.6221  -22.0764   17.8195 O   0  0  0  0  0  0  0  0  0  0  0  0
    7.6776  -13.7454   16.9115 N   0  0  0  0  0  0  0  0  0  0  0  0
    7.5206  -13.7118   18.3247 C   0  0  0  0  0  0  0  0  0  0  0  0
    6.5798  -13.0012   18.8638 N   0  0  0  0  0  0  0  0  0  0  0  0
    8.3787  -14.4465   19.2193 N   0  0  0  0  0  0  0  0  0  0  0  0
    8.0841  -14.4985   20.6202 C   0  0  0  0  0  0  0  0  0  0  0  0
    9.2390  -15.2894   21.2852 C   0  0  0  0  0  0  0  0  0  0  0  0
    9.8341  -16.1110   20.2014 C   0  0  0  0  0  0  0  0  0  0  0  0
   11.1380  -16.7680   20.5512 C   0  0  2  0  0  0  0  0  0  0  0  0
   11.4846  -17.5791   19.3935 N   0  0  0  0  0  0  0  0  0  0  0  0
   10.9277  -17.6481   21.7387 C   0  0  0  0  0  0  0  0  0  0  0  0
   10.3257  -18.7149   21.5470 O   0  0  0  0  0  0  0  0  0  0  0  0
    6.4693  -13.0506   19.8906 N   0  0  0  0  0  0  0  0  0  0  0  0
   12.5266  -22.1636   24.3976 C   0  0  0  0  0  0  0  0  0  0  0  0
   13.4795  -21.1497   24.1481 O   0  0  0  0  0  0  0  0  0  0  0  0
   14.7281  -21.4405   24.0882 C   0  0  0  0  0  0  0  0  0  0  0  0
   13.0805  -19.7620   23.9470 C   0  0  0  0  0  0  0  0  0  0  0  0
   11.6209  -19.4922   23.8461 C   0  0  1  0  0  0  0  0  0  0  0  0
   11.2208  -18.1141   24.1602 N   0  0  0  0  0  0  0  0  0  0  0  0
   11.4104  -17.2420   23.0006 C   0  0  0  0  0  0  0  0  0  0  0  0
   11.7284  -17.4246   25.3346 O   0  0  0  0  0  0  0  0  0  0  0  0
   12.4577  -16.2253   25.1984 O   0  0  0  0  0  0  0  0  0  0  0  0
  2  3  1  0
  2  1  1  6
  4  8  1  0
  4  3  1  0
  5  4  2  0
  6  2  1  0
  7  6  2  0
 10  9  1  0
 10 12  1  0
 11 10  2  0
 13 12  1  0
 13 14  1  0
 15 14  1  0
 16 15  1  6
 16 17  1  0
 17  6  1  0
 18 19  2  0
 18 16  1  0
 21 22  2  0
 21 20  1  0
 23 21  1  0
 24 23  1  0
 25 24  1  6
 25 26  1  0
 26 18  1  0
 27 28  1  0
 27 25  1  0
 29 27  2  0
M  END
$$$$
