HGD.pdb
     RDKit          3D

 23 23  0  0  1  0  0  0  0  0999 V2000
   23.1498  -12.8149  -18.9008 N   0  0  0  0  0  0  0  0  0  0  0  0
   22.7343  -12.0273  -20.0447 C   0  0  1  0  0  0  0  0  0  0  0  0
   22.0674  -13.0058  -21.0153 C   0  0  0  0  0  0  0  0  0  0  0  0
   23.1101  -13.9998  -21.3826 C   0  0  0  0  0  0  0  0  0  0  0  0
   24.0807  -13.8279  -22.3757 C   0  0  0  0  0  0  0  0  0  0  0  0
   24.8518  -14.9275  -22.4308 N   0  0  0  0  0  0  0  0  0  0  0  0
   24.4078  -15.7951  -21.5081 C   0  0  0  0  0  0  0  0  0  0  0  0
   23.3471  -15.2221  -20.8747 N   0  0  0  0  0  0  0  0  0  0  0  0
   21.8279  -10.9285  -19.6692 C   0  0  0  0  0  0  0  0  0  0  0  0
   20.7781  -10.7590  -20.3084 O   0  0  0  0  0  0  0  0  0  0  0  0
   22.1882  -10.0909  -18.5776 N   0  0  0  0  0  0  0  0  0  0  0  0
   21.3230   -9.0012  -18.2391 C   0  0  0  0  0  0  0  0  0  0  0  0
   21.8552   -8.2650  -17.0615 C   0  0  0  0  0  0  0  0  0  0  0  0
   22.7405   -8.8137  -16.3380 O   0  0  0  0  0  0  0  0  0  0  0  0
   21.4318   -6.9771  -16.6931 N   0  0  0  0  0  0  0  0  0  0  0  0
   21.9337   -6.2893  -15.5030 C   0  0  1  0  0  0  0  0  0  0  0  0
   21.3938   -4.8794  -15.6143 C   0  0  0  0  0  0  0  0  0  0  0  0
   21.9042   -4.0171  -14.5528 C   0  0  0  0  0  0  0  0  0  0  0  0
   23.0549   -4.1493  -14.0791 O   0  0  0  0  0  0  0  0  0  0  0  0
   21.4128   -6.8928  -14.2686 C   0  0  0  0  0  0  0  0  0  0  0  0
   20.4918   -7.9093  -14.1875 O   0  0  0  0  0  0  0  0  0  0  0  0
   21.1014   -3.0131  -14.0403 O   0  0  0  0  0  0  0  0  0  0  0  0
   21.8561   -6.4297  -13.1623 O   0  0  0  0  0  0  0  0  0  0  0  0
  2  1  1  1
  2  3  1  0
  4  3  1  0
  4  5  2  0
  6  5  1  0
  7  6  1  0
  8  7  2  0
  8  4  1  0
  9  2  1  0
  9 10  2  0
 11  9  1  0
 12 11  1  0
 12 13  1  0
 13 15  1  0
 14 13  2  0
 15 16  1  0
 16 17  1  6
 17 18  1  0
 18 22  1  0
 19 18  2  0
 20 16  1  0
 20 21  1  0
 23 20  2  0
M  END
$$$$
