HGD.pdb
     RDKit          3D

 23 23  0  0  1  0  0  0  0  0999 V2000
   26.2540  -21.2466  -12.8870 N   0  0  0  0  0  0  0  0  0  0  0  0
   25.8337  -21.2266  -11.4997 C   0  0  1  0  0  0  0  0  0  0  0  0
   26.6821  -20.1525  -10.8135 C   0  0  0  0  0  0  0  0  0  0  0  0
   28.0931  -20.6078  -10.9218 C   0  0  0  0  0  0  0  0  0  0  0  0
   28.5217  -21.7767  -11.5605 C   0  0  0  0  0  0  0  0  0  0  0  0
   29.8592  -21.8656  -11.4618 N   0  0  0  0  0  0  0  0  0  0  0  0
   30.2996  -20.7950  -10.7829 C   0  0  0  0  0  0  0  0  0  0  0  0
   29.2176  -20.0345  -10.4579 N   0  0  0  0  0  0  0  0  0  0  0  0
   24.3924  -20.9586  -11.3545 C   0  0  0  0  0  0  0  0  0  0  0  0
   23.9160  -20.7842  -10.2223 O   0  0  0  0  0  0  0  0  0  0  0  0
   23.5875  -20.9081  -12.5260 N   0  0  0  0  0  0  0  0  0  0  0  0
   22.2007  -20.5791  -12.3873 C   0  0  0  0  0  0  0  0  0  0  0  0
   21.5423  -20.5422  -13.7204 C   0  0  0  0  0  0  0  0  0  0  0  0
   22.2614  -20.4919  -14.7637 O   0  0  0  0  0  0  0  0  0  0  0  0
   20.1491  -20.5599  -13.9004 N   0  0  0  0  0  0  0  0  0  0  0  0
   19.5220  -20.5681  -15.2224 C   0  0  1  0  0  0  0  0  0  0  0  0
   18.1552  -21.1794  -14.9987 C   0  0  0  0  0  0  0  0  0  0  0  0
   18.1842  -22.6337  -15.1208 C   0  0  0  0  0  0  0  0  0  0  0  0
   19.1707  -23.2461  -15.5875 O   0  0  0  0  0  0  0  0  0  0  0  0
   19.3446  -19.2067  -15.7463 C   0  0  0  0  0  0  0  0  0  0  0  0
   19.6005  -18.0373  -15.0716 O   0  0  0  0  0  0  0  0  0  0  0  0
   17.0914  -23.3774  -14.7113 O   0  0  0  0  0  0  0  0  0  0  0  0
   18.9101  -19.0958  -16.9436 O   0  0  0  0  0  0  0  0  0  0  0  0
  2  1  1  6
  2  3  1  0
  4  3  1  0
  4  5  2  0
  6  5  1  0
  7  6  1  0
  8  7  2  0
  8  4  1  0
  9  2  1  0
  9 10  2  0
 11  9  1  0
 12 11  1  0
 12 13  1  0
 13 15  1  0
 14 13  2  0
 15 16  1  0
 16 17  1  1
 17 18  1  0
 18 22  1  0
 19 18  2  0
 20 16  1  0
 20 21  1  0
 23 20  2  0
M  END
$$$$
