HGD.pdb
     RDKit          3D

 23 23  0  0  1  0  0  0  0  0999 V2000
   18.1985  -14.9465    8.0146 N   0  0  0  0  0  0  0  0  0  0  0  0
   18.6981  -15.7802    6.9390 C   0  0  1  0  0  0  0  0  0  0  0  0
   20.1294  -15.3101    6.6660 C   0  0  0  0  0  0  0  0  0  0  0  0
   20.0210  -13.9028    6.1994 C   0  0  0  0  0  0  0  0  0  0  0  0
   20.7691  -12.8261    6.6882 C   0  0  0  0  0  0  0  0  0  0  0  0
   20.4068  -11.7080    6.0361 N   0  0  0  0  0  0  0  0  0  0  0  0
   19.4541  -12.0327    5.1485 C   0  0  0  0  0  0  0  0  0  0  0  0
   19.2254  -13.3710    5.2546 N   0  0  0  0  0  0  0  0  0  0  0  0
   18.6491  -17.2143    7.2724 C   0  0  0  0  0  0  0  0  0  0  0  0
   18.7135  -18.0543    6.3615 O   0  0  0  0  0  0  0  0  0  0  0  0
   18.5288  -17.5925    8.6381 N   0  0  0  0  0  0  0  0  0  0  0  0
   18.5909  -18.9845    8.9687 C   0  0  0  0  0  0  0  0  0  0  0  0
   19.7599  -19.2556    9.8473 C   0  0  0  0  0  0  0  0  0  0  0  0
   19.9227  -20.4222   10.3169 O   0  0  0  0  0  0  0  0  0  0  0  0
   20.7124  -18.2837   10.1962 N   0  0  0  0  0  0  0  0  0  0  0  0
   21.7960  -18.5424   11.1450 C   0  0  1  0  0  0  0  0  0  0  0  0
   23.0301  -17.9574   10.4919 C   0  0  0  0  0  0  0  0  0  0  0  0
   24.2400  -18.2558   11.2523 C   0  0  0  0  0  0  0  0  0  0  0  0
   24.2423  -19.0468   12.2219 O   0  0  0  0  0  0  0  0  0  0  0  0
   21.5727  -17.8528   12.4232 C   0  0  0  0  0  0  0  0  0  0  0  0
   22.0734  -18.2280   13.6466 O   0  0  0  0  0  0  0  0  0  0  0  0
   25.4351  -17.6519   10.9027 O   0  0  0  0  0  0  0  0  0  0  0  0
   20.8426  -16.8034   12.3987 O   0  0  0  0  0  0  0  0  0  0  0  0
  2  1  1  1
  2  3  1  0
  4  3  1  0
  4  5  2  0
  6  5  1  0
  7  6  1  0
  8  7  2  0
  8  4  1  0
  9  2  1  0
  9 10  2  0
 11  9  1  0
 12 11  1  0
 12 13  1  0
 13 15  1  0
 14 13  2  0
 15 16  1  0
 16 17  1  6
 17 18  1  0
 18 22  1  0
 19 18  2  0
 20 16  1  0
 20 21  1  0
 23 20  2  0
M  END
$$$$
