HGD.pdb
     RDKit          3D

 23 23  0  0  1  0  0  0  0  0999 V2000
   18.0767  -14.1679  -17.0543 N   0  0  0  0  0  0  0  0  0  0  0  0
   19.1273  -14.4130  -18.0228 C   0  0  1  0  0  0  0  0  0  0  0  0
   18.4321  -14.5436  -19.3807 C   0  0  0  0  0  0  0  0  0  0  0  0
   17.5860  -15.7632  -19.2969 C   0  0  0  0  0  0  0  0  0  0  0  0
   16.3112  -15.8283  -18.7238 C   0  0  0  0  0  0  0  0  0  0  0  0
   15.8474  -17.0857  -18.8266 N   0  0  0  0  0  0  0  0  0  0  0  0
   16.7810  -17.8254  -19.4450 C   0  0  0  0  0  0  0  0  0  0  0  0
   17.8361  -17.0122  -19.7278 N   0  0  0  0  0  0  0  0  0  0  0  0
   20.1428  -13.3459  -18.0302 C   0  0  0  0  0  0  0  0  0  0  0  0
   21.0691  -13.3920  -18.8543 O   0  0  0  0  0  0  0  0  0  0  0  0
   20.0276  -12.2892  -17.0852 N   0  0  0  0  0  0  0  0  0  0  0  0
   20.9628  -11.2069  -17.1545 C   0  0  0  0  0  0  0  0  0  0  0  0
   20.3328   -9.9478  -16.6754 C   0  0  0  0  0  0  0  0  0  0  0  0
   19.0712   -9.8935  -16.5584 O   0  0  0  0  0  0  0  0  0  0  0  0
   21.0596   -8.7939  -16.3381 N   0  0  0  0  0  0  0  0  0  0  0  0
   20.4286   -7.5936  -15.7882 C   0  0  1  0  0  0  0  0  0  0  0  0
   21.3221   -7.1786  -14.6388 C   0  0  0  0  0  0  0  0  0  0  0  0
   21.1656   -8.0582  -13.4844 C   0  0  0  0  0  0  0  0  0  0  0  0
   21.9232   -9.0328  -13.2787 O   0  0  0  0  0  0  0  0  0  0  0  0
   20.3940   -6.5014  -16.7707 C   0  0  0  0  0  0  0  0  0  0  0  0
   19.5282   -5.4343  -16.7686 O   0  0  0  0  0  0  0  0  0  0  0  0
   20.1494   -7.8212  -12.5754 O   0  0  0  0  0  0  0  0  0  0  0  0
   21.2492   -6.5453  -17.7201 O   0  0  0  0  0  0  0  0  0  0  0  0
  2  1  1  1
  2  3  1  0
  4  3  1  0
  4  5  2  0
  6  5  1  0
  7  6  1  0
  8  7  2  0
  8  4  1  0
  9  2  1  0
  9 10  2  0
 11  9  1  0
 12 11  1  0
 12 13  1  0
 13 15  1  0
 14 13  2  0
 15 16  1  0
 16 17  1  1
 17 18  1  0
 18 22  1  0
 19 18  2  0
 20 16  1  0
 20 21  1  0
 23 20  2  0
M  END
$$$$
