HGD.pdb
     RDKit          3D

 23 23  0  0  1  0  0  0  0  0999 V2000
   23.8039  -15.5725  -19.2206 N   0  0  0  0  0  0  0  0  0  0  0  0
   23.6259  -14.3672  -18.4350 C   0  0  1  0  0  0  0  0  0  0  0  0
   23.2758  -13.2581  -19.4308 C   0  0  0  0  0  0  0  0  0  0  0  0
   24.5093  -13.0074  -20.2217 C   0  0  0  0  0  0  0  0  0  0  0  0
   25.7608  -13.5836  -19.9774 C   0  0  0  0  0  0  0  0  0  0  0  0
   26.6386  -13.1292  -20.8882 N   0  0  0  0  0  0  0  0  0  0  0  0
   25.9919  -12.2835  -21.7053 C   0  0  0  0  0  0  0  0  0  0  0  0
   24.6960  -12.2153  -21.2922 N   0  0  0  0  0  0  0  0  0  0  0  0
   22.5875  -14.5201  -17.4014 C   0  0  0  0  0  0  0  0  0  0  0  0
   22.2867  -13.5482  -16.6912 O   0  0  0  0  0  0  0  0  0  0  0  0
   21.9583  -15.7866  -17.2499 N   0  0  0  0  0  0  0  0  0  0  0  0
   21.0138  -15.9565  -16.1870 C   0  0  0  0  0  0  0  0  0  0  0  0
   21.2032  -17.2790  -15.5334 C   0  0  0  0  0  0  0  0  0  0  0  0
   22.0475  -18.0922  -16.0172 O   0  0  0  0  0  0  0  0  0  0  0  0
   20.4934  -17.6919  -14.3935 N   0  0  0  0  0  0  0  0  0  0  0  0
   20.6630  -19.0150  -13.7919 C   0  0  1  0  0  0  0  0  0  0  0  0
   19.9653  -18.9229  -12.4516 C   0  0  0  0  0  0  0  0  0  0  0  0
   20.0219  -20.1861  -11.7221 C   0  0  0  0  0  0  0  0  0  0  0  0
   21.0056  -20.9562  -11.7937 O   0  0  0  0  0  0  0  0  0  0  0  0
   20.0067  -20.0605  -14.5891 C   0  0  0  0  0  0  0  0  0  0  0  0
   20.4193  -21.3652  -14.7144 O   0  0  0  0  0  0  0  0  0  0  0  0
   18.9594  -20.5612  -10.9186 O   0  0  0  0  0  0  0  0  0  0  0  0
   18.9512  -19.7278  -15.2293 O   0  0  0  0  0  0  0  0  0  0  0  0
  2  1  1  6
  2  3  1  0
  4  3  1  0
  4  5  2  0
  6  5  1  0
  7  6  1  0
  8  7  2  0
  8  4  1  0
  9  2  1  0
  9 10  2  0
 11  9  1  0
 12 11  1  0
 12 13  1  0
 13 15  1  0
 14 13  2  0
 15 16  1  0
 16 17  1  1
 17 18  1  0
 18 22  1  0
 19 18  2  0
 20 16  1  0
 20 21  1  0
 23 20  2  0
M  END
$$$$
