HGD.pdb
     RDKit          3D

 23 23  0  0  1  0  0  0  0  0999 V2000
   29.0553  -12.2237  -16.5419 N   0  0  0  0  0  0  0  0  0  0  0  0
   29.1861  -11.2268  -17.5863 C   0  0  1  0  0  0  0  0  0  0  0  0
   28.7841  -11.9214  -18.8902 C   0  0  0  0  0  0  0  0  0  0  0  0
   29.7797  -13.0041  -19.1064 C   0  0  0  0  0  0  0  0  0  0  0  0
   29.4825  -14.3651  -19.2382 C   0  0  0  0  0  0  0  0  0  0  0  0
   30.6255  -15.0482  -19.4213 N   0  0  0  0  0  0  0  0  0  0  0  0
   31.6417  -14.1716  -19.4112 C   0  0  0  0  0  0  0  0  0  0  0  0
   31.1176  -12.9294  -19.2189 N   0  0  0  0  0  0  0  0  0  0  0  0
   28.3627  -10.0330  -17.3279 C   0  0  0  0  0  0  0  0  0  0  0  0
   28.3833   -9.0918  -18.1362 O   0  0  0  0  0  0  0  0  0  0  0  0
   27.5646   -9.9975  -16.1512 N   0  0  0  0  0  0  0  0  0  0  0  0
   26.7160   -8.8642  -15.9362 C   0  0  0  0  0  0  0  0  0  0  0  0
   25.2865   -9.2623  -16.0357 C   0  0  0  0  0  0  0  0  0  0  0  0
   24.9980  -10.4603  -16.3354 O   0  0  0  0  0  0  0  0  0  0  0  0
   24.2162   -8.3796  -15.8149 N   0  0  0  0  0  0  0  0  0  0  0  0
   22.8167   -8.8036  -15.8686 C   0  0  1  0  0  0  0  0  0  0  0  0
   22.0781   -7.8120  -14.9952 C   0  0  0  0  0  0  0  0  0  0  0  0
   20.6503   -8.1079  -14.9254 C   0  0  0  0  0  0  0  0  0  0  0  0
   20.1500   -9.1198  -15.4654 O   0  0  0  0  0  0  0  0  0  0  0  0
   22.2766   -8.7175  -17.2325 C   0  0  0  0  0  0  0  0  0  0  0  0
   22.8336   -8.0313  -18.2846 O   0  0  0  0  0  0  0  0  0  0  0  0
   19.8057   -7.2505  -14.2424 O   0  0  0  0  0  0  0  0  0  0  0  0
   21.1837   -9.3386  -17.4660 O   0  0  0  0  0  0  0  0  0  0  0  0
  2  1  1  1
  2  3  1  0
  4  3  1  0
  4  5  2  0
  6  5  1  0
  7  6  1  0
  8  7  2  0
  8  4  1  0
  9  2  1  0
  9 10  2  0
 11  9  1  0
 12 11  1  0
 12 13  1  0
 13 15  1  0
 14 13  2  0
 15 16  1  0
 16 17  1  1
 17 18  1  0
 18 22  1  0
 19 18  2  0
 20 16  1  0
 20 21  1  0
 23 20  2  0
M  END
$$$$
