HGD.pdb
     RDKit          3D

 23 23  0  0  1  0  0  0  0  0999 V2000
   20.0634  -19.6416  -14.3541 N   0  0  0  0  0  0  0  0  0  0  0  0
   18.8731  -19.4804  -13.5425 C   0  0  1  0  0  0  0  0  0  0  0  0
   17.7508  -20.2125  -14.2831 C   0  0  0  0  0  0  0  0  0  0  0  0
   17.5185  -19.4515  -15.5389 C   0  0  0  0  0  0  0  0  0  0  0  0
   17.6648  -19.9599  -16.8344 C   0  0  0  0  0  0  0  0  0  0  0  0
   17.3724  -18.9928  -17.7209 N   0  0  0  0  0  0  0  0  0  0  0  0
   17.0446  -17.8853  -17.0374 C   0  0  0  0  0  0  0  0  0  0  0  0
   17.1363  -18.1736  -15.7096 N   0  0  0  0  0  0  0  0  0  0  0  0
   19.0528  -19.9982  -12.1751 C   0  0  0  0  0  0  0  0  0  0  0  0
   18.1156  -19.9201  -11.3659 O   0  0  0  0  0  0  0  0  0  0  0  0
   20.3045  -20.5754  -11.8241 N   0  0  0  0  0  0  0  0  0  0  0  0
   20.4662  -21.1021  -10.5024 C   0  0  0  0  0  0  0  0  0  0  0  0
   19.7275  -22.3854  -10.3632 C   0  0  0  0  0  0  0  0  0  0  0  0
   19.7754  -23.2316  -11.3066 O   0  0  0  0  0  0  0  0  0  0  0  0
   18.9662  -22.7258   -9.2327 N   0  0  0  0  0  0  0  0  0  0  0  0
   18.3564  -24.0443   -9.0569 C   0  0  1  0  0  0  0  0  0  0  0  0
   19.0124  -24.6119   -7.8163 C   0  0  0  0  0  0  0  0  0  0  0  0
   18.2256  -24.3459   -6.6159 C   0  0  0  0  0  0  0  0  0  0  0  0
   17.0586  -23.8972   -6.6671 O   0  0  0  0  0  0  0  0  0  0  0  0
   16.9102  -23.9445   -8.8163 C   0  0  0  0  0  0  0  0  0  0  0  0
   15.9629  -24.8774   -9.1632 O   0  0  0  0  0  0  0  0  0  0  0  0
   18.7734  -24.5926   -5.3692 O   0  0  0  0  0  0  0  0  0  0  0  0
   16.4894  -22.8896   -8.2289 O   0  0  0  0  0  0  0  0  0  0  0  0
  2  1  1  6
  2  3  1  0
  4  3  1  0
  4  5  2  0
  6  5  1  0
  7  6  1  0
  8  7  2  0
  8  4  1  0
  9  2  1  0
  9 10  2  0
 11  9  1  0
 12 11  1  0
 12 13  1  0
 13 15  1  0
 14 13  2  0
 15 16  1  0
 16 17  1  1
 17 18  1  0
 18 22  1  0
 19 18  2  0
 20 16  1  0
 20 21  1  0
 23 20  2  0
M  END
$$$$
