HGD.pdb
     RDKit          3D

 23 23  0  0  1  0  0  0  0  0999 V2000
   26.4286  -20.8251  -14.6322 N   0  0  0  0  0  0  0  0  0  0  0  0
   27.3350  -20.1989  -13.6899 C   0  0  1  0  0  0  0  0  0  0  0  0
   27.2327  -18.6916  -13.9386 C   0  0  0  0  0  0  0  0  0  0  0  0
   27.6640  -18.4739  -15.3446 C   0  0  0  0  0  0  0  0  0  0  0  0
   26.8251  -18.1085  -16.4032 C   0  0  0  0  0  0  0  0  0  0  0  0
   27.5563  -18.0015  -17.5259 N   0  0  0  0  0  0  0  0  0  0  0  0
   28.8322  -18.2855  -17.2215 C   0  0  0  0  0  0  0  0  0  0  0  0
   28.8886  -18.5720  -15.8913 N   0  0  0  0  0  0  0  0  0  0  0  0
   27.0180  -20.5441  -12.2933 C   0  0  0  0  0  0  0  0  0  0  0  0
   27.6672  -20.0217  -11.3740 O   0  0  0  0  0  0  0  0  0  0  0  0
   25.9699  -21.4722  -12.0420 N   0  0  0  0  0  0  0  0  0  0  0  0
   25.1383  -21.2678  -10.8942 C   0  0  0  0  0  0  0  0  0  0  0  0
   23.7608  -20.8955  -11.3135 C   0  0  0  0  0  0  0  0  0  0  0  0
   23.1772  -19.9312  -10.7324 O   0  0  0  0  0  0  0  0  0  0  0  0
   23.0523  -21.5563  -12.3309 N   0  0  0  0  0  0  0  0  0  0  0  0
   21.8306  -21.0131  -12.9257 C   0  0  1  0  0  0  0  0  0  0  0  0
   22.3122  -20.0958  -14.0295 C   0  0  0  0  0  0  0  0  0  0  0  0
   21.5939  -18.8250  -14.0316 C   0  0  0  0  0  0  0  0  0  0  0  0
   20.7217  -18.5485  -13.1780 O   0  0  0  0  0  0  0  0  0  0  0  0
   21.0035  -22.0699  -13.5243 C   0  0  0  0  0  0  0  0  0  0  0  0
   19.6323  -22.1494  -13.4830 O   0  0  0  0  0  0  0  0  0  0  0  0
   21.8744  -17.8813  -15.0041 O   0  0  0  0  0  0  0  0  0  0  0  0
   21.6148  -23.0072  -14.1429 O   0  0  0  0  0  0  0  0  0  0  0  0
  2  1  1  6
  2  3  1  0
  4  3  1  0
  4  5  2  0
  6  5  1  0
  7  6  1  0
  8  7  2  0
  8  4  1  0
  9  2  1  0
  9 10  2  0
 11  9  1  0
 12 11  1  0
 12 13  1  0
 13 15  1  0
 14 13  2  0
 15 16  1  0
 16 17  1  6
 17 18  1  0
 18 22  1  0
 19 18  2  0
 20 16  1  0
 20 21  1  0
 23 20  2  0
M  END
$$$$
