WVM.pdb
     RDKit          3D

 30 31  0  0  1  0  0  0  0  0999 V2000
   26.6087  -21.6628  -18.8725 N   0  0  0  0  0  0  0  0  0  0  0  0
   25.7708  -21.2451  -17.7796 C   0  0  1  0  0  0  0  0  0  0  0  0
   24.5302  -22.0559  -17.6317 C   0  0  0  0  0  0  0  0  0  0  0  0
   23.3499  -21.5557  -18.3401 C   0  0  0  0  0  0  0  0  0  0  0  0
   22.9554  -21.8452  -19.6556 C   0  0  0  0  0  0  0  0  0  0  0  0
   21.8045  -21.2039  -19.9021 N   0  0  0  0  0  0  0  0  0  0  0  0
   21.4065  -20.4923  -18.8057 C   0  0  0  0  0  0  0  0  0  0  0  0
   20.3057  -19.6893  -18.6020 C   0  0  0  0  0  0  0  0  0  0  0  0
   20.1243  -19.0617  -17.3914 C   0  0  0  0  0  0  0  0  0  0  0  0
   21.0817  -19.2791  -16.4264 C   0  0  0  0  0  0  0  0  0  0  0  0
   22.1861  -20.0793  -16.6173 C   0  0  0  0  0  0  0  0  0  0  0  0
   22.3797  -20.7205  -17.8391 C   0  0  0  0  0  0  0  0  0  0  0  0
   26.5006  -21.2888  -16.4635 C   0  0  0  0  0  0  0  0  0  0  0  0
   27.4787  -22.0738  -16.3803 O   0  0  0  0  0  0  0  0  0  0  0  0
   26.4056  -17.7963  -14.0083 C   0  0  0  0  0  0  0  0  0  0  0  0
   27.4389  -18.8700  -14.1987 C   0  0  2  0  0  0  0  0  0  0  0  0
   28.2659  -18.4726  -15.4039 C   0  0  0  0  0  0  0  0  0  0  0  0
   26.9447  -20.2591  -14.2413 C   0  0  2  0  0  0  0  0  0  0  0  0
   26.0609  -20.4653  -15.4097 N   0  0  0  0  0  0  0  0  0  0  0  0
   26.2184  -20.7762  -13.0890 C   0  0  0  0  0  0  0  0  0  0  0  0
   24.9951  -21.1488  -13.1440 O   0  0  0  0  0  0  0  0  0  0  0  0
   26.4942  -20.2203   -5.2331 C   0  0  0  0  0  0  0  0  0  0  0  0
   27.3373  -20.0554   -6.8283 S   0  0  0  0  0  0  0  0  0  0  0  0
   26.2831  -20.6404   -8.1329 C   0  0  0  0  0  0  0  0  0  0  0  0
   26.8223  -20.6389   -9.5022 C   0  0  0  0  0  0  0  0  0  0  0  0
   25.9890  -21.1672  -10.6234 C   0  0  2  0  0  0  0  0  0  0  0  0
   26.8354  -20.9004  -11.8275 N   0  0  0  0  0  0  0  0  0  0  0  0
   24.7246  -20.4354  -10.7857 C   0  0  0  0  0  0  0  0  0  0  0  0
   24.7644  -19.1736  -11.4361 O   0  0  0  0  0  0  0  0  0  0  0  0
   23.5961  -20.8493  -10.3860 O   0  0  0  0  0  0  0  0  0  0  0  0
  2  1  1  6
  2 13  1  0
  3  2  1  0
  3  4  1  0
  4  5  2  0
  4 12  1  0
  5  6  1  0
  6  7  1  0
  7  8  2  0
  8  9  1  0
 10  9  2  0
 11 10  1  0
 12 11  2  0
 12  7  1  0
 13 19  1  0
 13 14  2  0
 16 18  1  0
 16 15  1  6
 17 16  1  0
 18 20  1  0
 18 19  1  6
 20 21  2  0
 22 23  1  0
 23 24  1  0
 24 25  1  0
 26 25  1  1
 26 28  1  0
 27 26  1  0
 27 20  1  0
 28 29  1  0
 30 28  2  0
M  END
$$$$
