WVM.pdb
     RDKit          3D

 30 31  0  0  1  0  0  0  0  0999 V2000
   26.2148  -19.6641  -11.5888 N   0  0  0  0  0  0  0  0  0  0  0  0
   25.4871  -20.9032  -11.5129 C   0  0  1  0  0  0  0  0  0  0  0  0
   25.5179  -21.5347  -10.1643 C   0  0  0  0  0  0  0  0  0  0  0  0
   26.6000  -21.1001   -9.2782 C   0  0  0  0  0  0  0  0  0  0  0  0
   26.4934  -20.3162   -8.1187 C   0  0  0  0  0  0  0  0  0  0  0  0
   27.7176  -20.1726   -7.5921 N   0  0  0  0  0  0  0  0  0  0  0  0
   28.6467  -20.8275   -8.3501 C   0  0  0  0  0  0  0  0  0  0  0  0
   30.0108  -20.9486   -8.2000 C   0  0  0  0  0  0  0  0  0  0  0  0
   30.7445  -21.6668   -9.1155 C   0  0  0  0  0  0  0  0  0  0  0  0
   30.0521  -22.2389  -10.1588 C   0  0  0  0  0  0  0  0  0  0  0  0
   28.6892  -22.1256  -10.3201 C   0  0  0  0  0  0  0  0  0  0  0  0
   27.9359  -21.4012   -9.3985 C   0  0  0  0  0  0  0  0  0  0  0  0
   24.0424  -20.7309  -11.8999 C   0  0  0  0  0  0  0  0  0  0  0  0
   23.4303  -19.7553  -11.3967 O   0  0  0  0  0  0  0  0  0  0  0  0
   22.3248  -22.0594  -15.6650 C   0  0  0  0  0  0  0  0  0  0  0  0
   22.0082  -21.0145  -14.6331 C   0  0  2  0  0  0  0  0  0  0  0  0
   22.8797  -19.8151  -14.9432 C   0  0  0  0  0  0  0  0  0  0  0  0
   22.0588  -21.4450  -13.2232 C   0  0  2  0  0  0  0  0  0  0  0  0
   23.4576  -21.6530  -12.7887 N   0  0  0  0  0  0  0  0  0  0  0  0
   21.3321  -22.6465  -12.8348 C   0  0  0  0  0  0  0  0  0  0  0  0
   21.6039  -23.8080  -13.2990 O   0  0  0  0  0  0  0  0  0  0  0  0
   18.7678  -23.0923   -7.1651 C   0  0  0  0  0  0  0  0  0  0  0  0
   17.9895  -24.5950   -7.8124 S   0  0  0  0  0  0  0  0  0  0  0  0
   18.2366  -24.6956   -9.5686 C   0  0  0  0  0  0  0  0  0  0  0  0
   19.1258  -23.7031  -10.1933 C   0  0  0  0  0  0  0  0  0  0  0  0
   19.4750  -23.8330  -11.6396 C   0  0  2  0  0  0  0  0  0  0  0  0
   20.2723  -22.5958  -11.9065 N   0  0  0  0  0  0  0  0  0  0  0  0
   18.2938  -23.8097  -12.5140 C   0  0  0  0  0  0  0  0  0  0  0  0
   17.7687  -22.5449  -12.8900 O   0  0  0  0  0  0  0  0  0  0  0  0
   17.7064  -24.8399  -12.9592 O   0  0  0  0  0  0  0  0  0  0  0  0
  2  1  1  1
  2 13  1  0
  3  2  1  0
  3  4  1  0
  4  5  2  0
  4 12  1  0
  5  6  1  0
  6  7  1  0
  7  8  2  0
  8  9  1  0
 10  9  2  0
 11 10  1  0
 12 11  2  0
 12  7  1  0
 13 19  1  0
 13 14  2  0
 16 18  1  0
 16 15  1  6
 17 16  1  0
 18 20  1  0
 18 19  1  6
 20 21  2  0
 22 23  1  0
 23 24  1  0
 24 25  1  0
 26 25  1  1
 26 28  1  0
 27 26  1  0
 27 20  1  0
 28 29  1  0
 30 28  2  0
M  END
$$$$
