WVM.pdb
     RDKit          3D

 30 31  0  0  1  0  0  0  0  0999 V2000
   24.3779  -19.3470  -17.9862 N   0  0  0  0  0  0  0  0  0  0  0  0
   24.5308  -18.6924  -16.7138 C   0  0  1  0  0  0  0  0  0  0  0  0
   23.3242  -17.9338  -16.2812 C   0  0  0  0  0  0  0  0  0  0  0  0
   22.9277  -16.8165  -17.1411 C   0  0  0  0  0  0  0  0  0  0  0  0
   21.6871  -16.6170  -17.7667 C   0  0  0  0  0  0  0  0  0  0  0  0
   21.7349  -15.4587  -18.4394 N   0  0  0  0  0  0  0  0  0  0  0  0
   22.9585  -14.8683  -18.2936 C   0  0  0  0  0  0  0  0  0  0  0  0
   23.4578  -13.6892  -18.8019 C   0  0  0  0  0  0  0  0  0  0  0  0
   24.7471  -13.3053  -18.5144 C   0  0  0  0  0  0  0  0  0  0  0  0
   25.4844  -14.1469  -17.7122 C   0  0  0  0  0  0  0  0  0  0  0  0
   24.9971  -15.3277  -17.1978 C   0  0  0  0  0  0  0  0  0  0  0  0
   23.6924  -15.7261  -17.4818 C   0  0  0  0  0  0  0  0  0  0  0  0
   24.8708  -19.6669  -15.6178 C   0  0  0  0  0  0  0  0  0  0  0  0
   24.1890  -20.7213  -15.5614 O   0  0  0  0  0  0  0  0  0  0  0  0
   28.6863  -19.4759  -13.4160 C   0  0  0  0  0  0  0  0  0  0  0  0
   27.7910  -20.6115  -13.8231 C   0  0  2  0  0  0  0  0  0  0  0  0
   28.2575  -21.0680  -15.1900 C   0  0  0  0  0  0  0  0  0  0  0  0
   26.3387  -20.3693  -13.7343 C   0  0  2  0  0  0  0  0  0  0  0  0
   25.9147  -19.3563  -14.7257 N   0  0  0  0  0  0  0  0  0  0  0  0
   25.7798  -19.9441  -12.4578 C   0  0  0  0  0  0  0  0  0  0  0  0
   25.6764  -18.7152  -12.1151 O   0  0  0  0  0  0  0  0  0  0  0  0
   20.9960  -23.0089   -9.4672 C   0  0  0  0  0  0  0  0  0  0  0  0
   21.0219  -21.3215   -8.8075 S   0  0  0  0  0  0  0  0  0  0  0  0
   22.6761  -20.6765   -8.8613 C   0  0  0  0  0  0  0  0  0  0  0  0
   23.4412  -20.8557  -10.1057 C   0  0  0  0  0  0  0  0  0  0  0  0
   24.8619  -20.3997  -10.1698 C   0  0  2  0  0  0  0  0  0  0  0  0
   25.3099  -20.8798  -11.5138 N   0  0  0  0  0  0  0  0  0  0  0  0
   25.7104  -21.0380   -9.1534 C   0  0  0  0  0  0  0  0  0  0  0  0
   25.8106  -20.4133   -7.8820 O   0  0  0  0  0  0  0  0  0  0  0  0
   26.3624  -22.1098   -9.3288 O   0  0  0  0  0  0  0  0  0  0  0  0
  2  1  1  6
  2 13  1  0
  3  2  1  0
  3  4  1  0
  4  5  2  0
  4 12  1  0
  5  6  1  0
  6  7  1  0
  7  8  2  0
  8  9  1  0
 10  9  2  0
 11 10  1  0
 12 11  2  0
 12  7  1  0
 13 19  1  0
 13 14  2  0
 16 18  1  0
 16 15  1  6
 17 16  1  0
 18 20  1  0
 18 19  1  6
 20 21  2  0
 22 23  1  0
 23 24  1  0
 24 25  1  0
 26 25  1  1
 26 28  1  0
 27 26  1  0
 27 20  1  0
 28 29  1  0
 30 28  2  0
M  END
$$$$
