WVM.pdb
     RDKit          3D

 30 31  0  0  1  0  0  0  0  0999 V2000
   24.0911  -20.8308  -16.2751 N   0  0  0  0  0  0  0  0  0  0  0  0
   24.2845  -19.9258  -15.1731 C   0  0  1  0  0  0  0  0  0  0  0  0
   23.0167  -19.3637  -14.6297 C   0  0  0  0  0  0  0  0  0  0  0  0
   22.2727  -18.4769  -15.5271 C   0  0  0  0  0  0  0  0  0  0  0  0
   22.7795  -17.4187  -16.2975 C   0  0  0  0  0  0  0  0  0  0  0  0
   21.7686  -16.8832  -16.9959 N   0  0  0  0  0  0  0  0  0  0  0  0
   20.5993  -17.5370  -16.7274 C   0  0  0  0  0  0  0  0  0  0  0  0
   19.3221  -17.3335  -17.2020 C   0  0  0  0  0  0  0  0  0  0  0  0
   18.2897  -18.1325  -16.7685 C   0  0  0  0  0  0  0  0  0  0  0  0
   18.6027  -19.1172  -15.8587 C   0  0  0  0  0  0  0  0  0  0  0  0
   19.8748  -19.3310  -15.3768 C   0  0  0  0  0  0  0  0  0  0  0  0
   20.9283  -18.5283  -15.8095 C   0  0  0  0  0  0  0  0  0  0  0  0
   25.0168  -20.5792  -14.0314 C   0  0  0  0  0  0  0  0  0  0  0  0
   24.5913  -21.6977  -13.6474 O   0  0  0  0  0  0  0  0  0  0  0  0
   28.8043  -21.2850  -13.8631 C   0  0  0  0  0  0  0  0  0  0  0  0
   28.3261  -20.5422  -12.6481 C   0  0  2  0  0  0  0  0  0  0  0  0
   29.1844  -21.0024  -11.4880 C   0  0  0  0  0  0  0  0  0  0  0  0
   26.8768  -20.5867  -12.3773 C   0  0  2  0  0  0  0  0  0  0  0  0
   26.1208  -19.9187  -13.4594 N   0  0  0  0  0  0  0  0  0  0  0  0
   26.3831  -20.0192  -11.1296 C   0  0  0  0  0  0  0  0  0  0  0  0
   26.0363  -18.7930  -11.0088 O   0  0  0  0  0  0  0  0  0  0  0  0
   22.1652  -22.7477   -7.7053 C   0  0  0  0  0  0  0  0  0  0  0  0
   22.9360  -21.9387   -6.2790 S   0  0  0  0  0  0  0  0  0  0  0  0
   24.2235  -20.8446   -6.8272 C   0  0  0  0  0  0  0  0  0  0  0  0
   24.7494  -21.0332   -8.1887 C   0  0  0  0  0  0  0  0  0  0  0  0
   25.8472  -20.1500   -8.6841 C   0  0  2  0  0  0  0  0  0  0  0  0
   26.2542  -20.8047   -9.9659 N   0  0  0  0  0  0  0  0  0  0  0  0
   27.0138  -20.1373   -7.7901 C   0  0  0  0  0  0  0  0  0  0  0  0
   28.0306  -21.1044   -8.0085 O   0  0  0  0  0  0  0  0  0  0  0  0
   27.1800  -19.3232   -6.8338 O   0  0  0  0  0  0  0  0  0  0  0  0
  2  1  1  6
  2 13  1  0
  3  2  1  0
  3  4  1  0
  4  5  2  0
  4 12  1  0
  5  6  1  0
  6  7  1  0
  7  8  2  0
  8  9  1  0
 10  9  2  0
 11 10  1  0
 12 11  2  0
 12  7  1  0
 13 19  1  0
 13 14  2  0
 16 18  1  0
 16 15  1  6
 17 16  1  0
 18 20  1  0
 18 19  1  6
 20 21  2  0
 22 23  1  0
 23 24  1  0
 24 25  1  0
 26 25  1  1
 26 28  1  0
 27 26  1  0
 27 20  1  0
 28 29  1  0
 30 28  2  0
M  END
$$$$
