WVM.pdb
     RDKit          3D

 30 31  0  0  1  0  0  0  0  0999 V2000
   23.6642  -15.7213  -18.1294 N   0  0  0  0  0  0  0  0  0  0  0  0
   24.1888  -16.5459  -17.0731 C   0  0  1  0  0  0  0  0  0  0  0  0
   25.1742  -15.8479  -16.2012 C   0  0  0  0  0  0  0  0  0  0  0  0
   26.5362  -15.7439  -16.7297 C   0  0  0  0  0  0  0  0  0  0  0  0
   27.0770  -14.7040  -17.5019 C   0  0  0  0  0  0  0  0  0  0  0  0
   28.3625  -14.9888  -17.7527 N   0  0  0  0  0  0  0  0  0  0  0  0
   28.7112  -16.1800  -17.1814 C   0  0  0  0  0  0  0  0  0  0  0  0
   29.9066  -16.8648  -17.1807 C   0  0  0  0  0  0  0  0  0  0  0  0
   30.0097  -18.0719  -16.5291 C   0  0  0  0  0  0  0  0  0  0  0  0
   28.8788  -18.5385  -15.8978 C   0  0  0  0  0  0  0  0  0  0  0  0
   27.6783  -17.8638  -15.8909 C   0  0  0  0  0  0  0  0  0  0  0  0
   27.5626  -16.6400  -16.5469 C   0  0  0  0  0  0  0  0  0  0  0  0
   23.0980  -17.0826  -16.1850 C   0  0  0  0  0  0  0  0  0  0  0  0
   22.3467  -16.2399  -15.6327 O   0  0  0  0  0  0  0  0  0  0  0  0
   19.7099  -20.2543  -15.1900 C   0  0  0  0  0  0  0  0  0  0  0  0
   20.7630  -19.4807  -15.9312 C   0  0  2  0  0  0  0  0  0  0  0  0
   21.1514  -20.3136  -17.1354 C   0  0  0  0  0  0  0  0  0  0  0  0
   21.9101  -19.0024  -15.1368 C   0  0  2  0  0  0  0  0  0  0  0  0
   22.9747  -18.4752  -16.0184 N   0  0  0  0  0  0  0  0  0  0  0  0
   22.5636  -19.9330  -14.2260 C   0  0  0  0  0  0  0  0  0  0  0  0
   23.3165  -20.8883  -14.6249 O   0  0  0  0  0  0  0  0  0  0  0  0
   26.0092  -20.8930   -7.3659 C   0  0  0  0  0  0  0  0  0  0  0  0
   25.3214  -19.8295   -8.6616 S   0  0  0  0  0  0  0  0  0  0  0  0
   24.3873  -20.8071   -9.8137 C   0  0  0  0  0  0  0  0  0  0  0  0
   23.8034  -20.1219  -10.9780 C   0  0  0  0  0  0  0  0  0  0  0  0
   22.9702  -20.8949  -11.9469 C   0  0  2  0  0  0  0  0  0  0  0  0
   22.4028  -19.8287  -12.8293 N   0  0  0  0  0  0  0  0  0  0  0  0
   21.8500  -21.5944  -11.3019 C   0  0  0  0  0  0  0  0  0  0  0  0
   22.0474  -22.9437  -10.9053 O   0  0  0  0  0  0  0  0  0  0  0  0
   20.7153  -21.0800  -11.0726 O   0  0  0  0  0  0  0  0  0  0  0  0
  2  1  1  6
  2 13  1  0
  3  2  1  0
  3  4  1  0
  4  5  2  0
  4 12  1  0
  5  6  1  0
  6  7  1  0
  7  8  2  0
  8  9  1  0
 10  9  2  0
 11 10  1  0
 12 11  2  0
 12  7  1  0
 13 19  1  0
 13 14  2  0
 16 18  1  0
 16 15  1  1
 17 16  1  0
 18 20  1  0
 18 19  1  6
 20 21  2  0
 22 23  1  0
 23 24  1  0
 24 25  1  0
 26 25  1  1
 26 28  1  0
 27 26  1  0
 27 20  1  0
 28 29  1  0
 30 28  2  0
M  END
$$$$
