WVM.pdb
     RDKit          3D

 30 31  0  0  1  0  0  0  0  0999 V2000
   24.9645  -18.2717  -14.9663 N   0  0  0  0  0  0  0  0  0  0  0  0
   26.0549  -18.6790  -14.1203 C   0  0  1  0  0  0  0  0  0  0  0  0
   27.2316  -17.7676  -14.1787 C   0  0  0  0  0  0  0  0  0  0  0  0
   27.9774  -17.7646  -15.4392 C   0  0  0  0  0  0  0  0  0  0  0  0
   28.2457  -16.6668  -16.2717 C   0  0  0  0  0  0  0  0  0  0  0  0
   28.9792  -17.0931  -17.3094 N   0  0  0  0  0  0  0  0  0  0  0  0
   29.2163  -18.4352  -17.2112 C   0  0  0  0  0  0  0  0  0  0  0  0
   29.9087  -19.2920  -18.0385 C   0  0  0  0  0  0  0  0  0  0  0  0
   30.0033  -20.6279  -17.7243 C   0  0  0  0  0  0  0  0  0  0  0  0
   29.3820  -21.0423  -16.5678 C   0  0  0  0  0  0  0  0  0  0  0  0
   28.6872  -20.1961  -15.7325 C   0  0  0  0  0  0  0  0  0  0  0  0
   28.5855  -18.8410  -16.0404 C   0  0  0  0  0  0  0  0  0  0  0  0
   25.6368  -18.7876  -12.6780 C   0  0  0  0  0  0  0  0  0  0  0  0
   24.8626  -17.8992  -12.2409 O   0  0  0  0  0  0  0  0  0  0  0  0
   23.8761  -21.1864   -9.1210 C   0  0  0  0  0  0  0  0  0  0  0  0
   24.5265  -20.9873  -10.4606 C   0  0  2  0  0  0  0  0  0  0  0  0
   24.8809  -22.3639  -10.9837 C   0  0  0  0  0  0  0  0  0  0  0  0
   25.6383  -20.0196  -10.5153 C   0  0  2  0  0  0  0  0  0  0  0  0
   26.1240  -19.8573  -11.9032 N   0  0  0  0  0  0  0  0  0  0  0  0
   26.8199  -20.2688   -9.7002 C   0  0  0  0  0  0  0  0  0  0  0  0
   27.7655  -21.0521  -10.0617 O   0  0  0  0  0  0  0  0  0  0  0  0
   27.7582  -16.8542   -4.2780 C   0  0  0  0  0  0  0  0  0  0  0  0
   29.2386  -17.8981   -4.2369 S   0  0  0  0  0  0  0  0  0  0  0  0
   29.0382  -19.2754   -5.3406 C   0  0  0  0  0  0  0  0  0  0  0  0
   28.2655  -19.0582   -6.5741 C   0  0  0  0  0  0  0  0  0  0  0  0
   27.9851  -20.2110   -7.4812 C   0  0  2  0  0  0  0  0  0  0  0  0
   26.9920  -19.6465   -8.4468 N   0  0  0  0  0  0  0  0  0  0  0  0
   27.3513  -21.3403   -6.7859 C   0  0  0  0  0  0  0  0  0  0  0  0
   28.1940  -22.2724   -6.1242 O   0  0  0  0  0  0  0  0  0  0  0  0
   26.1022  -21.5449   -6.7334 O   0  0  0  0  0  0  0  0  0  0  0  0
  2  1  1  6
  2 13  1  0
  3  2  1  0
  3  4  1  0
  4  5  2  0
  4 12  1  0
  5  6  1  0
  6  7  1  0
  7  8  2  0
  8  9  1  0
 10  9  2  0
 11 10  1  0
 12 11  2  0
 12  7  1  0
 13 19  1  0
 13 14  2  0
 16 18  1  0
 16 15  1  1
 17 16  1  0
 18 20  1  0
 18 19  1  6
 20 21  2  0
 22 23  1  0
 23 24  1  0
 24 25  1  0
 26 25  1  1
 26 28  1  0
 27 26  1  0
 27 20  1  0
 28 29  1  0
 30 28  2  0
M  END
$$$$
