WGQ.pdb
     RDKit          3D

 28 29  0  0  1  0  0  0  0  0999 V2000
   21.0056   -9.5874  -17.2357 N   0  0  0  0  0  0  0  0  0  0  0  0
   20.0104   -8.5809  -17.0917 C   0  0  1  0  0  0  0  0  0  0  0  0
   20.3942   -7.2126  -17.5637 C   0  0  0  0  0  0  0  0  0  0  0  0
   21.4751   -6.6288  -16.7402 C   0  0  0  0  0  0  0  0  0  0  0  0
   22.7899   -6.4651  -17.1462 C   0  0  0  0  0  0  0  0  0  0  0  0
   23.4647   -5.8884  -16.1445 N   0  0  0  0  0  0  0  0  0  0  0  0
   22.6403   -5.6729  -15.1075 C   0  0  0  0  0  0  0  0  0  0  0  0
   22.8601   -5.1090  -13.8448 C   0  0  0  0  0  0  0  0  0  0  0  0
   21.8381   -4.9983  -12.9296 C   0  0  0  0  0  0  0  0  0  0  0  0
   20.6098   -5.4616  -13.3095 C   0  0  0  0  0  0  0  0  0  0  0  0
   20.3662   -6.0192  -14.5420 C   0  0  0  0  0  0  0  0  0  0  0  0
   21.4061   -6.1279  -15.4655 C   0  0  0  0  0  0  0  0  0  0  0  0
   18.7080   -8.9837  -17.7118 C   0  0  0  0  0  0  0  0  0  0  0  0
   17.6842   -8.2960  -17.4779 O   0  0  0  0  0  0  0  0  0  0  0  0
   18.5852  -10.1139  -18.5555 N   0  0  0  0  0  0  0  0  0  0  0  0
   17.3325  -10.5353  -19.0733 C   0  0  0  0  0  0  0  0  0  0  0  0
   16.5755  -11.5092  -18.2899 C   0  0  0  0  0  0  0  0  0  0  0  0
   15.4411  -11.8367  -18.7006 O   0  0  0  0  0  0  0  0  0  0  0  0
   19.0088  -16.1655  -15.3233 N   0  0  0  0  0  0  0  0  0  0  0  0
   18.2406  -16.3092  -16.4993 C   0  0  0  0  0  0  0  0  0  0  0  0
   18.3746  -17.3397  -17.1983 O   0  0  0  0  0  0  0  0  0  0  0  0
   17.2948  -15.2003  -16.8461 C   0  0  0  0  0  0  0  0  0  0  0  0
   17.2747  -14.1450  -15.7928 C   0  0  0  0  0  0  0  0  0  0  0  0
   16.4129  -13.0105  -16.2360 C   0  0  2  0  0  0  0  0  0  0  0  0
   17.0858  -12.0813  -17.1042 N   0  0  0  0  0  0  0  0  0  0  0  0
   15.6788  -12.4084  -15.1042 C   0  0  0  0  0  0  0  0  0  0  0  0
   14.5110  -13.0201  -14.6820 O   0  0  0  0  0  0  0  0  0  0  0  0
   16.0680  -11.3935  -14.5326 O   0  0  0  0  0  0  0  0  0  0  0  0
  2  1  1  6
  3  4  1  0
  3  2  1  0
  4  5  2  0
  6  5  1  0
  7  6  1  0
  8  7  2  0
  9  8  1  0
 10  9  2  0
 10 11  1  0
 11 12  2  0
 12  7  1  0
 12  4  1  0
 13 15  1  0
 13  2  1  0
 14 13  2  0
 16 15  1  0
 17 16  1  0
 17 25  1  0
 18 17  2  0
 19 20  1  0
 20 21  2  0
 22 23  1  0
 22 20  1  0
 24 23  1  1
 24 25  1  0
 24 26  1  0
 26 27  1  0
 28 26  2  0
M  END
$$$$
