WGQ.pdb
     RDKit          3D

 28 29  0  0  1  0  0  0  0  0999 V2000
   26.7394  -19.6368  -16.4723 N   0  0  0  0  0  0  0  0  0  0  0  0
   25.9892  -18.8400  -15.5629 C   0  0  1  0  0  0  0  0  0  0  0  0
   24.8371  -18.0874  -16.1531 C   0  0  0  0  0  0  0  0  0  0  0  0
   25.2895  -16.9543  -16.9891 C   0  0  0  0  0  0  0  0  0  0  0  0
   24.9680  -16.7672  -18.3240 C   0  0  0  0  0  0  0  0  0  0  0  0
   25.5398  -15.6283  -18.7327 N   0  0  0  0  0  0  0  0  0  0  0  0
   26.2180  -15.0715  -17.7172 C   0  0  0  0  0  0  0  0  0  0  0  0
   26.9773  -13.8978  -17.6372 C   0  0  0  0  0  0  0  0  0  0  0  0
   27.5958  -13.5315  -16.4635 C   0  0  0  0  0  0  0  0  0  0  0  0
   27.4346  -14.3616  -15.3899 C   0  0  0  0  0  0  0  0  0  0  0  0
   26.6950  -15.5192  -15.4405 C   0  0  0  0  0  0  0  0  0  0  0  0
   26.0700  -15.8845  -16.6329 C   0  0  0  0  0  0  0  0  0  0  0  0
   25.5256  -19.6260  -14.3754 C   0  0  0  0  0  0  0  0  0  0  0  0
   25.4694  -20.8773  -14.4581 O   0  0  0  0  0  0  0  0  0  0  0  0
   25.1470  -19.0111  -13.1576 N   0  0  0  0  0  0  0  0  0  0  0  0
   24.5489  -19.7423  -12.0982 C   0  0  0  0  0  0  0  0  0  0  0  0
   23.1633  -20.1707  -12.2766 C   0  0  0  0  0  0  0  0  0  0  0  0
   22.6258  -19.9676  -13.3869 O   0  0  0  0  0  0  0  0  0  0  0  0
   20.2472  -24.0695   -8.2595 N   0  0  0  0  0  0  0  0  0  0  0  0
   19.9492  -22.7121   -8.0097 C   0  0  0  0  0  0  0  0  0  0  0  0
   19.4622  -22.3837   -6.9037 O   0  0  0  0  0  0  0  0  0  0  0  0
   20.2386  -21.7291   -9.1027 C   0  0  0  0  0  0  0  0  0  0  0  0
   20.8272  -22.3954  -10.2999 C   0  0  0  0  0  0  0  0  0  0  0  0
   21.1168  -21.3754  -11.3496 C   0  0  2  0  0  0  0  0  0  0  0  0
   22.4312  -20.7997  -11.2460 N   0  0  0  0  0  0  0  0  0  0  0  0
   20.0076  -20.4101  -11.4931 C   0  0  0  0  0  0  0  0  0  0  0  0
   18.8389  -20.8412  -12.0969 O   0  0  0  0  0  0  0  0  0  0  0  0
   20.0892  -19.2502  -11.0979 O   0  0  0  0  0  0  0  0  0  0  0  0
  2  1  1  6
  3  4  1  0
  3  2  1  0
  4  5  2  0
  6  5  1  0
  7  6  1  0
  8  7  2  0
  9  8  1  0
 10  9  2  0
 10 11  1  0
 11 12  2  0
 12  7  1  0
 12  4  1  0
 13 15  1  0
 13  2  1  0
 14 13  2  0
 16 15  1  0
 17 16  1  0
 17 25  1  0
 18 17  2  0
 19 20  1  0
 20 21  2  0
 22 23  1  0
 22 20  1  0
 24 23  1  1
 24 25  1  0
 24 26  1  0
 26 27  1  0
 28 26  2  0
M  END
$$$$
