WGQ.pdb
     RDKit          3D

 28 29  0  0  1  0  0  0  0  0999 V2000
   27.6525  -22.4250  -10.3156 N   0  0  0  0  0  0  0  0  0  0  0  0
   26.8731  -21.2621  -10.0609 C   0  0  1  0  0  0  0  0  0  0  0  0
   27.6332  -20.0553   -9.6046 C   0  0  0  0  0  0  0  0  0  0  0  0
   28.4986  -20.3557   -8.4434 C   0  0  0  0  0  0  0  0  0  0  0  0
   29.7159  -21.0152   -8.5028 C   0  0  0  0  0  0  0  0  0  0  0  0
   30.2120  -21.0830   -7.2617 N   0  0  0  0  0  0  0  0  0  0  0  0
   29.3653  -20.4949   -6.4022 C   0  0  0  0  0  0  0  0  0  0  0  0
   29.4244  -20.3117   -5.0153 C   0  0  0  0  0  0  0  0  0  0  0  0
   28.4109  -19.6699   -4.3406 C   0  0  0  0  0  0  0  0  0  0  0  0
   27.3536  -19.2246   -5.0833 C   0  0  0  0  0  0  0  0  0  0  0  0
   27.2700  -19.3908   -6.4452 C   0  0  0  0  0  0  0  0  0  0  0  0
   28.3009  -20.0415   -7.1233 C   0  0  0  0  0  0  0  0  0  0  0  0
   26.0020  -20.9018  -11.2246 C   0  0  0  0  0  0  0  0  0  0  0  0
   26.5025  -20.8796  -12.3756 O   0  0  0  0  0  0  0  0  0  0  0  0
   24.6302  -20.5843  -11.0775 N   0  0  0  0  0  0  0  0  0  0  0  0
   23.8402  -20.1325  -12.1669 C   0  0  0  0  0  0  0  0  0  0  0  0
   22.3883  -20.2027  -12.0178 C   0  0  0  0  0  0  0  0  0  0  0  0
   21.8866  -19.7693  -10.9580 O   0  0  0  0  0  0  0  0  0  0  0  0
   18.6949  -21.7358  -16.8299 N   0  0  0  0  0  0  0  0  0  0  0  0
   19.5304  -20.6026  -16.7230 C   0  0  0  0  0  0  0  0  0  0  0  0
   19.7817  -19.9262  -17.7465 O   0  0  0  0  0  0  0  0  0  0  0  0
   20.0755  -20.2720  -15.3672 C   0  0  0  0  0  0  0  0  0  0  0  0
   19.5132  -21.1668  -14.3152 C   0  0  0  0  0  0  0  0  0  0  0  0
   20.1178  -20.8285  -12.9937 C   0  0  2  0  0  0  0  0  0  0  0  0
   21.5532  -20.7351  -13.0243 N   0  0  0  0  0  0  0  0  0  0  0  0
   19.5561  -21.6584  -11.9083 C   0  0  0  0  0  0  0  0  0  0  0  0
   20.2899  -22.7476  -11.4706 O   0  0  0  0  0  0  0  0  0  0  0  0
   18.4706  -21.4150  -11.3880 O   0  0  0  0  0  0  0  0  0  0  0  0
  2  1  1  6
  3  4  1  0
  3  2  1  0
  4  5  2  0
  6  5  1  0
  7  6  1  0
  8  7  2  0
  9  8  1  0
 10  9  2  0
 10 11  1  0
 11 12  2  0
 12  7  1  0
 12  4  1  0
 13 15  1  0
 13  2  1  0
 14 13  2  0
 16 15  1  0
 17 16  1  0
 17 25  1  0
 18 17  2  0
 19 20  1  0
 20 21  2  0
 22 23  1  0
 22 20  1  0
 24 23  1  6
 24 25  1  0
 24 26  1  0
 26 27  1  0
 28 26  2  0
M  END
$$$$
