WGQ.pdb
     RDKit          3D

 28 29  0  0  1  0  0  0  0  0999 V2000
   25.1819  -22.4156  -11.6366 N   0  0  0  0  0  0  0  0  0  0  0  0
   24.9854  -21.3284  -10.7401 C   0  0  1  0  0  0  0  0  0  0  0  0
   26.0116  -20.2395  -10.8013 C   0  0  0  0  0  0  0  0  0  0  0  0
   27.2559  -20.6147  -10.0952 C   0  0  0  0  0  0  0  0  0  0  0  0
   28.3222  -21.2951  -10.6611 C   0  0  0  0  0  0  0  0  0  0  0  0
   29.2689  -21.4345   -9.7255 N   0  0  0  0  0  0  0  0  0  0  0  0
   28.8584  -20.8725   -8.5778 C   0  0  0  0  0  0  0  0  0  0  0  0
   29.4725  -20.7594   -7.3246 C   0  0  0  0  0  0  0  0  0  0  0  0
   28.8375  -20.1313   -6.2774 C   0  0  0  0  0  0  0  0  0  0  0  0
   27.5898  -19.6282   -6.5181 C   0  0  0  0  0  0  0  0  0  0  0  0
   26.9638  -19.7250   -7.7380 C   0  0  0  0  0  0  0  0  0  0  0  0
   27.6131  -20.3622   -8.7955 C   0  0  0  0  0  0  0  0  0  0  0  0
   23.6139  -20.7391  -10.8613 C   0  0  0  0  0  0  0  0  0  0  0  0
   23.3563  -19.6682  -10.2591 O   0  0  0  0  0  0  0  0  0  0  0  0
   22.5920  -21.3442  -11.6319 N   0  0  0  0  0  0  0  0  0  0  0  0
   21.2320  -21.3281  -11.2257 C   0  0  0  0  0  0  0  0  0  0  0  0
   20.6691  -22.5761  -10.7149 C   0  0  0  0  0  0  0  0  0  0  0  0
   21.1263  -23.6507  -11.1610 O   0  0  0  0  0  0  0  0  0  0  0  0
   16.1979  -23.1049   -6.1465 N   0  0  0  0  0  0  0  0  0  0  0  0
   16.5781  -24.4466   -6.3676 C   0  0  0  0  0  0  0  0  0  0  0  0
   16.0713  -25.3519   -5.6662 O   0  0  0  0  0  0  0  0  0  0  0  0
   17.5828  -24.7108   -7.4471 C   0  0  0  0  0  0  0  0  0  0  0  0
   18.0519  -23.4463   -8.0831 C   0  0  0  0  0  0  0  0  0  0  0  0
   19.0262  -23.7623   -9.1681 C   0  0  2  0  0  0  0  0  0  0  0  0
   19.6429  -22.5976   -9.7453 N   0  0  0  0  0  0  0  0  0  0  0  0
   18.4722  -24.7345  -10.1328 C   0  0  0  0  0  0  0  0  0  0  0  0
   18.8280  -26.0654   -9.9979 O   0  0  0  0  0  0  0  0  0  0  0  0
   17.7144  -24.4024  -11.0403 O   0  0  0  0  0  0  0  0  0  0  0  0
  2  1  1  6
  3  4  1  0
  3  2  1  0
  4  5  2  0
  6  5  1  0
  7  6  1  0
  8  7  2  0
  9  8  1  0
 10  9  2  0
 10 11  1  0
 11 12  2  0
 12  7  1  0
 12  4  1  0
 13 15  1  0
 13  2  1  0
 14 13  2  0
 16 15  1  0
 17 16  1  0
 17 25  1  0
 18 17  2  0
 19 20  1  0
 20 21  2  0
 22 23  1  0
 22 20  1  0
 24 23  1  1
 24 25  1  0
 24 26  1  0
 26 27  1  0
 28 26  2  0
M  END
$$$$
