WGQ.pdb
     RDKit          3D

 28 29  0  0  1  0  0  0  0  0999 V2000
   25.1270  -20.5332   -8.4074 N   0  0  0  0  0  0  0  0  0  0  0  0
   26.3114  -20.3393   -9.1716 C   0  0  1  0  0  0  0  0  0  0  0  0
   27.5932  -20.7115   -8.4929 C   0  0  0  0  0  0  0  0  0  0  0  0
   27.8186  -19.9157   -7.2667 C   0  0  0  0  0  0  0  0  0  0  0  0
   27.3161  -18.6454   -7.0343 C   0  0  0  0  0  0  0  0  0  0  0  0
   27.7119  -18.2592   -5.8156 N   0  0  0  0  0  0  0  0  0  0  0  0
   28.4500  -19.2274   -5.2506 C   0  0  0  0  0  0  0  0  0  0  0  0
   29.0879  -19.3060   -4.0066 C   0  0  0  0  0  0  0  0  0  0  0  0
   29.8063  -20.4236   -3.6470 C   0  0  0  0  0  0  0  0  0  0  0  0
   29.8664  -21.4433   -4.5549 C   0  0  0  0  0  0  0  0  0  0  0  0
   29.2499  -21.3927   -5.7824 C   0  0  0  0  0  0  0  0  0  0  0  0
   28.5226  -20.2575   -6.1406 C   0  0  0  0  0  0  0  0  0  0  0  0
   26.2343  -21.0078  -10.5096 C   0  0  0  0  0  0  0  0  0  0  0  0
   26.9084  -22.0475  -10.7102 O   0  0  0  0  0  0  0  0  0  0  0  0
   25.4271  -20.5117  -11.5617 N   0  0  0  0  0  0  0  0  0  0  0  0
   25.2499  -21.2249  -12.7761 C   0  0  0  0  0  0  0  0  0  0  0  0
   24.3110  -20.6708  -13.7491 C   0  0  0  0  0  0  0  0  0  0  0  0
   24.1720  -19.4290  -13.7875 O   0  0  0  0  0  0  0  0  0  0  0  0
   19.9802  -22.8589  -12.3957 N   0  0  0  0  0  0  0  0  0  0  0  0
   20.5380  -23.7771  -13.3121 C   0  0  0  0  0  0  0  0  0  0  0  0
   20.0172  -24.9086  -13.4415 O   0  0  0  0  0  0  0  0  0  0  0  0
   21.7406  -23.3341  -14.0879 C   0  0  0  0  0  0  0  0  0  0  0  0
   21.3698  -22.4067  -15.1952 C   0  0  0  0  0  0  0  0  0  0  0  0
   22.2679  -21.2154  -15.1732 C   0  0  2  0  0  0  0  0  0  0  0  0
   23.5731  -21.4882  -14.6329 N   0  0  0  0  0  0  0  0  0  0  0  0
   21.5850  -20.0274  -14.6211 C   0  0  0  0  0  0  0  0  0  0  0  0
   22.2837  -18.8332  -14.5755 O   0  0  0  0  0  0  0  0  0  0  0  0
   20.4299  -20.0658  -14.2059 O   0  0  0  0  0  0  0  0  0  0  0  0
  2  1  1  1
  3  4  1  0
  3  2  1  0
  4  5  2  0
  6  5  1  0
  7  6  1  0
  8  7  2  0
  9  8  1  0
 10  9  2  0
 10 11  1  0
 11 12  2  0
 12  7  1  0
 12  4  1  0
 13 15  1  0
 13  2  1  0
 14 13  2  0
 16 15  1  0
 17 16  1  0
 17 25  1  0
 18 17  2  0
 19 20  1  0
 20 21  2  0
 22 23  1  0
 22 20  1  0
 24 23  1  1
 24 25  1  0
 24 26  1  0
 26 27  1  0
 28 26  2  0
M  END
$$$$
