WGQ.pdb
     RDKit          3D

 28 29  0  0  1  0  0  0  0  0999 V2000
   26.6774  -21.9076  -10.6417 N   0  0  0  0  0  0  0  0  0  0  0  0
   26.0792  -20.9492   -9.7768 C   0  0  1  0  0  0  0  0  0  0  0  0
   26.9456  -19.7911   -9.3888 C   0  0  0  0  0  0  0  0  0  0  0  0
   28.0879  -20.2143   -8.5500 C   0  0  0  0  0  0  0  0  0  0  0  0
   29.2187  -20.8696   -9.0107 C   0  0  0  0  0  0  0  0  0  0  0  0
   30.0361  -21.0681   -7.9698 N   0  0  0  0  0  0  0  0  0  0  0  0
   29.4803  -20.5684   -6.8550 C   0  0  0  0  0  0  0  0  0  0  0  0
   29.9267  -20.5303   -5.5284 C   0  0  0  0  0  0  0  0  0  0  0  0
   29.1613  -19.9572   -4.5384 C   0  0  0  0  0  0  0  0  0  0  0  0
   27.9553  -19.4324   -4.9097 C   0  0  0  0  0  0  0  0  0  0  0  0
   27.4927  -19.4561   -6.2039 C   0  0  0  0  0  0  0  0  0  0  0  0
   28.2736  -20.0377   -7.2029 C   0  0  0  0  0  0  0  0  0  0  0  0
   24.7724  -20.4478  -10.3095 C   0  0  0  0  0  0  0  0  0  0  0  0
   24.1287  -19.6006   -9.6436 O   0  0  0  0  0  0  0  0  0  0  0  0
   24.2321  -20.8931  -11.5400 N   0  0  0  0  0  0  0  0  0  0  0  0
   22.8783  -20.6597  -11.8971 C   0  0  0  0  0  0  0  0  0  0  0  0
   21.8997  -21.6777  -11.5210 C   0  0  0  0  0  0  0  0  0  0  0  0
   22.0353  -22.2392  -10.4123 O   0  0  0  0  0  0  0  0  0  0  0  0
   19.4372  -23.9419   -8.1285 N   0  0  0  0  0  0  0  0  0  0  0  0
   18.2253  -24.0746   -8.8408 C   0  0  0  0  0  0  0  0  0  0  0  0
   17.3050  -24.7757   -8.3616 O   0  0  0  0  0  0  0  0  0  0  0  0
   18.1118  -23.3558  -10.1504 C   0  0  0  0  0  0  0  0  0  0  0  0
   19.3614  -22.6115  -10.4793 C   0  0  0  0  0  0  0  0  0  0  0  0
   19.5632  -22.5991  -11.9576 C   0  0  2  0  0  0  0  0  0  0  0  0
   20.8228  -22.0337  -12.3620 N   0  0  0  0  0  0  0  0  0  0  0  0
   18.3750  -22.0808  -12.6662 C   0  0  0  0  0  0  0  0  0  0  0  0
   17.3971  -22.9823  -13.0501 O   0  0  0  0  0  0  0  0  0  0  0  0
   18.2294  -20.8887  -12.9224 O   0  0  0  0  0  0  0  0  0  0  0  0
  2  1  1  6
  3  4  1  0
  3  2  1  0
  4  5  2  0
  6  5  1  0
  7  6  1  0
  8  7  2  0
  9  8  1  0
 10  9  2  0
 10 11  1  0
 11 12  2  0
 12  7  1  0
 12  4  1  0
 13 15  1  0
 13  2  1  0
 14 13  2  0
 16 15  1  0
 17 16  1  0
 17 25  1  0
 18 17  2  0
 19 20  1  0
 20 21  2  0
 22 23  1  0
 22 20  1  0
 24 23  1  1
 24 25  1  0
 24 26  1  0
 26 27  1  0
 28 26  2  0
M  END
$$$$
