WGQ.pdb
     RDKit          3D

 28 29  0  0  1  0  0  0  0  0999 V2000
   19.3528  -19.1460  -15.1424 N   0  0  0  0  0  0  0  0  0  0  0  0
   20.5009  -19.2190  -14.3052 C   0  0  1  0  0  0  0  0  0  0  0  0
   21.3140  -17.9657  -14.2034 C   0  0  0  0  0  0  0  0  0  0  0  0
   21.7079  -17.4548  -15.5343 C   0  0  0  0  0  0  0  0  0  0  0  0
   21.1646  -16.3422  -16.1565 C   0  0  0  0  0  0  0  0  0  0  0  0
   21.7837  -16.1806  -17.3320 N   0  0  0  0  0  0  0  0  0  0  0  0
   22.7045  -17.1432  -17.4956 C   0  0  0  0  0  0  0  0  0  0  0  0
   23.5967  -17.4104  -18.5412 C   0  0  0  0  0  0  0  0  0  0  0  0
   24.4587  -18.4817  -18.4821 C   0  0  0  0  0  0  0  0  0  0  0  0
   24.4019  -19.2650  -17.3636 C   0  0  0  0  0  0  0  0  0  0  0  0
   23.5365  -19.0258  -16.3228 C   0  0  0  0  0  0  0  0  0  0  0  0
   22.6658  -17.9379  -16.3885 C   0  0  0  0  0  0  0  0  0  0  0  0
   20.1670  -19.7188  -12.9334 C   0  0  0  0  0  0  0  0  0  0  0  0
   19.2071  -19.1994  -12.3134 O   0  0  0  0  0  0  0  0  0  0  0  0
   20.8940  -20.7589  -12.3056 N   0  0  0  0  0  0  0  0  0  0  0  0
   20.5330  -21.2674  -11.0304 C   0  0  0  0  0  0  0  0  0  0  0  0
   19.7075  -22.4727  -10.9975 C   0  0  0  0  0  0  0  0  0  0  0  0
   19.3167  -22.9450  -12.0871 O   0  0  0  0  0  0  0  0  0  0  0  0
   18.7280  -25.8210   -5.7270 N   0  0  0  0  0  0  0  0  0  0  0  0
   18.1452  -24.5459   -5.8952 C   0  0  0  0  0  0  0  0  0  0  0  0
   17.7088  -23.9334   -4.8939 O   0  0  0  0  0  0  0  0  0  0  0  0
   18.0831  -23.9931   -7.2862 C   0  0  0  0  0  0  0  0  0  0  0  0
   18.6967  -24.9243   -8.2761 C   0  0  0  0  0  0  0  0  0  0  0  0
   18.6092  -24.3321   -9.6427 C   0  0  2  0  0  0  0  0  0  0  0  0
   19.3498  -23.1072   -9.7879 N   0  0  0  0  0  0  0  0  0  0  0  0
   17.2164  -24.2969  -10.1340 C   0  0  0  0  0  0  0  0  0  0  0  0
   16.6574  -25.4740  -10.6011 O   0  0  0  0  0  0  0  0  0  0  0  0
   16.5467  -23.2676  -10.1409 O   0  0  0  0  0  0  0  0  0  0  0  0
  2  1  1  6
  3  4  1  0
  3  2  1  0
  4  5  2  0
  6  5  1  0
  7  6  1  0
  8  7  2  0
  9  8  1  0
 10  9  2  0
 10 11  1  0
 11 12  2  0
 12  7  1  0
 12  4  1  0
 13 15  1  0
 13  2  1  0
 14 13  2  0
 16 15  1  0
 17 16  1  0
 17 25  1  0
 18 17  2  0
 19 20  1  0
 20 21  2  0
 22 23  1  0
 22 20  1  0
 24 23  1  1
 24 25  1  0
 24 26  1  0
 26 27  1  0
 28 26  2  0
M  END
$$$$
