WGQ.pdb
     RDKit          3D

 28 29  0  0  1  0  0  0  0  0999 V2000
   26.7284  -21.9636  -10.5277 N   0  0  0  0  0  0  0  0  0  0  0  0
   26.0402  -20.8598   -9.9512 C   0  0  1  0  0  0  0  0  0  0  0  0
   26.9038  -19.7490   -9.4387 C   0  0  0  0  0  0  0  0  0  0  0  0
   27.9589  -20.2461   -8.5294 C   0  0  0  0  0  0  0  0  0  0  0  0
   29.0644  -20.9867   -8.9164 C   0  0  0  0  0  0  0  0  0  0  0  0
   29.8004  -21.2340   -7.8264 N   0  0  0  0  0  0  0  0  0  0  0  0
   29.2161  -20.6842   -6.7504 C   0  0  0  0  0  0  0  0  0  0  0  0
   29.5829  -20.6657   -5.3992 C   0  0  0  0  0  0  0  0  0  0  0  0
   28.8030  -20.0287   -4.4610 C   0  0  0  0  0  0  0  0  0  0  0  0
   27.6635  -19.4209   -4.9082 C   0  0  0  0  0  0  0  0  0  0  0  0
   27.2798  -19.4235   -6.2281 C   0  0  0  0  0  0  0  0  0  0  0  0
   28.0751  -20.0703   -7.1743 C   0  0  0  0  0  0  0  0  0  0  0  0
   24.9947  -20.3060  -10.8695 C   0  0  0  0  0  0  0  0  0  0  0  0
   24.1616  -19.4831  -10.4172 O   0  0  0  0  0  0  0  0  0  0  0  0
   24.9086  -20.6749  -12.2336 N   0  0  0  0  0  0  0  0  0  0  0  0
   24.1059  -19.9580  -13.1591 C   0  0  0  0  0  0  0  0  0  0  0  0
   22.9404  -20.6456  -13.7105 C   0  0  0  0  0  0  0  0  0  0  0  0
   22.1182  -19.9704  -14.3670 O   0  0  0  0  0  0  0  0  0  0  0  0
   24.0023  -23.7439  -15.3935 N   0  0  0  0  0  0  0  0  0  0  0  0
   24.1808  -24.4291  -14.1719 C   0  0  0  0  0  0  0  0  0  0  0  0
   25.3263  -24.8170  -13.8470 O   0  0  0  0  0  0  0  0  0  0  0  0
   22.9671  -24.6548  -13.3230 C   0  0  0  0  0  0  0  0  0  0  0  0
   21.7222  -24.2127  -14.0147 C   0  0  0  0  0  0  0  0  0  0  0  0
   21.5098  -22.7545  -13.7811 C   0  0  2  0  0  0  0  0  0  0  0  0
   22.7258  -22.0290  -13.5263 N   0  0  0  0  0  0  0  0  0  0  0  0
   20.4094  -22.5095  -12.8263 C   0  0  0  0  0  0  0  0  0  0  0  0
   19.1993  -23.1452  -13.0452 O   0  0  0  0  0  0  0  0  0  0  0  0
   20.5332  -21.7677  -11.8553 O   0  0  0  0  0  0  0  0  0  0  0  0
  2  1  1  6
  3  4  1  0
  3  2  1  0
  4  5  2  0
  6  5  1  0
  7  6  1  0
  8  7  2  0
  9  8  1  0
 10  9  2  0
 10 11  1  0
 11 12  2  0
 12  7  1  0
 12  4  1  0
 13 15  1  0
 13  2  1  0
 14 13  2  0
 16 15  1  0
 17 16  1  0
 17 25  1  0
 18 17  2  0
 19 20  1  0
 20 21  2  0
 22 23  1  0
 22 20  1  0
 24 23  1  1
 24 25  1  0
 24 26  1  0
 26 27  1  0
 28 26  2  0
M  END
$$$$
