QCK.pdb
     RDKit          3D

 25 24  0  0  1  0  0  0  0  0999 V2000
    8.3275  -13.0391   16.9941 N   0  0  0  0  0  0  0  0  0  0  0  0
    8.1282  -14.3146   16.3450 C   0  0  0  0  0  0  0  0  0  0  0  0
    7.4026  -14.2631   15.3257 O   0  0  0  0  0  0  0  0  0  0  0  0
    8.7456  -15.5293   16.8722 C   0  0  0  0  0  0  0  0  0  0  0  0
    9.5345  -15.4244   18.1073 C   0  0  0  0  0  0  0  0  0  0  0  0
    9.1601  -16.1959   19.2994 C   0  0  2  0  0  0  0  0  0  0  0  0
    7.9822  -16.9636   19.1112 N   0  0  0  0  0  0  0  0  0  0  0  0
    9.1849  -15.4520   20.5689 C   0  0  0  0  0  0  0  0  0  0  0  0
   10.1885  -14.7693   20.9161 O   0  0  0  0  0  0  0  0  0  0  0  0
    8.0821  -15.4718   21.4560 N   0  0  0  0  0  0  0  0  0  0  0  0
    8.2007  -14.7799   22.7476 C   0  0  1  0  0  0  0  0  0  0  0  0
    6.7926  -14.4474   23.2135 C   0  0  0  0  0  0  0  0  0  0  0  0
    6.7797  -13.5452   24.7702 S   0  0  0  0  0  0  0  0  0  0  0  0
    8.7761  -15.6968   23.7754 C   0  0  0  0  0  0  0  0  0  0  0  0
    8.5692  -16.9241   23.7715 O   0  0  0  0  0  0  0  0  0  0  0  0
    9.5805  -15.1413   24.7809 N   0  0  0  0  0  0  0  0  0  0  0  0
   10.1281  -15.8877   25.8962 C   0  0  1  0  0  0  0  0  0  0  0  0
   10.1892  -14.9930   27.0950 C   0  0  0  0  0  0  0  0  0  0  0  0
   10.6297  -15.6295   28.3565 C   0  0  0  0  0  0  0  0  0  0  0  0
   10.6778  -14.7719   29.5671 C   0  0  0  0  0  0  0  0  0  0  0  0
   11.0080  -15.4585   30.8476 C   0  0  0  0  0  0  0  0  0  0  0  0
   10.9730  -14.6218   32.0204 N   0  0  0  0  0  0  0  0  0  0  0  0
    9.3946  -17.1427   26.1385 C   0  0  0  0  0  0  0  0  0  0  0  0
   10.0016  -18.2262   26.3311 O   0  0  0  0  0  0  0  0  0  0  0  0
    8.0000  -17.2132   26.1702 O   0  0  0  0  0  0  0  0  0  0  0  0
  1  2  1  0
  2  4  1  0
  3  2  2  0
  4  5  1  0
  5  6  1  0
  6  7  1  6
  8  6  1  0
  8 10  1  0
  9  8  2  0
 11 10  1  0
 11 14  1  0
 11 12  1  1
 13 12  1  0
 14 15  2  0
 16 14  1  0
 16 17  1  0
 17 23  1  0
 17 18  1  1
 19 18  1  0
 20 19  1  0
 21 22  1  0
 21 20  1  0
 23 25  1  0
 24 23  2  0
M  END
$$$$
