QCK.pdb
     RDKit          3D

 25 24  0  0  1  0  0  0  0  0999 V2000
   12.9320  -23.4456   13.2405 N   0  0  0  0  0  0  0  0  0  0  0  0
   12.5199  -22.6364   12.1164 C   0  0  0  0  0  0  0  0  0  0  0  0
   12.0121  -23.2876   11.1751 O   0  0  0  0  0  0  0  0  0  0  0  0
   12.7003  -21.1865   12.1295 C   0  0  0  0  0  0  0  0  0  0  0  0
   13.1922  -20.5618   13.3650 C   0  0  0  0  0  0  0  0  0  0  0  0
   12.2594  -20.1958   14.4384 C   0  0  2  0  0  0  0  0  0  0  0  0
   11.3614  -19.1648   14.0602 N   0  0  0  0  0  0  0  0  0  0  0  0
   12.8664  -19.9948   15.7639 C   0  0  0  0  0  0  0  0  0  0  0  0
   13.3571  -18.8828   16.1051 O   0  0  0  0  0  0  0  0  0  0  0  0
   12.9263  -21.0430   16.7132 N   0  0  0  0  0  0  0  0  0  0  0  0
   13.4663  -20.7565   18.0501 C   0  0  1  0  0  0  0  0  0  0  0  0
   12.4418  -21.2380   19.0644 C   0  0  0  0  0  0  0  0  0  0  0  0
   12.9548  -20.9243   20.7602 S   0  0  0  0  0  0  0  0  0  0  0  0
   14.7028  -21.5573   18.2918 C   0  0  0  0  0  0  0  0  0  0  0  0
   14.7844  -22.7673   18.0121 O   0  0  0  0  0  0  0  0  0  0  0  0
   15.8103  -20.9091   18.8572 N   0  0  0  0  0  0  0  0  0  0  0  0
   17.0753  -21.5542   19.1481 C   0  0  1  0  0  0  0  0  0  0  0  0
   18.1745  -20.5458   19.0202 C   0  0  0  0  0  0  0  0  0  0  0  0
   18.6621  -20.2899   17.6465 C   0  0  0  0  0  0  0  0  0  0  0  0
   19.6907  -19.2331   17.4788 C   0  0  0  0  0  0  0  0  0  0  0  0
   20.1207  -18.9487   16.0807 C   0  0  0  0  0  0  0  0  0  0  0  0
   21.0191  -17.8322   15.9291 N   0  0  0  0  0  0  0  0  0  0  0  0
   17.0609  -22.2434   20.4506 C   0  0  0  0  0  0  0  0  0  0  0  0
   17.6187  -23.3590   20.6044 O   0  0  0  0  0  0  0  0  0  0  0  0
   16.4377  -21.7139   21.5830 O   0  0  0  0  0  0  0  0  0  0  0  0
  1  2  1  0
  2  4  1  0
  3  2  2  0
  4  5  1  0
  5  6  1  0
  6  7  1  6
  8  6  1  0
  8 10  1  0
  9  8  2  0
 11 10  1  0
 11 14  1  0
 11 12  1  1
 13 12  1  0
 14 15  2  0
 16 14  1  0
 16 17  1  0
 17 23  1  0
 17 18  1  1
 19 18  1  0
 20 19  1  0
 21 22  1  0
 21 20  1  0
 23 25  1  0
 24 23  2  0
M  END
$$$$
