QCK.pdb
     RDKit          3D

 25 24  0  0  1  0  0  0  0  0999 V2000
    9.5826  -13.2099   17.6658 N   0  0  0  0  0  0  0  0  0  0  0  0
    8.1457  -13.2974   17.5405 C   0  0  0  0  0  0  0  0  0  0  0  0
    7.7361  -13.3395   16.3579 O   0  0  0  0  0  0  0  0  0  0  0  0
    7.2902  -13.3336   18.7244 C   0  0  0  0  0  0  0  0  0  0  0  0
    7.9332  -13.2821   20.0444 C   0  0  0  0  0  0  0  0  0  0  0  0
    7.6545  -14.3145   21.0508 C   0  0  2  0  0  0  0  0  0  0  0  0
    6.2951  -14.7194   21.0628 N   0  0  0  0  0  0  0  0  0  0  0  0
    8.2075  -14.0589   22.3904 C   0  0  0  0  0  0  0  0  0  0  0  0
    9.4349  -13.8201   22.5650 O   0  0  0  0  0  0  0  0  0  0  0  0
    7.3843  -14.0711   23.5418 N   0  0  0  0  0  0  0  0  0  0  0  0
    7.9962  -13.8053   24.8517 C   0  0  1  0  0  0  0  0  0  0  0  0
    6.9918  -13.0067   25.6664 C   0  0  0  0  0  0  0  0  0  0  0  0
    7.5438  -12.7297   27.3563 S   0  0  0  0  0  0  0  0  0  0  0  0
    8.2128  -15.0838   25.5912 C   0  0  0  0  0  0  0  0  0  0  0  0
    7.2812  -15.8536   25.8886 O   0  0  0  0  0  0  0  0  0  0  0  0
    9.5232  -15.4202   25.9604 N   0  0  0  0  0  0  0  0  0  0  0  0
    9.8797  -16.5925   26.7347 C   0  0  1  0  0  0  0  0  0  0  0  0
   10.9325  -17.3594   25.9966 C   0  0  0  0  0  0  0  0  0  0  0  0
   10.5532  -17.8517   24.6534 C   0  0  0  0  0  0  0  0  0  0  0  0
   11.5831  -18.6005   23.8907 C   0  0  0  0  0  0  0  0  0  0  0  0
   11.1661  -19.1226   22.5589 C   0  0  0  0  0  0  0  0  0  0  0  0
   12.2205  -19.7102   21.7716 N   0  0  0  0  0  0  0  0  0  0  0  0
   10.2637  -16.2504   28.1157 C   0  0  0  0  0  0  0  0  0  0  0  0
   10.5338  -15.0677   28.4437 O   0  0  0  0  0  0  0  0  0  0  0  0
   10.3524  -17.1998   29.1365 O   0  0  0  0  0  0  0  0  0  0  0  0
  1  2  1  0
  2  4  1  0
  3  2  2  0
  4  5  1  0
  5  6  1  0
  6  7  1  1
  8  6  1  0
  8 10  1  0
  9  8  2  0
 11 10  1  0
 11 14  1  0
 11 12  1  1
 13 12  1  0
 14 15  2  0
 16 14  1  0
 16 17  1  0
 17 23  1  0
 17 18  1  6
 19 18  1  0
 20 19  1  0
 21 22  1  0
 21 20  1  0
 23 25  1  0
 24 23  2  0
M  END
$$$$
