QCK.pdb
     RDKit          3D

 25 24  0  0  1  0  0  0  0  0999 V2000
    8.5221  -12.6025   18.2015 N   0  0  0  0  0  0  0  0  0  0  0  0
    7.9654  -13.8920   17.8619 C   0  0  0  0  0  0  0  0  0  0  0  0
    7.4405  -13.9406   16.7261 O   0  0  0  0  0  0  0  0  0  0  0  0
    8.0383  -15.0108   18.7988 C   0  0  0  0  0  0  0  0  0  0  0  0
    8.6721  -14.7799   20.1041 C   0  0  0  0  0  0  0  0  0  0  0  0
    8.1484  -15.4289   21.3128 C   0  0  2  0  0  0  0  0  0  0  0  0
    6.7768  -15.7735   21.2029 N   0  0  0  0  0  0  0  0  0  0  0  0
    8.4936  -14.7729   22.5841 C   0  0  0  0  0  0  0  0  0  0  0  0
    9.6886  -14.4956   22.8824 O   0  0  0  0  0  0  0  0  0  0  0  0
    7.4977  -14.4256   23.5280 N   0  0  0  0  0  0  0  0  0  0  0  0
    7.9140  -13.8683   24.8230 C   0  0  1  0  0  0  0  0  0  0  0  0
    6.7676  -13.0127   25.3367 C   0  0  0  0  0  0  0  0  0  0  0  0
    7.0794  -12.3660   26.9866 S   0  0  0  0  0  0  0  0  0  0  0  0
    8.1003  -14.9620   25.8218 C   0  0  0  0  0  0  0  0  0  0  0  0
    7.1902  -15.7540   26.1277 O   0  0  0  0  0  0  0  0  0  0  0  0
    9.3555  -15.0923   26.4333 N   0  0  0  0  0  0  0  0  0  0  0  0
    9.6622  -16.0518   27.4755 C   0  0  1  0  0  0  0  0  0  0  0  0
   10.5683  -17.1035   26.9148 C   0  0  0  0  0  0  0  0  0  0  0  0
   10.9889  -18.1650   27.8564 C   0  0  0  0  0  0  0  0  0  0  0  0
   11.9083  -19.2074   27.3352 C   0  0  0  0  0  0  0  0  0  0  0  0
   12.3481  -20.2446   28.3104 C   0  0  0  0  0  0  0  0  0  0  0  0
   13.2472  -21.2405   27.7845 N   0  0  0  0  0  0  0  0  0  0  0  0
   10.1951  -15.4045   28.6873 C   0  0  0  0  0  0  0  0  0  0  0  0
   10.3727  -16.0533   29.7489 O   0  0  0  0  0  0  0  0  0  0  0  0
   10.5333  -14.0502   28.7386 O   0  0  0  0  0  0  0  0  0  0  0  0
  1  2  1  0
  2  4  1  0
  3  2  2  0
  4  5  1  0
  5  6  1  0
  6  7  1  6
  8  6  1  0
  8 10  1  0
  9  8  2  0
 11 10  1  0
 11 14  1  0
 11 12  1  1
 13 12  1  0
 14 15  2  0
 16 14  1  0
 16 17  1  0
 17 23  1  0
 17 18  1  6
 19 18  1  0
 20 19  1  0
 21 22  1  0
 21 20  1  0
 23 25  1  0
 24 23  2  0
M  END
$$$$
