QCK.pdb
     RDKit          3D

 25 24  0  0  1  0  0  0  0  0999 V2000
    5.9494  -18.7251   21.5904 N   0  0  0  0  0  0  0  0  0  0  0  0
    6.3832  -18.5590   20.2221 C   0  0  0  0  0  0  0  0  0  0  0  0
    6.4044  -19.6209   19.5587 O   0  0  0  0  0  0  0  0  0  0  0  0
    6.7514  -17.2425   19.7063 C   0  0  0  0  0  0  0  0  0  0  0  0
    6.5025  -16.0714   20.5580 C   0  0  0  0  0  0  0  0  0  0  0  0
    7.4916  -14.9897   20.6465 C   0  0  2  0  0  0  0  0  0  0  0  0
    8.3267  -14.9118   19.5025 N   0  0  0  0  0  0  0  0  0  0  0  0
    8.2236  -14.9034   21.9202 C   0  0  0  0  0  0  0  0  0  0  0  0
    9.4587  -15.1553   21.9919 O   0  0  0  0  0  0  0  0  0  0  0  0
    7.5715  -14.5345   23.1212 N   0  0  0  0  0  0  0  0  0  0  0  0
    8.3348  -14.5598   24.3772 C   0  0  1  0  0  0  0  0  0  0  0  0
    7.5508  -13.7529   25.3992 C   0  0  0  0  0  0  0  0  0  0  0  0
    5.8393  -14.2918   25.5327 S   0  0  0  0  0  0  0  0  0  0  0  0
    8.4085  -15.9521   24.9105 C   0  0  0  0  0  0  0  0  0  0  0  0
    7.6416  -16.8570   24.5335 O   0  0  0  0  0  0  0  0  0  0  0  0
    9.3852  -16.2400   25.8748 N   0  0  0  0  0  0  0  0  0  0  0  0
    9.9820  -17.5463   26.0701 C   0  0  1  0  0  0  0  0  0  0  0  0
   11.0035  -17.7775   25.0003 C   0  0  0  0  0  0  0  0  0  0  0  0
   10.6641  -18.8066   23.9922 C   0  0  0  0  0  0  0  0  0  0  0  0
   11.6495  -19.0432   22.9077 C   0  0  0  0  0  0  0  0  0  0  0  0
   11.2070  -19.9355   21.7994 C   0  0  0  0  0  0  0  0  0  0  0  0
   12.1896  -20.1730   20.7722 N   0  0  0  0  0  0  0  0  0  0  0  0
   10.5133  -17.7161   27.4342 C   0  0  0  0  0  0  0  0  0  0  0  0
   11.0838  -18.7798   27.7842 O   0  0  0  0  0  0  0  0  0  0  0  0
   10.4210  -16.7248   28.4139 O   0  0  0  0  0  0  0  0  0  0  0  0
  1  2  1  0
  2  4  1  0
  3  2  2  0
  4  5  1  0
  5  6  1  0
  6  7  1  6
  8  6  1  0
  8 10  1  0
  9  8  2  0
 11 10  1  0
 11 14  1  0
 11 12  1  1
 13 12  1  0
 14 15  2  0
 16 14  1  0
 16 17  1  0
 17 23  1  0
 17 18  1  6
 19 18  1  0
 20 19  1  0
 21 22  1  0
 21 20  1  0
 23 25  1  0
 24 23  2  0
M  END
$$$$
