QCK.pdb
     RDKit          3D

 25 24  0  0  1  0  0  0  0  0999 V2000
    3.7386  -21.6478   19.0120 N   0  0  0  0  0  0  0  0  0  0  0  0
    3.5518  -22.4715   20.1844 C   0  0  0  0  0  0  0  0  0  0  0  0
    2.5108  -23.1671   20.1614 O   0  0  0  0  0  0  0  0  0  0  0  0
    4.5258  -22.4585   21.2734 C   0  0  0  0  0  0  0  0  0  0  0  0
    5.7499  -21.6652   21.0973 C   0  0  0  0  0  0  0  0  0  0  0  0
    5.7391  -20.2154   21.3304 C   0  0  2  0  0  0  0  0  0  0  0  0
    5.3532  -19.4757   20.1832 N   0  0  0  0  0  0  0  0  0  0  0  0
    6.9265  -19.6745   22.0111 C   0  0  0  0  0  0  0  0  0  0  0  0
    7.7513  -18.9303   21.4114 O   0  0  0  0  0  0  0  0  0  0  0  0
    7.1942  -19.9679   23.3697 N   0  0  0  0  0  0  0  0  0  0  0  0
    8.3329  -19.3081   24.0248 C   0  0  1  0  0  0  0  0  0  0  0  0
    7.9729  -17.8403   24.1870 C   0  0  0  0  0  0  0  0  0  0  0  0
    6.4366  -17.6064   25.0938 S   0  0  0  0  0  0  0  0  0  0  0  0
    8.5210  -19.8478   25.4038 C   0  0  0  0  0  0  0  0  0  0  0  0
    7.5785  -19.9868   26.2048 O   0  0  0  0  0  0  0  0  0  0  0  0
    9.8163  -20.2091   25.8014 N   0  0  0  0  0  0  0  0  0  0  0  0
   10.1464  -20.7808   27.0918 C   0  0  1  0  0  0  0  0  0  0  0  0
   11.4223  -21.5541   26.9674 C   0  0  0  0  0  0  0  0  0  0  0  0
   11.4589  -22.5755   25.8970 C   0  0  0  0  0  0  0  0  0  0  0  0
   12.6994  -23.3809   25.7715 C   0  0  0  0  0  0  0  0  0  0  0  0
   12.6669  -24.4890   24.7758 C   0  0  0  0  0  0  0  0  0  0  0  0
   13.8996  -25.2215   24.6311 N   0  0  0  0  0  0  0  0  0  0  0  0
   10.1790  -19.7640   28.1580 C   0  0  0  0  0  0  0  0  0  0  0  0
   10.3142  -18.5433   27.8912 O   0  0  0  0  0  0  0  0  0  0  0  0
   10.0641  -20.0811   29.5135 O   0  0  0  0  0  0  0  0  0  0  0  0
  1  2  1  0
  2  4  1  0
  3  2  2  0
  4  5  1  0
  5  6  1  0
  6  7  1  6
  8  6  1  0
  8 10  1  0
  9  8  2  0
 11 10  1  0
 11 14  1  0
 11 12  1  1
 13 12  1  0
 14 15  2  0
 16 14  1  0
 16 17  1  0
 17 23  1  0
 17 18  1  6
 19 18  1  0
 20 19  1  0
 21 22  1  0
 21 20  1  0
 23 25  1  0
 24 23  2  0
M  END
$$$$
