TVS.pdb
     RDKit          3D

 21 20  0  0  1  0  0  0  0  0999 V2000
   26.3376  -17.6464  -14.7635 C   0  0  0  0  0  0  0  0  0  0  0  0
   27.2092  -18.5242  -15.5781 C   0  0  1  0  0  0  0  0  0  0  0  0
   28.2917  -17.8332  -16.1252 O   0  0  0  0  0  0  0  0  0  0  0  0
   27.7416  -19.7457  -14.9024 C   0  0  2  0  0  0  0  0  0  0  0  0
   28.6930  -20.4637  -15.7325 N   0  0  0  0  0  0  0  0  0  0  0  0
   26.7356  -20.6266  -14.3105 C   0  0  0  0  0  0  0  0  0  0  0  0
   26.1866  -21.5952  -14.8844 O   0  0  0  0  0  0  0  0  0  0  0  0
   25.0133  -19.7680  -10.2588 C   0  0  0  0  0  0  0  0  0  0  0  0
   25.4231  -21.0859  -10.8475 C   0  0  2  0  0  0  0  0  0  0  0  0
   26.8118  -21.4264  -10.4096 C   0  0  0  0  0  0  0  0  0  0  0  0
   25.2447  -21.1226  -12.3383 C   0  0  2  0  0  0  0  0  0  0  0  0
   26.3228  -20.3902  -12.9685 N   0  0  0  0  0  0  0  0  0  0  0  0
   23.9200  -20.6142  -12.7645 C   0  0  0  0  0  0  0  0  0  0  0  0
   23.6789  -19.3829  -12.7073 O   0  0  0  0  0  0  0  0  0  0  0  0
   21.1115  -23.1922  -14.5009 O   0  0  0  0  0  0  0  0  0  0  0  0
   21.1871  -21.8419  -14.8568 C   0  0  0  0  0  0  0  0  0  0  0  0
   21.6507  -20.9794  -13.7108 C   0  0  2  0  0  0  0  0  0  0  0  0
   22.9187  -21.4946  -13.2364 N   0  0  0  0  0  0  0  0  0  0  0  0
   20.6055  -21.0499  -12.6564 C   0  0  0  0  0  0  0  0  0  0  0  0
   19.4836  -20.5697  -12.9040 O   0  0  0  0  0  0  0  0  0  0  0  0
   20.9347  -21.6457  -11.4549 O   0  0  0  0  0  0  0  0  0  0  0  0
  2  3  1  0
  2  1  1  1
  4  2  1  0
  4  5  1  6
  6 12  1  0
  6  4  1  0
  7  6  2  0
  9  8  1  6
  9 11  1  0
 10  9  1  0
 11 13  1  0
 11 12  1  6
 13 18  1  0
 14 13  2  0
 15 16  1  0
 17 19  1  0
 17 16  1  6
 18 17  1  0
 19 20  2  0
 19 21  1  0
M  END
$$$$
