TVS.pdb
     RDKit          3D

 21 20  0  0  1  0  0  0  0  0999 V2000
   20.2360   -8.9356  -20.4130 C   0  0  0  0  0  0  0  0  0  0  0  0
   19.5299  -10.2199  -20.1990 C   0  0  1  0  0  0  0  0  0  0  0  0
   19.4174  -10.9634  -21.3752 O   0  0  0  0  0  0  0  0  0  0  0  0
   20.0869  -11.1178  -19.1428 C   0  0  2  0  0  0  0  0  0  0  0  0
   19.4443  -12.4203  -19.1323 N   0  0  0  0  0  0  0  0  0  0  0  0
   20.1886  -10.5308  -17.8073 C   0  0  0  0  0  0  0  0  0  0  0  0
   19.2232  -10.2056  -17.0786 O   0  0  0  0  0  0  0  0  0  0  0  0
   22.4163  -11.8775  -14.9770 C   0  0  0  0  0  0  0  0  0  0  0  0
   22.7773  -10.4444  -15.2365 C   0  0  2  0  0  0  0  0  0  0  0  0
   23.1967   -9.7885  -13.9598 C   0  0  0  0  0  0  0  0  0  0  0  0
   21.6851   -9.7040  -15.9538 C   0  0  2  0  0  0  0  0  0  0  0  0
   21.4816  -10.2960  -17.2592 N   0  0  0  0  0  0  0  0  0  0  0  0
   21.9540   -8.2504  -16.0520 C   0  0  0  0  0  0  0  0  0  0  0  0
   22.8602   -7.8360  -16.8165 O   0  0  0  0  0  0  0  0  0  0  0  0
   20.4963   -3.8199  -16.0622 O   0  0  0  0  0  0  0  0  0  0  0  0
   20.2814   -5.1935  -15.9117 C   0  0  0  0  0  0  0  0  0  0  0  0
   21.4995   -5.9019  -15.3764 C   0  0  2  0  0  0  0  0  0  0  0  0
   21.2051   -7.3180  -15.2969 N   0  0  0  0  0  0  0  0  0  0  0  0
   21.7872   -5.3294  -14.0352 C   0  0  0  0  0  0  0  0  0  0  0  0
   21.3597   -5.9311  -13.0323 O   0  0  0  0  0  0  0  0  0  0  0  0
   22.5153   -4.1577  -13.9721 O   0  0  0  0  0  0  0  0  0  0  0  0
  2  3  1  0
  2  1  1  6
  4  2  1  0
  4  5  1  1
  6 12  1  0
  6  4  1  0
  7  6  2  0
  9  8  1  1
  9 11  1  0
 10  9  1  0
 11 13  1  0
 11 12  1  6
 13 18  1  0
 14 13  2  0
 15 16  1  0
 17 19  1  0
 17 16  1  1
 18 17  1  0
 19 20  2  0
 19 21  1  0
M  END
$$$$
