TVS.pdb
     RDKit          3D

 21 20  0  0  1  0  0  0  0  0999 V2000
   17.4260   -8.5971  -17.7113 C   0  0  0  0  0  0  0  0  0  0  0  0
   16.9247   -9.8399  -17.0806 C   0  0  1  0  0  0  0  0  0  0  0  0
   15.9927  -10.5007  -17.8827 O   0  0  0  0  0  0  0  0  0  0  0  0
   17.9559  -10.8371  -16.6628 C   0  0  2  0  0  0  0  0  0  0  0  0
   17.3655  -12.0918  -16.2308 N   0  0  0  0  0  0  0  0  0  0  0  0
   18.9685  -10.3424  -15.7310 C   0  0  0  0  0  0  0  0  0  0  0  0
   18.7622  -10.0029  -14.5431 O   0  0  0  0  0  0  0  0  0  0  0  0
   22.4946  -11.8610  -15.1723 C   0  0  0  0  0  0  0  0  0  0  0  0
   22.6352  -10.4229  -15.5765 C   0  0  2  0  0  0  0  0  0  0  0  0
   23.8166   -9.8167  -14.8888 C   0  0  0  0  0  0  0  0  0  0  0  0
   21.3656   -9.6476  -15.3702 C   0  0  2  0  0  0  0  0  0  0  0  0
   20.3142  -10.2247  -16.1812 N   0  0  0  0  0  0  0  0  0  0  0  0
   21.5322   -8.2014  -15.6448 C   0  0  0  0  0  0  0  0  0  0  0  0
   21.6556   -7.8036  -16.8297 O   0  0  0  0  0  0  0  0  0  0  0  0
   20.4142   -3.8805  -15.3660 O   0  0  0  0  0  0  0  0  0  0  0  0
   20.3708   -5.2707  -15.2210 C   0  0  0  0  0  0  0  0  0  0  0  0
   21.7199   -5.8460  -14.8729 C   0  0  2  0  0  0  0  0  0  0  0  0
   21.5548   -7.2574  -14.5918 N   0  0  0  0  0  0  0  0  0  0  0  0
   22.2188   -5.1085  -13.6828 C   0  0  0  0  0  0  0  0  0  0  0  0
   22.1476   -5.6646  -12.5709 O   0  0  0  0  0  0  0  0  0  0  0  0
   22.7361   -3.8424  -13.8736 O   0  0  0  0  0  0  0  0  0  0  0  0
  2  3  1  0
  2  1  1  6
  4  2  1  0
  4  5  1  1
  6 12  1  0
  6  4  1  0
  7  6  2  0
  9  8  1  1
  9 11  1  0
 10  9  1  0
 11 13  1  0
 11 12  1  6
 13 18  1  0
 14 13  2  0
 15 16  1  0
 17 19  1  0
 17 16  1  1
 18 17  1  0
 19 20  2  0
 19 21  1  0
M  END
$$$$
