TVS.pdb
     RDKit          3D

 21 20  0  0  1  0  0  0  0  0999 V2000
   20.2581  -23.1149  -14.0887 C   0  0  0  0  0  0  0  0  0  0  0  0
   21.3625  -22.1359  -14.2128 C   0  0  1  0  0  0  0  0  0  0  0  0
   21.0870  -21.1454  -15.1572 O   0  0  0  0  0  0  0  0  0  0  0  0
   21.7961  -21.4584  -12.9538 C   0  0  2  0  0  0  0  0  0  0  0  0
   20.7093  -20.7382  -12.3136 N   0  0  0  0  0  0  0  0  0  0  0  0
   23.0159  -20.6586  -13.0574 C   0  0  0  0  0  0  0  0  0  0  0  0
   23.0773  -19.4098  -12.9814 O   0  0  0  0  0  0  0  0  0  0  0  0
   26.2809  -21.1976  -11.1742 C   0  0  0  0  0  0  0  0  0  0  0  0
   26.5814  -21.2577  -12.6430 C   0  0  2  0  0  0  0  0  0  0  0  0
   27.9410  -20.6929  -12.9053 C   0  0  0  0  0  0  0  0  0  0  0  0
   25.5031  -20.6188  -13.4704 C   0  0  2  0  0  0  0  0  0  0  0  0
   24.2569  -21.3257  -13.2625 N   0  0  0  0  0  0  0  0  0  0  0  0
   25.8558  -20.5498  -14.9077 C   0  0  0  0  0  0  0  0  0  0  0  0
   26.0707  -21.6095  -15.5467 O   0  0  0  0  0  0  0  0  0  0  0  0
   26.7325  -17.6579  -18.7375 O   0  0  0  0  0  0  0  0  0  0  0  0
   26.3215  -17.8081  -17.4093 C   0  0  0  0  0  0  0  0  0  0  0  0
   26.3453  -19.2495  -16.9688 C   0  0  2  0  0  0  0  0  0  0  0  0
   25.9550  -19.3067  -15.5750 N   0  0  0  0  0  0  0  0  0  0  0  0
   27.7318  -19.7471  -17.1669 C   0  0  0  0  0  0  0  0  0  0  0  0
   27.9621  -20.4787  -18.1479 O   0  0  0  0  0  0  0  0  0  0  0  0
   28.6936  -19.3710  -16.2502 O   0  0  0  0  0  0  0  0  0  0  0  0
  2  3  1  0
  2  1  1  1
  4  2  1  0
  4  5  1  6
  6 12  1  0
  6  4  1  0
  7  6  2  0
  9  8  1  1
  9 11  1  0
 10  9  1  0
 11 13  1  0
 11 12  1  6
 13 18  1  0
 14 13  2  0
 15 16  1  0
 17 19  1  0
 17 16  1  1
 18 17  1  0
 19 20  2  0
 19 21  1  0
M  END
$$$$
