TVS.pdb
     RDKit          3D

 21 20  0  0  1  0  0  0  0  0999 V2000
   25.0995  -12.6684  -15.3836 C   0  0  0  0  0  0  0  0  0  0  0  0
   24.5026  -11.4715  -16.0198 C   0  0  1  0  0  0  0  0  0  0  0  0
   25.1971  -11.0805  -17.1659 O   0  0  0  0  0  0  0  0  0  0  0  0
   23.0531  -11.5577  -16.3715 C   0  0  2  0  0  0  0  0  0  0  0  0
   22.7736  -12.6454  -17.2927 N   0  0  0  0  0  0  0  0  0  0  0  0
   22.4290  -10.3003  -16.7810 C   0  0  0  0  0  0  0  0  0  0  0  0
   22.2880   -9.9073  -17.9620 O   0  0  0  0  0  0  0  0  0  0  0  0
   19.4346   -8.7435  -14.5194 C   0  0  0  0  0  0  0  0  0  0  0  0
   19.8031   -8.3033  -15.9056 C   0  0  2  0  0  0  0  0  0  0  0  0
   19.1717   -9.2130  -16.9105 C   0  0  0  0  0  0  0  0  0  0  0  0
   21.2880   -8.1631  -16.0817 C   0  0  2  0  0  0  0  0  0  0  0  0
   21.9285   -9.4249  -15.7758 N   0  0  0  0  0  0  0  0  0  0  0  0
   21.8537   -7.0567  -15.2750 C   0  0  0  0  0  0  0  0  0  0  0  0
   22.2852   -7.2880  -14.1184 O   0  0  0  0  0  0  0  0  0  0  0  0
   23.1156   -2.3470  -15.1748 O   0  0  0  0  0  0  0  0  0  0  0  0
   22.6061   -3.4458  -15.8738 C   0  0  0  0  0  0  0  0  0  0  0  0
   22.5140   -4.6754  -15.0067 C   0  0  2  0  0  0  0  0  0  0  0  0
   21.9164   -5.7396  -15.7867 N   0  0  0  0  0  0  0  0  0  0  0  0
   21.6738   -4.3233  -13.8322 C   0  0  0  0  0  0  0  0  0  0  0  0
   20.4384   -4.4422  -13.9331 O   0  0  0  0  0  0  0  0  0  0  0  0
   22.3093   -3.8819  -12.6884 O   0  0  0  0  0  0  0  0  0  0  0  0
  2  3  1  0
  2  1  1  6
  4  2  1  0
  4  5  1  6
  6 12  1  0
  6  4  1  0
  7  6  2  0
  9  8  1  1
  9 11  1  0
 10  9  1  0
 11 13  1  0
 11 12  1  1
 13 18  1  0
 14 13  2  0
 15 16  1  0
 17 19  1  0
 17 16  1  6
 18 17  1  0
 19 20  2  0
 19 21  1  0
M  END
$$$$
