TVS.pdb
     RDKit          3D

 21 20  0  0  1  0  0  0  0  0999 V2000
   24.1000  -10.7301  -14.5482 C   0  0  0  0  0  0  0  0  0  0  0  0
   23.5596  -11.3878  -15.7603 C   0  0  1  0  0  0  0  0  0  0  0  0
   23.9527  -12.7239  -15.8562 O   0  0  0  0  0  0  0  0  0  0  0  0
   22.0778  -11.3336  -15.9425 C   0  0  2  0  0  0  0  0  0  0  0  0
   21.5671  -12.4948  -16.6500 N   0  0  0  0  0  0  0  0  0  0  0  0
   21.5547  -10.0763  -16.4752 C   0  0  0  0  0  0  0  0  0  0  0  0
   21.5896   -9.7230  -17.6764 O   0  0  0  0  0  0  0  0  0  0  0  0
   18.2391   -8.6430  -16.7801 C   0  0  0  0  0  0  0  0  0  0  0  0
   18.9813   -7.7825  -15.8003 C   0  0  2  0  0  0  0  0  0  0  0  0
   18.4433   -6.3879  -15.8420 C   0  0  0  0  0  0  0  0  0  0  0  0
   20.4687   -7.8515  -15.9959 C   0  0  2  0  0  0  0  0  0  0  0  0
   20.9476   -9.1523  -15.5780 N   0  0  0  0  0  0  0  0  0  0  0  0
   21.1847   -6.7585  -15.2977 C   0  0  0  0  0  0  0  0  0  0  0  0
   21.3006   -6.7903  -14.0475 O   0  0  0  0  0  0  0  0  0  0  0  0
   23.7913   -2.6659  -15.7603 O   0  0  0  0  0  0  0  0  0  0  0  0
   23.0703   -3.7088  -16.3503 C   0  0  0  0  0  0  0  0  0  0  0  0
   22.4354   -4.6105  -15.3227 C   0  0  2  0  0  0  0  0  0  0  0  0
   21.7420   -5.6759  -16.0173 N   0  0  0  0  0  0  0  0  0  0  0  0
   21.4961   -3.7776  -14.5270 C   0  0  0  0  0  0  0  0  0  0  0  0
   21.9097   -3.2690  -13.4682 O   0  0  0  0  0  0  0  0  0  0  0  0
   20.2113   -3.6115  -15.0051 O   0  0  0  0  0  0  0  0  0  0  0  0
  2  3  1  0
  2  1  1  1
  4  2  1  0
  4  5  1  6
  6 12  1  0
  6  4  1  0
  7  6  2  0
  9  8  1  6
  9 11  1  0
 10  9  1  0
 11 13  1  0
 11 12  1  1
 13 18  1  0
 14 13  2  0
 15 16  1  0
 17 19  1  0
 17 16  1  6
 18 17  1  0
 19 20  2  0
 19 21  1  0
M  END
$$$$
