TVS.pdb
     RDKit          3D

 21 20  0  0  1  0  0  0  0  0999 V2000
   26.5477  -19.0952  -16.2946 C   0  0  0  0  0  0  0  0  0  0  0  0
   27.4160  -20.2618  -16.5752 C   0  0  1  0  0  0  0  0  0  0  0  0
   28.5844  -19.9010  -17.2485 O   0  0  0  0  0  0  0  0  0  0  0  0
   27.8058  -21.0992  -15.4010 C   0  0  2  0  0  0  0  0  0  0  0  0
   28.6734  -22.2024  -15.7751 N   0  0  0  0  0  0  0  0  0  0  0  0
   26.7054  -21.5189  -14.5342 C   0  0  0  0  0  0  0  0  0  0  0  0
   25.9655  -22.5116  -14.7244 O   0  0  0  0  0  0  0  0  0  0  0  0
   26.9228  -21.1330  -10.5248 C   0  0  0  0  0  0  0  0  0  0  0  0
   25.6670  -20.5391  -11.0917 C   0  0  2  0  0  0  0  0  0  0  0  0
   24.5460  -20.6971  -10.1146 C   0  0  0  0  0  0  0  0  0  0  0  0
   25.3470  -21.0811  -12.4553 C   0  0  2  0  0  0  0  0  0  0  0  0
   26.4245  -20.7553  -13.3658 N   0  0  0  0  0  0  0  0  0  0  0  0
   24.0411  -20.6020  -12.9649 C   0  0  0  0  0  0  0  0  0  0  0  0
   23.8647  -19.3749  -13.1668 O   0  0  0  0  0  0  0  0  0  0  0  0
   19.8152  -21.7567  -15.0205 O   0  0  0  0  0  0  0  0  0  0  0  0
   21.0753  -22.1238  -14.5379 C   0  0  0  0  0  0  0  0  0  0  0  0
   21.7131  -21.0250  -13.7267 C   0  0  2  0  0  0  0  0  0  0  0  0
   22.9856  -21.5057  -13.2289 N   0  0  0  0  0  0  0  0  0  0  0  0
   20.7809  -20.7011  -12.6153 C   0  0  0  0  0  0  0  0  0  0  0  0
   20.8753  -21.3508  -11.5571 O   0  0  0  0  0  0  0  0  0  0  0  0
   19.8572  -19.6943  -12.8154 O   0  0  0  0  0  0  0  0  0  0  0  0
  2  3  1  0
  2  1  1  1
  4  2  1  0
  4  5  1  6
  6 12  1  0
  6  4  1  0
  7  6  2  0
  9  8  1  1
  9 11  1  0
 10  9  1  0
 11 13  1  0
 11 12  1  6
 13 18  1  0
 14 13  2  0
 15 16  1  0
 17 19  1  0
 17 16  1  6
 18 17  1  0
 19 20  2  0
 19 21  1  0
M  END
$$$$
