TVS.pdb
     RDKit          3D

 21 20  0  0  1  0  0  0  0  0999 V2000
   21.6930  -10.0307  -20.8136 C   0  0  0  0  0  0  0  0  0  0  0  0
   21.4907  -10.8758  -19.6142 C   0  0  1  0  0  0  0  0  0  0  0  0
   21.8937  -12.1958  -19.8239 O   0  0  0  0  0  0  0  0  0  0  0  0
   22.1273  -10.3995  -18.3493 C   0  0  2  0  0  0  0  0  0  0  0  0
   22.6122  -11.4964  -17.5299 N   0  0  0  0  0  0  0  0  0  0  0  0
   21.3517   -9.4256  -17.5823 C   0  0  0  0  0  0  0  0  0  0  0  0
   20.8221   -8.3889  -18.0447 O   0  0  0  0  0  0  0  0  0  0  0  0
   18.5799  -10.4168  -15.1727 C   0  0  0  0  0  0  0  0  0  0  0  0
   19.5308   -9.5299  -14.4240 C   0  0  2  0  0  0  0  0  0  0  0  0
   18.7737   -8.6798  -13.4544 C   0  0  0  0  0  0  0  0  0  0  0  0
   20.4141   -8.7378  -15.3448 C   0  0  2  0  0  0  0  0  0  0  0  0
   21.1637   -9.6449  -16.1881 N   0  0  0  0  0  0  0  0  0  0  0  0
   21.3085   -7.8096  -14.6147 C   0  0  0  0  0  0  0  0  0  0  0  0
   22.4591   -8.1877  -14.2820 O   0  0  0  0  0  0  0  0  0  0  0  0
   23.7163   -4.3099  -15.0115 O   0  0  0  0  0  0  0  0  0  0  0  0
   22.7533   -5.3061  -15.2005 C   0  0  0  0  0  0  0  0  0  0  0  0
   21.8602   -5.4660  -13.9968 C   0  0  2  0  0  0  0  0  0  0  0  0
   20.8877   -6.5002  -14.2848 N   0  0  0  0  0  0  0  0  0  0  0  0
   21.2047   -4.1535  -13.7581 C   0  0  0  0  0  0  0  0  0  0  0  0
   20.1268   -3.9181  -14.3355 O   0  0  0  0  0  0  0  0  0  0  0  0
   21.8273   -3.2623  -12.9066 O   0  0  0  0  0  0  0  0  0  0  0  0
  2  3  1  0
  2  1  1  6
  4  2  1  0
  4  5  1  1
  6 12  1  0
  6  4  1  0
  7  6  2  0
  9  8  1  6
  9 11  1  0
 10  9  1  0
 11 13  1  0
 11 12  1  1
 13 18  1  0
 14 13  2  0
 15 16  1  0
 17 19  1  0
 17 16  1  6
 18 17  1  0
 19 20  2  0
 19 21  1  0
M  END
$$$$
