TVS.pdb
     RDKit          3D

 21 20  0  0  1  0  0  0  0  0999 V2000
   22.8334   -8.7835  -20.7449 C   0  0  0  0  0  0  0  0  0  0  0  0
   22.5760  -10.2407  -20.8082 C   0  0  1  0  0  0  0  0  0  0  0  0
   22.7726  -10.7567  -22.0903 O   0  0  0  0  0  0  0  0  0  0  0  0
   23.3414  -11.0942  -19.8502 C   0  0  2  0  0  0  0  0  0  0  0  0
   23.1056  -12.5111  -20.0653 N   0  0  0  0  0  0  0  0  0  0  0  0
   23.2319  -10.7138  -18.4425 C   0  0  0  0  0  0  0  0  0  0  0  0
   22.2301  -10.8980  -17.7134 O   0  0  0  0  0  0  0  0  0  0  0  0
   26.7927   -9.4243  -16.3431 C   0  0  0  0  0  0  0  0  0  0  0  0
   25.5652  -10.0460  -15.7446 C   0  0  2  0  0  0  0  0  0  0  0  0
   25.7276  -11.5313  -15.6848 C   0  0  0  0  0  0  0  0  0  0  0  0
   24.3095   -9.6135  -16.4458 C   0  0  2  0  0  0  0  0  0  0  0  0
   24.3415  -10.0778  -17.8167 N   0  0  0  0  0  0  0  0  0  0  0  0
   24.0933   -8.1497  -16.3723 C   0  0  0  0  0  0  0  0  0  0  0  0
   24.7894   -7.3821  -17.0821 O   0  0  0  0  0  0  0  0  0  0  0  0
   21.8896   -5.8689  -17.5771 O   0  0  0  0  0  0  0  0  0  0  0  0
   21.6933   -5.7928  -16.1946 C   0  0  0  0  0  0  0  0  0  0  0  0
   22.9348   -6.1650  -15.4251 C   0  0  2  0  0  0  0  0  0  0  0  0
   23.1132   -7.5998  -15.5137 N   0  0  0  0  0  0  0  0  0  0  0  0
   22.7287   -5.7278  -14.0195 C   0  0  0  0  0  0  0  0  0  0  0  0
   22.8223   -4.5137  -13.7591 O   0  0  0  0  0  0  0  0  0  0  0  0
   22.4435   -6.6935  -13.0745 O   0  0  0  0  0  0  0  0  0  0  0  0
  2  3  1  0
  2  1  1  6
  4  2  1  0
  4  5  1  1
  6 12  1  0
  6  4  1  0
  7  6  2  0
  9  8  1  6
  9 11  1  0
 10  9  1  0
 11 13  1  0
 11 12  1  6
 13 18  1  0
 14 13  2  0
 15 16  1  0
 17 19  1  0
 17 16  1  6
 18 17  1  0
 19 20  2  0
 19 21  1  0
M  END
$$$$
