TVS.pdb
     RDKit          3D

 21 20  0  0  1  0  0  0  0  0999 V2000
   18.3579  -12.9383  -17.6692 C   0  0  0  0  0  0  0  0  0  0  0  0
   19.2850  -11.9757  -17.0307 C   0  0  1  0  0  0  0  0  0  0  0  0
   19.2278  -12.0321  -15.6370 O   0  0  0  0  0  0  0  0  0  0  0  0
   20.7209  -12.0678  -17.4328 C   0  0  2  0  0  0  0  0  0  0  0  0
   21.2523  -13.4102  -17.2741 N   0  0  0  0  0  0  0  0  0  0  0  0
   21.5997  -11.0452  -16.8667 C   0  0  0  0  0  0  0  0  0  0  0  0
   22.3166  -11.1824  -15.8487 O   0  0  0  0  0  0  0  0  0  0  0  0
   22.8012   -7.8367  -19.3390 C   0  0  0  0  0  0  0  0  0  0  0  0
   23.4860   -8.3074  -18.0896 C   0  0  2  0  0  0  0  0  0  0  0  0
   24.4610   -9.3908  -18.4240 C   0  0  0  0  0  0  0  0  0  0  0  0
   22.5085   -8.6979  -17.0183 C   0  0  2  0  0  0  0  0  0  0  0  0
   21.6697   -9.7736  -17.5034 N   0  0  0  0  0  0  0  0  0  0  0  0
   21.7007   -7.5514  -16.5412 C   0  0  0  0  0  0  0  0  0  0  0  0
   20.5164   -7.4175  -16.9376 O   0  0  0  0  0  0  0  0  0  0  0  0
   19.5572   -5.5142  -13.4230 O   0  0  0  0  0  0  0  0  0  0  0  0
   20.4662   -6.3718  -14.0505 C   0  0  0  0  0  0  0  0  0  0  0  0
   21.3837   -5.6339  -14.9916 C   0  0  2  0  0  0  0  0  0  0  0  0
   22.2419   -6.6016  -15.6438 N   0  0  0  0  0  0  0  0  0  0  0  0
   22.1697   -4.6718  -14.1755 C   0  0  0  0  0  0  0  0  0  0  0  0
   23.3284   -4.9864  -13.8453 O   0  0  0  0  0  0  0  0  0  0  0  0
   21.5719   -3.4772  -13.8258 O   0  0  0  0  0  0  0  0  0  0  0  0
  2  3  1  0
  2  1  1  6
  4  2  1  0
  4  5  1  1
  6 12  1  0
  6  4  1  0
  7  6  2  0
  9  8  1  6
  9 11  1  0
 10  9  1  0
 11 13  1  0
 11 12  1  6
 13 18  1  0
 14 13  2  0
 15 16  1  0
 17 19  1  0
 17 16  1  1
 18 17  1  0
 19 20  2  0
 19 21  1  0
M  END
$$$$
