TVS.pdb
     RDKit          3D

 21 20  0  0  1  0  0  0  0  0999 V2000
   23.4983  -14.8540  -20.8612 C   0  0  0  0  0  0  0  0  0  0  0  0
   23.4575  -13.8621  -19.7620 C   0  0  1  0  0  0  0  0  0  0  0  0
   22.1609  -13.4155  -19.5012 O   0  0  0  0  0  0  0  0  0  0  0  0
   24.0656  -14.2821  -18.4636 C   0  0  2  0  0  0  0  0  0  0  0  0
   23.5897  -15.5835  -18.0280 N   0  0  0  0  0  0  0  0  0  0  0  0
   24.0240  -13.2829  -17.3967 C   0  0  0  0  0  0  0  0  0  0  0  0
   23.2465  -13.2970  -16.4147 O   0  0  0  0  0  0  0  0  0  0  0  0
   27.2465  -11.8377  -15.7014 C   0  0  0  0  0  0  0  0  0  0  0  0
   26.3900  -10.7198  -16.2191 C   0  0  2  0  0  0  0  0  0  0  0  0
   26.5156   -9.5290  -15.3234 C   0  0  0  0  0  0  0  0  0  0  0  0
   24.9679  -11.1490  -16.4405 C   0  0  2  0  0  0  0  0  0  0  0  0
   24.9318  -12.1872  -17.4489 N   0  0  0  0  0  0  0  0  0  0  0  0
   24.0812  -10.0162  -16.7946 C   0  0  0  0  0  0  0  0  0  0  0  0
   24.2372   -9.4237  -17.8910 O   0  0  0  0  0  0  0  0  0  0  0  0
   20.2164   -9.9005  -15.9207 O   0  0  0  0  0  0  0  0  0  0  0  0
   20.8569   -8.7103  -15.5618 C   0  0  0  0  0  0  0  0  0  0  0  0
   22.1572   -8.5220  -16.3005 C   0  0  2  0  0  0  0  0  0  0  0  0
   23.0585   -9.5888  -15.9161 N   0  0  0  0  0  0  0  0  0  0  0  0
   22.6935   -7.1905  -15.9146 C   0  0  0  0  0  0  0  0  0  0  0  0
   22.0473   -6.1769  -16.2396 O   0  0  0  0  0  0  0  0  0  0  0  0
   23.8829   -7.1479  -15.2142 O   0  0  0  0  0  0  0  0  0  0  0  0
  2  3  1  0
  2  1  1  6
  4  2  1  0
  4  5  1  1
  6 12  1  0
  6  4  1  0
  7  6  2  0
  9  8  1  1
  9 11  1  0
 10  9  1  0
 11 13  1  0
 11 12  1  6
 13 18  1  0
 14 13  2  0
 15 16  1  0
 17 19  1  0
 17 16  1  1
 18 17  1  0
 19 20  2  0
 19 21  1  0
M  END
$$$$
