KSD.pdb
     RDKit          3D

 24 23  0  0  1  0  0  0  0  0999 V2000
   18.8687  -12.7314  -15.3082 N   0  0  0  0  0  0  0  0  0  0  0  0
   18.4107  -11.5260  -15.9022 C   0  0  1  0  0  0  0  0  0  0  0  0
   16.9906  -11.6076  -16.3191 C   0  0  0  0  0  0  0  0  0  0  0  0
   16.7339  -12.8237  -17.1531 C   0  0  0  0  0  0  0  0  0  0  0  0
   15.5202  -13.6204  -16.7960 C   0  0  0  0  0  0  0  0  0  0  0  0
   15.2910  -14.7605  -17.7816 C   0  0  0  0  0  0  0  0  0  0  0  0
   14.7324  -14.1734  -18.9848 N   0  0  0  0  0  0  0  0  0  0  0  0
   18.7087  -10.3449  -15.0536 C   0  0  0  0  0  0  0  0  0  0  0  0
   18.2590  -10.2000  -13.8966 O   0  0  0  0  0  0  0  0  0  0  0  0
   21.6725   -8.6478  -13.3474 O   0  0  0  0  0  0  0  0  0  0  0  0
   21.3457   -8.0227  -14.5324 C   0  0  0  0  0  0  0  0  0  0  0  0
   19.8699   -8.1225  -14.8268 C   0  0  2  0  0  0  0  0  0  0  0  0
   19.5405   -9.3268  -15.5679 N   0  0  0  0  0  0  0  0  0  0  0  0
   19.3736   -6.9724  -15.6244 C   0  0  0  0  0  0  0  0  0  0  0  0
   19.5121   -6.9386  -16.8781 O   0  0  0  0  0  0  0  0  0  0  0  0
   18.7217   -5.8558  -15.0345 N   0  0  0  0  0  0  0  0  0  0  0  0
   18.2991   -4.7311  -15.8479 C   0  0  1  0  0  0  0  0  0  0  0  0
   17.1914   -3.9862  -15.1359 C   0  0  0  0  0  0  0  0  0  0  0  0
   16.7405   -2.8057  -15.8877 C   0  0  0  0  0  0  0  0  0  0  0  0
   17.0264   -1.6614  -15.4900 O   0  0  0  0  0  0  0  0  0  0  0  0
   19.4651   -3.8115  -16.0972 C   0  0  0  0  0  0  0  0  0  0  0  0
   20.5957   -3.8643  -15.3010 O   0  0  0  0  0  0  0  0  0  0  0  0
   15.9985   -2.9599  -17.0375 O   0  0  0  0  0  0  0  0  0  0  0  0
   19.4504   -2.9747  -17.0262 O   0  0  0  0  0  0  0  0  0  0  0  0
  2  1  1  1
  3  2  1  0
  4  3  1  0
  5  4  1  0
  5  6  1  0
  6  7  1  0
  8  2  1  0
  8  9  2  0
 12 11  1  6
 11 10  1  0
 13 12  1  0
 13  8  1  0
 14 15  2  0
 14 12  1  0
 16 14  1  0
 17 21  1  0
 17 16  1  0
 17 18  1  1
 19 23  1  0
 19 18  1  0
 20 19  2  0
 21 22  1  0
 24 21  2  0
M  END
$$$$
