KSD.pdb
     RDKit          3D

 24 23  0  0  1  0  0  0  0  0999 V2000
   18.4406  -13.5203  -15.3280 N   0  0  0  0  0  0  0  0  0  0  0  0
   18.1642  -12.2780  -15.9570 C   0  0  1  0  0  0  0  0  0  0  0  0
   16.7102  -12.0399  -16.1191 C   0  0  0  0  0  0  0  0  0  0  0  0
   16.1313  -12.9013  -17.1976 C   0  0  0  0  0  0  0  0  0  0  0  0
   15.7876  -12.2091  -18.4773 C   0  0  0  0  0  0  0  0  0  0  0  0
   15.1102  -13.1569  -19.4603 C   0  0  0  0  0  0  0  0  0  0  0  0
   14.8657  -12.4024  -20.6749 N   0  0  0  0  0  0  0  0  0  0  0  0
   18.8750  -11.1548  -15.2959 C   0  0  0  0  0  0  0  0  0  0  0  0
   18.7236  -10.8611  -14.0906 O   0  0  0  0  0  0  0  0  0  0  0  0
   22.5212  -10.3122  -14.9074 O   0  0  0  0  0  0  0  0  0  0  0  0
   21.9704   -9.3366  -15.7114 C   0  0  0  0  0  0  0  0  0  0  0  0
   20.4794   -9.2266  -15.5128 C   0  0  2  0  0  0  0  0  0  0  0  0
   19.7696  -10.3707  -16.0561 N   0  0  0  0  0  0  0  0  0  0  0  0
   19.9109   -8.0163  -16.1585 C   0  0  0  0  0  0  0  0  0  0  0  0
   19.6145   -8.0083  -17.3850 O   0  0  0  0  0  0  0  0  0  0  0  0
   19.6688   -6.8104  -15.4464 N   0  0  0  0  0  0  0  0  0  0  0  0
   19.1057   -5.6544  -16.1187 C   0  0  1  0  0  0  0  0  0  0  0  0
   17.7790   -5.3023  -15.4827 C   0  0  0  0  0  0  0  0  0  0  0  0
   17.2243   -4.0463  -16.0092 C   0  0  0  0  0  0  0  0  0  0  0  0
   17.1407   -3.8633  -17.2376 O   0  0  0  0  0  0  0  0  0  0  0  0
   20.0544   -4.4895  -16.0172 C   0  0  0  0  0  0  0  0  0  0  0  0
   19.8696   -3.3526  -16.7843 O   0  0  0  0  0  0  0  0  0  0  0  0
   16.7938   -3.0644  -15.1450 O   0  0  0  0  0  0  0  0  0  0  0  0
   21.0347   -4.5107  -15.2413 O   0  0  0  0  0  0  0  0  0  0  0  0
  2  1  1  1
  3  2  1  0
  4  3  1  0
  5  4  1  0
  5  6  1  0
  6  7  1  0
  8  2  1  0
  8  9  2  0
 12 11  1  6
 11 10  1  0
 13 12  1  0
 13  8  1  0
 14 15  2  0
 14 12  1  0
 16 14  1  0
 17 21  1  0
 17 16  1  0
 17 18  1  1
 19 23  1  0
 19 18  1  0
 20 19  2  0
 21 22  1  0
 24 21  2  0
M  END
$$$$
