KSD.pdb
     RDKit          3D

 24 23  0  0  1  0  0  0  0  0999 V2000
   21.2669  -21.2059  -15.2122 N   0  0  0  0  0  0  0  0  0  0  0  0
   21.0988  -20.1407  -14.2889 C   0  0  1  0  0  0  0  0  0  0  0  0
   19.9590  -20.3676  -13.3688 C   0  0  0  0  0  0  0  0  0  0  0  0
   18.8797  -21.1728  -14.0223 C   0  0  0  0  0  0  0  0  0  0  0  0
   18.7726  -22.6001  -13.5907 C   0  0  0  0  0  0  0  0  0  0  0  0
   17.6374  -22.7980  -12.5929 C   0  0  0  0  0  0  0  0  0  0  0  0
   17.6833  -24.1849  -12.1698 N   0  0  0  0  0  0  0  0  0  0  0  0
   22.3657  -19.8132  -13.5879 C   0  0  0  0  0  0  0  0  0  0  0  0
   22.4542  -18.9324  -12.7057 O   0  0  0  0  0  0  0  0  0  0  0  0
   25.6332  -22.4260  -13.6853 O   0  0  0  0  0  0  0  0  0  0  0  0
   25.5441  -21.3766  -12.7951 C   0  0  0  0  0  0  0  0  0  0  0  0
   24.8491  -20.1853  -13.4053 C   0  0  2  0  0  0  0  0  0  0  0  0
   23.5370  -20.5251  -13.9258 N   0  0  0  0  0  0  0  0  0  0  0  0
   25.6214  -19.5937  -14.5272 C   0  0  0  0  0  0  0  0  0  0  0  0
   25.4393  -19.9725  -15.7169 O   0  0  0  0  0  0  0  0  0  0  0  0
   26.5984  -18.5799  -14.3338 N   0  0  0  0  0  0  0  0  0  0  0  0
   27.3078  -18.0106  -15.4643 C   0  0  1  0  0  0  0  0  0  0  0  0
   28.1053  -19.0959  -16.1532 C   0  0  0  0  0  0  0  0  0  0  0  0
   28.7959  -18.6032  -17.3543 C   0  0  0  0  0  0  0  0  0  0  0  0
   29.0771  -17.3958  -17.4656 O   0  0  0  0  0  0  0  0  0  0  0  0
   26.3275  -17.3966  -16.4284 C   0  0  0  0  0  0  0  0  0  0  0  0
   26.2178  -16.0227  -16.5529 O   0  0  0  0  0  0  0  0  0  0  0  0
   29.1358  -19.4760  -18.3637 O   0  0  0  0  0  0  0  0  0  0  0  0
   25.5848  -18.1034  -17.1440 O   0  0  0  0  0  0  0  0  0  0  0  0
  2  1  1  1
  3  2  1  0
  4  3  1  0
  5  4  1  0
  5  6  1  0
  6  7  1  0
  8  2  1  0
  8  9  2  0
 12 11  1  6
 11 10  1  0
 13 12  1  0
 13  8  1  0
 14 15  2  0
 14 12  1  0
 16 14  1  0
 17 21  1  0
 17 16  1  0
 17 18  1  6
 19 23  1  0
 19 18  1  0
 20 19  2  0
 21 22  1  0
 24 21  2  0
M  END
$$$$
