KSD.pdb
     RDKit          3D

 24 23  0  0  1  0  0  0  0  0999 V2000
   25.4725  -22.1307  -16.7542 N   0  0  0  0  0  0  0  0  0  0  0  0
   26.1404  -21.6231  -15.6089 C   0  0  1  0  0  0  0  0  0  0  0  0
   27.3670  -20.8688  -15.9605 C   0  0  0  0  0  0  0  0  0  0  0  0
   27.9569  -21.3525  -17.2483 C   0  0  0  0  0  0  0  0  0  0  0  0
   29.2832  -20.7724  -17.6218 C   0  0  0  0  0  0  0  0  0  0  0  0
   29.7574  -21.2891  -18.9752 C   0  0  0  0  0  0  0  0  0  0  0  0
   31.0826  -20.7417  -19.1961 N   0  0  0  0  0  0  0  0  0  0  0  0
   25.2191  -20.8691  -14.7220 C   0  0  0  0  0  0  0  0  0  0  0  0
   25.5914  -20.2887  -13.6797 O   0  0  0  0  0  0  0  0  0  0  0  0
   22.2322  -18.8598  -16.1937 O   0  0  0  0  0  0  0  0  0  0  0  0
   22.4898  -18.7643  -14.8424 C   0  0  0  0  0  0  0  0  0  0  0  0
   22.8687  -20.0990  -14.2513 C   0  0  2  0  0  0  0  0  0  0  0  0
   23.8507  -20.7969  -15.0616 N   0  0  0  0  0  0  0  0  0  0  0  0
   21.7013  -21.0055  -14.1074 C   0  0  0  0  0  0  0  0  0  0  0  0
   21.3859  -21.8147  -15.0228 O   0  0  0  0  0  0  0  0  0  0  0  0
   20.8795  -21.0179  -12.9479 N   0  0  0  0  0  0  0  0  0  0  0  0
   19.6737  -21.8237  -12.9042 C   0  0  1  0  0  0  0  0  0  0  0  0
   19.2422  -22.0017  -11.4652 C   0  0  0  0  0  0  0  0  0  0  0  0
   18.0611  -22.8688  -11.3405 C   0  0  0  0  0  0  0  0  0  0  0  0
   17.5165  -23.3376  -12.3569 O   0  0  0  0  0  0  0  0  0  0  0  0
   18.5805  -21.1542  -13.6941 C   0  0  0  0  0  0  0  0  0  0  0  0
   17.6547  -21.9006  -14.4018 O   0  0  0  0  0  0  0  0  0  0  0  0
   17.5505  -23.1675  -10.0970 O   0  0  0  0  0  0  0  0  0  0  0  0
   18.4736  -19.9091  -13.7365 O   0  0  0  0  0  0  0  0  0  0  0  0
  2  1  1  6
  3  2  1  0
  4  3  1  0
  5  4  1  0
  5  6  1  0
  6  7  1  0
  8  2  1  0
  8  9  2  0
 12 11  1  6
 11 10  1  0
 13 12  1  0
 13  8  1  0
 14 15  2  0
 14 12  1  0
 16 14  1  0
 17 21  1  0
 17 16  1  0
 17 18  1  1
 19 23  1  0
 19 18  1  0
 20 19  2  0
 21 22  1  0
 24 21  2  0
M  END
$$$$
