KSD.pdb
     RDKit          3D

 24 23  0  0  1  0  0  0  0  0999 V2000
   19.8315  -12.5802  -17.7129 N   0  0  0  0  0  0  0  0  0  0  0  0
   19.0922  -11.4391  -17.3045 C   0  0  1  0  0  0  0  0  0  0  0  0
   17.6326  -11.6954  -17.2727 C   0  0  0  0  0  0  0  0  0  0  0  0
   17.2089  -12.5885  -18.3967 C   0  0  0  0  0  0  0  0  0  0  0  0
   16.5064  -13.8487  -18.0049 C   0  0  0  0  0  0  0  0  0  0  0  0
   16.0359  -14.6287  -19.2272 C   0  0  0  0  0  0  0  0  0  0  0  0
   15.3443  -15.8059  -18.7370 N   0  0  0  0  0  0  0  0  0  0  0  0
   19.6172  -10.8653  -16.0400 C   0  0  0  0  0  0  0  0  0  0  0  0
   19.7163  -11.5182  -14.9789 O   0  0  0  0  0  0  0  0  0  0  0  0
   22.9551   -9.4251  -15.8122 O   0  0  0  0  0  0  0  0  0  0  0  0
   22.1172   -9.6186  -14.7342 C   0  0  0  0  0  0  0  0  0  0  0  0
   20.7886   -8.9325  -14.9305 C   0  0  2  0  0  0  0  0  0  0  0  0
   20.0284   -9.5149  -16.0217 N   0  0  0  0  0  0  0  0  0  0  0  0
   20.9382   -7.4856  -15.2292 C   0  0  0  0  0  0  0  0  0  0  0  0
   21.2354   -7.0852  -16.3883 O   0  0  0  0  0  0  0  0  0  0  0  0
   20.7589   -6.4775  -14.2436 N   0  0  0  0  0  0  0  0  0  0  0  0
   21.0280   -5.0854  -14.5517 C   0  0  1  0  0  0  0  0  0  0  0  0
   19.7947   -4.2600  -14.2575 C   0  0  0  0  0  0  0  0  0  0  0  0
   19.9959   -2.8331  -14.5505 C   0  0  0  0  0  0  0  0  0  0  0  0
   20.9683   -2.4638  -15.2341 O   0  0  0  0  0  0  0  0  0  0  0  0
   22.1892   -4.5932  -13.7292 C   0  0  0  0  0  0  0  0  0  0  0  0
   22.8714   -3.4412  -14.0793 O   0  0  0  0  0  0  0  0  0  0  0  0
   19.1084   -1.8964  -14.0695 O   0  0  0  0  0  0  0  0  0  0  0  0
   22.5733   -5.2054  -12.7088 O   0  0  0  0  0  0  0  0  0  0  0  0
  2  1  1  1
  3  2  1  0
  4  3  1  0
  5  4  1  0
  5  6  1  0
  6  7  1  0
  8  2  1  0
  8  9  2  0
 12 11  1  6
 11 10  1  0
 13 12  1  0
 13  8  1  0
 14 15  2  0
 14 12  1  0
 16 14  1  0
 17 21  1  0
 17 16  1  0
 17 18  1  1
 19 23  1  0
 19 18  1  0
 20 19  2  0
 21 22  1  0
 24 21  2  0
M  END
$$$$
