KSD.pdb
     RDKit          3D

 24 23  0  0  1  0  0  0  0  0999 V2000
   28.5589  -25.7633  -16.4254 N   0  0  0  0  0  0  0  0  0  0  0  0
   27.4565  -25.4758  -17.2725 C   0  0  1  0  0  0  0  0  0  0  0  0
   26.4969  -26.6029  -17.3501 C   0  0  0  0  0  0  0  0  0  0  0  0
   27.0654  -27.8486  -16.7456 C   0  0  0  0  0  0  0  0  0  0  0  0
   27.3093  -28.9835  -17.6878 C   0  0  0  0  0  0  0  0  0  0  0  0
   27.8375  -30.2124  -16.9567 C   0  0  0  0  0  0  0  0  0  0  0  0
   28.0795  -31.2304  -17.9614 N   0  0  0  0  0  0  0  0  0  0  0  0
   26.8178  -24.1811  -16.9265 C   0  0  0  0  0  0  0  0  0  0  0  0
   26.5783  -23.8259  -15.7524 O   0  0  0  0  0  0  0  0  0  0  0  0
   27.2274  -20.7263  -19.1707 O   0  0  0  0  0  0  0  0  0  0  0  0
   25.9229  -21.1016  -18.9278 C   0  0  0  0  0  0  0  0  0  0  0  0
   25.8190  -22.0151  -17.7323 C   0  0  2  0  0  0  0  0  0  0  0  0
   26.4577  -23.2976  -17.9670 N   0  0  0  0  0  0  0  0  0  0  0  0
   24.4101  -22.2942  -17.3549 C   0  0  0  0  0  0  0  0  0  0  0  0
   23.7930  -23.2896  -17.8245 O   0  0  0  0  0  0  0  0  0  0  0  0
   23.6806  -21.4705  -16.4554 N   0  0  0  0  0  0  0  0  0  0  0  0
   22.3194  -21.8068  -16.0823 C   0  0  1  0  0  0  0  0  0  0  0  0
   22.2121  -21.8604  -14.5742 C   0  0  0  0  0  0  0  0  0  0  0  0
   20.8743  -22.2735  -14.1248 C   0  0  0  0  0  0  0  0  0  0  0  0
   19.9751  -22.4993  -14.9553 O   0  0  0  0  0  0  0  0  0  0  0  0
   21.3675  -20.7784  -16.6333 C   0  0  0  0  0  0  0  0  0  0  0  0
   20.0779  -21.1250  -16.9965 O   0  0  0  0  0  0  0  0  0  0  0  0
   20.6086  -22.4130  -12.7808 O   0  0  0  0  0  0  0  0  0  0  0  0
   21.7087  -19.5845  -16.7801 O   0  0  0  0  0  0  0  0  0  0  0  0
  2  1  1  1
  3  2  1  0
  4  3  1  0
  5  4  1  0
  5  6  1  0
  6  7  1  0
  8  2  1  0
  8  9  2  0
 12 11  1  6
 11 10  1  0
 13 12  1  0
 13  8  1  0
 14 15  2  0
 14 12  1  0
 16 14  1  0
 17 21  1  0
 17 16  1  0
 17 18  1  1
 19 23  1  0
 19 18  1  0
 20 19  2  0
 21 22  1  0
 24 21  2  0
M  END
$$$$
