KSD.pdb
     RDKit          3D

 24 23  0  0  1  0  0  0  0  0999 V2000
   11.6039  -11.5432  -11.4010 N   0  0  0  0  0  0  0  0  0  0  0  0
   12.1519  -10.3085  -11.8375 C   0  0  1  0  0  0  0  0  0  0  0  0
   12.3066   -9.3375  -10.7283 C   0  0  0  0  0  0  0  0  0  0  0  0
   10.9881   -9.0080  -10.1011 C   0  0  0  0  0  0  0  0  0  0  0  0
   11.0259   -8.0377   -8.9644 C   0  0  0  0  0  0  0  0  0  0  0  0
    9.6294   -7.7624   -8.4188 C   0  0  0  0  0  0  0  0  0  0  0  0
    9.7923   -6.9346   -7.2386 N   0  0  0  0  0  0  0  0  0  0  0  0
   13.3941  -10.5044  -12.6265 C   0  0  0  0  0  0  0  0  0  0  0  0
   14.1795  -11.4594  -12.4444 O   0  0  0  0  0  0  0  0  0  0  0  0
   13.9164   -8.2313  -16.1765 O   0  0  0  0  0  0  0  0  0  0  0  0
   14.3831   -9.5168  -15.9993 C   0  0  0  0  0  0  0  0  0  0  0  0
   14.8081   -9.7639  -14.5735 C   0  0  2  0  0  0  0  0  0  0  0  0
   13.7160   -9.5719  -13.6363 N   0  0  0  0  0  0  0  0  0  0  0  0
   15.9092   -8.8632  -14.1476 C   0  0  0  0  0  0  0  0  0  0  0  0
   15.6693   -7.7451  -13.6142 O   0  0  0  0  0  0  0  0  0  0  0  0
   17.2804   -9.1991  -14.3117 N   0  0  0  0  0  0  0  0  0  0  0  0
   18.3196   -8.2286  -14.0226 C   0  0  1  0  0  0  0  0  0  0  0  0
   19.6544   -8.9353  -13.9352 C   0  0  0  0  0  0  0  0  0  0  0  0
   20.7474   -8.0197  -13.5752 C   0  0  0  0  0  0  0  0  0  0  0  0
   20.4948   -6.8820  -13.1381 O   0  0  0  0  0  0  0  0  0  0  0  0
   18.3578   -7.1808  -15.1033 C   0  0  0  0  0  0  0  0  0  0  0  0
   18.5786   -5.8496  -14.7961 O   0  0  0  0  0  0  0  0  0  0  0  0
   22.0580   -8.4166  -13.7199 O   0  0  0  0  0  0  0  0  0  0  0  0
   18.1924   -7.4769  -16.3068 O   0  0  0  0  0  0  0  0  0  0  0  0
  2  1  1  1
  3  2  1  0
  4  3  1  0
  5  4  1  0
  5  6  1  0
  6  7  1  0
  8  2  1  0
  8  9  2  0
 12 11  1  6
 11 10  1  0
 13 12  1  0
 13  8  1  0
 14 15  2  0
 14 12  1  0
 16 14  1  0
 17 21  1  0
 17 16  1  0
 17 18  1  6
 19 23  1  0
 19 18  1  0
 20 19  2  0
 21 22  1  0
 24 21  2  0
M  END
$$$$
