CAS.pdb
     RDKit          3D

 18 17  0  0  1  0  0  0  0  0999 V2000
   16.3453   -9.0644  -10.1500 N   0  0  0  0  0  0  0  0  0  0  0  0
   16.7926   -9.2264  -11.5127 C   0  0  1  0  0  0  0  0  0  0  0  0
   15.7394   -8.7911  -12.5027 C   0  0  0  0  0  0  0  0  0  0  0  0
   14.3679   -9.9811  -12.4087 S   0  0  0  0  0  0  0  0  0  0  0  0
   18.0956   -8.5609  -11.7378 C   0  0  0  0  0  0  0  0  0  0  0  0
   18.2749   -7.4247  -11.2287 O   0  0  0  0  0  0  0  0  0  0  0  0
   21.3140   -9.4699  -13.4368 C   0  0  0  0  0  0  0  0  0  0  0  0
   20.4181   -8.4403  -12.7361 C   0  0  2  0  0  0  0  0  0  0  0  0
   19.1604   -9.1050  -12.4843 N   0  0  0  0  0  0  0  0  0  0  0  0
   20.2667   -7.3102  -13.6999 C   0  0  0  0  0  0  0  0  0  0  0  0
   19.5072   -7.4338  -14.6938 O   0  0  0  0  0  0  0  0  0  0  0  0
   19.9791   -3.5723  -12.7926 O   0  0  0  0  0  0  0  0  0  0  0  0
   19.8115   -3.9842  -14.1137 C   0  0  0  0  0  0  0  0  0  0  0  0
   20.8789   -4.9856  -14.4829 C   0  0  2  0  0  0  0  0  0  0  0  0
   20.9561   -6.0790  -13.5396 N   0  0  0  0  0  0  0  0  0  0  0  0
   22.1849   -4.2733  -14.4654 C   0  0  0  0  0  0  0  0  0  0  0  0
   23.1162   -4.6082  -13.6754 O   0  0  0  0  0  0  0  0  0  0  0  0
   22.4660   -3.1988  -15.3112 O   0  0  0  0  0  0  0  0  0  0  0  0
  2  1  1  1
  2  3  1  0
  4  3  1  0
  5  2  1  0
  6  5  2  0
  8  7  1  6
  8  9  1  0
  9  5  1  0
 10  8  1  0
 10 15  1  0
 11 10  2  0
 13 12  1  0
 14 13  1  1
 14 15  1  0
 14 16  1  0
 16 18  1  0
 17 16  2  0
M  END
$$$$
