CAS.pdb
     RDKit          3D

 18 17  0  0  1  0  0  0  0  0999 V2000
   15.0623  -14.0082  -14.0722 N   0  0  0  0  0  0  0  0  0  0  0  0
   15.2461  -13.0068  -15.0953 C   0  0  1  0  0  0  0  0  0  0  0  0
   13.9561  -12.2913  -15.4159 C   0  0  0  0  0  0  0  0  0  0  0  0
   12.8453  -13.4880  -16.2160 S   0  0  0  0  0  0  0  0  0  0  0  0
   16.3436  -12.0751  -14.7503 C   0  0  0  0  0  0  0  0  0  0  0  0
   16.2493  -11.4209  -13.6800 O   0  0  0  0  0  0  0  0  0  0  0  0
   19.7090  -11.2174  -16.1385 C   0  0  0  0  0  0  0  0  0  0  0  0
   18.4940  -10.8490  -15.2773 C   0  0  2  0  0  0  0  0  0  0  0  0
   17.4959  -11.8615  -15.5337 N   0  0  0  0  0  0  0  0  0  0  0  0
   18.0543   -9.5025  -15.7491 C   0  0  0  0  0  0  0  0  0  0  0  0
   17.2820   -9.4076  -16.7363 O   0  0  0  0  0  0  0  0  0  0  0  0
   17.7614   -4.7113  -14.9460 O   0  0  0  0  0  0  0  0  0  0  0  0
   18.1772   -5.9538  -14.4701 C   0  0  0  0  0  0  0  0  0  0  0  0
   18.1058   -6.9810  -15.5740 C   0  0  2  0  0  0  0  0  0  0  0  0
   18.4784   -8.3023  -15.1196 N   0  0  0  0  0  0  0  0  0  0  0  0
   19.0712   -6.5708  -16.6289 C   0  0  0  0  0  0  0  0  0  0  0  0
   20.1999   -7.1312  -16.7538 O   0  0  0  0  0  0  0  0  0  0  0  0
   18.7980   -5.5505  -17.5417 O   0  0  0  0  0  0  0  0  0  0  0  0
  2  1  1  1
  2  3  1  0
  4  3  1  0
  5  2  1  0
  6  5  2  0
  8  7  1  6
  8  9  1  0
  9  5  1  0
 10  8  1  0
 10 15  1  0
 11 10  2  0
 13 12  1  0
 14 13  1  1
 14 15  1  0
 14 16  1  0
 16 18  1  0
 17 16  2  0
M  END
$$$$
