CAS.pdb
     RDKit          3D

 18 17  0  0  1  0  0  0  0  0999 V2000
   14.8477   -9.1806   -8.8677 N   0  0  0  0  0  0  0  0  0  0  0  0
   14.8573   -9.5608  -10.2599 C   0  0  1  0  0  0  0  0  0  0  0  0
   13.4849   -9.4515  -10.8792 C   0  0  0  0  0  0  0  0  0  0  0  0
   12.4264  -10.7083  -10.1009 S   0  0  0  0  0  0  0  0  0  0  0  0
   15.8856   -8.8134  -11.0185 C   0  0  0  0  0  0  0  0  0  0  0  0
   15.9653   -7.5707  -10.8399 O   0  0  0  0  0  0  0  0  0  0  0  0
   18.6741   -9.7144  -13.3558 C   0  0  0  0  0  0  0  0  0  0  0  0
   17.7886   -8.6596  -12.6798 C   0  0  2  0  0  0  0  0  0  0  0  0
   16.7904   -9.3896  -11.9330 N   0  0  0  0  0  0  0  0  0  0  0  0
   17.1826   -7.8657  -13.7896 C   0  0  0  0  0  0  0  0  0  0  0  0
   16.2921   -8.3801  -14.5123 O   0  0  0  0  0  0  0  0  0  0  0  0
   17.1196   -3.8947  -13.5733 O   0  0  0  0  0  0  0  0  0  0  0  0
   16.3056   -4.4824  -14.5403 C   0  0  0  0  0  0  0  0  0  0  0  0
   16.9745   -5.7141  -15.1007 C   0  0  2  0  0  0  0  0  0  0  0  0
   17.5758   -6.5300  -14.0692 N   0  0  0  0  0  0  0  0  0  0  0  0
   18.0577   -5.2582  -16.0129 C   0  0  0  0  0  0  0  0  0  0  0  0
   19.2671   -5.5845  -15.8269 O   0  0  0  0  0  0  0  0  0  0  0  0
   17.8134   -4.4484  -17.1235 O   0  0  0  0  0  0  0  0  0  0  0  0
  2  1  1  1
  2  3  1  0
  4  3  1  0
  5  2  1  0
  6  5  2  0
  8  7  1  6
  8  9  1  0
  9  5  1  0
 10  8  1  0
 10 15  1  0
 11 10  2  0
 13 12  1  0
 14 13  1  1
 14 15  1  0
 14 16  1  0
 16 18  1  0
 17 16  2  0
M  END
$$$$
