CAS.pdb
     RDKit          3D

 18 17  0  0  1  0  0  0  0  0999 V2000
   18.7945  -15.7075  -16.0099 N   0  0  0  0  0  0  0  0  0  0  0  0
   17.9842  -14.5134  -15.9793 C   0  0  1  0  0  0  0  0  0  0  0  0
   17.2682  -14.3569  -14.6596 C   0  0  0  0  0  0  0  0  0  0  0  0
   15.9693  -15.6270  -14.5823 S   0  0  0  0  0  0  0  0  0  0  0  0
   18.7720  -13.3147  -16.3455 C   0  0  0  0  0  0  0  0  0  0  0  0
   19.9456  -13.2205  -15.9026 O   0  0  0  0  0  0  0  0  0  0  0  0
   18.2711  -10.3879  -18.6304 C   0  0  0  0  0  0  0  0  0  0  0  0
   19.0911  -11.1161  -17.5575 C   0  0  2  0  0  0  0  0  0  0  0  0
   18.3063  -12.2616  -17.1585 N   0  0  0  0  0  0  0  0  0  0  0  0
   19.2575  -10.1396  -16.4405 C   0  0  0  0  0  0  0  0  0  0  0  0
   18.3993  -10.0866  -15.5236 O   0  0  0  0  0  0  0  0  0  0  0  0
   22.2537   -6.9851  -14.1986 O   0  0  0  0  0  0  0  0  0  0  0  0
   22.0716   -7.9015  -15.2330 C   0  0  0  0  0  0  0  0  0  0  0  0
   20.6555   -8.4240  -15.2182 C   0  0  2  0  0  0  0  0  0  0  0  0
   20.3635   -9.2518  -16.3674 N   0  0  0  0  0  0  0  0  0  0  0  0
   19.7451   -7.2481  -15.2582 C   0  0  0  0  0  0  0  0  0  0  0  0
   19.3738   -6.7295  -16.3522 O   0  0  0  0  0  0  0  0  0  0  0  0
   19.2454   -6.6452  -14.1024 O   0  0  0  0  0  0  0  0  0  0  0  0
  2  1  1  1
  2  3  1  0
  4  3  1  0
  5  2  1  0
  6  5  2  0
  8  7  1  6
  8  9  1  0
  9  5  1  0
 10  8  1  0
 10 15  1  0
 11 10  2  0
 13 12  1  0
 14 13  1  6
 14 15  1  0
 14 16  1  0
 16 18  1  0
 17 16  2  0
M  END
$$$$
