CAS.pdb
     RDKit          3D

 18 17  0  0  1  0  0  0  0  0999 V2000
   17.8408  -11.3917  -17.3993 N   0  0  0  0  0  0  0  0  0  0  0  0
   17.8384  -10.5630  -16.2176 C   0  0  1  0  0  0  0  0  0  0  0  0
   18.5501  -11.2298  -15.0653 C   0  0  0  0  0  0  0  0  0  0  0  0
   18.3305  -10.1785  -13.5981 S   0  0  0  0  0  0  0  0  0  0  0  0
   18.3634   -9.2089  -16.5045 C   0  0  0  0  0  0  0  0  0  0  0  0
   19.5382   -9.1111  -16.9435 O   0  0  0  0  0  0  0  0  0  0  0  0
   16.9991   -5.7427  -16.6696 C   0  0  0  0  0  0  0  0  0  0  0  0
   18.1953   -6.6839  -16.4777 C   0  0  2  0  0  0  0  0  0  0  0  0
   17.6442   -8.0103  -16.3229 N   0  0  0  0  0  0  0  0  0  0  0  0
   18.8834   -6.2192  -15.2368 C   0  0  0  0  0  0  0  0  0  0  0  0
   18.4271   -6.5421  -14.1110 O   0  0  0  0  0  0  0  0  0  0  0  0
   22.7828   -5.3329  -12.8285 O   0  0  0  0  0  0  0  0  0  0  0  0
   22.1049   -5.7556  -13.9708 C   0  0  0  0  0  0  0  0  0  0  0  0
   20.7938   -5.0182  -14.0971 C   0  0  2  0  0  0  0  0  0  0  0  0
   20.0523   -5.4137  -15.2739 N   0  0  0  0  0  0  0  0  0  0  0  0
   21.1065   -3.5688  -14.2190 C   0  0  0  0  0  0  0  0  0  0  0  0
   21.2449   -3.0094  -15.3467 O   0  0  0  0  0  0  0  0  0  0  0  0
   21.2664   -2.7387  -13.1081 O   0  0  0  0  0  0  0  0  0  0  0  0
  2  1  1  6
  2  3  1  0
  4  3  1  0
  5  2  1  0
  6  5  2  0
  8  7  1  1
  8  9  1  0
  9  5  1  0
 10  8  1  0
 10 15  1  0
 11 10  2  0
 13 12  1  0
 14 13  1  6
 14 15  1  0
 14 16  1  0
 16 18  1  0
 17 16  2  0
M  END
$$$$
