WVT.pdb
     RDKit          3D

 29 30  0  0  1  0  0  0  0  0999 V2000
   24.2290  -19.8828  -11.2890 N   0  0  0  0  0  0  0  0  0  0  0  0
   25.6204  -20.1968  -11.4563 C   0  0  1  0  0  0  0  0  0  0  0  0
   26.0654  -21.2880  -10.5134 C   0  0  0  0  0  0  0  0  0  0  0  0
   26.2935  -20.8562   -9.1347 C   0  0  0  0  0  0  0  0  0  0  0  0
   25.3116  -20.6537   -8.1898 C   0  0  0  0  0  0  0  0  0  0  0  0
   25.8892  -20.2841   -7.0334 N   0  0  0  0  0  0  0  0  0  0  0  0
   27.2218  -20.2326   -7.1745 C   0  0  0  0  0  0  0  0  0  0  0  0
   28.2153  -19.9051   -6.2822 C   0  0  0  0  0  0  0  0  0  0  0  0
   29.5256  -19.9345   -6.7218 C   0  0  0  0  0  0  0  0  0  0  0  0
   29.8005  -20.2858   -8.0237 C   0  0  0  0  0  0  0  0  0  0  0  0
   28.8107  -20.6173   -8.9299 C   0  0  0  0  0  0  0  0  0  0  0  0
   27.4831  -20.5914   -8.4956 C   0  0  0  0  0  0  0  0  0  0  0  0
   25.8143  -20.7509  -12.8366 C   0  0  0  0  0  0  0  0  0  0  0  0
   24.7849  -21.1543  -13.4348 O   0  0  0  0  0  0  0  0  0  0  0  0
   27.7979  -18.2514  -14.6101 C   0  0  0  0  0  0  0  0  0  0  0  0
   28.2048  -19.5680  -15.1911 C   0  0  2  0  0  0  0  0  0  0  0  0
   28.4870  -19.4756  -16.6764 C   0  0  0  0  0  0  0  0  0  0  0  0
   27.1558  -20.6259  -14.8963 C   0  0  2  0  0  0  0  0  0  0  0  0
   27.0985  -20.8172  -13.4396 N   0  0  0  0  0  0  0  0  0  0  0  0
   27.4950  -21.8672  -15.5787 C   0  0  0  0  0  0  0  0  0  0  0  0
   28.7149  -22.2812  -15.4731 O   0  0  0  0  0  0  0  0  0  0  0  0
   25.4085  -25.5397  -15.8706 C   0  0  0  0  0  0  0  0  0  0  0  0
   25.9851  -24.9466  -17.1088 C   0  0  1  0  0  0  0  0  0  0  0  0
   24.9812  -24.3203  -17.8447 O   0  0  0  0  0  0  0  0  0  0  0  0
   27.1354  -23.9936  -16.8753 C   0  0  2  0  0  0  0  0  0  0  0  0
   26.6763  -22.7170  -16.3548 N   0  0  0  0  0  0  0  0  0  0  0  0
   27.8020  -23.7650  -18.1733 C   0  0  0  0  0  0  0  0  0  0  0  0
   27.6719  -22.6752  -18.8124 O   0  0  0  0  0  0  0  0  0  0  0  0
   28.6157  -24.7059  -18.7975 O   0  0  0  0  0  0  0  0  0  0  0  0
  2  1  1  1
  2 13  1  0
  3  2  1  0
  3  4  1  0
  4 12  1  0
  5  6  1  0
  5  4  2  0
  6  7  1  0
  7 12  2  0
  7  8  1  0
  8  9  2  0
  9 10  1  0
 11 10  2  0
 12 11  1  0
 13 19  1  0
 13 14  2  0
 16 15  1  6
 16 18  1  0
 16 17  1  0
 18 20  1  0
 18 19  1  1
 20 21  2  0
 23 22  1  1
 23 24  1  0
 23 25  1  0
 25 27  1  0
 25 26  1  6
 26 20  1  0
 27 29  1  0
 28 27  2  0
M  END
$$$$
