WVT.pdb
     RDKit          3D

 29 30  0  0  1  0  0  0  0  0999 V2000
   25.2006  -19.7806  -10.3481 N   0  0  0  0  0  0  0  0  0  0  0  0
   24.7534  -20.8195   -9.4630 C   0  0  1  0  0  0  0  0  0  0  0  0
   25.0724  -20.5032   -8.0221 C   0  0  0  0  0  0  0  0  0  0  0  0
   26.4989  -20.4553   -7.7028 C   0  0  0  0  0  0  0  0  0  0  0  0
   27.5234  -20.7027   -8.5900 C   0  0  0  0  0  0  0  0  0  0  0  0
   28.6977  -20.5452   -7.9547 N   0  0  0  0  0  0  0  0  0  0  0  0
   28.4919  -20.2020   -6.6748 C   0  0  0  0  0  0  0  0  0  0  0  0
   29.3748  -19.9432   -5.6530 C   0  0  0  0  0  0  0  0  0  0  0  0
   28.8618  -19.6130   -4.4126 C   0  0  0  0  0  0  0  0  0  0  0  0
   27.4988  -19.5524   -4.2323 C   0  0  0  0  0  0  0  0  0  0  0  0
   26.6011  -19.8101   -5.2516 C   0  0  0  0  0  0  0  0  0  0  0  0
   27.1093  -20.1440   -6.5094 C   0  0  0  0  0  0  0  0  0  0  0  0
   23.2572  -20.8905   -9.5400 C   0  0  0  0  0  0  0  0  0  0  0  0
   22.6295  -19.8147   -9.3699 O   0  0  0  0  0  0  0  0  0  0  0  0
   21.3829  -21.0662  -12.1824 C   0  0  0  0  0  0  0  0  0  0  0  0
   20.7704  -22.1809  -11.3957 C   0  0  2  0  0  0  0  0  0  0  0  0
   19.2719  -22.2689  -11.5986 C   0  0  0  0  0  0  0  0  0  0  0  0
   21.1180  -22.0458   -9.9234 C   0  0  2  0  0  0  0  0  0  0  0  0
   22.5810  -22.1137   -9.7926 N   0  0  0  0  0  0  0  0  0  0  0  0
   20.4702  -23.1035   -9.1598 C   0  0  0  0  0  0  0  0  0  0  0  0
   21.0525  -24.2573   -9.1435 O   0  0  0  0  0  0  0  0  0  0  0  0
   18.5959  -23.3550   -5.3340 C   0  0  0  0  0  0  0  0  0  0  0  0
   17.8637  -23.8136   -6.5469 C   0  0  1  0  0  0  0  0  0  0  0  0
   16.9612  -22.8328   -6.9532 O   0  0  0  0  0  0  0  0  0  0  0  0
   18.7499  -24.2208   -7.7023 C   0  0  2  0  0  0  0  0  0  0  0  0
   19.2751  -23.0644   -8.4081 N   0  0  0  0  0  0  0  0  0  0  0  0
   17.9316  -25.0173   -8.6390 C   0  0  0  0  0  0  0  0  0  0  0  0
   17.4604  -24.5207   -9.7088 O   0  0  0  0  0  0  0  0  0  0  0  0
   17.6117  -26.3565   -8.4352 O   0  0  0  0  0  0  0  0  0  0  0  0
  2  1  1  6
  2 13  1  0
  3  2  1  0
  3  4  1  0
  4 12  1  0
  5  6  1  0
  5  4  2  0
  6  7  1  0
  7 12  2  0
  7  8  1  0
  8  9  2  0
  9 10  1  0
 11 10  2  0
 12 11  1  0
 13 19  1  0
 13 14  2  0
 16 15  1  6
 16 18  1  0
 16 17  1  0
 18 20  1  0
 18 19  1  6
 20 21  2  0
 23 22  1  1
 23 24  1  0
 23 25  1  0
 25 27  1  0
 25 26  1  6
 26 20  1  0
 27 29  1  0
 28 27  2  0
M  END
$$$$
