WVT.pdb
     RDKit          3D

 29 30  0  0  1  0  0  0  0  0999 V2000
   13.5672  -12.2231  -17.6469 N   0  0  0  0  0  0  0  0  0  0  0  0
   14.4929  -13.2238  -18.0989 C   0  0  1  0  0  0  0  0  0  0  0  0
   15.7374  -13.2615  -17.2458 C   0  0  0  0  0  0  0  0  0  0  0  0
   16.6394  -12.1235  -17.4209 C   0  0  0  0  0  0  0  0  0  0  0  0
   16.5064  -10.8984  -16.8050 C   0  0  0  0  0  0  0  0  0  0  0  0
   17.5260  -10.1077  -17.1827 N   0  0  0  0  0  0  0  0  0  0  0  0
   18.3338  -10.7627  -18.0293 C   0  0  0  0  0  0  0  0  0  0  0  0
   19.4831  -10.3683  -18.6729 C   0  0  0  0  0  0  0  0  0  0  0  0
   20.1101  -11.2748  -19.5071 C   0  0  0  0  0  0  0  0  0  0  0  0
   19.5765  -12.5327  -19.6715 C   0  0  0  0  0  0  0  0  0  0  0  0
   18.4221  -12.9410  -19.0299 C   0  0  0  0  0  0  0  0  0  0  0  0
   17.7810  -12.0326  -18.1839 C   0  0  0  0  0  0  0  0  0  0  0  0
   13.8486  -14.5682  -17.9341 C   0  0  0  0  0  0  0  0  0  0  0  0
   12.9288  -14.6551  -17.0817 O   0  0  0  0  0  0  0  0  0  0  0  0
   11.8933  -16.2652  -20.3163 C   0  0  0  0  0  0  0  0  0  0  0  0
   12.8850  -17.2966  -19.8814 C   0  0  2  0  0  0  0  0  0  0  0  0
   12.2882  -18.6885  -19.8527 C   0  0  0  0  0  0  0  0  0  0  0  0
   13.4803  -16.9267  -18.5340 C   0  0  2  0  0  0  0  0  0  0  0  0
   14.2575  -15.6900  -18.7034 N   0  0  0  0  0  0  0  0  0  0  0  0
   14.3175  -18.0133  -18.0444 C   0  0  0  0  0  0  0  0  0  0  0  0
   15.4299  -18.2246  -18.6679 O   0  0  0  0  0  0  0  0  0  0  0  0
   15.3786  -19.0141  -14.1674 C   0  0  0  0  0  0  0  0  0  0  0  0
   14.9829  -20.1490  -15.0465 C   0  0  1  0  0  0  0  0  0  0  0  0
   13.6923  -20.5664  -14.7274 O   0  0  0  0  0  0  0  0  0  0  0  0
   15.0907  -19.8666  -16.5279 C   0  0  2  0  0  0  0  0  0  0  0  0
   14.1022  -18.8937  -16.9612 N   0  0  0  0  0  0  0  0  0  0  0  0
   14.8551  -21.1351  -17.2469 C   0  0  0  0  0  0  0  0  0  0  0  0
   13.7363  -21.4050  -17.7840 O   0  0  0  0  0  0  0  0  0  0  0  0
   15.8205  -22.1266  -17.3960 O   0  0  0  0  0  0  0  0  0  0  0  0
  2  1  1  1
  2 13  1  0
  3  2  1  0
  3  4  1  0
  4 12  1  0
  5  6  1  0
  5  4  2  0
  6  7  1  0
  7 12  2  0
  7  8  1  0
  8  9  2  0
  9 10  1  0
 11 10  2  0
 12 11  1  0
 13 19  1  0
 13 14  2  0
 16 15  1  1
 16 18  1  0
 16 17  1  0
 18 20  1  0
 18 19  1  6
 20 21  2  0
 23 22  1  1
 23 24  1  0
 23 25  1  0
 25 27  1  0
 25 26  1  6
 26 20  1  0
 27 29  1  0
 28 27  2  0
M  END
$$$$
