WVT.pdb
     RDKit          3D

 29 30  0  0  1  0  0  0  0  0999 V2000
   28.7486  -20.9739  -15.7292 N   0  0  0  0  0  0  0  0  0  0  0  0
   27.8663  -20.0854  -15.0258 C   0  0  1  0  0  0  0  0  0  0  0  0
   26.9830  -19.3089  -15.9717 C   0  0  0  0  0  0  0  0  0  0  0  0
   27.5757  -18.0807  -16.5004 C   0  0  0  0  0  0  0  0  0  0  0  0
   28.2843  -17.9797  -17.6775 C   0  0  0  0  0  0  0  0  0  0  0  0
   28.6565  -16.7000  -17.8538 N   0  0  0  0  0  0  0  0  0  0  0  0
   28.2212  -15.9442  -16.8351 C   0  0  0  0  0  0  0  0  0  0  0  0
   28.3603  -14.6003  -16.5800 C   0  0  0  0  0  0  0  0  0  0  0  0
   27.7989  -14.0921  -15.4235 C   0  0  0  0  0  0  0  0  0  0  0  0
   27.1239  -14.9315  -14.5670 C   0  0  0  0  0  0  0  0  0  0  0  0
   26.9770  -16.2840  -14.8125 C   0  0  0  0  0  0  0  0  0  0  0  0
   27.5400  -16.8077  -15.9790 C   0  0  0  0  0  0  0  0  0  0  0  0
   26.9353  -20.9125  -14.1898 C   0  0  0  0  0  0  0  0  0  0  0  0
   26.5953  -22.0291  -14.6566 O   0  0  0  0  0  0  0  0  0  0  0  0
   25.3960  -19.9213  -10.1957 C   0  0  0  0  0  0  0  0  0  0  0  0
   25.7988  -21.2529  -10.7446 C   0  0  2  0  0  0  0  0  0  0  0  0
   27.2513  -21.5740  -10.4596 C   0  0  0  0  0  0  0  0  0  0  0  0
   25.5019  -21.3263  -12.2322 C   0  0  2  0  0  0  0  0  0  0  0  0
   26.4598  -20.4570  -12.9314 N   0  0  0  0  0  0  0  0  0  0  0  0
   24.1293  -20.9115  -12.4871 C   0  0  0  0  0  0  0  0  0  0  0  0
   23.8976  -19.6405  -12.5279 O   0  0  0  0  0  0  0  0  0  0  0  0
   21.2054  -23.2556  -14.4898 C   0  0  0  0  0  0  0  0  0  0  0  0
   21.3172  -21.7709  -14.5113 C   0  0  1  0  0  0  0  0  0  0  0  0
   20.1205  -21.2132  -14.9567 O   0  0  0  0  0  0  0  0  0  0  0  0
   21.7262  -21.1501  -13.1947 C   0  0  2  0  0  0  0  0  0  0  0  0
   22.9797  -21.7015  -12.7089 N   0  0  0  0  0  0  0  0  0  0  0  0
   20.6654  -21.4425  -12.2096 C   0  0  0  0  0  0  0  0  0  0  0  0
   20.8772  -22.1704  -11.1906 O   0  0  0  0  0  0  0  0  0  0  0  0
   19.3656  -20.9548  -12.3098 O   0  0  0  0  0  0  0  0  0  0  0  0
  2  1  1  6
  2 13  1  0
  3  2  1  0
  3  4  1  0
  4 12  1  0
  5  6  1  0
  5  4  2  0
  6  7  1  0
  7 12  2  0
  7  8  1  0
  8  9  2  0
  9 10  1  0
 11 10  2  0
 12 11  1  0
 13 19  1  0
 13 14  2  0
 16 15  1  6
 16 18  1  0
 16 17  1  0
 18 20  1  0
 18 19  1  6
 20 21  2  0
 23 22  1  1
 23 24  1  0
 23 25  1  0
 25 27  1  0
 25 26  1  1
 26 20  1  0
 27 29  1  0
 28 27  2  0
M  END
$$$$
