WVT.pdb
     RDKit          3D

 29 30  0  0  1  0  0  0  0  0999 V2000
   25.3912  -18.7118   -8.9758 N   0  0  0  0  0  0  0  0  0  0  0  0
   26.2428  -19.7761   -9.4284 C   0  0  1  0  0  0  0  0  0  0  0  0
   26.0439  -21.0348   -8.6197 C   0  0  0  0  0  0  0  0  0  0  0  0
   26.2122  -20.8728   -7.1759 C   0  0  0  0  0  0  0  0  0  0  0  0
   25.2437  -21.1188   -6.2275 C   0  0  0  0  0  0  0  0  0  0  0  0
   25.7585  -20.8848   -5.0079 N   0  0  0  0  0  0  0  0  0  0  0  0
   27.0363  -20.4907   -5.1100 C   0  0  0  0  0  0  0  0  0  0  0  0
   27.9560  -20.1408   -4.1496 C   0  0  0  0  0  0  0  0  0  0  0  0
   29.2206  -19.7636   -4.5610 C   0  0  0  0  0  0  0  0  0  0  0  0
   29.5248  -19.7474   -5.9031 C   0  0  0  0  0  0  0  0  0  0  0  0
   28.6091  -20.0972   -6.8779 C   0  0  0  0  0  0  0  0  0  0  0  0
   27.3283  -20.4807   -6.4727 C   0  0  0  0  0  0  0  0  0  0  0  0
   25.8474  -20.1298  -10.8313 C   0  0  0  0  0  0  0  0  0  0  0  0
   24.7166  -19.7386  -11.2170 O   0  0  0  0  0  0  0  0  0  0  0  0
   29.0293  -19.7476  -12.8992 C   0  0  0  0  0  0  0  0  0  0  0  0
   28.1012  -20.6492  -13.6491 C   0  0  2  0  0  0  0  0  0  0  0  0
   28.1443  -20.4009  -15.1426 C   0  0  0  0  0  0  0  0  0  0  0  0
   26.6865  -20.5212  -13.1118 C   0  0  2  0  0  0  0  0  0  0  0  0
   26.7080  -20.8713  -11.6839 N   0  0  0  0  0  0  0  0  0  0  0  0
   25.7903  -21.3955  -13.8561 C   0  0  0  0  0  0  0  0  0  0  0  0
   26.0551  -22.6605  -13.8388 O   0  0  0  0  0  0  0  0  0  0  0  0
   21.8132  -22.0137  -13.6268 C   0  0  0  0  0  0  0  0  0  0  0  0
   22.3185  -21.7539  -15.0033 C   0  0  1  0  0  0  0  0  0  0  0  0
   22.0609  -20.4317  -15.3596 O   0  0  0  0  0  0  0  0  0  0  0  0
   23.7812  -22.0764  -15.2096 C   0  0  2  0  0  0  0  0  0  0  0  0
   24.6414  -21.0702  -14.6105 N   0  0  0  0  0  0  0  0  0  0  0  0
   24.0340  -22.1119  -16.6644 C   0  0  0  0  0  0  0  0  0  0  0  0
   24.7356  -21.2273  -17.2459 O   0  0  0  0  0  0  0  0  0  0  0  0
   23.5353  -23.0995  -17.5089 O   0  0  0  0  0  0  0  0  0  0  0  0
  2  1  1  1
  2 13  1  0
  3  2  1  0
  3  4  1  0
  4 12  1  0
  5  6  1  0
  5  4  2  0
  6  7  1  0
  7 12  2  0
  7  8  1  0
  8  9  2  0
  9 10  1  0
 11 10  2  0
 12 11  1  0
 13 19  1  0
 13 14  2  0
 16 15  1  1
 16 18  1  0
 16 17  1  0
 18 20  1  0
 18 19  1  1
 20 21  2  0
 23 22  1  1
 23 24  1  0
 23 25  1  0
 25 27  1  0
 25 26  1  1
 26 20  1  0
 27 29  1  0
 28 27  2  0
M  END
$$$$
