WVT.pdb
     RDKit          3D

 29 30  0  0  1  0  0  0  0  0999 V2000
   28.5496  -24.2809  -16.9913 N   0  0  0  0  0  0  0  0  0  0  0  0
   27.1523  -24.5048  -17.2365 C   0  0  1  0  0  0  0  0  0  0  0  0
   26.5928  -25.5841  -16.3420 C   0  0  0  0  0  0  0  0  0  0  0  0
   27.1044  -26.9289  -16.6047 C   0  0  0  0  0  0  0  0  0  0  0  0
   28.1294  -27.5406  -15.9169 C   0  0  0  0  0  0  0  0  0  0  0  0
   28.3121  -28.7759  -16.4149 N   0  0  0  0  0  0  0  0  0  0  0  0
   27.4451  -29.0089  -17.4111 C   0  0  0  0  0  0  0  0  0  0  0  0
   27.2596  -30.1116  -18.2113 C   0  0  0  0  0  0  0  0  0  0  0  0
   26.2732  -30.0600  -19.1783 C   0  0  0  0  0  0  0  0  0  0  0  0
   25.5112  -28.9222  -19.3154 C   0  0  0  0  0  0  0  0  0  0  0  0
   25.6879  -27.8075  -18.5170 C   0  0  0  0  0  0  0  0  0  0  0  0
   26.6818  -27.8496  -17.5360 C   0  0  0  0  0  0  0  0  0  0  0  0
   26.4061  -23.2543  -16.8771 C   0  0  0  0  0  0  0  0  0  0  0  0
   26.9384  -22.5031  -16.0212 O   0  0  0  0  0  0  0  0  0  0  0  0
   26.2617  -20.5283  -18.5575 C   0  0  0  0  0  0  0  0  0  0  0  0
   24.7991  -20.6833  -18.2867 C   0  0  2  0  0  0  0  0  0  0  0  0
   24.1165  -19.3520  -18.0498 C   0  0  0  0  0  0  0  0  0  0  0  0
   24.5718  -21.6317  -17.1225 C   0  0  2  0  0  0  0  0  0  0  0  0
   25.1579  -22.9335  -17.4742 N   0  0  0  0  0  0  0  0  0  0  0  0
   23.1462  -21.7514  -16.8489 C   0  0  0  0  0  0  0  0  0  0  0  0
   22.3844  -22.0868  -17.8377 O   0  0  0  0  0  0  0  0  0  0  0  0
   21.0636  -23.4644  -13.6845 C   0  0  0  0  0  0  0  0  0  0  0  0
   20.6031  -22.1160  -14.1173 C   0  0  1  0  0  0  0  0  0  0  0  0
   21.0399  -21.1534  -13.2094 O   0  0  0  0  0  0  0  0  0  0  0  0
   21.0078  -21.7323  -15.5226 C   0  0  2  0  0  0  0  0  0  0  0  0
   22.4459  -21.5589  -15.6375 N   0  0  0  0  0  0  0  0  0  0  0  0
   20.3478  -20.4516  -15.8479 C   0  0  0  0  0  0  0  0  0  0  0  0
   19.0895  -20.3631  -15.9961 O   0  0  0  0  0  0  0  0  0  0  0  0
   21.0341  -19.2526  -16.0169 O   0  0  0  0  0  0  0  0  0  0  0  0
  2  1  1  1
  2 13  1  0
  3  2  1  0
  3  4  1  0
  4 12  1  0
  5  6  1  0
  5  4  2  0
  6  7  1  0
  7 12  2  0
  7  8  1  0
  8  9  2  0
  9 10  1  0
 11 10  2  0
 12 11  1  0
 13 19  1  0
 13 14  2  0
 16 15  1  1
 16 18  1  0
 16 17  1  0
 18 20  1  0
 18 19  1  6
 20 21  2  0
 23 22  1  1
 23 24  1  0
 23 25  1  0
 25 27  1  0
 25 26  1  1
 26 20  1  0
 27 29  1  0
 28 27  2  0
M  END
$$$$
