WVT.pdb
     RDKit          3D

 29 30  0  0  1  0  0  0  0  0999 V2000
   26.8857  -21.6562  -15.9326 N   0  0  0  0  0  0  0  0  0  0  0  0
   26.7434  -20.5723  -15.0011 C   0  0  1  0  0  0  0  0  0  0  0  0
   25.9602  -19.4254  -15.5921 C   0  0  0  0  0  0  0  0  0  0  0  0
   26.6113  -18.7469  -16.7124 C   0  0  0  0  0  0  0  0  0  0  0  0
   25.9922  -18.3662  -17.8827 C   0  0  0  0  0  0  0  0  0  0  0  0
   26.8909  -17.7513  -18.6712 N   0  0  0  0  0  0  0  0  0  0  0  0
   28.0877  -17.7093  -18.0676 C   0  0  0  0  0  0  0  0  0  0  0  0
   29.2930  -17.1923  -18.4807 C   0  0  0  0  0  0  0  0  0  0  0  0
   30.3779  -17.3024  -17.6312 C   0  0  0  0  0  0  0  0  0  0  0  0
   30.2281  -17.9183  -16.4096 C   0  0  0  0  0  0  0  0  0  0  0  0
   29.0218  -18.4416  -15.9830 C   0  0  0  0  0  0  0  0  0  0  0  0
   27.9187  -18.3349  -16.8338 C   0  0  0  0  0  0  0  0  0  0  0  0
   25.9331  -21.0576  -13.8360 C   0  0  0  0  0  0  0  0  0  0  0  0
   25.2241  -22.0784  -14.0249 O   0  0  0  0  0  0  0  0  0  0  0  0
   27.0404  -20.8797   -9.9947 C   0  0  0  0  0  0  0  0  0  0  0  0
   25.6198  -20.4529  -10.1854 C   0  0  2  0  0  0  0  0  0  0  0  0
   24.7276  -20.9089   -9.0495 C   0  0  0  0  0  0  0  0  0  0  0  0
   25.0943  -20.9384  -11.5251 C   0  0  2  0  0  0  0  0  0  0  0  0
   25.9644  -20.3965  -12.5793 N   0  0  0  0  0  0  0  0  0  0  0  0
   23.7151  -20.5062  -11.7052 C   0  0  0  0  0  0  0  0  0  0  0  0
   23.4856  -19.2354  -11.6489 O   0  0  0  0  0  0  0  0  0  0  0  0
   21.5340  -20.3288  -14.6916 C   0  0  0  0  0  0  0  0  0  0  0  0
   20.7716  -21.0015  -13.6037 C   0  0  1  0  0  0  0  0  0  0  0  0
   20.7648  -22.3790  -13.8133 O   0  0  0  0  0  0  0  0  0  0  0  0
   21.2557  -20.6868  -12.2063 C   0  0  2  0  0  0  0  0  0  0  0  0
   22.5568  -21.2783  -11.9443 N   0  0  0  0  0  0  0  0  0  0  0  0
   20.2778  -21.2494  -11.2531 C   0  0  0  0  0  0  0  0  0  0  0  0
   20.5704  -22.2158  -10.4826 O   0  0  0  0  0  0  0  0  0  0  0  0
   18.9751  -20.7784  -11.1182 O   0  0  0  0  0  0  0  0  0  0  0  0
  2  1  1  6
  2 13  1  0
  3  2  1  0
  3  4  1  0
  4 12  1  0
  5  6  1  0
  5  4  2  0
  6  7  1  0
  7 12  2  0
  7  8  1  0
  8  9  2  0
  9 10  1  0
 11 10  2  0
 12 11  1  0
 13 19  1  0
 13 14  2  0
 16 15  1  1
 16 18  1  0
 16 17  1  0
 18 20  1  0
 18 19  1  6
 20 21  2  0
 23 22  1  6
 23 24  1  0
 23 25  1  0
 25 27  1  0
 25 26  1  1
 26 20  1  0
 27 29  1  0
 28 27  2  0
M  END
$$$$
