QDE.pdb
     RDKit          3D

 27 26  0  0  1  0  0  0  0  0999 V2000
    8.3873  -15.3409   15.2030 N   0  0  0  0  0  0  0  0  0  0  0  0
    7.5648  -14.2242   15.5129 C   0  0  0  0  0  0  0  0  0  0  0  0
    7.1091  -13.5371   14.5720 O   0  0  0  0  0  0  0  0  0  0  0  0
    7.2365  -13.8563   16.8972 C   0  0  0  0  0  0  0  0  0  0  0  0
    7.7991  -14.8705   17.8633 C   0  0  0  0  0  0  0  0  0  0  0  0
    8.7154  -14.2367   18.8790 C   0  0  2  0  0  0  0  0  0  0  0  0
    8.8741  -12.8261   18.6707 N   0  0  0  0  0  0  0  0  0  0  0  0
   10.0556  -14.8730   18.8980 C   0  0  0  0  0  0  0  0  0  0  0  0
   10.1164  -16.1158   19.0424 O   0  0  0  0  0  0  0  0  0  0  0  0
   11.2583  -14.1389   18.7608 N   0  0  0  0  0  0  0  0  0  0  0  0
   12.5650  -14.7759   18.8143 C   0  0  1  0  0  0  0  0  0  0  0  0
   13.5651  -14.1594   17.8715 C   0  0  0  0  0  0  0  0  0  0  0  0
   14.4836  -15.1356   17.2814 C   0  0  0  0  0  0  0  0  0  0  0  0
   15.0191  -14.9193   16.1666 O   0  0  0  0  0  0  0  0  0  0  0  0
   13.0912  -14.6733   20.2056 C   0  0  0  0  0  0  0  0  0  0  0  0
   13.5132  -13.5784   20.6876 O   0  0  0  0  0  0  0  0  0  0  0  0
   14.7639  -16.3128   17.9640 O   0  0  0  0  0  0  0  0  0  0  0  0
   13.1538  -15.7920   21.0785 N   0  0  0  0  0  0  0  0  0  0  0  0
   13.6698  -15.7824   22.4146 C   0  0  1  0  0  0  0  0  0  0  0  0
   12.7926  -16.5477   23.3358 C   0  0  0  0  0  0  0  0  0  0  0  0
   11.4061  -16.0774   23.5268 C   0  0  0  0  0  0  0  0  0  0  0  0
   10.6254  -16.9759   24.3936 C   0  0  0  0  0  0  0  0  0  0  0  0
   10.8632  -18.2063   24.4750 O   0  0  0  0  0  0  0  0  0  0  0  0
   15.1087  -16.0496   22.5071 C   0  0  0  0  0  0  0  0  0  0  0  0
   15.6707  -16.8236   21.6875 O   0  0  0  0  0  0  0  0  0  0  0  0
    9.5625  -16.5190   25.1877 O   0  0  0  0  0  0  0  0  0  0  0  0
   15.9622  -15.5018   23.4667 O   0  0  0  0  0  0  0  0  0  0  0  0
  2  1  1  0
  3  2  2  0
  4  2  1  0
  5  4  1  0
  6  5  1  0
  6  8  1  0
  6  7  1  6
  8  9  2  0
 10 11  1  0
 10  8  1  0
 11 15  1  0
 12 13  1  0
 11 12  1  6
 13 17  1  0
 14 13  2  0
 15 16  2  0
 18 19  1  0
 18 15  1  0
 19 24  1  0
 19 20  1  1
 21 20  1  0
 22 21  1  0
 23 22  2  0
 24 25  2  0
 24 27  1  0
 26 22  1  0
M  END
$$$$
