QDE.pdb
     RDKit          3D

 27 26  0  0  1  0  0  0  0  0999 V2000
    9.3326  -12.3212   18.4396 N   0  0  0  0  0  0  0  0  0  0  0  0
    8.4345  -13.3072   17.9489 C   0  0  0  0  0  0  0  0  0  0  0  0
    8.5251  -13.6560   16.7510 O   0  0  0  0  0  0  0  0  0  0  0  0
    7.4099  -13.9243   18.8026 C   0  0  0  0  0  0  0  0  0  0  0  0
    7.5104  -13.4011   20.2148 C   0  0  0  0  0  0  0  0  0  0  0  0
    8.1802  -14.3875   21.1374 C   0  0  2  0  0  0  0  0  0  0  0  0
    7.5042  -15.6525   21.1729 N   0  0  0  0  0  0  0  0  0  0  0  0
    8.2992  -13.8677   22.5218 C   0  0  0  0  0  0  0  0  0  0  0  0
    8.9408  -12.8067   22.7004 O   0  0  0  0  0  0  0  0  0  0  0  0
    7.7219  -14.5164   23.6400 N   0  0  0  0  0  0  0  0  0  0  0  0
    7.8027  -13.9636   24.9831 C   0  0  1  0  0  0  0  0  0  0  0  0
    6.4613  -13.5712   25.5453 C   0  0  0  0  0  0  0  0  0  0  0  0
    6.5561  -12.8095   26.7926 C   0  0  0  0  0  0  0  0  0  0  0  0
    5.5272  -12.5455   27.4620 O   0  0  0  0  0  0  0  0  0  0  0  0
    8.4209  -14.9793   25.8827 C   0  0  0  0  0  0  0  0  0  0  0  0
    8.5324  -14.7939   27.1326 O   0  0  0  0  0  0  0  0  0  0  0  0
    7.7985  -12.3756   27.2381 O   0  0  0  0  0  0  0  0  0  0  0  0
    8.9236  -16.2166   25.3993 N   0  0  0  0  0  0  0  0  0  0  0  0
    9.5404  -17.2364   26.1937 C   0  0  1  0  0  0  0  0  0  0  0  0
    9.3162  -18.5827   25.6098 C   0  0  0  0  0  0  0  0  0  0  0  0
   10.1042  -18.9652   24.4211 C   0  0  0  0  0  0  0  0  0  0  0  0
   10.2030  -20.4257   24.2622 C   0  0  0  0  0  0  0  0  0  0  0  0
    9.6964  -21.2277   25.0851 O   0  0  0  0  0  0  0  0  0  0  0  0
   10.9097  -16.9255   26.6165 C   0  0  0  0  0  0  0  0  0  0  0  0
   11.5526  -15.9907   26.0695 O   0  0  0  0  0  0  0  0  0  0  0  0
   10.8700  -21.0212   23.1807 O   0  0  0  0  0  0  0  0  0  0  0  0
   11.6084  -17.6013   27.6188 O   0  0  0  0  0  0  0  0  0  0  0  0
  2  1  1  0
  3  2  2  0
  4  2  1  0
  5  4  1  0
  6  5  1  0
  6  8  1  0
  6  7  1  1
  8  9  2  0
 10 11  1  0
 10  8  1  0
 11 15  1  0
 12 13  1  0
 11 12  1  1
 13 17  1  0
 14 13  2  0
 15 16  2  0
 18 19  1  0
 18 15  1  0
 19 24  1  0
 19 20  1  6
 21 20  1  0
 22 21  1  0
 23 22  2  0
 24 25  2  0
 24 27  1  0
 26 22  1  0
M  END
$$$$
