QDE.pdb
     RDKit          3D

 27 26  0  0  1  0  0  0  0  0999 V2000
    7.3936  -12.4085   17.4613 N   0  0  0  0  0  0  0  0  0  0  0  0
    7.4729  -13.2997   16.3571 C   0  0  0  0  0  0  0  0  0  0  0  0
    7.4328  -12.8246   15.2006 O   0  0  0  0  0  0  0  0  0  0  0  0
    7.5998  -14.7530   16.5340 C   0  0  0  0  0  0  0  0  0  0  0  0
    7.6161  -15.1095   18.0007 C   0  0  0  0  0  0  0  0  0  0  0  0
    9.0011  -15.4591   18.4826 C   0  0  2  0  0  0  0  0  0  0  0  0
    9.6860  -16.3471   17.5877 N   0  0  0  0  0  0  0  0  0  0  0  0
    8.9868  -16.0609   19.8386 C   0  0  0  0  0  0  0  0  0  0  0  0
    8.3695  -15.4564   20.7457 O   0  0  0  0  0  0  0  0  0  0  0  0
    9.6368  -17.2803   20.1466 N   0  0  0  0  0  0  0  0  0  0  0  0
    9.7830  -17.7565   21.5133 C   0  0  1  0  0  0  0  0  0  0  0  0
    9.1989  -19.1282   21.7298 C   0  0  0  0  0  0  0  0  0  0  0  0
    7.7773  -19.2132   21.3881 C   0  0  0  0  0  0  0  0  0  0  0  0
    7.0746  -18.1760   21.3066 O   0  0  0  0  0  0  0  0  0  0  0  0
   11.2338  -17.7940   21.8549 C   0  0  0  0  0  0  0  0  0  0  0  0
   11.9390  -18.8351   21.6878 O   0  0  0  0  0  0  0  0  0  0  0  0
    7.2022  -20.4557   21.1521 O   0  0  0  0  0  0  0  0  0  0  0  0
   11.9179  -16.6693   22.3881 N   0  0  0  0  0  0  0  0  0  0  0  0
   13.2863  -16.6458   22.8106 C   0  0  1  0  0  0  0  0  0  0  0  0
   14.0946  -15.7309   21.9662 C   0  0  0  0  0  0  0  0  0  0  0  0
   13.9380  -15.8169   20.5005 C   0  0  0  0  0  0  0  0  0  0  0  0
   14.8288  -14.8863   19.7874 C   0  0  0  0  0  0  0  0  0  0  0  0
   14.9443  -13.6801   20.1170 O   0  0  0  0  0  0  0  0  0  0  0  0
   13.4675  -16.5299   24.2612 C   0  0  0  0  0  0  0  0  0  0  0  0
   12.4981  -16.2258   25.0058 O   0  0  0  0  0  0  0  0  0  0  0  0
   15.6094  -15.2835   18.6910 O   0  0  0  0  0  0  0  0  0  0  0  0
   14.6741  -16.7333   24.9336 O   0  0  0  0  0  0  0  0  0  0  0  0
  2  1  1  0
  3  2  2  0
  4  2  1  0
  5  4  1  0
  6  5  1  0
  6  8  1  0
  6  7  1  6
  8  9  2  0
 10 11  1  0
 10  8  1  0
 11 15  1  0
 12 13  1  0
 11 12  1  6
 13 17  1  0
 14 13  2  0
 15 16  2  0
 18 19  1  0
 18 15  1  0
 19 24  1  0
 19 20  1  6
 21 20  1  0
 22 21  1  0
 23 22  2  0
 24 25  2  0
 24 27  1  0
 26 22  1  0
M  END
$$$$
