QDE.pdb
     RDKit          3D

 27 26  0  0  1  0  0  0  0  0999 V2000
   12.5121  -13.7365   18.1311 N   0  0  0  0  0  0  0  0  0  0  0  0
   11.4893  -13.8962   17.1575 C   0  0  0  0  0  0  0  0  0  0  0  0
   11.8153  -13.9547   15.9512 O   0  0  0  0  0  0  0  0  0  0  0  0
   10.0698  -13.9940   17.5248 C   0  0  0  0  0  0  0  0  0  0  0  0
    9.9030  -13.9177   19.0230 C   0  0  0  0  0  0  0  0  0  0  0  0
    8.4569  -14.0181   19.4372 C   0  0  2  0  0  0  0  0  0  0  0  0
    7.7374  -12.7960   19.2198 N   0  0  0  0  0  0  0  0  0  0  0  0
    8.3079  -14.4167   20.8584 C   0  0  0  0  0  0  0  0  0  0  0  0
    8.3600  -13.5197   21.7312 O   0  0  0  0  0  0  0  0  0  0  0  0
    8.1109  -15.7584   21.2650 N   0  0  0  0  0  0  0  0  0  0  0  0
    8.1332  -16.1550   22.6644 C   0  0  1  0  0  0  0  0  0  0  0  0
    6.9564  -17.0088   23.0585 C   0  0  0  0  0  0  0  0  0  0  0  0
    7.0209  -17.4812   24.4433 C   0  0  0  0  0  0  0  0  0  0  0  0
    8.0043  -17.1997   25.1711 O   0  0  0  0  0  0  0  0  0  0  0  0
    9.3876  -16.9174   22.9262 C   0  0  0  0  0  0  0  0  0  0  0  0
    9.9179  -17.6644   22.0488 O   0  0  0  0  0  0  0  0  0  0  0  0
    5.9819  -18.2487   24.9548 O   0  0  0  0  0  0  0  0  0  0  0  0
   10.0677  -16.8563   24.1716 N   0  0  0  0  0  0  0  0  0  0  0  0
   11.2925  -17.5274   24.4894 C   0  0  1  0  0  0  0  0  0  0  0  0
   12.3184  -17.3000   23.4409 C   0  0  0  0  0  0  0  0  0  0  0  0
   13.0604  -16.0236   23.4591 C   0  0  0  0  0  0  0  0  0  0  0  0
   14.2590  -16.0614   22.6048 C   0  0  0  0  0  0  0  0  0  0  0  0
   14.5190  -17.0333   21.8533 O   0  0  0  0  0  0  0  0  0  0  0  0
   11.7284  -17.3604   25.8796 C   0  0  0  0  0  0  0  0  0  0  0  0
   12.7331  -17.9825   26.3153 O   0  0  0  0  0  0  0  0  0  0  0  0
   15.1927  -15.0142   22.5720 O   0  0  0  0  0  0  0  0  0  0  0  0
   11.1045  -16.5360   26.8180 O   0  0  0  0  0  0  0  0  0  0  0  0
  2  1  1  0
  3  2  2  0
  4  2  1  0
  5  4  1  0
  6  5  1  0
  6  8  1  0
  6  7  1  1
  8  9  2  0
 10 11  1  0
 10  8  1  0
 11 15  1  0
 12 13  1  0
 11 12  1  6
 13 17  1  0
 14 13  2  0
 15 16  2  0
 18 19  1  0
 18 15  1  0
 19 24  1  0
 19 20  1  6
 21 20  1  0
 22 21  1  0
 23 22  2  0
 24 25  2  0
 24 27  1  0
 26 22  1  0
M  END
$$$$
