QDE.pdb
     RDKit          3D

 27 26  0  0  1  0  0  0  0  0999 V2000
    6.1140  -14.6705   17.5275 N   0  0  0  0  0  0  0  0  0  0  0  0
    7.3032  -13.9181   17.3294 C   0  0  0  0  0  0  0  0  0  0  0  0
    7.8961  -14.0138   16.2321 O   0  0  0  0  0  0  0  0  0  0  0  0
    7.8522  -13.0371   18.3696 C   0  0  0  0  0  0  0  0  0  0  0  0
    7.7029  -13.6683   19.7326 C   0  0  0  0  0  0  0  0  0  0  0  0
    8.9841  -13.6127   20.5253 C   0  0  2  0  0  0  0  0  0  0  0  0
   10.1293  -13.3546   19.7005 N   0  0  0  0  0  0  0  0  0  0  0  0
    9.2192  -14.8576   21.2974 C   0  0  0  0  0  0  0  0  0  0  0  0
    8.3229  -15.2422   22.0835 O   0  0  0  0  0  0  0  0  0  0  0  0
   10.4053  -15.6220   21.1830 N   0  0  0  0  0  0  0  0  0  0  0  0
   10.5948  -16.8706   21.9049 C   0  0  1  0  0  0  0  0  0  0  0  0
   11.6203  -17.7734   21.2705 C   0  0  0  0  0  0  0  0  0  0  0  0
   11.8187  -19.0277   22.0002 C   0  0  0  0  0  0  0  0  0  0  0  0
   12.6821  -19.1113   22.9078 O   0  0  0  0  0  0  0  0  0  0  0  0
   11.0271  -16.5580   23.2972 C   0  0  0  0  0  0  0  0  0  0  0  0
   11.9317  -15.7044   23.5465 O   0  0  0  0  0  0  0  0  0  0  0  0
   11.0423  -20.1354   21.6831 O   0  0  0  0  0  0  0  0  0  0  0  0
   10.4553  -17.1942   24.4310 N   0  0  0  0  0  0  0  0  0  0  0  0
   10.7057  -16.8493   25.7985 C   0  0  1  0  0  0  0  0  0  0  0  0
   10.3848  -15.4240   26.0614 C   0  0  0  0  0  0  0  0  0  0  0  0
    8.9786  -15.0671   26.3362 C   0  0  0  0  0  0  0  0  0  0  0  0
    8.8097  -13.6301   26.6091 C   0  0  0  0  0  0  0  0  0  0  0  0
    8.9012  -13.1497   27.7657 O   0  0  0  0  0  0  0  0  0  0  0  0
   10.1986  -17.8248   26.7689 C   0  0  0  0  0  0  0  0  0  0  0  0
    9.4511  -18.7683   26.3981 O   0  0  0  0  0  0  0  0  0  0  0  0
    8.5350  -12.6992   25.5956 O   0  0  0  0  0  0  0  0  0  0  0  0
   10.4773  -17.8085   28.1369 O   0  0  0  0  0  0  0  0  0  0  0  0
  2  1  1  0
  3  2  2  0
  4  2  1  0
  5  4  1  0
  6  5  1  0
  6  8  1  0
  6  7  1  6
  8  9  2  0
 10 11  1  0
 10  8  1  0
 11 15  1  0
 12 13  1  0
 11 12  1  6
 13 17  1  0
 14 13  2  0
 15 16  2  0
 18 19  1  0
 18 15  1  0
 19 24  1  0
 19 20  1  1
 21 20  1  0
 22 21  1  0
 23 22  2  0
 24 25  2  0
 24 27  1  0
 26 22  1  0
M  END
$$$$
