QDE.pdb
     RDKit          3D

 27 26  0  0  1  0  0  0  0  0999 V2000
    7.6894  -11.7082   19.9365 N   0  0  0  0  0  0  0  0  0  0  0  0
    8.1487  -12.8526   20.6430 C   0  0  0  0  0  0  0  0  0  0  0  0
    8.0981  -12.8444   21.8929 O   0  0  0  0  0  0  0  0  0  0  0  0
    8.6776  -14.0367   19.9519 C   0  0  0  0  0  0  0  0  0  0  0  0
    8.6391  -13.8394   18.4560 C   0  0  0  0  0  0  0  0  0  0  0  0
    9.1658  -15.0408   17.7130 C   0  0  2  0  0  0  0  0  0  0  0  0
    8.3375  -16.1995   17.8854 N   0  0  0  0  0  0  0  0  0  0  0  0
   10.5545  -15.3799   18.1098 C   0  0  0  0  0  0  0  0  0  0  0  0
   10.7329  -16.3924   18.8256 O   0  0  0  0  0  0  0  0  0  0  0  0
   11.6770  -14.6123   17.7159 N   0  0  0  0  0  0  0  0  0  0  0  0
   13.0407  -15.0336   17.9966 C   0  0  1  0  0  0  0  0  0  0  0  0
   14.0625  -14.3630   17.1160 C   0  0  0  0  0  0  0  0  0  0  0  0
   15.3614  -15.0397   17.1164 C   0  0  0  0  0  0  0  0  0  0  0  0
   15.5524  -16.0595   17.8233 O   0  0  0  0  0  0  0  0  0  0  0  0
   13.3553  -14.7207   19.4201 C   0  0  0  0  0  0  0  0  0  0  0  0
   13.6037  -13.5399   19.8116 O   0  0  0  0  0  0  0  0  0  0  0  0
   16.3915  -14.5464   16.3254 O   0  0  0  0  0  0  0  0  0  0  0  0
   13.3971  -15.7218   20.4266 N   0  0  0  0  0  0  0  0  0  0  0  0
   13.7690  -15.5173   21.7946 C   0  0  1  0  0  0  0  0  0  0  0  0
   12.8164  -16.1850   22.7168 C   0  0  0  0  0  0  0  0  0  0  0  0
   11.3771  -15.8957   22.5590 C   0  0  0  0  0  0  0  0  0  0  0  0
   10.5483  -16.6411   23.5210 C   0  0  0  0  0  0  0  0  0  0  0  0
   11.0416  -17.4301   24.3642 O   0  0  0  0  0  0  0  0  0  0  0  0
   15.1956  -15.7184   22.0681 C   0  0  0  0  0  0  0  0  0  0  0  0
   15.6842  -15.4053   23.1860 O   0  0  0  0  0  0  0  0  0  0  0  0
    9.1508  -16.5207   23.5615 O   0  0  0  0  0  0  0  0  0  0  0  0
   16.1147  -16.2505   21.1616 O   0  0  0  0  0  0  0  0  0  0  0  0
  2  1  1  0
  3  2  2  0
  4  2  1  0
  5  4  1  0
  6  5  1  0
  6  8  1  0
  6  7  1  1
  8  9  2  0
 10 11  1  0
 10  8  1  0
 11 15  1  0
 12 13  1  0
 11 12  1  6
 13 17  1  0
 14 13  2  0
 15 16  2  0
 18 19  1  0
 18 15  1  0
 19 24  1  0
 19 20  1  1
 21 20  1  0
 22 21  1  0
 23 22  2  0
 24 25  2  0
 24 27  1  0
 26 22  1  0
M  END
$$$$
