QDE.pdb
     RDKit          3D

 27 26  0  0  1  0  0  0  0  0999 V2000
   17.3834  -11.9975   16.2964 N   0  0  0  0  0  0  0  0  0  0  0  0
   16.7342  -13.2381   16.0533 C   0  0  0  0  0  0  0  0  0  0  0  0
   17.4379  -14.2492   15.8357 O   0  0  0  0  0  0  0  0  0  0  0  0
   15.2703  -13.3660   16.0503 C   0  0  0  0  0  0  0  0  0  0  0  0
   14.7501  -13.5411   17.4564 C   0  0  0  0  0  0  0  0  0  0  0  0
   14.9467  -14.9480   17.9613 C   0  0  2  0  0  0  0  0  0  0  0  0
   14.9258  -15.9185   16.9048 N   0  0  0  0  0  0  0  0  0  0  0  0
   13.9348  -15.3242   18.9790 C   0  0  0  0  0  0  0  0  0  0  0  0
   13.7583  -14.5514   19.9490 O   0  0  0  0  0  0  0  0  0  0  0  0
   13.1671  -16.5110   18.8992 N   0  0  0  0  0  0  0  0  0  0  0  0
   12.1522  -16.8448   19.8864 C   0  0  1  0  0  0  0  0  0  0  0  0
   11.2607  -17.9820   19.4603 C   0  0  0  0  0  0  0  0  0  0  0  0
   10.5072  -17.7004   18.2364 C   0  0  0  0  0  0  0  0  0  0  0  0
    9.9308  -16.5963   18.0785 O   0  0  0  0  0  0  0  0  0  0  0  0
   12.8288  -17.2180   21.1615 C   0  0  0  0  0  0  0  0  0  0  0  0
   13.3405  -18.3645   21.3426 O   0  0  0  0  0  0  0  0  0  0  0  0
   10.4306  -18.6666   17.2410 O   0  0  0  0  0  0  0  0  0  0  0  0
   12.9436  -16.3162   22.2527 N   0  0  0  0  0  0  0  0  0  0  0  0
   13.5277  -16.6143   23.5262 C   0  0  1  0  0  0  0  0  0  0  0  0
   14.7455  -15.7994   23.7636 C   0  0  0  0  0  0  0  0  0  0  0  0
   15.8890  -15.9741   22.8460 C   0  0  0  0  0  0  0  0  0  0  0  0
   17.0417  -15.1396   23.2239 C   0  0  0  0  0  0  0  0  0  0  0  0
   17.6149  -15.2482   24.3359 O   0  0  0  0  0  0  0  0  0  0  0  0
   12.5639  -16.6885   24.6289 C   0  0  0  0  0  0  0  0  0  0  0  0
   11.3955  -16.2388   24.4902 O   0  0  0  0  0  0  0  0  0  0  0  0
   17.5785  -14.1661   22.3676 O   0  0  0  0  0  0  0  0  0  0  0  0
   12.8291  -17.2373   25.8851 O   0  0  0  0  0  0  0  0  0  0  0  0
  2  1  1  0
  3  2  2  0
  4  2  1  0
  5  4  1  0
  6  5  1  0
  6  8  1  0
  6  7  1  6
  8  9  2  0
 10 11  1  0
 10  8  1  0
 11 15  1  0
 12 13  1  0
 11 12  1  6
 13 17  1  0
 14 13  2  0
 15 16  2  0
 18 19  1  0
 18 15  1  0
 19 24  1  0
 19 20  1  1
 21 20  1  0
 22 21  1  0
 23 22  2  0
 24 25  2  0
 24 27  1  0
 26 22  1  0
M  END
$$$$
