QDE.pdb
     RDKit          3D

 27 26  0  0  1  0  0  0  0  0999 V2000
   13.4344  -15.2772   18.4621 N   0  0  0  0  0  0  0  0  0  0  0  0
   13.1097  -13.9840   17.9703 C   0  0  0  0  0  0  0  0  0  0  0  0
   14.0000  -13.1053   17.9637 O   0  0  0  0  0  0  0  0  0  0  0  0
   11.7674  -13.6522   17.4727 C   0  0  0  0  0  0  0  0  0  0  0  0
   10.8855  -14.8772   17.4678 C   0  0  0  0  0  0  0  0  0  0  0  0
    9.5810  -14.6380   18.1848 C   0  0  2  0  0  0  0  0  0  0  0  0
    9.3732  -13.2538   18.4996 N   0  0  0  0  0  0  0  0  0  0  0  0
    9.4728  -15.4354   19.4312 C   0  0  0  0  0  0  0  0  0  0  0  0
    9.6361  -14.8461   20.5245 O   0  0  0  0  0  0  0  0  0  0  0  0
    9.1948  -16.8236   19.4353 N   0  0  0  0  0  0  0  0  0  0  0  0
    8.9383  -17.5586   20.6641 C   0  0  1  0  0  0  0  0  0  0  0  0
    8.2826  -18.8946   20.4310 C   0  0  0  0  0  0  0  0  0  0  0  0
    7.8750  -19.5640   21.6683 C   0  0  0  0  0  0  0  0  0  0  0  0
    8.0227  -19.0003   22.7803 O   0  0  0  0  0  0  0  0  0  0  0  0
   10.2329  -17.7768   21.3709 C   0  0  0  0  0  0  0  0  0  0  0  0
   10.9979  -18.7493   21.0914 O   0  0  0  0  0  0  0  0  0  0  0  0
    7.3194  -20.8360   21.6085 O   0  0  0  0  0  0  0  0  0  0  0  0
   10.6917  -16.9120   22.3999 N   0  0  0  0  0  0  0  0  0  0  0  0
   11.7482  -17.1983   23.3238 C   0  0  1  0  0  0  0  0  0  0  0  0
   12.9134  -16.3055   23.1022 C   0  0  0  0  0  0  0  0  0  0  0  0
   13.7928  -16.5831   21.9491 C   0  0  0  0  0  0  0  0  0  0  0  0
   14.9406  -15.6630   21.8872 C   0  0  0  0  0  0  0  0  0  0  0  0
   14.9746  -14.6816   21.1045 O   0  0  0  0  0  0  0  0  0  0  0  0
   11.3063  -17.3663   24.7119 C   0  0  0  0  0  0  0  0  0  0  0  0
   12.1055  -17.7797   25.5933 O   0  0  0  0  0  0  0  0  0  0  0  0
   16.0749  -15.8198   22.6983 O   0  0  0  0  0  0  0  0  0  0  0  0
   10.0170  -17.0997   25.1767 O   0  0  0  0  0  0  0  0  0  0  0  0
  2  1  1  0
  3  2  2  0
  4  2  1  0
  5  4  1  0
  6  5  1  0
  6  8  1  0
  6  7  1  1
  8  9  2  0
 10 11  1  0
 10  8  1  0
 11 15  1  0
 12 13  1  0
 11 12  1  6
 13 17  1  0
 14 13  2  0
 15 16  2  0
 18 19  1  0
 18 15  1  0
 19 24  1  0
 19 20  1  1
 21 20  1  0
 22 21  1  0
 23 22  2  0
 24 25  2  0
 24 27  1  0
 26 22  1  0
M  END
$$$$
