QDE.pdb
     RDKit          3D

 27 26  0  0  1  0  0  0  0  0999 V2000
    6.8421  -13.9956   19.7162 N   0  0  0  0  0  0  0  0  0  0  0  0
    6.6053  -13.6525   18.3576 C   0  0  0  0  0  0  0  0  0  0  0  0
    5.6006  -12.9603   18.0815 O   0  0  0  0  0  0  0  0  0  0  0  0
    7.5009  -14.0847   17.2756 C   0  0  0  0  0  0  0  0  0  0  0  0
    8.6319  -14.9199   17.8246 C   0  0  0  0  0  0  0  0  0  0  0  0
    9.7271  -14.0698   18.4170 C   0  0  2  0  0  0  0  0  0  0  0  0
   10.1047  -12.9841   17.5585 N   0  0  0  0  0  0  0  0  0  0  0  0
   10.9360  -14.8641   18.7467 C   0  0  0  0  0  0  0  0  0  0  0  0
   10.7777  -16.0396   19.1498 O   0  0  0  0  0  0  0  0  0  0  0  0
   12.2503  -14.3520   18.6253 N   0  0  0  0  0  0  0  0  0  0  0  0
   13.4089  -15.0605   19.1466 C   0  0  1  0  0  0  0  0  0  0  0  0
   14.7126  -14.5689   18.5739 C   0  0  0  0  0  0  0  0  0  0  0  0
   14.9045  -14.9376   17.1696 C   0  0  0  0  0  0  0  0  0  0  0  0
   14.6650  -16.1052   16.7752 O   0  0  0  0  0  0  0  0  0  0  0  0
   13.4439  -14.8965   20.6281 C   0  0  0  0  0  0  0  0  0  0  0  0
   12.8299  -13.9555   21.2168 O   0  0  0  0  0  0  0  0  0  0  0  0
   15.3563  -13.9838   16.2660 O   0  0  0  0  0  0  0  0  0  0  0  0
   14.1652  -15.7811   21.4735 N   0  0  0  0  0  0  0  0  0  0  0  0
   13.8148  -16.1233   22.8195 C   0  0  1  0  0  0  0  0  0  0  0  0
   12.3781  -16.4807   22.9272 C   0  0  0  0  0  0  0  0  0  0  0  0
   11.8610  -16.8929   24.2474 C   0  0  0  0  0  0  0  0  0  0  0  0
   10.4224  -17.2042   24.2121 C   0  0  0  0  0  0  0  0  0  0  0  0
    9.5411  -16.3099   24.1883 O   0  0  0  0  0  0  0  0  0  0  0  0
   14.7653  -17.0242   23.4793 C   0  0  0  0  0  0  0  0  0  0  0  0
   15.0325  -18.1499   22.9816 O   0  0  0  0  0  0  0  0  0  0  0  0
    9.9377  -18.5210   24.2026 O   0  0  0  0  0  0  0  0  0  0  0  0
   15.4381  -16.7416   24.6697 O   0  0  0  0  0  0  0  0  0  0  0  0
  2  1  1  0
  3  2  2  0
  4  2  1  0
  5  4  1  0
  6  5  1  0
  6  8  1  0
  6  7  1  6
  8  9  2  0
 10 11  1  0
 10  8  1  0
 11 15  1  0
 12 13  1  0
 11 12  1  6
 13 17  1  0
 14 13  2  0
 15 16  2  0
 18 19  1  0
 18 15  1  0
 19 24  1  0
 19 20  1  6
 21 20  1  0
 22 21  1  0
 23 22  2  0
 24 25  2  0
 24 27  1  0
 26 22  1  0
M  END
$$$$
