DVW.pdb
     RDKit          3D

 30 31  0  0  1  0  0  0  0  0999 V2000
   20.6993  -16.0451  -18.5562 N   0  0  0  0  0  0  0  0  0  0  0  0
   21.7896  -16.9941  -18.4489 C   0  0  1  0  0  0  0  0  0  0  0  0
   23.1346  -16.3157  -18.5733 C   0  0  0  0  0  0  0  0  0  0  0  0
   23.5477  -16.1807  -19.9800 C   0  0  0  0  0  0  0  0  0  0  0  0
   22.7612  -16.6059  -20.8914 O   0  0  0  0  0  0  0  0  0  0  0  0
   21.6744  -17.7888  -17.1929 C   0  0  0  0  0  0  0  0  0  0  0  0
   21.4069  -17.2155  -16.1075 O   0  0  0  0  0  0  0  0  0  0  0  0
   24.7360  -15.6227  -20.4049 O   0  0  0  0  0  0  0  0  0  0  0  0
   20.8690  -22.0108  -14.9363 C   0  0  0  0  0  0  0  0  0  0  0  0
   20.7842  -21.0765  -16.1196 C   0  0  1  0  0  0  0  0  0  0  0  0
   19.3991  -20.5956  -16.3994 C   0  0  0  0  0  0  0  0  0  0  0  0
   21.7709  -19.9330  -15.9867 C   0  0  2  0  0  0  0  0  0  0  0  0
   21.8648  -19.1982  -17.2074 N   0  0  0  0  0  0  0  0  0  0  0  0
   23.0992  -20.4227  -15.5146 C   0  0  0  0  0  0  0  0  0  0  0  0
   23.8243  -21.1333  -16.2645 O   0  0  0  0  0  0  0  0  0  0  0  0
   23.6183  -20.1283  -14.2248 N   0  0  0  0  0  0  0  0  0  0  0  0
   24.9343  -20.4823  -13.7857 C   0  0  1  0  0  0  0  0  0  0  0  0
   25.4382  -19.6658  -12.6205 C   0  0  0  0  0  0  0  0  0  0  0  0
   24.8688  -20.1194  -11.3325 C   0  0  0  0  0  0  0  0  0  0  0  0
   25.5480  -20.7109  -10.2786 C   0  0  0  0  0  0  0  0  0  0  0  0
   24.6956  -20.9816   -9.2760 N   0  0  0  0  0  0  0  0  0  0  0  0
   23.4534  -20.5870   -9.6264 C   0  0  0  0  0  0  0  0  0  0  0  0
   22.2488  -20.6443   -8.9570 C   0  0  0  0  0  0  0  0  0  0  0  0
   21.0968  -20.1641   -9.5455 C   0  0  0  0  0  0  0  0  0  0  0  0
   21.2096  -19.6332  -10.8143 C   0  0  0  0  0  0  0  0  0  0  0  0
   22.4097  -19.5686  -11.4983 C   0  0  0  0  0  0  0  0  0  0  0  0
   23.5510  -20.0539  -10.8939 C   0  0  0  0  0  0  0  0  0  0  0  0
   25.0690  -21.9400  -13.5170 C   0  0  0  0  0  0  0  0  0  0  0  0
   24.0142  -22.6200  -13.4462 O   0  0  0  0  0  0  0  0  0  0  0  0
   26.2797  -22.5479  -13.3485 O   0  0  0  0  0  0  0  0  0  0  0  0
  2  1  1  1
  2  6  1  0
  2  3  1  0
  4  3  1  0
  4  5  2  0
  6  7  2  0
  8  4  1  0
 10 11  1  1
 10 12  1  0
 10  9  1  0
 12 13  1  6
 13  6  1  0
 14 12  1  0
 14 15  2  0
 16 14  1  0
 17 16  1  0
 17 28  1  0
 17 18  1  1
 19 18  1  0
 20 19  2  0
 21 22  1  0
 21 20  1  0
 22 27  2  0
 23 24  2  0
 23 22  1  0
 24 25  1  0
 25 26  2  0
 27 26  1  0
 27 19  1  0
 28 29  2  0
 28 30  1  0
M  END
$$$$
