DVW.pdb
     RDKit          3D

 30 31  0  0  1  0  0  0  0  0999 V2000
   19.7384  -16.7290  -18.8473 N   0  0  0  0  0  0  0  0  0  0  0  0
   18.8450  -15.6267  -18.5512 C   0  0  1  0  0  0  0  0  0  0  0  0
   18.1531  -15.8110  -17.2200 C   0  0  0  0  0  0  0  0  0  0  0  0
   17.3067  -17.0157  -17.2091 C   0  0  0  0  0  0  0  0  0  0  0  0
   17.2965  -17.7648  -18.2429 O   0  0  0  0  0  0  0  0  0  0  0  0
   19.5683  -14.3258  -18.6338 C   0  0  0  0  0  0  0  0  0  0  0  0
   20.7782  -14.2560  -18.3028 O   0  0  0  0  0  0  0  0  0  0  0  0
   16.5081  -17.4113  -16.1557 O   0  0  0  0  0  0  0  0  0  0  0  0
   19.9047   -9.7808  -20.3968 C   0  0  0  0  0  0  0  0  0  0  0  0
   19.2877  -11.1590  -20.4093 C   0  0  1  0  0  0  0  0  0  0  0  0
   19.6185  -11.9476  -21.6328 C   0  0  0  0  0  0  0  0  0  0  0  0
   19.6114  -11.9159  -19.1359 C   0  0  2  0  0  0  0  0  0  0  0  0
   18.9014  -13.1537  -19.0860 N   0  0  0  0  0  0  0  0  0  0  0  0
   19.3643  -11.0700  -17.9316 C   0  0  0  0  0  0  0  0  0  0  0  0
   18.1950  -10.6938  -17.6411 O   0  0  0  0  0  0  0  0  0  0  0  0
   20.4021  -10.6453  -17.0585 N   0  0  0  0  0  0  0  0  0  0  0  0
   20.2075   -9.7738  -15.9394 C   0  0  1  0  0  0  0  0  0  0  0  0
   21.3968   -9.6792  -15.0148 C   0  0  0  0  0  0  0  0  0  0  0  0
   21.2199   -8.6348  -13.9819 C   0  0  0  0  0  0  0  0  0  0  0  0
   20.6514   -8.7863  -12.7266 C   0  0  0  0  0  0  0  0  0  0  0  0
   20.6687   -7.6147  -12.0692 N   0  0  0  0  0  0  0  0  0  0  0  0
   21.2361   -6.6719  -12.8508 C   0  0  0  0  0  0  0  0  0  0  0  0
   21.4838   -5.3315  -12.6397 C   0  0  0  0  0  0  0  0  0  0  0  0
   22.0884   -4.5683  -13.6174 C   0  0  0  0  0  0  0  0  0  0  0  0
   22.4263   -5.2029  -14.7953 C   0  0  0  0  0  0  0  0  0  0  0  0
   22.1846   -6.5455  -15.0221 C   0  0  0  0  0  0  0  0  0  0  0  0
   21.5791   -7.2926  -14.0329 C   0  0  0  0  0  0  0  0  0  0  0  0
   19.7379   -8.4221  -16.3488 C   0  0  0  0  0  0  0  0  0  0  0  0
   18.7492   -7.9393  -15.7410 O   0  0  0  0  0  0  0  0  0  0  0  0
   20.3368   -7.7059  -17.3447 O   0  0  0  0  0  0  0  0  0  0  0  0
  2  1  1  1
  2  6  1  0
  2  3  1  0
  4  3  1  0
  4  5  2  0
  6  7  2  0
  8  4  1  0
 10 11  1  6
 10 12  1  0
 10  9  1  0
 12 13  1  1
 13  6  1  0
 14 12  1  0
 14 15  2  0
 16 14  1  0
 17 16  1  0
 17 28  1  0
 17 18  1  6
 19 18  1  0
 20 19  2  0
 21 22  1  0
 21 20  1  0
 22 27  2  0
 23 24  2  0
 23 22  1  0
 24 25  1  0
 25 26  2  0
 27 26  1  0
 27 19  1  0
 28 29  2  0
 28 30  1  0
M  END
$$$$
