DVW.pdb
     RDKit          3D

 30 31  0  0  1  0  0  0  0  0999 V2000
   13.4999  -17.8965    4.1487 N   0  0  0  0  0  0  0  0  0  0  0  0
   13.6381  -19.2815    4.5530 C   0  0  1  0  0  0  0  0  0  0  0  0
   13.1207  -20.2267    3.4930 C   0  0  0  0  0  0  0  0  0  0  0  0
   11.6532  -20.1737    3.3864 C   0  0  0  0  0  0  0  0  0  0  0  0
   10.9915  -19.6216    4.3284 O   0  0  0  0  0  0  0  0  0  0  0  0
   15.0480  -19.5808    4.9338 C   0  0  0  0  0  0  0  0  0  0  0  0
   15.9963  -19.1112    4.2567 O   0  0  0  0  0  0  0  0  0  0  0  0
   10.9182  -20.6802    2.3342 O   0  0  0  0  0  0  0  0  0  0  0  0
   18.3112  -20.4496    8.3542 C   0  0  0  0  0  0  0  0  0  0  0  0
   16.9160  -20.1192    7.8801 C   0  0  1  0  0  0  0  0  0  0  0  0
   16.5533  -18.6819    8.0554 C   0  0  0  0  0  0  0  0  0  0  0  0
   16.6931  -20.5963    6.4583 C   0  0  2  0  0  0  0  0  0  0  0  0
   15.3357  -20.3972    6.0624 N   0  0  0  0  0  0  0  0  0  0  0  0
   17.1312  -22.0133    6.2930 C   0  0  0  0  0  0  0  0  0  0  0  0
   16.4851  -22.9518    6.8358 O   0  0  0  0  0  0  0  0  0  0  0  0
   18.2737  -22.3861    5.5344 N   0  0  0  0  0  0  0  0  0  0  0  0
   18.7741  -23.7239    5.4359 C   0  0  1  0  0  0  0  0  0  0  0  0
   19.6924  -23.9559    4.2606 C   0  0  0  0  0  0  0  0  0  0  0  0
   18.9575  -24.4044    3.0574 C   0  0  0  0  0  0  0  0  0  0  0  0
   17.5939  -24.3116    2.8258 C   0  0  0  0  0  0  0  0  0  0  0  0
   17.2962  -24.8220    1.6192 N   0  0  0  0  0  0  0  0  0  0  0  0
   18.4276  -25.2592    1.0273 C   0  0  0  0  0  0  0  0  0  0  0  0
   18.6526  -25.8544   -0.1965 C   0  0  0  0  0  0  0  0  0  0  0  0
   19.9292  -26.2155   -0.5757 C   0  0  0  0  0  0  0  0  0  0  0  0
   20.9503  -25.9555    0.3155 C   0  0  0  0  0  0  0  0  0  0  0  0
   20.7409  -25.3596    1.5457 C   0  0  0  0  0  0  0  0  0  0  0  0
   19.4576  -25.0055    1.9076 C   0  0  0  0  0  0  0  0  0  0  0  0
   19.3981  -24.1903    6.7040 C   0  0  0  0  0  0  0  0  0  0  0  0
   20.2110  -23.4184    7.2726 O   0  0  0  0  0  0  0  0  0  0  0  0
   19.1195  -25.4071    7.2566 O   0  0  0  0  0  0  0  0  0  0  0  0
  2  1  1  6
  2  6  1  0
  2  3  1  0
  4  3  1  0
  4  5  2  0
  6  7  2  0
  8  4  1  0
 10 11  1  6
 10 12  1  0
 10  9  1  0
 12 13  1  1
 13  6  1  0
 14 12  1  0
 14 15  2  0
 16 14  1  0
 17 16  1  0
 17 28  1  0
 17 18  1  6
 19 18  1  0
 20 19  2  0
 21 22  1  0
 21 20  1  0
 22 27  2  0
 23 24  2  0
 23 22  1  0
 24 25  1  0
 25 26  2  0
 27 26  1  0
 27 19  1  0
 28 29  2  0
 28 30  1  0
M  END
$$$$
