DVW.pdb
     RDKit          3D

 30 31  0  0  1  0  0  0  0  0999 V2000
   17.7644  -34.4044   -2.4899 N   0  0  0  0  0  0  0  0  0  0  0  0
   18.1258  -33.2557   -3.2966 C   0  0  1  0  0  0  0  0  0  0  0  0
   17.8550  -33.4966   -4.7640 C   0  0  0  0  0  0  0  0  0  0  0  0
   18.3191  -32.3729   -5.5944 C   0  0  0  0  0  0  0  0  0  0  0  0
   18.9943  -31.4415   -5.0404 O   0  0  0  0  0  0  0  0  0  0  0  0
   17.4497  -32.0256   -2.7942 C   0  0  0  0  0  0  0  0  0  0  0  0
   16.1975  -31.9335   -2.8367 O   0  0  0  0  0  0  0  0  0  0  0  0
   18.0816  -32.2385   -6.9470 O   0  0  0  0  0  0  0  0  0  0  0  0
   17.3376  -28.0699   -0.0229 C   0  0  0  0  0  0  0  0  0  0  0  0
   17.8072  -29.4563   -0.3940 C   0  0  1  0  0  0  0  0  0  0  0  0
   17.2717  -30.5247    0.5005 C   0  0  0  0  0  0  0  0  0  0  0  0
   17.5439  -29.7505   -1.8579 C   0  0  2  0  0  0  0  0  0  0  0  0
   18.2097  -30.9468   -2.2636 N   0  0  0  0  0  0  0  0  0  0  0  0
   17.9039  -28.5818   -2.7132 C   0  0  0  0  0  0  0  0  0  0  0  0
   18.9906  -28.5674   -3.3551 O   0  0  0  0  0  0  0  0  0  0  0  0
   17.0687  -27.4409   -2.8553 N   0  0  0  0  0  0  0  0  0  0  0  0
   17.2692  -26.4117   -3.8301 C   0  0  1  0  0  0  0  0  0  0  0  0
   17.5050  -26.9233   -5.2304 C   0  0  0  0  0  0  0  0  0  0  0  0
   17.7956  -25.8296   -6.1834 C   0  0  0  0  0  0  0  0  0  0  0  0
   18.9999  -25.1641   -6.3527 C   0  0  0  0  0  0  0  0  0  0  0  0
   18.8803  -24.2339   -7.3147 N   0  0  0  0  0  0  0  0  0  0  0  0
   17.6217  -24.2534   -7.8015 C   0  0  0  0  0  0  0  0  0  0  0  0
   17.0053  -23.5059   -8.7833 C   0  0  0  0  0  0  0  0  0  0  0  0
   15.6805  -23.7237   -9.1015 C   0  0  0  0  0  0  0  0  0  0  0  0
   15.0162  -24.7094   -8.4005 C   0  0  0  0  0  0  0  0  0  0  0  0
   15.6200  -25.4672   -7.4138 C   0  0  0  0  0  0  0  0  0  0  0  0
   16.9455  -25.2350   -7.1092 C   0  0  0  0  0  0  0  0  0  0  0  0
   16.1863  -25.3910   -3.8075 C   0  0  0  0  0  0  0  0  0  0  0  0
   14.9984  -25.7999   -3.8491 O   0  0  0  0  0  0  0  0  0  0  0  0
   16.4398  -24.0511   -3.7445 O   0  0  0  0  0  0  0  0  0  0  0  0
  2  1  1  1
  2  6  1  0
  2  3  1  0
  4  3  1  0
  4  5  2  0
  6  7  2  0
  8  4  1  0
 10 11  1  1
 10 12  1  0
 10  9  1  0
 12 13  1  6
 13  6  1  0
 14 12  1  0
 14 15  2  0
 16 14  1  0
 17 16  1  0
 17 28  1  0
 17 18  1  6
 19 18  1  0
 20 19  2  0
 21 22  1  0
 21 20  1  0
 22 27  2  0
 23 24  2  0
 23 22  1  0
 24 25  1  0
 25 26  2  0
 27 26  1  0
 27 19  1  0
 28 29  2  0
 28 30  1  0
M  END
$$$$
