DVW.pdb
     RDKit          3D

 30 31  0  0  1  0  0  0  0  0999 V2000
   27.9968  -20.8815  -17.4733 N   0  0  0  0  0  0  0  0  0  0  0  0
   28.1064  -21.5874  -16.2121 C   0  0  1  0  0  0  0  0  0  0  0  0
   29.5022  -22.1241  -15.9922 C   0  0  0  0  0  0  0  0  0  0  0  0
   29.7964  -23.2570  -16.8853 C   0  0  0  0  0  0  0  0  0  0  0  0
   28.9071  -23.6186  -17.7270 O   0  0  0  0  0  0  0  0  0  0  0  0
   27.6510  -20.7250  -15.0846 C   0  0  0  0  0  0  0  0  0  0  0  0
   28.1451  -19.5806  -14.9281 O   0  0  0  0  0  0  0  0  0  0  0  0
   30.9748  -23.9748  -16.8898 O   0  0  0  0  0  0  0  0  0  0  0  0
   24.6238  -19.0635  -14.4056 C   0  0  0  0  0  0  0  0  0  0  0  0
   24.8367  -19.9269  -13.1851 C   0  0  1  0  0  0  0  0  0  0  0  0
   23.8913  -21.0788  -13.0993 C   0  0  0  0  0  0  0  0  0  0  0  0
   26.2838  -20.3645  -13.0691 C   0  0  2  0  0  0  0  0  0  0  0  0
   26.6571  -21.1844  -14.1769 N   0  0  0  0  0  0  0  0  0  0  0  0
   26.5396  -21.0298  -11.7580 C   0  0  0  0  0  0  0  0  0  0  0  0
   27.3999  -21.9484  -11.6621 O   0  0  0  0  0  0  0  0  0  0  0  0
   25.8491  -20.6810  -10.5659 N   0  0  0  0  0  0  0  0  0  0  0  0
   26.1206  -21.2513   -9.2811 C   0  0  1  0  0  0  0  0  0  0  0  0
   27.5521  -21.0999   -8.8270 C   0  0  0  0  0  0  0  0  0  0  0  0
   27.6865  -20.1320   -7.7162 C   0  0  0  0  0  0  0  0  0  0  0  0
   26.9940  -18.9421   -7.5537 C   0  0  0  0  0  0  0  0  0  0  0  0
   27.3837  -18.3338   -6.4210 N   0  0  0  0  0  0  0  0  0  0  0  0
   28.3253  -19.0845   -5.8115 C   0  0  0  0  0  0  0  0  0  0  0  0
   29.0305  -18.9001   -4.6405 C   0  0  0  0  0  0  0  0  0  0  0  0
   29.9581  -19.8341   -4.2269 C   0  0  0  0  0  0  0  0  0  0  0  0
   30.1408  -20.9415   -5.0298 C   0  0  0  0  0  0  0  0  0  0  0  0
   29.4418  -21.1407   -6.2063 C   0  0  0  0  0  0  0  0  0  0  0  0
   28.5183  -20.1959   -6.6038 C   0  0  0  0  0  0  0  0  0  0  0  0
   25.1736  -20.7731   -8.2372 C   0  0  0  0  0  0  0  0  0  0  0  0
   24.5284  -19.7204   -8.4731 O   0  0  0  0  0  0  0  0  0  0  0  0
   24.9889  -21.4304   -7.0551 O   0  0  0  0  0  0  0  0  0  0  0  0
  2  1  1  6
  2  6  1  0
  2  3  1  0
  4  3  1  0
  4  5  2  0
  6  7  2  0
  8  4  1  0
 10 11  1  6
 10 12  1  0
 10  9  1  0
 12 13  1  6
 13  6  1  0
 14 12  1  0
 14 15  2  0
 16 14  1  0
 17 16  1  0
 17 28  1  0
 17 18  1  1
 19 18  1  0
 20 19  2  0
 21 22  1  0
 21 20  1  0
 22 27  2  0
 23 24  2  0
 23 22  1  0
 24 25  1  0
 25 26  2  0
 27 26  1  0
 27 19  1  0
 28 29  2  0
 28 30  1  0
M  END
$$$$
