NLE.pdb
     RDKit          3D

 26 25  0  0  1  0  0  0  0  0999 V2000
    7.5088  -16.5975   18.9969 N   0  0  0  0  0  0  0  0  0  0  0  0
    8.1435  -15.3303   19.0774 C   0  0  0  0  0  0  0  0  0  0  0  0
    8.3347  -14.5850   18.0892 O   0  0  0  0  0  0  0  0  0  0  0  0
    8.6009  -14.8731   20.4050 C   0  0  0  0  0  0  0  0  0  0  0  0
    8.3172  -15.8885   21.4888 C   0  0  2  0  0  0  0  0  0  0  0  0
    6.8955  -16.0146   21.6356 N   0  0  0  0  0  0  0  0  0  0  0  0
    8.9599  -15.3903   22.7478 C   0  0  0  0  0  0  0  0  0  0  0  0
   10.2281  -15.3067   22.7752 O   0  0  0  0  0  0  0  0  0  0  0  0
    5.9190  -12.9161   26.7043 C   0  0  0  0  0  0  0  0  0  0  0  0
    6.9286  -13.0801   25.5914 C   0  0  1  0  0  0  0  0  0  0  0  0
    7.2883  -11.6536   25.1515 C   0  0  0  0  0  0  0  0  0  0  0  0
    8.1163  -13.8285   26.0363 C   0  0  0  0  0  0  0  0  0  0  0  0
    8.7652  -14.7664   25.1034 C   0  0  2  0  0  0  0  0  0  0  0  0
    8.1555  -15.0307   23.8594 N   0  0  0  0  0  0  0  0  0  0  0  0
    9.0123  -16.1135   25.7513 C   0  0  0  0  0  0  0  0  0  0  0  0
    8.1234  -16.9974   25.8181 O   0  0  0  0  0  0  0  0  0  0  0  0
   10.2796  -16.4162   26.3097 N   0  0  0  0  0  0  0  0  0  0  0  0
   10.5868  -17.7522   26.8824 C   0  0  1  0  0  0  0  0  0  0  0  0
   11.7598  -18.2835   26.1313 C   0  0  0  0  0  0  0  0  0  0  0  0
   12.2091  -19.5996   26.6548 C   0  0  0  0  0  0  0  0  0  0  0  0
   13.3722  -20.1049   25.9240 C   0  0  0  0  0  0  0  0  0  0  0  0
   14.5610  -19.9464   26.2339 O   0  0  0  0  0  0  0  0  0  0  0  0
   10.8021  -17.5866   28.3344 C   0  0  0  0  0  0  0  0  0  0  0  0
   11.0180  -16.4773   28.8486 O   0  0  0  0  0  0  0  0  0  0  0  0
   13.1200  -20.8477   24.7481 O   0  0  0  0  0  0  0  0  0  0  0  0
   10.7593  -18.7190   29.1427 O   0  0  0  0  0  0  0  0  0  0  0  0
  2  1  1  0
  2  3  2  0
  4  5  1  0
  4  2  1  0
  5  7  1  0
  5  6  1  1
  7 14  1  0
  7  8  2  0
 10  9  1  1
 10 11  1  0
 12 10  1  0
 13 15  1  0
 13 12  1  1
 14 13  1  0
 15 16  2  0
 17 18  1  0
 17 15  1  0
 19 20  1  0
 18 19  1  6
 20 21  1  0
 21 25  1  0
 21 22  2  0
 23 18  1  0
 23 26  1  0
 24 23  2  0
M  END
$$$$
