NLE.pdb
     RDKit          3D

 26 25  0  0  1  0  0  0  0  0999 V2000
   13.7467  -17.1056   15.5512 N   0  0  0  0  0  0  0  0  0  0  0  0
   12.3673  -16.8272   15.7376 C   0  0  0  0  0  0  0  0  0  0  0  0
   11.4578  -17.3165   15.0292 O   0  0  0  0  0  0  0  0  0  0  0  0
   11.9928  -15.9077   16.8308 C   0  0  0  0  0  0  0  0  0  0  0  0
   11.8688  -16.6189   18.1594 C   0  0  2  0  0  0  0  0  0  0  0  0
   10.8502  -17.6230   18.0465 N   0  0  0  0  0  0  0  0  0  0  0  0
   11.5154  -15.5874   19.1876 C   0  0  0  0  0  0  0  0  0  0  0  0
   12.4071  -14.7416   19.5125 O   0  0  0  0  0  0  0  0  0  0  0  0
    6.4603  -13.2516   19.6197 C   0  0  0  0  0  0  0  0  0  0  0  0
    7.9371  -13.5392   19.4746 C   0  0  1  0  0  0  0  0  0  0  0  0
    8.5719  -12.2109   19.0381 C   0  0  0  0  0  0  0  0  0  0  0  0
    8.5235  -14.0361   20.7307 C   0  0  0  0  0  0  0  0  0  0  0  0
    9.8888  -14.5902   20.7160 C   0  0  2  0  0  0  0  0  0  0  0  0
   10.2197  -15.5776   19.7649 N   0  0  0  0  0  0  0  0  0  0  0  0
   10.2741  -15.1551   22.0680 C   0  0  0  0  0  0  0  0  0  0  0  0
   10.0088  -14.5617   23.1418 O   0  0  0  0  0  0  0  0  0  0  0  0
   10.9580  -16.3937   22.1563 N   0  0  0  0  0  0  0  0  0  0  0  0
   11.3650  -16.9749   23.4616 C   0  0  1  0  0  0  0  0  0  0  0  0
   10.9630  -18.4103   23.4381 C   0  0  0  0  0  0  0  0  0  0  0  0
   11.7338  -19.1901   22.4352 C   0  0  0  0  0  0  0  0  0  0  0  0
   11.4506  -20.6230   22.5291 C   0  0  0  0  0  0  0  0  0  0  0  0
   10.6749  -21.1686   23.3260 O   0  0  0  0  0  0  0  0  0  0  0  0
   12.8129  -16.7381   23.6338 C   0  0  0  0  0  0  0  0  0  0  0  0
   13.3837  -16.8966   24.7250 O   0  0  0  0  0  0  0  0  0  0  0  0
   12.1261  -21.4728   21.6237 O   0  0  0  0  0  0  0  0  0  0  0  0
   13.5512  -16.3238   22.5289 O   0  0  0  0  0  0  0  0  0  0  0  0
  2  1  1  0
  2  3  2  0
  4  5  1  0
  4  2  1  0
  5  7  1  0
  5  6  1  6
  7 14  1  0
  7  8  2  0
 10  9  1  1
 10 11  1  0
 12 10  1  0
 13 15  1  0
 13 12  1  1
 14 13  1  0
 15 16  2  0
 17 18  1  0
 17 15  1  0
 19 20  1  0
 18 19  1  6
 20 21  1  0
 21 25  1  0
 21 22  2  0
 23 18  1  0
 23 26  1  0
 24 23  2  0
M  END
$$$$
