NLE.pdb
     RDKit          3D

 26 25  0  0  1  0  0  0  0  0999 V2000
    8.3919  -17.4460   19.8766 N   0  0  0  0  0  0  0  0  0  0  0  0
    8.7193  -16.0696   19.7607 C   0  0  0  0  0  0  0  0  0  0  0  0
    8.8400  -15.4739   18.6657 O   0  0  0  0  0  0  0  0  0  0  0  0
    8.9277  -15.3048   21.0067 C   0  0  0  0  0  0  0  0  0  0  0  0
    8.9070  -16.1906   22.2319 C   0  0  2  0  0  0  0  0  0  0  0  0
    7.6247  -16.8290   22.3122 N   0  0  0  0  0  0  0  0  0  0  0  0
    9.1631  -15.3150   23.4211 C   0  0  0  0  0  0  0  0  0  0  0  0
   10.3059  -14.7675   23.5215 O   0  0  0  0  0  0  0  0  0  0  0  0
    5.4412  -12.0212   26.1129 C   0  0  0  0  0  0  0  0  0  0  0  0
    6.6230  -12.5985   25.3681 C   0  0  1  0  0  0  0  0  0  0  0  0
    7.5081  -11.3960   25.0096 C   0  0  0  0  0  0  0  0  0  0  0  0
    7.3512  -13.5878   26.1803 C   0  0  0  0  0  0  0  0  0  0  0  0
    8.4264  -14.3783   25.5556 C   0  0  2  0  0  0  0  0  0  0  0  0
    8.1453  -15.1206   24.3898 N   0  0  0  0  0  0  0  0  0  0  0  0
    9.0461  -15.3494   26.5396 C   0  0  0  0  0  0  0  0  0  0  0  0
    9.4452  -14.9897   27.6741 O   0  0  0  0  0  0  0  0  0  0  0  0
    9.1938  -16.7171   26.1972 N   0  0  0  0  0  0  0  0  0  0  0  0
    9.7434  -17.7115   27.1543 C   0  0  1  0  0  0  0  0  0  0  0  0
    9.0038  -18.9853   26.9241 C   0  0  0  0  0  0  0  0  0  0  0  0
    9.5466  -20.1020   27.7405 C   0  0  0  0  0  0  0  0  0  0  0  0
    8.8589  -21.3629   27.4592 C   0  0  0  0  0  0  0  0  0  0  0  0
    7.6339  -21.5467   27.4525 O   0  0  0  0  0  0  0  0  0  0  0  0
   11.2025  -17.7928   26.9388 C   0  0  0  0  0  0  0  0  0  0  0  0
   11.7265  -17.5131   25.8485 O   0  0  0  0  0  0  0  0  0  0  0  0
    9.6671  -22.4848   27.1656 O   0  0  0  0  0  0  0  0  0  0  0  0
   12.0063  -18.1975   28.0007 O   0  0  0  0  0  0  0  0  0  0  0  0
  2  1  1  0
  2  3  2  0
  4  5  1  0
  4  2  1  0
  5  7  1  0
  5  6  1  1
  7 14  1  0
  7  8  2  0
 10  9  1  1
 10 11  1  0
 12 10  1  0
 13 15  1  0
 13 12  1  1
 14 13  1  0
 15 16  2  0
 17 18  1  0
 17 15  1  0
 19 20  1  0
 18 19  1  6
 20 21  1  0
 21 25  1  0
 21 22  2  0
 23 18  1  0
 23 26  1  0
 24 23  2  0
M  END
$$$$
