NLE.pdb
     RDKit          3D

 26 25  0  0  1  0  0  0  0  0999 V2000
    7.1661  -12.5614   18.0916 N   0  0  0  0  0  0  0  0  0  0  0  0
    7.9425  -13.7120   18.3889 C   0  0  0  0  0  0  0  0  0  0  0  0
    8.0412  -14.6999   17.6256 O   0  0  0  0  0  0  0  0  0  0  0  0
    8.6716  -13.7369   19.6730 C   0  0  0  0  0  0  0  0  0  0  0  0
    8.3665  -14.9785   20.4801 C   0  0  2  0  0  0  0  0  0  0  0  0
    6.9821  -15.3102   20.3020 N   0  0  0  0  0  0  0  0  0  0  0  0
    8.6800  -14.6688   21.9127 C   0  0  0  0  0  0  0  0  0  0  0  0
    9.9001  -14.5160   22.2349 O   0  0  0  0  0  0  0  0  0  0  0  0
    8.3326  -12.0206   26.3853 C   0  0  0  0  0  0  0  0  0  0  0  0
    7.2934  -13.1182   26.3850 C   0  0  1  0  0  0  0  0  0  0  0  0
    6.0858  -12.5388   27.1358 C   0  0  0  0  0  0  0  0  0  0  0  0
    6.9367  -13.5334   25.0179 C   0  0  0  0  0  0  0  0  0  0  0  0
    7.9324  -14.2506   24.2023 C   0  0  2  0  0  0  0  0  0  0  0  0
    7.6295  -14.5559   22.8591 N   0  0  0  0  0  0  0  0  0  0  0  0
    8.3482  -15.5546   24.8520 C   0  0  0  0  0  0  0  0  0  0  0  0
    7.5699  -16.5353   24.9430 O   0  0  0  0  0  0  0  0  0  0  0  0
    9.6536  -15.7034   25.3844 N   0  0  0  0  0  0  0  0  0  0  0  0
   10.1595  -17.0133   25.8693 C   0  0  1  0  0  0  0  0  0  0  0  0
   11.4446  -17.2688   25.1583 C   0  0  0  0  0  0  0  0  0  0  0  0
   11.7768  -18.7163   25.1071 C   0  0  0  0  0  0  0  0  0  0  0  0
   13.1463  -18.9418   24.6426 C   0  0  0  0  0  0  0  0  0  0  0  0
   13.7053  -20.0387   24.5065 O   0  0  0  0  0  0  0  0  0  0  0  0
   10.2671  -16.9434   27.3409 C   0  0  0  0  0  0  0  0  0  0  0  0
   10.2577  -17.9599   28.0537 O   0  0  0  0  0  0  0  0  0  0  0  0
   13.9110  -17.7988   24.3156 O   0  0  0  0  0  0  0  0  0  0  0  0
   10.3824  -15.6907   27.9368 O   0  0  0  0  0  0  0  0  0  0  0  0
  2  1  1  0
  2  3  2  0
  4  5  1  0
  4  2  1  0
  5  7  1  0
  5  6  1  1
  7 14  1  0
  7  8  2  0
 10  9  1  6
 10 11  1  0
 12 10  1  0
 13 15  1  0
 13 12  1  1
 14 13  1  0
 15 16  2  0
 17 18  1  0
 17 15  1  0
 19 20  1  0
 18 19  1  6
 20 21  1  0
 21 25  1  0
 21 22  2  0
 23 18  1  0
 23 26  1  0
 24 23  2  0
M  END
$$$$
