NLE.pdb
     RDKit          3D

 26 25  0  0  1  0  0  0  0  0999 V2000
    7.4699  -17.9492   18.5722 N   0  0  0  0  0  0  0  0  0  0  0  0
    6.7424  -17.4245   19.6724 C   0  0  0  0  0  0  0  0  0  0  0  0
    5.4957  -17.3059   19.6879 O   0  0  0  0  0  0  0  0  0  0  0  0
    7.5067  -16.9971   20.8615 C   0  0  0  0  0  0  0  0  0  0  0  0
    7.3111  -15.5299   21.1703 C   0  0  2  0  0  0  0  0  0  0  0  0
    7.8291  -14.7600   20.0760 N   0  0  0  0  0  0  0  0  0  0  0  0
    8.0440  -15.2396   22.4450 C   0  0  0  0  0  0  0  0  0  0  0  0
    9.3124  -15.1696   22.3992 O   0  0  0  0  0  0  0  0  0  0  0  0
    5.8030  -12.1278   26.6384 C   0  0  0  0  0  0  0  0  0  0  0  0
    6.7046  -12.6350   25.5363 C   0  0  1  0  0  0  0  0  0  0  0  0
    7.7761  -11.5505   25.3523 C   0  0  0  0  0  0  0  0  0  0  0  0
    7.3013  -13.9382   25.8741 C   0  0  0  0  0  0  0  0  0  0  0  0
    8.0106  -14.6960   24.8282 C   0  0  2  0  0  0  0  0  0  0  0  0
    7.3209  -15.0536   23.6511 N   0  0  0  0  0  0  0  0  0  0  0  0
    8.6079  -15.9756   25.3772 C   0  0  0  0  0  0  0  0  0  0  0  0
    7.8990  -16.9568   25.7095 O   0  0  0  0  0  0  0  0  0  0  0  0
   10.0116  -16.0999   25.5323 N   0  0  0  0  0  0  0  0  0  0  0  0
   10.6490  -17.3876   25.9100 C   0  0  1  0  0  0  0  0  0  0  0  0
   11.9566  -17.4465   25.1963 C   0  0  0  0  0  0  0  0  0  0  0  0
   12.7356  -18.6596   25.5564 C   0  0  0  0  0  0  0  0  0  0  0  0
   14.0097  -18.7183   24.8385 C   0  0  0  0  0  0  0  0  0  0  0  0
   14.8413  -17.8055   24.7409 O   0  0  0  0  0  0  0  0  0  0  0  0
   10.7430  -17.4343   27.3834 C   0  0  0  0  0  0  0  0  0  0  0  0
   11.1325  -18.4455   27.9895 O   0  0  0  0  0  0  0  0  0  0  0  0
   14.3276  -19.9338   24.1907 O   0  0  0  0  0  0  0  0  0  0  0  0
   10.3800  -16.3010   28.1055 O   0  0  0  0  0  0  0  0  0  0  0  0
  2  1  1  0
  2  3  2  0
  4  5  1  0
  4  2  1  0
  5  7  1  0
  5  6  1  6
  7 14  1  0
  7  8  2  0
 10  9  1  1
 10 11  1  0
 12 10  1  0
 13 15  1  0
 13 12  1  1
 14 13  1  0
 15 16  2  0
 17 18  1  0
 17 15  1  0
 19 20  1  0
 18 19  1  6
 20 21  1  0
 21 25  1  0
 21 22  2  0
 23 18  1  0
 23 26  1  0
 24 23  2  0
M  END
$$$$
