NLE.pdb
     RDKit          3D

 26 25  0  0  1  0  0  0  0  0999 V2000
    9.6216  -17.0265   18.1935 N   0  0  0  0  0  0  0  0  0  0  0  0
    8.4210  -16.7470   18.8975 C   0  0  0  0  0  0  0  0  0  0  0  0
    7.3182  -17.2756   18.6276 O   0  0  0  0  0  0  0  0  0  0  0  0
    8.4854  -15.7771   20.0093 C   0  0  0  0  0  0  0  0  0  0  0  0
    8.7518  -16.4472   21.3383 C   0  0  2  0  0  0  0  0  0  0  0  0
    7.6328  -17.2857   21.6593 N   0  0  0  0  0  0  0  0  0  0  0  0
    8.9391  -15.3631   22.3561 C   0  0  0  0  0  0  0  0  0  0  0  0
    9.8914  -14.5398   22.1797 O   0  0  0  0  0  0  0  0  0  0  0  0
    7.8540  -11.4510   25.8465 C   0  0  0  0  0  0  0  0  0  0  0  0
    7.3229  -12.7990   26.2773 C   0  0  1  0  0  0  0  0  0  0  0  0
    6.0131  -12.5038   27.0224 C   0  0  0  0  0  0  0  0  0  0  0  0
    7.1059  -13.6940   25.1282 C   0  0  0  0  0  0  0  0  0  0  0  0
    8.2720  -14.2789   24.4431 C   0  0  2  0  0  0  0  0  0  0  0  0
    8.0674  -15.2811   23.4721 N   0  0  0  0  0  0  0  0  0  0  0  0
    9.2730  -14.8415   25.4315 C   0  0  0  0  0  0  0  0  0  0  0  0
    9.7528  -14.1520   26.3643 O   0  0  0  0  0  0  0  0  0  0  0  0
    9.7018  -16.1886   25.3258 N   0  0  0  0  0  0  0  0  0  0  0  0
   10.6920  -16.7737   26.2661 C   0  0  1  0  0  0  0  0  0  0  0  0
   10.0209  -17.9227   26.9384 C   0  0  0  0  0  0  0  0  0  0  0  0
   10.9389  -18.6480   27.8544 C   0  0  0  0  0  0  0  0  0  0  0  0
   10.2533  -19.7283   28.5650 C   0  0  0  0  0  0  0  0  0  0  0  0
    9.0884  -20.1067   28.3803 O   0  0  0  0  0  0  0  0  0  0  0  0
   11.9007  -17.1259   25.4935 C   0  0  0  0  0  0  0  0  0  0  0  0
   13.0237  -17.1966   26.0183 O   0  0  0  0  0  0  0  0  0  0  0  0
   10.9881  -20.4107   29.5613 O   0  0  0  0  0  0  0  0  0  0  0  0
   11.7636  -17.3849   24.1327 O   0  0  0  0  0  0  0  0  0  0  0  0
  2  1  1  0
  2  3  2  0
  4  5  1  0
  4  2  1  0
  5  7  1  0
  5  6  1  1
  7 14  1  0
  7  8  2  0
 10  9  1  6
 10 11  1  0
 12 10  1  0
 13 15  1  0
 13 12  1  1
 14 13  1  0
 15 16  2  0
 17 18  1  0
 17 15  1  0
 19 20  1  0
 18 19  1  6
 20 21  1  0
 21 25  1  0
 21 22  2  0
 23 18  1  0
 23 26  1  0
 24 23  2  0
M  END
$$$$
