NLE.pdb
     RDKit          3D

 26 25  0  0  1  0  0  0  0  0999 V2000
    9.0284  -14.6186   17.5570 N   0  0  0  0  0  0  0  0  0  0  0  0
    8.3605  -15.2890   18.6151 C   0  0  0  0  0  0  0  0  0  0  0  0
    7.5507  -16.2283   18.4410 O   0  0  0  0  0  0  0  0  0  0  0  0
    8.6423  -14.8471   19.9958 C   0  0  0  0  0  0  0  0  0  0  0  0
    8.2420  -15.8837   21.0211 C   0  0  2  0  0  0  0  0  0  0  0  0
    6.8135  -16.0167   21.0024 N   0  0  0  0  0  0  0  0  0  0  0  0
    8.7345  -15.4076   22.3542 C   0  0  0  0  0  0  0  0  0  0  0  0
    9.9802  -15.1910   22.4852 O   0  0  0  0  0  0  0  0  0  0  0  0
    5.9056  -12.4348   26.2632 C   0  0  0  0  0  0  0  0  0  0  0  0
    6.9590  -12.9275   25.2977 C   0  0  1  0  0  0  0  0  0  0  0  0
    8.0575  -11.8546   25.3081 C   0  0  0  0  0  0  0  0  0  0  0  0
    7.4833  -14.2474   25.6869 C   0  0  0  0  0  0  0  0  0  0  0  0
    8.3050  -15.0053   24.7269 C   0  0  2  0  0  0  0  0  0  0  0  0
    7.8184  -15.2135   23.4196 N   0  0  0  0  0  0  0  0  0  0  0  0
    8.6724  -16.3723   25.2672 C   0  0  0  0  0  0  0  0  0  0  0  0
    7.9317  -17.3740   25.1138 O   0  0  0  0  0  0  0  0  0  0  0  0
    9.8871  -16.5585   25.9740 N   0  0  0  0  0  0  0  0  0  0  0  0
   10.5425  -17.8880   26.0728 C   0  0  1  0  0  0  0  0  0  0  0  0
   11.5379  -17.9609   24.9654 C   0  0  0  0  0  0  0  0  0  0  0  0
   12.2796  -19.2486   24.9645 C   0  0  0  0  0  0  0  0  0  0  0  0
   13.2096  -19.3374   23.8379 C   0  0  0  0  0  0  0  0  0  0  0  0
   13.1028  -18.7570   22.7488 O   0  0  0  0  0  0  0  0  0  0  0  0
   11.1124  -18.0151   27.4297 C   0  0  0  0  0  0  0  0  0  0  0  0
   11.3787  -19.1177   27.9344 O   0  0  0  0  0  0  0  0  0  0  0  0
   14.3432  -20.1654   24.0034 O   0  0  0  0  0  0  0  0  0  0  0  0
   11.3544  -16.8531   28.1567 O   0  0  0  0  0  0  0  0  0  0  0  0
  2  1  1  0
  2  3  2  0
  4  5  1  0
  4  2  1  0
  5  7  1  0
  5  6  1  1
  7 14  1  0
  7  8  2  0
 10  9  1  1
 10 11  1  0
 12 10  1  0
 13 15  1  0
 13 12  1  1
 14 13  1  0
 15 16  2  0
 17 18  1  0
 17 15  1  0
 19 20  1  0
 18 19  1  6
 20 21  1  0
 21 25  1  0
 21 22  2  0
 23 18  1  0
 23 26  1  0
 24 23  2  0
M  END
$$$$
