NLE.pdb
     RDKit          3D

 26 25  0  0  1  0  0  0  0  0999 V2000
    4.8496  -17.7916   20.1391 N   0  0  0  0  0  0  0  0  0  0  0  0
    6.2213  -17.5814   19.8400 C   0  0  0  0  0  0  0  0  0  0  0  0
    6.7201  -17.7589   18.7051 O   0  0  0  0  0  0  0  0  0  0  0  0
    7.1024  -17.1279   20.9349 C   0  0  0  0  0  0  0  0  0  0  0  0
    7.1642  -15.6203   21.0323 C   0  0  2  0  0  0  0  0  0  0  0  0
    7.7927  -15.1115   19.8471 N   0  0  0  0  0  0  0  0  0  0  0  0
    7.9515  -15.2835   22.2624 C   0  0  0  0  0  0  0  0  0  0  0  0
    9.2199  -15.3043   22.1810 O   0  0  0  0  0  0  0  0  0  0  0  0
    5.8212  -12.0936   26.4433 C   0  0  0  0  0  0  0  0  0  0  0  0
    6.6638  -12.6124   25.3007 C   0  0  1  0  0  0  0  0  0  0  0  0
    7.6057  -11.4579   24.9296 C   0  0  0  0  0  0  0  0  0  0  0  0
    7.4102  -13.8244   25.6778 C   0  0  0  0  0  0  0  0  0  0  0  0
    8.0263  -14.6463   24.6213 C   0  0  2  0  0  0  0  0  0  0  0  0
    7.2777  -14.9559   23.4669 N   0  0  0  0  0  0  0  0  0  0  0  0
    8.5322  -15.9659   25.1674 C   0  0  0  0  0  0  0  0  0  0  0  0
    7.7837  -16.9639   25.3068 O   0  0  0  0  0  0  0  0  0  0  0  0
    9.8918  -16.1101   25.5423 N   0  0  0  0  0  0  0  0  0  0  0  0
   10.4835  -17.4360   25.8565 C   0  0  1  0  0  0  0  0  0  0  0  0
   11.7423  -17.5444   25.0651 C   0  0  0  0  0  0  0  0  0  0  0  0
   12.5166  -18.7646   25.4111 C   0  0  0  0  0  0  0  0  0  0  0  0
   13.7157  -18.8984   24.5827 C   0  0  0  0  0  0  0  0  0  0  0  0
   13.9237  -18.3432   23.4951 O   0  0  0  0  0  0  0  0  0  0  0  0
   10.6611  -17.5199   27.3206 C   0  0  0  0  0  0  0  0  0  0  0  0
   10.9559  -18.5826   27.8911 O   0  0  0  0  0  0  0  0  0  0  0  0
   14.7407  -19.7430   25.0665 O   0  0  0  0  0  0  0  0  0  0  0  0
   10.4897  -16.3628   28.0749 O   0  0  0  0  0  0  0  0  0  0  0  0
  2  1  1  0
  2  3  2  0
  4  5  1  0
  4  2  1  0
  5  7  1  0
  5  6  1  6
  7 14  1  0
  7  8  2  0
 10  9  1  1
 10 11  1  0
 12 10  1  0
 13 15  1  0
 13 12  1  1
 14 13  1  0
 15 16  2  0
 17 18  1  0
 17 15  1  0
 19 20  1  0
 18 19  1  6
 20 21  1  0
 21 25  1  0
 21 22  2  0
 23 18  1  0
 23 26  1  0
 24 23  2  0
M  END
$$$$
