NLE.pdb
     RDKit          3D

 26 25  0  0  1  0  0  0  0  0999 V2000
    8.2667  -16.9589   18.9650 N   0  0  0  0  0  0  0  0  0  0  0  0
    8.6483  -15.5991   19.1078 C   0  0  0  0  0  0  0  0  0  0  0  0
    8.8491  -14.8287   18.1411 O   0  0  0  0  0  0  0  0  0  0  0  0
    8.8156  -15.0718   20.4770 C   0  0  0  0  0  0  0  0  0  0  0  0
    8.6185  -16.1394   21.5294 C   0  0  2  0  0  0  0  0  0  0  0  0
    7.2571  -16.5889   21.4745 N   0  0  0  0  0  0  0  0  0  0  0  0
    8.9436  -15.5243   22.8569 C   0  0  0  0  0  0  0  0  0  0  0  0
   10.1308  -15.1113   23.0463 O   0  0  0  0  0  0  0  0  0  0  0  0
    5.6667  -12.5050   26.2677 C   0  0  0  0  0  0  0  0  0  0  0  0
    6.8401  -13.0105   25.4600 C   0  0  1  0  0  0  0  0  0  0  0  0
    7.8932  -11.8949   25.5255 C   0  0  0  0  0  0  0  0  0  0  0  0
    7.3606  -14.2825   25.9888 C   0  0  0  0  0  0  0  0  0  0  0  0
    8.3010  -15.0690   25.1712 C   0  0  2  0  0  0  0  0  0  0  0  0
    7.9397  -15.4189   23.8535 N   0  0  0  0  0  0  0  0  0  0  0  0
    8.6938  -16.3590   25.8618 C   0  0  0  0  0  0  0  0  0  0  0  0
    7.8861  -17.3069   26.0195 O   0  0  0  0  0  0  0  0  0  0  0  0
   10.0107  -16.5318   26.3575 N   0  0  0  0  0  0  0  0  0  0  0  0
   10.4481  -17.7977   27.0004 C   0  0  1  0  0  0  0  0  0  0  0  0
   11.7551  -18.1645   26.3842 C   0  0  0  0  0  0  0  0  0  0  0  0
   11.6570  -18.3057   24.9082 C   0  0  0  0  0  0  0  0  0  0  0  0
   12.9502  -18.6381   24.3087 C   0  0  0  0  0  0  0  0  0  0  0  0
   13.7041  -19.5594   24.6507 O   0  0  0  0  0  0  0  0  0  0  0  0
   10.4899  -17.5762   28.4603 C   0  0  0  0  0  0  0  0  0  0  0  0
   10.7239  -18.4949   29.2620 O   0  0  0  0  0  0  0  0  0  0  0  0
   13.3866  -17.8317   23.2329 O   0  0  0  0  0  0  0  0  0  0  0  0
   10.2579  -16.2907   28.9410 O   0  0  0  0  0  0  0  0  0  0  0  0
  2  1  1  0
  2  3  2  0
  4  5  1  0
  4  2  1  0
  5  7  1  0
  5  6  1  1
  7 14  1  0
  7  8  2  0
 10  9  1  1
 10 11  1  0
 12 10  1  0
 13 15  1  0
 13 12  1  1
 14 13  1  0
 15 16  2  0
 17 18  1  0
 17 15  1  0
 19 20  1  0
 18 19  1  6
 20 21  1  0
 21 25  1  0
 21 22  2  0
 23 18  1  0
 23 26  1  0
 24 23  2  0
M  END
$$$$
