NLE.pdb
     RDKit          3D

 26 25  0  0  1  0  0  0  0  0999 V2000
    7.3534  -15.3126   18.5015 N   0  0  0  0  0  0  0  0  0  0  0  0
    7.8606  -14.0395   18.8714 C   0  0  0  0  0  0  0  0  0  0  0  0
    8.0235  -13.0954   18.0648 O   0  0  0  0  0  0  0  0  0  0  0  0
    8.2135  -13.8250   20.2893 C   0  0  0  0  0  0  0  0  0  0  0  0
    8.0516  -15.0810   21.1154 C   0  0  2  0  0  0  0  0  0  0  0  0
    6.6656  -15.4514   21.1164 N   0  0  0  0  0  0  0  0  0  0  0  0
    8.5417  -14.7732   22.4979 C   0  0  0  0  0  0  0  0  0  0  0  0
    9.7427  -14.3778   22.6289 O   0  0  0  0  0  0  0  0  0  0  0  0
    5.6924  -12.5164   26.7378 C   0  0  0  0  0  0  0  0  0  0  0  0
    6.7505  -12.8567   25.7133 C   0  0  1  0  0  0  0  0  0  0  0  0
    7.7977  -11.7387   25.8196 C   0  0  0  0  0  0  0  0  0  0  0  0
    7.3426  -14.1825   25.9582 C   0  0  0  0  0  0  0  0  0  0  0  0
    8.1838  -14.7970   24.9161 C   0  0  2  0  0  0  0  0  0  0  0  0
    7.6723  -14.9271   23.6082 N   0  0  0  0  0  0  0  0  0  0  0  0
    8.6591  -16.1758   25.3266 C   0  0  0  0  0  0  0  0  0  0  0  0
    7.8616  -17.1146   25.5679 O   0  0  0  0  0  0  0  0  0  0  0  0
   10.0452  -16.4461   25.4509 N   0  0  0  0  0  0  0  0  0  0  0  0
   10.5498  -17.7645   25.9138 C   0  0  1  0  0  0  0  0  0  0  0  0
   11.8793  -17.9669   25.2704 C   0  0  0  0  0  0  0  0  0  0  0  0
   11.8032  -17.8744   23.7893 C   0  0  0  0  0  0  0  0  0  0  0  0
   13.1064  -18.1054   23.1643 C   0  0  0  0  0  0  0  0  0  0  0  0
   13.4897  -17.6558   22.0756 O   0  0  0  0  0  0  0  0  0  0  0  0
   10.5701  -17.7512   27.3908 C   0  0  0  0  0  0  0  0  0  0  0  0
   10.8580  -18.7584   28.0572 O   0  0  0  0  0  0  0  0  0  0  0  0
   14.0217  -18.9209   23.8680 O   0  0  0  0  0  0  0  0  0  0  0  0
   10.2542  -16.5643   28.0458 O   0  0  0  0  0  0  0  0  0  0  0  0
  2  1  1  0
  2  3  2  0
  4  5  1  0
  4  2  1  0
  5  7  1  0
  5  6  1  1
  7 14  1  0
  7  8  2  0
 10  9  1  1
 10 11  1  0
 12 10  1  0
 13 15  1  0
 13 12  1  1
 14 13  1  0
 15 16  2  0
 17 18  1  0
 17 15  1  0
 19 20  1  0
 18 19  1  6
 20 21  1  0
 21 25  1  0
 21 22  2  0
 23 18  1  0
 23 26  1  0
 24 23  2  0
M  END
$$$$
