CKL.pdb
     RDKit          3D

 24 23  0  0  1  0  0  0  0  0999 V2000
    7.6312  -14.7996   18.1364 N   0  0  0  0  0  0  0  0  0  0  0  0
    8.2632  -14.2414   19.3114 C   0  0  1  0  0  0  0  0  0  0  0  0
    7.8038  -12.8095   19.5492 C   0  0  0  0  0  0  0  0  0  0  0  0
    8.4880  -11.7103   18.2833 S   0  0  0  0  0  0  0  0  0  0  0  0
    7.9425  -15.1060   20.4699 C   0  0  0  0  0  0  0  0  0  0  0  0
    6.7392  -15.2768   20.7884 O   0  0  0  0  0  0  0  0  0  0  0  0
    9.0193  -15.7039   21.1690 N   0  0  0  0  0  0  0  0  0  0  0  0
    8.7454  -16.4929   22.3395 C   0  0  1  0  0  0  0  0  0  0  0  0
    9.2864  -17.8993   22.2272 C   0  0  0  0  0  0  0  0  0  0  0  0
    9.0488  -18.7243   23.4572 C   0  0  0  0  0  0  0  0  0  0  0  0
    9.7331  -20.0658   23.2262 C   0  0  0  0  0  0  0  0  0  0  0  0
    9.5263  -20.9569   24.4315 C   0  0  0  0  0  0  0  0  0  0  0  0
   10.3474  -22.1427   24.2845 N   0  0  0  0  0  0  0  0  0  0  0  0
    9.4294  -15.8737   23.5009 C   0  0  0  0  0  0  0  0  0  0  0  0
   10.4850  -15.2262   23.2895 O   0  0  0  0  0  0  0  0  0  0  0  0
    8.4593  -12.4993   26.9282 C   0  0  0  0  0  0  0  0  0  0  0  0
    7.3480  -12.6832   25.8833 C   0  0  2  0  0  0  0  0  0  0  0  0
    6.0837  -12.9690   26.6979 C   0  0  0  0  0  0  0  0  0  0  0  0
    7.6626  -13.8698   25.0402 C   0  0  0  0  0  0  0  0  0  0  0  0
    8.6331  -14.8445   25.5959 C   0  0  2  0  0  0  0  0  0  0  0  0
    8.9312  -15.9916   24.8239 N   0  0  0  0  0  0  0  0  0  0  0  0
    8.0625  -15.2938   26.9245 C   0  0  0  0  0  0  0  0  0  0  0  0
    8.5151  -14.8733   28.0012 O   0  0  0  0  0  0  0  0  0  0  0  0
    7.0103  -16.1964   26.9138 O   0  0  0  0  0  0  0  0  0  0  0  0
  2  1  1  6
  3  2  1  0
  4  3  1  0
  5  6  2  0
  5  2  1  0
  7  5  1  0
  8  7  1  0
  9 10  1  0
  8  9  1  6
 10 11  1  0
 11 12  1  0
 12 13  1  0
 14 15  2  0
 14  8  1  0
 17 18  1  1
 17 16  1  0
 19 17  1  0
 20 19  1  6
 20 21  1  0
 21 14  1  0
 22 20  1  0
 23 22  2  0
 24 22  1  0
M  END
$$$$
