CKL.pdb
     RDKit          3D

 24 23  0  0  1  0  0  0  0  0999 V2000
    7.3633  -15.4751   18.1385 N   0  0  0  0  0  0  0  0  0  0  0  0
    8.2441  -14.8716   19.1140 C   0  0  1  0  0  0  0  0  0  0  0  0
    8.0874  -13.3572   19.1269 C   0  0  0  0  0  0  0  0  0  0  0  0
    8.8966  -12.6283   17.6803 S   0  0  0  0  0  0  0  0  0  0  0  0
    7.9394  -15.4527   20.4415 C   0  0  0  0  0  0  0  0  0  0  0  0
    6.7443  -15.5004   20.8263 O   0  0  0  0  0  0  0  0  0  0  0  0
    9.0216  -15.9308   21.2200 N   0  0  0  0  0  0  0  0  0  0  0  0
    8.7537  -16.5534   22.4882 C   0  0  1  0  0  0  0  0  0  0  0  0
    9.7238  -17.6691   22.7998 C   0  0  0  0  0  0  0  0  0  0  0  0
    9.5014  -18.2868   24.1485 C   0  0  0  0  0  0  0  0  0  0  0  0
   10.4729  -19.4547   24.2633 C   0  0  0  0  0  0  0  0  0  0  0  0
   10.3204  -20.1124   25.6175 C   0  0  0  0  0  0  0  0  0  0  0  0
   11.3243  -21.1500   25.7507 N   0  0  0  0  0  0  0  0  0  0  0  0
    8.9227  -15.5415   23.5595 C   0  0  0  0  0  0  0  0  0  0  0  0
    9.9812  -14.8651   23.5729 O   0  0  0  0  0  0  0  0  0  0  0  0
    5.5467  -11.8581   27.1374 C   0  0  0  0  0  0  0  0  0  0  0  0
    6.9367  -12.4515   26.8611 C   0  0  2  0  0  0  0  0  0  0  0  0
    7.7747  -11.2745   26.3550 C   0  0  0  0  0  0  0  0  0  0  0  0
    6.8263  -13.4706   25.7808 C   0  0  0  0  0  0  0  0  0  0  0  0
    8.0504  -14.2488   25.4701 C   0  0  2  0  0  0  0  0  0  0  0  0
    7.9359  -15.3207   24.5545 N   0  0  0  0  0  0  0  0  0  0  0  0
    8.5464  -14.7961   26.7920 C   0  0  0  0  0  0  0  0  0  0  0  0
    8.9217  -14.0449   27.7062 O   0  0  0  0  0  0  0  0  0  0  0  0
    8.5732  -16.1717   26.9625 O   0  0  0  0  0  0  0  0  0  0  0  0
  2  1  1  6
  3  2  1  0
  4  3  1  0
  5  6  2  0
  5  2  1  0
  7  5  1  0
  8  7  1  0
  9 10  1  0
  8  9  1  1
 10 11  1  0
 11 12  1  0
 12 13  1  0
 14 15  2  0
 14  8  1  0
 17 18  1  6
 17 16  1  0
 19 17  1  0
 20 19  1  1
 20 21  1  0
 21 14  1  0
 22 20  1  0
 23 22  2  0
 24 22  1  0
M  END
$$$$
