CKL.pdb
     RDKit          3D

 24 23  0  0  1  0  0  0  0  0999 V2000
    8.6819  -15.3189   19.1679 N   0  0  0  0  0  0  0  0  0  0  0  0
    8.3298  -14.1998   20.0136 C   0  0  1  0  0  0  0  0  0  0  0  0
    7.3291  -13.2859   19.3199 C   0  0  0  0  0  0  0  0  0  0  0  0
    8.0779  -12.5289   17.8552 S   0  0  0  0  0  0  0  0  0  0  0  0
    7.7816  -14.7281   21.2836 C   0  0  0  0  0  0  0  0  0  0  0  0
    7.1941  -13.9418   22.0679 O   0  0  0  0  0  0  0  0  0  0  0  0
    7.9486  -16.1082   21.5544 N   0  0  0  0  0  0  0  0  0  0  0  0
    7.3797  -16.6630   22.7529 C   0  0  1  0  0  0  0  0  0  0  0  0
    7.4982  -18.1684   22.8049 C   0  0  0  0  0  0  0  0  0  0  0  0
    6.8346  -18.7728   24.0067 C   0  0  0  0  0  0  0  0  0  0  0  0
    7.0429  -20.2790   23.9136 C   0  0  0  0  0  0  0  0  0  0  0  0
    6.3173  -20.9646   25.0507 C   0  0  0  0  0  0  0  0  0  0  0  0
    6.3937  -22.3996   24.8585 N   0  0  0  0  0  0  0  0  0  0  0  0
    8.1327  -16.1441   23.9208 C   0  0  0  0  0  0  0  0  0  0  0  0
    9.3825  -16.2706   23.9225 O   0  0  0  0  0  0  0  0  0  0  0  0
    8.1713  -11.8128   25.2670 C   0  0  0  0  0  0  0  0  0  0  0  0
    7.0409  -12.6703   25.8564 C   0  0  2  0  0  0  0  0  0  0  0  0
    6.2239  -11.7063   26.7206 C   0  0  0  0  0  0  0  0  0  0  0  0
    7.6312  -13.7241   26.7274 C   0  0  0  0  0  0  0  0  0  0  0  0
    8.2372  -14.8927   26.0434 C   0  0  2  0  0  0  0  0  0  0  0  0
    7.4889  -15.5186   25.0193 N   0  0  0  0  0  0  0  0  0  0  0  0
    8.5183  -15.9132   27.1261 C   0  0  0  0  0  0  0  0  0  0  0  0
    9.2483  -15.6483   28.0946 O   0  0  0  0  0  0  0  0  0  0  0  0
    7.9361  -17.1662   27.0121 O   0  0  0  0  0  0  0  0  0  0  0  0
  2  1  1  6
  3  2  1  0
  4  3  1  0
  5  6  2  0
  5  2  1  0
  7  5  1  0
  8  7  1  0
  9 10  1  0
  8  9  1  6
 10 11  1  0
 11 12  1  0
 12 13  1  0
 14 15  2  0
 14  8  1  0
 17 18  1  1
 17 16  1  0
 19 17  1  0
 20 19  1  1
 20 21  1  0
 21 14  1  0
 22 20  1  0
 23 22  2  0
 24 22  1  0
M  END
$$$$
