CKL.pdb
     RDKit          3D

 24 23  0  0  1  0  0  0  0  0999 V2000
    7.1018  -14.2285   18.8466 N   0  0  0  0  0  0  0  0  0  0  0  0
    8.3915  -14.4102   19.4753 C   0  0  1  0  0  0  0  0  0  0  0  0
    9.1129  -13.0789   19.6341 C   0  0  0  0  0  0  0  0  0  0  0  0
    8.1104  -11.9325   20.6139 S   0  0  0  0  0  0  0  0  0  0  0  0
    8.1840  -15.0665   20.7863 C   0  0  0  0  0  0  0  0  0  0  0  0
    7.0712  -14.9489   21.3576 O   0  0  0  0  0  0  0  0  0  0  0  0
    9.2617  -15.8019   21.3372 N   0  0  0  0  0  0  0  0  0  0  0  0
    9.0424  -16.5909   22.5193 C   0  0  1  0  0  0  0  0  0  0  0  0
    9.9472  -17.7993   22.5828 C   0  0  0  0  0  0  0  0  0  0  0  0
    9.6588  -18.6934   23.7522 C   0  0  0  0  0  0  0  0  0  0  0  0
   10.7082  -19.7976   23.7314 C   0  0  0  0  0  0  0  0  0  0  0  0
   10.4603  -20.7571   24.8748 C   0  0  0  0  0  0  0  0  0  0  0  0
    9.1679  -21.3867   24.6870 N   0  0  0  0  0  0  0  0  0  0  0  0
    9.3644  -15.7650   23.7085 C   0  0  0  0  0  0  0  0  0  0  0  0
   10.4542  -15.1399   23.7172 O   0  0  0  0  0  0  0  0  0  0  0  0
    7.7388  -11.8850   25.3398 C   0  0  0  0  0  0  0  0  0  0  0  0
    6.9337  -13.1652   25.6112 C   0  0  2  0  0  0  0  0  0  0  0  0
    5.6654  -12.6899   26.3248 C   0  0  0  0  0  0  0  0  0  0  0  0
    7.7092  -14.0436   26.5303 C   0  0  0  0  0  0  0  0  0  0  0  0
    8.8045  -14.8405   25.9253 C   0  0  2  0  0  0  0  0  0  0  0  0
    8.4882  -15.6637   24.8195 N   0  0  0  0  0  0  0  0  0  0  0  0
    9.3500  -15.7143   27.0351 C   0  0  0  0  0  0  0  0  0  0  0  0
    9.7912  -15.2269   28.0881 O   0  0  0  0  0  0  0  0  0  0  0  0
    9.3466  -17.0880   26.8486 O   0  0  0  0  0  0  0  0  0  0  0  0
  2  1  1  1
  3  2  1  0
  4  3  1  0
  5  6  2  0
  5  2  1  0
  7  5  1  0
  8  7  1  0
  9 10  1  0
  8  9  1  6
 10 11  1  0
 11 12  1  0
 12 13  1  0
 14 15  2  0
 14  8  1  0
 17 18  1  1
 17 16  1  0
 19 17  1  0
 20 19  1  1
 20 21  1  0
 21 14  1  0
 22 20  1  0
 23 22  2  0
 24 22  1  0
M  END
$$$$
