CKL.pdb
     RDKit          3D

 24 23  0  0  1  0  0  0  0  0999 V2000
    9.5720  -15.3183   19.0830 N   0  0  0  0  0  0  0  0  0  0  0  0
    8.9077  -14.2046   19.7235 C   0  0  1  0  0  0  0  0  0  0  0  0
    7.8723  -13.5817   18.7973 C   0  0  0  0  0  0  0  0  0  0  0  0
    7.5294  -11.8744   19.2939 S   0  0  0  0  0  0  0  0  0  0  0  0
    8.2832  -14.6902   20.9752 C   0  0  0  0  0  0  0  0  0  0  0  0
    7.6088  -13.8898   21.6703 O   0  0  0  0  0  0  0  0  0  0  0  0
    8.4791  -16.0470   21.3307 N   0  0  0  0  0  0  0  0  0  0  0  0
    7.8049  -16.5751   22.4858 C   0  0  1  0  0  0  0  0  0  0  0  0
    7.9245  -18.0779   22.5872 C   0  0  0  0  0  0  0  0  0  0  0  0
    7.1875  -18.6521   23.7607 C   0  0  0  0  0  0  0  0  0  0  0  0
    7.3047  -20.1674   23.6554 C   0  0  0  0  0  0  0  0  0  0  0  0
    6.5350  -20.8172   24.7845 C   0  0  0  0  0  0  0  0  0  0  0  0
    5.3685  -21.4809   24.2361 N   0  0  0  0  0  0  0  0  0  0  0  0
    8.4452  -16.0220   23.7041 C   0  0  0  0  0  0  0  0  0  0  0  0
    9.7001  -16.0142   23.7614 O   0  0  0  0  0  0  0  0  0  0  0  0
    7.7417  -11.8820   25.4195 C   0  0  0  0  0  0  0  0  0  0  0  0
    6.7846  -12.9491   25.9728 C   0  0  2  0  0  0  0  0  0  0  0  0
    5.8736  -12.1957   26.9455 C   0  0  0  0  0  0  0  0  0  0  0  0
    7.5697  -13.9643   26.7281 C   0  0  0  0  0  0  0  0  0  0  0  0
    8.3269  -14.9551   25.9246 C   0  0  2  0  0  0  0  0  0  0  0  0
    7.6897  -15.5094   24.7900 N   0  0  0  0  0  0  0  0  0  0  0  0
    8.6840  -16.0799   26.8734 C   0  0  0  0  0  0  0  0  0  0  0  0
    8.2885  -17.2409   26.6823 O   0  0  0  0  0  0  0  0  0  0  0  0
    9.4720  -15.7824   27.9745 O   0  0  0  0  0  0  0  0  0  0  0  0
  2  1  1  6
  3  2  1  0
  4  3  1  0
  5  6  2  0
  5  2  1  0
  7  5  1  0
  8  7  1  0
  9 10  1  0
  8  9  1  1
 10 11  1  0
 11 12  1  0
 12 13  1  0
 14 15  2  0
 14  8  1  0
 17 18  1  1
 17 16  1  0
 19 17  1  0
 20 19  1  1
 20 21  1  0
 21 14  1  0
 22 20  1  0
 23 22  2  0
 24 22  1  0
M  END
$$$$
