NCF.pdb
     RDKit          3D

 26 26  0  0  1  0  0  0  0  0999 V2000
    8.5005  -12.7890   16.7752 N   0  0  0  0  0  0  0  0  0  0  0  0
    7.9412  -14.0769   16.9856 C   0  0  0  0  0  0  0  0  0  0  0  0
    7.9476  -14.9285   16.0828 O   0  0  0  0  0  0  0  0  0  0  0  0
    7.3305  -14.4269   18.2918 C   0  0  0  0  0  0  0  0  0  0  0  0
    8.4305  -15.1011   19.1313 C   0  0  2  0  0  0  0  0  0  0  0  0
    8.6081  -16.4238   18.4984 N   0  0  0  0  0  0  0  0  0  0  0  0
    7.9148  -15.3206   20.5028 C   0  0  0  0  0  0  0  0  0  0  0  0
    7.6283  -14.3218   21.2391 O   0  0  0  0  0  0  0  0  0  0  0  0
    7.6964  -16.5851   21.1061 N   0  0  0  0  0  0  0  0  0  0  0  0
    7.2689  -16.7264   22.4818 C   0  0  1  0  0  0  0  0  0  0  0  0
    6.6973  -18.1273   22.6379 C   0  0  0  0  0  0  0  0  0  0  0  0
    5.8523  -18.3480   24.1993 S   0  0  0  0  0  0  0  0  0  0  0  0
    8.3520  -16.4713   23.4512 C   0  0  0  0  0  0  0  0  0  0  0  0
    9.4974  -16.9400   23.1626 O   0  0  0  0  0  0  0  0  0  0  0  0
    8.2394  -15.7677   24.6526 N   0  0  0  0  0  0  0  0  0  0  0  0
    9.3545  -15.4887   25.5380 C   0  0  1  0  0  0  0  0  0  0  0  0
    9.6402  -14.0185   25.6490 C   0  0  0  0  0  0  0  0  0  0  0  0
    8.4069  -13.3181   26.0601 C   0  0  0  0  0  0  0  0  0  0  0  0
    7.4011  -12.9231   25.2041 C   0  0  0  0  0  0  0  0  0  0  0  0
    6.2736  -12.2746   25.6136 C   0  0  0  0  0  0  0  0  0  0  0  0
    6.0876  -11.9794   26.9314 C   0  0  0  0  0  0  0  0  0  0  0  0
    7.0722  -12.3567   27.8298 C   0  0  0  0  0  0  0  0  0  0  0  0
    8.2020  -13.0112   27.3934 C   0  0  0  0  0  0  0  0  0  0  0  0
    9.1296  -16.1869   26.7999 C   0  0  0  0  0  0  0  0  0  0  0  0
   10.0233  -16.1208   27.7180 O   0  0  0  0  0  0  0  0  0  0  0  0
    8.0252  -16.9432   27.1481 O   0  0  0  0  0  0  0  0  0  0  0  0
  2  3  2  0
  2  1  1  0
  4  2  1  0
  5  4  1  0
  5  6  1  6
  7  5  1  0
  8  7  2  0
  9  7  1  0
 10  9  1  0
 10 11  1  6
 11 12  1  0
 13 15  1  0
 13 10  1  0
 14 13  2  0
 16 24  1  0
 16 15  1  0
 16 17  1  1
 17 18  1  0
 18 19  2  0
 18 23  1  0
 19 20  1  0
 20 21  2  0
 22 21  1  0
 23 22  2  0
 24 26  1  0
 25 24  2  0
M  END
$$$$
