NCF.pdb
     RDKit          3D

 26 26  0  0  1  0  0  0  0  0999 V2000
    7.6424  -12.8133   16.3554 N   0  0  0  0  0  0  0  0  0  0  0  0
    8.2165  -13.8141   17.1827 C   0  0  0  0  0  0  0  0  0  0  0  0
    9.0898  -14.5789   16.7434 O   0  0  0  0  0  0  0  0  0  0  0  0
    7.7762  -13.9687   18.5912 C   0  0  0  0  0  0  0  0  0  0  0  0
    8.5215  -15.1899   19.1593 C   0  0  2  0  0  0  0  0  0  0  0  0
    8.0201  -16.3242   18.3571 N   0  0  0  0  0  0  0  0  0  0  0  0
    8.0903  -15.4006   20.5610 C   0  0  0  0  0  0  0  0  0  0  0  0
    8.2987  -14.4939   21.4308 O   0  0  0  0  0  0  0  0  0  0  0  0
    7.4391  -16.5591   21.0552 N   0  0  0  0  0  0  0  0  0  0  0  0
    7.0386  -16.6946   22.4396 C   0  0  1  0  0  0  0  0  0  0  0  0
    6.3605  -18.0483   22.5855 C   0  0  0  0  0  0  0  0  0  0  0  0
    6.0201  -18.4589   24.2933 S   0  0  0  0  0  0  0  0  0  0  0  0
    8.1645  -16.5475   23.3825 C   0  0  0  0  0  0  0  0  0  0  0  0
    9.2131  -17.2184   23.1272 O   0  0  0  0  0  0  0  0  0  0  0  0
    8.1878  -15.7454   24.5257 N   0  0  0  0  0  0  0  0  0  0  0  0
    9.3382  -15.6099   25.3995 C   0  0  1  0  0  0  0  0  0  0  0  0
    9.7683  -14.1798   25.5578 C   0  0  0  0  0  0  0  0  0  0  0  0
    8.5833  -13.3505   25.8551 C   0  0  0  0  0  0  0  0  0  0  0  0
    7.6043  -13.0175   24.9434 C   0  0  0  0  0  0  0  0  0  0  0  0
    6.5214  -12.2465   25.2473 C   0  0  0  0  0  0  0  0  0  0  0  0
    6.3559  -11.7560   26.5085 C   0  0  0  0  0  0  0  0  0  0  0  0
    7.3147  -12.0642   27.4594 C   0  0  0  0  0  0  0  0  0  0  0  0
    8.3996  -12.8451   27.1298 C   0  0  0  0  0  0  0  0  0  0  0  0
    9.0650  -16.3297   26.6395 C   0  0  0  0  0  0  0  0  0  0  0  0
    9.9741  -16.3843   27.5431 O   0  0  0  0  0  0  0  0  0  0  0  0
    7.8976  -16.9886   26.9805 O   0  0  0  0  0  0  0  0  0  0  0  0
  2  3  2  0
  2  1  1  0
  4  2  1  0
  5  4  1  0
  5  6  1  6
  7  5  1  0
  8  7  2  0
  9  7  1  0
 10  9  1  0
 10 11  1  6
 11 12  1  0
 13 15  1  0
 13 10  1  0
 14 13  2  0
 16 24  1  0
 16 15  1  0
 16 17  1  1
 17 18  1  0
 18 19  2  0
 18 23  1  0
 19 20  1  0
 20 21  2  0
 22 21  1  0
 23 22  2  0
 24 26  1  0
 25 24  2  0
M  END
$$$$
