NCF.pdb
     RDKit          3D

 26 26  0  0  1  0  0  0  0  0999 V2000
    9.2354  -13.8632   17.3704 N   0  0  0  0  0  0  0  0  0  0  0  0
    7.9762  -13.3551   17.7851 C   0  0  0  0  0  0  0  0  0  0  0  0
    7.3267  -12.5903   17.0545 O   0  0  0  0  0  0  0  0  0  0  0  0
    7.4149  -13.7254   19.1078 C   0  0  0  0  0  0  0  0  0  0  0  0
    8.4948  -14.5458   19.8360 C   0  0  2  0  0  0  0  0  0  0  0  0
    8.7012  -15.7225   18.9674 N   0  0  0  0  0  0  0  0  0  0  0  0
    7.9404  -15.0248   21.1238 C   0  0  0  0  0  0  0  0  0  0  0  0
    7.5147  -14.1852   21.9815 O   0  0  0  0  0  0  0  0  0  0  0  0
    7.8291  -16.3828   21.5162 N   0  0  0  0  0  0  0  0  0  0  0  0
    7.2934  -16.7790   22.8013 C   0  0  1  0  0  0  0  0  0  0  0  0
    6.9928  -18.2683   22.7281 C   0  0  0  0  0  0  0  0  0  0  0  0
    6.3601  -18.9120   24.2727 S   0  0  0  0  0  0  0  0  0  0  0  0
    8.1966  -16.4625   23.9247 C   0  0  0  0  0  0  0  0  0  0  0  0
    9.4422  -16.5893   23.7078 O   0  0  0  0  0  0  0  0  0  0  0  0
    7.8151  -16.0397   25.2001 N   0  0  0  0  0  0  0  0  0  0  0  0
    8.7420  -15.8241   26.2954 C   0  0  1  0  0  0  0  0  0  0  0  0
    8.1534  -14.9682   27.3800 C   0  0  0  0  0  0  0  0  0  0  0  0
    7.6664  -13.7066   26.7870 C   0  0  0  0  0  0  0  0  0  0  0  0
    6.3969  -13.1954   26.9522 C   0  0  0  0  0  0  0  0  0  0  0  0
    5.9749  -12.0275   26.3888 C   0  0  0  0  0  0  0  0  0  0  0  0
    6.8195  -11.2914   25.6121 C   0  0  0  0  0  0  0  0  0  0  0  0
    8.1064  -11.7655   25.4172 C   0  0  0  0  0  0  0  0  0  0  0  0
    8.5105  -12.9472   25.9966 C   0  0  0  0  0  0  0  0  0  0  0  0
    9.2625  -17.1189   26.7231 C   0  0  0  0  0  0  0  0  0  0  0  0
   10.1576  -17.1596   27.6412 O   0  0  0  0  0  0  0  0  0  0  0  0
    8.8957  -18.3636   26.2442 O   0  0  0  0  0  0  0  0  0  0  0  0
  2  3  2  0
  2  1  1  0
  4  2  1  0
  5  4  1  0
  5  6  1  6
  7  5  1  0
  8  7  2  0
  9  7  1  0
 10  9  1  0
 10 11  1  6
 11 12  1  0
 13 15  1  0
 13 10  1  0
 14 13  2  0
 16 24  1  0
 16 15  1  0
 16 17  1  1
 17 18  1  0
 18 19  2  0
 18 23  1  0
 19 20  1  0
 20 21  2  0
 22 21  1  0
 23 22  2  0
 24 26  1  0
 25 24  2  0
M  END
$$$$
