NCF.pdb
     RDKit          3D

 26 26  0  0  1  0  0  0  0  0999 V2000
    7.1905  -13.7570   15.8229 N   0  0  0  0  0  0  0  0  0  0  0  0
    8.1404  -14.2647   16.7479 C   0  0  0  0  0  0  0  0  0  0  0  0
    9.2300  -14.7140   16.3590 O   0  0  0  0  0  0  0  0  0  0  0  0
    7.8435  -14.2734   18.2017 C   0  0  0  0  0  0  0  0  0  0  0  0
    8.3721  -15.6086   18.7561 C   0  0  2  0  0  0  0  0  0  0  0  0
    7.6659  -16.6343   17.9618 N   0  0  0  0  0  0  0  0  0  0  0  0
    7.9340  -15.7454   20.1649 C   0  0  0  0  0  0  0  0  0  0  0  0
    7.8360  -14.7108   20.9009 O   0  0  0  0  0  0  0  0  0  0  0  0
    7.5963  -16.9644   20.8058 N   0  0  0  0  0  0  0  0  0  0  0  0
    7.1156  -17.0178   22.1701 C   0  0  1  0  0  0  0  0  0  0  0  0
    6.4503  -18.3718   22.3641 C   0  0  0  0  0  0  0  0  0  0  0  0
    6.0924  -18.7146   24.0832 S   0  0  0  0  0  0  0  0  0  0  0  0
    8.1804  -16.7890   23.1660 C   0  0  0  0  0  0  0  0  0  0  0  0
    9.2483  -17.4629   23.0238 O   0  0  0  0  0  0  0  0  0  0  0  0
    8.1271  -15.9066   24.2474 N   0  0  0  0  0  0  0  0  0  0  0  0
    9.2390  -15.6529   25.1443 C   0  0  1  0  0  0  0  0  0  0  0  0
    9.6454  -14.2071   25.1536 C   0  0  0  0  0  0  0  0  0  0  0  0
    8.5205  -13.3939   25.6574 C   0  0  0  0  0  0  0  0  0  0  0  0
    8.3579  -12.9977   26.9677 C   0  0  0  0  0  0  0  0  0  0  0  0
    7.3056  -12.2482   27.4040 C   0  0  0  0  0  0  0  0  0  0  0  0
    6.3372  -11.8457   26.5329 C   0  0  0  0  0  0  0  0  0  0  0  0
    6.4577  -12.2201   25.2048 C   0  0  0  0  0  0  0  0  0  0  0  0
    7.5294  -12.9766   24.7870 C   0  0  0  0  0  0  0  0  0  0  0  0
    8.9238  -16.2302   26.4473 C   0  0  0  0  0  0  0  0  0  0  0  0
    7.7231  -16.6140   26.6862 O   0  0  0  0  0  0  0  0  0  0  0  0
    9.7943  -16.4267   27.5040 O   0  0  0  0  0  0  0  0  0  0  0  0
  2  3  2  0
  2  1  1  0
  4  2  1  0
  5  4  1  0
  5  6  1  6
  7  5  1  0
  8  7  2  0
  9  7  1  0
 10  9  1  0
 10 11  1  1
 11 12  1  0
 13 15  1  0
 13 10  1  0
 14 13  2  0
 16 24  1  0
 16 15  1  0
 16 17  1  1
 17 18  1  0
 18 19  2  0
 18 23  1  0
 19 20  1  0
 20 21  2  0
 22 21  1  0
 23 22  2  0
 24 26  1  0
 25 24  2  0
M  END
$$$$
