NCF.pdb
     RDKit          3D

 26 26  0  0  1  0  0  0  0  0999 V2000
    6.9469  -21.7864   19.8993 N   0  0  0  0  0  0  0  0  0  0  0  0
    6.5510  -20.4236   19.8559 C   0  0  0  0  0  0  0  0  0  0  0  0
    5.3548  -20.1119   19.7437 O   0  0  0  0  0  0  0  0  0  0  0  0
    7.5648  -19.3433   19.9373 C   0  0  0  0  0  0  0  0  0  0  0  0
    7.7151  -18.9849   21.4268 C   0  0  2  0  0  0  0  0  0  0  0  0
    6.3295  -18.7567   21.8848 N   0  0  0  0  0  0  0  0  0  0  0  0
    8.4456  -17.7006   21.5356 C   0  0  0  0  0  0  0  0  0  0  0  0
    9.6750  -17.6415   21.2081 O   0  0  0  0  0  0  0  0  0  0  0  0
    7.8915  -16.4755   21.9857 N   0  0  0  0  0  0  0  0  0  0  0  0
    8.6967  -15.2932   22.2075 C   0  0  1  0  0  0  0  0  0  0  0  0
    7.8027  -14.0849   21.9748 C   0  0  0  0  0  0  0  0  0  0  0  0
    6.4714  -13.9834   23.1657 S   0  0  0  0  0  0  0  0  0  0  0  0
    9.3157  -15.2602   23.5468 C   0  0  0  0  0  0  0  0  0  0  0  0
   10.2130  -14.3811   23.7386 O   0  0  0  0  0  0  0  0  0  0  0  0
    9.0121  -16.1007   24.6203 N   0  0  0  0  0  0  0  0  0  0  0  0
    9.6358  -16.0068   25.9270 C   0  0  1  0  0  0  0  0  0  0  0  0
    8.6332  -15.7809   27.0222 C   0  0  0  0  0  0  0  0  0  0  0  0
    8.0250  -14.4464   26.8504 C   0  0  0  0  0  0  0  0  0  0  0  0
    8.6397  -13.2528   27.1633 C   0  0  0  0  0  0  0  0  0  0  0  0
    8.0506  -12.0345   26.9959 C   0  0  0  0  0  0  0  0  0  0  0  0
    6.7859  -11.9426   26.4952 C   0  0  0  0  0  0  0  0  0  0  0  0
    6.1276  -13.1161   26.1663 C   0  0  0  0  0  0  0  0  0  0  0  0
    6.7426  -14.3350   26.3433 C   0  0  0  0  0  0  0  0  0  0  0  0
   10.5172  -17.1568   26.1030 C   0  0  0  0  0  0  0  0  0  0  0  0
   10.3900  -18.1664   25.3216 O   0  0  0  0  0  0  0  0  0  0  0  0
   11.5183  -17.3025   27.0461 O   0  0  0  0  0  0  0  0  0  0  0  0
  2  3  2  0
  2  1  1  0
  4  2  1  0
  5  4  1  0
  5  6  1  6
  7  5  1  0
  8  7  2  0
  9  7  1  0
 10  9  1  0
 10 11  1  1
 11 12  1  0
 13 15  1  0
 13 10  1  0
 14 13  2  0
 16 24  1  0
 16 15  1  0
 16 17  1  1
 17 18  1  0
 18 19  2  0
 18 23  1  0
 19 20  1  0
 20 21  2  0
 22 21  1  0
 23 22  2  0
 24 26  1  0
 25 24  2  0
M  END
$$$$
