NCF.pdb
     RDKit          3D

 26 26  0  0  1  0  0  0  0  0999 V2000
    9.1564  -12.9198   17.3671 N   0  0  0  0  0  0  0  0  0  0  0  0
    8.0054  -13.7283   17.1744 C   0  0  0  0  0  0  0  0  0  0  0  0
    7.4136  -13.7431   16.0835 O   0  0  0  0  0  0  0  0  0  0  0  0
    7.4831  -14.5684   18.2803 C   0  0  0  0  0  0  0  0  0  0  0  0
    8.3450  -14.2613   19.5181 C   0  0  2  0  0  0  0  0  0  0  0  0
    9.6372  -14.9162   19.2300 N   0  0  0  0  0  0  0  0  0  0  0  0
    7.7470  -14.9365   20.6936 C   0  0  0  0  0  0  0  0  0  0  0  0
    6.6186  -14.5499   21.1398 O   0  0  0  0  0  0  0  0  0  0  0  0
    8.3274  -16.0181   21.4034 N   0  0  0  0  0  0  0  0  0  0  0  0
    7.7369  -16.5637   22.6071 C   0  0  1  0  0  0  0  0  0  0  0  0
    7.6922  -18.0755   22.4457 C   0  0  0  0  0  0  0  0  0  0  0  0
    7.0312  -18.8956   23.8919 S   0  0  0  0  0  0  0  0  0  0  0  0
    8.4586  -16.1701   23.8328 C   0  0  0  0  0  0  0  0  0  0  0  0
    9.7085  -15.9709   23.7193 O   0  0  0  0  0  0  0  0  0  0  0  0
    7.9020  -15.9974   25.1022 N   0  0  0  0  0  0  0  0  0  0  0  0
    8.6667  -15.6423   26.2830 C   0  0  1  0  0  0  0  0  0  0  0  0
    7.8330  -14.9302   27.3092 C   0  0  0  0  0  0  0  0  0  0  0  0
    7.3275  -13.6700   26.7287 C   0  0  0  0  0  0  0  0  0  0  0  0
    8.0781  -12.5282   26.5465 C   0  0  0  0  0  0  0  0  0  0  0  0
    7.5820  -11.3771   26.0095 C   0  0  0  0  0  0  0  0  0  0  0  0
    6.2783  -11.3048   25.6172 C   0  0  0  0  0  0  0  0  0  0  0  0
    5.4844  -12.4280   25.7810 C   0  0  0  0  0  0  0  0  0  0  0  0
    6.0074  -13.5795   26.3250 C   0  0  0  0  0  0  0  0  0  0  0  0
    9.3706  -16.8313   26.7535 C   0  0  0  0  0  0  0  0  0  0  0  0
   10.1767  -16.7277   27.7462 O   0  0  0  0  0  0  0  0  0  0  0  0
    9.2734  -18.1133   26.2436 O   0  0  0  0  0  0  0  0  0  0  0  0
  2  3  2  0
  2  1  1  0
  4  2  1  0
  5  4  1  0
  5  6  1  6
  7  5  1  0
  8  7  2  0
  9  7  1  0
 10  9  1  0
 10 11  1  6
 11 12  1  0
 13 15  1  0
 13 10  1  0
 14 13  2  0
 16 24  1  0
 16 15  1  0
 16 17  1  1
 17 18  1  0
 18 19  2  0
 18 23  1  0
 19 20  1  0
 20 21  2  0
 22 21  1  0
 23 22  2  0
 24 26  1  0
 25 24  2  0
M  END
$$$$
