NCF.pdb
     RDKit          3D

 26 26  0  0  1  0  0  0  0  0999 V2000
    8.9554  -12.7698   16.7224 N   0  0  0  0  0  0  0  0  0  0  0  0
    8.3044  -14.0098   16.9559 C   0  0  0  0  0  0  0  0  0  0  0  0
    8.2802  -14.8902   16.0815 O   0  0  0  0  0  0  0  0  0  0  0  0
    7.6328  -14.2737   18.2524 C   0  0  0  0  0  0  0  0  0  0  0  0
    8.6326  -15.0593   19.1200 C   0  0  2  0  0  0  0  0  0  0  0  0
    8.6839  -16.3951   18.4919 N   0  0  0  0  0  0  0  0  0  0  0  0
    8.0613  -15.2187   20.4778 C   0  0  0  0  0  0  0  0  0  0  0  0
    7.9849  -14.2126   21.2548 O   0  0  0  0  0  0  0  0  0  0  0  0
    7.5677  -16.4303   21.0246 N   0  0  0  0  0  0  0  0  0  0  0  0
    7.1357  -16.5423   22.4016 C   0  0  1  0  0  0  0  0  0  0  0  0
    6.5225  -17.9235   22.5740 C   0  0  0  0  0  0  0  0  0  0  0  0
    7.7273  -19.2322   22.3827 S   0  0  0  0  0  0  0  0  0  0  0  0
    8.2256  -16.3081   23.3687 C   0  0  0  0  0  0  0  0  0  0  0  0
    9.3989  -16.6170   22.9910 O   0  0  0  0  0  0  0  0  0  0  0  0
    8.0919  -15.7825   24.6558 N   0  0  0  0  0  0  0  0  0  0  0  0
    9.2029  -15.5630   25.5630 C   0  0  1  0  0  0  0  0  0  0  0  0
    9.5007  -14.1038   25.7569 C   0  0  0  0  0  0  0  0  0  0  0  0
    8.2788  -13.4213   26.2277 C   0  0  0  0  0  0  0  0  0  0  0  0
    7.9461  -13.2222   27.5506 C   0  0  0  0  0  0  0  0  0  0  0  0
    6.8077  -12.5899   27.9551 C   0  0  0  0  0  0  0  0  0  0  0  0
    5.9204  -12.1121   27.0369 C   0  0  0  0  0  0  0  0  0  0  0  0
    6.2121  -12.2891   25.6944 C   0  0  0  0  0  0  0  0  0  0  0  0
    7.3681  -12.9300   25.3094 C   0  0  0  0  0  0  0  0  0  0  0  0
    8.9625  -16.3275   26.7828 C   0  0  0  0  0  0  0  0  0  0  0  0
    7.8454  -16.9425   26.9243 O   0  0  0  0  0  0  0  0  0  0  0  0
    9.8251  -16.4818   27.8529 O   0  0  0  0  0  0  0  0  0  0  0  0
  2  3  2  0
  2  1  1  0
  4  2  1  0
  5  4  1  0
  5  6  1  6
  7  5  1  0
  8  7  2  0
  9  7  1  0
 10  9  1  0
 10 11  1  6
 11 12  1  0
 13 15  1  0
 13 10  1  0
 14 13  2  0
 16 24  1  0
 16 15  1  0
 16 17  1  1
 17 18  1  0
 18 19  2  0
 18 23  1  0
 19 20  1  0
 20 21  2  0
 22 21  1  0
 23 22  2  0
 24 26  1  0
 25 24  2  0
M  END
$$$$
