NCF.pdb
     RDKit          3D

 26 26  0  0  1  0  0  0  0  0999 V2000
    8.4220  -12.2223   18.0069 N   0  0  0  0  0  0  0  0  0  0  0  0
    7.9119  -13.5423   18.1216 C   0  0  0  0  0  0  0  0  0  0  0  0
    8.0253  -14.3516   17.1874 O   0  0  0  0  0  0  0  0  0  0  0  0
    7.2252  -13.9776   19.3628 C   0  0  0  0  0  0  0  0  0  0  0  0
    8.3125  -14.5260   20.3044 C   0  0  2  0  0  0  0  0  0  0  0  0
    8.9355  -15.6230   19.5363 N   0  0  0  0  0  0  0  0  0  0  0  0
    7.6569  -15.1202   21.4928 C   0  0  0  0  0  0  0  0  0  0  0  0
    6.9254  -14.3948   22.2416 O   0  0  0  0  0  0  0  0  0  0  0  0
    7.7641  -16.4743   21.8994 N   0  0  0  0  0  0  0  0  0  0  0  0
    7.2498  -16.9483   23.1668 C   0  0  1  0  0  0  0  0  0  0  0  0
    7.0297  -18.4475   23.0352 C   0  0  0  0  0  0  0  0  0  0  0  0
    6.4422  -19.1856   24.5553 S   0  0  0  0  0  0  0  0  0  0  0  0
    8.1341  -16.6276   24.3040 C   0  0  0  0  0  0  0  0  0  0  0  0
    9.3848  -16.6980   24.0910 O   0  0  0  0  0  0  0  0  0  0  0  0
    7.7297  -16.2566   25.5884 N   0  0  0  0  0  0  0  0  0  0  0  0
    8.6441  -15.8909   26.6539 C   0  0  1  0  0  0  0  0  0  0  0  0
    8.0344  -14.9141   27.6181 C   0  0  0  0  0  0  0  0  0  0  0  0
    7.6532  -13.6894   26.8864 C   0  0  0  0  0  0  0  0  0  0  0  0
    8.5385  -12.8278   26.2748 C   0  0  0  0  0  0  0  0  0  0  0  0
    8.1561  -11.7016   25.6078 C   0  0  0  0  0  0  0  0  0  0  0  0
    6.8372  -11.3691   25.5150 C   0  0  0  0  0  0  0  0  0  0  0  0
    5.9098  -12.2053   26.1146 C   0  0  0  0  0  0  0  0  0  0  0  0
    6.3193  -13.3375   26.7822 C   0  0  0  0  0  0  0  0  0  0  0  0
    9.1791  -17.1136   27.2449 C   0  0  0  0  0  0  0  0  0  0  0  0
    8.6186  -18.2353   26.9736 O   0  0  0  0  0  0  0  0  0  0  0  0
   10.2632  -17.2219   28.0969 O   0  0  0  0  0  0  0  0  0  0  0  0
  2  3  2  0
  2  1  1  0
  4  2  1  0
  5  4  1  0
  5  6  1  6
  7  5  1  0
  8  7  2  0
  9  7  1  0
 10  9  1  0
 10 11  1  6
 11 12  1  0
 13 15  1  0
 13 10  1  0
 14 13  2  0
 16 24  1  0
 16 15  1  0
 16 17  1  1
 17 18  1  0
 18 19  2  0
 18 23  1  0
 19 20  1  0
 20 21  2  0
 22 21  1  0
 23 22  2  0
 24 26  1  0
 25 24  2  0
M  END
$$$$
