NCF.pdb
     RDKit          3D

 26 26  0  0  1  0  0  0  0  0999 V2000
    8.8278  -11.9483   18.9935 N   0  0  0  0  0  0  0  0  0  0  0  0
    8.1950  -13.1263   18.5164 C   0  0  0  0  0  0  0  0  0  0  0  0
    8.1777  -13.3929   17.3043 O   0  0  0  0  0  0  0  0  0  0  0  0
    7.5343  -14.0601   19.4614 C   0  0  0  0  0  0  0  0  0  0  0  0
    8.5508  -15.1739   19.7706 C   0  0  2  0  0  0  0  0  0  0  0  0
    8.2658  -16.2133   18.7606 N   0  0  0  0  0  0  0  0  0  0  0  0
    8.2434  -15.7416   21.1042 C   0  0  0  0  0  0  0  0  0  0  0  0
    7.0530  -16.0999   21.3809 O   0  0  0  0  0  0  0  0  0  0  0  0
    9.1807  -15.9369   22.1501 N   0  0  0  0  0  0  0  0  0  0  0  0
    8.8527  -16.6549   23.3635 C   0  0  1  0  0  0  0  0  0  0  0  0
    9.3548  -18.0810   23.1967 C   0  0  0  0  0  0  0  0  0  0  0  0
   11.0964  -18.1470   22.7928 S   0  0  0  0  0  0  0  0  0  0  0  0
    9.4084  -16.0225   24.5757 C   0  0  0  0  0  0  0  0  0  0  0  0
   10.4496  -15.3108   24.4211 O   0  0  0  0  0  0  0  0  0  0  0  0
    8.9022  -16.1318   25.8729 N   0  0  0  0  0  0  0  0  0  0  0  0
    9.5194  -15.5284   27.0391 C   0  0  1  0  0  0  0  0  0  0  0  0
    8.5136  -14.8726   27.9413 C   0  0  0  0  0  0  0  0  0  0  0  0
    7.8275  -13.7978   27.1967 C   0  0  0  0  0  0  0  0  0  0  0  0
    6.6225  -13.9366   26.5416 C   0  0  0  0  0  0  0  0  0  0  0  0
    6.0140  -12.9249   25.8592 C   0  0  0  0  0  0  0  0  0  0  0  0
    6.5917  -11.6918   25.7937 C   0  0  0  0  0  0  0  0  0  0  0  0
    7.8041  -11.5043   26.4370 C   0  0  0  0  0  0  0  0  0  0  0  0
    8.3995  -12.5404   27.1206 C   0  0  0  0  0  0  0  0  0  0  0  0
   10.3844  -16.5201   27.6705 C   0  0  0  0  0  0  0  0  0  0  0  0
   10.2874  -17.7493   27.3160 O   0  0  0  0  0  0  0  0  0  0  0  0
   11.3395  -16.2929   28.6448 O   0  0  0  0  0  0  0  0  0  0  0  0
  2  3  2  0
  2  1  1  0
  4  2  1  0
  5  4  1  0
  5  6  1  6
  7  5  1  0
  8  7  2  0
  9  7  1  0
 10  9  1  0
 10 11  1  6
 11 12  1  0
 13 15  1  0
 13 10  1  0
 14 13  2  0
 16 24  1  0
 16 15  1  0
 16 17  1  1
 17 18  1  0
 18 19  2  0
 18 23  1  0
 19 20  1  0
 20 21  2  0
 22 21  1  0
 23 22  2  0
 24 26  1  0
 25 24  2  0
M  END
$$$$
