QTR.pdb
     RDKit          3D

 28 27  0  0  1  0  0  0  0  0999 V2000
   16.7836  -13.7372  -14.7216 N   0  0  0  0  0  0  0  0  0  0  0  0
   15.4196  -13.4619  -14.3190 C   0  0  0  0  0  0  0  0  0  0  0  0
   14.8693  -14.4305  -13.7340 O   0  0  0  0  0  0  0  0  0  0  0  0
   14.7993  -12.1581  -14.5943 C   0  0  0  0  0  0  0  0  0  0  0  0
   15.6175  -11.1667  -15.3223 C   0  0  0  0  0  0  0  0  0  0  0  0
   15.0388   -9.8153  -15.5346 C   0  0  2  0  0  0  0  0  0  0  0  0
   13.9216   -9.7680  -16.4393 N   0  0  0  0  0  0  0  0  0  0  0  0
   16.0523   -8.8266  -16.0084 C   0  0  0  0  0  0  0  0  0  0  0  0
   15.9539   -8.3135  -17.1543 O   0  0  0  0  0  0  0  0  0  0  0  0
   16.1629   -6.3305  -16.9345 C   0  0  0  0  0  0  0  0  0  0  0  0
   17.1954   -6.1267  -15.8698 C   0  0  1  0  0  0  0  0  0  0  0  0
   16.5208   -5.7361  -14.7060 O   0  0  0  0  0  0  0  0  0  0  0  0
   18.0614   -7.3474  -15.6321 C   0  0  2  0  0  0  0  0  0  0  0  0
   17.1589   -8.4081  -15.2314 N   0  0  0  0  0  0  0  0  0  0  0  0
   19.1198   -7.1021  -14.6375 C   0  0  0  0  0  0  0  0  0  0  0  0
   18.8665   -6.9333  -13.4106 O   0  0  0  0  0  0  0  0  0  0  0  0
   26.1102  -11.1228  -16.5910 N   0  0  0  0  0  0  0  0  0  0  0  0
   24.8746  -11.7241  -16.2527 C   0  0  0  0  0  0  0  0  0  0  0  0
   24.7001  -12.9741  -16.4796 N   0  0  0  0  0  0  0  0  0  0  0  0
   23.7925  -11.0194  -15.6637 N   0  0  0  0  0  0  0  0  0  0  0  0
   23.9091   -9.6253  -15.4158 C   0  0  0  0  0  0  0  0  0  0  0  0
   22.6523   -8.9949  -14.8424 C   0  0  0  0  0  0  0  0  0  0  0  0
   22.8231   -7.5529  -14.5394 C   0  0  0  0  0  0  0  0  0  0  0  0
   21.5664   -6.9284  -13.9891 C   0  0  2  0  0  0  0  0  0  0  0  0
   20.4897   -7.0401  -14.9976 N   0  0  0  0  0  0  0  0  0  0  0  0
   21.7897   -5.4876  -13.7792 C   0  0  0  0  0  0  0  0  0  0  0  0
   22.3759   -4.9218  -12.6669 O   0  0  0  0  0  0  0  0  0  0  0  0
   21.4225   -4.6776  -14.6737 O   0  0  0  0  0  0  0  0  0  0  0  0
  2  3  2  0
  2  1  1  0
  4  2  1  0
  5  4  1  0
  6  5  1  0
  6  7  1  6
  8 14  1  0
  8  6  1  0
  9  8  2  0
 11 10  1  6
 12 11  1  0
 13 11  1  0
 13 14  1  1
 15 13  1  0
 16 15  2  0
 18 17  1  0
 18 19  2  0
 20 18  1  0
 21 20  1  0
 22 21  1  0
 23 22  1  0
 24 23  1  6
 24 25  1  0
 25 15  1  0
 26 24  1  0
 26 27  1  0
 28 26  2  0
M  END
$$$$
