QTR.pdb
     RDKit          3D

 28 27  0  0  1  0  0  0  0  0999 V2000
   29.8036  -16.4223  -21.5658 N   0  0  0  0  0  0  0  0  0  0  0  0
   28.6620  -17.1450  -22.0879 C   0  0  0  0  0  0  0  0  0  0  0  0
   28.9390  -17.8547  -23.0893 O   0  0  0  0  0  0  0  0  0  0  0  0
   27.3382  -17.0201  -21.4616 C   0  0  0  0  0  0  0  0  0  0  0  0
   27.2038  -17.5098  -20.0744 C   0  0  0  0  0  0  0  0  0  0  0  0
   26.1918  -18.5641  -19.8086 C   0  0  2  0  0  0  0  0  0  0  0  0
   25.4114  -18.9590  -20.9505 N   0  0  0  0  0  0  0  0  0  0  0  0
   25.2456  -18.1872  -18.7169 C   0  0  0  0  0  0  0  0  0  0  0  0
   25.6821  -17.7669  -17.6129 O   0  0  0  0  0  0  0  0  0  0  0  0
   21.1258  -17.6907  -19.5486 C   0  0  0  0  0  0  0  0  0  0  0  0
   21.8799  -16.9923  -18.4602 C   0  0  1  0  0  0  0  0  0  0  0  0
   20.9366  -16.5159  -17.5408 O   0  0  0  0  0  0  0  0  0  0  0  0
   22.9196  -17.8694  -17.7923 C   0  0  2  0  0  0  0  0  0  0  0  0
   23.8379  -18.2716  -18.8388 N   0  0  0  0  0  0  0  0  0  0  0  0
   22.3212  -19.0203  -17.0945 C   0  0  0  0  0  0  0  0  0  0  0  0
   21.9795  -20.0746  -17.7026 O   0  0  0  0  0  0  0  0  0  0  0  0
   25.5430  -22.1521  -11.9488 N   0  0  0  0  0  0  0  0  0  0  0  0
   24.7983  -21.2401  -11.1638 C   0  0  0  0  0  0  0  0  0  0  0  0
   25.3851  -20.5919  -10.2257 N   0  0  0  0  0  0  0  0  0  0  0  0
   23.4142  -20.9883  -11.3520 N   0  0  0  0  0  0  0  0  0  0  0  0
   22.5652  -22.0263  -11.8214 C   0  0  0  0  0  0  0  0  0  0  0  0
   21.7074  -21.6296  -13.0099 C   0  0  0  0  0  0  0  0  0  0  0  0
   22.3159  -20.5439  -13.8170 C   0  0  0  0  0  0  0  0  0  0  0  0
   21.4597  -20.1541  -14.9948 C   0  0  2  0  0  0  0  0  0  0  0  0
   22.0916  -19.0145  -15.6955 N   0  0  0  0  0  0  0  0  0  0  0  0
   20.1552  -19.6709  -14.5103 C   0  0  0  0  0  0  0  0  0  0  0  0
   19.0465  -20.4565  -14.2773 O   0  0  0  0  0  0  0  0  0  0  0  0
   20.0083  -18.4390  -14.2824 O   0  0  0  0  0  0  0  0  0  0  0  0
  2  3  2  0
  2  1  1  0
  4  2  1  0
  5  4  1  0
  6  5  1  0
  6  7  1  6
  8 14  1  0
  8  6  1  0
  9  8  2  0
 11 10  1  6
 12 11  1  0
 13 11  1  0
 13 14  1  6
 15 13  1  0
 16 15  2  0
 18 17  1  0
 18 19  2  0
 20 18  1  0
 21 20  1  0
 22 21  1  0
 23 22  1  0
 24 23  1  1
 24 25  1  0
 25 15  1  0
 26 24  1  0
 26 27  1  0
 28 26  2  0
M  END
$$$$
