QTR.pdb
     RDKit          3D

 28 27  0  0  1  0  0  0  0  0999 V2000
   29.7553  -16.7081  -20.0967 N   0  0  0  0  0  0  0  0  0  0  0  0
   30.3436  -18.0294  -20.1760 C   0  0  0  0  0  0  0  0  0  0  0  0
   31.5722  -18.0107  -20.4471 O   0  0  0  0  0  0  0  0  0  0  0  0
   29.5309  -19.2329  -19.9492 C   0  0  0  0  0  0  0  0  0  0  0  0
   28.1244  -19.0262  -19.5477 C   0  0  0  0  0  0  0  0  0  0  0  0
   27.7957  -19.1295  -18.1029 C   0  0  2  0  0  0  0  0  0  0  0  0
   28.0069  -20.4287  -17.5229 N   0  0  0  0  0  0  0  0  0  0  0  0
   26.3916  -18.7189  -17.8044 C   0  0  0  0  0  0  0  0  0  0  0  0
   25.9229  -17.6549  -18.2883 O   0  0  0  0  0  0  0  0  0  0  0  0
   23.8097  -18.3708  -19.1097 C   0  0  0  0  0  0  0  0  0  0  0  0
   23.3887  -19.3020  -18.0157 C   0  0  1  0  0  0  0  0  0  0  0  0
   23.5500  -20.6078  -18.4964 O   0  0  0  0  0  0  0  0  0  0  0  0
   24.1432  -19.0851  -16.7195 C   0  0  2  0  0  0  0  0  0  0  0  0
   25.5152  -19.4694  -16.9844 N   0  0  0  0  0  0  0  0  0  0  0  0
   23.5559  -19.8323  -15.5942 C   0  0  0  0  0  0  0  0  0  0  0  0
   23.9764  -20.9734  -15.2495 O   0  0  0  0  0  0  0  0  0  0  0  0
   23.3373  -21.6569   -8.3851 N   0  0  0  0  0  0  0  0  0  0  0  0
   21.9440  -21.4337   -8.2771 C   0  0  0  0  0  0  0  0  0  0  0  0
   21.3297  -21.7947   -7.2109 N   0  0  0  0  0  0  0  0  0  0  0  0
   21.1648  -20.8210   -9.2929 N   0  0  0  0  0  0  0  0  0  0  0  0
   21.8002  -20.2962  -10.4503 C   0  0  0  0  0  0  0  0  0  0  0  0
   20.8396  -19.6916  -11.4590 C   0  0  0  0  0  0  0  0  0  0  0  0
   21.5375  -19.0528  -12.6014 C   0  0  0  0  0  0  0  0  0  0  0  0
   21.9121  -20.0441  -13.6733 C   0  0  2  0  0  0  0  0  0  0  0  0
   22.4807  -19.3150  -14.8283 N   0  0  0  0  0  0  0  0  0  0  0  0
   20.6956  -20.7141  -14.1643 C   0  0  0  0  0  0  0  0  0  0  0  0
   20.1294  -21.8466  -13.6185 O   0  0  0  0  0  0  0  0  0  0  0  0
   20.1002  -20.2364  -15.1684 O   0  0  0  0  0  0  0  0  0  0  0  0
  2  3  2  0
  2  1  1  0
  4  2  1  0
  5  4  1  0
  6  5  1  0
  6  7  1  6
  8 14  1  0
  8  6  1  0
  9  8  2  0
 11 10  1  6
 12 11  1  0
 13 11  1  0
 13 14  1  6
 15 13  1  0
 16 15  2  0
 18 17  1  0
 18 19  2  0
 20 18  1  0
 21 20  1  0
 22 21  1  0
 23 22  1  0
 24 23  1  1
 24 25  1  0
 25 15  1  0
 26 24  1  0
 26 27  1  0
 28 26  2  0
M  END
$$$$
