QTR.pdb
     RDKit          3D

 28 27  0  0  1  0  0  0  0  0999 V2000
   25.7349  -23.2554  -14.2596 N   0  0  0  0  0  0  0  0  0  0  0  0
   24.6001  -23.0547  -13.3819 C   0  0  0  0  0  0  0  0  0  0  0  0
   23.5082  -23.4177  -13.8910 O   0  0  0  0  0  0  0  0  0  0  0  0
   24.7753  -22.4813  -12.0400 C   0  0  0  0  0  0  0  0  0  0  0  0
   26.1592  -22.2009  -11.6060 C   0  0  0  0  0  0  0  0  0  0  0  0
   26.5035  -20.7987  -11.2574 C   0  0  2  0  0  0  0  0  0  0  0  0
   25.8572  -20.2897  -10.0775 N   0  0  0  0  0  0  0  0  0  0  0  0
   26.2294  -19.8471  -12.3748 C   0  0  0  0  0  0  0  0  0  0  0  0
   26.9949  -18.8683  -12.5797 O   0  0  0  0  0  0  0  0  0  0  0  0
   27.4395  -18.8441  -14.5147 C   0  0  0  0  0  0  0  0  0  0  0  0
   26.2071  -19.2765  -15.2463 C   0  0  1  0  0  0  0  0  0  0  0  0
   26.4119  -20.5989  -15.6603 O   0  0  0  0  0  0  0  0  0  0  0  0
   24.9413  -19.1366  -14.4247 C   0  0  2  0  0  0  0  0  0  0  0  0
   25.1277  -19.9713  -13.2548 N   0  0  0  0  0  0  0  0  0  0  0  0
   23.7329  -19.4956  -15.1866 C   0  0  0  0  0  0  0  0  0  0  0  0
   23.4102  -20.6967  -15.4128 O   0  0  0  0  0  0  0  0  0  0  0  0
   19.2526  -13.0038  -16.3052 N   0  0  0  0  0  0  0  0  0  0  0  0
   20.5702  -13.0147  -16.8214 C   0  0  0  0  0  0  0  0  0  0  0  0
   21.2604  -11.9340  -16.8077 N   0  0  0  0  0  0  0  0  0  0  0  0
   21.1927  -14.1693  -17.3634 N   0  0  0  0  0  0  0  0  0  0  0  0
   20.4479  -15.3704  -17.5091 C   0  0  0  0  0  0  0  0  0  0  0  0
   20.8908  -16.4859  -16.5789 C   0  0  0  0  0  0  0  0  0  0  0  0
   21.1769  -17.7509  -17.2988 C   0  0  0  0  0  0  0  0  0  0  0  0
   21.5770  -18.8654  -16.3661 C   0  0  2  0  0  0  0  0  0  0  0  0
   22.8571  -18.5130  -15.7133 N   0  0  0  0  0  0  0  0  0  0  0  0
   21.8330  -20.0872  -17.1481 C   0  0  0  0  0  0  0  0  0  0  0  0
   21.0023  -21.1856  -17.2124 O   0  0  0  0  0  0  0  0  0  0  0  0
   22.8946  -20.1660  -17.8247 O   0  0  0  0  0  0  0  0  0  0  0  0
  2  3  2  0
  2  1  1  0
  4  2  1  0
  5  4  1  0
  6  5  1  0
  6  7  1  1
  8 14  1  0
  8  6  1  0
  9  8  2  0
 11 10  1  1
 12 11  1  0
 13 11  1  0
 13 14  1  1
 15 13  1  0
 16 15  2  0
 18 17  1  0
 18 19  2  0
 20 18  1  0
 21 20  1  0
 22 21  1  0
 23 22  1  0
 24 23  1  6
 24 25  1  0
 25 15  1  0
 26 24  1  0
 26 27  1  0
 28 26  2  0
M  END
$$$$
