QTR.pdb
     RDKit          3D

 28 27  0  0  1  0  0  0  0  0999 V2000
   25.9186  -14.8423  -17.1655 N   0  0  0  0  0  0  0  0  0  0  0  0
   26.1778  -15.0950  -18.5680 C   0  0  0  0  0  0  0  0  0  0  0  0
   26.6719  -14.1055  -19.1680 O   0  0  0  0  0  0  0  0  0  0  0  0
   25.8733  -16.4013  -19.1690 C   0  0  0  0  0  0  0  0  0  0  0  0
   25.2791  -17.4243  -18.2843 C   0  0  0  0  0  0  0  0  0  0  0  0
   26.2047  -18.3159  -17.5396 C   0  0  2  0  0  0  0  0  0  0  0  0
   27.3744  -18.7242  -18.2702 N   0  0  0  0  0  0  0  0  0  0  0  0
   25.5295  -19.5475  -17.0332 C   0  0  0  0  0  0  0  0  0  0  0  0
   25.5942  -20.6229  -17.6855 O   0  0  0  0  0  0  0  0  0  0  0  0
   26.3613  -21.4651  -14.3827 C   0  0  0  0  0  0  0  0  0  0  0  0
   24.9083  -21.2273  -14.1118 C   0  0  1  0  0  0  0  0  0  0  0  0
   24.8269  -20.2805  -13.0828 O   0  0  0  0  0  0  0  0  0  0  0  0
   24.1330  -20.7896  -15.3382 C   0  0  2  0  0  0  0  0  0  0  0  0
   24.7931  -19.5950  -15.8253 N   0  0  0  0  0  0  0  0  0  0  0  0
   22.7052  -20.5678  -15.0522 C   0  0  0  0  0  0  0  0  0  0  0  0
   22.1977  -19.4108  -15.0089 O   0  0  0  0  0  0  0  0  0  0  0  0
   19.6112  -26.8063  -11.5747 N   0  0  0  0  0  0  0  0  0  0  0  0
   18.4943  -26.0309  -11.1822 C   0  0  0  0  0  0  0  0  0  0  0  0
   17.9015  -26.2960  -10.0764 N   0  0  0  0  0  0  0  0  0  0  0  0
   17.9769  -24.9537  -11.9480 N   0  0  0  0  0  0  0  0  0  0  0  0
   18.6138  -24.5804  -13.1619 C   0  0  0  0  0  0  0  0  0  0  0  0
   19.2013  -23.1803  -13.1434 C   0  0  0  0  0  0  0  0  0  0  0  0
   19.6650  -22.7371  -14.4809 C   0  0  0  0  0  0  0  0  0  0  0  0
   20.3991  -21.4217  -14.4282 C   0  0  2  0  0  0  0  0  0  0  0  0
   21.8121  -21.6415  -14.8077 N   0  0  0  0  0  0  0  0  0  0  0  0
   20.4147  -20.9275  -13.0406 C   0  0  0  0  0  0  0  0  0  0  0  0
   19.4149  -20.1911  -12.4416 O   0  0  0  0  0  0  0  0  0  0  0  0
   21.4145  -21.1815  -12.3148 O   0  0  0  0  0  0  0  0  0  0  0  0
  2  3  2  0
  2  1  1  0
  4  2  1  0
  5  4  1  0
  6  5  1  0
  6  7  1  6
  8 14  1  0
  8  6  1  0
  9  8  2  0
 11 10  1  6
 12 11  1  0
 13 11  1  0
 13 14  1  1
 15 13  1  0
 16 15  2  0
 18 17  1  0
 18 19  2  0
 20 18  1  0
 21 20  1  0
 22 21  1  0
 23 22  1  0
 24 23  1  1
 24 25  1  0
 25 15  1  0
 26 24  1  0
 26 27  1  0
 28 26  2  0
M  END
$$$$
