QTR.pdb
     RDKit          3D

 28 27  0  0  1  0  0  0  0  0999 V2000
   15.2496   -9.3321  -17.6001 N   0  0  0  0  0  0  0  0  0  0  0  0
   16.0261  -10.5067  -17.9405 C   0  0  0  0  0  0  0  0  0  0  0  0
   15.4227  -11.2938  -18.7147 O   0  0  0  0  0  0  0  0  0  0  0  0
   17.3805  -10.6987  -17.4027 C   0  0  0  0  0  0  0  0  0  0  0  0
   17.8367   -9.7390  -16.3765 C   0  0  0  0  0  0  0  0  0  0  0  0
   19.1604   -9.9781  -15.7465 C   0  0  2  0  0  0  0  0  0  0  0  0
   19.4168  -11.3425  -15.3702 N   0  0  0  0  0  0  0  0  0  0  0  0
   19.3847   -9.1227  -14.5434 C   0  0  0  0  0  0  0  0  0  0  0  0
   19.1511   -9.5720  -13.3904 O   0  0  0  0  0  0  0  0  0  0  0  0
   21.4904   -5.1241  -12.5630 C   0  0  0  0  0  0  0  0  0  0  0  0
   21.2222   -6.0943  -13.6710 C   0  0  1  0  0  0  0  0  0  0  0  0
   22.3621   -6.8973  -13.8053 O   0  0  0  0  0  0  0  0  0  0  0  0
   19.9743   -6.9257  -13.4518 C   0  0  2  0  0  0  0  0  0  0  0  0
   19.8598   -7.7910  -14.6087 N   0  0  0  0  0  0  0  0  0  0  0  0
   18.7741   -6.0966  -13.2471 C   0  0  0  0  0  0  0  0  0  0  0  0
   18.1487   -5.5660  -14.2090 O   0  0  0  0  0  0  0  0  0  0  0  0
   14.4434   -3.8244   -5.7151 N   0  0  0  0  0  0  0  0  0  0  0  0
   13.7170   -3.2400   -6.7798 C   0  0  0  0  0  0  0  0  0  0  0  0
   12.7042   -2.4982   -6.5181 N   0  0  0  0  0  0  0  0  0  0  0  0
   14.0442   -3.4232   -8.1487 N   0  0  0  0  0  0  0  0  0  0  0  0
   15.0621   -4.3446   -8.5142 C   0  0  0  0  0  0  0  0  0  0  0  0
   15.4286   -4.3044   -9.9872 C   0  0  0  0  0  0  0  0  0  0  0  0
   16.5747   -5.1870  -10.3154 C   0  0  0  0  0  0  0  0  0  0  0  0
   17.0244   -5.0371  -11.7463 C   0  0  2  0  0  0  0  0  0  0  0  0
   18.2472   -5.8433  -11.9555 N   0  0  0  0  0  0  0  0  0  0  0  0
   17.4046   -3.6356  -11.9935 C   0  0  0  0  0  0  0  0  0  0  0  0
   16.5982   -2.6766  -12.5686 O   0  0  0  0  0  0  0  0  0  0  0  0
   18.5598   -3.2508  -11.6640 O   0  0  0  0  0  0  0  0  0  0  0  0
  2  3  2  0
  2  1  1  0
  4  2  1  0
  5  4  1  0
  6  5  1  0
  6  7  1  1
  8 14  1  0
  8  6  1  0
  9  8  2  0
 11 10  1  1
 12 11  1  0
 13 11  1  0
 13 14  1  6
 15 13  1  0
 16 15  2  0
 18 17  1  0
 18 19  2  0
 20 18  1  0
 21 20  1  0
 22 21  1  0
 23 22  1  0
 24 23  1  1
 24 25  1  0
 25 15  1  0
 26 24  1  0
 26 27  1  0
 28 26  2  0
M  END
$$$$
