QTR.pdb
     RDKit          3D

 28 27  0  0  1  0  0  0  0  0999 V2000
   27.4443  -21.7463  -16.4520 N   0  0  0  0  0  0  0  0  0  0  0  0
   27.2885  -20.9445  -15.2557 C   0  0  0  0  0  0  0  0  0  0  0  0
   27.2221  -21.6307  -14.2031 O   0  0  0  0  0  0  0  0  0  0  0  0
   27.2237  -19.4781  -15.3323 C   0  0  0  0  0  0  0  0  0  0  0  0
   27.4121  -18.8673  -16.6642 C   0  0  0  0  0  0  0  0  0  0  0  0
   26.5900  -17.6770  -17.0011 C   0  0  2  0  0  0  0  0  0  0  0  0
   27.2334  -16.4105  -16.7755 N   0  0  0  0  0  0  0  0  0  0  0  0
   25.2834  -17.6606  -16.2788 C   0  0  0  0  0  0  0  0  0  0  0  0
   25.1805  -17.0875  -15.1621 O   0  0  0  0  0  0  0  0  0  0  0  0
   20.4581  -17.4717  -16.7217 C   0  0  0  0  0  0  0  0  0  0  0  0
   21.8802  -17.5609  -17.1807 C   0  0  1  0  0  0  0  0  0  0  0  0
   22.2753  -16.2723  -17.5622 O   0  0  0  0  0  0  0  0  0  0  0  0
   22.8115  -18.1467  -16.1386 C   0  0  2  0  0  0  0  0  0  0  0  0
   24.1060  -18.2666  -16.7789 N   0  0  0  0  0  0  0  0  0  0  0  0
   22.3247  -19.4310  -15.6066 C   0  0  0  0  0  0  0  0  0  0  0  0
   22.6100  -20.5371  -16.1481 O   0  0  0  0  0  0  0  0  0  0  0  0
   16.2193  -21.6346   -9.4945 N   0  0  0  0  0  0  0  0  0  0  0  0
   17.1361  -22.7126   -9.5082 C   0  0  0  0  0  0  0  0  0  0  0  0
   16.9355  -23.7190   -8.7392 N   0  0  0  0  0  0  0  0  0  0  0  0
   18.2874  -22.7550  -10.3370 N   0  0  0  0  0  0  0  0  0  0  0  0
   18.6934  -21.5901  -11.0419 C   0  0  0  0  0  0  0  0  0  0  0  0
   19.9202  -21.7942  -11.9131 C   0  0  0  0  0  0  0  0  0  0  0  0
   20.3732  -20.5412  -12.5651 C   0  0  0  0  0  0  0  0  0  0  0  0
   21.0470  -20.7935  -13.8897 C   0  0  2  0  0  0  0  0  0  0  0  0
   21.5046  -19.5040  -14.4524 N   0  0  0  0  0  0  0  0  0  0  0  0
   20.0624  -21.3352  -14.8421 C   0  0  0  0  0  0  0  0  0  0  0  0
   19.9414  -22.6607  -15.2016 O   0  0  0  0  0  0  0  0  0  0  0  0
   19.2492  -20.5442  -15.3933 O   0  0  0  0  0  0  0  0  0  0  0  0
  2  3  2  0
  2  1  1  0
  4  2  1  0
  5  4  1  0
  6  5  1  0
  6  7  1  1
  8 14  1  0
  8  6  1  0
  9  8  2  0
 11 10  1  1
 12 11  1  0
 13 11  1  0
 13 14  1  6
 15 13  1  0
 16 15  2  0
 18 17  1  0
 18 19  2  0
 20 18  1  0
 21 20  1  0
 22 21  1  0
 23 22  1  0
 24 23  1  1
 24 25  1  0
 25 15  1  0
 26 24  1  0
 26 27  1  0
 28 26  2  0
M  END
$$$$
