QTR.pdb
     RDKit          3D

 28 27  0  0  1  0  0  0  0  0999 V2000
   26.5108  -13.4637  -15.4604 N   0  0  0  0  0  0  0  0  0  0  0  0
   26.2867  -14.4458  -16.5013 C   0  0  0  0  0  0  0  0  0  0  0  0
   27.2761  -15.1985  -16.6955 O   0  0  0  0  0  0  0  0  0  0  0  0
   25.0060  -14.5058  -17.2201 C   0  0  0  0  0  0  0  0  0  0  0  0
   23.9881  -13.4969  -16.8618 C   0  0  0  0  0  0  0  0  0  0  0  0
   22.5865  -13.9587  -16.6934 C   0  0  2  0  0  0  0  0  0  0  0  0
   22.2316  -15.1180  -17.4673 N   0  0  0  0  0  0  0  0  0  0  0  0
   21.5908  -12.8873  -16.9931 C   0  0  0  0  0  0  0  0  0  0  0  0
   21.1035  -12.7763  -18.1490 O   0  0  0  0  0  0  0  0  0  0  0  0
   18.3048  -12.5287  -15.5746 C   0  0  0  0  0  0  0  0  0  0  0  0
   18.9940  -11.2216  -15.3351 C   0  0  1  0  0  0  0  0  0  0  0  0
   19.4432  -11.2256  -14.0083 O   0  0  0  0  0  0  0  0  0  0  0  0
   20.1241  -10.9519  -16.3080 C   0  0  2  0  0  0  0  0  0  0  0  0
   21.1375  -11.9508  -16.0334 N   0  0  0  0  0  0  0  0  0  0  0  0
   20.6435   -9.5777  -16.2009 C   0  0  0  0  0  0  0  0  0  0  0  0
   21.7210   -9.3090  -15.5969 O   0  0  0  0  0  0  0  0  0  0  0  0
   18.2854   -1.8585  -20.2696 N   0  0  0  0  0  0  0  0  0  0  0  0
   19.1694   -1.5484  -19.2089 C   0  0  0  0  0  0  0  0  0  0  0  0
   19.3829   -0.3208  -18.9061 N   0  0  0  0  0  0  0  0  0  0  0  0
   19.8487   -2.5288  -18.4395 N   0  0  0  0  0  0  0  0  0  0  0  0
   19.3534   -3.8597  -18.3954 C   0  0  0  0  0  0  0  0  0  0  0  0
   20.1095   -4.7665  -17.4406 C   0  0  0  0  0  0  0  0  0  0  0  0
   19.6317   -6.1700  -17.4859 C   0  0  0  0  0  0  0  0  0  0  0  0
   20.4338   -7.0796  -16.5907 C   0  0  2  0  0  0  0  0  0  0  0  0
   19.9643   -8.4711  -16.7702 N   0  0  0  0  0  0  0  0  0  0  0  0
   20.1727   -6.7323  -15.1832 C   0  0  0  0  0  0  0  0  0  0  0  0
   19.3418   -7.4249  -14.3284 O   0  0  0  0  0  0  0  0  0  0  0  0
   20.7410   -5.7200  -14.6901 O   0  0  0  0  0  0  0  0  0  0  0  0
  2  3  2  0
  2  1  1  0
  4  2  1  0
  5  4  1  0
  6  5  1  0
  6  7  1  6
  8 14  1  0
  8  6  1  0
  9  8  2  0
 11 10  1  6
 12 11  1  0
 13 11  1  0
 13 14  1  1
 15 13  1  0
 16 15  2  0
 18 17  1  0
 18 19  2  0
 20 18  1  0
 21 20  1  0
 22 21  1  0
 23 22  1  0
 24 23  1  6
 24 25  1  0
 25 15  1  0
 26 24  1  0
 26 27  1  0
 28 26  2  0
M  END
$$$$
