YAR.pdb
     RDKit          3D

 29 29  0  0  1  0  0  0  0  0999 V2000
    7.5916  -19.0299   10.6842 O   0  0  0  0  0  0  0  0  0  0  0  0
    7.9477  -18.6168   11.9641 C   0  0  0  0  0  0  0  0  0  0  0  0
    9.2563  -18.6278   12.3940 C   0  0  0  0  0  0  0  0  0  0  0  0
    9.6215  -18.2151   13.6756 C   0  0  0  0  0  0  0  0  0  0  0  0
    8.6595  -17.7776   14.5586 C   0  0  0  0  0  0  0  0  0  0  0  0
    9.0477  -17.3266   15.9381 C   0  0  0  0  0  0  0  0  0  0  0  0
    9.1392  -15.8216   15.8949 C   0  0  2  0  0  0  0  0  0  0  0  0
   10.1024  -15.3748   14.9381 N   0  0  0  0  0  0  0  0  0  0  0  0
    9.3299  -15.2087   17.2341 C   0  0  0  0  0  0  0  0  0  0  0  0
   10.4147  -15.3523   17.8559 O   0  0  0  0  0  0  0  0  0  0  0  0
    7.3492  -17.7641   14.1352 C   0  0  0  0  0  0  0  0  0  0  0  0
    6.9878  -18.1789   12.8494 C   0  0  0  0  0  0  0  0  0  0  0  0
    7.3697  -12.9582   19.4770 C   0  0  0  0  0  0  0  0  0  0  0  0
    8.5116  -13.9194   19.2245 C   0  0  2  0  0  0  0  0  0  0  0  0
    8.3268  -14.4400   17.8827 N   0  0  0  0  0  0  0  0  0  0  0  0
    8.5397  -15.0175   20.2205 C   0  0  0  0  0  0  0  0  0  0  0  0
    8.3340  -16.1969   19.8309 O   0  0  0  0  0  0  0  0  0  0  0  0
   15.8920  -15.2555   22.4982 N   0  0  0  0  0  0  0  0  0  0  0  0
   15.6646  -16.6324   22.7438 C   0  0  0  0  0  0  0  0  0  0  0  0
   16.5814  -17.3501   23.3244 N   0  0  0  0  0  0  0  0  0  0  0  0
   14.4345  -17.2330   22.3501 N   0  0  0  0  0  0  0  0  0  0  0  0
   13.4110  -16.4594   21.7184 C   0  0  0  0  0  0  0  0  0  0  0  0
   12.0912  -16.4011   22.4172 C   0  0  0  0  0  0  0  0  0  0  0  0
   11.0718  -15.6314   21.6458 C   0  0  0  0  0  0  0  0  0  0  0  0
    9.7208  -15.6503   22.3325 C   0  0  2  0  0  0  0  0  0  0  0  0
    8.7890  -14.7822   21.5911 N   0  0  0  0  0  0  0  0  0  0  0  0
    9.7450  -15.2591   23.7487 C   0  0  0  0  0  0  0  0  0  0  0  0
   10.1929  -16.1848   24.7223 O   0  0  0  0  0  0  0  0  0  0  0  0
    9.3790  -14.1262   24.1225 O   0  0  0  0  0  0  0  0  0  0  0  0
  2  3  2  0
  2  1  1  0
  4  3  1  0
  5  4  2  0
  6  5  1  0
  7  6  1  0
  7  8  1  6
  9 10  2  0
  9  7  1  0
 11  5  1  0
 11 12  2  0
 12  2  1  0
 14 13  1  1
 14 15  1  0
 15  9  1  0
 16 17  2  0
 16 14  1  0
 18 19  1  0
 19 20  2  0
 21 22  1  0
 21 19  1  0
 23 22  1  0
 25 24  1  6
 24 23  1  0
 25 26  1  0
 26 16  1  0
 27 25  1  0
 28 27  1  0
 29 27  2  0
M  END
$$$$
