YAR.pdb
     RDKit          3D

 29 29  0  0  1  0  0  0  0  0999 V2000
    5.8988  -11.9001   18.6094 O   0  0  0  0  0  0  0  0  0  0  0  0
    7.0707  -12.6211   18.8158 C   0  0  0  0  0  0  0  0  0  0  0  0
    7.9709  -12.8519   17.7992 C   0  0  0  0  0  0  0  0  0  0  0  0
    9.1481  -13.5738   17.9981 C   0  0  0  0  0  0  0  0  0  0  0  0
    9.4420  -14.0825   19.2436 C   0  0  0  0  0  0  0  0  0  0  0  0
   10.7110  -14.8557   19.4649 C   0  0  0  0  0  0  0  0  0  0  0  0
   11.4376  -14.8884   18.1435 C   0  0  2  0  0  0  0  0  0  0  0  0
   10.6943  -15.5914   17.1453 N   0  0  0  0  0  0  0  0  0  0  0  0
   12.8399  -15.3631   18.2589 C   0  0  0  0  0  0  0  0  0  0  0  0
   13.1113  -16.5887   18.1673 O   0  0  0  0  0  0  0  0  0  0  0  0
    8.5461  -13.8554   20.2644 C   0  0  0  0  0  0  0  0  0  0  0  0
    7.3671  -13.1312   20.0603 C   0  0  0  0  0  0  0  0  0  0  0  0
   16.2191  -13.8196   18.4261 C   0  0  0  0  0  0  0  0  0  0  0  0
   15.2860  -14.9863   18.6700 C   0  0  2  0  0  0  0  0  0  0  0  0
   13.9376  -14.4873   18.4737 N   0  0  0  0  0  0  0  0  0  0  0  0
   15.4502  -15.5497   20.0317 C   0  0  0  0  0  0  0  0  0  0  0  0
   14.8237  -15.0218   20.9876 O   0  0  0  0  0  0  0  0  0  0  0  0
   17.9472  -19.5313   17.5967 N   0  0  0  0  0  0  0  0  0  0  0  0
   17.3304  -20.8022   17.7076 C   0  0  0  0  0  0  0  0  0  0  0  0
   17.0247  -21.4730   16.6354 N   0  0  0  0  0  0  0  0  0  0  0  0
   17.0396  -21.3437   18.9925 N   0  0  0  0  0  0  0  0  0  0  0  0
   17.3253  -20.6022   20.1814 C   0  0  0  0  0  0  0  0  0  0  0  0
   16.6000  -19.3064   20.3504 C   0  0  0  0  0  0  0  0  0  0  0  0
   17.0006  -18.5876   21.5952 C   0  0  0  0  0  0  0  0  0  0  0  0
   16.3973  -17.1986   21.6565 C   0  0  2  0  0  0  0  0  0  0  0  0
   16.2871  -16.6583   20.2899 N   0  0  0  0  0  0  0  0  0  0  0  0
   17.1248  -16.2489   22.5096 C   0  0  0  0  0  0  0  0  0  0  0  0
   18.1044  -15.4021   21.9362 O   0  0  0  0  0  0  0  0  0  0  0  0
   16.9039  -16.1657   23.7349 O   0  0  0  0  0  0  0  0  0  0  0  0
  2  3  2  0
  2  1  1  0
  4  3  1  0
  5  4  2  0
  6  5  1  0
  7  6  1  0
  7  8  1  6
  9 10  2  0
  9  7  1  0
 11  5  1  0
 11 12  2  0
 12  2  1  0
 14 13  1  1
 14 15  1  0
 15  9  1  0
 16 17  2  0
 16 14  1  0
 18 19  1  0
 19 20  2  0
 21 22  1  0
 21 19  1  0
 23 22  1  0
 25 24  1  6
 24 23  1  0
 25 26  1  0
 26 16  1  0
 27 25  1  0
 28 27  1  0
 29 27  2  0
M  END
$$$$
