YAR.pdb
     RDKit          3D

 29 29  0  0  1  0  0  0  0  0999 V2000
    8.3300  -12.2355   23.3289 O   0  0  0  0  0  0  0  0  0  0  0  0
    8.1360  -12.6373   22.0111 C   0  0  0  0  0  0  0  0  0  0  0  0
    7.5739  -13.8551   21.6975 C   0  0  0  0  0  0  0  0  0  0  0  0
    7.3760  -14.2652   20.3788 C   0  0  0  0  0  0  0  0  0  0  0  0
    7.7467  -13.4424   19.3386 C   0  0  0  0  0  0  0  0  0  0  0  0
    7.5306  -13.8764   17.9166 C   0  0  0  0  0  0  0  0  0  0  0  0
    8.8627  -14.3622   17.4020 C   0  0  2  0  0  0  0  0  0  0  0  0
    8.7493  -14.9475   16.1030 N   0  0  0  0  0  0  0  0  0  0  0  0
    9.5794  -15.2345   18.3667 C   0  0  0  0  0  0  0  0  0  0  0  0
    9.2689  -16.4483   18.4863 O   0  0  0  0  0  0  0  0  0  0  0  0
    8.3093  -12.2235   19.6452 C   0  0  0  0  0  0  0  0  0  0  0  0
    8.5060  -11.8166   20.9688 C   0  0  0  0  0  0  0  0  0  0  0  0
   12.9025  -15.0581   19.8487 C   0  0  0  0  0  0  0  0  0  0  0  0
   11.5239  -15.6821   19.8874 C   0  0  2  0  0  0  0  0  0  0  0  0
   10.6351  -14.7679   19.1948 N   0  0  0  0  0  0  0  0  0  0  0  0
   11.0637  -15.9192   21.2768 C   0  0  0  0  0  0  0  0  0  0  0  0
   10.8331  -14.9282   22.0182 O   0  0  0  0  0  0  0  0  0  0  0  0
    5.3576  -21.7415   21.9338 N   0  0  0  0  0  0  0  0  0  0  0  0
    5.3995  -20.3729   22.2983 C   0  0  0  0  0  0  0  0  0  0  0  0
    4.6331  -19.5140   21.6919 N   0  0  0  0  0  0  0  0  0  0  0  0
    6.2848  -19.9355   23.3249 N   0  0  0  0  0  0  0  0  0  0  0  0
    7.6998  -19.9299   23.1183 C   0  0  0  0  0  0  0  0  0  0  0  0
    8.4615  -18.8076   23.7459 C   0  0  0  0  0  0  0  0  0  0  0  0
    9.9032  -18.8122   23.3607 C   0  0  0  0  0  0  0  0  0  0  0  0
   10.4397  -17.4051   23.1895 C   0  0  2  0  0  0  0  0  0  0  0  0
   10.8769  -17.2204   21.7944 N   0  0  0  0  0  0  0  0  0  0  0  0
   11.5322  -17.0476   24.1047 C   0  0  0  0  0  0  0  0  0  0  0  0
   12.8651  -17.3892   23.7697 O   0  0  0  0  0  0  0  0  0  0  0  0
   11.3191  -16.4473   25.1777 O   0  0  0  0  0  0  0  0  0  0  0  0
  2  3  2  0
  2  1  1  0
  4  3  1  0
  5  4  2  0
  6  5  1  0
  7  6  1  0
  7  8  1  6
  9 10  2  0
  9  7  1  0
 11  5  1  0
 11 12  2  0
 12  2  1  0
 14 13  1  1
 14 15  1  0
 15  9  1  0
 16 17  2  0
 16 14  1  0
 18 19  1  0
 19 20  2  0
 21 22  1  0
 21 19  1  0
 23 22  1  0
 25 24  1  6
 24 23  1  0
 25 26  1  0
 26 16  1  0
 27 25  1  0
 28 27  1  0
 29 27  2  0
M  END
$$$$
