YAR.pdb
     RDKit          3D

 29 29  0  0  1  0  0  0  0  0999 V2000
    6.9278  -12.7002   17.1787 O   0  0  0  0  0  0  0  0  0  0  0  0
    7.4611  -13.1009   18.3996 C   0  0  0  0  0  0  0  0  0  0  0  0
    8.8203  -13.1553   18.6166 C   0  0  0  0  0  0  0  0  0  0  0  0
    9.3628  -13.5560   19.8379 C   0  0  0  0  0  0  0  0  0  0  0  0
    8.5322  -13.9138   20.8764 C   0  0  0  0  0  0  0  0  0  0  0  0
    9.1109  -14.3405   22.1955 C   0  0  0  0  0  0  0  0  0  0  0  0
    9.9148  -15.5899   21.9350 C   0  0  2  0  0  0  0  0  0  0  0  0
    9.1001  -16.6510   21.4318 N   0  0  0  0  0  0  0  0  0  0  0  0
   10.7468  -16.0021   23.0940 C   0  0  0  0  0  0  0  0  0  0  0  0
   11.4954  -15.1722   23.6729 O   0  0  0  0  0  0  0  0  0  0  0  0
    7.1723  -13.8617   20.6660 C   0  0  0  0  0  0  0  0  0  0  0  0
    6.6328  -13.4595   19.4399 C   0  0  0  0  0  0  0  0  0  0  0  0
   11.0895  -18.9690   25.2956 C   0  0  0  0  0  0  0  0  0  0  0  0
   11.6834  -17.7387   24.6435 C   0  0  2  0  0  0  0  0  0  0  0  0
   10.7510  -17.3250   23.6115 N   0  0  0  0  0  0  0  0  0  0  0  0
   13.0236  -18.0100   24.0698 C   0  0  0  0  0  0  0  0  0  0  0  0
   13.3114  -19.1869   23.7276 O   0  0  0  0  0  0  0  0  0  0  0  0
   13.5956  -15.0789   16.9703 N   0  0  0  0  0  0  0  0  0  0  0  0
   14.2171  -14.7835   18.2090 C   0  0  0  0  0  0  0  0  0  0  0  0
   15.1957  -13.9275   18.2584 N   0  0  0  0  0  0  0  0  0  0  0  0
   13.7748  -15.4276   19.3999 N   0  0  0  0  0  0  0  0  0  0  0  0
   14.2993  -16.7021   19.7812 C   0  0  0  0  0  0  0  0  0  0  0  0
   14.1801  -17.0680   21.2254 C   0  0  0  0  0  0  0  0  0  0  0  0
   15.4665  -16.9015   21.9631 C   0  0  0  0  0  0  0  0  0  0  0  0
   15.3377  -17.3256   23.4124 C   0  0  2  0  0  0  0  0  0  0  0  0
   13.9866  -16.9910   23.8963 N   0  0  0  0  0  0  0  0  0  0  0  0
   16.3455  -16.7502   24.3138 C   0  0  0  0  0  0  0  0  0  0  0  0
   15.9335  -15.9192   25.3839 O   0  0  0  0  0  0  0  0  0  0  0  0
   17.5639  -16.9732   24.1631 O   0  0  0  0  0  0  0  0  0  0  0  0
  2  3  2  0
  2  1  1  0
  4  3  1  0
  5  4  2  0
  6  5  1  0
  7  6  1  0
  7  8  1  1
  9 10  2  0
  9  7  1  0
 11  5  1  0
 11 12  2  0
 12  2  1  0
 14 13  1  6
 14 15  1  0
 15  9  1  0
 16 17  2  0
 16 14  1  0
 18 19  1  0
 19 20  2  0
 21 22  1  0
 21 19  1  0
 23 22  1  0
 25 24  1  6
 24 23  1  0
 25 26  1  0
 26 16  1  0
 27 25  1  0
 28 27  1  0
 29 27  2  0
M  END
$$$$
