YAR.pdb
     RDKit          3D

 29 29  0  0  1  0  0  0  0  0999 V2000
    9.1191  -14.9360   17.5181 O   0  0  0  0  0  0  0  0  0  0  0  0
    8.7689  -14.4266   18.7644 C   0  0  0  0  0  0  0  0  0  0  0  0
    7.4547  -14.2246   19.1241 C   0  0  0  0  0  0  0  0  0  0  0  0
    7.0953  -13.7142   20.3719 C   0  0  0  0  0  0  0  0  0  0  0  0
    8.0690  -13.3944   21.2917 C   0  0  0  0  0  0  0  0  0  0  0  0
    7.6875  -12.8499   22.6389 C   0  0  0  0  0  0  0  0  0  0  0  0
    7.2501  -14.0257   23.4763 C   0  0  2  0  0  0  0  0  0  0  0  0
    6.6822  -13.6104   24.7204 N   0  0  0  0  0  0  0  0  0  0  0  0
    8.3098  -15.0529   23.6408 C   0  0  0  0  0  0  0  0  0  0  0  0
    9.4571  -14.7310   24.0461 O   0  0  0  0  0  0  0  0  0  0  0  0
    9.3849  -13.5939   20.9383 C   0  0  0  0  0  0  0  0  0  0  0  0
    9.7405  -14.1056   19.6863 C   0  0  0  0  0  0  0  0  0  0  0  0
    8.5046  -18.7274   23.8210 C   0  0  0  0  0  0  0  0  0  0  0  0
    9.1675  -17.4061   23.4953 C   0  0  2  0  0  0  0  0  0  0  0  0
    8.1026  -16.4299   23.3595 N   0  0  0  0  0  0  0  0  0  0  0  0
    9.9764  -17.4848   22.2550 C   0  0  0  0  0  0  0  0  0  0  0  0
    9.3862  -17.4793   21.1430 O   0  0  0  0  0  0  0  0  0  0  0  0
   16.2961  -13.1233   18.6476 N   0  0  0  0  0  0  0  0  0  0  0  0
   16.0728  -14.1443   17.6907 C   0  0  0  0  0  0  0  0  0  0  0  0
   16.6612  -14.0899   16.5315 N   0  0  0  0  0  0  0  0  0  0  0  0
   15.1997  -15.2278   17.9951 N   0  0  0  0  0  0  0  0  0  0  0  0
   14.4975  -15.2749   19.2399 C   0  0  0  0  0  0  0  0  0  0  0  0
   13.7905  -16.5522   19.5595 C   0  0  0  0  0  0  0  0  0  0  0  0
   12.9662  -16.4522   20.7994 C   0  0  0  0  0  0  0  0  0  0  0  0
   12.1431  -17.7046   21.0249 C   0  0  2  0  0  0  0  0  0  0  0  0
   11.3866  -17.5666   22.2820 N   0  0  0  0  0  0  0  0  0  0  0  0
   12.9163  -18.9539   21.0445 C   0  0  0  0  0  0  0  0  0  0  0  0
   13.4975  -19.3978   22.2572 O   0  0  0  0  0  0  0  0  0  0  0  0
   13.0781  -19.6413   20.0156 O   0  0  0  0  0  0  0  0  0  0  0  0
  2  3  2  0
  2  1  1  0
  4  3  1  0
  5  4  2  0
  6  5  1  0
  7  6  1  0
  7  8  1  1
  9 10  2  0
  9  7  1  0
 11  5  1  0
 11 12  2  0
 12  2  1  0
 14 13  1  6
 14 15  1  0
 15  9  1  0
 16 17  2  0
 16 14  1  0
 18 19  1  0
 19 20  2  0
 21 22  1  0
 21 19  1  0
 23 22  1  0
 25 24  1  1
 24 23  1  0
 25 26  1  0
 26 16  1  0
 27 25  1  0
 28 27  1  0
 29 27  2  0
M  END
$$$$
