YAR.pdb
     RDKit          3D

 29 29  0  0  1  0  0  0  0  0999 V2000
    3.8742  -20.8272   13.4347 O   0  0  0  0  0  0  0  0  0  0  0  0
    4.8471  -20.3290   14.2954 C   0  0  0  0  0  0  0  0  0  0  0  0
    4.5195  -19.6468   15.4463 C   0  0  0  0  0  0  0  0  0  0  0  0
    5.4891  -19.1444   16.3144 C   0  0  0  0  0  0  0  0  0  0  0  0
    6.8251  -19.3240   16.0331 C   0  0  0  0  0  0  0  0  0  0  0  0
    7.8736  -18.7901   16.9674 C   0  0  0  0  0  0  0  0  0  0  0  0
    7.8642  -17.2889   16.8209 C   0  0  2  0  0  0  0  0  0  0  0  0
    8.3423  -16.8769   15.5384 N   0  0  0  0  0  0  0  0  0  0  0  0
    8.5418  -16.5878   17.9410 C   0  0  0  0  0  0  0  0  0  0  0  0
    9.7974  -16.5115   17.9834 O   0  0  0  0  0  0  0  0  0  0  0  0
    7.1596  -20.0051   14.8840 C   0  0  0  0  0  0  0  0  0  0  0  0
    6.1841  -20.5070   14.0165 C   0  0  0  0  0  0  0  0  0  0  0  0
    7.4721  -14.6671   20.9625 C   0  0  0  0  0  0  0  0  0  0  0  0
    8.5244  -15.3784   20.1390 C   0  0  2  0  0  0  0  0  0  0  0  0
    7.8351  -15.9732   19.0091 N   0  0  0  0  0  0  0  0  0  0  0  0
    9.2386  -16.4108   20.9281 C   0  0  0  0  0  0  0  0  0  0  0  0
    8.7933  -17.5883   20.9329 O   0  0  0  0  0  0  0  0  0  0  0  0
   14.8478  -21.8540   23.6063 N   0  0  0  0  0  0  0  0  0  0  0  0
   15.5206  -20.9571   22.7397 C   0  0  0  0  0  0  0  0  0  0  0  0
   16.8195  -20.9743   22.6661 N   0  0  0  0  0  0  0  0  0  0  0  0
   14.7757  -20.0325   21.9530 N   0  0  0  0  0  0  0  0  0  0  0  0
   14.5084  -18.7119   22.4323 C   0  0  0  0  0  0  0  0  0  0  0  0
   13.1121  -18.4375   22.8891 C   0  0  0  0  0  0  0  0  0  0  0  0
   12.4210  -17.4286   22.0340 C   0  0  0  0  0  0  0  0  0  0  0  0
   11.0154  -17.1483   22.5266 C   0  0  2  0  0  0  0  0  0  0  0  0
   10.4011  -16.1148   21.6745 N   0  0  0  0  0  0  0  0  0  0  0  0
   10.9264  -16.7472   23.9374 C   0  0  0  0  0  0  0  0  0  0  0  0
   11.1288  -17.7131   24.9531 O   0  0  0  0  0  0  0  0  0  0  0  0
   10.6752  -15.5712   24.2703 O   0  0  0  0  0  0  0  0  0  0  0  0
  2  3  2  0
  2  1  1  0
  4  3  1  0
  5  4  2  0
  6  5  1  0
  7  6  1  0
  7  8  1  6
  9 10  2  0
  9  7  1  0
 11  5  1  0
 11 12  2  0
 12  2  1  0
 14 13  1  1
 14 15  1  0
 15  9  1  0
 16 17  2  0
 16 14  1  0
 18 19  1  0
 19 20  2  0
 21 22  1  0
 21 19  1  0
 23 22  1  0
 25 24  1  6
 24 23  1  0
 25 26  1  0
 26 16  1  0
 27 25  1  0
 28 27  1  0
 29 27  2  0
M  END
$$$$
