YAR.pdb
     RDKit          3D

 29 29  0  0  1  0  0  0  0  0999 V2000
    6.9723  -12.9963   17.0398 O   0  0  0  0  0  0  0  0  0  0  0  0
    7.1873  -13.4306   18.3440 C   0  0  0  0  0  0  0  0  0  0  0  0
    7.2182  -14.7688   18.6689 C   0  0  0  0  0  0  0  0  0  0  0  0
    7.4332  -15.2123   19.9741 C   0  0  0  0  0  0  0  0  0  0  0  0
    7.6238  -14.3008   20.9887 C   0  0  0  0  0  0  0  0  0  0  0  0
    7.8615  -14.7728   22.3950 C   0  0  0  0  0  0  0  0  0  0  0  0
    9.1840  -14.1933   22.8315 C   0  0  2  0  0  0  0  0  0  0  0  0
   10.2432  -14.5583   21.9440 N   0  0  0  0  0  0  0  0  0  0  0  0
    9.5030  -14.4716   24.2549 C   0  0  0  0  0  0  0  0  0  0  0  0
   10.3193  -15.3787   24.5632 O   0  0  0  0  0  0  0  0  0  0  0  0
    7.5940  -12.9613   20.6706 C   0  0  0  0  0  0  0  0  0  0  0  0
    7.3780  -12.5213   19.3607 C   0  0  0  0  0  0  0  0  0  0  0  0
    8.3008  -13.2608   27.5746 C   0  0  0  0  0  0  0  0  0  0  0  0
    9.2959  -14.0068   26.7115 C   0  0  2  0  0  0  0  0  0  0  0  0
    8.9235  -13.7502   25.3328 N   0  0  0  0  0  0  0  0  0  0  0  0
    9.2955  -15.4613   26.9994 C   0  0  0  0  0  0  0  0  0  0  0  0
    8.2877  -16.1442   26.6786 O   0  0  0  0  0  0  0  0  0  0  0  0
   13.7712  -20.5297   23.1637 N   0  0  0  0  0  0  0  0  0  0  0  0
   12.3892  -20.8099   23.0245 C   0  0  0  0  0  0  0  0  0  0  0  0
   11.9698  -21.5404   22.0329 N   0  0  0  0  0  0  0  0  0  0  0  0
   11.4576  -20.2872   23.9667 N   0  0  0  0  0  0  0  0  0  0  0  0
   11.8968  -19.4689   25.0541 C   0  0  0  0  0  0  0  0  0  0  0  0
   10.8745  -19.1310   26.0906 C   0  0  0  0  0  0  0  0  0  0  0  0
   11.4250  -18.2622   27.1717 C   0  0  0  0  0  0  0  0  0  0  0  0
   10.3238  -17.5445   27.9261 C   0  0  2  0  0  0  0  0  0  0  0  0
   10.3886  -16.1039   27.6224 N   0  0  0  0  0  0  0  0  0  0  0  0
   10.3419  -17.7472   29.3814 C   0  0  0  0  0  0  0  0  0  0  0  0
   10.4141  -16.6256   30.2429 O   0  0  0  0  0  0  0  0  0  0  0  0
   10.2956  -18.8879   29.8853 O   0  0  0  0  0  0  0  0  0  0  0  0
  2  3  2  0
  2  1  1  0
  4  3  1  0
  5  4  2  0
  6  5  1  0
  7  6  1  0
  7  8  1  6
  9 10  2  0
  9  7  1  0
 11  5  1  0
 11 12  2  0
 12  2  1  0
 14 13  1  1
 14 15  1  0
 15  9  1  0
 16 17  2  0
 16 14  1  0
 18 19  1  0
 19 20  2  0
 21 22  1  0
 21 19  1  0
 23 22  1  0
 25 24  1  6
 24 23  1  0
 25 26  1  0
 26 16  1  0
 27 25  1  0
 28 27  1  0
 29 27  2  0
M  END
$$$$
