YAR.pdb
     RDKit          3D

 29 29  0  0  1  0  0  0  0  0999 V2000
    7.3699  -15.7170   11.8196 O   0  0  0  0  0  0  0  0  0  0  0  0
    7.8569  -15.6318   13.1201 C   0  0  0  0  0  0  0  0  0  0  0  0
    7.0343  -15.7762   14.2154 C   0  0  0  0  0  0  0  0  0  0  0  0
    7.5150  -15.6923   15.5225 C   0  0  0  0  0  0  0  0  0  0  0  0
    8.8526  -15.4581   15.7508 C   0  0  0  0  0  0  0  0  0  0  0  0
    9.3767  -15.3725   17.1562 C   0  0  0  0  0  0  0  0  0  0  0  0
    8.7842  -14.1272   17.7672 C   0  0  2  0  0  0  0  0  0  0  0  0
    9.1668  -12.9503   17.0520 N   0  0  0  0  0  0  0  0  0  0  0  0
    9.0292  -14.0192   19.2279 C   0  0  0  0  0  0  0  0  0  0  0  0
   10.1824  -13.7729   19.6678 O   0  0  0  0  0  0  0  0  0  0  0  0
    9.6805  -15.3127   14.6600 C   0  0  0  0  0  0  0  0  0  0  0  0
    9.1943  -15.3975   13.3514 C   0  0  0  0  0  0  0  0  0  0  0  0
    6.9609  -13.8898   22.3145 C   0  0  0  0  0  0  0  0  0  0  0  0
    8.2844  -14.1320   21.6209 C   0  0  2  0  0  0  0  0  0  0  0  0
    8.0043  -14.1816   20.1981 N   0  0  0  0  0  0  0  0  0  0  0  0
    8.9267  -15.3874   22.0793 C   0  0  0  0  0  0  0  0  0  0  0  0
    8.5775  -16.4762   21.5527 O   0  0  0  0  0  0  0  0  0  0  0  0
   15.5972  -13.9413   20.5835 N   0  0  0  0  0  0  0  0  0  0  0  0
   14.7479  -14.4933   19.5926 C   0  0  0  0  0  0  0  0  0  0  0  0
   15.0265  -14.3303   18.3322 N   0  0  0  0  0  0  0  0  0  0  0  0
   13.5856  -15.2221   19.9756 N   0  0  0  0  0  0  0  0  0  0  0  0
   13.3636  -15.5813   21.3418 C   0  0  0  0  0  0  0  0  0  0  0  0
   12.1361  -16.3837   21.6301 C   0  0  0  0  0  0  0  0  0  0  0  0
   11.9834  -16.6891   23.0827 C   0  0  0  0  0  0  0  0  0  0  0  0
   10.5283  -16.6735   23.5064 C   0  0  2  0  0  0  0  0  0  0  0  0
    9.9161  -15.4001   23.0877 N   0  0  0  0  0  0  0  0  0  0  0  0
   10.3035  -16.8847   24.9430 C   0  0  0  0  0  0  0  0  0  0  0  0
   10.7849  -18.0650   25.5601 O   0  0  0  0  0  0  0  0  0  0  0  0
    9.6956  -16.0484   25.6417 O   0  0  0  0  0  0  0  0  0  0  0  0
  2  3  2  0
  2  1  1  0
  4  3  1  0
  5  4  2  0
  6  5  1  0
  7  6  1  0
  7  8  1  6
  9 10  2  0
  9  7  1  0
 11  5  1  0
 11 12  2  0
 12  2  1  0
 14 13  1  1
 14 15  1  0
 15  9  1  0
 16 17  2  0
 16 14  1  0
 18 19  1  0
 19 20  2  0
 21 22  1  0
 21 19  1  0
 23 22  1  0
 25 24  1  1
 24 23  1  0
 25 26  1  0
 26 16  1  0
 27 25  1  0
 28 27  1  0
 29 27  2  0
M  END
$$$$
