GIN.pdb
     RDKit          3D

 21 20  0  0  1  0  0  0  0  0999 V2000
    9.7163  -17.7485   16.0989 N   0  0  0  0  0  0  0  0  0  0  0  0
    9.5409  -17.8952   17.5327 C   0  0  0  0  0  0  0  0  0  0  0  0
   10.0381  -16.6827   18.2342 C   0  0  0  0  0  0  0  0  0  0  0  0
   11.2375  -16.3373   18.0811 O   0  0  0  0  0  0  0  0  0  0  0  0
    6.5882  -12.4746   19.3823 C   0  0  0  0  0  0  0  0  0  0  0  0
    7.8496  -13.1771   19.0129 C   0  0  0  0  0  0  0  0  0  0  0  0
    8.5231  -13.8394   20.1949 C   0  0  2  0  0  0  0  0  0  0  0  0
    9.0604  -12.7655   21.1159 C   0  0  0  0  0  0  0  0  0  0  0  0
    9.6369  -14.7520   19.7987 C   0  0  2  0  0  0  0  0  0  0  0  0
    9.1875  -15.9101   19.0707 N   0  0  0  0  0  0  0  0  0  0  0  0
   10.3490  -15.1669   21.0576 C   0  0  0  0  0  0  0  0  0  0  0  0
   10.9344  -14.3308   21.7585 O   0  0  0  0  0  0  0  0  0  0  0  0
   11.2712  -20.2885   24.2170 N   0  0  0  0  0  0  0  0  0  0  0  0
   10.8517  -18.9302   24.2387 C   0  0  0  0  0  0  0  0  0  0  0  0
   10.9596  -18.2973   25.3087 O   0  0  0  0  0  0  0  0  0  0  0  0
   10.3096  -18.2861   23.0483 C   0  0  0  0  0  0  0  0  0  0  0  0
   11.0112  -17.0125   22.6354 C   0  0  2  0  0  0  0  0  0  0  0  0
   10.3304  -16.5420   21.4177 N   0  0  0  0  0  0  0  0  0  0  0  0
   12.4058  -17.3554   22.2690 C   0  0  0  0  0  0  0  0  0  0  0  0
   12.8434  -17.3506   20.9545 O   0  0  0  0  0  0  0  0  0  0  0  0
   13.2401  -17.6635   23.1390 O   0  0  0  0  0  0  0  0  0  0  0  0
  1  2  1  0
  2  3  1  0
  3 10  1  0
  3  4  2  0
  6  7  1  0
  6  5  1  0
  7  8  1  1
  9 11  1  0
  9  7  1  0
  9 10  1  1
 11 12  2  0
 13 14  1  0
 14 15  2  0
 17 16  1  6
 16 14  1  0
 18 17  1  0
 18 11  1  0
 19 20  1  0
 19 17  1  0
 21 19  2  0
M  END
$$$$
