GIN.pdb
     RDKit          3D

 21 20  0  0  1  0  0  0  0  0999 V2000
    5.8820  -16.2138   20.6483 N   0  0  0  0  0  0  0  0  0  0  0  0
    5.5739  -16.1421   22.0653 C   0  0  0  0  0  0  0  0  0  0  0  0
    6.6899  -15.4882   22.7976 C   0  0  0  0  0  0  0  0  0  0  0  0
    7.7962  -15.3397   22.2186 O   0  0  0  0  0  0  0  0  0  0  0  0
    5.7489  -11.7661   26.7640 C   0  0  0  0  0  0  0  0  0  0  0  0
    6.3685  -12.5050   25.6277 C   0  0  0  0  0  0  0  0  0  0  0  0
    7.1904  -13.6936   26.0759 C   0  0  2  0  0  0  0  0  0  0  0  0
    8.4096  -13.1923   26.8193 C   0  0  0  0  0  0  0  0  0  0  0  0
    7.6264  -14.5646   24.9438 C   0  0  2  0  0  0  0  0  0  0  0  0
    6.5309  -15.0299   24.1336 N   0  0  0  0  0  0  0  0  0  0  0  0
    8.3749  -15.7291   25.5337 C   0  0  0  0  0  0  0  0  0  0  0  0
    7.8055  -16.5330   26.2835 O   0  0  0  0  0  0  0  0  0  0  0  0
   12.2718  -16.0840   22.5710 N   0  0  0  0  0  0  0  0  0  0  0  0
   11.6473  -17.0692   23.3839 C   0  0  0  0  0  0  0  0  0  0  0  0
   10.9664  -17.9512   22.8223 O   0  0  0  0  0  0  0  0  0  0  0  0
   11.7932  -17.0573   24.8346 C   0  0  0  0  0  0  0  0  0  0  0  0
   10.4945  -17.0841   25.6075 C   0  0  2  0  0  0  0  0  0  0  0  0
    9.7502  -15.8788   25.2062 N   0  0  0  0  0  0  0  0  0  0  0  0
   10.8160  -16.9570   27.0488 C   0  0  0  0  0  0  0  0  0  0  0  0
   10.8832  -15.7265   27.6818 O   0  0  0  0  0  0  0  0  0  0  0  0
   11.0399  -17.9623   27.7469 O   0  0  0  0  0  0  0  0  0  0  0  0
  1  2  1  0
  2  3  1  0
  3 10  1  0
  3  4  2  0
  6  7  1  0
  6  5  1  0
  7  8  1  6
  9 11  1  0
  9  7  1  0
  9 10  1  1
 11 12  2  0
 13 14  1  0
 14 15  2  0
 17 16  1  6
 16 14  1  0
 18 17  1  0
 18 11  1  0
 19 20  1  0
 19 17  1  0
 21 19  2  0
M  END
$$$$
