GIN.pdb
     RDKit          3D

 21 20  0  0  1  0  0  0  0  0999 V2000
    7.9813  -18.7448   16.5411 N   0  0  0  0  0  0  0  0  0  0  0  0
    7.6343  -18.4730   17.9244 C   0  0  0  0  0  0  0  0  0  0  0  0
    8.5052  -17.3975   18.4670 C   0  0  0  0  0  0  0  0  0  0  0  0
    9.6910  -17.3076   18.0586 O   0  0  0  0  0  0  0  0  0  0  0  0
    6.5208  -12.5124   20.1253 C   0  0  0  0  0  0  0  0  0  0  0  0
    7.3635  -13.6127   19.5773 C   0  0  0  0  0  0  0  0  0  0  0  0
    8.1388  -14.3499   20.6472 C   0  0  2  0  0  0  0  0  0  0  0  0
    9.1225  -13.3927   21.2850 C   0  0  0  0  0  0  0  0  0  0  0  0
    8.8761  -15.5380   20.1226 C   0  0  2  0  0  0  0  0  0  0  0  0
    8.0249  -16.4733   19.4342 N   0  0  0  0  0  0  0  0  0  0  0  0
    9.5491  -16.2033   21.2925 C   0  0  0  0  0  0  0  0  0  0  0  0
    9.0134  -17.1569   21.8724 O   0  0  0  0  0  0  0  0  0  0  0  0
   10.7780  -15.2439   25.5280 N   0  0  0  0  0  0  0  0  0  0  0  0
    9.9751  -16.0126   24.6415 C   0  0  0  0  0  0  0  0  0  0  0  0
    8.7391  -15.8442   24.6700 O   0  0  0  0  0  0  0  0  0  0  0  0
   10.5709  -16.9734   23.7207 C   0  0  0  0  0  0  0  0  0  0  0  0
   11.5845  -16.3941   22.7606 C   0  0  2  0  0  0  0  0  0  0  0  0
   10.8137  -15.7066   21.7113 N   0  0  0  0  0  0  0  0  0  0  0  0
   12.3089  -17.5197   22.1243 C   0  0  0  0  0  0  0  0  0  0  0  0
   12.2335  -17.7675   20.7633 O   0  0  0  0  0  0  0  0  0  0  0  0
   13.0168  -18.2894   22.7984 O   0  0  0  0  0  0  0  0  0  0  0  0
  1  2  1  0
  2  3  1  0
  3 10  1  0
  3  4  2  0
  6  7  1  0
  6  5  1  0
  7  8  1  6
  9 11  1  0
  9  7  1  0
  9 10  1  1
 11 12  2  0
 13 14  1  0
 14 15  2  0
 17 16  1  1
 16 14  1  0
 18 17  1  0
 18 11  1  0
 19 20  1  0
 19 17  1  0
 21 19  2  0
M  END
$$$$
