GIN.pdb
     RDKit          3D

 21 20  0  0  1  0  0  0  0  0999 V2000
    5.2422  -19.3363   23.4264 N   0  0  0  0  0  0  0  0  0  0  0  0
    5.5119  -18.5606   24.6236 C   0  0  0  0  0  0  0  0  0  0  0  0
    6.2770  -17.3346   24.2756 C   0  0  0  0  0  0  0  0  0  0  0  0
    6.9537  -17.3173   23.2160 O   0  0  0  0  0  0  0  0  0  0  0  0
    7.0809  -11.4138   26.1199 C   0  0  0  0  0  0  0  0  0  0  0  0
    7.5092  -12.6166   25.3511 C   0  0  0  0  0  0  0  0  0  0  0  0
    6.7120  -13.8541   25.7006 C   0  0  2  0  0  0  0  0  0  0  0  0
    6.8597  -14.1284   27.1816 C   0  0  0  0  0  0  0  0  0  0  0  0
    7.1365  -15.0612   24.9305 C   0  0  2  0  0  0  0  0  0  0  0  0
    6.2581  -16.1871   25.1141 N   0  0  0  0  0  0  0  0  0  0  0  0
    8.5333  -15.4078   25.3702 C   0  0  0  0  0  0  0  0  0  0  0  0
    8.8370  -15.4091   26.5704 O   0  0  0  0  0  0  0  0  0  0  0  0
    9.4160  -19.2013   25.6600 N   0  0  0  0  0  0  0  0  0  0  0  0
   10.4141  -18.2072   25.8524 C   0  0  0  0  0  0  0  0  0  0  0  0
   10.7534  -17.9314   27.0211 O   0  0  0  0  0  0  0  0  0  0  0  0
   11.0300  -17.5239   24.7213 C   0  0  0  0  0  0  0  0  0  0  0  0
   10.8895  -16.0190   24.7305 C   0  0  2  0  0  0  0  0  0  0  0  0
    9.4908  -15.7325   24.3708 N   0  0  0  0  0  0  0  0  0  0  0  0
   11.7527  -15.4713   23.6573 C   0  0  0  0  0  0  0  0  0  0  0  0
   11.2302  -14.9781   22.4727 O   0  0  0  0  0  0  0  0  0  0  0  0
   12.9898  -15.4360   23.7848 O   0  0  0  0  0  0  0  0  0  0  0  0
  1  2  1  0
  2  3  1  0
  3 10  1  0
  3  4  2  0
  6  7  1  0
  6  5  1  0
  7  8  1  1
  9 11  1  0
  9  7  1  0
  9 10  1  1
 11 12  2  0
 13 14  1  0
 14 15  2  0
 17 16  1  6
 16 14  1  0
 18 17  1  0
 18 11  1  0
 19 20  1  0
 19 17  1  0
 21 19  2  0
M  END
$$$$
