GIN.pdb
     RDKit          3D

 21 20  0  0  1  0  0  0  0  0999 V2000
    6.8794  -19.3538   26.1575 N   0  0  0  0  0  0  0  0  0  0  0  0
    7.4246  -18.0665   26.5491 C   0  0  0  0  0  0  0  0  0  0  0  0
    6.8465  -16.9891   25.7038 C   0  0  0  0  0  0  0  0  0  0  0  0
    6.0028  -17.2913   24.8218 O   0  0  0  0  0  0  0  0  0  0  0  0
    7.0828  -11.7344   27.5447 C   0  0  0  0  0  0  0  0  0  0  0  0
    6.4281  -12.8610   26.8214 C   0  0  0  0  0  0  0  0  0  0  0  0
    7.1216  -13.2098   25.5227 C   0  0  2  0  0  0  0  0  0  0  0  0
    6.7548  -12.1761   24.4800 C   0  0  0  0  0  0  0  0  0  0  0  0
    6.7669  -14.5691   25.0159 C   0  0  2  0  0  0  0  0  0  0  0  0
    7.2276  -15.6303   25.8730 N   0  0  0  0  0  0  0  0  0  0  0  0
    7.3639  -14.7075   23.6416 C   0  0  0  0  0  0  0  0  0  0  0  0
    6.6826  -14.4907   22.6309 O   0  0  0  0  0  0  0  0  0  0  0  0
    7.6959  -12.6477   20.5103 N   0  0  0  0  0  0  0  0  0  0  0  0
    8.3851  -13.8913   20.5120 C   0  0  0  0  0  0  0  0  0  0  0  0
    8.0493  -14.7522   19.6735 O   0  0  0  0  0  0  0  0  0  0  0  0
    9.4563  -14.1619   21.4634 C   0  0  0  0  0  0  0  0  0  0  0  0
    9.3136  -15.4534   22.2357 C   0  0  2  0  0  0  0  0  0  0  0  0
    8.7282  -15.0934   23.5378 N   0  0  0  0  0  0  0  0  0  0  0  0
   10.6721  -15.9912   22.4848 C   0  0  0  0  0  0  0  0  0  0  0  0
   11.1456  -16.2296   23.7648 O   0  0  0  0  0  0  0  0  0  0  0  0
   11.4424  -16.2491   21.5424 O   0  0  0  0  0  0  0  0  0  0  0  0
  1  2  1  0
  2  3  1  0
  3 10  1  0
  3  4  2  0
  6  7  1  0
  6  5  1  0
  7  8  1  6
  9 11  1  0
  9  7  1  0
  9 10  1  1
 11 12  2  0
 13 14  1  0
 14 15  2  0
 17 16  1  6
 16 14  1  0
 18 17  1  0
 18 11  1  0
 19 20  1  0
 19 17  1  0
 21 19  2  0
M  END
$$$$
