GIN.pdb
     RDKit          3D

 21 20  0  0  1  0  0  0  0  0999 V2000
    5.2106  -18.8219   23.7013 N   0  0  0  0  0  0  0  0  0  0  0  0
    5.3810  -18.0152   24.8962 C   0  0  0  0  0  0  0  0  0  0  0  0
    6.2940  -16.8760   24.6168 C   0  0  0  0  0  0  0  0  0  0  0  0
    7.0110  -16.9070   23.5843 O   0  0  0  0  0  0  0  0  0  0  0  0
    5.3636  -11.8988   26.9305 C   0  0  0  0  0  0  0  0  0  0  0  0
    5.7827  -12.9013   25.9105 C   0  0  0  0  0  0  0  0  0  0  0  0
    7.1143  -13.5450   26.2292 C   0  0  2  0  0  0  0  0  0  0  0  0
    8.2126  -12.5248   26.0209 C   0  0  0  0  0  0  0  0  0  0  0  0
    7.3966  -14.7510   25.3949 C   0  0  2  0  0  0  0  0  0  0  0  0
    6.3715  -15.7576   25.4906 N   0  0  0  0  0  0  0  0  0  0  0  0
    8.7218  -15.3072   25.8406 C   0  0  0  0  0  0  0  0  0  0  0  0
    8.8878  -15.6896   27.0063 O   0  0  0  0  0  0  0  0  0  0  0  0
   11.3347  -19.8620   24.3248 N   0  0  0  0  0  0  0  0  0  0  0  0
   11.3569  -18.7447   25.2037 C   0  0  0  0  0  0  0  0  0  0  0  0
   12.2563  -18.6919   26.0670 O   0  0  0  0  0  0  0  0  0  0  0  0
   10.3606  -17.6847   25.1060 C   0  0  0  0  0  0  0  0  0  0  0  0
   10.9203  -16.2806   25.0967 C   0  0  2  0  0  0  0  0  0  0  0  0
    9.7742  -15.3804   24.8876 N   0  0  0  0  0  0  0  0  0  0  0  0
   11.8155  -16.1518   23.9225 C   0  0  0  0  0  0  0  0  0  0  0  0
   11.3251  -15.9598   22.6411 O   0  0  0  0  0  0  0  0  0  0  0  0
   13.0518  -16.2131   24.0489 O   0  0  0  0  0  0  0  0  0  0  0  0
  1  2  1  0
  2  3  1  0
  3 10  1  0
  3  4  2  0
  6  7  1  0
  6  5  1  0
  7  8  1  6
  9 11  1  0
  9  7  1  0
  9 10  1  1
 11 12  2  0
 13 14  1  0
 14 15  2  0
 17 16  1  6
 16 14  1  0
 18 17  1  0
 18 11  1  0
 19 20  1  0
 19 17  1  0
 21 19  2  0
M  END
$$$$
