GIN.pdb
     RDKit          3D

 21 20  0  0  1  0  0  0  0  0999 V2000
    5.8612  -18.9613   23.4804 N   0  0  0  0  0  0  0  0  0  0  0  0
    5.9125  -18.1858   24.7066 C   0  0  0  0  0  0  0  0  0  0  0  0
    6.6698  -16.9265   24.4826 C   0  0  0  0  0  0  0  0  0  0  0  0
    7.2824  -16.7674   23.3961 O   0  0  0  0  0  0  0  0  0  0  0  0
    5.1344  -12.0912   26.7805 C   0  0  0  0  0  0  0  0  0  0  0  0
    5.6861  -13.0748   25.8062 C   0  0  0  0  0  0  0  0  0  0  0  0
    7.0520  -13.5923   26.2007 C   0  0  2  0  0  0  0  0  0  0  0  0
    8.0469  -12.4545   26.1223 C   0  0  0  0  0  0  0  0  0  0  0  0
    7.5224  -14.7190   25.3408 C   0  0  2  0  0  0  0  0  0  0  0  0
    6.7141  -15.9037   25.4686 N   0  0  0  0  0  0  0  0  0  0  0  0
    8.9481  -15.0124   25.7224 C   0  0  0  0  0  0  0  0  0  0  0  0
    9.8390  -14.1737   25.5341 O   0  0  0  0  0  0  0  0  0  0  0  0
   10.1038  -14.3308   29.6603 N   0  0  0  0  0  0  0  0  0  0  0  0
   10.7320  -14.8510   28.4957 C   0  0  0  0  0  0  0  0  0  0  0  0
   11.3143  -14.0525   27.7339 O   0  0  0  0  0  0  0  0  0  0  0  0
   10.7020  -16.2767   28.1921 C   0  0  0  0  0  0  0  0  0  0  0  0
   10.6118  -16.6150   26.7216 C   0  0  2  0  0  0  0  0  0  0  0  0
    9.2413  -16.2764   26.3033 N   0  0  0  0  0  0  0  0  0  0  0  0
   10.7787  -18.0805   26.5771 C   0  0  0  0  0  0  0  0  0  0  0  0
   11.9963  -18.7066   26.7889 O   0  0  0  0  0  0  0  0  0  0  0  0
    9.8206  -18.8065   26.2563 O   0  0  0  0  0  0  0  0  0  0  0  0
  1  2  1  0
  2  3  1  0
  3 10  1  0
  3  4  2  0
  6  7  1  0
  6  5  1  0
  7  8  1  6
  9 11  1  0
  9  7  1  0
  9 10  1  1
 11 12  2  0
 13 14  1  0
 14 15  2  0
 17 16  1  1
 16 14  1  0
 18 17  1  0
 18 11  1  0
 19 20  1  0
 19 17  1  0
 21 19  2  0
M  END
$$$$
