NYN.pdb
     RDKit          3D

 29 29  0  0  1  0  0  0  0  0999 V2000
   11.1280  -18.8577   18.2950 N   0  0  0  0  0  0  0  0  0  0  0  0
   11.9414  -18.7120   19.4323 C   0  0  0  0  0  0  0  0  0  0  0  0
   13.1050  -19.2202   19.3654 O   0  0  0  0  0  0  0  0  0  0  0  0
   11.5843  -18.0364   20.6801 C   0  0  0  0  0  0  0  0  0  0  0  0
   10.1782  -17.5211   20.7184 C   0  0  2  0  0  0  0  0  0  0  0  0
    9.7464  -17.0778   19.4260 N   0  0  0  0  0  0  0  0  0  0  0  0
    9.9345  -16.4874   21.7369 C   0  0  0  0  0  0  0  0  0  0  0  0
   10.8174  -15.6845   22.1243 O   0  0  0  0  0  0  0  0  0  0  0  0
    8.0894  -12.4983   17.5500 O   0  0  0  0  0  0  0  0  0  0  0  0
    7.9201  -12.9520   18.8741 C   0  0  0  0  0  0  0  0  0  0  0  0
    8.5955  -12.3639   19.9183 C   0  0  0  0  0  0  0  0  0  0  0  0
    8.4241  -12.8167   21.2252 C   0  0  0  0  0  0  0  0  0  0  0  0
    7.5795  -13.8625   21.5264 C   0  0  0  0  0  0  0  0  0  0  0  0
    7.4301  -14.3019   22.9047 C   0  0  0  0  0  0  0  0  0  0  0  0
    8.3539  -15.3752   23.3610 C   0  0  2  0  0  0  0  0  0  0  0  0
    8.6450  -16.3602   22.3379 N   0  0  0  0  0  0  0  0  0  0  0  0
    7.9889  -16.0118   24.6530 C   0  0  0  0  0  0  0  0  0  0  0  0
    6.7860  -16.1597   25.0174 O   0  0  0  0  0  0  0  0  0  0  0  0
    6.9105  -14.4403   20.4683 C   0  0  0  0  0  0  0  0  0  0  0  0
    7.0741  -13.9975   19.1662 C   0  0  0  0  0  0  0  0  0  0  0  0
    6.7449  -19.9326   27.5830 N   0  0  0  0  0  0  0  0  0  0  0  0
    7.9635  -19.9104   26.8616 C   0  0  0  0  0  0  0  0  0  0  0  0
    8.8018  -20.8118   27.0593 O   0  0  0  0  0  0  0  0  0  0  0  0
    8.2149  -18.8322   25.9002 C   0  0  0  0  0  0  0  0  0  0  0  0
    8.6078  -17.5085   26.5682 C   0  0  2  0  0  0  0  0  0  0  0  0
    8.9506  -16.5060   25.5790 N   0  0  0  0  0  0  0  0  0  0  0  0
    9.8184  -17.7940   27.3479 C   0  0  0  0  0  0  0  0  0  0  0  0
   11.0650  -17.6609   26.7743 O   0  0  0  0  0  0  0  0  0  0  0  0
    9.7365  -18.1578   28.5297 O   0  0  0  0  0  0  0  0  0  0  0  0
  2  1  1  0
  3  2  2  0
  4  5  1  0
  4  2  1  0
  5  6  1  6
  7  5  1  0
  7  8  2  0
  9 10  1  0
 10 11  2  0
 11 12  1  0
 13 12  2  0
 13 14  1  0
 15 14  1  6
 15 16  1  0
 16  7  1  0
 17 18  2  0
 17 15  1  0
 19 13  1  0
 20 10  1  0
 20 19  2  0
 22 23  2  0
 22 21  1  0
 24 22  1  0
 25 26  1  0
 25 24  1  6
 26 17  1  0
 27 25  1  0
 28 27  1  0
 29 27  2  0
M  END
$$$$
