NYN.pdb
     RDKit          3D

 29 29  0  0  1  0  0  0  0  0999 V2000
    8.8851  -18.4269   17.8950 N   0  0  0  0  0  0  0  0  0  0  0  0
    8.1353  -17.2631   18.1393 C   0  0  0  0  0  0  0  0  0  0  0  0
    7.2404  -16.9757   17.2831 O   0  0  0  0  0  0  0  0  0  0  0  0
    8.2812  -16.3533   19.2761 C   0  0  0  0  0  0  0  0  0  0  0  0
    9.3011  -16.7883   20.2833 C   0  0  2  0  0  0  0  0  0  0  0  0
    8.9698  -18.0624   20.8490 N   0  0  0  0  0  0  0  0  0  0  0  0
    9.5765  -15.8004   21.3387 C   0  0  0  0  0  0  0  0  0  0  0  0
    9.8636  -14.6028   21.0992 O   0  0  0  0  0  0  0  0  0  0  0  0
    5.6721  -11.0557   27.3249 O   0  0  0  0  0  0  0  0  0  0  0  0
    6.2014  -11.9252   26.3495 C   0  0  0  0  0  0  0  0  0  0  0  0
    5.8160  -13.2444   26.2896 C   0  0  0  0  0  0  0  0  0  0  0  0
    6.3427  -14.0994   25.3232 C   0  0  0  0  0  0  0  0  0  0  0  0
    7.2633  -13.6660   24.3944 C   0  0  0  0  0  0  0  0  0  0  0  0
    7.7862  -14.5924   23.4028 C   0  0  0  0  0  0  0  0  0  0  0  0
    9.0491  -15.2957   23.7552 C   0  0  2  0  0  0  0  0  0  0  0  0
    9.5254  -16.1843   22.7135 N   0  0  0  0  0  0  0  0  0  0  0  0
    9.0515  -15.9543   25.0872 C   0  0  0  0  0  0  0  0  0  0  0  0
    8.9674  -15.2976   26.1658 O   0  0  0  0  0  0  0  0  0  0  0  0
    7.6385  -12.3413   24.4686 C   0  0  0  0  0  0  0  0  0  0  0  0
    7.1208  -11.4839   25.4253 C   0  0  0  0  0  0  0  0  0  0  0  0
    6.9359  -19.9158   24.6256 N   0  0  0  0  0  0  0  0  0  0  0  0
    7.0647  -19.0989   25.7754 C   0  0  0  0  0  0  0  0  0  0  0  0
    6.1553  -18.2918   26.0509 O   0  0  0  0  0  0  0  0  0  0  0  0
    8.2602  -19.2176   26.6162 C   0  0  0  0  0  0  0  0  0  0  0  0
    9.1501  -17.9689   26.5781 C   0  0  2  0  0  0  0  0  0  0  0  0
    9.1449  -17.3641   25.2608 N   0  0  0  0  0  0  0  0  0  0  0  0
   10.5152  -18.4382   26.8451 C   0  0  0  0  0  0  0  0  0  0  0  0
   10.8336  -19.0010   28.0627 O   0  0  0  0  0  0  0  0  0  0  0  0
   11.3980  -18.3350   25.9815 O   0  0  0  0  0  0  0  0  0  0  0  0
  2  1  1  0
  3  2  2  0
  4  5  1  0
  4  2  1  0
  5  6  1  1
  7  5  1  0
  7  8  2  0
  9 10  1  0
 10 11  2  0
 11 12  1  0
 13 12  2  0
 13 14  1  0
 15 14  1  6
 15 16  1  0
 16  7  1  0
 17 18  2  0
 17 15  1  0
 19 13  1  0
 20 10  1  0
 20 19  2  0
 22 23  2  0
 22 21  1  0
 24 22  1  0
 25 26  1  0
 25 24  1  6
 26 17  1  0
 27 25  1  0
 28 27  1  0
 29 27  2  0
M  END
$$$$
