NYN.pdb
     RDKit          3D

 29 29  0  0  1  0  0  0  0  0999 V2000
   10.5765  -19.2899   17.8704 N   0  0  0  0  0  0  0  0  0  0  0  0
   10.7353  -17.8962   17.7770 C   0  0  0  0  0  0  0  0  0  0  0  0
   11.0125  -17.4336   16.6256 O   0  0  0  0  0  0  0  0  0  0  0  0
   10.6137  -16.9288   18.8681 C   0  0  0  0  0  0  0  0  0  0  0  0
   10.3312  -17.5434   20.2046 C   0  0  2  0  0  0  0  0  0  0  0  0
    9.1260  -18.3182   20.1818 N   0  0  0  0  0  0  0  0  0  0  0  0
   10.3215  -16.5896   21.3252 C   0  0  0  0  0  0  0  0  0  0  0  0
   11.3154  -15.8921   21.6410 O   0  0  0  0  0  0  0  0  0  0  0  0
    7.1134  -12.5980   17.6815 O   0  0  0  0  0  0  0  0  0  0  0  0
    7.3111  -13.0671   18.9963 C   0  0  0  0  0  0  0  0  0  0  0  0
    8.3357  -12.5833   19.7765 C   0  0  0  0  0  0  0  0  0  0  0  0
    8.5263  -13.0508   21.0755 C   0  0  0  0  0  0  0  0  0  0  0  0
    7.7057  -14.0082   21.6304 C   0  0  0  0  0  0  0  0  0  0  0  0
    7.9406  -14.4667   22.9904 C   0  0  0  0  0  0  0  0  0  0  0  0
    9.0502  -15.4398   23.1785 C   0  0  2  0  0  0  0  0  0  0  0  0
    9.1438  -16.4214   22.1158 N   0  0  0  0  0  0  0  0  0  0  0  0
    9.1112  -16.0721   24.5217 C   0  0  0  0  0  0  0  0  0  0  0  0
    8.9855  -15.4042   25.5893 O   0  0  0  0  0  0  0  0  0  0  0  0
    6.6841  -14.4821   20.8350 C   0  0  0  0  0  0  0  0  0  0  0  0
    6.4865  -14.0238   19.5429 C   0  0  0  0  0  0  0  0  0  0  0  0
    6.3564  -18.4223   26.4730 N   0  0  0  0  0  0  0  0  0  0  0  0
    7.2452  -19.2312   25.7237 C   0  0  0  0  0  0  0  0  0  0  0  0
    6.8199  -19.8242   24.7129 O   0  0  0  0  0  0  0  0  0  0  0  0
    8.6430  -19.3553   26.1494 C   0  0  0  0  0  0  0  0  0  0  0  0
    9.4233  -18.0388   26.0468 C   0  0  2  0  0  0  0  0  0  0  0  0
    9.3114  -17.4676   24.7193 N   0  0  0  0  0  0  0  0  0  0  0  0
   10.8330  -18.3877   26.2619 C   0  0  0  0  0  0  0  0  0  0  0  0
   11.2496  -18.8908   27.4761 O   0  0  0  0  0  0  0  0  0  0  0  0
   11.6658  -18.2351   25.3570 O   0  0  0  0  0  0  0  0  0  0  0  0
  2  1  1  0
  3  2  2  0
  4  5  1  0
  4  2  1  0
  5  6  1  6
  7  5  1  0
  7  8  2  0
  9 10  1  0
 10 11  2  0
 11 12  1  0
 13 12  2  0
 13 14  1  0
 15 14  1  1
 15 16  1  0
 16  7  1  0
 17 18  2  0
 17 15  1  0
 19 13  1  0
 20 10  1  0
 20 19  2  0
 22 23  2  0
 22 21  1  0
 24 22  1  0
 25 26  1  0
 25 24  1  6
 26 17  1  0
 27 25  1  0
 28 27  1  0
 29 27  2  0
M  END
$$$$
