NYN.pdb
     RDKit          3D

 29 29  0  0  1  0  0  0  0  0999 V2000
   10.0844  -17.9523   17.9525 N   0  0  0  0  0  0  0  0  0  0  0  0
   10.0006  -16.5549   18.0809 C   0  0  0  0  0  0  0  0  0  0  0  0
   10.0313  -15.8840   17.0013 O   0  0  0  0  0  0  0  0  0  0  0  0
    9.8818  -15.7985   19.3278 C   0  0  0  0  0  0  0  0  0  0  0  0
    9.9170  -16.6437   20.5641 C   0  0  2  0  0  0  0  0  0  0  0  0
    8.9337  -17.6848   20.5162 N   0  0  0  0  0  0  0  0  0  0  0  0
    9.8210  -15.8878   21.8230 C   0  0  0  0  0  0  0  0  0  0  0  0
   10.6425  -14.9991   22.1539 O   0  0  0  0  0  0  0  0  0  0  0  0
    6.5554   -9.8970   26.6792 O   0  0  0  0  0  0  0  0  0  0  0  0
    6.7072  -11.1647   26.0812 C   0  0  0  0  0  0  0  0  0  0  0  0
    7.4804  -11.3311   24.9557 C   0  0  0  0  0  0  0  0  0  0  0  0
    7.6268  -12.5868   24.3689 C   0  0  0  0  0  0  0  0  0  0  0  0
    7.0101  -13.7055   24.8845 C   0  0  0  0  0  0  0  0  0  0  0  0
    7.1911  -14.9968   24.2403 C   0  0  0  0  0  0  0  0  0  0  0  0
    8.5947  -15.4148   23.9783 C   0  0  2  0  0  0  0  0  0  0  0  0
    8.7568  -16.1495   22.7392 N   0  0  0  0  0  0  0  0  0  0  0  0
    9.2718  -16.0916   25.1147 C   0  0  0  0  0  0  0  0  0  0  0  0
    8.7129  -16.2453   26.2397 O   0  0  0  0  0  0  0  0  0  0  0  0
    6.2392  -13.5210   26.0126 C   0  0  0  0  0  0  0  0  0  0  0  0
    6.0876  -12.2773   26.6031 C   0  0  0  0  0  0  0  0  0  0  0  0
   10.6668  -20.3179   27.4687 N   0  0  0  0  0  0  0  0  0  0  0  0
   10.6989  -20.2475   26.0546 C   0  0  0  0  0  0  0  0  0  0  0  0
   11.1234  -21.2254   25.4082 O   0  0  0  0  0  0  0  0  0  0  0  0
   10.2343  -19.0309   25.3806 C   0  0  0  0  0  0  0  0  0  0  0  0
   10.9965  -17.7728   25.8152 C   0  0  2  0  0  0  0  0  0  0  0  0
   10.5909  -16.6209   25.0343 N   0  0  0  0  0  0  0  0  0  0  0  0
   12.4100  -18.0346   25.5178 C   0  0  0  0  0  0  0  0  0  0  0  0
   12.8594  -18.0383   24.2144 O   0  0  0  0  0  0  0  0  0  0  0  0
   13.2167  -18.2552   26.4322 O   0  0  0  0  0  0  0  0  0  0  0  0
  2  1  1  0
  3  2  2  0
  4  5  1  0
  4  2  1  0
  5  6  1  6
  7  5  1  0
  7  8  2  0
  9 10  1  0
 10 11  2  0
 11 12  1  0
 13 12  2  0
 13 14  1  0
 15 14  1  1
 15 16  1  0
 16  7  1  0
 17 18  2  0
 17 15  1  0
 19 13  1  0
 20 10  1  0
 20 19  2  0
 22 23  2  0
 22 21  1  0
 24 22  1  0
 25 26  1  0
 25 24  1  6
 26 17  1  0
 27 25  1  0
 28 27  1  0
 29 27  2  0
M  END
$$$$
