NYN.pdb
     RDKit          3D

 29 29  0  0  1  0  0  0  0  0999 V2000
    7.3571  -14.5906   16.0226 N   0  0  0  0  0  0  0  0  0  0  0  0
    8.4926  -14.8688   16.8034 C   0  0  0  0  0  0  0  0  0  0  0  0
    9.2978  -15.7381   16.3424 O   0  0  0  0  0  0  0  0  0  0  0  0
    8.8389  -14.2602   18.0882 C   0  0  0  0  0  0  0  0  0  0  0  0
    9.1418  -15.2476   19.1733 C   0  0  2  0  0  0  0  0  0  0  0  0
    8.2397  -16.3603   19.1370 N   0  0  0  0  0  0  0  0  0  0  0  0
    9.2077  -14.6685   20.5244 C   0  0  0  0  0  0  0  0  0  0  0  0
   10.1535  -13.9418   20.9139 O   0  0  0  0  0  0  0  0  0  0  0  0
    6.7612  -11.8192   28.5899 O   0  0  0  0  0  0  0  0  0  0  0  0
    6.7860  -12.3536   27.2856 C   0  0  0  0  0  0  0  0  0  0  0  0
    7.2161  -11.6007   26.2176 C   0  0  0  0  0  0  0  0  0  0  0  0
    7.2385  -12.1343   24.9303 C   0  0  0  0  0  0  0  0  0  0  0  0
    6.8350  -13.4261   24.6727 C   0  0  0  0  0  0  0  0  0  0  0  0
    6.8757  -13.9426   23.3137 C   0  0  0  0  0  0  0  0  0  0  0  0
    8.1990  -14.4152   22.8247 C   0  0  2  0  0  0  0  0  0  0  0  0
    8.1653  -14.9230   21.4672 N   0  0  0  0  0  0  0  0  0  0  0  0
    8.9154  -15.3384   23.7424 C   0  0  0  0  0  0  0  0  0  0  0  0
    8.9187  -15.1758   24.9974 O   0  0  0  0  0  0  0  0  0  0  0  0
    6.4071  -14.1666   25.7541 C   0  0  0  0  0  0  0  0  0  0  0  0
    6.3812  -13.6453   27.0371 C   0  0  0  0  0  0  0  0  0  0  0  0
   10.0154  -20.4563   25.7297 N   0  0  0  0  0  0  0  0  0  0  0  0
   10.7179  -19.8094   24.6838 C   0  0  0  0  0  0  0  0  0  0  0  0
   11.9239  -20.0729   24.5096 O   0  0  0  0  0  0  0  0  0  0  0  0
   10.0163  -18.8460   23.8295 C   0  0  0  0  0  0  0  0  0  0  0  0
   10.2800  -17.3873   24.2235 C   0  0  2  0  0  0  0  0  0  0  0  0
    9.6487  -16.4728   23.2928 N   0  0  0  0  0  0  0  0  0  0  0  0
   11.7316  -17.1967   24.1165 C   0  0  0  0  0  0  0  0  0  0  0  0
   12.3124  -16.9346   22.8939 O   0  0  0  0  0  0  0  0  0  0  0  0
   12.4531  -17.2686   25.1215 O   0  0  0  0  0  0  0  0  0  0  0  0
  2  1  1  0
  3  2  2  0
  4  5  1  0
  4  2  1  0
  5  6  1  1
  7  5  1  0
  7  8  2  0
  9 10  1  0
 10 11  2  0
 11 12  1  0
 13 12  2  0
 13 14  1  0
 15 14  1  1
 15 16  1  0
 16  7  1  0
 17 18  2  0
 17 15  1  0
 19 13  1  0
 20 10  1  0
 20 19  2  0
 22 23  2  0
 22 21  1  0
 24 22  1  0
 25 26  1  0
 25 24  1  6
 26 17  1  0
 27 25  1  0
 28 27  1  0
 29 27  2  0
M  END
$$$$
