NYN.pdb
     RDKit          3D

 29 29  0  0  1  0  0  0  0  0999 V2000
   10.8357  -17.6023   16.0907 N   0  0  0  0  0  0  0  0  0  0  0  0
    9.7471  -16.9467   16.6919 C   0  0  0  0  0  0  0  0  0  0  0  0
    8.6289  -17.0407   16.0941 O   0  0  0  0  0  0  0  0  0  0  0  0
    9.7723  -16.1703   17.9320 C   0  0  0  0  0  0  0  0  0  0  0  0
    9.2757  -16.9156   19.1328 C   0  0  2  0  0  0  0  0  0  0  0  0
    7.9133  -17.3278   18.9683 N   0  0  0  0  0  0  0  0  0  0  0  0
    9.4598  -16.2076   20.4097 C   0  0  0  0  0  0  0  0  0  0  0  0
   10.5789  -15.8197   20.8238 O   0  0  0  0  0  0  0  0  0  0  0  0
    7.3158  -11.7186   27.8465 O   0  0  0  0  0  0  0  0  0  0  0  0
    7.3041  -12.3753   26.5990 C   0  0  0  0  0  0  0  0  0  0  0  0
    7.8976  -11.8109   25.4937 C   0  0  0  0  0  0  0  0  0  0  0  0
    7.8830  -12.4647   24.2629 C   0  0  0  0  0  0  0  0  0  0  0  0
    7.2797  -13.6925   24.1001 C   0  0  0  0  0  0  0  0  0  0  0  0
    7.2889  -14.3395   22.7976 C   0  0  0  0  0  0  0  0  0  0  0  0
    8.4546  -15.2154   22.5020 C   0  0  2  0  0  0  0  0  0  0  0  0
    8.3360  -15.9305   21.2465 N   0  0  0  0  0  0  0  0  0  0  0  0
    8.8642  -16.1133   23.6128 C   0  0  0  0  0  0  0  0  0  0  0  0
    8.2331  -17.1742   23.8918 O   0  0  0  0  0  0  0  0  0  0  0  0
    6.6898  -14.2437   25.2177 C   0  0  0  0  0  0  0  0  0  0  0  0
    6.6991  -13.6018   26.4451 C   0  0  0  0  0  0  0  0  0  0  0  0
   13.9850  -17.4909   26.5552 N   0  0  0  0  0  0  0  0  0  0  0  0
   12.9456  -17.8594   25.6666 C   0  0  0  0  0  0  0  0  0  0  0  0
   12.6844  -19.0679   25.5066 O   0  0  0  0  0  0  0  0  0  0  0  0
   12.1997  -16.8168   24.9546 C   0  0  0  0  0  0  0  0  0  0  0  0
   10.6810  -16.9318   25.1362 C   0  0  2  0  0  0  0  0  0  0  0  0
    9.9901  -15.8603   24.4464 N   0  0  0  0  0  0  0  0  0  0  0  0
   10.4329  -16.7660   26.5735 C   0  0  0  0  0  0  0  0  0  0  0  0
    9.9018  -15.5898   27.0586 O   0  0  0  0  0  0  0  0  0  0  0  0
   10.6969  -17.6792   27.3687 O   0  0  0  0  0  0  0  0  0  0  0  0
  2  1  1  0
  3  2  2  0
  4  5  1  0
  4  2  1  0
  5  6  1  6
  7  5  1  0
  7  8  2  0
  9 10  1  0
 10 11  2  0
 11 12  1  0
 13 12  2  0
 13 14  1  0
 15 14  1  1
 15 16  1  0
 16  7  1  0
 17 18  2  0
 17 15  1  0
 19 13  1  0
 20 10  1  0
 20 19  2  0
 22 23  2  0
 22 21  1  0
 24 22  1  0
 25 26  1  0
 25 24  1  1
 26 17  1  0
 27 25  1  0
 28 27  1  0
 29 27  2  0
M  END
$$$$
