NYN.pdb
     RDKit          3D

 29 29  0  0  1  0  0  0  0  0999 V2000
    7.7307  -13.7060   14.8979 N   0  0  0  0  0  0  0  0  0  0  0  0
    8.4977  -14.2910   15.9205 C   0  0  0  0  0  0  0  0  0  0  0  0
    9.1393  -15.3453   15.6149 O   0  0  0  0  0  0  0  0  0  0  0  0
    8.6310  -13.8096   17.2959 C   0  0  0  0  0  0  0  0  0  0  0  0
    8.7132  -14.8979   18.3219 C   0  0  2  0  0  0  0  0  0  0  0  0
    7.6270  -15.8236   18.1931 N   0  0  0  0  0  0  0  0  0  0  0  0
    8.8357  -14.4213   19.7087 C   0  0  0  0  0  0  0  0  0  0  0  0
    9.7583  -13.6636   20.0946 O   0  0  0  0  0  0  0  0  0  0  0  0
    6.9364  -12.7254   28.2368 O   0  0  0  0  0  0  0  0  0  0  0  0
    6.9040  -13.2022   26.9104 C   0  0  0  0  0  0  0  0  0  0  0  0
    6.9320  -14.5506   26.6395 C   0  0  0  0  0  0  0  0  0  0  0  0
    6.8997  -15.0162   25.3262 C   0  0  0  0  0  0  0  0  0  0  0  0
    6.8390  -14.1557   24.2521 C   0  0  0  0  0  0  0  0  0  0  0  0
    6.8061  -14.6852   22.8980 C   0  0  0  0  0  0  0  0  0  0  0  0
    8.0599  -14.5581   22.1071 C   0  0  2  0  0  0  0  0  0  0  0  0
    7.8792  -14.8184   20.6924 N   0  0  0  0  0  0  0  0  0  0  0  0
    9.2286  -15.2910   22.6590 C   0  0  0  0  0  0  0  0  0  0  0  0
   10.3750  -15.2342   22.1260 O   0  0  0  0  0  0  0  0  0  0  0  0
    6.8116  -12.8080   24.5414 C   0  0  0  0  0  0  0  0  0  0  0  0
    6.8432  -12.3355   25.8431 C   0  0  0  0  0  0  0  0  0  0  0  0
   13.8140  -16.3496   25.2092 N   0  0  0  0  0  0  0  0  0  0  0  0
   12.8272  -16.7418   24.2721 C   0  0  0  0  0  0  0  0  0  0  0  0
   13.0280  -17.7492   23.5656 O   0  0  0  0  0  0  0  0  0  0  0  0
   11.5933  -15.9587   24.1513 C   0  0  0  0  0  0  0  0  0  0  0  0
   10.3246  -16.8008   24.3355 C   0  0  2  0  0  0  0  0  0  0  0  0
    9.1591  -16.1082   23.8226 N   0  0  0  0  0  0  0  0  0  0  0  0
   10.1480  -16.9524   25.7849 C   0  0  0  0  0  0  0  0  0  0  0  0
   10.7656  -17.9847   26.4587 O   0  0  0  0  0  0  0  0  0  0  0  0
    9.4431  -16.1562   26.4212 O   0  0  0  0  0  0  0  0  0  0  0  0
  2  1  1  0
  3  2  2  0
  4  5  1  0
  4  2  1  0
  5  6  1  1
  7  5  1  0
  7  8  2  0
  9 10  1  0
 10 11  2  0
 11 12  1  0
 13 12  2  0
 13 14  1  0
 15 14  1  1
 15 16  1  0
 16  7  1  0
 17 18  2  0
 17 15  1  0
 19 13  1  0
 20 10  1  0
 20 19  2  0
 22 23  2  0
 22 21  1  0
 24 22  1  0
 25 26  1  0
 25 24  1  1
 26 17  1  0
 27 25  1  0
 28 27  1  0
 29 27  2  0
M  END
$$$$
