CIE.pdb
     RDKit          3D

 24 23  0  0  1  0  0  0  0  0999 V2000
    7.4358  -14.8083   20.4497 N   0  0  0  0  0  0  0  0  0  0  0  0
    6.8910  -15.3078   21.7202 C   0  0  1  0  0  0  0  0  0  0  0  0
    6.7833  -16.8107   21.5620 C   0  0  0  0  0  0  0  0  0  0  0  0
    6.1439  -17.4590   23.1470 S   0  0  0  0  0  0  0  0  0  0  0  0
    7.7872  -14.9257   22.8257 C   0  0  0  0  0  0  0  0  0  0  0  0
    9.0212  -14.9207   22.6428 O   0  0  0  0  0  0  0  0  0  0  0  0
    5.9654  -11.3657   26.4588 C   0  0  0  0  0  0  0  0  0  0  0  0
    6.9065  -12.0625   25.4427 C   0  0  0  0  0  0  0  0  0  0  0  0
    7.3877  -13.2910   26.1290 C   0  0  2  0  0  0  0  0  0  0  0  0
    8.1567  -12.9788   27.3957 C   0  0  0  0  0  0  0  0  0  0  0  0
    8.1598  -14.2153   25.2227 C   0  0  2  0  0  0  0  0  0  0  0  0
    7.2642  -14.5662   24.0864 N   0  0  0  0  0  0  0  0  0  0  0  0
    8.5394  -15.4853   25.8604 C   0  0  0  0  0  0  0  0  0  0  0  0
    7.6166  -16.3100   26.1825 O   0  0  0  0  0  0  0  0  0  0  0  0
    9.8441  -15.9280   26.1700 N   0  0  0  0  0  0  0  0  0  0  0  0
   10.1510  -17.1652   26.8280 C   0  0  1  0  0  0  0  0  0  0  0  0
   11.2347  -17.9534   26.1572 C   0  0  0  0  0  0  0  0  0  0  0  0
   11.5952  -17.4661   24.7968 C   0  0  0  0  0  0  0  0  0  0  0  0
   12.7581  -18.2290   24.3176 C   0  0  0  0  0  0  0  0  0  0  0  0
   13.3695  -18.9838   25.0934 O   0  0  0  0  0  0  0  0  0  0  0  0
   10.5553  -16.9611   28.2496 C   0  0  0  0  0  0  0  0  0  0  0  0
   10.6361  -15.6730   28.7582 O   0  0  0  0  0  0  0  0  0  0  0  0
   13.1828  -18.1185   23.0114 O   0  0  0  0  0  0  0  0  0  0  0  0
   10.8312  -17.9322   29.0192 O   0  0  0  0  0  0  0  0  0  0  0  0
  2  1  1  6
  3  4  1  0
  3  2  1  0
  5  6  2  0
  5  2  1  0
  7  8  1  0
  8  9  1  0
  9 11  1  0
  9 10  1  1
 11 12  1  6
 11 13  1  0
 12  5  1  0
 13 15  1  0
 14 13  2  0
 15 16  1  0
 16 21  1  0
 16 17  1  6
 17 18  1  0
 19 18  1  0
 19 23  1  0
 20 19  2  0
 21 24  2  0
 21 22  1  0
M  END
$$$$
