CIE.pdb
     RDKit          3D

 24 23  0  0  1  0  0  0  0  0999 V2000
    7.1988  -14.4703   20.2004 N   0  0  0  0  0  0  0  0  0  0  0  0
    6.7101  -15.0722   21.4491 C   0  0  1  0  0  0  0  0  0  0  0  0
    6.6542  -16.5647   21.1950 C   0  0  0  0  0  0  0  0  0  0  0  0
    5.0604  -16.8942   20.3626 S   0  0  0  0  0  0  0  0  0  0  0  0
    7.6230  -14.7278   22.5533 C   0  0  0  0  0  0  0  0  0  0  0  0
    8.8487  -14.6480   22.3353 O   0  0  0  0  0  0  0  0  0  0  0  0
    5.6215  -11.6130   26.5323 C   0  0  0  0  0  0  0  0  0  0  0  0
    6.5386  -12.1508   25.4038 C   0  0  0  0  0  0  0  0  0  0  0  0
    7.2066  -13.3499   25.9762 C   0  0  2  0  0  0  0  0  0  0  0  0
    8.0034  -13.0248   27.2224 C   0  0  0  0  0  0  0  0  0  0  0  0
    8.0330  -14.1083   24.9694 C   0  0  2  0  0  0  0  0  0  0  0  0
    7.1253  -14.4878   23.8521 N   0  0  0  0  0  0  0  0  0  0  0  0
    8.5953  -15.3627   25.4927 C   0  0  0  0  0  0  0  0  0  0  0  0
    7.7939  -16.2629   25.9204 O   0  0  0  0  0  0  0  0  0  0  0  0
    9.9600  -15.7140   25.5823 N   0  0  0  0  0  0  0  0  0  0  0  0
   10.4459  -17.0029   25.9830 C   0  0  1  0  0  0  0  0  0  0  0  0
   11.7314  -17.3962   25.3209 C   0  0  0  0  0  0  0  0  0  0  0  0
   12.8794  -16.4987   25.6283 C   0  0  0  0  0  0  0  0  0  0  0  0
   13.9072  -16.6790   24.5913 C   0  0  0  0  0  0  0  0  0  0  0  0
   14.0509  -15.8220   23.7023 O   0  0  0  0  0  0  0  0  0  0  0  0
   10.6520  -17.0928   27.4579 C   0  0  0  0  0  0  0  0  0  0  0  0
   10.5072  -15.9549   28.2381 O   0  0  0  0  0  0  0  0  0  0  0  0
   14.7191  -17.7923   24.5909 O   0  0  0  0  0  0  0  0  0  0  0  0
   10.9580  -18.1830   28.0317 O   0  0  0  0  0  0  0  0  0  0  0  0
  2  1  1  6
  3  4  1  0
  3  2  1  0
  5  6  2  0
  5  2  1  0
  7  8  1  0
  8  9  1  0
  9 11  1  0
  9 10  1  1
 11 12  1  6
 11 13  1  0
 12  5  1  0
 13 15  1  0
 14 13  2  0
 15 16  1  0
 16 21  1  0
 16 17  1  6
 17 18  1  0
 19 18  1  0
 19 23  1  0
 20 19  2  0
 21 24  2  0
 21 22  1  0
M  END
$$$$
