CIE.pdb
     RDKit          3D

 24 23  0  0  1  0  0  0  0  0999 V2000
    7.3979  -14.2238   20.1786 N   0  0  0  0  0  0  0  0  0  0  0  0
    6.9871  -15.0023   21.3558 C   0  0  1  0  0  0  0  0  0  0  0  0
    7.1813  -16.4566   20.9785 C   0  0  0  0  0  0  0  0  0  0  0  0
    6.5551  -17.4487   22.3803 S   0  0  0  0  0  0  0  0  0  0  0  0
    7.8075  -14.6122   22.5161 C   0  0  0  0  0  0  0  0  0  0  0  0
    8.9986  -14.2841   22.3442 O   0  0  0  0  0  0  0  0  0  0  0  0
    5.4079  -12.0900   26.6707 C   0  0  0  0  0  0  0  0  0  0  0  0
    6.4474  -12.4147   25.5672 C   0  0  0  0  0  0  0  0  0  0  0  0
    7.1378  -13.6492   26.0265 C   0  0  2  0  0  0  0  0  0  0  0  0
    7.8185  -13.4632   27.3664 C   0  0  0  0  0  0  0  0  0  0  0  0
    8.0797  -14.2219   24.9985 C   0  0  2  0  0  0  0  0  0  0  0  0
    7.2598  -14.6063   23.8169 N   0  0  0  0  0  0  0  0  0  0  0  0
    8.7662  -15.4442   25.4437 C   0  0  0  0  0  0  0  0  0  0  0  0
    8.0614  -16.4641   25.7575 O   0  0  0  0  0  0  0  0  0  0  0  0
   10.1586  -15.6430   25.5693 N   0  0  0  0  0  0  0  0  0  0  0  0
   10.7723  -16.8659   26.0002 C   0  0  1  0  0  0  0  0  0  0  0  0
   12.1686  -17.0535   25.4895 C   0  0  0  0  0  0  0  0  0  0  0  0
   12.3246  -16.8138   24.0279 C   0  0  0  0  0  0  0  0  0  0  0  0
   13.7431  -16.9767   23.6740 C   0  0  0  0  0  0  0  0  0  0  0  0
   14.1015  -17.9327   22.9649 O   0  0  0  0  0  0  0  0  0  0  0  0
   10.8165  -16.9797   27.4871 C   0  0  0  0  0  0  0  0  0  0  0  0
   10.3823  -15.9173   28.2663 O   0  0  0  0  0  0  0  0  0  0  0  0
   14.6877  -16.0782   24.1205 O   0  0  0  0  0  0  0  0  0  0  0  0
   11.2410  -18.0233   28.0721 O   0  0  0  0  0  0  0  0  0  0  0  0
  2  1  1  6
  3  4  1  0
  3  2  1  0
  5  6  2  0
  5  2  1  0
  7  8  1  0
  8  9  1  0
  9 11  1  0
  9 10  1  1
 11 12  1  6
 11 13  1  0
 12  5  1  0
 13 15  1  0
 14 13  2  0
 15 16  1  0
 16 21  1  0
 16 17  1  1
 17 18  1  0
 19 18  1  0
 19 23  1  0
 20 19  2  0
 21 24  2  0
 21 22  1  0
M  END
$$$$
