CIE.pdb
     RDKit          3D

 24 23  0  0  1  0  0  0  0  0999 V2000
    9.4634  -17.7522   16.2626 N   0  0  0  0  0  0  0  0  0  0  0  0
    8.7351  -17.9368   17.5260 C   0  0  1  0  0  0  0  0  0  0  0  0
    8.8578  -19.4086   17.8632 C   0  0  0  0  0  0  0  0  0  0  0  0
    8.0438  -19.6437   19.4830 S   0  0  0  0  0  0  0  0  0  0  0  0
    9.3245  -17.0748   18.5657 C   0  0  0  0  0  0  0  0  0  0  0  0
   10.5582  -16.8917   18.5857 O   0  0  0  0  0  0  0  0  0  0  0  0
    6.5301  -12.7500   20.2888 C   0  0  0  0  0  0  0  0  0  0  0  0
    7.7260  -13.6057   19.7975 C   0  0  0  0  0  0  0  0  0  0  0  0
    8.0307  -14.5369   20.9162 C   0  0  2  0  0  0  0  0  0  0  0  0
    8.3574  -13.8052   22.2012 C   0  0  0  0  0  0  0  0  0  0  0  0
    9.0869  -15.5555   20.5718 C   0  0  2  0  0  0  0  0  0  0  0  0
    8.5085  -16.4560   19.5370 N   0  0  0  0  0  0  0  0  0  0  0  0
    9.4696  -16.4140   21.7032 C   0  0  0  0  0  0  0  0  0  0  0  0
    8.6052  -17.2310   22.1732 O   0  0  0  0  0  0  0  0  0  0  0  0
   10.7197  -16.4549   22.3585 N   0  0  0  0  0  0  0  0  0  0  0  0
   11.0226  -17.2878   23.4865 C   0  0  1  0  0  0  0  0  0  0  0  0
   12.4414  -17.7692   23.5181 C   0  0  0  0  0  0  0  0  0  0  0  0
   12.7912  -18.7195   22.4261 C   0  0  0  0  0  0  0  0  0  0  0  0
   14.1662  -18.4408   21.9837 C   0  0  0  0  0  0  0  0  0  0  0  0
   14.3812  -18.0708   20.8165 O   0  0  0  0  0  0  0  0  0  0  0  0
   10.7501  -16.6007   24.7825 C   0  0  0  0  0  0  0  0  0  0  0  0
   10.3269  -15.2796   24.7790 O   0  0  0  0  0  0  0  0  0  0  0  0
   15.2275  -18.5850   22.8507 O   0  0  0  0  0  0  0  0  0  0  0  0
   10.8924  -17.1860   25.9000 O   0  0  0  0  0  0  0  0  0  0  0  0
  2  1  1  6
  3  4  1  0
  3  2  1  0
  5  6  2  0
  5  2  1  0
  7  8  1  0
  8  9  1  0
  9 11  1  0
  9 10  1  1
 11 12  1  6
 11 13  1  0
 12  5  1  0
 13 15  1  0
 14 13  2  0
 15 16  1  0
 16 21  1  0
 16 17  1  1
 17 18  1  0
 19 18  1  0
 19 23  1  0
 20 19  2  0
 21 24  2  0
 21 22  1  0
M  END
$$$$
