CIE.pdb
     RDKit          3D

 24 23  0  0  1  0  0  0  0  0999 V2000
    7.3939  -14.5840   20.3221 N   0  0  0  0  0  0  0  0  0  0  0  0
    6.9960  -15.2728   21.5581 C   0  0  1  0  0  0  0  0  0  0  0  0
    7.1937  -16.7508   21.2903 C   0  0  0  0  0  0  0  0  0  0  0  0
    5.5549  -17.4249   20.8415 S   0  0  0  0  0  0  0  0  0  0  0  0
    7.8238  -14.7930   22.6788 C   0  0  0  0  0  0  0  0  0  0  0  0
    9.0356  -14.5625   22.4933 O   0  0  0  0  0  0  0  0  0  0  0  0
    5.3597  -11.9289   26.5868 C   0  0  0  0  0  0  0  0  0  0  0  0
    6.4057  -12.3187   25.5108 C   0  0  0  0  0  0  0  0  0  0  0  0
    7.1553  -13.4667   26.0868 C   0  0  2  0  0  0  0  0  0  0  0  0
    7.8665  -13.1022   27.3732 C   0  0  0  0  0  0  0  0  0  0  0  0
    8.0884  -14.1227   25.1016 C   0  0  2  0  0  0  0  0  0  0  0  0
    7.2601  -14.5922   23.9571 N   0  0  0  0  0  0  0  0  0  0  0  0
    8.7702  -15.3112   25.6364 C   0  0  0  0  0  0  0  0  0  0  0  0
    8.0634  -16.3160   25.9922 O   0  0  0  0  0  0  0  0  0  0  0  0
   10.1599  -15.4919   25.8096 N   0  0  0  0  0  0  0  0  0  0  0  0
   10.7785  -16.7211   26.2150 C   0  0  1  0  0  0  0  0  0  0  0  0
   12.0413  -17.0354   25.4720 C   0  0  0  0  0  0  0  0  0  0  0  0
   13.0947  -15.9884   25.5823 C   0  0  0  0  0  0  0  0  0  0  0  0
   14.1180  -16.2419   24.5564 C   0  0  0  0  0  0  0  0  0  0  0  0
   15.1485  -16.8729   24.8482 O   0  0  0  0  0  0  0  0  0  0  0  0
   11.0965  -16.7369   27.6726 C   0  0  0  0  0  0  0  0  0  0  0  0
   10.8803  -15.5956   28.4309 O   0  0  0  0  0  0  0  0  0  0  0  0
   13.9497  -15.7865   23.2667 O   0  0  0  0  0  0  0  0  0  0  0  0
   11.5624  -17.7665   28.2509 O   0  0  0  0  0  0  0  0  0  0  0  0
  2  1  1  6
  3  4  1  0
  3  2  1  0
  5  6  2  0
  5  2  1  0
  7  8  1  0
  8  9  1  0
  9 11  1  0
  9 10  1  1
 11 12  1  6
 11 13  1  0
 12  5  1  0
 13 15  1  0
 14 13  2  0
 15 16  1  0
 16 21  1  0
 16 17  1  6
 17 18  1  0
 19 18  1  0
 19 23  1  0
 20 19  2  0
 21 24  2  0
 21 22  1  0
M  END
$$$$
