CIE.pdb
     RDKit          3D

 24 23  0  0  1  0  0  0  0  0999 V2000
    7.1325  -14.9083   20.1428 N   0  0  0  0  0  0  0  0  0  0  0  0
    6.5423  -15.1047   21.4745 C   0  0  1  0  0  0  0  0  0  0  0  0
    6.2216  -16.5822   21.5714 C   0  0  0  0  0  0  0  0  0  0  0  0
    7.7607  -17.4794   21.1618 S   0  0  0  0  0  0  0  0  0  0  0  0
    7.5003  -14.6725   22.5074 C   0  0  0  0  0  0  0  0  0  0  0  0
    8.6924  -14.4766   22.1966 O   0  0  0  0  0  0  0  0  0  0  0  0
    5.9915  -11.3656   26.4748 C   0  0  0  0  0  0  0  0  0  0  0  0
    6.8423  -12.0134   25.3520 C   0  0  0  0  0  0  0  0  0  0  0  0
    7.3431  -13.2915   25.9242 C   0  0  2  0  0  0  0  0  0  0  0  0
    8.1763  -13.0767   27.1704 C   0  0  0  0  0  0  0  0  0  0  0  0
    8.0601  -14.1538   24.9171 C   0  0  2  0  0  0  0  0  0  0  0  0
    7.0831  -14.4787   23.8417 N   0  0  0  0  0  0  0  0  0  0  0  0
    8.5204  -15.4397   25.4631 C   0  0  0  0  0  0  0  0  0  0  0  0
    7.6475  -16.2805   25.8716 O   0  0  0  0  0  0  0  0  0  0  0  0
    9.8549  -15.8821   25.5945 N   0  0  0  0  0  0  0  0  0  0  0  0
   10.2412  -17.1775   26.0748 C   0  0  1  0  0  0  0  0  0  0  0  0
   11.5745  -17.6366   25.5676 C   0  0  0  0  0  0  0  0  0  0  0  0
   11.7336  -17.5440   24.0897 C   0  0  0  0  0  0  0  0  0  0  0  0
   13.1698  -17.5406   23.7713 C   0  0  0  0  0  0  0  0  0  0  0  0
   13.8939  -16.6136   24.1733 O   0  0  0  0  0  0  0  0  0  0  0  0
   10.2807  -17.2362   27.5651 C   0  0  0  0  0  0  0  0  0  0  0  0
   10.5602  -18.4409   28.1936 O   0  0  0  0  0  0  0  0  0  0  0  0
   13.7285  -18.5578   23.0282 O   0  0  0  0  0  0  0  0  0  0  0  0
   10.0658  -16.2143   28.2870 O   0  0  0  0  0  0  0  0  0  0  0  0
  2  1  1  6
  3  4  1  0
  3  2  1  0
  5  6  2  0
  5  2  1  0
  7  8  1  0
  8  9  1  0
  9 11  1  0
  9 10  1  1
 11 12  1  6
 11 13  1  0
 12  5  1  0
 13 15  1  0
 14 13  2  0
 15 16  1  0
 16 21  1  0
 16 17  1  6
 17 18  1  0
 19 18  1  0
 19 23  1  0
 20 19  2  0
 21 24  2  0
 21 22  1  0
M  END
$$$$
