CIE.pdb
     RDKit          3D

 24 23  0  0  1  0  0  0  0  0999 V2000
    7.4816  -14.4864   20.0431 N   0  0  0  0  0  0  0  0  0  0  0  0
    6.9260  -15.0900   21.2628 C   0  0  1  0  0  0  0  0  0  0  0  0
    6.9289  -16.5859   21.0226 C   0  0  0  0  0  0  0  0  0  0  0  0
    5.3054  -17.0014   20.2923 S   0  0  0  0  0  0  0  0  0  0  0  0
    7.7520  -14.7093   22.4222 C   0  0  0  0  0  0  0  0  0  0  0  0
    8.9884  -14.6099   22.2899 O   0  0  0  0  0  0  0  0  0  0  0  0
    5.6616  -11.6523   26.4176 C   0  0  0  0  0  0  0  0  0  0  0  0
    6.6652  -12.1773   25.3588 C   0  0  0  0  0  0  0  0  0  0  0  0
    7.1453  -13.4833   25.8837 C   0  0  2  0  0  0  0  0  0  0  0  0
    7.8391  -13.3453   27.2228 C   0  0  0  0  0  0  0  0  0  0  0  0
    7.9890  -14.2478   24.8960 C   0  0  2  0  0  0  0  0  0  0  0  0
    7.1590  -14.4565   23.6778 N   0  0  0  0  0  0  0  0  0  0  0  0
    8.3811  -15.5852   25.3661 C   0  0  0  0  0  0  0  0  0  0  0  0
    7.4785  -16.4838   25.4822 O   0  0  0  0  0  0  0  0  0  0  0  0
    9.6784  -16.0206   25.7149 N   0  0  0  0  0  0  0  0  0  0  0  0
   10.0123  -17.3606   26.1029 C   0  0  1  0  0  0  0  0  0  0  0  0
   10.8397  -18.0939   25.0913 C   0  0  0  0  0  0  0  0  0  0  0  0
   12.1949  -17.5164   24.8725 C   0  0  0  0  0  0  0  0  0  0  0  0
   12.6390  -17.8624   23.5135 C   0  0  0  0  0  0  0  0  0  0  0  0
   13.1228  -16.9870   22.7753 O   0  0  0  0  0  0  0  0  0  0  0  0
   10.7446  -17.4042   27.4020 C   0  0  0  0  0  0  0  0  0  0  0  0
   11.1152  -16.2172   28.0170 O   0  0  0  0  0  0  0  0  0  0  0  0
   12.5258  -19.1527   23.0431 O   0  0  0  0  0  0  0  0  0  0  0  0
   11.0445  -18.4983   27.9717 O   0  0  0  0  0  0  0  0  0  0  0  0
  2  1  1  6
  3  4  1  0
  3  2  1  0
  5  6  2  0
  5  2  1  0
  7  8  1  0
  8  9  1  0
  9 11  1  0
  9 10  1  1
 11 12  1  6
 11 13  1  0
 12  5  1  0
 13 15  1  0
 14 13  2  0
 15 16  1  0
 16 21  1  0
 16 17  1  6
 17 18  1  0
 19 18  1  0
 19 23  1  0
 20 19  2  0
 21 24  2  0
 21 22  1  0
M  END
$$$$
