CIE.pdb
     RDKit          3D

 24 23  0  0  1  0  0  0  0  0999 V2000
    7.5453  -14.4502   20.1645 N   0  0  0  0  0  0  0  0  0  0  0  0
    6.9495  -15.0330   21.3753 C   0  0  1  0  0  0  0  0  0  0  0  0
    6.9118  -16.5290   21.1392 C   0  0  0  0  0  0  0  0  0  0  0  0
    6.1169  -17.2705   22.6088 S   0  0  0  0  0  0  0  0  0  0  0  0
    7.7651  -14.6734   22.5487 C   0  0  0  0  0  0  0  0  0  0  0  0
    8.9929  -14.4992   22.4137 O   0  0  0  0  0  0  0  0  0  0  0  0
    5.6231  -11.6202   26.4994 C   0  0  0  0  0  0  0  0  0  0  0  0
    6.6243  -12.1578   25.4446 C   0  0  0  0  0  0  0  0  0  0  0  0
    7.1031  -13.4590   25.9824 C   0  0  2  0  0  0  0  0  0  0  0  0
    7.7473  -13.3162   27.3456 C   0  0  0  0  0  0  0  0  0  0  0  0
    7.9913  -14.2089   25.0230 C   0  0  2  0  0  0  0  0  0  0  0  0
    7.1720  -14.5247   23.8207 N   0  0  0  0  0  0  0  0  0  0  0  0
    8.4726  -15.4959   25.5478 C   0  0  0  0  0  0  0  0  0  0  0  0
    7.6167  -16.3363   25.9914 O   0  0  0  0  0  0  0  0  0  0  0  0
    9.8110  -15.9397   25.6231 N   0  0  0  0  0  0  0  0  0  0  0  0
   10.2184  -17.2222   26.1202 C   0  0  1  0  0  0  0  0  0  0  0  0
   11.5626  -17.6625   25.6252 C   0  0  0  0  0  0  0  0  0  0  0  0
   11.7520  -17.5190   24.1551 C   0  0  0  0  0  0  0  0  0  0  0  0
   13.1255  -17.9231   23.8169 C   0  0  0  0  0  0  0  0  0  0  0  0
   14.0029  -17.0598   23.6427 O   0  0  0  0  0  0  0  0  0  0  0  0
   10.2509  -17.2631   27.6112 C   0  0  0  0  0  0  0  0  0  0  0  0
   10.4815  -18.4695   28.2562 O   0  0  0  0  0  0  0  0  0  0  0  0
   13.4563  -19.2547   23.6895 O   0  0  0  0  0  0  0  0  0  0  0  0
   10.0736  -16.2245   28.3193 O   0  0  0  0  0  0  0  0  0  0  0  0
  2  1  1  6
  3  4  1  0
  3  2  1  0
  5  6  2  0
  5  2  1  0
  7  8  1  0
  8  9  1  0
  9 11  1  0
  9 10  1  1
 11 12  1  6
 11 13  1  0
 12  5  1  0
 13 15  1  0
 14 13  2  0
 15 16  1  0
 16 21  1  0
 16 17  1  6
 17 18  1  0
 19 18  1  0
 19 23  1  0
 20 19  2  0
 21 24  2  0
 21 22  1  0
M  END
$$$$
