CIE.pdb
     RDKit          3D

 24 23  0  0  1  0  0  0  0  0999 V2000
    7.5767  -14.6723   20.1294 N   0  0  0  0  0  0  0  0  0  0  0  0
    6.8325  -14.8430   21.3854 C   0  0  1  0  0  0  0  0  0  0  0  0
    6.3352  -16.2741   21.3805 C   0  0  0  0  0  0  0  0  0  0  0  0
    7.8061  -17.3396   21.5866 S   0  0  0  0  0  0  0  0  0  0  0  0
    7.7212  -14.5648   22.5273 C   0  0  0  0  0  0  0  0  0  0  0  0
    8.9451  -14.4214   22.3330 O   0  0  0  0  0  0  0  0  0  0  0  0
    5.7032  -11.7015   26.6761 C   0  0  0  0  0  0  0  0  0  0  0  0
    6.6545  -12.1723   25.5460 C   0  0  0  0  0  0  0  0  0  0  0  0
    7.2345  -13.4544   26.0272 C   0  0  2  0  0  0  0  0  0  0  0  0
    7.9700  -13.2960   27.3415 C   0  0  0  0  0  0  0  0  0  0  0  0
    8.0846  -14.1481   24.9938 C   0  0  2  0  0  0  0  0  0  0  0  0
    7.2024  -14.4592   23.8356 N   0  0  0  0  0  0  0  0  0  0  0  0
    8.6388  -15.4316   25.4509 C   0  0  0  0  0  0  0  0  0  0  0  0
    7.8335  -16.3927   25.7026 O   0  0  0  0  0  0  0  0  0  0  0  0
    9.9998  -15.7505   25.6506 N   0  0  0  0  0  0  0  0  0  0  0  0
   10.4903  -17.0542   25.9935 C   0  0  1  0  0  0  0  0  0  0  0  0
   11.8959  -17.3090   25.5406 C   0  0  0  0  0  0  0  0  0  0  0  0
   12.1452  -16.9922   24.1069 C   0  0  0  0  0  0  0  0  0  0  0  0
   13.5738  -17.1975   23.8222 C   0  0  0  0  0  0  0  0  0  0  0  0
   14.4237  -16.4459   24.3304 O   0  0  0  0  0  0  0  0  0  0  0  0
   10.4369  -17.3069   27.4629 C   0  0  0  0  0  0  0  0  0  0  0  0
   10.7758  -18.5596   27.9530 O   0  0  0  0  0  0  0  0  0  0  0  0
   13.9870  -18.2184   22.9941 O   0  0  0  0  0  0  0  0  0  0  0  0
   10.0893  -16.4089   28.2902 O   0  0  0  0  0  0  0  0  0  0  0  0
  2  1  1  6
  3  4  1  0
  3  2  1  0
  5  6  2  0
  5  2  1  0
  7  8  1  0
  8  9  1  0
  9 11  1  0
  9 10  1  1
 11 12  1  6
 11 13  1  0
 12  5  1  0
 13 15  1  0
 14 13  2  0
 15 16  1  0
 16 21  1  0
 16 17  1  1
 17 18  1  0
 19 18  1  0
 19 23  1  0
 20 19  2  0
 21 24  2  0
 21 22  1  0
M  END
$$$$
