TMV.pdb
     RDKit          3D

 23 22  0  0  1  0  0  0  0  0999 V2000
    6.4798  -17.9351   19.0814 C   0  0  0  0  0  0  0  0  0  0  0  0
    7.1589  -17.4832   20.3492 C   0  0  1  0  0  0  0  0  0  0  0  0
    7.9400  -18.5276   20.8609 O   0  0  0  0  0  0  0  0  0  0  0  0
    7.9350  -16.2218   20.1850 C   0  0  2  0  0  0  0  0  0  0  0  0
    8.9164  -16.3774   19.1579 N   0  0  0  0  0  0  0  0  0  0  0  0
    8.5612  -15.7972   21.4926 C   0  0  0  0  0  0  0  0  0  0  0  0
    9.7685  -16.0010   21.7182 O   0  0  0  0  0  0  0  0  0  0  0  0
    7.0489  -11.8006   28.2317 C   0  0  0  0  0  0  0  0  0  0  0  0
    6.3414  -12.3210   26.6311 S   0  0  0  0  0  0  0  0  0  0  0  0
    7.5361  -13.4524   25.8678 C   0  0  0  0  0  0  0  0  0  0  0  0
    7.1120  -13.8448   24.4766 C   0  0  0  0  0  0  0  0  0  0  0  0
    8.0989  -14.7920   23.7967 C   0  0  2  0  0  0  0  0  0  0  0  0
    7.7700  -15.1624   22.4703 N   0  0  0  0  0  0  0  0  0  0  0  0
    8.5017  -15.8180   24.7283 C   0  0  0  0  0  0  0  0  0  0  0  0
    7.5831  -16.6164   25.1258 O   0  0  0  0  0  0  0  0  0  0  0  0
   12.5326  -16.8794   25.5884 C   0  0  0  0  0  0  0  0  0  0  0  0
   11.4053  -17.8584   25.5274 C   0  0  2  0  0  0  0  0  0  0  0  0
   11.2440  -18.3088   24.0896 C   0  0  0  0  0  0  0  0  0  0  0  0
   10.1055  -17.2147   25.9571 C   0  0  2  0  0  0  0  0  0  0  0  0
    9.8217  -16.0056   25.2301 N   0  0  0  0  0  0  0  0  0  0  0  0
   10.2645  -16.8384   27.4057 C   0  0  0  0  0  0  0  0  0  0  0  0
   10.4157  -17.8138   28.3959 O   0  0  0  0  0  0  0  0  0  0  0  0
   10.2677  -15.6435   27.7777 O   0  0  0  0  0  0  0  0  0  0  0  0
  2  1  1  6
  2  4  1  0
  3  2  1  0
  4  6  1  0
  4  5  1  6
  6  7  2  0
  9 10  1  0
  9  8  1  0
 12 11  1  1
 11 10  1  0
 13 12  1  0
 13  6  1  0
 14 20  1  0
 14 12  1  0
 15 14  2  0
 17 16  1  6
 17 18  1  0
 19 20  1  6
 19 17  1  0
 21 19  1  0
 22 21  1  0
 23 21  2  0
M  END
$$$$
