TMV.pdb
     RDKit          3D

 23 22  0  0  1  0  0  0  0  0999 V2000
   10.0135  -18.9096   19.9359 C   0  0  0  0  0  0  0  0  0  0  0  0
   10.1158  -18.0646   21.1801 C   0  0  1  0  0  0  0  0  0  0  0  0
   11.3150  -18.3520   21.8450 O   0  0  0  0  0  0  0  0  0  0  0  0
    9.9466  -16.6075   20.9188 C   0  0  2  0  0  0  0  0  0  0  0  0
   10.9619  -16.1462   20.0252 N   0  0  0  0  0  0  0  0  0  0  0  0
    9.9437  -15.8226   22.2096 C   0  0  0  0  0  0  0  0  0  0  0  0
   10.9445  -15.1722   22.5636 O   0  0  0  0  0  0  0  0  0  0  0  0
    6.0529  -11.1861   26.2608 C   0  0  0  0  0  0  0  0  0  0  0  0
    5.8748  -12.9976   26.1188 S   0  0  0  0  0  0  0  0  0  0  0  0
    6.7473  -13.4979   24.6093 C   0  0  0  0  0  0  0  0  0  0  0  0
    7.1160  -14.9581   24.6444 C   0  0  0  0  0  0  0  0  0  0  0  0
    8.5779  -15.2134   24.2824 C   0  0  2  0  0  0  0  0  0  0  0  0
    8.7943  -15.8260   23.0244 N   0  0  0  0  0  0  0  0  0  0  0  0
    9.2778  -15.7236   25.4367 C   0  0  0  0  0  0  0  0  0  0  0  0
    9.7081  -16.9267   25.3540 O   0  0  0  0  0  0  0  0  0  0  0  0
   10.9347  -13.4149   28.6198 C   0  0  0  0  0  0  0  0  0  0  0  0
   10.4344  -14.7927   28.9103 C   0  0  2  0  0  0  0  0  0  0  0  0
   11.4224  -15.4716   29.8372 C   0  0  0  0  0  0  0  0  0  0  0  0
   10.3500  -15.6161   27.6440 C   0  0  2  0  0  0  0  0  0  0  0  0
    9.5216  -15.0016   26.6403 N   0  0  0  0  0  0  0  0  0  0  0  0
    9.7045  -16.9234   28.0175 C   0  0  0  0  0  0  0  0  0  0  0  0
    8.3344  -17.1338   27.8355 O   0  0  0  0  0  0  0  0  0  0  0  0
   10.3665  -17.8680   28.5029 O   0  0  0  0  0  0  0  0  0  0  0  0
  2  1  1  6
  2  4  1  0
  3  2  1  0
  4  6  1  0
  4  5  1  6
  6  7  2  0
  9 10  1  0
  9  8  1  0
 12 11  1  1
 11 10  1  0
 13 12  1  0
 13  6  1  0
 14 20  1  0
 14 12  1  0
 15 14  2  0
 17 16  1  6
 17 18  1  0
 19 20  1  6
 19 17  1  0
 21 19  1  0
 22 21  1  0
 23 21  2  0
M  END
$$$$
