TMV.pdb
     RDKit          3D

 23 22  0  0  1  0  0  0  0  0999 V2000
    8.2308  -18.2649   19.0938 C   0  0  0  0  0  0  0  0  0  0  0  0
    8.5966  -17.7205   20.4512 C   0  0  1  0  0  0  0  0  0  0  0  0
    9.5194  -18.5762   21.0667 O   0  0  0  0  0  0  0  0  0  0  0  0
    9.0705  -16.3084   20.4118 C   0  0  2  0  0  0  0  0  0  0  0  0
   10.1712  -16.1831   19.5090 N   0  0  0  0  0  0  0  0  0  0  0  0
    9.4279  -15.8183   21.7954 C   0  0  0  0  0  0  0  0  0  0  0  0
   10.5985  -15.8854   22.2140 O   0  0  0  0  0  0  0  0  0  0  0  0
    6.7884  -11.2878   27.6577 C   0  0  0  0  0  0  0  0  0  0  0  0
    6.1471  -12.3932   26.3538 S   0  0  0  0  0  0  0  0  0  0  0  0
    7.5172  -13.4718   25.8542 C   0  0  0  0  0  0  0  0  0  0  0  0
    7.3514  -13.9519   24.4360 C   0  0  0  0  0  0  0  0  0  0  0  0
    8.5030  -14.8397   23.9680 C   0  0  2  0  0  0  0  0  0  0  0  0
    8.4245  -15.2783   22.6240 N   0  0  0  0  0  0  0  0  0  0  0  0
    8.8206  -15.7994   24.9979 C   0  0  0  0  0  0  0  0  0  0  0  0
    7.9604  -16.7271   25.1945 O   0  0  0  0  0  0  0  0  0  0  0  0
   12.6924  -16.3757   26.7850 C   0  0  0  0  0  0  0  0  0  0  0  0
   11.7170  -17.4401   26.3998 C   0  0  2  0  0  0  0  0  0  0  0  0
   11.9126  -17.7552   24.9305 C   0  0  0  0  0  0  0  0  0  0  0  0
   10.2935  -16.9619   26.5829 C   0  0  2  0  0  0  0  0  0  0  0  0
    9.9991  -15.7920   25.7982 N   0  0  0  0  0  0  0  0  0  0  0  0
   10.1465  -16.5778   28.0307 C   0  0  0  0  0  0  0  0  0  0  0  0
   10.3581  -17.5080   29.0529 O   0  0  0  0  0  0  0  0  0  0  0  0
    9.8310  -15.4164   28.3736 O   0  0  0  0  0  0  0  0  0  0  0  0
  2  1  1  6
  2  4  1  0
  3  2  1  0
  4  6  1  0
  4  5  1  6
  6  7  2  0
  9 10  1  0
  9  8  1  0
 12 11  1  1
 11 10  1  0
 13 12  1  0
 13  6  1  0
 14 20  1  0
 14 12  1  0
 15 14  2  0
 17 16  1  6
 17 18  1  0
 19 20  1  6
 19 17  1  0
 21 19  1  0
 22 21  1  0
 23 21  2  0
M  END
$$$$
