TMV.pdb
     RDKit          3D

 23 22  0  0  1  0  0  0  0  0999 V2000
    9.4674  -19.0763   20.0397 C   0  0  0  0  0  0  0  0  0  0  0  0
    9.6528  -18.2551   21.2903 C   0  0  1  0  0  0  0  0  0  0  0  0
   10.7412  -18.7507   22.0199 O   0  0  0  0  0  0  0  0  0  0  0  0
    9.7660  -16.7934   21.0244 C   0  0  2  0  0  0  0  0  0  0  0  0
   10.8591  -16.5368   20.1403 N   0  0  0  0  0  0  0  0  0  0  0  0
    9.8997  -16.0172   22.3135 C   0  0  0  0  0  0  0  0  0  0  0  0
   11.0207  -15.7211   22.7671 O   0  0  0  0  0  0  0  0  0  0  0  0
    5.8441  -11.2974   27.0157 C   0  0  0  0  0  0  0  0  0  0  0  0
    5.5721  -12.8551   26.1032 S   0  0  0  0  0  0  0  0  0  0  0  0
    7.2013  -13.6115   25.8510 C   0  0  0  0  0  0  0  0  0  0  0  0
    7.2243  -14.4702   24.6134 C   0  0  0  0  0  0  0  0  0  0  0  0
    8.6202  -14.9883   24.2724 C   0  0  2  0  0  0  0  0  0  0  0  0
    8.7418  -15.6228   23.0125 N   0  0  0  0  0  0  0  0  0  0  0  0
    9.1943  -15.6257   25.4330 C   0  0  0  0  0  0  0  0  0  0  0  0
    9.1216  -16.9033   25.4735 O   0  0  0  0  0  0  0  0  0  0  0  0
    9.6367  -14.7291   29.5138 C   0  0  0  0  0  0  0  0  0  0  0  0
   10.8850  -14.9826   28.7327 C   0  0  2  0  0  0  0  0  0  0  0  0
   11.4842  -13.6453   28.3466 C   0  0  0  0  0  0  0  0  0  0  0  0
   10.5815  -15.7369   27.4570 C   0  0  2  0  0  0  0  0  0  0  0  0
    9.8247  -14.9515   26.5181 N   0  0  0  0  0  0  0  0  0  0  0  0
    9.7301  -16.9170   27.8415 C   0  0  0  0  0  0  0  0  0  0  0  0
    8.3923  -17.0059   27.4451 O   0  0  0  0  0  0  0  0  0  0  0  0
   10.1849  -17.8597   28.5274 O   0  0  0  0  0  0  0  0  0  0  0  0
  2  1  1  6
  2  4  1  0
  3  2  1  0
  4  6  1  0
  4  5  1  6
  6  7  2  0
  9 10  1  0
  9  8  1  0
 12 11  1  1
 11 10  1  0
 13 12  1  0
 13  6  1  0
 14 20  1  0
 14 12  1  0
 15 14  2  0
 17 16  1  6
 17 18  1  0
 19 20  1  6
 19 17  1  0
 21 19  1  0
 22 21  1  0
 23 21  2  0
M  END
$$$$
