TMV.pdb
     RDKit          3D

 23 22  0  0  1  0  0  0  0  0999 V2000
   11.6053  -18.1896   21.2534 C   0  0  0  0  0  0  0  0  0  0  0  0
   10.1469  -17.9873   20.9294 C   0  0  1  0  0  0  0  0  0  0  0  0
    9.3614  -18.7381   21.8136 O   0  0  0  0  0  0  0  0  0  0  0  0
    9.7450  -16.5530   20.8909 C   0  0  2  0  0  0  0  0  0  0  0  0
   10.4790  -15.8628   19.8775 N   0  0  0  0  0  0  0  0  0  0  0  0
    9.9212  -15.9046   22.2440 C   0  0  0  0  0  0  0  0  0  0  0  0
   11.0166  -15.4186   22.5812 O   0  0  0  0  0  0  0  0  0  0  0  0
    6.2752  -12.9096   26.8401 C   0  0  0  0  0  0  0  0  0  0  0  0
    5.8266  -12.5360   25.1101 S   0  0  0  0  0  0  0  0  0  0  0  0
    6.8104  -13.6392   24.0588 C   0  0  0  0  0  0  0  0  0  0  0  0
    7.3343  -14.8185   24.8360 C   0  0  0  0  0  0  0  0  0  0  0  0
    8.7404  -15.2368   24.4102 C   0  0  2  0  0  0  0  0  0  0  0  0
    8.8327  -15.8488   23.1368 N   0  0  0  0  0  0  0  0  0  0  0  0
    9.4211  -15.8451   25.5279 C   0  0  0  0  0  0  0  0  0  0  0  0
    9.6845  -17.0935   25.4213 O   0  0  0  0  0  0  0  0  0  0  0  0
    9.7582  -14.6521   29.6431 C   0  0  0  0  0  0  0  0  0  0  0  0
   10.9775  -15.0567   28.8800 C   0  0  2  0  0  0  0  0  0  0  0  0
   11.6605  -13.8018   28.3749 C   0  0  0  0  0  0  0  0  0  0  0  0
   10.6093  -15.8968   27.6771 C   0  0  2  0  0  0  0  0  0  0  0  0
    9.8149  -15.1724   26.7203 N   0  0  0  0  0  0  0  0  0  0  0  0
    9.7683  -17.0374   28.1841 C   0  0  0  0  0  0  0  0  0  0  0  0
   10.3254  -18.0627   28.9543 O   0  0  0  0  0  0  0  0  0  0  0  0
    8.5437  -17.1114   27.9371 O   0  0  0  0  0  0  0  0  0  0  0  0
  2  1  1  1
  2  4  1  0
  3  2  1  0
  4  6  1  0
  4  5  1  6
  6  7  2  0
  9 10  1  0
  9  8  1  0
 12 11  1  1
 11 10  1  0
 13 12  1  0
 13  6  1  0
 14 20  1  0
 14 12  1  0
 15 14  2  0
 17 16  1  6
 17 18  1  0
 19 20  1  6
 19 17  1  0
 21 19  1  0
 22 21  1  0
 23 21  2  0
M  END
$$$$
