TMV.pdb
     RDKit          3D

 23 22  0  0  1  0  0  0  0  0999 V2000
    8.4066  -17.3457   19.6384 C   0  0  0  0  0  0  0  0  0  0  0  0
    7.2188  -16.4358   19.8226 C   0  0  1  0  0  0  0  0  0  0  0  0
    6.3492  -16.9862   20.7731 O   0  0  0  0  0  0  0  0  0  0  0  0
    7.5966  -15.0310   20.1451 C   0  0  2  0  0  0  0  0  0  0  0  0
    8.3797  -14.4761   19.0863 N   0  0  0  0  0  0  0  0  0  0  0  0
    8.3192  -14.9550   21.4696 C   0  0  0  0  0  0  0  0  0  0  0  0
    9.5292  -15.2361   21.5538 O   0  0  0  0  0  0  0  0  0  0  0  0
    6.5555  -10.9216   26.6252 C   0  0  0  0  0  0  0  0  0  0  0  0
    6.6280  -12.5876   27.3686 S   0  0  0  0  0  0  0  0  0  0  0  0
    7.7025  -13.5933   26.3084 C   0  0  0  0  0  0  0  0  0  0  0  0
    7.1278  -13.7413   24.9238 C   0  0  0  0  0  0  0  0  0  0  0  0
    8.0564  -14.4894   23.9690 C   0  0  2  0  0  0  0  0  0  0  0  0
    7.6161  -14.5614   22.6253 N   0  0  0  0  0  0  0  0  0  0  0  0
    8.5418  -15.6880   24.6096 C   0  0  0  0  0  0  0  0  0  0  0  0
    7.7207  -16.6680   24.6776 O   0  0  0  0  0  0  0  0  0  0  0  0
   11.9965  -17.5103   23.8861 C   0  0  0  0  0  0  0  0  0  0  0  0
   11.6964  -17.4600   25.3490 C   0  0  2  0  0  0  0  0  0  0  0  0
   12.0098  -18.8173   25.9456 C   0  0  0  0  0  0  0  0  0  0  0  0
   10.2300  -17.1777   25.5913 C   0  0  2  0  0  0  0  0  0  0  0  0
    9.8435  -15.8595   25.1623 N   0  0  0  0  0  0  0  0  0  0  0  0
   10.0143  -17.2448   27.0794 C   0  0  0  0  0  0  0  0  0  0  0  0
    9.9628  -18.4704   27.7502 O   0  0  0  0  0  0  0  0  0  0  0  0
    9.8736  -16.2108   27.7702 O   0  0  0  0  0  0  0  0  0  0  0  0
  2  1  1  1
  2  4  1  0
  3  2  1  0
  4  6  1  0
  4  5  1  6
  6  7  2  0
  9 10  1  0
  9  8  1  0
 12 11  1  1
 11 10  1  0
 13 12  1  0
 13  6  1  0
 14 20  1  0
 14 12  1  0
 15 14  2  0
 17 16  1  6
 17 18  1  0
 19 20  1  1
 19 17  1  0
 21 19  1  0
 22 21  1  0
 23 21  2  0
M  END
$$$$
