TMV.pdb
     RDKit          3D

 23 22  0  0  1  0  0  0  0  0999 V2000
    6.3200  -15.7052   18.9782 C   0  0  0  0  0  0  0  0  0  0  0  0
    7.0034  -15.6749   20.3216 C   0  0  1  0  0  0  0  0  0  0  0  0
    8.1252  -16.5136   20.2964 O   0  0  0  0  0  0  0  0  0  0  0  0
    7.3346  -14.2975   20.7836 C   0  0  2  0  0  0  0  0  0  0  0  0
    8.0763  -13.6054   19.7771 N   0  0  0  0  0  0  0  0  0  0  0  0
    8.0787  -14.3314   22.0979 C   0  0  0  0  0  0  0  0  0  0  0  0
    9.3223  -14.3820   22.1264 O   0  0  0  0  0  0  0  0  0  0  0  0
    7.7615  -11.0006   27.8285 C   0  0  0  0  0  0  0  0  0  0  0  0
    6.2125  -11.6630   27.1248 S   0  0  0  0  0  0  0  0  0  0  0  0
    6.6426  -12.4527   25.5496 C   0  0  0  0  0  0  0  0  0  0  0  0
    6.9141  -13.9238   25.7269 C   0  0  0  0  0  0  0  0  0  0  0  0
    7.8122  -14.5009   24.6343 C   0  0  2  0  0  0  0  0  0  0  0  0
    7.3572  -14.3057   23.3078 N   0  0  0  0  0  0  0  0  0  0  0  0
    8.2700  -15.8112   25.0293 C   0  0  0  0  0  0  0  0  0  0  0  0
    7.4034  -16.7527   24.9854 O   0  0  0  0  0  0  0  0  0  0  0  0
   12.2730  -17.1096   25.2274 C   0  0  0  0  0  0  0  0  0  0  0  0
   11.1026  -18.0183   25.0344 C   0  0  2  0  0  0  0  0  0  0  0  0
   10.7639  -18.0504   23.5577 C   0  0  0  0  0  0  0  0  0  0  0  0
    9.8885  -17.5019   25.7745 C   0  0  2  0  0  0  0  0  0  0  0  0
    9.5909  -16.1301   25.4571 N   0  0  0  0  0  0  0  0  0  0  0  0
   10.2164  -17.5602   27.2423 C   0  0  0  0  0  0  0  0  0  0  0  0
   10.5295  -18.7708   27.8679 O   0  0  0  0  0  0  0  0  0  0  0  0
   10.2216  -16.5321   27.9558 O   0  0  0  0  0  0  0  0  0  0  0  0
  2  1  1  6
  2  4  1  0
  3  2  1  0
  4  6  1  0
  4  5  1  6
  6  7  2  0
  9 10  1  0
  9  8  1  0
 12 11  1  1
 11 10  1  0
 13 12  1  0
 13  6  1  0
 14 20  1  0
 14 12  1  0
 15 14  2  0
 17 16  1  6
 17 18  1  0
 19 20  1  6
 19 17  1  0
 21 19  1  0
 22 21  1  0
 23 21  2  0
M  END
$$$$
