TMV.pdb
     RDKit          3D

 23 22  0  0  1  0  0  0  0  0999 V2000
    6.5970  -14.2688   17.9378 C   0  0  0  0  0  0  0  0  0  0  0  0
    7.1070  -14.5297   19.3323 C   0  0  1  0  0  0  0  0  0  0  0  0
    8.0912  -15.5259   19.2932 O   0  0  0  0  0  0  0  0  0  0  0  0
    7.5733  -13.2982   20.0296 C   0  0  2  0  0  0  0  0  0  0  0  0
    8.5602  -12.6296   19.2414 N   0  0  0  0  0  0  0  0  0  0  0  0
    8.0910  -13.6214   21.4115 C   0  0  0  0  0  0  0  0  0  0  0  0
    9.2956  -13.8735   21.5992 O   0  0  0  0  0  0  0  0  0  0  0  0
    6.2479  -11.0226   27.0083 C   0  0  0  0  0  0  0  0  0  0  0  0
    7.4987  -12.3522   26.9710 S   0  0  0  0  0  0  0  0  0  0  0  0
    6.6912  -13.8183   26.2721 C   0  0  0  0  0  0  0  0  0  0  0  0
    6.3155  -13.6050   24.8289 C   0  0  0  0  0  0  0  0  0  0  0  0
    7.4416  -13.9611   23.8602 C   0  0  2  0  0  0  0  0  0  0  0  0
    7.2001  -13.6383   22.5029 N   0  0  0  0  0  0  0  0  0  0  0  0
    7.9611  -15.2677   24.1850 C   0  0  0  0  0  0  0  0  0  0  0  0
    7.1417  -16.2462   24.0829 O   0  0  0  0  0  0  0  0  0  0  0  0
   12.0598  -16.3599   24.6669 C   0  0  0  0  0  0  0  0  0  0  0  0
   10.9773  -17.2953   24.2357 C   0  0  2  0  0  0  0  0  0  0  0  0
   10.8262  -17.1866   22.7318 C   0  0  0  0  0  0  0  0  0  0  0  0
    9.6529  -16.9154   24.8604 C   0  0  2  0  0  0  0  0  0  0  0  0
    9.2942  -15.5456   24.6034 N   0  0  0  0  0  0  0  0  0  0  0  0
    9.8161  -17.0631   26.3494 C   0  0  0  0  0  0  0  0  0  0  0  0
   10.0744  -18.3081   26.9306 O   0  0  0  0  0  0  0  0  0  0  0  0
    9.7275  -16.0815   27.1206 O   0  0  0  0  0  0  0  0  0  0  0  0
  2  1  1  6
  2  4  1  0
  3  2  1  0
  4  6  1  0
  4  5  1  6
  6  7  2  0
  9 10  1  0
  9  8  1  0
 12 11  1  1
 11 10  1  0
 13 12  1  0
 13  6  1  0
 14 20  1  0
 14 12  1  0
 15 14  2  0
 17 16  1  1
 17 18  1  0
 19 20  1  1
 19 17  1  0
 21 19  1  0
 22 21  1  0
 23 21  2  0
M  END
$$$$
