HWC.pdb
     RDKit          3D

 31 33  0  0  1  0  0  0  0  0999 V2000
   10.2070  -17.8823   18.9238 N   0  0  0  0  0  0  0  0  0  0  0  0
    9.0604  -17.8466   19.7754 C   0  0  1  0  0  0  0  0  0  0  0  0
    8.4349  -19.1968   19.9617 C   0  0  0  0  0  0  0  0  0  0  0  0
    7.8662  -19.6659   18.6895 C   0  0  0  0  0  0  0  0  0  0  0  0
    7.9424  -19.0104   17.4673 C   0  0  0  0  0  0  0  0  0  0  0  0
    7.2998  -19.7508   16.5251 N   0  0  0  0  0  0  0  0  0  0  0  0
    6.8385  -20.8404   17.1608 C   0  0  0  0  0  0  0  0  0  0  0  0
    7.1712  -20.8036   18.4619 N   0  0  0  0  0  0  0  0  0  0  0  0
    9.4017  -17.3118   21.1448 C   0  0  0  0  0  0  0  0  0  0  0  0
   10.4887  -17.6238   21.6684 O   0  0  0  0  0  0  0  0  0  0  0  0
    8.4905  -16.4645   21.8214 N   0  0  0  0  0  0  0  0  0  0  0  0
    8.6406  -15.9182   23.1278 C   0  0  1  0  0  0  0  0  0  0  0  0
    7.7377  -14.7369   23.4491 C   0  0  0  0  0  0  0  0  0  0  0  0
    7.8198  -14.4320   24.8952 C   0  0  0  0  0  0  0  0  0  0  0  0
    8.3655  -15.1022   25.9571 C   0  0  0  0  0  0  0  0  0  0  0  0
    8.1848  -14.4126   27.0969 N   0  0  0  0  0  0  0  0  0  0  0  0
    7.5269  -13.2836   26.8338 C   0  0  0  0  0  0  0  0  0  0  0  0
    7.1150  -12.2499   27.6819 C   0  0  0  0  0  0  0  0  0  0  0  0
    6.4510  -11.2009   27.0908 C   0  0  0  0  0  0  0  0  0  0  0  0
    6.1979  -11.1567   25.7373 C   0  0  0  0  0  0  0  0  0  0  0  0
    6.6152  -12.1904   24.9222 C   0  0  0  0  0  0  0  0  0  0  0  0
    7.2815  -13.2603   25.4655 C   0  0  0  0  0  0  0  0  0  0  0  0
    8.7724  -16.8878   24.2094 C   0  0  0  0  0  0  0  0  0  0  0  0
    7.8682  -17.7345   24.4185 O   0  0  0  0  0  0  0  0  0  0  0  0
    9.9619  -16.8378   25.0172 N   0  0  0  0  0  0  0  0  0  0  0  0
   10.3243  -17.9519   25.8692 C   0  0  1  0  0  0  0  0  0  0  0  0
   11.5611  -18.6406   25.3460 C   0  0  0  0  0  0  0  0  0  0  0  0
   11.0509  -19.7111   23.9591 S   0  0  0  0  0  0  0  0  0  0  0  0
   10.5973  -17.4688   27.2392 C   0  0  0  0  0  0  0  0  0  0  0  0
   10.4538  -16.2481   27.5057 O   0  0  0  0  0  0  0  0  0  0  0  0
   11.0096  -18.3029   28.2638 O   0  0  0  0  0  0  0  0  0  0  0  0
  2  1  1  6
  2  3  1  0
  3  4  1  0
  4  8  1  0
  4  5  2  0
  5  6  1  0
  7  6  1  0
  8  7  2  0
  9  2  1  0
  9 10  2  0
 11  9  1  0
 12 11  1  0
 12 13  1  1
 13 14  1  0
 14 15  2  0
 14 22  1  0
 15 16  1  0
 16 17  1  0
 17 18  2  0
 18 19  1  0
 20 19  2  0
 21 20  1  0
 22 21  2  0
 22 17  1  0
 23 12  1  0
 24 23  2  0
 25 23  1  0
 26 29  1  0
 26 25  1  0
 27 28  1  0
 26 27  1  6
 29 31  1  0
 30 29  2  0
M  END
$$$$
