HWC.pdb
     RDKit          3D

 31 33  0  0  1  0  0  0  0  0999 V2000
    9.3163  -13.4956   18.3034 N   0  0  0  0  0  0  0  0  0  0  0  0
    8.8720  -14.7586   18.8020 C   0  0  1  0  0  0  0  0  0  0  0  0
    9.5857  -15.9153   18.1680 C   0  0  0  0  0  0  0  0  0  0  0  0
    9.2035  -16.0254   16.7525 C   0  0  0  0  0  0  0  0  0  0  0  0
    9.4166  -15.0672   15.7697 C   0  0  0  0  0  0  0  0  0  0  0  0
    8.9271  -15.5267   14.5874 N   0  0  0  0  0  0  0  0  0  0  0  0
    8.4232  -16.7452   14.8431 C   0  0  0  0  0  0  0  0  0  0  0  0
    8.5821  -17.0587   16.1398 N   0  0  0  0  0  0  0  0  0  0  0  0
    9.0686  -14.8671   20.2945 C   0  0  0  0  0  0  0  0  0  0  0  0
   10.1995  -14.6651   20.7775 O   0  0  0  0  0  0  0  0  0  0  0  0
    7.9737  -15.1957   21.1308 N   0  0  0  0  0  0  0  0  0  0  0  0
    7.9910  -15.3276   22.5485 C   0  0  1  0  0  0  0  0  0  0  0  0
    6.6399  -15.1896   23.2335 C   0  0  0  0  0  0  0  0  0  0  0  0
    6.8388  -15.0522   24.6939 C   0  0  0  0  0  0  0  0  0  0  0  0
    6.8556  -15.9593   25.7193 C   0  0  0  0  0  0  0  0  0  0  0  0
    7.0760  -15.3436   26.8938 N   0  0  0  0  0  0  0  0  0  0  0  0
    7.2110  -14.0333   26.6903 C   0  0  0  0  0  0  0  0  0  0  0  0
    7.4544  -12.9913   27.5917 C   0  0  0  0  0  0  0  0  0  0  0  0
    7.5480  -11.7281   27.0564 C   0  0  0  0  0  0  0  0  0  0  0  0
    7.4117  -11.4867   25.7069 C   0  0  0  0  0  0  0  0  0  0  0  0
    7.1716  -12.5334   24.8385 C   0  0  0  0  0  0  0  0  0  0  0  0
    7.0691  -13.8127   25.3250 C   0  0  0  0  0  0  0  0  0  0  0  0
    8.8273  -16.4002   23.0754 C   0  0  0  0  0  0  0  0  0  0  0  0
    8.5868  -17.5975   22.7810 O   0  0  0  0  0  0  0  0  0  0  0  0
    9.9236  -16.0390   23.9343 N   0  0  0  0  0  0  0  0  0  0  0  0
   10.8291  -17.0495   24.4419 C   0  0  1  0  0  0  0  0  0  0  0  0
   12.2414  -16.5198   24.4932 C   0  0  0  0  0  0  0  0  0  0  0  0
   12.6294  -15.8244   22.8514 S   0  0  0  0  0  0  0  0  0  0  0  0
   10.4244  -17.4470   25.8068 C   0  0  0  0  0  0  0  0  0  0  0  0
    9.4558  -16.8658   26.3597 O   0  0  0  0  0  0  0  0  0  0  0  0
   11.0657  -18.4431   26.5223 O   0  0  0  0  0  0  0  0  0  0  0  0
  2  1  1  6
  2  3  1  0
  3  4  1  0
  4  8  1  0
  4  5  2  0
  5  6  1  0
  7  6  1  0
  8  7  2  0
  9  2  1  0
  9 10  2  0
 11  9  1  0
 12 11  1  0
 12 13  1  6
 13 14  1  0
 14 15  2  0
 14 22  1  0
 15 16  1  0
 16 17  1  0
 17 18  2  0
 18 19  1  0
 20 19  2  0
 21 20  1  0
 22 21  2  0
 22 17  1  0
 23 12  1  0
 24 23  2  0
 25 23  1  0
 26 29  1  0
 26 25  1  0
 27 28  1  0
 26 27  1  1
 29 31  1  0
 30 29  2  0
M  END
$$$$
