HWC.pdb
     RDKit          3D

 31 33  0  0  1  0  0  0  0  0999 V2000
   10.6377  -16.5813   18.3679 N   0  0  0  0  0  0  0  0  0  0  0  0
    9.8033  -17.3229   19.2595 C   0  0  1  0  0  0  0  0  0  0  0  0
   10.2386  -18.7504   19.4078 C   0  0  0  0  0  0  0  0  0  0  0  0
   10.0362  -19.4703   18.1418 C   0  0  0  0  0  0  0  0  0  0  0  0
    8.8542  -20.0636   17.7170 C   0  0  0  0  0  0  0  0  0  0  0  0
    9.0554  -20.6320   16.4983 N   0  0  0  0  0  0  0  0  0  0  0  0
   10.3385  -20.3903   16.1835 C   0  0  0  0  0  0  0  0  0  0  0  0
   10.9408  -19.6931   17.1613 N   0  0  0  0  0  0  0  0  0  0  0  0
    9.7806  -16.7099   20.6385 C   0  0  0  0  0  0  0  0  0  0  0  0
   10.8456  -16.3069   21.1450 O   0  0  0  0  0  0  0  0  0  0  0  0
    8.5572  -16.5976   21.3434 N   0  0  0  0  0  0  0  0  0  0  0  0
    8.3757  -16.1023   22.6660 C   0  0  1  0  0  0  0  0  0  0  0  0
    6.9845  -15.5730   22.9796 C   0  0  0  0  0  0  0  0  0  0  0  0
    6.9144  -15.1845   24.4063 C   0  0  0  0  0  0  0  0  0  0  0  0
    6.6423  -15.8878   25.5490 C   0  0  0  0  0  0  0  0  0  0  0  0
    6.6967  -15.0839   26.6252 N   0  0  0  0  0  0  0  0  0  0  0  0
    7.0017  -13.8450   26.2395 C   0  0  0  0  0  0  0  0  0  0  0  0
    7.1744  -12.6745   26.9862 C   0  0  0  0  0  0  0  0  0  0  0  0
    7.4974  -11.5398   26.2798 C   0  0  0  0  0  0  0  0  0  0  0  0
    7.6464  -11.5407   24.9102 C   0  0  0  0  0  0  0  0  0  0  0  0
    7.4702  -12.7099   24.1968 C   0  0  0  0  0  0  0  0  0  0  0  0
    7.1462  -13.8688   24.8569 C   0  0  0  0  0  0  0  0  0  0  0  0
    8.9700  -16.9033   23.7303 C   0  0  0  0  0  0  0  0  0  0  0  0
    8.5558  -18.0673   23.9574 O   0  0  0  0  0  0  0  0  0  0  0  0
   10.0345  -16.3166   24.5000 N   0  0  0  0  0  0  0  0  0  0  0  0
   10.8047  -17.1190   25.4282 C   0  0  1  0  0  0  0  0  0  0  0  0
   12.2259  -16.6179   25.5114 C   0  0  0  0  0  0  0  0  0  0  0  0
   12.9197  -16.6453   23.8239 S   0  0  0  0  0  0  0  0  0  0  0  0
   10.2001  -17.0484   26.7752 C   0  0  0  0  0  0  0  0  0  0  0  0
    9.1444  -16.3867   26.9464 O   0  0  0  0  0  0  0  0  0  0  0  0
   10.7430  -17.6835   27.8785 O   0  0  0  0  0  0  0  0  0  0  0  0
  2  1  1  6
  2  3  1  0
  3  4  1  0
  4  8  1  0
  4  5  2  0
  5  6  1  0
  7  6  1  0
  8  7  2  0
  9  2  1  0
  9 10  2  0
 11  9  1  0
 12 11  1  0
 12 13  1  1
 13 14  1  0
 14 15  2  0
 14 22  1  0
 15 16  1  0
 16 17  1  0
 17 18  2  0
 18 19  1  0
 20 19  2  0
 21 20  1  0
 22 21  2  0
 22 17  1  0
 23 12  1  0
 24 23  2  0
 25 23  1  0
 26 29  1  0
 26 25  1  0
 27 28  1  0
 26 27  1  1
 29 31  1  0
 30 29  2  0
M  END
$$$$
