HWC.pdb
     RDKit          3D

 31 33  0  0  1  0  0  0  0  0999 V2000
   10.3095  -15.4991   19.6887 N   0  0  0  0  0  0  0  0  0  0  0  0
    9.8753  -16.6842   20.3582 C   0  0  1  0  0  0  0  0  0  0  0  0
   10.6063  -17.9102   19.8982 C   0  0  0  0  0  0  0  0  0  0  0  0
   10.4183  -18.0928   18.4514 C   0  0  0  0  0  0  0  0  0  0  0  0
    9.2613  -18.5393   17.8258 C   0  0  0  0  0  0  0  0  0  0  0  0
    9.4692  -18.5785   16.4827 N   0  0  0  0  0  0  0  0  0  0  0  0
   10.7319  -18.1630   16.2906 C   0  0  0  0  0  0  0  0  0  0  0  0
   11.3150  -17.8674   17.4642 N   0  0  0  0  0  0  0  0  0  0  0  0
   10.0619  -16.5784   21.8521 C   0  0  0  0  0  0  0  0  0  0  0  0
   11.1910  -16.3150   22.3091 O   0  0  0  0  0  0  0  0  0  0  0  0
    8.9599  -16.7781   22.7192 N   0  0  0  0  0  0  0  0  0  0  0  0
    8.9780  -16.7561   24.1429 C   0  0  1  0  0  0  0  0  0  0  0  0
    7.6447  -16.4502   24.8081 C   0  0  0  0  0  0  0  0  0  0  0  0
    7.1900  -15.1006   24.4045 C   0  0  0  0  0  0  0  0  0  0  0  0
    6.6304  -14.6137   23.2536 C   0  0  0  0  0  0  0  0  0  0  0  0
    6.3868  -13.2963   23.3651 N   0  0  0  0  0  0  0  0  0  0  0  0
    6.7684  -12.8741   24.5704 C   0  0  0  0  0  0  0  0  0  0  0  0
    6.7137  -11.6019   25.1500 C   0  0  0  0  0  0  0  0  0  0  0  0
    7.1895  -11.4939   26.4356 C   0  0  0  0  0  0  0  0  0  0  0  0
    7.6958  -12.5720   27.1280 C   0  0  0  0  0  0  0  0  0  0  0  0
    7.7386  -13.8173   26.5324 C   0  0  0  0  0  0  0  0  0  0  0  0
    7.2759  -13.9758   25.2500 C   0  0  0  0  0  0  0  0  0  0  0  0
    9.7412  -17.8210   24.7839 C   0  0  0  0  0  0  0  0  0  0  0  0
    9.5125  -19.0243   24.5048 O   0  0  0  0  0  0  0  0  0  0  0  0
   10.7525  -17.4454   25.7358 N   0  0  0  0  0  0  0  0  0  0  0  0
   11.5310  -18.4546   26.4245 C   0  0  1  0  0  0  0  0  0  0  0  0
   12.9999  -18.1102   26.3863 C   0  0  0  0  0  0  0  0  0  0  0  0
   13.4442  -17.7825   24.6470 S   0  0  0  0  0  0  0  0  0  0  0  0
   11.1035  -18.5420   27.8367 C   0  0  0  0  0  0  0  0  0  0  0  0
   10.1943  -17.7814   28.2569 O   0  0  0  0  0  0  0  0  0  0  0  0
   11.6598  -19.4325   28.7382 O   0  0  0  0  0  0  0  0  0  0  0  0
  2  1  1  6
  2  3  1  0
  3  4  1  0
  4  8  1  0
  4  5  2  0
  5  6  1  0
  7  6  1  0
  8  7  2  0
  9  2  1  0
  9 10  2  0
 11  9  1  0
 12 11  1  0
 12 13  1  1
 13 14  1  0
 14 15  2  0
 14 22  1  0
 15 16  1  0
 16 17  1  0
 17 18  2  0
 18 19  1  0
 20 19  2  0
 21 20  1  0
 22 21  2  0
 22 17  1  0
 23 12  1  0
 24 23  2  0
 25 23  1  0
 26 29  1  0
 26 25  1  0
 27 28  1  0
 26 27  1  1
 29 31  1  0
 30 29  2  0
M  END
$$$$
