HWC.pdb
     RDKit          3D

 31 33  0  0  1  0  0  0  0  0999 V2000
    8.6835  -16.9173   20.9433 N   0  0  0  0  0  0  0  0  0  0  0  0
    9.4618  -15.7290   21.0964 C   0  0  1  0  0  0  0  0  0  0  0  0
    8.8359  -14.5373   20.4352 C   0  0  0  0  0  0  0  0  0  0  0  0
    8.8150  -14.7264   18.9772 C   0  0  0  0  0  0  0  0  0  0  0  0
    9.6881  -15.5172   18.2413 C   0  0  0  0  0  0  0  0  0  0  0  0
    9.3554  -15.4405   16.9252 N   0  0  0  0  0  0  0  0  0  0  0  0
    8.2968  -14.6166   16.8577 C   0  0  0  0  0  0  0  0  0  0  0  0
    7.9604  -14.1796   18.0828 N   0  0  0  0  0  0  0  0  0  0  0  0
    9.6689  -15.3840   22.5511 C   0  0  0  0  0  0  0  0  0  0  0  0
   10.2798  -14.3397   22.8498 O   0  0  0  0  0  0  0  0  0  0  0  0
    9.1709  -16.2439   23.5605 N   0  0  0  0  0  0  0  0  0  0  0  0
    9.3388  -16.0973   24.9669 C   0  0  1  0  0  0  0  0  0  0  0  0
    8.1383  -16.4945   25.8124 C   0  0  0  0  0  0  0  0  0  0  0  0
    7.0448  -15.5184   25.6062 C   0  0  0  0  0  0  0  0  0  0  0  0
    5.7500  -15.6491   25.1807 C   0  0  0  0  0  0  0  0  0  0  0  0
    5.1361  -14.4533   25.1548 N   0  0  0  0  0  0  0  0  0  0  0  0
    5.9866  -13.5084   25.5553 C   0  0  0  0  0  0  0  0  0  0  0  0
    5.8131  -12.1275   25.6990 C   0  0  0  0  0  0  0  0  0  0  0  0
    6.9017  -11.4171   26.1474 C   0  0  0  0  0  0  0  0  0  0  0  0
    8.1049  -12.0194   26.4432 C   0  0  0  0  0  0  0  0  0  0  0  0
    8.2497  -13.3846   26.2925 C   0  0  0  0  0  0  0  0  0  0  0  0
    7.1919  -14.1371   25.8471 C   0  0  0  0  0  0  0  0  0  0  0  0
   10.6236  -16.5345   25.5012 C   0  0  0  0  0  0  0  0  0  0  0  0
   11.3459  -17.3299   24.8502 O   0  0  0  0  0  0  0  0  0  0  0  0
   11.0266  -16.0267   26.7856 N   0  0  0  0  0  0  0  0  0  0  0  0
   12.1715  -16.5851   27.4754 C   0  0  1  0  0  0  0  0  0  0  0  0
   12.4703  -15.8013   28.7300 C   0  0  0  0  0  0  0  0  0  0  0  0
   10.8921  -15.5468   29.6099 S   0  0  0  0  0  0  0  0  0  0  0  0
   11.8972  -17.9884   27.8500 C   0  0  0  0  0  0  0  0  0  0  0  0
   10.7239  -18.4337   27.7673 O   0  0  0  0  0  0  0  0  0  0  0  0
   12.8803  -18.8551   28.2948 O   0  0  0  0  0  0  0  0  0  0  0  0
  2  1  1  1
  2  3  1  0
  3  4  1  0
  4  8  1  0
  4  5  2  0
  5  6  1  0
  7  6  1  0
  8  7  2  0
  9  2  1  0
  9 10  2  0
 11  9  1  0
 12 11  1  0
 12 13  1  1
 13 14  1  0
 14 15  2  0
 14 22  1  0
 15 16  1  0
 16 17  1  0
 17 18  2  0
 18 19  1  0
 20 19  2  0
 21 20  1  0
 22 21  2  0
 22 17  1  0
 23 12  1  0
 24 23  2  0
 25 23  1  0
 26 29  1  0
 26 25  1  0
 27 28  1  0
 26 27  1  1
 29 31  1  0
 30 29  2  0
M  END
$$$$
