HWC.pdb
     RDKit          3D

 31 33  0  0  1  0  0  0  0  0999 V2000
   10.6101  -15.8605   20.1466 N   0  0  0  0  0  0  0  0  0  0  0  0
   11.0142  -16.7049   21.2259 C   0  0  1  0  0  0  0  0  0  0  0  0
   12.4806  -17.0181   21.1986 C   0  0  0  0  0  0  0  0  0  0  0  0
   12.7787  -17.9263   20.0814 C   0  0  0  0  0  0  0  0  0  0  0  0
   11.8492  -18.5104   19.2304 C   0  0  0  0  0  0  0  0  0  0  0  0
   12.5021  -19.2857   18.3241 N   0  0  0  0  0  0  0  0  0  0  0  0
   13.8086  -19.1774   18.6163 C   0  0  0  0  0  0  0  0  0  0  0  0
   13.9905  -18.3638   19.6698 N   0  0  0  0  0  0  0  0  0  0  0  0
   10.7086  -16.0796   22.5651 C   0  0  0  0  0  0  0  0  0  0  0  0
   11.0363  -14.8957   22.7750 O   0  0  0  0  0  0  0  0  0  0  0  0
   10.0556  -16.8374   23.5678 N   0  0  0  0  0  0  0  0  0  0  0  0
    9.6651  -16.3867   24.8609 C   0  0  1  0  0  0  0  0  0  0  0  0
    8.1784  -16.4883   25.1662 C   0  0  0  0  0  0  0  0  0  0  0  0
    7.4742  -15.3243   24.5827 C   0  0  0  0  0  0  0  0  0  0  0  0
    6.9098  -15.0985   23.3559 C   0  0  0  0  0  0  0  0  0  0  0  0
    6.3798  -13.8643   23.2975 N   0  0  0  0  0  0  0  0  0  0  0  0
    6.5706  -13.2432   24.4612 C   0  0  0  0  0  0  0  0  0  0  0  0
    6.1994  -11.9614   24.8818 C   0  0  0  0  0  0  0  0  0  0  0  0
    6.5438  -11.6152   26.1672 C   0  0  0  0  0  0  0  0  0  0  0  0
    7.2181  -12.4741   27.0072 C   0  0  0  0  0  0  0  0  0  0  0  0
    7.5730  -13.7341   26.5671 C   0  0  0  0  0  0  0  0  0  0  0  0
    7.2521  -14.1260   25.2914 C   0  0  0  0  0  0  0  0  0  0  0  0
   10.5351  -16.7863   25.9613 C   0  0  0  0  0  0  0  0  0  0  0  0
   11.4027  -17.6794   25.7944 O   0  0  0  0  0  0  0  0  0  0  0  0
   10.3637  -16.1271   27.2286 N   0  0  0  0  0  0  0  0  0  0  0  0
   11.1816  -16.4906   28.3676 C   0  0  1  0  0  0  0  0  0  0  0  0
   11.0153  -15.4875   29.4829 C   0  0  0  0  0  0  0  0  0  0  0  0
   10.7695  -13.8489   28.7184 S   0  0  0  0  0  0  0  0  0  0  0  0
   10.7824  -17.8229   28.8682 C   0  0  0  0  0  0  0  0  0  0  0  0
    9.7900  -18.4040   28.3592 O   0  0  0  0  0  0  0  0  0  0  0  0
   11.4547  -18.4777   29.8853 O   0  0  0  0  0  0  0  0  0  0  0  0
  2  1  1  6
  2  3  1  0
  3  4  1  0
  4  8  1  0
  4  5  2  0
  5  6  1  0
  7  6  1  0
  8  7  2  0
  9  2  1  0
  9 10  2  0
 11  9  1  0
 12 11  1  0
 12 13  1  1
 13 14  1  0
 14 15  2  0
 14 22  1  0
 15 16  1  0
 16 17  1  0
 17 18  2  0
 18 19  1  0
 20 19  2  0
 21 20  1  0
 22 21  2  0
 22 17  1  0
 23 12  1  0
 24 23  2  0
 25 23  1  0
 26 29  1  0
 26 25  1  0
 27 28  1  0
 26 27  1  1
 29 31  1  0
 30 29  2  0
M  END
$$$$
