HWC.pdb
     RDKit          3D

 31 33  0  0  1  0  0  0  0  0999 V2000
    9.5687  -18.0749   20.1491 N   0  0  0  0  0  0  0  0  0  0  0  0
   10.2045  -16.8057   19.9875 C   0  0  1  0  0  0  0  0  0  0  0  0
    9.9276  -16.1852   18.6505 C   0  0  0  0  0  0  0  0  0  0  0  0
   10.5749  -16.9707   17.5894 C   0  0  0  0  0  0  0  0  0  0  0  0
   10.4095  -18.3307   17.3604 C   0  0  0  0  0  0  0  0  0  0  0  0
   11.1689  -18.6974   16.2938 N   0  0  0  0  0  0  0  0  0  0  0  0
   11.7880  -17.5804   15.8779 C   0  0  0  0  0  0  0  0  0  0  0  0
   11.4410  -16.5346   16.6465 N   0  0  0  0  0  0  0  0  0  0  0  0
    9.7610  -15.8235   21.0441 C   0  0  0  0  0  0  0  0  0  0  0  0
    9.1119  -14.8149   20.7060 O   0  0  0  0  0  0  0  0  0  0  0  0
   10.0835  -16.0529   22.4041 N   0  0  0  0  0  0  0  0  0  0  0  0
    9.3078  -15.6846   23.5399 C   0  0  1  0  0  0  0  0  0  0  0  0
    7.8001  -15.7284   23.3428 C   0  0  0  0  0  0  0  0  0  0  0  0
    7.1276  -15.2522   24.5725 C   0  0  0  0  0  0  0  0  0  0  0  0
    6.4183  -15.8939   25.5521 C   0  0  0  0  0  0  0  0  0  0  0  0
    5.9957  -15.0196   26.4818 N   0  0  0  0  0  0  0  0  0  0  0  0
    6.4035  -13.7930   26.1564 C   0  0  0  0  0  0  0  0  0  0  0  0
    6.2174  -12.5682   26.8066 C   0  0  0  0  0  0  0  0  0  0  0  0
    6.7789  -11.4654   26.2072 C   0  0  0  0  0  0  0  0  0  0  0  0
    7.4893  -11.5472   25.0296 C   0  0  0  0  0  0  0  0  0  0  0  0
    7.6582  -12.7688   24.4080 C   0  0  0  0  0  0  0  0  0  0  0  0
    7.1159  -13.8988   24.9671 C   0  0  0  0  0  0  0  0  0  0  0  0
    9.7642  -16.2164   24.8191 C   0  0  0  0  0  0  0  0  0  0  0  0
    9.4584  -17.3838   25.1683 O   0  0  0  0  0  0  0  0  0  0  0  0
   10.5672  -15.3639   25.6548 N   0  0  0  0  0  0  0  0  0  0  0  0
   10.9255  -15.7705   26.9982 C   0  0  1  0  0  0  0  0  0  0  0  0
    9.7210  -15.7239   27.9064 C   0  0  0  0  0  0  0  0  0  0  0  0
    9.6959  -14.0833   28.7050 S   0  0  0  0  0  0  0  0  0  0  0  0
   11.4508  -17.1520   26.9819 C   0  0  0  0  0  0  0  0  0  0  0  0
   11.9749  -17.6277   28.0214 O   0  0  0  0  0  0  0  0  0  0  0  0
   11.3956  -17.9655   25.8636 O   0  0  0  0  0  0  0  0  0  0  0  0
  2  1  1  6
  2  3  1  0
  3  4  1  0
  4  8  1  0
  4  5  2  0
  5  6  1  0
  7  6  1  0
  8  7  2  0
  9  2  1  0
  9 10  2  0
 11  9  1  0
 12 11  1  0
 12 13  1  6
 13 14  1  0
 14 15  2  0
 14 22  1  0
 15 16  1  0
 16 17  1  0
 17 18  2  0
 18 19  1  0
 20 19  2  0
 21 20  1  0
 22 21  2  0
 22 17  1  0
 23 12  1  0
 24 23  2  0
 25 23  1  0
 26 29  1  0
 26 25  1  0
 27 28  1  0
 26 27  1  1
 29 31  1  0
 30 29  2  0
M  END
$$$$
