HWC.pdb
     RDKit          3D

 31 33  0  0  1  0  0  0  0  0999 V2000
   10.2562  -19.6119   20.8407 N   0  0  0  0  0  0  0  0  0  0  0  0
    9.2732  -18.9288   21.6206 C   0  0  1  0  0  0  0  0  0  0  0  0
    8.7307  -19.7715   22.7362 C   0  0  0  0  0  0  0  0  0  0  0  0
    8.1714  -21.0193   22.1957 C   0  0  0  0  0  0  0  0  0  0  0  0
    8.1402  -21.3908   20.8576 C   0  0  0  0  0  0  0  0  0  0  0  0
    7.5459  -22.6088   20.7483 N   0  0  0  0  0  0  0  0  0  0  0  0
    7.2194  -22.9757   21.9984 C   0  0  0  0  0  0  0  0  0  0  0  0
    7.5890  -22.0309   22.8790 N   0  0  0  0  0  0  0  0  0  0  0  0
    9.8293  -17.6671   22.2342 C   0  0  0  0  0  0  0  0  0  0  0  0
   11.0642  -17.5213   22.3167 O   0  0  0  0  0  0  0  0  0  0  0  0
    8.9499  -16.6636   22.7094 N   0  0  0  0  0  0  0  0  0  0  0  0
    9.3108  -15.3907   23.2357 C   0  0  1  0  0  0  0  0  0  0  0  0
    8.2412  -14.3141   23.1315 C   0  0  0  0  0  0  0  0  0  0  0  0
    7.3174  -14.4231   24.2830 C   0  0  0  0  0  0  0  0  0  0  0  0
    6.6467  -15.4788   24.8400 C   0  0  0  0  0  0  0  0  0  0  0  0
    5.9139  -15.0735   25.8917 N   0  0  0  0  0  0  0  0  0  0  0  0
    6.0719  -13.7614   26.0643 C   0  0  0  0  0  0  0  0  0  0  0  0
    5.5253  -12.8951   27.0174 C   0  0  0  0  0  0  0  0  0  0  0  0
    5.8969  -11.5742   26.9286 C   0  0  0  0  0  0  0  0  0  0  0  0
    6.7603  -11.1142   25.9586 C   0  0  0  0  0  0  0  0  0  0  0  0
    7.2857  -11.9905   25.0294 C   0  0  0  0  0  0  0  0  0  0  0  0
    6.9443  -13.3190   25.0762 C   0  0  0  0  0  0  0  0  0  0  0  0
   10.0252  -15.4096   24.5072 C   0  0  0  0  0  0  0  0  0  0  0  0
   10.7150  -14.4221   24.8641 O   0  0  0  0  0  0  0  0  0  0  0  0
    9.9113  -16.5870   25.3261 N   0  0  0  0  0  0  0  0  0  0  0  0
   10.4137  -16.5941   26.6848 C   0  0  1  0  0  0  0  0  0  0  0  0
    9.4955  -15.8154   27.5949 C   0  0  0  0  0  0  0  0  0  0  0  0
   10.1409  -15.9724   29.2945 S   0  0  0  0  0  0  0  0  0  0  0  0
   10.5020  -17.9837   27.1807 C   0  0  0  0  0  0  0  0  0  0  0  0
    9.9269  -18.9053   26.5470 O   0  0  0  0  0  0  0  0  0  0  0  0
   11.1967  -18.3319   28.3259 O   0  0  0  0  0  0  0  0  0  0  0  0
  2  1  1  1
  2  3  1  0
  3  4  1  0
  4  8  1  0
  4  5  2  0
  5  6  1  0
  7  6  1  0
  8  7  2  0
  9  2  1  0
  9 10  2  0
 11  9  1  0
 12 11  1  0
 12 13  1  1
 13 14  1  0
 14 15  2  0
 14 22  1  0
 15 16  1  0
 16 17  1  0
 17 18  2  0
 18 19  1  0
 20 19  2  0
 21 20  1  0
 22 21  2  0
 22 17  1  0
 23 12  1  0
 24 23  2  0
 25 23  1  0
 26 29  1  0
 26 25  1  0
 27 28  1  0
 26 27  1  1
 29 31  1  0
 30 29  2  0
M  END
$$$$
