HWC.pdb
     RDKit          3D

 31 33  0  0  1  0  0  0  0  0999 V2000
    9.6913  -17.4862   21.0066 N   0  0  0  0  0  0  0  0  0  0  0  0
   10.2465  -16.1879   21.2242 C   0  0  1  0  0  0  0  0  0  0  0  0
    9.5935  -15.1305   20.3846 C   0  0  0  0  0  0  0  0  0  0  0  0
    9.6066  -15.5339   18.9708 C   0  0  0  0  0  0  0  0  0  0  0  0
   10.0953  -16.7318   18.4654 C   0  0  0  0  0  0  0  0  0  0  0  0
    9.9360  -16.7425   17.1151 N   0  0  0  0  0  0  0  0  0  0  0  0
    9.3597  -15.5707   16.8004 C   0  0  0  0  0  0  0  0  0  0  0  0
    9.1554  -14.8339   17.9050 N   0  0  0  0  0  0  0  0  0  0  0  0
   10.1196  -15.7640   22.6671 C   0  0  0  0  0  0  0  0  0  0  0  0
   10.5260  -14.6370   23.0103 O   0  0  0  0  0  0  0  0  0  0  0  0
    9.5434  -16.6441   23.6156 N   0  0  0  0  0  0  0  0  0  0  0  0
    9.3757  -16.4070   25.0095 C   0  0  1  0  0  0  0  0  0  0  0  0
    7.9555  -16.5624   25.5319 C   0  0  0  0  0  0  0  0  0  0  0  0
    7.1113  -15.4695   24.9990 C   0  0  0  0  0  0  0  0  0  0  0  0
    6.2615  -15.3889   23.9285 C   0  0  0  0  0  0  0  0  0  0  0  0
    5.7129  -14.1641   23.8495 N   0  0  0  0  0  0  0  0  0  0  0  0
    6.1710  -13.4068   24.8461 C   0  0  0  0  0  0  0  0  0  0  0  0
    5.8923  -12.0778   25.1833 C   0  0  0  0  0  0  0  0  0  0  0  0
    6.5336  -11.5805   26.2934 C   0  0  0  0  0  0  0  0  0  0  0  0
    7.4062  -12.3386   27.0429 C   0  0  0  0  0  0  0  0  0  0  0  0
    7.6640  -13.6482   26.6881 C   0  0  0  0  0  0  0  0  0  0  0  0
    7.0487  -14.1899   25.5874 C   0  0  0  0  0  0  0  0  0  0  0  0
   10.4024  -16.9730   25.8772 C   0  0  0  0  0  0  0  0  0  0  0  0
   11.0916  -17.9506   25.4933 O   0  0  0  0  0  0  0  0  0  0  0  0
   10.5929  -16.3767   27.1726 N   0  0  0  0  0  0  0  0  0  0  0  0
   11.5314  -16.9461   28.1178 C   0  0  1  0  0  0  0  0  0  0  0  0
   11.5362  -16.1557   29.4036 C   0  0  0  0  0  0  0  0  0  0  0  0
   11.3650  -14.3922   28.9671 S   0  0  0  0  0  0  0  0  0  0  0  0
   11.1526  -18.3418   28.4235 C   0  0  0  0  0  0  0  0  0  0  0  0
   11.9110  -19.0476   29.1364 O   0  0  0  0  0  0  0  0  0  0  0  0
    9.9863  -18.9245   27.9591 O   0  0  0  0  0  0  0  0  0  0  0  0
  2  1  1  1
  2  3  1  0
  3  4  1  0
  4  8  1  0
  4  5  2  0
  5  6  1  0
  7  6  1  0
  8  7  2  0
  9  2  1  0
  9 10  2  0
 11  9  1  0
 12 11  1  0
 12 13  1  1
 13 14  1  0
 14 15  2  0
 14 22  1  0
 15 16  1  0
 16 17  1  0
 17 18  2  0
 18 19  1  0
 20 19  2  0
 21 20  1  0
 22 21  2  0
 22 17  1  0
 23 12  1  0
 24 23  2  0
 25 23  1  0
 26 29  1  0
 26 25  1  0
 27 28  1  0
 26 27  1  1
 29 31  1  0
 30 29  2  0
M  END
$$$$
