GWP.pdb
     RDKit          3D

 26 28  0  0  1  0  0  0  0  0999 V2000
   31.6528  -24.2547  -15.6679 N   0  0  0  0  0  0  0  0  0  0  0  0
   31.0951  -23.1613  -16.4517 C   0  0  0  0  0  0  0  0  0  0  0  0
   29.7683  -22.7914  -15.9468 C   0  0  0  0  0  0  0  0  0  0  0  0
   28.8989  -23.6841  -15.8311 O   0  0  0  0  0  0  0  0  0  0  0  0
   29.4857  -21.4218  -15.5946 N   0  0  0  0  0  0  0  0  0  0  0  0
   28.2433  -21.0395  -15.0674 C   0  0  1  0  0  0  0  0  0  0  0  0
   28.2775  -19.7058  -14.3070 C   0  0  0  0  0  0  0  0  0  0  0  0
   27.1445  -19.7224  -13.3538 C   0  0  0  0  0  0  0  0  0  0  0  0
   25.8737  -19.2365  -13.6157 C   0  0  0  0  0  0  0  0  0  0  0  0
   25.0987  -19.4539  -12.5444 N   0  0  0  0  0  0  0  0  0  0  0  0
   25.8156  -20.0706  -11.5731 C   0  0  0  0  0  0  0  0  0  0  0  0
   25.5007  -20.4983  -10.3007 C   0  0  0  0  0  0  0  0  0  0  0  0
   26.4713  -21.0955   -9.5284 C   0  0  0  0  0  0  0  0  0  0  0  0
   27.7540  -21.2794   -9.9910 C   0  0  0  0  0  0  0  0  0  0  0  0
   28.0515  -20.8432  -11.2728 C   0  0  0  0  0  0  0  0  0  0  0  0
   27.1070  -20.2372  -12.0889 C   0  0  0  0  0  0  0  0  0  0  0  0
   27.1681  -20.9187  -16.0468 C   0  0  0  0  0  0  0  0  0  0  0  0
   27.4556  -20.2205  -17.1292 O   0  0  0  0  0  0  0  0  0  0  0  0
   25.8758  -21.4400  -15.9977 N   0  0  0  0  0  0  0  0  0  0  0  0
   25.3396  -22.1391  -14.8140 C   0  0  0  0  0  0  0  0  0  0  0  0
   24.2263  -23.0060  -15.3098 C   0  0  0  0  0  0  0  0  0  0  0  0
   24.2385  -22.8532  -16.8124 C   0  0  0  0  0  0  0  0  0  0  0  0
   24.8474  -21.4582  -16.9738 C   0  0  1  0  0  0  0  0  0  0  0  0
   23.8053  -20.4196  -16.7575 C   0  0  0  0  0  0  0  0  0  0  0  0
   22.9501  -20.2836  -17.6700 O   0  0  0  0  0  0  0  0  0  0  0  0
   23.7040  -19.6094  -15.6569 O   0  0  0  0  0  0  0  0  0  0  0  0
  2  1  1  0
  3  2  1  0
  4  3  2  0
  5  3  1  0
  6  5  1  0
  7  8  1  0
  6  7  1  6
  8  9  2  0
 10  9  1  0
 11 10  1  0
 12 11  2  0
 13 12  1  0
 14 15  1  0
 14 13  2  0
 15 16  2  0
 16 11  1  0
 16  8  1  0
 17 19  1  0
 17  6  1  0
 18 17  2  0
 19 20  1  0
 21 20  1  0
 22 21  1  0
 23 19  1  0
 23 22  1  0
 24 26  1  0
 23 24  1  1
 25 24  2  0
M  END
$$$$
