GWP.pdb
     RDKit          3D

 26 28  0  0  1  0  0  0  0  0999 V2000
   20.9316  -20.9631  -11.5039 N   0  0  0  0  0  0  0  0  0  0  0  0
   21.7946  -21.4080  -12.5893 C   0  0  0  0  0  0  0  0  0  0  0  0
   23.1003  -20.7437  -12.5132 C   0  0  0  0  0  0  0  0  0  0  0  0
   23.1782  -19.5338  -12.8239 O   0  0  0  0  0  0  0  0  0  0  0  0
   24.2630  -21.4829  -12.0870 N   0  0  0  0  0  0  0  0  0  0  0  0
   25.5625  -21.0187  -12.3385 C   0  0  1  0  0  0  0  0  0  0  0  0
   26.6283  -21.6341  -11.4201 C   0  0  0  0  0  0  0  0  0  0  0  0
   26.5251  -20.9431  -10.1145 C   0  0  0  0  0  0  0  0  0  0  0  0
   25.3744  -20.3606   -9.6083 C   0  0  0  0  0  0  0  0  0  0  0  0
   25.6393  -19.8677   -8.3908 N   0  0  0  0  0  0  0  0  0  0  0  0
   26.9348  -20.1033   -8.0688 C   0  0  0  0  0  0  0  0  0  0  0  0
   27.6978  -19.8008   -6.9609 C   0  0  0  0  0  0  0  0  0  0  0  0
   29.0234  -20.1709   -6.9310 C   0  0  0  0  0  0  0  0  0  0  0  0
   29.6134  -20.8375   -7.9802 C   0  0  0  0  0  0  0  0  0  0  0  0
   28.8303  -21.1332   -9.0852 C   0  0  0  0  0  0  0  0  0  0  0  0
   27.4900  -20.7820   -9.1609 C   0  0  0  0  0  0  0  0  0  0  0  0
   26.0378  -21.2238  -13.7031 C   0  0  0  0  0  0  0  0  0  0  0  0
   25.4886  -22.2315  -14.3549 O   0  0  0  0  0  0  0  0  0  0  0  0
   26.9939  -20.5012  -14.4156 N   0  0  0  0  0  0  0  0  0  0  0  0
   27.9428  -19.5749  -13.7684 C   0  0  0  0  0  0  0  0  0  0  0  0
   28.3786  -18.6149  -14.8292 C   0  0  0  0  0  0  0  0  0  0  0  0
   27.5582  -18.9654  -16.0480 C   0  0  0  0  0  0  0  0  0  0  0  0
   27.2677  -20.4487  -15.8059 C   0  0  1  0  0  0  0  0  0  0  0  0
   28.4395  -21.2697  -16.2115 C   0  0  0  0  0  0  0  0  0  0  0  0
   28.6937  -21.3157  -17.4427 O   0  0  0  0  0  0  0  0  0  0  0  0
   29.2537  -21.9712  -15.3612 O   0  0  0  0  0  0  0  0  0  0  0  0
  2  1  1  0
  3  2  1  0
  4  3  2  0
  5  3  1  0
  6  5  1  0
  7  8  1  0
  6  7  1  1
  8  9  2  0
 10  9  1  0
 11 10  1  0
 12 11  2  0
 13 12  1  0
 14 15  1  0
 14 13  2  0
 15 16  2  0
 16 11  1  0
 16  8  1  0
 17 19  1  0
 17  6  1  0
 18 17  2  0
 19 20  1  0
 21 20  1  0
 22 21  1  0
 23 19  1  0
 23 22  1  0
 24 26  1  0
 23 24  1  1
 25 24  2  0
M  END
$$$$
