GWP.pdb
     RDKit          3D

 26 28  0  0  1  0  0  0  0  0999 V2000
   25.1980  -37.1690  -15.0052 N   0  0  0  0  0  0  0  0  0  0  0  0
   24.4132  -36.3283  -14.1118 C   0  0  0  0  0  0  0  0  0  0  0  0
   25.2787  -35.6904  -13.1137 C   0  0  0  0  0  0  0  0  0  0  0  0
   26.5125  -35.8922  -13.1712 O   0  0  0  0  0  0  0  0  0  0  0  0
   24.7050  -34.8497  -12.0920 N   0  0  0  0  0  0  0  0  0  0  0  0
   25.5039  -34.2036  -11.1371 C   0  0  1  0  0  0  0  0  0  0  0  0
   25.6586  -32.6949  -11.3782 C   0  0  0  0  0  0  0  0  0  0  0  0
   24.3088  -32.1639  -11.6759 C   0  0  0  0  0  0  0  0  0  0  0  0
   23.4432  -32.6734  -12.6304 C   0  0  0  0  0  0  0  0  0  0  0  0
   22.3010  -31.9736  -12.5953 N   0  0  0  0  0  0  0  0  0  0  0  0
   22.3786  -31.0101  -11.6449 C   0  0  0  0  0  0  0  0  0  0  0  0
   21.4998  -30.0362  -11.2202 C   0  0  0  0  0  0  0  0  0  0  0  0
   21.8792  -29.1743  -10.2159 C   0  0  0  0  0  0  0  0  0  0  0  0
   23.1166  -29.2560   -9.6199 C   0  0  0  0  0  0  0  0  0  0  0  0
   23.9863  -30.2418  -10.0601 C   0  0  0  0  0  0  0  0  0  0  0  0
   23.6487  -31.1340  -11.0678 C   0  0  0  0  0  0  0  0  0  0  0  0
   25.0540  -34.3481   -9.7563 C   0  0  0  0  0  0  0  0  0  0  0  0
   23.7990  -34.7252   -9.5999 O   0  0  0  0  0  0  0  0  0  0  0  0
   25.7678  -34.1426   -8.5763 N   0  0  0  0  0  0  0  0  0  0  0  0
   27.0280  -33.3766   -8.5267 C   0  0  0  0  0  0  0  0  0  0  0  0
   27.7498  -33.8391   -7.3012 C   0  0  0  0  0  0  0  0  0  0  0  0
   26.9083  -34.9609   -6.7403 C   0  0  0  0  0  0  0  0  0  0  0  0
   25.5158  -34.5857   -7.2531 C   0  0  1  0  0  0  0  0  0  0  0  0
   24.9166  -33.5405   -6.3812 C   0  0  0  0  0  0  0  0  0  0  0  0
   24.8595  -32.3774   -6.8571 O   0  0  0  0  0  0  0  0  0  0  0  0
   24.4281  -33.7415   -5.1167 O   0  0  0  0  0  0  0  0  0  0  0  0
  2  1  1  0
  3  2  1  0
  4  3  2  0
  5  3  1  0
  6  5  1  0
  7  8  1  0
  6  7  1  6
  8  9  2  0
 10  9  1  0
 11 10  1  0
 12 11  2  0
 13 12  1  0
 14 15  1  0
 14 13  2  0
 15 16  2  0
 16 11  1  0
 16  8  1  0
 17 19  1  0
 17  6  1  0
 18 17  2  0
 19 20  1  0
 21 20  1  0
 22 21  1  0
 23 19  1  0
 23 22  1  0
 24 26  1  0
 23 24  1  1
 25 24  2  0
M  END
$$$$
