GWP.pdb
     RDKit          3D

 26 28  0  0  1  0  0  0  0  0999 V2000
   21.5343  -20.9661  -12.6650 N   0  0  0  0  0  0  0  0  0  0  0  0
   22.2732  -21.1319  -11.4212 C   0  0  0  0  0  0  0  0  0  0  0  0
   23.6346  -20.6025  -11.5574 C   0  0  0  0  0  0  0  0  0  0  0  0
   24.0895  -20.4024  -12.7060 O   0  0  0  0  0  0  0  0  0  0  0  0
   24.4217  -20.3228  -10.3818 N   0  0  0  0  0  0  0  0  0  0  0  0
   25.7352  -19.8392  -10.4743 C   0  0  1  0  0  0  0  0  0  0  0  0
   26.1477  -18.9396   -9.3001 C   0  0  0  0  0  0  0  0  0  0  0  0
   26.2322  -19.8048   -8.1014 C   0  0  0  0  0  0  0  0  0  0  0  0
   25.4036  -20.8829   -7.8350 C   0  0  0  0  0  0  0  0  0  0  0  0
   25.7950  -21.4556   -6.6886 N   0  0  0  0  0  0  0  0  0  0  0  0
   26.8612  -20.7906   -6.1803 C   0  0  0  0  0  0  0  0  0  0  0  0
   27.6209  -20.9626   -5.0426 C   0  0  0  0  0  0  0  0  0  0  0  0
   28.6591  -20.0959   -4.7851 C   0  0  0  0  0  0  0  0  0  0  0  0
   28.9630  -19.0567   -5.6342 C   0  0  0  0  0  0  0  0  0  0  0  0
   28.1883  -18.9001   -6.7731 C   0  0  0  0  0  0  0  0  0  0  0  0
   27.1329  -19.7485   -7.0758 C   0  0  0  0  0  0  0  0  0  0  0  0
   26.7656  -20.8677  -10.5767 C   0  0  0  0  0  0  0  0  0  0  0  0
   26.4461  -22.0491  -10.0828 O   0  0  0  0  0  0  0  0  0  0  0  0
   28.0441  -20.7752  -11.1255 N   0  0  0  0  0  0  0  0  0  0  0  0
   28.7125  -19.4853  -11.3836 C   0  0  0  0  0  0  0  0  0  0  0  0
   29.7385  -19.7505  -12.4390 C   0  0  0  0  0  0  0  0  0  0  0  0
   29.5396  -21.1939  -12.8371 C   0  0  0  0  0  0  0  0  0  0  0  0
   28.9406  -21.7849  -11.5585 C   0  0  1  0  0  0  0  0  0  0  0  0
   30.0204  -22.0796  -10.5793 C   0  0  0  0  0  0  0  0  0  0  0  0
   30.7873  -23.0364  -10.8603 O   0  0  0  0  0  0  0  0  0  0  0  0
   30.2434  -21.4002   -9.4103 O   0  0  0  0  0  0  0  0  0  0  0  0
  2  1  1  0
  3  2  1  0
  4  3  2  0
  5  3  1  0
  6  5  1  0
  7  8  1  0
  6  7  1  1
  8  9  2  0
 10  9  1  0
 11 10  1  0
 12 11  2  0
 13 12  1  0
 14 15  1  0
 14 13  2  0
 15 16  2  0
 16 11  1  0
 16  8  1  0
 17 19  1  0
 17  6  1  0
 18 17  2  0
 19 20  1  0
 21 20  1  0
 22 21  1  0
 23 19  1  0
 23 22  1  0
 24 26  1  0
 23 24  1  1
 25 24  2  0
M  END
$$$$
