GWP.pdb
     RDKit          3D

 26 28  0  0  1  0  0  0  0  0999 V2000
   30.9754  -20.9080  -11.1463 N   0  0  0  0  0  0  0  0  0  0  0  0
   29.8457  -20.0307  -10.8723 C   0  0  0  0  0  0  0  0  0  0  0  0
   28.6125  -20.8114  -10.7242 C   0  0  0  0  0  0  0  0  0  0  0  0
   28.6087  -22.0058  -11.0983 O   0  0  0  0  0  0  0  0  0  0  0  0
   27.4353  -20.2015  -10.1570 N   0  0  0  0  0  0  0  0  0  0  0  0
   26.2232  -20.8997  -10.0522 C   0  0  1  0  0  0  0  0  0  0  0  0
   25.5639  -20.7912   -8.6696 C   0  0  0  0  0  0  0  0  0  0  0  0
   26.5001  -20.0409   -7.8018 C   0  0  0  0  0  0  0  0  0  0  0  0
   26.9029  -18.7311   -8.0067 C   0  0  0  0  0  0  0  0  0  0  0  0
   27.7167  -18.3678   -7.0060 N   0  0  0  0  0  0  0  0  0  0  0  0
   27.8702  -19.3979   -6.1382 C   0  0  0  0  0  0  0  0  0  0  0  0
   28.5937  -19.5458   -4.9739 C   0  0  0  0  0  0  0  0  0  0  0  0
   28.5583  -20.7479   -4.3037 C   0  0  0  0  0  0  0  0  0  0  0  0
   27.8183  -21.8126   -4.7641 C   0  0  0  0  0  0  0  0  0  0  0  0
   27.0972  -21.6446   -5.9361 C   0  0  0  0  0  0  0  0  0  0  0  0
   27.1005  -20.4522   -6.6457 C   0  0  0  0  0  0  0  0  0  0  0  0
   25.2013  -20.5104  -11.0188 C   0  0  0  0  0  0  0  0  0  0  0  0
   24.9499  -19.2172  -11.0964 O   0  0  0  0  0  0  0  0  0  0  0  0
   24.4518  -21.3173  -11.8740 N   0  0  0  0  0  0  0  0  0  0  0  0
   24.4555  -22.7906  -11.7916 C   0  0  0  0  0  0  0  0  0  0  0  0
   24.0355  -23.2852  -13.1391 C   0  0  0  0  0  0  0  0  0  0  0  0
   23.9116  -22.0494  -13.9985 C   0  0  0  0  0  0  0  0  0  0  0  0
   23.5950  -20.9784  -12.9518 C   0  0  1  0  0  0  0  0  0  0  0  0
   22.1511  -21.0226  -12.5988 C   0  0  0  0  0  0  0  0  0  0  0  0
   21.8540  -21.5995  -11.5211 O   0  0  0  0  0  0  0  0  0  0  0  0
   21.1316  -20.4916  -13.3449 O   0  0  0  0  0  0  0  0  0  0  0  0
  2  1  1  0
  3  2  1  0
  4  3  2  0
  5  3  1  0
  6  5  1  0
  7  8  1  0
  6  7  1  1
  8  9  2  0
 10  9  1  0
 11 10  1  0
 12 11  2  0
 13 12  1  0
 14 15  1  0
 14 13  2  0
 15 16  2  0
 16 11  1  0
 16  8  1  0
 17 19  1  0
 17  6  1  0
 18 17  2  0
 19 20  1  0
 21 20  1  0
 22 21  1  0
 23 19  1  0
 23 22  1  0
 24 26  1  0
 23 24  1  1
 25 24  2  0
M  END
$$$$
