GWP.pdb
     RDKit          3D

 26 28  0  0  1  0  0  0  0  0999 V2000
   29.4916  -22.2301  -17.5821 N   0  0  0  0  0  0  0  0  0  0  0  0
   28.6377  -21.0634  -17.4079 C   0  0  0  0  0  0  0  0  0  0  0  0
   28.3449  -20.8481  -15.9866 C   0  0  0  0  0  0  0  0  0  0  0  0
   28.7328  -21.7012  -15.1571 O   0  0  0  0  0  0  0  0  0  0  0  0
   27.6232  -19.6718  -15.5680 N   0  0  0  0  0  0  0  0  0  0  0  0
   27.2656  -19.4668  -14.2272 C   0  0  1  0  0  0  0  0  0  0  0  0
   27.0272  -17.9928  -13.8685 C   0  0  0  0  0  0  0  0  0  0  0  0
   26.1515  -17.4280  -14.9206 C   0  0  0  0  0  0  0  0  0  0  0  0
   24.7694  -17.3559  -14.8550 C   0  0  0  0  0  0  0  0  0  0  0  0
   24.3154  -16.7501  -15.9607 N   0  0  0  0  0  0  0  0  0  0  0  0
   25.3548  -16.4158  -16.7641 C   0  0  0  0  0  0  0  0  0  0  0  0
   25.4307  -15.7966  -17.9938 C   0  0  0  0  0  0  0  0  0  0  0  0
   26.6620  -15.6018  -18.5780 C   0  0  0  0  0  0  0  0  0  0  0  0
   27.8261  -16.0093  -17.9681 C   0  0  0  0  0  0  0  0  0  0  0  0
   27.7296  -16.6296  -16.7321 C   0  0  0  0  0  0  0  0  0  0  0  0
   26.5119  -16.8468  -16.1032 C   0  0  0  0  0  0  0  0  0  0  0  0
   26.0742  -20.1870  -13.7893 C   0  0  0  0  0  0  0  0  0  0  0  0
   25.3394  -20.7153  -14.7499 O   0  0  0  0  0  0  0  0  0  0  0  0
   25.6032  -20.3952  -12.4935 N   0  0  0  0  0  0  0  0  0  0  0  0
   26.1743  -19.7140  -11.3157 C   0  0  0  0  0  0  0  0  0  0  0  0
   25.8369  -20.5681  -10.1352 C   0  0  0  0  0  0  0  0  0  0  0  0
   25.1654  -21.7942  -10.7068 C   0  0  0  0  0  0  0  0  0  0  0  0
   24.5757  -21.2428  -12.0072 C   0  0  1  0  0  0  0  0  0  0  0  0
   23.3013  -20.5298  -11.7263 C   0  0  0  0  0  0  0  0  0  0  0  0
   22.2988  -21.2482  -11.4786 O   0  0  0  0  0  0  0  0  0  0  0  0
   23.1346  -19.1696  -11.7159 O   0  0  0  0  0  0  0  0  0  0  0  0
  2  1  1  0
  3  2  1  0
  4  3  2  0
  5  3  1  0
  6  5  1  0
  7  8  1  0
  6  7  1  6
  8  9  2  0
 10  9  1  0
 11 10  1  0
 12 11  2  0
 13 12  1  0
 14 15  1  0
 14 13  2  0
 15 16  2  0
 16 11  1  0
 16  8  1  0
 17 19  1  0
 17  6  1  0
 18 17  2  0
 19 20  1  0
 21 20  1  0
 22 21  1  0
 23 19  1  0
 23 22  1  0
 24 26  1  0
 23 24  1  1
 25 24  2  0
M  END
$$$$
