GWP.pdb
     RDKit          3D

 26 28  0  0  1  0  0  0  0  0999 V2000
   25.8913  -24.7082  -16.8018 N   0  0  0  0  0  0  0  0  0  0  0  0
   24.9862  -23.9188  -15.9780 C   0  0  0  0  0  0  0  0  0  0  0  0
   25.7336  -22.9231  -15.2021 C   0  0  0  0  0  0  0  0  0  0  0  0
   26.9800  -23.0194  -15.1426 O   0  0  0  0  0  0  0  0  0  0  0  0
   25.0325  -21.8593  -14.5264 N   0  0  0  0  0  0  0  0  0  0  0  0
   25.7043  -20.9398  -13.7074 C   0  0  1  0  0  0  0  0  0  0  0  0
   25.0912  -19.5320  -13.7248 C   0  0  0  0  0  0  0  0  0  0  0  0
   25.1742  -19.0415  -15.1195 C   0  0  0  0  0  0  0  0  0  0  0  0
   24.0967  -18.8868  -15.9767 C   0  0  0  0  0  0  0  0  0  0  0  0
   24.5374  -18.3847  -17.1383 N   0  0  0  0  0  0  0  0  0  0  0  0
   25.8792  -18.2000  -17.0824 C   0  0  0  0  0  0  0  0  0  0  0  0
   26.8015  -17.7276  -17.9920 C   0  0  0  0  0  0  0  0  0  0  0  0
   28.1305  -17.6674  -17.6382 C   0  0  0  0  0  0  0  0  0  0  0  0
   28.5688  -18.0671  -16.3967 C   0  0  0  0  0  0  0  0  0  0  0  0
   27.6267  -18.5388  -15.4957 C   0  0  0  0  0  0  0  0  0  0  0  0
   26.2765  -18.6170  -15.8057 C   0  0  0  0  0  0  0  0  0  0  0  0
   25.8012  -21.3210  -12.3020 C   0  0  0  0  0  0  0  0  0  0  0  0
   24.8777  -22.1598  -11.8715 O   0  0  0  0  0  0  0  0  0  0  0  0
   26.7364  -20.9211  -11.3483 N   0  0  0  0  0  0  0  0  0  0  0  0
   27.8503  -20.0035  -11.6559 C   0  0  0  0  0  0  0  0  0  0  0  0
   28.8992  -20.2584  -10.6207 C   0  0  0  0  0  0  0  0  0  0  0  0
   28.3826  -21.4194   -9.8045 C   0  0  0  0  0  0  0  0  0  0  0  0
   26.8695  -21.2685   -9.9800 C   0  0  1  0  0  0  0  0  0  0  0  0
   26.3503  -20.2299   -9.0507 C   0  0  0  0  0  0  0  0  0  0  0  0
   26.0932  -19.1054   -9.5526 O   0  0  0  0  0  0  0  0  0  0  0  0
   26.1327  -20.3987   -7.7083 O   0  0  0  0  0  0  0  0  0  0  0  0
  2  1  1  0
  3  2  1  0
  4  3  2  0
  5  3  1  0
  6  5  1  0
  7  8  1  0
  6  7  1  1
  8  9  2  0
 10  9  1  0
 11 10  1  0
 12 11  2  0
 13 12  1  0
 14 15  1  0
 14 13  2  0
 15 16  2  0
 16 11  1  0
 16  8  1  0
 17 19  1  0
 17  6  1  0
 18 17  2  0
 19 20  1  0
 21 20  1  0
 22 21  1  0
 23 19  1  0
 23 22  1  0
 24 26  1  0
 23 24  1  1
 25 24  2  0
M  END
$$$$
