GWP.pdb
     RDKit          3D

 26 28  0  0  1  0  0  0  0  0999 V2000
   27.2844  -18.1156  -21.1427 N   0  0  0  0  0  0  0  0  0  0  0  0
   26.0364  -18.0816  -20.3929 C   0  0  0  0  0  0  0  0  0  0  0  0
   26.3035  -18.0628  -18.9506 C   0  0  0  0  0  0  0  0  0  0  0  0
   27.4922  -18.0424  -18.5597 O   0  0  0  0  0  0  0  0  0  0  0  0
   25.2077  -18.0680  -18.0130 N   0  0  0  0  0  0  0  0  0  0  0  0
   25.4243  -18.0077  -16.6284 C   0  0  1  0  0  0  0  0  0  0  0  0
   24.2493  -17.4064  -15.8437 C   0  0  0  0  0  0  0  0  0  0  0  0
   23.0840  -18.2934  -16.0628 C   0  0  0  0  0  0  0  0  0  0  0  0
   22.3988  -18.4304  -17.2592 C   0  0  0  0  0  0  0  0  0  0  0  0
   21.4326  -19.3453  -17.1014 N   0  0  0  0  0  0  0  0  0  0  0  0
   21.4518  -19.8234  -15.8331 C   0  0  0  0  0  0  0  0  0  0  0  0
   20.6806  -20.7525  -15.1673 C   0  0  0  0  0  0  0  0  0  0  0  0
   20.9420  -21.0243  -13.8433 C   0  0  0  0  0  0  0  0  0  0  0  0
   21.9556  -20.3924  -13.1602 C   0  0  0  0  0  0  0  0  0  0  0  0
   22.7202  -19.4618  -13.8465 C   0  0  0  0  0  0  0  0  0  0  0  0
   22.4959  -19.1554  -15.1811 C   0  0  0  0  0  0  0  0  0  0  0  0
   25.7210  -19.2880  -15.9938 C   0  0  0  0  0  0  0  0  0  0  0  0
   25.3724  -20.3607  -16.6790 O   0  0  0  0  0  0  0  0  0  0  0  0
   26.3232  -19.5359  -14.7610 N   0  0  0  0  0  0  0  0  0  0  0  0
   26.6138  -18.4693  -13.7837 C   0  0  0  0  0  0  0  0  0  0  0  0
   27.7104  -18.9906  -12.9104 C   0  0  0  0  0  0  0  0  0  0  0  0
   28.0946  -20.3253  -13.5037 C   0  0  0  0  0  0  0  0  0  0  0  0
   26.7899  -20.7449  -14.1853 C   0  0  1  0  0  0  0  0  0  0  0  0
   25.8558  -21.3247  -13.1839 C   0  0  0  0  0  0  0  0  0  0  0  0
   24.9250  -20.5780  -12.7859 O   0  0  0  0  0  0  0  0  0  0  0  0
   25.9279  -22.5918  -12.6668 O   0  0  0  0  0  0  0  0  0  0  0  0
  2  1  1  0
  3  2  1  0
  4  3  2  0
  5  3  1  0
  6  5  1  0
  7  8  1  0
  6  7  1  1
  8  9  2  0
 10  9  1  0
 11 10  1  0
 12 11  2  0
 13 12  1  0
 14 15  1  0
 14 13  2  0
 15 16  2  0
 16 11  1  0
 16  8  1  0
 17 19  1  0
 17  6  1  0
 18 17  2  0
 19 20  1  0
 21 20  1  0
 22 21  1  0
 23 19  1  0
 23 22  1  0
 24 26  1  0
 23 24  1  1
 25 24  2  0
M  END
$$$$
