GWP.pdb
     RDKit          3D

 26 28  0  0  1  0  0  0  0  0999 V2000
   28.6061  -18.6973  -18.2605 N   0  0  0  0  0  0  0  0  0  0  0  0
   27.9517  -18.0032  -17.1601 C   0  0  0  0  0  0  0  0  0  0  0  0
   27.5615  -18.9530  -16.1125 C   0  0  0  0  0  0  0  0  0  0  0  0
   27.4256  -20.1597  -16.4155 O   0  0  0  0  0  0  0  0  0  0  0  0
   27.3422  -18.4911  -14.7640 N   0  0  0  0  0  0  0  0  0  0  0  0
   26.7536  -19.3131  -13.7917 C   0  0  1  0  0  0  0  0  0  0  0  0
   26.8775  -18.7669  -12.3619 C   0  0  0  0  0  0  0  0  0  0  0  0
   26.5317  -19.8760  -11.4438 C   0  0  0  0  0  0  0  0  0  0  0  0
   26.3784  -21.2019  -11.8158 C   0  0  0  0  0  0  0  0  0  0  0  0
   26.1084  -21.9287  -10.7230 N   0  0  0  0  0  0  0  0  0  0  0  0
   26.0760  -21.1264   -9.6308 C   0  0  0  0  0  0  0  0  0  0  0  0
   25.8378  -21.3676   -8.2943 C   0  0  0  0  0  0  0  0  0  0  0  0
   25.8622  -20.3186   -7.4030 C   0  0  0  0  0  0  0  0  0  0  0  0
   26.1184  -19.0290   -7.8084 C   0  0  0  0  0  0  0  0  0  0  0  0
   26.3559  -18.8064   -9.1559 C   0  0  0  0  0  0  0  0  0  0  0  0
   26.3432  -19.8311  -10.0915 C   0  0  0  0  0  0  0  0  0  0  0  0
   25.3358  -19.5925  -13.9960 C   0  0  0  0  0  0  0  0  0  0  0  0
   24.5612  -18.5358  -14.1539 O   0  0  0  0  0  0  0  0  0  0  0  0
   24.6843  -20.8242  -14.0477 N   0  0  0  0  0  0  0  0  0  0  0  0
   25.3751  -22.1055  -13.8060 C   0  0  0  0  0  0  0  0  0  0  0  0
   24.5522  -23.1571  -14.4795 C   0  0  0  0  0  0  0  0  0  0  0  0
   23.4529  -22.4082  -15.1950 C   0  0  0  0  0  0  0  0  0  0  0  0
   23.3340  -21.1455  -14.3381 C   0  0  1  0  0  0  0  0  0  0  0  0
   22.5173  -21.4268  -13.1275 C   0  0  0  0  0  0  0  0  0  0  0  0
   21.2798  -21.5662  -13.3051 O   0  0  0  0  0  0  0  0  0  0  0  0
   22.9999  -21.5446  -11.8503 O   0  0  0  0  0  0  0  0  0  0  0  0
  2  1  1  0
  3  2  1  0
  4  3  2  0
  5  3  1  0
  6  5  1  0
  7  8  1  0
  6  7  1  1
  8  9  2  0
 10  9  1  0
 11 10  1  0
 12 11  2  0
 13 12  1  0
 14 15  1  0
 14 13  2  0
 15 16  2  0
 16 11  1  0
 16  8  1  0
 17 19  1  0
 17  6  1  0
 18 17  2  0
 19 20  1  0
 21 20  1  0
 22 21  1  0
 23 19  1  0
 23 22  1  0
 24 26  1  0
 23 24  1  1
 25 24  2  0
M  END
$$$$
