GWP.pdb
     RDKit          3D

 26 28  0  0  1  0  0  0  0  0999 V2000
   21.1276  -20.9361  -11.5707 N   0  0  0  0  0  0  0  0  0  0  0  0
   22.3465  -21.7222  -11.4390 C   0  0  0  0  0  0  0  0  0  0  0  0
   23.5242  -20.8475  -11.4330 C   0  0  0  0  0  0  0  0  0  0  0  0
   23.4200  -19.6959  -11.9117 O   0  0  0  0  0  0  0  0  0  0  0  0
   24.7711  -21.3189  -10.8828 N   0  0  0  0  0  0  0  0  0  0  0  0
   26.0049  -20.8131  -11.3181 C   0  0  1  0  0  0  0  0  0  0  0  0
   27.1954  -21.2585  -10.4564 C   0  0  0  0  0  0  0  0  0  0  0  0
   27.0516  -20.5912   -9.1423 C   0  0  0  0  0  0  0  0  0  0  0  0
   25.9776  -19.8037   -8.7602 C   0  0  0  0  0  0  0  0  0  0  0  0
   26.1651  -19.4014   -7.4959 N   0  0  0  0  0  0  0  0  0  0  0  0
   27.3345  -19.8969   -7.0220 C   0  0  0  0  0  0  0  0  0  0  0  0
   27.9839  -19.7776   -5.8115 C   0  0  0  0  0  0  0  0  0  0  0  0
   29.1962  -20.4041   -5.6298 C   0  0  0  0  0  0  0  0  0  0  0  0
   29.7829  -21.1502   -6.6260 C   0  0  0  0  0  0  0  0  0  0  0  0
   29.1147  -21.2589   -7.8358 C   0  0  0  0  0  0  0  0  0  0  0  0
   27.8908  -20.6469   -8.0658 C   0  0  0  0  0  0  0  0  0  0  0  0
   26.3566  -21.1446  -12.6952 C   0  0  0  0  0  0  0  0  0  0  0  0
   25.9362  -22.3189  -13.1264 O   0  0  0  0  0  0  0  0  0  0  0  0
   27.0768  -20.3908  -13.6211 N   0  0  0  0  0  0  0  0  0  0  0  0
   28.0152  -19.3226  -13.2264 C   0  0  0  0  0  0  0  0  0  0  0  0
   28.1364  -18.4152  -14.4090 C   0  0  0  0  0  0  0  0  0  0  0  0
   27.1528  -18.9472  -15.4244 C   0  0  0  0  0  0  0  0  0  0  0  0
   27.0840  -20.4269  -15.0386 C   0  0  1  0  0  0  0  0  0  0  0  0
   28.2483  -21.1562  -15.6079 C   0  0  0  0  0  0  0  0  0  0  0  0
   29.1368  -21.5177  -14.7941 O   0  0  0  0  0  0  0  0  0  0  0  0
   28.4276  -21.4615  -16.9317 O   0  0  0  0  0  0  0  0  0  0  0  0
  2  1  1  0
  3  2  1  0
  4  3  2  0
  5  3  1  0
  6  5  1  0
  7  8  1  0
  6  7  1  1
  8  9  2  0
 10  9  1  0
 11 10  1  0
 12 11  2  0
 13 12  1  0
 14 15  1  0
 14 13  2  0
 15 16  2  0
 16 11  1  0
 16  8  1  0
 17 19  1  0
 17  6  1  0
 18 17  2  0
 19 20  1  0
 21 20  1  0
 22 21  1  0
 23 19  1  0
 23 22  1  0
 24 26  1  0
 23 24  1  1
 25 24  2  0
M  END
$$$$
