GWP.pdb
     RDKit          3D

 26 28  0  0  1  0  0  0  0  0999 V2000
   22.5197  -16.8622  -12.1106 N   0  0  0  0  0  0  0  0  0  0  0  0
   22.6430  -18.2227  -11.6061 C   0  0  0  0  0  0  0  0  0  0  0  0
   24.0461  -18.5386  -11.3168 C   0  0  0  0  0  0  0  0  0  0  0  0
   24.9396  -17.9776  -11.9901 O   0  0  0  0  0  0  0  0  0  0  0  0
   24.3745  -19.4790  -10.2740 N   0  0  0  0  0  0  0  0  0  0  0  0
   25.5807  -20.1951  -10.2827 C   0  0  1  0  0  0  0  0  0  0  0  0
   25.8389  -20.9884   -8.9935 C   0  0  0  0  0  0  0  0  0  0  0  0
   26.4739  -20.0575   -8.0329 C   0  0  0  0  0  0  0  0  0  0  0  0
   26.2021  -18.7024   -7.9358 C   0  0  0  0  0  0  0  0  0  0  0  0
   26.9272  -18.1870   -6.9338 N   0  0  0  0  0  0  0  0  0  0  0  0
   27.6768  -19.1589   -6.3585 C   0  0  0  0  0  0  0  0  0  0  0  0
   28.5813  -19.1560   -5.3178 C   0  0  0  0  0  0  0  0  0  0  0  0
   29.2081  -20.3293   -4.9632 C   0  0  0  0  0  0  0  0  0  0  0  0
   28.9577  -21.5120   -5.6204 C   0  0  0  0  0  0  0  0  0  0  0  0
   28.0450  -21.4951   -6.6637 C   0  0  0  0  0  0  0  0  0  0  0  0
   27.3875  -20.3381   -7.0567 C   0  0  0  0  0  0  0  0  0  0  0  0
   25.7250  -21.1476  -11.3790 C   0  0  0  0  0  0  0  0  0  0  0  0
   24.6559  -21.8714  -11.6528 O   0  0  0  0  0  0  0  0  0  0  0  0
   26.8384  -21.3997  -12.1795 N   0  0  0  0  0  0  0  0  0  0  0  0
   28.2213  -21.1549  -11.7267 C   0  0  0  0  0  0  0  0  0  0  0  0
   29.0437  -20.9926  -12.9653 C   0  0  0  0  0  0  0  0  0  0  0  0
   28.0585  -21.0401  -14.1091 C   0  0  0  0  0  0  0  0  0  0  0  0
   26.9319  -21.8846  -13.5088 C   0  0  1  0  0  0  0  0  0  0  0  0
   27.2788  -23.3284  -13.5909 C   0  0  0  0  0  0  0  0  0  0  0  0
   27.6391  -23.8811  -12.5198 O   0  0  0  0  0  0  0  0  0  0  0  0
   27.2375  -24.0946  -14.7263 O   0  0  0  0  0  0  0  0  0  0  0  0
  2  1  1  0
  3  2  1  0
  4  3  2  0
  5  3  1  0
  6  5  1  0
  7  8  1  0
  6  7  1  1
  8  9  2  0
 10  9  1  0
 11 10  1  0
 12 11  2  0
 13 12  1  0
 14 15  1  0
 14 13  2  0
 15 16  2  0
 16 11  1  0
 16  8  1  0
 17 19  1  0
 17  6  1  0
 18 17  2  0
 19 20  1  0
 21 20  1  0
 22 21  1  0
 23 19  1  0
 23 22  1  0
 24 26  1  0
 23 24  1  1
 25 24  2  0
M  END
$$$$
