DMT.pdb
     RDKit          3D

 24 23  0  0  1  0  0  0  0  0999 V2000
   18.3091  -12.3950  -17.3902 N   0  0  0  0  0  0  0  0  0  0  0  0
   18.9370  -11.1926  -17.8397 C   0  0  1  0  0  0  0  0  0  0  0  0
   17.9216  -10.1544  -18.2319 C   0  0  0  0  0  0  0  0  0  0  0  0
   17.1374  -10.6965  -19.3720 C   0  0  0  0  0  0  0  0  0  0  0  0
   17.6887  -11.1256  -20.4272 O   0  0  0  0  0  0  0  0  0  0  0  0
   19.8517  -10.6641  -16.7766 C   0  0  0  0  0  0  0  0  0  0  0  0
   19.5468  -10.8117  -15.5695 O   0  0  0  0  0  0  0  0  0  0  0  0
   15.7522  -10.7513  -19.3172 O   0  0  0  0  0  0  0  0  0  0  0  0
   27.1689  -10.3865  -14.5940 C   0  0  0  0  0  0  0  0  0  0  0  0
   25.9228  -10.7555  -15.8841 S   0  0  0  0  0  0  0  0  0  0  0  0
   24.4068   -9.8980  -15.4349 C   0  0  0  0  0  0  0  0  0  0  0  0
   23.2526  -10.2332  -16.3035 C   0  0  0  0  0  0  0  0  0  0  0  0
   21.9597   -9.5475  -16.0122 C   0  0  2  0  0  0  0  0  0  0  0  0
   21.0463  -10.0049  -17.0920 N   0  0  0  0  0  0  0  0  0  0  0  0
   22.0762   -8.0789  -16.1116 C   0  0  0  0  0  0  0  0  0  0  0  0
   22.5780   -7.5894  -17.1735 O   0  0  0  0  0  0  0  0  0  0  0  0
   19.8226   -5.4765  -16.7686 C   0  0  0  0  0  0  0  0  0  0  0  0
   20.5074   -5.0367  -15.4960 C   0  0  1  0  0  0  0  0  0  0  0  0
   19.7320   -5.4185  -14.3879 O   0  0  0  0  0  0  0  0  0  0  0  0
   21.8551   -5.6986  -15.3190 C   0  0  2  0  0  0  0  0  0  0  0  0
   21.6814   -7.1485  -15.1402 N   0  0  0  0  0  0  0  0  0  0  0  0
   22.6303   -5.1154  -14.2179 C   0  0  0  0  0  0  0  0  0  0  0  0
   22.9928   -5.7604  -13.2040 O   0  0  0  0  0  0  0  0  0  0  0  0
   22.9901   -3.7796  -14.2859 O   0  0  0  0  0  0  0  0  0  0  0  0
  2  1  1  1
  2  3  1  0
  3  4  1  0
  4  8  1  0
  5  4  2  0
  6  7  2  0
  6  2  1  0
  9 10  1  0
 10 11  1  0
 11 12  1  0
 13 12  1  6
 13 14  1  0
 14  6  1  0
 15 13  1  0
 15 21  1  0
 16 15  2  0
 18 17  1  6
 18 20  1  0
 19 18  1  0
 20 21  1  1
 20 22  1  0
 22 23  2  0
 22 24  1  0
M  END
$$$$
