DMT.pdb
     RDKit          3D

 24 23  0  0  1  0  0  0  0  0999 V2000
   20.9902   -8.0375  -13.5713 N   0  0  0  0  0  0  0  0  0  0  0  0
   21.0699   -8.4279  -14.9436 C   0  0  1  0  0  0  0  0  0  0  0  0
   20.3921   -7.4286  -15.8408 C   0  0  0  0  0  0  0  0  0  0  0  0
   18.9457   -7.4224  -15.4998 C   0  0  0  0  0  0  0  0  0  0  0  0
   18.3207   -6.3562  -15.2274 O   0  0  0  0  0  0  0  0  0  0  0  0
   22.5032   -8.6108  -15.3418 C   0  0  0  0  0  0  0  0  0  0  0  0
   23.3650   -7.7928  -14.9420 O   0  0  0  0  0  0  0  0  0  0  0  0
   18.2198   -8.6043  -15.4679 O   0  0  0  0  0  0  0  0  0  0  0  0
   28.4629  -13.1573  -15.1919 C   0  0  0  0  0  0  0  0  0  0  0  0
   26.7525  -12.6830  -14.7416 S   0  0  0  0  0  0  0  0  0  0  0  0
   26.2415  -11.3702  -15.8601 C   0  0  0  0  0  0  0  0  0  0  0  0
   24.8605  -10.8864  -15.6199 C   0  0  0  0  0  0  0  0  0  0  0  0
   24.3430   -9.8247  -16.5319 C   0  0  2  0  0  0  0  0  0  0  0  0
   22.9133   -9.6758  -16.1533 N   0  0  0  0  0  0  0  0  0  0  0  0
   24.3940  -10.2375  -17.9487 C   0  0  0  0  0  0  0  0  0  0  0  0
   23.6228  -11.1766  -18.3261 O   0  0  0  0  0  0  0  0  0  0  0  0
   24.1723   -8.1352  -21.2803 C   0  0  0  0  0  0  0  0  0  0  0  0
   25.3788   -9.0442  -21.2919 C   0  0  1  0  0  0  0  0  0  0  0  0
   26.5138   -8.3254  -20.8794 O   0  0  0  0  0  0  0  0  0  0  0  0
   25.2310  -10.1959  -20.3237 C   0  0  2  0  0  0  0  0  0  0  0  0
   25.2179   -9.6903  -18.9422 N   0  0  0  0  0  0  0  0  0  0  0  0
   26.2638  -11.2223  -20.5053 C   0  0  0  0  0  0  0  0  0  0  0  0
   27.1314  -11.4972  -19.6409 O   0  0  0  0  0  0  0  0  0  0  0  0
   26.2971  -11.9368  -21.6913 O   0  0  0  0  0  0  0  0  0  0  0  0
  2  1  1  1
  2  3  1  0
  3  4  1  0
  4  8  1  0
  5  4  2  0
  6  7  2  0
  6  2  1  0
  9 10  1  0
 10 11  1  0
 11 12  1  0
 13 12  1  1
 13 14  1  0
 14  6  1  0
 15 13  1  0
 15 21  1  0
 16 15  2  0
 18 17  1  1
 18 20  1  0
 19 18  1  0
 20 21  1  1
 20 22  1  0
 22 23  2  0
 22 24  1  0
M  END
$$$$
