DMT.pdb
     RDKit          3D

 24 23  0  0  1  0  0  0  0  0999 V2000
   20.6411  -19.7856  -11.9110 N   0  0  0  0  0  0  0  0  0  0  0  0
   21.4061  -20.9703  -12.1416 C   0  0  1  0  0  0  0  0  0  0  0  0
   20.8627  -21.7600  -13.3009 C   0  0  0  0  0  0  0  0  0  0  0  0
   19.5175  -22.2608  -12.9163 C   0  0  0  0  0  0  0  0  0  0  0  0
   18.4515  -21.7156  -13.3260 O   0  0  0  0  0  0  0  0  0  0  0  0
   22.8441  -20.6150  -12.3701 C   0  0  0  0  0  0  0  0  0  0  0  0
   23.1328  -19.6800  -13.1538 O   0  0  0  0  0  0  0  0  0  0  0  0
   19.3825  -23.3607  -12.0815 O   0  0  0  0  0  0  0  0  0  0  0  0
   26.4021  -19.8474   -6.6911 C   0  0  0  0  0  0  0  0  0  0  0  0
   26.6908  -21.0512   -8.0405 S   0  0  0  0  0  0  0  0  0  0  0  0
   25.7896  -20.4724   -9.4856 C   0  0  0  0  0  0  0  0  0  0  0  0
   25.9969  -21.3095  -10.6920 C   0  0  0  0  0  0  0  0  0  0  0  0
   25.2968  -20.8887  -11.9408 C   0  0  2  0  0  0  0  0  0  0  0  0
   23.8841  -21.3005  -11.7303 N   0  0  0  0  0  0  0  0  0  0  0  0
   25.8034  -21.6048  -13.1286 C   0  0  0  0  0  0  0  0  0  0  0  0
   25.8108  -22.8769  -13.1019 O   0  0  0  0  0  0  0  0  0  0  0  0
   24.6180  -22.3360  -16.5041 C   0  0  0  0  0  0  0  0  0  0  0  0
   25.9478  -21.6336  -16.6468 C   0  0  1  0  0  0  0  0  0  0  0  0
   25.7377  -20.2506  -16.7816 O   0  0  0  0  0  0  0  0  0  0  0  0
   26.8186  -21.8133  -15.4240 C   0  0  2  0  0  0  0  0  0  0  0  0
   26.2843  -21.0181  -14.3075 N   0  0  0  0  0  0  0  0  0  0  0  0
   28.2268  -21.4909  -15.6814 C   0  0  0  0  0  0  0  0  0  0  0  0
   28.8162  -20.5008  -15.1837 O   0  0  0  0  0  0  0  0  0  0  0  0
   28.9608  -22.3153  -16.5180 O   0  0  0  0  0  0  0  0  0  0  0  0
  2  1  1  6
  2  3  1  0
  3  4  1  0
  4  8  1  0
  5  4  2  0
  6  7  2  0
  6  2  1  0
  9 10  1  0
 10 11  1  0
 11 12  1  0
 13 12  1  1
 13 14  1  0
 14  6  1  0
 15 13  1  0
 15 21  1  0
 16 15  2  0
 18 17  1  1
 18 20  1  0
 19 18  1  0
 20 21  1  1
 20 22  1  0
 22 23  2  0
 22 24  1  0
M  END
$$$$
