DMT.pdb
     RDKit          3D

 24 23  0  0  1  0  0  0  0  0999 V2000
   28.2782  -22.3546  -16.0840 N   0  0  0  0  0  0  0  0  0  0  0  0
   27.7033  -21.1788  -15.5104 C   0  0  1  0  0  0  0  0  0  0  0  0
   27.0522  -20.3170  -16.5573 C   0  0  0  0  0  0  0  0  0  0  0  0
   28.1271  -19.7703  -17.4258 C   0  0  0  0  0  0  0  0  0  0  0  0
   27.9058  -19.3797  -18.6090 O   0  0  0  0  0  0  0  0  0  0  0  0
   26.7171  -21.5573  -14.4472 C   0  0  0  0  0  0  0  0  0  0  0  0
   25.9289  -22.5116  -14.6466 O   0  0  0  0  0  0  0  0  0  0  0  0
   29.4304  -19.6681  -16.9615 O   0  0  0  0  0  0  0  0  0  0  0  0
   27.8176  -20.7220   -8.1772 C   0  0  0  0  0  0  0  0  0  0  0  0
   26.0650  -20.1938   -8.2260 S   0  0  0  0  0  0  0  0  0  0  0  0
   25.3319  -20.8839   -9.7166 C   0  0  0  0  0  0  0  0  0  0  0  0
   26.1510  -20.6758  -10.9350 C   0  0  0  0  0  0  0  0  0  0  0  0
   25.6315  -21.2499  -12.2107 C   0  0  2  0  0  0  0  0  0  0  0  0
   26.6478  -20.8725  -13.2277 N   0  0  0  0  0  0  0  0  0  0  0  0
   24.3465  -20.6418  -12.6096 C   0  0  0  0  0  0  0  0  0  0  0  0
   24.3219  -19.3899  -12.8358 O   0  0  0  0  0  0  0  0  0  0  0  0
   22.5161  -20.5881  -15.5620 C   0  0  0  0  0  0  0  0  0  0  0  0
   21.4769  -20.9931  -14.5431 C   0  0  1  0  0  0  0  0  0  0  0  0
   21.3304  -22.3907  -14.5499 O   0  0  0  0  0  0  0  0  0  0  0  0
   21.8839  -20.6160  -13.1367 C   0  0  2  0  0  0  0  0  0  0  0  0
   23.1265  -21.3134  -12.7710 N   0  0  0  0  0  0  0  0  0  0  0  0
   20.8229  -20.8685  -12.1550 C   0  0  0  0  0  0  0  0  0  0  0  0
   20.9440  -21.6582  -11.1870 O   0  0  0  0  0  0  0  0  0  0  0  0
   19.6139  -20.2062  -12.2898 O   0  0  0  0  0  0  0  0  0  0  0  0
  2  1  1  6
  2  3  1  0
  3  4  1  0
  4  8  1  0
  5  4  2  0
  6  7  2  0
  6  2  1  0
  9 10  1  0
 10 11  1  0
 11 12  1  0
 13 12  1  1
 13 14  1  0
 14  6  1  0
 15 13  1  0
 15 21  1  0
 16 15  2  0
 18 17  1  6
 18 20  1  0
 19 18  1  0
 20 21  1  1
 20 22  1  0
 22 23  2  0
 22 24  1  0
M  END
$$$$
