DMT.pdb
     RDKit          3D

 24 23  0  0  1  0  0  0  0  0999 V2000
   19.0279  -13.0680  -17.6542 N   0  0  0  0  0  0  0  0  0  0  0  0
   19.4699  -11.7507  -17.9877 C   0  0  1  0  0  0  0  0  0  0  0  0
   18.3092  -10.8286  -18.2435 C   0  0  0  0  0  0  0  0  0  0  0  0
   17.4855  -11.4275  -19.3257 C   0  0  0  0  0  0  0  0  0  0  0  0
   17.7448  -12.5623  -19.8222 O   0  0  0  0  0  0  0  0  0  0  0  0
   20.3440  -11.2119  -16.8960 C   0  0  0  0  0  0  0  0  0  0  0  0
   20.0292  -11.4083  -15.6985 O   0  0  0  0  0  0  0  0  0  0  0  0
   16.3865  -10.7521  -19.8366 O   0  0  0  0  0  0  0  0  0  0  0  0
   27.5444  -10.6529  -14.4428 C   0  0  0  0  0  0  0  0  0  0  0  0
   26.3641  -11.0626  -15.7816 S   0  0  0  0  0  0  0  0  0  0  0  0
   24.8028  -10.2584  -15.3929 C   0  0  0  0  0  0  0  0  0  0  0  0
   23.7114  -10.5856  -16.3420 C   0  0  0  0  0  0  0  0  0  0  0  0
   22.3695   -9.9937  -16.0665 C   0  0  2  0  0  0  0  0  0  0  0  0
   21.5113  -10.4900  -17.1740 N   0  0  0  0  0  0  0  0  0  0  0  0
   22.3890   -8.5190  -16.1367 C   0  0  0  0  0  0  0  0  0  0  0  0
   23.0369   -7.9740  -17.0866 O   0  0  0  0  0  0  0  0  0  0  0  0
   20.2683   -6.0713  -17.2695 C   0  0  0  0  0  0  0  0  0  0  0  0
   20.5983   -5.5808  -15.8794 C   0  0  1  0  0  0  0  0  0  0  0  0
   19.5888   -5.9805  -14.9871 O   0  0  0  0  0  0  0  0  0  0  0  0
   21.8859   -6.1773  -15.3579 C   0  0  2  0  0  0  0  0  0  0  0  0
   21.7534   -7.6385  -15.2501 N   0  0  0  0  0  0  0  0  0  0  0  0
   22.3068   -5.5853  -14.0829 C   0  0  0  0  0  0  0  0  0  0  0  0
   22.4172   -6.2370  -13.0159 O   0  0  0  0  0  0  0  0  0  0  0  0
   22.6024   -4.2329  -14.0373 O   0  0  0  0  0  0  0  0  0  0  0  0
  2  1  1  1
  2  3  1  0
  3  4  1  0
  4  8  1  0
  5  4  2  0
  6  7  2  0
  6  2  1  0
  9 10  1  0
 10 11  1  0
 11 12  1  0
 13 12  1  6
 13 14  1  0
 14  6  1  0
 15 13  1  0
 15 21  1  0
 16 15  2  0
 18 17  1  6
 18 20  1  0
 19 18  1  0
 20 21  1  1
 20 22  1  0
 22 23  2  0
 22 24  1  0
M  END
$$$$
