DMT.pdb
     RDKit          3D

 24 23  0  0  1  0  0  0  0  0999 V2000
   23.6486  -12.5661  -18.3954 N   0  0  0  0  0  0  0  0  0  0  0  0
   22.6937  -12.1396  -17.4216 C   0  0  1  0  0  0  0  0  0  0  0  0
   22.0794  -13.3098  -16.7033 C   0  0  0  0  0  0  0  0  0  0  0  0
   21.4467  -14.1856  -17.7236 C   0  0  0  0  0  0  0  0  0  0  0  0
   20.7174  -13.7254  -18.6499 O   0  0  0  0  0  0  0  0  0  0  0  0
   23.3392  -11.2000  -16.4485 C   0  0  0  0  0  0  0  0  0  0  0  0
   22.7000  -10.8203  -15.4391 O   0  0  0  0  0  0  0  0  0  0  0  0
   21.6370  -15.5596  -17.6949 O   0  0  0  0  0  0  0  0  0  0  0  0
   28.3486  -14.0781  -15.4518 C   0  0  0  0  0  0  0  0  0  0  0  0
   27.8963  -12.5327  -16.3240 S   0  0  0  0  0  0  0  0  0  0  0  0
   27.1387  -11.4322  -15.1197 C   0  0  0  0  0  0  0  0  0  0  0  0
   26.7153  -10.1291  -15.6867 C   0  0  0  0  0  0  0  0  0  0  0  0
   25.2587   -9.8079  -15.6410 C   0  0  2  0  0  0  0  0  0  0  0  0
   24.6450  -10.7291  -16.6331 N   0  0  0  0  0  0  0  0  0  0  0  0
   24.9820   -8.4248  -16.0778 C   0  0  0  0  0  0  0  0  0  0  0  0
   25.5069   -7.4726  -15.4168 O   0  0  0  0  0  0  0  0  0  0  0  0
   25.5544   -6.4341  -19.2909 C   0  0  0  0  0  0  0  0  0  0  0  0
   24.0933   -6.3426  -18.9183 C   0  0  1  0  0  0  0  0  0  0  0  0
   23.3635   -7.3065  -19.6347 O   0  0  0  0  0  0  0  0  0  0  0  0
   23.8617   -6.6374  -17.4536 C   0  0  2  0  0  0  0  0  0  0  0  0
   24.1876   -8.0433  -17.1680 N   0  0  0  0  0  0  0  0  0  0  0  0
   22.4991   -6.3079  -17.0200 C   0  0  0  0  0  0  0  0  0  0  0  0
   22.0431   -5.1390  -16.9862 O   0  0  0  0  0  0  0  0  0  0  0  0
   21.6563   -7.3325  -16.6225 O   0  0  0  0  0  0  0  0  0  0  0  0
  2  1  1  6
  2  3  1  0
  3  4  1  0
  4  8  1  0
  5  4  2  0
  6  7  2  0
  6  2  1  0
  9 10  1  0
 10 11  1  0
 11 12  1  0
 13 12  1  6
 13 14  1  0
 14  6  1  0
 15 13  1  0
 15 21  1  0
 16 15  2  0
 18 17  1  1
 18 20  1  0
 19 18  1  0
 20 21  1  6
 20 22  1  0
 22 23  2  0
 22 24  1  0
M  END
$$$$
