DMT.pdb
     RDKit          3D

 24 23  0  0  1  0  0  0  0  0999 V2000
   17.9422  -12.5501  -16.3425 N   0  0  0  0  0  0  0  0  0  0  0  0
   17.9954  -11.1223  -16.3244 C   0  0  1  0  0  0  0  0  0  0  0  0
   16.8039  -10.5357  -15.6178 C   0  0  0  0  0  0  0  0  0  0  0  0
   15.5943  -10.8773  -16.4107 C   0  0  0  0  0  0  0  0  0  0  0  0
   15.5416  -10.7169  -17.6649 O   0  0  0  0  0  0  0  0  0  0  0  0
   19.2701  -10.6653  -15.6822 C   0  0  0  0  0  0  0  0  0  0  0  0
   20.0033  -11.4999  -15.1011 O   0  0  0  0  0  0  0  0  0  0  0  0
   14.4637  -11.3919  -15.7929 O   0  0  0  0  0  0  0  0  0  0  0  0
   25.9154   -9.9944  -14.7840 C   0  0  0  0  0  0  0  0  0  0  0  0
   24.1552  -10.4843  -14.9064 S   0  0  0  0  0  0  0  0  0  0  0  0
   23.3911   -9.4516  -16.1654 C   0  0  0  0  0  0  0  0  0  0  0  0
   21.9279   -9.6541  -16.2950 C   0  0  0  0  0  0  0  0  0  0  0  0
   21.0531   -8.9443  -15.3163 C   0  0  2  0  0  0  0  0  0  0  0  0
   19.6713   -9.3240  -15.7113 N   0  0  0  0  0  0  0  0  0  0  0  0
   21.1685   -7.4768  -15.4321 C   0  0  0  0  0  0  0  0  0  0  0  0
   21.1090   -6.9621  -16.5943 O   0  0  0  0  0  0  0  0  0  0  0  0
   18.9485   -5.1610  -15.2641 C   0  0  0  0  0  0  0  0  0  0  0  0
   19.9778   -4.5442  -14.3464 C   0  0  1  0  0  0  0  0  0  0  0  0
   19.6498   -4.8316  -13.0104 O   0  0  0  0  0  0  0  0  0  0  0  0
   21.3584   -5.1157  -14.5766 C   0  0  2  0  0  0  0  0  0  0  0  0
   21.3375   -6.5727  -14.3742 N   0  0  0  0  0  0  0  0  0  0  0  0
   22.3807   -4.4765  -13.7402 C   0  0  0  0  0  0  0  0  0  0  0  0
   23.0307   -5.0803  -12.8523 O   0  0  0  0  0  0  0  0  0  0  0  0
   22.6560   -3.1322  -13.9285 O   0  0  0  0  0  0  0  0  0  0  0  0
  2  1  1  1
  2  3  1  0
  3  4  1  0
  4  8  1  0
  5  4  2  0
  6  7  2  0
  6  2  1  0
  9 10  1  0
 10 11  1  0
 11 12  1  0
 13 12  1  6
 13 14  1  0
 14  6  1  0
 15 13  1  0
 15 21  1  0
 16 15  2  0
 18 17  1  6
 18 20  1  0
 19 18  1  0
 20 21  1  1
 20 22  1  0
 22 23  2  0
 22 24  1  0
M  END
$$$$
