DMT.pdb
     RDKit          3D

 24 23  0  0  1  0  0  0  0  0999 V2000
   17.5929  -12.0991  -15.9508 N   0  0  0  0  0  0  0  0  0  0  0  0
   17.9934  -10.7938  -16.3723 C   0  0  1  0  0  0  0  0  0  0  0  0
   16.8511   -9.8175  -16.3018 C   0  0  0  0  0  0  0  0  0  0  0  0
   15.8388  -10.2322  -17.3077 C   0  0  0  0  0  0  0  0  0  0  0  0
   16.1598  -10.7800  -18.4024 O   0  0  0  0  0  0  0  0  0  0  0  0
   19.1479  -10.3193  -15.5427 C   0  0  0  0  0  0  0  0  0  0  0  0
   19.1503  -10.5328  -14.3074 O   0  0  0  0  0  0  0  0  0  0  0  0
   14.4859  -10.0295  -17.0770 O   0  0  0  0  0  0  0  0  0  0  0  0
   26.6664  -10.2736  -14.6493 C   0  0  0  0  0  0  0  0  0  0  0  0
   25.1591  -10.7618  -15.5675 S   0  0  0  0  0  0  0  0  0  0  0  0
   23.8202   -9.6929  -15.0195 C   0  0  0  0  0  0  0  0  0  0  0  0
   22.5217   -9.9802  -15.6754 C   0  0  0  0  0  0  0  0  0  0  0  0
   21.3492   -9.1597  -15.2523 C   0  0  2  0  0  0  0  0  0  0  0  0
   20.2332   -9.6393  -16.1091 N   0  0  0  0  0  0  0  0  0  0  0  0
   21.5477   -7.7235  -15.5317 C   0  0  0  0  0  0  0  0  0  0  0  0
   21.9682   -7.3913  -16.6858 O   0  0  0  0  0  0  0  0  0  0  0  0
   19.3563   -5.1397  -16.2316 C   0  0  0  0  0  0  0  0  0  0  0  0
   20.2171   -4.5425  -15.1433 C   0  0  1  0  0  0  0  0  0  0  0  0
   19.5688   -4.6764  -13.9036 O   0  0  0  0  0  0  0  0  0  0  0  0
   21.5412   -5.2598  -15.0093 C   0  0  2  0  0  0  0  0  0  0  0  0
   21.3141   -6.6660  -14.6416 N   0  0  0  0  0  0  0  0  0  0  0  0
   22.4468   -4.6010  -14.0611 C   0  0  0  0  0  0  0  0  0  0  0  0
   22.8444   -5.1315  -12.9953 O   0  0  0  0  0  0  0  0  0  0  0  0
   22.8973   -3.3220  -14.3431 O   0  0  0  0  0  0  0  0  0  0  0  0
  2  1  1  1
  2  3  1  0
  3  4  1  0
  4  8  1  0
  5  4  2  0
  6  7  2  0
  6  2  1  0
  9 10  1  0
 10 11  1  0
 11 12  1  0
 13 12  1  6
 13 14  1  0
 14  6  1  0
 15 13  1  0
 15 21  1  0
 16 15  2  0
 18 17  1  6
 18 20  1  0
 19 18  1  0
 20 21  1  1
 20 22  1  0
 22 23  2  0
 22 24  1  0
M  END
$$$$
