EFW.pdb
     RDKit          3D

 35 37  0  0  1  0  0  0  0  0999 V2000
   19.7968  -11.6790  -16.8758 N   0  0  0  0  0  0  0  0  0  0  0  0
   19.0195  -10.4671  -16.5592 C   0  0  1  0  0  0  0  0  0  0  0  0
   17.5860  -10.8251  -16.7318 C   0  0  0  0  0  0  0  0  0  0  0  0
   16.8970  -10.2508  -17.9164 C   0  0  0  0  0  0  0  0  0  0  0  0
   17.0784  -11.2330  -19.0464 C   0  0  0  0  0  0  0  0  0  0  0  0
   17.7918  -12.2532  -18.9360 O   0  0  0  0  0  0  0  0  0  0  0  0
   19.2879  -10.0355  -15.1688 C   0  0  0  0  0  0  0  0  0  0  0  0
   19.2896  -10.8599  -14.2212 O   0  0  0  0  0  0  0  0  0  0  0  0
   16.4402  -11.0140  -20.2552 O   0  0  0  0  0  0  0  0  0  0  0  0
   19.5559   -8.6860  -14.8105 N   0  0  0  0  0  0  0  0  0  0  0  0
   19.8856   -8.3213  -13.4611 C   0  0  1  0  0  0  0  0  0  0  0  0
   21.1206   -7.5081  -13.3924 C   0  0  0  0  0  0  0  0  0  0  0  0
   22.3554   -8.1406  -13.8352 C   0  0  0  0  0  0  0  0  0  0  0  0
   22.8957   -9.1957  -13.1613 C   0  0  0  0  0  0  0  0  0  0  0  0
   24.0726   -9.8308  -13.5551 C   0  0  0  0  0  0  0  0  0  0  0  0
   24.7313   -9.3685  -14.6913 C   0  0  0  0  0  0  0  0  0  0  0  0
   24.1937   -8.2999  -15.3824 C   0  0  0  0  0  0  0  0  0  0  0  0
   23.0190   -7.6809  -14.9725 C   0  0  0  0  0  0  0  0  0  0  0  0
   18.7512   -7.6713  -12.7509 C   0  0  0  0  0  0  0  0  0  0  0  0
   18.0801   -6.8364  -13.4228 O   0  0  0  0  0  0  0  0  0  0  0  0
   18.4014   -7.9244  -11.4240 N   0  0  0  0  0  0  0  0  0  0  0  0
   17.2375   -7.2594  -10.8298 C   0  0  1  0  0  0  0  0  0  0  0  0
   16.8663   -7.8821   -9.5388 C   0  0  0  0  0  0  0  0  0  0  0  0
   15.6625   -7.3336   -8.9032 C   0  0  0  0  0  0  0  0  0  0  0  0
   15.5515   -6.0503   -8.3550 C   0  0  0  0  0  0  0  0  0  0  0  0
   14.3220   -5.9278   -7.8327 N   0  0  0  0  0  0  0  0  0  0  0  0
   13.6207   -7.0577   -8.0084 C   0  0  0  0  0  0  0  0  0  0  0  0
   12.3357   -7.4230   -7.6758 C   0  0  0  0  0  0  0  0  0  0  0  0
   11.8514   -8.6638   -7.9993 C   0  0  0  0  0  0  0  0  0  0  0  0
   12.6684   -9.5465   -8.6646 C   0  0  0  0  0  0  0  0  0  0  0  0
   13.9453   -9.1986   -9.0005 C   0  0  0  0  0  0  0  0  0  0  0  0
   14.4309   -7.9359   -8.6673 C   0  0  0  0  0  0  0  0  0  0  0  0
   17.4967   -5.8240  -10.7495 C   0  0  0  0  0  0  0  0  0  0  0  0
   18.7054   -5.2356  -10.4110 O   0  0  0  0  0  0  0  0  0  0  0  0
   16.5503   -5.0096  -11.0001 O   0  0  0  0  0  0  0  0  0  0  0  0
  2  1  1  1
  2  3  1  0
  3  4  1  0
  4  5  1  0
  5  6  2  0
  5  9  1  0
  7  8  2  0
  7  2  1  0
 10  7  1  0
 11 10  1  0
 11 12  1  6
 13 18  1  0
 13 12  1  0
 14 13  2  0
 15 16  2  0
 15 14  1  0
 16 17  1  0
 17 18  2  0
 19 21  1  0
 19 11  1  0
 20 19  2  0
 22 33  1  0
 22 21  1  0
 22 23  1  1
 24 32  1  0
 24 23  1  0
 25 24  2  0
 26 25  1  0
 26 27  1  0
 27 28  1  0
 27 32  2  0
 28 29  2  0
 29 30  1  0
 31 30  2  0
 32 31  1  0
 33 34  1  0
 35 33  2  0
M  END
$$$$
