EFW.pdb
     RDKit          3D

 35 37  0  0  1  0  0  0  0  0999 V2000
   27.4454  -23.6290  -17.3208 N   0  0  0  0  0  0  0  0  0  0  0  0
   27.0374  -22.2615  -16.9513 C   0  0  1  0  0  0  0  0  0  0  0  0
   25.7567  -21.9947  -17.6595 C   0  0  0  0  0  0  0  0  0  0  0  0
   25.8450  -21.7611  -19.1243 C   0  0  0  0  0  0  0  0  0  0  0  0
   26.7805  -20.5954  -19.3254 C   0  0  0  0  0  0  0  0  0  0  0  0
   26.4980  -19.4394  -18.9435 O   0  0  0  0  0  0  0  0  0  0  0  0
   26.8565  -22.1597  -15.4855 C   0  0  0  0  0  0  0  0  0  0  0  0
   26.2357  -23.0435  -14.8443 O   0  0  0  0  0  0  0  0  0  0  0  0
   27.9988  -20.7933  -19.9521 O   0  0  0  0  0  0  0  0  0  0  0  0
   27.3591  -21.0776  -14.7122 N   0  0  0  0  0  0  0  0  0  0  0  0
   27.1939  -21.0367  -13.2862 C   0  0  1  0  0  0  0  0  0  0  0  0
   28.3627  -20.4306  -12.6097 C   0  0  0  0  0  0  0  0  0  0  0  0
   28.3534  -20.4211  -11.1534 C   0  0  0  0  0  0  0  0  0  0  0  0
   27.5898  -19.5351  -10.4525 C   0  0  0  0  0  0  0  0  0  0  0  0
   27.5500  -19.4968   -9.0596 C   0  0  0  0  0  0  0  0  0  0  0  0
   28.3259  -20.4059   -8.3455 C   0  0  0  0  0  0  0  0  0  0  0  0
   29.1040  -21.3084   -9.0444 C   0  0  0  0  0  0  0  0  0  0  0  0
   29.1292  -21.3296  -10.4337 C   0  0  0  0  0  0  0  0  0  0  0  0
   25.9175  -20.3910  -12.8766 C   0  0  0  0  0  0  0  0  0  0  0  0
   25.8550  -19.9948  -11.6775 O   0  0  0  0  0  0  0  0  0  0  0  0
   24.8198  -20.2075  -13.7184 N   0  0  0  0  0  0  0  0  0  0  0  0
   23.4863  -20.6470  -13.2957 C   0  0  1  0  0  0  0  0  0  0  0  0
   22.9232  -19.7387  -12.2709 C   0  0  0  0  0  0  0  0  0  0  0  0
   23.1559  -20.1446  -10.8799 C   0  0  0  0  0  0  0  0  0  0  0  0
   24.2940  -19.8327  -10.1266 C   0  0  0  0  0  0  0  0  0  0  0  0
   24.1639  -20.4081   -8.9218 N   0  0  0  0  0  0  0  0  0  0  0  0
   23.0048  -21.0784   -8.8425 C   0  0  0  0  0  0  0  0  0  0  0  0
   22.4115  -21.8060   -7.8355 C   0  0  0  0  0  0  0  0  0  0  0  0
   21.1821  -22.3845   -8.0167 C   0  0  0  0  0  0  0  0  0  0  0  0
   20.5427  -22.2293   -9.2234 C   0  0  0  0  0  0  0  0  0  0  0  0
   21.1190  -21.5110  -10.2315 C   0  0  0  0  0  0  0  0  0  0  0  0
   22.3694  -20.9269  -10.0404 C   0  0  0  0  0  0  0  0  0  0  0  0
   22.6421  -20.8146  -14.4761 C   0  0  0  0  0  0  0  0  0  0  0  0
   22.7103  -20.0588  -15.6362 O   0  0  0  0  0  0  0  0  0  0  0  0
   21.7484  -21.7218  -14.4735 O   0  0  0  0  0  0  0  0  0  0  0  0
  2  1  1  1
  2  3  1  0
  3  4  1  0
  4  5  1  0
  5  6  2  0
  5  9  1  0
  7  8  2  0
  7  2  1  0
 10  7  1  0
 11 10  1  0
 11 12  1  1
 13 18  1  0
 13 12  1  0
 14 13  2  0
 15 16  2  0
 15 14  1  0
 16 17  1  0
 17 18  2  0
 19 21  1  0
 19 11  1  0
 20 19  2  0
 22 33  1  0
 22 21  1  0
 22 23  1  1
 24 32  1  0
 24 23  1  0
 25 24  2  0
 26 25  1  0
 26 27  1  0
 27 28  1  0
 27 32  2  0
 28 29  2  0
 29 30  1  0
 31 30  2  0
 32 31  1  0
 33 34  1  0
 35 33  2  0
M  END
$$$$
