EFW.pdb
     RDKit          3D

 35 37  0  0  1  0  0  0  0  0999 V2000
   29.4197  -22.7434  -17.2133 N   0  0  0  0  0  0  0  0  0  0  0  0
   28.8632  -21.4515  -16.7726 C   0  0  1  0  0  0  0  0  0  0  0  0
   27.8829  -21.0352  -17.8111 C   0  0  0  0  0  0  0  0  0  0  0  0
   27.0047  -19.8857  -17.4713 C   0  0  0  0  0  0  0  0  0  0  0  0
   26.0006  -19.7574  -18.5893 C   0  0  0  0  0  0  0  0  0  0  0  0
   25.3493  -18.7088  -18.7844 O   0  0  0  0  0  0  0  0  0  0  0  0
   28.2010  -21.6014  -15.4571 C   0  0  0  0  0  0  0  0  0  0  0  0
   27.4252  -22.5616  -15.2257 O   0  0  0  0  0  0  0  0  0  0  0  0
   25.7794  -20.8275  -19.4393 O   0  0  0  0  0  0  0  0  0  0  0  0
   28.3883  -20.6893  -14.3827 N   0  0  0  0  0  0  0  0  0  0  0  0
   27.7361  -20.8794  -13.1174 C   0  0  1  0  0  0  0  0  0  0  0  0
   28.4912  -20.2590  -12.0055 C   0  0  0  0  0  0  0  0  0  0  0  0
   27.8965  -20.3340  -10.6782 C   0  0  0  0  0  0  0  0  0  0  0  0
   26.9145  -19.4719  -10.2888 C   0  0  0  0  0  0  0  0  0  0  0  0
   26.3173  -19.5138   -9.0299 C   0  0  0  0  0  0  0  0  0  0  0  0
   26.7411  -20.4816   -8.1231 C   0  0  0  0  0  0  0  0  0  0  0  0
   27.7357  -21.3607   -8.5060 C   0  0  0  0  0  0  0  0  0  0  0  0
   28.3179  -21.3016   -9.7664 C   0  0  0  0  0  0  0  0  0  0  0  0
   26.3139  -20.4428  -13.1357 C   0  0  0  0  0  0  0  0  0  0  0  0
   26.0810  -19.3312  -13.6918 O   0  0  0  0  0  0  0  0  0  0  0  0
   25.2574  -21.1707  -12.5872 N   0  0  0  0  0  0  0  0  0  0  0  0
   23.8912  -20.6411  -12.6427 C   0  0  1  0  0  0  0  0  0  0  0  0
   23.1806  -21.1185  -13.8508 C   0  0  0  0  0  0  0  0  0  0  0  0
   21.8085  -20.6214  -14.0064 C   0  0  0  0  0  0  0  0  0  0  0  0
   21.4457  -19.4464  -14.6756 C   0  0  0  0  0  0  0  0  0  0  0  0
   20.1156  -19.3050  -14.5729 N   0  0  0  0  0  0  0  0  0  0  0  0
   19.5862  -20.3212  -13.8753 C   0  0  0  0  0  0  0  0  0  0  0  0
   18.2953  -20.6379  -13.5168 C   0  0  0  0  0  0  0  0  0  0  0  0
   18.0232  -21.7756  -12.8023 C   0  0  0  0  0  0  0  0  0  0  0  0
   19.0605  -22.6035  -12.4449 C   0  0  0  0  0  0  0  0  0  0  0  0
   20.3460  -22.3020  -12.7929 C   0  0  0  0  0  0  0  0  0  0  0  0
   20.6150  -21.1432  -13.5181 C   0  0  0  0  0  0  0  0  0  0  0  0
   23.2092  -20.9459  -11.3873 C   0  0  0  0  0  0  0  0  0  0  0  0
   22.1748  -20.2125  -10.8271 O   0  0  0  0  0  0  0  0  0  0  0  0
   23.5743  -21.9653  -10.7169 O   0  0  0  0  0  0  0  0  0  0  0  0
  2  1  1  6
  2  3  1  0
  3  4  1  0
  4  5  1  0
  5  6  2  0
  5  9  1  0
  7  8  2  0
  7  2  1  0
 10  7  1  0
 11 10  1  0
 11 12  1  1
 13 18  1  0
 13 12  1  0
 14 13  2  0
 15 16  2  0
 15 14  1  0
 16 17  1  0
 17 18  2  0
 19 21  1  0
 19 11  1  0
 20 19  2  0
 22 33  1  0
 22 21  1  0
 22 23  1  6
 24 32  1  0
 24 23  1  0
 25 24  2  0
 26 25  1  0
 26 27  1  0
 27 28  1  0
 27 32  2  0
 28 29  2  0
 29 30  1  0
 31 30  2  0
 32 31  1  0
 33 34  1  0
 35 33  2  0
M  END
$$$$
