EFW.pdb
     RDKit          3D

 35 37  0  0  1  0  0  0  0  0999 V2000
   28.1559  -21.4495  -14.6852 N   0  0  0  0  0  0  0  0  0  0  0  0
   27.4268  -20.3735  -13.9896 C   0  0  1  0  0  0  0  0  0  0  0  0
   26.6524  -19.6444  -15.0296 C   0  0  0  0  0  0  0  0  0  0  0  0
   27.4419  -18.8941  -16.0402 C   0  0  0  0  0  0  0  0  0  0  0  0
   28.0814  -17.7329  -15.3210 C   0  0  0  0  0  0  0  0  0  0  0  0
   29.3152  -17.6604  -15.1354 O   0  0  0  0  0  0  0  0  0  0  0  0
   26.5216  -20.9462  -12.9677 C   0  0  0  0  0  0  0  0  0  0  0  0
   25.8852  -22.0071  -13.1844 O   0  0  0  0  0  0  0  0  0  0  0  0
   27.2907  -16.7019  -14.8433 O   0  0  0  0  0  0  0  0  0  0  0  0
   26.3089  -20.3504  -11.6944 N   0  0  0  0  0  0  0  0  0  0  0  0
   25.3368  -20.8742  -10.7761 C   0  0  1  0  0  0  0  0  0  0  0  0
   25.6665  -20.5441   -9.3713 C   0  0  0  0  0  0  0  0  0  0  0  0
   27.0700  -20.6091   -8.9878 C   0  0  0  0  0  0  0  0  0  0  0  0
   27.5708  -19.8302   -7.9870 C   0  0  0  0  0  0  0  0  0  0  0  0
   28.9060  -19.8660   -7.5875 C   0  0  0  0  0  0  0  0  0  0  0  0
   29.7734  -20.7385   -8.2393 C   0  0  0  0  0  0  0  0  0  0  0  0
   29.2777  -21.5327   -9.2552 C   0  0  0  0  0  0  0  0  0  0  0  0
   27.9428  -21.4813   -9.6379 C   0  0  0  0  0  0  0  0  0  0  0  0
   23.9462  -20.4796  -11.1286 C   0  0  0  0  0  0  0  0  0  0  0  0
   23.6561  -19.2598  -10.9642 O   0  0  0  0  0  0  0  0  0  0  0  0
   22.9753  -21.3567  -11.6135 N   0  0  0  0  0  0  0  0  0  0  0  0
   21.8447  -20.8449  -12.3944 C   0  0  1  0  0  0  0  0  0  0  0  0
   22.2307  -20.6098  -13.8043 C   0  0  0  0  0  0  0  0  0  0  0  0
   21.1543  -20.1209  -14.6741 C   0  0  0  0  0  0  0  0  0  0  0  0
   20.0974  -19.2980  -14.2671 C   0  0  0  0  0  0  0  0  0  0  0  0
   19.2972  -19.0978  -15.3250 N   0  0  0  0  0  0  0  0  0  0  0  0
   19.7703  -19.7421  -16.4023 C   0  0  0  0  0  0  0  0  0  0  0  0
   19.3322  -19.8356  -17.7040 C   0  0  0  0  0  0  0  0  0  0  0  0
   20.0334  -20.5618  -18.6313 C   0  0  0  0  0  0  0  0  0  0  0  0
   21.1876  -21.2004  -18.2451 C   0  0  0  0  0  0  0  0  0  0  0  0
   21.6340  -21.1172  -16.9574 C   0  0  0  0  0  0  0  0  0  0  0  0
   20.9153  -20.3782  -16.0201 C   0  0  0  0  0  0  0  0  0  0  0  0
   20.7039  -21.7420  -12.2276 C   0  0  0  0  0  0  0  0  0  0  0  0
   20.7350  -23.1234  -12.3395 O   0  0  0  0  0  0  0  0  0  0  0  0
   19.5614  -21.2466  -11.9610 O   0  0  0  0  0  0  0  0  0  0  0  0
  2  1  1  6
  2  3  1  0
  3  4  1  0
  4  5  1  0
  5  6  2  0
  5  9  1  0
  7  8  2  0
  7  2  1  0
 10  7  1  0
 11 10  1  0
 11 12  1  1
 13 18  1  0
 13 12  1  0
 14 13  2  0
 15 16  2  0
 15 14  1  0
 16 17  1  0
 17 18  2  0
 19 21  1  0
 19 11  1  0
 20 19  2  0
 22 33  1  0
 22 21  1  0
 22 23  1  6
 24 32  1  0
 24 23  1  0
 25 24  2  0
 26 25  1  0
 26 27  1  0
 27 28  1  0
 27 32  2  0
 28 29  2  0
 29 30  1  0
 31 30  2  0
 32 31  1  0
 33 34  1  0
 35 33  2  0
M  END
$$$$
