EFW.pdb
     RDKit          3D

 35 37  0  0  1  0  0  0  0  0999 V2000
   24.3062  -22.8374  -15.7839 N   0  0  0  0  0  0  0  0  0  0  0  0
   24.3655  -21.5744  -15.0262 C   0  0  1  0  0  0  0  0  0  0  0  0
   22.9581  -21.1599  -14.7811 C   0  0  0  0  0  0  0  0  0  0  0  0
   22.4887  -19.9478  -15.5011 C   0  0  0  0  0  0  0  0  0  0  0  0
   22.1576  -20.3763  -16.9087 C   0  0  0  0  0  0  0  0  0  0  0  0
   22.9882  -20.9519  -17.6440 O   0  0  0  0  0  0  0  0  0  0  0  0
   25.0820  -21.7781  -13.7468 C   0  0  0  0  0  0  0  0  0  0  0  0
   25.0765  -22.8934  -13.1693 O   0  0  0  0  0  0  0  0  0  0  0  0
   20.8949  -20.1327  -17.4212 O   0  0  0  0  0  0  0  0  0  0  0  0
   25.8116  -20.7492  -13.0907 N   0  0  0  0  0  0  0  0  0  0  0  0
   26.5239  -20.9993  -11.8690 C   0  0  1  0  0  0  0  0  0  0  0  0
   27.6716  -20.0802  -11.6979 C   0  0  0  0  0  0  0  0  0  0  0  0
   28.5177  -20.2874  -10.5308 C   0  0  0  0  0  0  0  0  0  0  0  0
   29.4607  -21.2718  -10.5015 C   0  0  0  0  0  0  0  0  0  0  0  0
   30.2925  -21.4994   -9.4062 C   0  0  0  0  0  0  0  0  0  0  0  0
   30.1572  -20.6840   -8.2858 C   0  0  0  0  0  0  0  0  0  0  0  0
   29.2049  -19.6833   -8.3035 C   0  0  0  0  0  0  0  0  0  0  0  0
   28.3856  -19.4734   -9.4061 C   0  0  0  0  0  0  0  0  0  0  0  0
   25.6324  -21.0037  -10.6778 C   0  0  0  0  0  0  0  0  0  0  0  0
   24.6265  -20.2395  -10.7338 O   0  0  0  0  0  0  0  0  0  0  0  0
   25.8421  -21.7800   -9.5375 N   0  0  0  0  0  0  0  0  0  0  0  0
   25.1771  -21.4326   -8.2777 C   0  0  1  0  0  0  0  0  0  0  0  0
   25.8362  -22.0889   -7.1257 C   0  0  0  0  0  0  0  0  0  0  0  0
   25.4119  -21.6081   -5.8055 C   0  0  0  0  0  0  0  0  0  0  0  0
   24.1543  -21.8282   -5.2310 C   0  0  0  0  0  0  0  0  0  0  0  0
   24.1265  -21.2050   -4.0435 N   0  0  0  0  0  0  0  0  0  0  0  0
   25.2948  -20.5899   -3.8067 C   0  0  0  0  0  0  0  0  0  0  0  0
   25.7632  -19.8468   -2.7466 C   0  0  0  0  0  0  0  0  0  0  0  0
   27.0363  -19.3389   -2.7522 C   0  0  0  0  0  0  0  0  0  0  0  0
   27.8469  -19.5811   -3.8355 C   0  0  0  0  0  0  0  0  0  0  0  0
   27.3959  -20.3157   -4.8944 C   0  0  0  0  0  0  0  0  0  0  0  0
   26.1001  -20.8278   -4.8821 C   0  0  0  0  0  0  0  0  0  0  0  0
   25.0899  -19.9784   -8.1688 C   0  0  0  0  0  0  0  0  0  0  0  0
   23.9834  -19.2619   -7.7398 O   0  0  0  0  0  0  0  0  0  0  0  0
   26.0986  -19.2722   -8.4940 O   0  0  0  0  0  0  0  0  0  0  0  0
  2  1  1  1
  2  3  1  0
  3  4  1  0
  4  5  1  0
  5  6  2  0
  5  9  1  0
  7  8  2  0
  7  2  1  0
 10  7  1  0
 11 10  1  0
 11 12  1  1
 13 18  1  0
 13 12  1  0
 14 13  2  0
 15 16  2  0
 15 14  1  0
 16 17  1  0
 17 18  2  0
 19 21  1  0
 19 11  1  0
 20 19  2  0
 22 33  1  0
 22 21  1  0
 22 23  1  1
 24 32  1  0
 24 23  1  0
 25 24  2  0
 26 25  1  0
 26 27  1  0
 27 28  1  0
 27 32  2  0
 28 29  2  0
 29 30  1  0
 31 30  2  0
 32 31  1  0
 33 34  1  0
 35 33  2  0
M  END
$$$$
