FFD.pdb
     RDKit          3D

 31 32  0  0  1  0  0  0  0  0999 V2000
   26.3290  -18.4686   -7.6700 N   0  0  0  0  0  0  0  0  0  0  0  0
   26.8113  -19.7321   -8.1416 C   0  0  1  0  0  0  0  0  0  0  0  0
   26.7242  -20.8161   -7.0890 C   0  0  0  0  0  0  0  0  0  0  0  0
   27.6075  -20.5092   -5.9261 C   0  0  0  0  0  0  0  0  0  0  0  0
   27.0853  -20.2738   -4.6777 C   0  0  0  0  0  0  0  0  0  0  0  0
   27.8539  -19.9903   -3.5897 C   0  0  0  0  0  0  0  0  0  0  0  0
   29.2352  -19.9435   -3.7825 C   0  0  0  0  0  0  0  0  0  0  0  0
   29.7731  -20.1779   -5.0307 C   0  0  0  0  0  0  0  0  0  0  0  0
   28.9690  -20.4641   -6.1210 C   0  0  0  0  0  0  0  0  0  0  0  0
   26.0447  -20.1913   -9.3243 C   0  0  0  0  0  0  0  0  0  0  0  0
   24.7875  -20.1455   -9.3346 O   0  0  0  0  0  0  0  0  0  0  0  0
   26.7827  -20.6800  -10.4336 N   0  0  0  0  0  0  0  0  0  0  0  0
   26.5600  -20.1222  -11.7544 C   0  0  1  0  0  0  0  0  0  0  0  0
   27.8222  -19.8686  -12.4918 C   0  0  0  0  0  0  0  0  0  0  0  0
   27.6111  -19.4299  -13.8887 C   0  0  0  0  0  0  0  0  0  0  0  0
   27.2627  -18.0893  -14.0931 C   0  0  0  0  0  0  0  0  0  0  0  0
   27.0770  -17.6520  -15.3762 C   0  0  0  0  0  0  0  0  0  0  0  0
   27.2259  -18.5004  -16.4528 C   0  0  0  0  0  0  0  0  0  0  0  0
   27.5705  -19.8285  -16.2612 C   0  0  0  0  0  0  0  0  0  0  0  0
   27.7534  -20.2548  -14.9824 C   0  0  0  0  0  0  0  0  0  0  0  0
   25.6592  -21.0604  -12.4616 C   0  0  0  0  0  0  0  0  0  0  0  0
   26.0009  -22.2821  -12.5113 O   0  0  0  0  0  0  0  0  0  0  0  0
   24.4491  -20.6545  -13.0756 N   0  0  0  0  0  0  0  0  0  0  0  0
   23.6202  -21.6269  -13.7553 C   0  0  1  0  0  0  0  0  0  0  0  0
   22.2458  -21.5352  -13.1504 C   0  0  0  0  0  0  0  0  0  0  0  0
   21.6834  -20.2081  -13.3813 C   0  0  0  0  0  0  0  0  0  0  0  0
   22.2907  -19.2629  -13.9577 O   0  0  0  0  0  0  0  0  0  0  0  0
   23.6070  -21.3834  -15.2199 C   0  0  0  0  0  0  0  0  0  0  0  0
   23.4000  -20.1229  -15.7169 O   0  0  0  0  0  0  0  0  0  0  0  0
   20.3749  -19.9816  -12.9251 O   0  0  0  0  0  0  0  0  0  0  0  0
   23.7839  -22.3262  -16.0309 O   0  0  0  0  0  0  0  0  0  0  0  0
  2  1  1  1
  2  3  1  0
  3  4  1  0
  4  5  2  0
  5  6  1  0
  7  6  2  0
  8  7  1  0
  9  4  1  0
  9  8  2  0
 10  2  1  0
 11 10  2  0
 12 10  1  0
 13 21  1  0
 13 12  1  0
 13 14  1  6
 15 14  1  0
 16 15  2  0
 17 16  1  0
 18 19  1  0
 18 17  2  0
 19 20  2  0
 20 15  1  0
 21 23  1  0
 22 21  2  0
 23 24  1  0
 24 28  1  0
 25 26  1  0
 24 25  1  1
 26 27  2  0
 28 31  2  0
 28 29  1  0
 30 26  1  0
M  END
$$$$
