FFD.pdb
     RDKit          3D

 31 32  0  0  1  0  0  0  0  0999 V2000
   17.1106  -19.1926    1.7048 N   0  0  0  0  0  0  0  0  0  0  0  0
   16.9075  -19.4639    3.0965 C   0  0  1  0  0  0  0  0  0  0  0  0
   16.4645  -20.8883    3.3514 C   0  0  0  0  0  0  0  0  0  0  0  0
   15.1716  -21.1806    2.6662 C   0  0  0  0  0  0  0  0  0  0  0  0
   13.9688  -20.8692    3.2519 C   0  0  0  0  0  0  0  0  0  0  0  0
   12.7664  -21.1181    2.6626 C   0  0  0  0  0  0  0  0  0  0  0  0
   12.7883  -21.7192    1.4035 C   0  0  0  0  0  0  0  0  0  0  0  0
   13.9889  -22.0373    0.8037 C   0  0  0  0  0  0  0  0  0  0  0  0
   15.1981  -21.7735    1.4246 C   0  0  0  0  0  0  0  0  0  0  0  0
   18.1479  -19.2327    3.8745 C   0  0  0  0  0  0  0  0  0  0  0  0
   19.2704  -19.5586    3.4092 O   0  0  0  0  0  0  0  0  0  0  0  0
   18.0160  -18.6337    5.1544 N   0  0  0  0  0  0  0  0  0  0  0  0
   19.1979  -18.3494    5.9465 C   0  0  1  0  0  0  0  0  0  0  0  0
   19.4344  -16.8957    6.1251 C   0  0  0  0  0  0  0  0  0  0  0  0
   20.5975  -16.5889    6.9862 C   0  0  0  0  0  0  0  0  0  0  0  0
   20.4382  -15.5771    7.9408 C   0  0  0  0  0  0  0  0  0  0  0  0
   21.4925  -15.2831    8.7618 C   0  0  0  0  0  0  0  0  0  0  0  0
   22.6901  -15.9592    8.6629 C   0  0  0  0  0  0  0  0  0  0  0  0
   22.8577  -16.9620    7.7219 C   0  0  0  0  0  0  0  0  0  0  0  0
   21.8045  -17.2479    6.9099 C   0  0  0  0  0  0  0  0  0  0  0  0
   19.0271  -19.0665    7.2304 C   0  0  0  0  0  0  0  0  0  0  0  0
   17.8912  -19.0049    7.7941 O   0  0  0  0  0  0  0  0  0  0  0  0
   20.0657  -19.8076    7.8453 N   0  0  0  0  0  0  0  0  0  0  0  0
   19.8580  -20.4013    9.1488 C   0  0  1  0  0  0  0  0  0  0  0  0
   19.8260  -21.8928    8.9546 C   0  0  0  0  0  0  0  0  0  0  0  0
   19.4934  -22.5556   10.2119 C   0  0  0  0  0  0  0  0  0  0  0  0
   19.0302  -21.9697   11.2301 O   0  0  0  0  0  0  0  0  0  0  0  0
   20.9181  -19.9809   10.0995 C   0  0  0  0  0  0  0  0  0  0  0  0
   20.5947  -19.5380   11.3557 O   0  0  0  0  0  0  0  0  0  0  0  0
   19.7087  -23.9415   10.2789 O   0  0  0  0  0  0  0  0  0  0  0  0
   22.1300  -20.0218    9.7716 O   0  0  0  0  0  0  0  0  0  0  0  0
  2  1  1  6
  2  3  1  0
  3  4  1  0
  4  5  2  0
  5  6  1  0
  7  6  2  0
  8  7  1  0
  9  4  1  0
  9  8  2  0
 10  2  1  0
 11 10  2  0
 12 10  1  0
 13 21  1  0
 13 12  1  0
 13 14  1  1
 15 14  1  0
 16 15  2  0
 17 16  1  0
 18 19  1  0
 18 17  2  0
 19 20  2  0
 20 15  1  0
 21 23  1  0
 22 21  2  0
 23 24  1  0
 24 28  1  0
 25 26  1  0
 24 25  1  6
 26 27  2  0
 28 31  2  0
 28 29  1  0
 30 26  1  0
M  END
$$$$
