FFD.pdb
     RDKit          3D

 31 32  0  0  1  0  0  0  0  0999 V2000
   16.1416  -18.9076    1.4011 N   0  0  0  0  0  0  0  0  0  0  0  0
   15.7237  -17.7690    2.1631 C   0  0  1  0  0  0  0  0  0  0  0  0
   14.7300  -18.1287    3.2464 C   0  0  0  0  0  0  0  0  0  0  0  0
   13.3352  -18.1362    2.7163 C   0  0  0  0  0  0  0  0  0  0  0  0
   12.8072  -17.0363    2.0853 C   0  0  0  0  0  0  0  0  0  0  0  0
   11.5402  -16.9998    1.5869 C   0  0  0  0  0  0  0  0  0  0  0  0
   10.7643  -18.1496    1.7391 C   0  0  0  0  0  0  0  0  0  0  0  0
   11.2818  -19.2612    2.3707 C   0  0  0  0  0  0  0  0  0  0  0  0
   12.5737  -19.2723    2.8687 C   0  0  0  0  0  0  0  0  0  0  0  0
   16.8787  -17.1064    2.8144 C   0  0  0  0  0  0  0  0  0  0  0  0
   17.9210  -17.7542    3.0914 O   0  0  0  0  0  0  0  0  0  0  0  0
   16.7592  -15.7233    3.1093 N   0  0  0  0  0  0  0  0  0  0  0  0
   17.7849  -15.0578    3.8905 C   0  0  1  0  0  0  0  0  0  0  0  0
   17.6198  -13.5838    3.9198 C   0  0  0  0  0  0  0  0  0  0  0  0
   18.7191  -12.8809    4.6168 C   0  0  0  0  0  0  0  0  0  0  0  0
   18.3618  -11.9362    5.5864 C   0  0  0  0  0  0  0  0  0  0  0  0
   19.3583  -11.2823    6.2584 C   0  0  0  0  0  0  0  0  0  0  0  0
   20.6879  -11.5375    5.9974 C   0  0  0  0  0  0  0  0  0  0  0  0
   21.0518  -12.4705    5.0401 C   0  0  0  0  0  0  0  0  0  0  0  0
   20.0548  -13.1160    4.3769 C   0  0  0  0  0  0  0  0  0  0  0  0
   17.7492  -15.6676    5.2392 C   0  0  0  0  0  0  0  0  0  0  0  0
   17.3569  -16.8714    5.3322 O   0  0  0  0  0  0  0  0  0  0  0  0
   18.1298  -14.9710    6.4121 N   0  0  0  0  0  0  0  0  0  0  0  0
   18.0961  -15.6401    7.6950 C   0  0  1  0  0  0  0  0  0  0  0  0
   19.0316  -16.8148    7.6049 C   0  0  0  0  0  0  0  0  0  0  0  0
   18.9700  -17.6008    8.8334 C   0  0  0  0  0  0  0  0  0  0  0  0
   18.0762  -17.4802    9.7171 O   0  0  0  0  0  0  0  0  0  0  0  0
   18.4670  -14.7089    8.7903 C   0  0  0  0  0  0  0  0  0  0  0  0
   17.9032  -14.8324   10.0335 O   0  0  0  0  0  0  0  0  0  0  0  0
   19.9821  -18.5535    9.0326 O   0  0  0  0  0  0  0  0  0  0  0  0
   19.3025  -13.7906    8.5992 O   0  0  0  0  0  0  0  0  0  0  0  0
  2  1  1  1
  2  3  1  0
  3  4  1  0
  4  5  2  0
  5  6  1  0
  7  6  2  0
  8  7  1  0
  9  4  1  0
  9  8  2  0
 10  2  1  0
 11 10  2  0
 12 10  1  0
 13 21  1  0
 13 12  1  0
 13 14  1  1
 15 14  1  0
 16 15  2  0
 17 16  1  0
 18 19  1  0
 18 17  2  0
 19 20  2  0
 20 15  1  0
 21 23  1  0
 22 21  2  0
 23 24  1  0
 24 28  1  0
 25 26  1  0
 24 25  1  6
 26 27  2  0
 28 31  2  0
 28 29  1  0
 30 26  1  0
M  END
$$$$
