FFD.pdb
     RDKit          3D

 31 32  0  0  1  0  0  0  0  0999 V2000
   26.4642  -11.1907  -17.7609 N   0  0  0  0  0  0  0  0  0  0  0  0
   25.3874  -10.8679  -16.8733 C   0  0  1  0  0  0  0  0  0  0  0  0
   25.4962  -11.5839  -15.5444 C   0  0  0  0  0  0  0  0  0  0  0  0
   26.6165  -12.5695  -15.5544 C   0  0  0  0  0  0  0  0  0  0  0  0
   26.4087  -13.8804  -15.9084 C   0  0  0  0  0  0  0  0  0  0  0  0
   27.4014  -14.8125  -15.9312 C   0  0  0  0  0  0  0  0  0  0  0  0
   28.6810  -14.3866  -15.5729 C   0  0  0  0  0  0  0  0  0  0  0  0
   28.9040  -13.0733  -15.2153 C   0  0  0  0  0  0  0  0  0  0  0  0
   27.8768  -12.1451  -15.2003 C   0  0  0  0  0  0  0  0  0  0  0  0
   25.3382   -9.4124  -16.5970 C   0  0  0  0  0  0  0  0  0  0  0  0
   26.3947   -8.7571  -16.4045 O   0  0  0  0  0  0  0  0  0  0  0  0
   24.0604   -8.7958  -16.5594 N   0  0  0  0  0  0  0  0  0  0  0  0
   23.9551   -7.3540  -16.4366 C   0  0  1  0  0  0  0  0  0  0  0  0
   24.7162   -6.6304  -17.4845 C   0  0  0  0  0  0  0  0  0  0  0  0
   24.4596   -5.1736  -17.5000 C   0  0  0  0  0  0  0  0  0  0  0  0
   25.1306   -4.3952  -16.5491 C   0  0  0  0  0  0  0  0  0  0  0  0
   24.9245   -3.0426  -16.5504 C   0  0  0  0  0  0  0  0  0  0  0  0
   24.0785   -2.4459  -17.4611 C   0  0  0  0  0  0  0  0  0  0  0  0
   23.4100   -3.2073  -18.4061 C   0  0  0  0  0  0  0  0  0  0  0  0
   23.6208   -4.5511  -18.3977 C   0  0  0  0  0  0  0  0  0  0  0  0
   22.5095   -7.0344  -16.4514 C   0  0  0  0  0  0  0  0  0  0  0  0
   21.8224   -7.4549  -17.4326 O   0  0  0  0  0  0  0  0  0  0  0  0
   21.8727   -6.2891  -15.4292 N   0  0  0  0  0  0  0  0  0  0  0  0
   20.4638   -5.9744  -15.5329 C   0  0  1  0  0  0  0  0  0  0  0  0
   19.7934   -6.5431  -14.3121 C   0  0  0  0  0  0  0  0  0  0  0  0
   18.3531   -6.3153  -14.3785 C   0  0  0  0  0  0  0  0  0  0  0  0
   17.6404   -6.5275  -15.3990 O   0  0  0  0  0  0  0  0  0  0  0  0
   20.2540   -4.5100  -15.6585 C   0  0  0  0  0  0  0  0  0  0  0  0
   20.4456   -3.8770  -16.8591 O   0  0  0  0  0  0  0  0  0  0  0  0
   17.7305   -5.8259  -13.2189 O   0  0  0  0  0  0  0  0  0  0  0  0
   19.8985   -3.8233  -14.6686 O   0  0  0  0  0  0  0  0  0  0  0  0
  2  1  1  6
  2  3  1  0
  3  4  1  0
  4  5  2  0
  5  6  1  0
  7  6  2  0
  8  7  1  0
  9  4  1  0
  9  8  2  0
 10  2  1  0
 11 10  2  0
 12 10  1  0
 13 21  1  0
 13 12  1  0
 13 14  1  6
 15 14  1  0
 16 15  2  0
 17 16  1  0
 18 19  1  0
 18 17  2  0
 19 20  2  0
 20 15  1  0
 21 23  1  0
 22 21  2  0
 23 24  1  0
 24 28  1  0
 25 26  1  0
 24 25  1  1
 26 27  2  0
 28 31  2  0
 28 29  1  0
 30 26  1  0
M  END
$$$$
