FFD.pdb
     RDKit          3D

 31 32  0  0  1  0  0  0  0  0999 V2000
   29.1828  -23.5771  -10.9478 N   0  0  0  0  0  0  0  0  0  0  0  0
   29.1698  -22.3750  -10.1693 C   0  0  1  0  0  0  0  0  0  0  0  0
   30.1525  -21.3429  -10.6789 C   0  0  0  0  0  0  0  0  0  0  0  0
   31.5589  -21.8172  -10.5255 C   0  0  0  0  0  0  0  0  0  0  0  0
   32.2587  -22.3278  -11.5915 C   0  0  0  0  0  0  0  0  0  0  0  0
   33.5427  -22.7716  -11.4963 C   0  0  0  0  0  0  0  0  0  0  0  0
   34.1513  -22.6915  -10.2431 C   0  0  0  0  0  0  0  0  0  0  0  0
   33.4604  -22.1809   -9.1640 C   0  0  0  0  0  0  0  0  0  0  0  0
   32.1550  -21.7362   -9.2878 C   0  0  0  0  0  0  0  0  0  0  0  0
   27.8246  -21.7522  -10.1669 C   0  0  0  0  0  0  0  0  0  0  0  0
   26.9050  -22.2022  -10.8980 O   0  0  0  0  0  0  0  0  0  0  0  0
   27.6207  -20.6373   -9.3127 N   0  0  0  0  0  0  0  0  0  0  0  0
   26.2911  -20.3409   -8.8133 C   0  0  1  0  0  0  0  0  0  0  0  0
   26.2875  -19.2668   -7.7899 C   0  0  0  0  0  0  0  0  0  0  0  0
   27.0743  -19.6001   -6.5823 C   0  0  0  0  0  0  0  0  0  0  0  0
   26.7457  -20.7839   -5.9107 C   0  0  0  0  0  0  0  0  0  0  0  0
   27.4676  -21.1255   -4.7997 C   0  0  0  0  0  0  0  0  0  0  0  0
   28.4975  -20.3320   -4.3405 C   0  0  0  0  0  0  0  0  0  0  0  0
   28.8305  -19.1589   -4.9980 C   0  0  0  0  0  0  0  0  0  0  0  0
   28.1078  -18.8270   -6.1016 C   0  0  0  0  0  0  0  0  0  0  0  0
   25.4608  -20.0129   -9.9944 C   0  0  0  0  0  0  0  0  0  0  0  0
   26.0504  -19.5552  -11.0213 O   0  0  0  0  0  0  0  0  0  0  0  0
   24.0556  -20.1871  -10.0231 N   0  0  0  0  0  0  0  0  0  0  0  0
   23.3514  -20.1864  -11.2876 C   0  0  1  0  0  0  0  0  0  0  0  0
   23.9699  -21.2622  -12.1380 C   0  0  0  0  0  0  0  0  0  0  0  0
   23.2217  -21.4104  -13.3825 C   0  0  0  0  0  0  0  0  0  0  0  0
   22.1652  -20.7782  -13.6630 O   0  0  0  0  0  0  0  0  0  0  0  0
   21.8957  -20.3971  -11.0856 C   0  0  0  0  0  0  0  0  0  0  0  0
   21.3791  -20.5434   -9.8245 O   0  0  0  0  0  0  0  0  0  0  0  0
   23.7238  -22.3232  -14.3240 O   0  0  0  0  0  0  0  0  0  0  0  0
   21.1104  -20.4463  -12.0648 O   0  0  0  0  0  0  0  0  0  0  0  0
  2  1  1  6
  2  3  1  0
  3  4  1  0
  4  5  2  0
  5  6  1  0
  7  6  2  0
  8  7  1  0
  9  4  1  0
  9  8  2  0
 10  2  1  0
 11 10  2  0
 12 10  1  0
 13 21  1  0
 13 12  1  0
 13 14  1  1
 15 14  1  0
 16 15  2  0
 17 16  1  0
 18 19  1  0
 18 17  2  0
 19 20  2  0
 20 15  1  0
 21 23  1  0
 22 21  2  0
 23 24  1  0
 24 28  1  0
 25 26  1  0
 24 25  1  6
 26 27  2  0
 28 31  2  0
 28 29  1  0
 30 26  1  0
M  END
$$$$
