FFD.pdb
     RDKit          3D

 31 32  0  0  1  0  0  0  0  0999 V2000
   28.1647  -20.8416  -13.4998 N   0  0  0  0  0  0  0  0  0  0  0  0
   27.4834  -19.8222  -12.7595 C   0  0  1  0  0  0  0  0  0  0  0  0
   26.2769  -19.2793  -13.4944 C   0  0  0  0  0  0  0  0  0  0  0  0
   26.6842  -18.3215  -14.5636 C   0  0  0  0  0  0  0  0  0  0  0  0
   27.0224  -17.0238  -14.2662 C   0  0  0  0  0  0  0  0  0  0  0  0
   27.3996  -16.1170  -15.2098 C   0  0  0  0  0  0  0  0  0  0  0  0
   27.4350  -16.5556  -16.5340 C   0  0  0  0  0  0  0  0  0  0  0  0
   27.0980  -17.8560  -16.8469 C   0  0  0  0  0  0  0  0  0  0  0  0
   26.7177  -18.7584  -15.8681 C   0  0  0  0  0  0  0  0  0  0  0  0
   27.0186  -20.3323  -11.4475 C   0  0  0  0  0  0  0  0  0  0  0  0
   26.6930  -21.5390  -11.3041 O   0  0  0  0  0  0  0  0  0  0  0  0
   26.9573  -19.4098  -10.3707 N   0  0  0  0  0  0  0  0  0  0  0  0
   26.5520  -19.8607   -9.0526 C   0  0  1  0  0  0  0  0  0  0  0  0
   26.9557  -18.9242   -7.9751 C   0  0  0  0  0  0  0  0  0  0  0  0
   27.2323  -19.5933   -6.6851 C   0  0  0  0  0  0  0  0  0  0  0  0
   26.3654  -20.6228   -6.2991 C   0  0  0  0  0  0  0  0  0  0  0  0
   26.6066  -21.2702   -5.1180 C   0  0  0  0  0  0  0  0  0  0  0  0
   27.6747  -20.9275   -4.3163 C   0  0  0  0  0  0  0  0  0  0  0  0
   28.5382  -19.9104   -4.6893 C   0  0  0  0  0  0  0  0  0  0  0  0
   28.2912  -19.2722   -5.8649 C   0  0  0  0  0  0  0  0  0  0  0  0
   25.0880  -20.0731   -9.1115 C   0  0  0  0  0  0  0  0  0  0  0  0
   24.3532  -19.0606   -9.3278 O   0  0  0  0  0  0  0  0  0  0  0  0
   24.4840  -21.3424   -8.9389 N   0  0  0  0  0  0  0  0  0  0  0  0
   23.0449  -21.4760   -9.0138 C   0  0  1  0  0  0  0  0  0  0  0  0
   22.7421  -22.3197  -10.2219 C   0  0  0  0  0  0  0  0  0  0  0  0
   21.3048  -22.5536  -10.3233 C   0  0  0  0  0  0  0  0  0  0  0  0
   20.4179  -21.7140  -10.0025 O   0  0  0  0  0  0  0  0  0  0  0  0
   22.4999  -22.0662   -7.7652 C   0  0  0  0  0  0  0  0  0  0  0  0
   21.2153  -21.7994   -7.3687 O   0  0  0  0  0  0  0  0  0  0  0  0
   20.8949  -23.8039  -10.8136 O   0  0  0  0  0  0  0  0  0  0  0  0
   23.2046  -22.8195   -7.0483 O   0  0  0  0  0  0  0  0  0  0  0  0
  2  1  1  6
  2  3  1  0
  3  4  1  0
  4  5  2  0
  5  6  1  0
  7  6  2  0
  8  7  1  0
  9  4  1  0
  9  8  2  0
 10  2  1  0
 11 10  2  0
 12 10  1  0
 13 21  1  0
 13 12  1  0
 13 14  1  1
 15 14  1  0
 16 15  2  0
 17 16  1  0
 18 19  1  0
 18 17  2  0
 19 20  2  0
 20 15  1  0
 21 23  1  0
 22 21  2  0
 23 24  1  0
 24 28  1  0
 25 26  1  0
 24 25  1  6
 26 27  2  0
 28 31  2  0
 28 29  1  0
 30 26  1  0
M  END
$$$$
