FFD.pdb
     RDKit          3D

 31 32  0  0  1  0  0  0  0  0999 V2000
   28.9278  -20.3050  -14.5992 N   0  0  0  0  0  0  0  0  0  0  0  0
   27.7771  -19.6177  -14.0943 C   0  0  1  0  0  0  0  0  0  0  0  0
   26.9284  -19.0203  -15.1957 C   0  0  0  0  0  0  0  0  0  0  0  0
   27.6227  -17.8712  -15.8469 C   0  0  0  0  0  0  0  0  0  0  0  0
   27.6748  -16.6372  -15.2458 C   0  0  0  0  0  0  0  0  0  0  0  0
   28.2972  -15.5621  -15.8041 C   0  0  0  0  0  0  0  0  0  0  0  0
   28.9024  -15.7530  -17.0468 C   0  0  0  0  0  0  0  0  0  0  0  0
   28.8578  -16.9868  -17.6618 C   0  0  0  0  0  0  0  0  0  0  0  0
   28.2182  -18.0641  -17.0725 C   0  0  0  0  0  0  0  0  0  0  0  0
   26.9133  -20.5270  -13.3041 C   0  0  0  0  0  0  0  0  0  0  0  0
   26.8919  -21.7625  -13.5405 O   0  0  0  0  0  0  0  0  0  0  0  0
   26.1192  -19.9495  -12.2794 N   0  0  0  0  0  0  0  0  0  0  0  0
   25.2807  -20.7943  -11.4497 C   0  0  1  0  0  0  0  0  0  0  0  0
   25.2421  -20.3530  -10.0338 C   0  0  0  0  0  0  0  0  0  0  0  0
   26.4764  -20.6713   -9.2831 C   0  0  0  0  0  0  0  0  0  0  0  0
   26.6315  -20.0773   -8.0247 C   0  0  0  0  0  0  0  0  0  0  0  0
   27.7562  -20.3665   -7.3011 C   0  0  0  0  0  0  0  0  0  0  0  0
   28.7229  -21.2211   -7.7871 C   0  0  0  0  0  0  0  0  0  0  0  0
   28.5787  -21.8139   -9.0309 C   0  0  0  0  0  0  0  0  0  0  0  0
   27.4576  -21.5211   -9.7435 C   0  0  0  0  0  0  0  0  0  0  0  0
   23.9427  -20.8122  -12.0833 C   0  0  0  0  0  0  0  0  0  0  0  0
   23.5647  -19.7650  -12.6934 O   0  0  0  0  0  0  0  0  0  0  0  0
   23.0808  -21.9351  -12.0363 N   0  0  0  0  0  0  0  0  0  0  0  0
   21.7934  -21.8880  -12.6959 C   0  0  1  0  0  0  0  0  0  0  0  0
   21.5208  -23.2672  -13.2312 C   0  0  0  0  0  0  0  0  0  0  0  0
   21.8525  -23.3289  -14.6514 C   0  0  0  0  0  0  0  0  0  0  0  0
   22.1848  -22.3334  -15.3535 O   0  0  0  0  0  0  0  0  0  0  0  0
   20.7343  -21.4280  -11.7624 C   0  0  0  0  0  0  0  0  0  0  0  0
   19.4616  -21.1900  -12.2121 O   0  0  0  0  0  0  0  0  0  0  0  0
   21.7936  -24.5900  -15.2660 O   0  0  0  0  0  0  0  0  0  0  0  0
   20.9837  -21.2472  -10.5446 O   0  0  0  0  0  0  0  0  0  0  0  0
  2  1  1  6
  2  3  1  0
  3  4  1  0
  4  5  2  0
  5  6  1  0
  7  6  2  0
  8  7  1  0
  9  4  1  0
  9  8  2  0
 10  2  1  0
 11 10  2  0
 12 10  1  0
 13 21  1  0
 13 12  1  0
 13 14  1  1
 15 14  1  0
 16 15  2  0
 17 16  1  0
 18 19  1  0
 18 17  2  0
 19 20  2  0
 20 15  1  0
 21 23  1  0
 22 21  2  0
 23 24  1  0
 24 28  1  0
 25 26  1  0
 24 25  1  1
 26 27  2  0
 28 31  2  0
 28 29  1  0
 30 26  1  0
M  END
$$$$
