FFD.pdb
     RDKit          3D

 31 32  0  0  1  0  0  0  0  0999 V2000
   22.1539  -12.9271  -17.5118 N   0  0  0  0  0  0  0  0  0  0  0  0
   22.1861  -11.5450  -17.8862 C   0  0  1  0  0  0  0  0  0  0  0  0
   21.0918  -11.1839  -18.8672 C   0  0  0  0  0  0  0  0  0  0  0  0
   21.3107  -11.8473  -20.1857 C   0  0  0  0  0  0  0  0  0  0  0  0
   22.5768  -12.0661  -20.6714 C   0  0  0  0  0  0  0  0  0  0  0  0
   22.8221  -12.6674  -21.8686 C   0  0  0  0  0  0  0  0  0  0  0  0
   21.7147  -13.0700  -22.6160 C   0  0  0  0  0  0  0  0  0  0  0  0
   20.4377  -12.8566  -22.1404 C   0  0  0  0  0  0  0  0  0  0  0  0
   20.2156  -12.2426  -20.9194 C   0  0  0  0  0  0  0  0  0  0  0  0
   22.0370  -10.6652  -16.7025 C   0  0  0  0  0  0  0  0  0  0  0  0
   21.2152  -10.9443  -15.7917 O   0  0  0  0  0  0  0  0  0  0  0  0
   22.8532   -9.5057  -16.6414 N   0  0  0  0  0  0  0  0  0  0  0  0
   22.7333   -8.5935  -15.5195 C   0  0  1  0  0  0  0  0  0  0  0  0
   23.9291   -8.6016  -14.6415 C   0  0  0  0  0  0  0  0  0  0  0  0
   25.1846   -8.9160  -15.3579 C   0  0  0  0  0  0  0  0  0  0  0  0
   25.8399  -10.1036  -15.0104 C   0  0  0  0  0  0  0  0  0  0  0  0
   26.9950  -10.4277  -15.6681 C   0  0  0  0  0  0  0  0  0  0  0  0
   27.5136   -9.6135  -16.6526 C   0  0  0  0  0  0  0  0  0  0  0  0
   26.8728   -8.4365  -17.0039 C   0  0  0  0  0  0  0  0  0  0  0  0
   25.7250   -8.1220  -16.3451 C   0  0  0  0  0  0  0  0  0  0  0  0
   22.4482   -7.2579  -16.0911 C   0  0  0  0  0  0  0  0  0  0  0  0
   23.0699   -6.9227  -17.1460 O   0  0  0  0  0  0  0  0  0  0  0  0
   21.5229   -6.3530  -15.5158 N   0  0  0  0  0  0  0  0  0  0  0  0
   21.2828   -5.0689  -16.1388 C   0  0  1  0  0  0  0  0  0  0  0  0
   19.7943   -4.9324  -16.3093 C   0  0  0  0  0  0  0  0  0  0  0  0
   19.4097   -5.2943  -17.6701 C   0  0  0  0  0  0  0  0  0  0  0  0
   18.4204   -6.0211  -17.9657 O   0  0  0  0  0  0  0  0  0  0  0  0
   21.8588   -3.9678  -15.3263 C   0  0  0  0  0  0  0  0  0  0  0  0
   22.2474   -4.1852  -14.0300 O   0  0  0  0  0  0  0  0  0  0  0  0
   20.2048   -4.7918  -18.7127 O   0  0  0  0  0  0  0  0  0  0  0  0
   22.0000   -2.8170  -15.8097 O   0  0  0  0  0  0  0  0  0  0  0  0
  2  1  1  1
  2  3  1  0
  3  4  1  0
  4  5  2  0
  5  6  1  0
  7  6  2  0
  8  7  1  0
  9  4  1  0
  9  8  2  0
 10  2  1  0
 11 10  2  0
 12 10  1  0
 13 21  1  0
 13 12  1  0
 13 14  1  6
 15 14  1  0
 16 15  2  0
 17 16  1  0
 18 19  1  0
 18 17  2  0
 19 20  2  0
 20 15  1  0
 21 23  1  0
 22 21  2  0
 23 24  1  0
 24 28  1  0
 25 26  1  0
 24 25  1  1
 26 27  2  0
 28 31  2  0
 28 29  1  0
 30 26  1  0
M  END
$$$$
