FFD.pdb
     RDKit          3D

 31 32  0  0  1  0  0  0  0  0999 V2000
   24.9516  -22.3820  -17.5587 N   0  0  0  0  0  0  0  0  0  0  0  0
   23.8350  -21.5618  -17.1952 C   0  0  1  0  0  0  0  0  0  0  0  0
   22.6375  -21.7801  -18.0945 C   0  0  0  0  0  0  0  0  0  0  0  0
   22.9017  -21.2768  -19.4742 C   0  0  0  0  0  0  0  0  0  0  0  0
   22.9457  -19.9309  -19.7450 C   0  0  0  0  0  0  0  0  0  0  0  0
   23.1835  -19.4283  -20.9883 C   0  0  0  0  0  0  0  0  0  0  0  0
   23.3887  -20.3486  -22.0170 C   0  0  0  0  0  0  0  0  0  0  0  0
   23.3473  -21.7030  -21.7592 C   0  0  0  0  0  0  0  0  0  0  0  0
   23.1035  -22.1880  -20.4854 C   0  0  0  0  0  0  0  0  0  0  0  0
   23.4053  -21.8280  -15.8017 C   0  0  0  0  0  0  0  0  0  0  0  0
   23.5809  -22.9584  -15.2782 O   0  0  0  0  0  0  0  0  0  0  0  0
   22.7932  -20.7632  -15.0906 N   0  0  0  0  0  0  0  0  0  0  0  0
   22.4371  -20.9347  -13.6945 C   0  0  1  0  0  0  0  0  0  0  0  0
   22.8058  -19.7653  -12.8592 C   0  0  0  0  0  0  0  0  0  0  0  0
   22.5190  -19.9546  -11.4204 C   0  0  0  0  0  0  0  0  0  0  0  0
   23.4648  -20.6597  -10.6664 C   0  0  0  0  0  0  0  0  0  0  0  0
   23.2332  -20.8360   -9.3294 C   0  0  0  0  0  0  0  0  0  0  0  0
   22.0991  -20.3363   -8.7250 C   0  0  0  0  0  0  0  0  0  0  0  0
   21.1573  -19.6371   -9.4622 C   0  0  0  0  0  0  0  0  0  0  0  0
   21.3956  -19.4664  -10.7906 C   0  0  0  0  0  0  0  0  0  0  0  0
   20.9866  -21.2298  -13.6629 C   0  0  0  0  0  0  0  0  0  0  0  0
   20.2246  -20.5224  -14.3913 O   0  0  0  0  0  0  0  0  0  0  0  0
   20.4242  -22.2551  -12.8639 N   0  0  0  0  0  0  0  0  0  0  0  0
   18.9907  -22.4536  -12.8438 C   0  0  1  0  0  0  0  0  0  0  0  0
   18.7025  -23.4838  -11.7861 C   0  0  0  0  0  0  0  0  0  0  0  0
   17.2906  -23.8529  -11.8165 C   0  0  0  0  0  0  0  0  0  0  0  0
   16.4302  -23.3324  -12.5803 O   0  0  0  0  0  0  0  0  0  0  0  0
   18.2803  -21.1746  -12.5910 C   0  0  0  0  0  0  0  0  0  0  0  0
   17.2919  -20.7450  -13.4379 O   0  0  0  0  0  0  0  0  0  0  0  0
   16.8747  -24.8583  -10.9289 O   0  0  0  0  0  0  0  0  0  0  0  0
   18.5714  -20.4618  -11.5984 O   0  0  0  0  0  0  0  0  0  0  0  0
  2  1  1  6
  2  3  1  0
  3  4  1  0
  4  5  2  0
  5  6  1  0
  7  6  2  0
  8  7  1  0
  9  4  1  0
  9  8  2  0
 10  2  1  0
 11 10  2  0
 12 10  1  0
 13 21  1  0
 13 12  1  0
 13 14  1  1
 15 14  1  0
 16 15  2  0
 17 16  1  0
 18 19  1  0
 18 17  2  0
 19 20  2  0
 20 15  1  0
 21 23  1  0
 22 21  2  0
 23 24  1  0
 24 28  1  0
 25 26  1  0
 24 25  1  1
 26 27  2  0
 28 31  2  0
 28 29  1  0
 30 26  1  0
M  END
$$$$
