WTS.pdb
     RDKit          3D

 28 29  0  0  1  0  0  0  0  0999 V2000
   28.0164  -21.4865  -10.9802 N   0  0  0  0  0  0  0  0  0  0  0  0
   26.7765  -21.0823  -10.3439 C   0  0  1  0  0  0  0  0  0  0  0  0
   27.0938  -20.0214   -9.3137 C   0  0  0  0  0  0  0  0  0  0  0  0
   28.1752  -20.4827   -8.3985 C   0  0  0  0  0  0  0  0  0  0  0  0
   29.2403  -21.2908   -8.6971 C   0  0  0  0  0  0  0  0  0  0  0  0
   29.9551  -21.4424   -7.5774 N   0  0  0  0  0  0  0  0  0  0  0  0
   29.3836  -20.7592   -6.5734 C   0  0  0  0  0  0  0  0  0  0  0  0
   29.7030  -20.5763   -5.2265 C   0  0  0  0  0  0  0  0  0  0  0  0
   28.9158  -19.8006   -4.4040 C   0  0  0  0  0  0  0  0  0  0  0  0
   27.7828  -19.1774   -4.8856 C   0  0  0  0  0  0  0  0  0  0  0  0
   27.4862  -19.3715   -6.2176 C   0  0  0  0  0  0  0  0  0  0  0  0
   28.2738  -20.1545   -7.0641 C   0  0  0  0  0  0  0  0  0  0  0  0
   25.8772  -20.5769  -11.4053 C   0  0  0  0  0  0  0  0  0  0  0  0
   26.4027  -19.9958  -12.3893 O   0  0  0  0  0  0  0  0  0  0  0  0
   25.4735  -20.9018  -14.1518 C   0  0  0  0  0  0  0  0  0  0  0  0
   24.0726  -21.1397  -13.7284 C   0  0  1  0  0  0  0  0  0  0  0  0
   23.9747  -22.5391  -13.4944 O   0  0  0  0  0  0  0  0  0  0  0  0
   23.6021  -20.3868  -12.5172 C   0  0  2  0  0  0  0  0  0  0  0  0
   24.4655  -20.7146  -11.3671 N   0  0  0  0  0  0  0  0  0  0  0  0
   22.1888  -20.6212  -12.1539 C   0  0  0  0  0  0  0  0  0  0  0  0
   21.8721  -21.4956  -11.2754 O   0  0  0  0  0  0  0  0  0  0  0  0
   19.3735  -17.8513  -12.0704 O   0  0  0  0  0  0  0  0  0  0  0  0
   18.9156  -18.9631  -12.7890 C   0  0  0  0  0  0  0  0  0  0  0  0
   19.7234  -20.1617  -12.2697 C   0  0  2  0  0  0  0  0  0  0  0  0
   21.0867  -19.9322  -12.7119 N   0  0  0  0  0  0  0  0  0  0  0  0
   19.2354  -21.4045  -12.8868 C   0  0  0  0  0  0  0  0  0  0  0  0
   18.2064  -22.1092  -12.2969 O   0  0  0  0  0  0  0  0  0  0  0  0
   19.7451  -21.8260  -13.9401 O   0  0  0  0  0  0  0  0  0  0  0  0
  2  1  1  6
  2  3  1  0
  2 13  1  0
  4 12  1  0
  4  3  1  0
  5  4  2  0
  6  5  1  0
  6  7  1  0
  7  8  1  0
  7 12  2  0
  8  9  2  0
  9 10  1  0
 11 10  2  0
 12 11  1  0
 13 14  2  0
 16 18  1  0
 16 15  1  1
 17 16  1  0
 19 13  1  0
 18 19  1  1
 20 25  1  0
 20 18  1  0
 21 20  2  0
 23 22  1  0
 24 25  1  0
 24 23  1  6
 26 27  1  0
 26 24  1  0
 28 26  2  0
M  END
$$$$
