WTS.pdb
     RDKit          3D

 28 29  0  0  1  0  0  0  0  0999 V2000
   28.0429  -22.2559  -10.8094 N   0  0  0  0  0  0  0  0  0  0  0  0
   27.0648  -21.2994  -10.3255 C   0  0  1  0  0  0  0  0  0  0  0  0
   27.8042  -20.1119   -9.7505 C   0  0  0  0  0  0  0  0  0  0  0  0
   28.6375  -20.5238   -8.5863 C   0  0  0  0  0  0  0  0  0  0  0  0
   29.7988  -21.2505   -8.5998 C   0  0  0  0  0  0  0  0  0  0  0  0
   30.2035  -21.3835   -7.3325 N   0  0  0  0  0  0  0  0  0  0  0  0
   29.3411  -20.7671   -6.5093 C   0  0  0  0  0  0  0  0  0  0  0  0
   29.2818  -20.5990   -5.1245 C   0  0  0  0  0  0  0  0  0  0  0  0
   28.2528  -19.8998   -4.5326 C   0  0  0  0  0  0  0  0  0  0  0  0
   27.2444  -19.3414   -5.2909 C   0  0  0  0  0  0  0  0  0  0  0  0
   27.3225  -19.5195   -6.6555 C   0  0  0  0  0  0  0  0  0  0  0  0
   28.3587  -20.2252   -7.2705 C   0  0  0  0  0  0  0  0  0  0  0  0
   26.2092  -20.9209  -11.4725 C   0  0  0  0  0  0  0  0  0  0  0  0
   26.7713  -20.7160  -12.5788 O   0  0  0  0  0  0  0  0  0  0  0  0
   23.9495  -23.0584  -13.1166 C   0  0  0  0  0  0  0  0  0  0  0  0
   24.2095  -21.6706  -13.5689 C   0  0  1  0  0  0  0  0  0  0  0  0
   23.3919  -21.4818  -14.7172 O   0  0  0  0  0  0  0  0  0  0  0  0
   23.9450  -20.5803  -12.5707 C   0  0  2  0  0  0  0  0  0  0  0  0
   24.8001  -20.7795  -11.3854 N   0  0  0  0  0  0  0  0  0  0  0  0
   22.5347  -20.4601  -12.1454 C   0  0  0  0  0  0  0  0  0  0  0  0
   22.0747  -21.1698  -11.1855 O   0  0  0  0  0  0  0  0  0  0  0  0
   20.3800  -17.7639  -13.8507 O   0  0  0  0  0  0  0  0  0  0  0  0
   19.8504  -17.9674  -12.5700 C   0  0  0  0  0  0  0  0  0  0  0  0
   20.2638  -19.3900  -12.1647 C   0  0  2  0  0  0  0  0  0  0  0  0
   21.5879  -19.5847  -12.7266 N   0  0  0  0  0  0  0  0  0  0  0  0
   19.3511  -20.3722  -12.7694 C   0  0  0  0  0  0  0  0  0  0  0  0
   18.0947  -20.5669  -12.2335 O   0  0  0  0  0  0  0  0  0  0  0  0
   19.7046  -21.0305  -13.7636 O   0  0  0  0  0  0  0  0  0  0  0  0
  2  1  1  6
  2  3  1  0
  2 13  1  0
  4 12  1  0
  4  3  1  0
  5  4  2  0
  6  5  1  0
  6  7  1  0
  7  8  1  0
  7 12  2  0
  8  9  2  0
  9 10  1  0
 11 10  2  0
 12 11  1  0
 13 14  2  0
 16 18  1  0
 16 15  1  1
 17 16  1  0
 19 13  1  0
 18 19  1  1
 20 25  1  0
 20 18  1  0
 21 20  2  0
 23 22  1  0
 24 25  1  0
 24 23  1  6
 26 27  1  0
 26 24  1  0
 28 26  2  0
M  END
$$$$
