WTS.pdb
     RDKit          3D

 28 29  0  0  1  0  0  0  0  0999 V2000
   25.2754  -19.2415  -17.5640 N   0  0  0  0  0  0  0  0  0  0  0  0
   24.7600  -19.4231  -16.2196 C   0  0  1  0  0  0  0  0  0  0  0  0
   25.0756  -18.1806  -15.4169 C   0  0  0  0  0  0  0  0  0  0  0  0
   26.5365  -18.0900  -15.1392 C   0  0  0  0  0  0  0  0  0  0  0  0
   27.4143  -17.1283  -15.5648 C   0  0  0  0  0  0  0  0  0  0  0  0
   28.6199  -17.4427  -15.0799 N   0  0  0  0  0  0  0  0  0  0  0  0
   28.5432  -18.5723  -14.3590 C   0  0  0  0  0  0  0  0  0  0  0  0
   29.4772  -19.3282  -13.6480 C   0  0  0  0  0  0  0  0  0  0  0  0
   29.1093  -20.4766  -12.9818 C   0  0  0  0  0  0  0  0  0  0  0  0
   27.8023  -20.9185  -12.9954 C   0  0  0  0  0  0  0  0  0  0  0  0
   26.8970  -20.1574  -13.7033 C   0  0  0  0  0  0  0  0  0  0  0  0
   27.2540  -18.9913  -14.3835 C   0  0  0  0  0  0  0  0  0  0  0  0
   23.3031  -19.6593  -16.3310 C   0  0  0  0  0  0  0  0  0  0  0  0
   22.7191  -19.2359  -17.3614 O   0  0  0  0  0  0  0  0  0  0  0  0
   21.7175  -22.1359  -17.5243 C   0  0  0  0  0  0  0  0  0  0  0  0
   21.0185  -22.0118  -16.2226 C   0  0  1  0  0  0  0  0  0  0  0  0
   21.5672  -23.0291  -15.3939 O   0  0  0  0  0  0  0  0  0  0  0  0
   21.1206  -20.6822  -15.5318 C   0  0  2  0  0  0  0  0  0  0  0  0
   22.5411  -20.3334  -15.3419 N   0  0  0  0  0  0  0  0  0  0  0  0
   20.4171  -20.6040  -14.2344 C   0  0  0  0  0  0  0  0  0  0  0  0
   21.0273  -20.8588  -13.1392 O   0  0  0  0  0  0  0  0  0  0  0  0
   17.1622  -18.2686  -12.4883 O   0  0  0  0  0  0  0  0  0  0  0  0
   17.0450  -19.5650  -13.0055 C   0  0  0  0  0  0  0  0  0  0  0  0
   18.4078  -20.2349  -12.7751 C   0  0  2  0  0  0  0  0  0  0  0  0
   19.0567  -20.2518  -14.0735 N   0  0  0  0  0  0  0  0  0  0  0  0
   18.2184  -21.6239  -12.3298 C   0  0  0  0  0  0  0  0  0  0  0  0
   18.1719  -21.9154  -10.9821 O   0  0  0  0  0  0  0  0  0  0  0  0
   18.0993  -22.5405  -13.1620 O   0  0  0  0  0  0  0  0  0  0  0  0
  2  1  1  6
  2  3  1  0
  2 13  1  0
  4 12  1  0
  4  3  1  0
  5  4  2  0
  6  5  1  0
  6  7  1  0
  7  8  1  0
  7 12  2  0
  8  9  2  0
  9 10  1  0
 11 10  2  0
 12 11  1  0
 13 14  2  0
 16 18  1  0
 16 15  1  6
 17 16  1  0
 19 13  1  0
 18 19  1  1
 20 25  1  0
 20 18  1  0
 21 20  2  0
 23 22  1  0
 24 25  1  0
 24 23  1  6
 26 27  1  0
 26 24  1  0
 28 26  2  0
M  END
$$$$
