WTS.pdb
     RDKit          3D

 28 29  0  0  1  0  0  0  0  0999 V2000
   28.0333  -20.8151   -9.2235 N   0  0  0  0  0  0  0  0  0  0  0  0
   26.6552  -21.2679   -9.2630 C   0  0  1  0  0  0  0  0  0  0  0  0
   25.9697  -20.8185   -7.9919 C   0  0  0  0  0  0  0  0  0  0  0  0
   26.8225  -19.8494   -7.2480 C   0  0  0  0  0  0  0  0  0  0  0  0
   27.0753  -18.5400   -7.5614 C   0  0  0  0  0  0  0  0  0  0  0  0
   27.8897  -18.0523   -6.6199 N   0  0  0  0  0  0  0  0  0  0  0  0
   28.1664  -19.0047   -5.7156 C   0  0  0  0  0  0  0  0  0  0  0  0
   28.9437  -19.0375   -4.5562 C   0  0  0  0  0  0  0  0  0  0  0  0
   29.0506  -20.1836   -3.7992 C   0  0  0  0  0  0  0  0  0  0  0  0
   28.3912  -21.3398   -4.1631 C   0  0  0  0  0  0  0  0  0  0  0  0
   27.6297  -21.2852   -5.3108 C   0  0  0  0  0  0  0  0  0  0  0  0
   27.5112  -20.1316   -6.0886 C   0  0  0  0  0  0  0  0  0  0  0  0
   26.0301  -20.6823  -10.4701 C   0  0  0  0  0  0  0  0  0  0  0  0
   26.2308  -19.4619  -10.6990 O   0  0  0  0  0  0  0  0  0  0  0  0
   26.7221  -21.5512  -13.9716 C   0  0  0  0  0  0  0  0  0  0  0  0
   25.2505  -21.5971  -13.7972 C   0  0  1  0  0  0  0  0  0  0  0  0
   24.9194  -22.9761  -13.6913 O   0  0  0  0  0  0  0  0  0  0  0  0
   24.6917  -20.8475  -12.6219 C   0  0  2  0  0  0  0  0  0  0  0  0
   25.2237  -21.4232  -11.3723 N   0  0  0  0  0  0  0  0  0  0  0  0
   23.2157  -20.8105  -12.5572 C   0  0  0  0  0  0  0  0  0  0  0  0
   22.5709  -21.6083  -11.7927 O   0  0  0  0  0  0  0  0  0  0  0  0
   19.0581  -18.8511  -14.0478 O   0  0  0  0  0  0  0  0  0  0  0  0
   20.4572  -18.7962  -14.0848 C   0  0  0  0  0  0  0  0  0  0  0  0
   20.9475  -19.9959  -13.2607 C   0  0  2  0  0  0  0  0  0  0  0  0
   22.3969  -19.9266  -13.2982 N   0  0  0  0  0  0  0  0  0  0  0  0
   20.5237  -21.2524  -13.8972 C   0  0  0  0  0  0  0  0  0  0  0  0
   19.4281  -21.9359  -13.4113 O   0  0  0  0  0  0  0  0  0  0  0  0
   21.1475  -21.7045  -14.8735 O   0  0  0  0  0  0  0  0  0  0  0  0
  2  1  1  1
  2  3  1  0
  2 13  1  0
  4 12  1  0
  4  3  1  0
  5  4  2  0
  6  5  1  0
  6  7  1  0
  7  8  1  0
  7 12  2  0
  8  9  2  0
  9 10  1  0
 11 10  2  0
 12 11  1  0
 13 14  2  0
 16 18  1  0
 16 15  1  1
 17 16  1  0
 19 13  1  0
 18 19  1  1
 20 25  1  0
 20 18  1  0
 21 20  2  0
 23 22  1  0
 24 25  1  0
 24 23  1  6
 26 27  1  0
 26 24  1  0
 28 26  2  0
M  END
$$$$
