WTS.pdb
     RDKit          3D

 28 29  0  0  1  0  0  0  0  0999 V2000
   27.3434  -22.5909  -11.5832 N   0  0  0  0  0  0  0  0  0  0  0  0
   26.6554  -21.3323  -11.3632 C   0  0  1  0  0  0  0  0  0  0  0  0
   27.6901  -20.2325  -11.2780 C   0  0  0  0  0  0  0  0  0  0  0  0
   28.5521  -20.4124  -10.0763 C   0  0  0  0  0  0  0  0  0  0  0  0
   29.8669  -20.7948  -10.0353 C   0  0  0  0  0  0  0  0  0  0  0  0
   30.2363  -20.8241   -8.7507 N   0  0  0  0  0  0  0  0  0  0  0  0
   29.2030  -20.4737   -7.9690 C   0  0  0  0  0  0  0  0  0  0  0  0
   29.0391  -20.3408   -6.5888 C   0  0  0  0  0  0  0  0  0  0  0  0
   27.8334  -19.9540   -6.0460 C   0  0  0  0  0  0  0  0  0  0  0  0
   26.7454  -19.6847   -6.8507 C   0  0  0  0  0  0  0  0  0  0  0  0
   26.9292  -19.8223   -8.2098 C   0  0  0  0  0  0  0  0  0  0  0  0
   28.1446  -20.2132   -8.7753 C   0  0  0  0  0  0  0  0  0  0  0  0
   25.7223  -21.1330  -12.4948 C   0  0  0  0  0  0  0  0  0  0  0  0
   26.1591  -21.3390  -13.6562 O   0  0  0  0  0  0  0  0  0  0  0  0
   24.4753  -22.8144  -14.3479 C   0  0  0  0  0  0  0  0  0  0  0  0
   23.2362  -22.0751  -14.0068 C   0  0  1  0  0  0  0  0  0  0  0  0
   22.5525  -22.8877  -13.0608 O   0  0  0  0  0  0  0  0  0  0  0  0
   23.4133  -20.6899  -13.4545 C   0  0  2  0  0  0  0  0  0  0  0  0
   24.3728  -20.7250  -12.3347 N   0  0  0  0  0  0  0  0  0  0  0  0
   22.1639  -20.0365  -13.0115 C   0  0  0  0  0  0  0  0  0  0  0  0
   22.0806  -19.4913  -11.8572 O   0  0  0  0  0  0  0  0  0  0  0  0
   20.8706  -16.7787  -15.4629 O   0  0  0  0  0  0  0  0  0  0  0  0
   21.4449  -17.9895  -15.0553 C   0  0  0  0  0  0  0  0  0  0  0  0
   20.3983  -18.6723  -14.1624 C   0  0  2  0  0  0  0  0  0  0  0  0
   20.9823  -19.9461  -13.7837 N   0  0  0  0  0  0  0  0  0  0  0  0
   19.1712  -18.9315  -14.9309 C   0  0  0  0  0  0  0  0  0  0  0  0
   18.0445  -18.1666  -14.7091 O   0  0  0  0  0  0  0  0  0  0  0  0
   19.1417  -19.8379  -15.7819 O   0  0  0  0  0  0  0  0  0  0  0  0
  2  1  1  6
  2  3  1  0
  2 13  1  0
  4 12  1  0
  4  3  1  0
  5  4  2  0
  6  5  1  0
  6  7  1  0
  7  8  1  0
  7 12  2  0
  8  9  2  0
  9 10  1  0
 11 10  2  0
 12 11  1  0
 13 14  2  0
 16 18  1  0
 16 15  1  1
 17 16  1  0
 19 13  1  0
 18 19  1  1
 20 25  1  0
 20 18  1  0
 21 20  2  0
 23 22  1  0
 24 25  1  0
 24 23  1  6
 26 27  1  0
 26 24  1  0
 28 26  2  0
M  END
$$$$
