WTS.pdb
     RDKit          3D

 28 29  0  0  1  0  0  0  0  0999 V2000
   21.4746  -19.7294  -16.1878 N   0  0  0  0  0  0  0  0  0  0  0  0
   22.6813  -19.2044  -15.5763 C   0  0  1  0  0  0  0  0  0  0  0  0
   22.3778  -17.8273  -15.0296 C   0  0  0  0  0  0  0  0  0  0  0  0
   23.1135  -16.7826  -15.7957 C   0  0  0  0  0  0  0  0  0  0  0  0
   22.6335  -15.9819  -16.7983 C   0  0  0  0  0  0  0  0  0  0  0  0
   23.6367  -15.1931  -17.1968 N   0  0  0  0  0  0  0  0  0  0  0  0
   24.7415  -15.4618  -16.4835 C   0  0  0  0  0  0  0  0  0  0  0  0
   26.0397  -14.9479  -16.4855 C   0  0  0  0  0  0  0  0  0  0  0  0
   26.9987  -15.4248  -15.6190 C   0  0  0  0  0  0  0  0  0  0  0  0
   26.7069  -16.4287  -14.7185 C   0  0  0  0  0  0  0  0  0  0  0  0
   25.4197  -16.9215  -14.7338 C   0  0  0  0  0  0  0  0  0  0  0  0
   24.4366  -16.4488  -15.6055 C   0  0  0  0  0  0  0  0  0  0  0  0
   23.0867  -20.1495  -14.5118 C   0  0  0  0  0  0  0  0  0  0  0  0
   22.1917  -20.8650  -13.9931 O   0  0  0  0  0  0  0  0  0  0  0  0
   25.1709  -23.0821  -14.7289 C   0  0  0  0  0  0  0  0  0  0  0  0
   25.7176  -22.2930  -13.5990 C   0  0  1  0  0  0  0  0  0  0  0  0
   26.8983  -21.6764  -14.0974 O   0  0  0  0  0  0  0  0  0  0  0  0
   24.8103  -21.2524  -13.0079 C   0  0  2  0  0  0  0  0  0  0  0  0
   24.4224  -20.2862  -14.0528 N   0  0  0  0  0  0  0  0  0  0  0  0
   25.3739  -20.5260  -11.8509 C   0  0  0  0  0  0  0  0  0  0  0  0
   25.9185  -19.3777  -11.9973 O   0  0  0  0  0  0  0  0  0  0  0  0
   26.1428  -20.2021   -7.1088 O   0  0  0  0  0  0  0  0  0  0  0  0
   25.4357  -20.8211   -8.1474 C   0  0  0  0  0  0  0  0  0  0  0  0
   26.0795  -20.3233   -9.4500 C   0  0  2  0  0  0  0  0  0  0  0  0
   25.3681  -21.0009  -10.5186 N   0  0  0  0  0  0  0  0  0  0  0  0
   27.4929  -20.7273   -9.5007 C   0  0  0  0  0  0  0  0  0  0  0  0
   28.4500  -19.9689   -8.8585 O   0  0  0  0  0  0  0  0  0  0  0  0
   27.8327  -21.7508  -10.1202 O   0  0  0  0  0  0  0  0  0  0  0  0
  2  1  1  1
  2  3  1  0
  2 13  1  0
  4 12  1  0
  4  3  1  0
  5  4  2  0
  6  5  1  0
  6  7  1  0
  7  8  1  0
  7 12  2  0
  8  9  2  0
  9 10  1  0
 11 10  2  0
 12 11  1  0
 13 14  2  0
 16 18  1  0
 16 15  1  6
 17 16  1  0
 19 13  1  0
 18 19  1  6
 20 25  1  0
 20 18  1  0
 21 20  2  0
 23 22  1  0
 24 25  1  0
 24 23  1  1
 26 27  1  0
 26 24  1  0
 28 26  2  0
M  END
$$$$
