WTS.pdb
     RDKit          3D

 28 29  0  0  1  0  0  0  0  0999 V2000
   27.9710  -21.9830  -10.7891 N   0  0  0  0  0  0  0  0  0  0  0  0
   26.9495  -21.1185  -10.2278 C   0  0  1  0  0  0  0  0  0  0  0  0
   27.6324  -19.9434   -9.5641 C   0  0  0  0  0  0  0  0  0  0  0  0
   28.5008  -20.4028   -8.4441 C   0  0  0  0  0  0  0  0  0  0  0  0
   29.6803  -21.0947   -8.5252 C   0  0  0  0  0  0  0  0  0  0  0  0
   30.1151  -21.2941   -7.2767 N   0  0  0  0  0  0  0  0  0  0  0  0
   29.2542  -20.7535   -6.4002 C   0  0  0  0  0  0  0  0  0  0  0  0
   29.2197  -20.6725   -5.0068 C   0  0  0  0  0  0  0  0  0  0  0  0
   28.1853  -20.0398   -4.3528 C   0  0  0  0  0  0  0  0  0  0  0  0
   27.1466  -19.4640   -5.0554 C   0  0  0  0  0  0  0  0  0  0  0  0
   27.2006  -19.5558   -6.4297 C   0  0  0  0  0  0  0  0  0  0  0  0
   28.2419  -20.1934   -7.1072 C   0  0  0  0  0  0  0  0  0  0  0  0
   26.0669  -20.6956  -11.3382 C   0  0  0  0  0  0  0  0  0  0  0  0
   26.6120  -20.2816  -12.3934 O   0  0  0  0  0  0  0  0  0  0  0  0
   25.5693  -21.2942  -14.0343 C   0  0  0  0  0  0  0  0  0  0  0  0
   24.1632  -21.3607  -13.5688 C   0  0  1  0  0  0  0  0  0  0  0  0
   23.9476  -22.7148  -13.1913 O   0  0  0  0  0  0  0  0  0  0  0  0
   23.7895  -20.4502  -12.4345 C   0  0  2  0  0  0  0  0  0  0  0  0
   24.6501  -20.7343  -11.2707 N   0  0  0  0  0  0  0  0  0  0  0  0
   22.3709  -20.5213  -12.0263 C   0  0  0  0  0  0  0  0  0  0  0  0
   22.0014  -21.2751  -11.0610 O   0  0  0  0  0  0  0  0  0  0  0  0
   19.8014  -18.8049  -14.2404 O   0  0  0  0  0  0  0  0  0  0  0  0
   19.1672  -18.8465  -12.9922 C   0  0  0  0  0  0  0  0  0  0  0  0
   19.9496  -19.8704  -12.1565 C   0  0  2  0  0  0  0  0  0  0  0  0
   21.3194  -19.7935  -12.6307 N   0  0  0  0  0  0  0  0  0  0  0  0
   19.4417  -21.2264  -12.4148 C   0  0  0  0  0  0  0  0  0  0  0  0
   18.3880  -21.7205  -11.6738 O   0  0  0  0  0  0  0  0  0  0  0  0
   19.9566  -21.9330  -13.2993 O   0  0  0  0  0  0  0  0  0  0  0  0
  2  1  1  6
  2  3  1  0
  2 13  1  0
  4 12  1  0
  4  3  1  0
  5  4  2  0
  6  5  1  0
  6  7  1  0
  7  8  1  0
  7 12  2  0
  8  9  2  0
  9 10  1  0
 11 10  2  0
 12 11  1  0
 13 14  2  0
 16 18  1  0
 16 15  1  1
 17 16  1  0
 19 13  1  0
 18 19  1  1
 20 25  1  0
 20 18  1  0
 21 20  2  0
 23 22  1  0
 24 25  1  0
 24 23  1  6
 26 27  1  0
 26 24  1  0
 28 26  2  0
M  END
$$$$
