WTS.pdb
     RDKit          3D

 28 29  0  0  1  0  0  0  0  0999 V2000
   27.6925  -22.0337  -10.0463 N   0  0  0  0  0  0  0  0  0  0  0  0
   26.5858  -21.1278   -9.8003 C   0  0  1  0  0  0  0  0  0  0  0  0
   27.0858  -19.9876   -8.9415 C   0  0  0  0  0  0  0  0  0  0  0  0
   26.8007  -20.2479   -7.5026 C   0  0  0  0  0  0  0  0  0  0  0  0
   25.6809  -20.8191   -6.9582 C   0  0  0  0  0  0  0  0  0  0  0  0
   25.8537  -20.8568   -5.6329 N   0  0  0  0  0  0  0  0  0  0  0  0
   27.0453  -20.3294   -5.3113 C   0  0  0  0  0  0  0  0  0  0  0  0
   27.7154  -20.1247   -4.1036 C   0  0  0  0  0  0  0  0  0  0  0  0
   28.9647  -19.5452   -4.0684 C   0  0  0  0  0  0  0  0  0  0  0  0
   29.5964  -19.1470   -5.2287 C   0  0  0  0  0  0  0  0  0  0  0  0
   28.9171  -19.3582   -6.4093 C   0  0  0  0  0  0  0  0  0  0  0  0
   27.6507  -19.9442   -6.4617 C   0  0  0  0  0  0  0  0  0  0  0  0
   26.0941  -20.6603  -11.1158 C   0  0  0  0  0  0  0  0  0  0  0  0
   26.9500  -20.3675  -11.9897 O   0  0  0  0  0  0  0  0  0  0  0  0
   26.3053  -21.4487  -13.7492 C   0  0  0  0  0  0  0  0  0  0  0  0
   24.8258  -21.3573  -13.7184 C   0  0  1  0  0  0  0  0  0  0  0  0
   24.3697  -22.6463  -13.3269 O   0  0  0  0  0  0  0  0  0  0  0  0
   24.2380  -20.3127  -12.8136 C   0  0  2  0  0  0  0  0  0  0  0  0
   24.7181  -20.5279  -11.4356 N   0  0  0  0  0  0  0  0  0  0  0  0
   22.7613  -20.2524  -12.8164 C   0  0  0  0  0  0  0  0  0  0  0  0
   22.0825  -20.7161  -11.8362 O   0  0  0  0  0  0  0  0  0  0  0  0
   21.1707  -19.0215  -15.9616 O   0  0  0  0  0  0  0  0  0  0  0  0
   20.0845  -18.9412  -15.0809 C   0  0  0  0  0  0  0  0  0  0  0  0
   20.5278  -19.6620  -13.7991 C   0  0  2  0  0  0  0  0  0  0  0  0
   21.9778  -19.6975  -13.8551 N   0  0  0  0  0  0  0  0  0  0  0  0
   20.0267  -21.0449  -13.7989 C   0  0  0  0  0  0  0  0  0  0  0  0
   18.8069  -21.3359  -13.2234 O   0  0  0  0  0  0  0  0  0  0  0  0
   20.6965  -21.9567  -14.3154 O   0  0  0  0  0  0  0  0  0  0  0  0
  2  1  1  6
  2  3  1  0
  2 13  1  0
  4 12  1  0
  4  3  1  0
  5  4  2  0
  6  5  1  0
  6  7  1  0
  7  8  1  0
  7 12  2  0
  8  9  2  0
  9 10  1  0
 11 10  2  0
 12 11  1  0
 13 14  2  0
 16 18  1  0
 16 15  1  1
 17 16  1  0
 19 13  1  0
 18 19  1  1
 20 25  1  0
 20 18  1  0
 21 20  2  0
 23 22  1  0
 24 25  1  0
 24 23  1  6
 26 27  1  0
 26 24  1  0
 28 26  2  0
M  END
$$$$
