WTS.pdb
     RDKit          3D

 28 29  0  0  1  0  0  0  0  0999 V2000
   27.5169  -22.4685  -13.0216 N   0  0  0  0  0  0  0  0  0  0  0  0
   26.5855  -21.5267  -12.4289 C   0  0  1  0  0  0  0  0  0  0  0  0
   27.3465  -20.2728  -12.0599 C   0  0  0  0  0  0  0  0  0  0  0  0
   28.2482  -20.5259  -10.9013 C   0  0  0  0  0  0  0  0  0  0  0  0
   29.5732  -20.8727  -10.9283 C   0  0  0  0  0  0  0  0  0  0  0  0
   29.9814  -20.9966   -9.6612 N   0  0  0  0  0  0  0  0  0  0  0  0
   28.9630  -20.7410   -8.8251 C   0  0  0  0  0  0  0  0  0  0  0  0
   28.8369  -20.7264   -7.4346 C   0  0  0  0  0  0  0  0  0  0  0  0
   27.6382  -20.4200   -6.8286 C   0  0  0  0  0  0  0  0  0  0  0  0
   26.5200  -20.1168   -7.5780 C   0  0  0  0  0  0  0  0  0  0  0  0
   26.6668  -20.1372   -8.9484 C   0  0  0  0  0  0  0  0  0  0  0  0
   27.8747  -20.4456   -9.5776 C   0  0  0  0  0  0  0  0  0  0  0  0
   25.5261  -21.2618  -13.4281 C   0  0  0  0  0  0  0  0  0  0  0  0
   25.8065  -21.4454  -14.6404 O   0  0  0  0  0  0  0  0  0  0  0  0
   24.0739  -22.7958  -15.2648 C   0  0  0  0  0  0  0  0  0  0  0  0
   22.8996  -22.1518  -14.6289 C   0  0  1  0  0  0  0  0  0  0  0  0
   22.4861  -23.0401  -13.5980 O   0  0  0  0  0  0  0  0  0  0  0  0
   23.1149  -20.7782  -14.0612 C   0  0  2  0  0  0  0  0  0  0  0  0
   24.2229  -20.8152  -13.0882 N   0  0  0  0  0  0  0  0  0  0  0  0
   21.9228  -20.1776  -13.4267 C   0  0  0  0  0  0  0  0  0  0  0  0
   21.6545  -20.3939  -12.1947 O   0  0  0  0  0  0  0  0  0  0  0  0
   19.4405  -18.3138  -15.6745 O   0  0  0  0  0  0  0  0  0  0  0  0
   19.2249  -17.7786  -14.3981 C   0  0  0  0  0  0  0  0  0  0  0  0
   19.8335  -18.7857  -13.4111 C   0  0  2  0  0  0  0  0  0  0  0  0
   20.9961  -19.3354  -14.0843 N   0  0  0  0  0  0  0  0  0  0  0  0
   18.8827  -19.8782  -13.1544 C   0  0  0  0  0  0  0  0  0  0  0  0
   17.9024  -19.7277  -12.1954 O   0  0  0  0  0  0  0  0  0  0  0  0
   18.9562  -20.9400  -13.7978 O   0  0  0  0  0  0  0  0  0  0  0  0
  2  1  1  6
  2  3  1  0
  2 13  1  0
  4 12  1  0
  4  3  1  0
  5  4  2  0
  6  5  1  0
  6  7  1  0
  7  8  1  0
  7 12  2  0
  8  9  2  0
  9 10  1  0
 11 10  2  0
 12 11  1  0
 13 14  2  0
 16 18  1  0
 16 15  1  1
 17 16  1  0
 19 13  1  0
 18 19  1  1
 20 25  1  0
 20 18  1  0
 21 20  2  0
 23 22  1  0
 24 25  1  0
 24 23  1  6
 26 27  1  0
 26 24  1  0
 28 26  2  0
M  END
$$$$
