WTS.pdb
     RDKit          3D

 28 29  0  0  1  0  0  0  0  0999 V2000
   23.3663  -19.9275  -11.0528 N   0  0  0  0  0  0  0  0  0  0  0  0
   24.2760  -20.6373  -11.9328 C   0  0  1  0  0  0  0  0  0  0  0  0
   24.8601  -21.8063  -11.1714 C   0  0  0  0  0  0  0  0  0  0  0  0
   25.8750  -21.3387  -10.1861 C   0  0  0  0  0  0  0  0  0  0  0  0
   25.6666  -20.9304   -8.8951 C   0  0  0  0  0  0  0  0  0  0  0  0
   26.8562  -20.6004   -8.3818 N   0  0  0  0  0  0  0  0  0  0  0  0
   27.8179  -20.7836   -9.3000 C   0  0  0  0  0  0  0  0  0  0  0  0
   29.2020  -20.6004   -9.2969 C   0  0  0  0  0  0  0  0  0  0  0  0
   29.9623  -20.8770  -10.4120 C   0  0  0  0  0  0  0  0  0  0  0  0
   29.3791  -21.3454  -11.5715 C   0  0  0  0  0  0  0  0  0  0  0  0
   28.0118  -21.5188  -11.5526 C   0  0  0  0  0  0  0  0  0  0  0  0
   27.2275  -21.2431  -10.4307 C   0  0  0  0  0  0  0  0  0  0  0  0
   23.4995  -21.0743  -13.1147 C   0  0  0  0  0  0  0  0  0  0  0  0
   22.7224  -22.0533  -12.9746 O   0  0  0  0  0  0  0  0  0  0  0  0
   20.8462  -21.7087  -14.0535 C   0  0  0  0  0  0  0  0  0  0  0  0
   21.2801  -20.7420  -15.0904 C   0  0  1  0  0  0  0  0  0  0  0  0
   21.0041  -19.4541  -14.5540 O   0  0  0  0  0  0  0  0  0  0  0  0
   22.7179  -20.8183  -15.5173 C   0  0  2  0  0  0  0  0  0  0  0  0
   23.5883  -20.4487  -14.3852 N   0  0  0  0  0  0  0  0  0  0  0  0
   23.0591  -19.9882  -16.6916 C   0  0  0  0  0  0  0  0  0  0  0  0
   23.3811  -18.7576  -16.5557 O   0  0  0  0  0  0  0  0  0  0  0  0
   24.4075  -21.4552  -20.2176 O   0  0  0  0  0  0  0  0  0  0  0  0
   23.4022  -20.4942  -20.3844 C   0  0  0  0  0  0  0  0  0  0  0  0
   23.4652  -19.5986  -19.1383 C   0  0  2  0  0  0  0  0  0  0  0  0
   23.0684  -20.4472  -18.0295 N   0  0  0  0  0  0  0  0  0  0  0  0
   22.4938  -18.5004  -19.2565 C   0  0  0  0  0  0  0  0  0  0  0  0
   22.8914  -17.2799  -19.7623 O   0  0  0  0  0  0  0  0  0  0  0  0
   21.3128  -18.6647  -18.9029 O   0  0  0  0  0  0  0  0  0  0  0  0
  2  1  1  1
  2  3  1  0
  2 13  1  0
  4 12  1  0
  4  3  1  0
  5  4  2  0
  6  5  1  0
  6  7  1  0
  7  8  1  0
  7 12  2  0
  8  9  2  0
  9 10  1  0
 11 10  2  0
 12 11  1  0
 13 14  2  0
 16 18  1  0
 16 15  1  1
 17 16  1  0
 19 13  1  0
 18 19  1  1
 20 25  1  0
 20 18  1  0
 21 20  2  0
 23 22  1  0
 24 25  1  0
 24 23  1  6
 26 27  1  0
 26 24  1  0
 28 26  2  0
M  END
$$$$
