MFR.pdb
     RDKit          3D

 31 31  0  0  1  0  0  0  0  0999 V2000
   33.3046   -7.8268  -25.0507 C   0  0  0  0  0  0  0  0  0  0  0  0
   31.8628   -8.0248  -24.0103 S   0  0  0  0  0  0  0  0  0  0  0  0
   32.0765   -9.2593  -22.7402 C   0  0  0  0  0  0  0  0  0  0  0  0
   30.8847   -9.5570  -21.9012 C   0  0  0  0  0  0  0  0  0  0  0  0
   31.1906   -9.8676  -20.4790 C   0  0  2  0  0  0  0  0  0  0  0  0
   32.1684  -10.9261  -20.3443 N   0  0  0  0  0  0  0  0  0  0  0  0
   29.9332  -10.3022  -19.8005 C   0  0  0  0  0  0  0  0  0  0  0  0
   29.7774  -11.5323  -19.5988 O   0  0  0  0  0  0  0  0  0  0  0  0
   28.9423   -9.3659  -19.3937 N   0  0  0  0  0  0  0  0  0  0  0  0
   27.8879   -9.7812  -18.5372 C   0  0  1  0  0  0  0  0  0  0  0  0
   28.3783  -10.3521  -17.2257 C   0  0  0  0  0  0  0  0  0  0  0  0
   27.3012  -10.7345  -16.3054 C   0  0  0  0  0  0  0  0  0  0  0  0
   26.8544   -9.9331  -15.2843 C   0  0  0  0  0  0  0  0  0  0  0  0
   25.8384  -10.3104  -14.4282 C   0  0  0  0  0  0  0  0  0  0  0  0
   25.2424  -11.5179  -14.5836 C   0  0  0  0  0  0  0  0  0  0  0  0
   25.6531  -12.3558  -15.5895 C   0  0  0  0  0  0  0  0  0  0  0  0
   26.6751  -11.9609  -16.4401 C   0  0  0  0  0  0  0  0  0  0  0  0
   26.8159   -8.7708  -18.3498 C   0  0  0  0  0  0  0  0  0  0  0  0
   26.9744   -7.7287  -17.6564 O   0  0  0  0  0  0  0  0  0  0  0  0
   19.4217  -11.2836  -15.2805 N   0  0  0  0  0  0  0  0  0  0  0  0
   19.2590   -9.8730  -15.2626 C   0  0  0  0  0  0  0  0  0  0  0  0
   18.1487   -9.3905  -14.8040 N   0  0  0  0  0  0  0  0  0  0  0  0
   20.2943   -9.0320  -15.7370 N   0  0  0  0  0  0  0  0  0  0  0  0
   21.4640   -9.5982  -16.3314 C   0  0  0  0  0  0  0  0  0  0  0  0
   22.2914   -8.5320  -17.0324 C   0  0  0  0  0  0  0  0  0  0  0  0
   23.5178   -9.2091  -17.5958 C   0  0  0  0  0  0  0  0  0  0  0  0
   24.3672   -8.2232  -18.3946 C   0  0  2  0  0  0  0  0  0  0  0  0
   25.5256   -8.9011  -18.9432 N   0  0  0  0  0  0  0  0  0  0  0  0
   24.8401   -7.1160  -17.5375 C   0  0  0  0  0  0  0  0  0  0  0  0
   26.1210   -6.9860  -17.0287 O   0  0  0  0  0  0  0  0  0  0  0  0
   24.0351   -6.1758  -17.2104 O   0  0  0  0  0  0  0  0  0  0  0  0
  1  2  1  0
  3  2  1  0
  4  3  1  0
  5  4  1  0
  5  6  1  6
  7  5  1  0
  7  8  2  0
  9  7  1  0
 10 11  1  1
 10  9  1  0
 12 11  1  0
 12 17  2  0
 13 12  1  0
 14 13  2  0
 14 15  1  0
 15 16  2  0
 16 17  1  0
 18 10  1  0
 19 18  2  0
 20 21  1  0
 21 22  2  0
 23 21  1  0
 24 23  1  0
 24 25  1  0
 25 26  1  0
 27 26  1  1
 27 28  1  0
 28 18  1  0
 29 30  1  0
 29 27  1  0
 31 29  2  0
M  END
$$$$
