MFR.pdb
     RDKit          3D

 31 31  0  0  1  0  0  0  0  0999 V2000
   29.3617  -19.0176   -6.0885 C   0  0  0  0  0  0  0  0  0  0  0  0
   27.9059  -19.6222   -5.2426 S   0  0  0  0  0  0  0  0  0  0  0  0
   26.7239  -20.3881   -6.3376 C   0  0  0  0  0  0  0  0  0  0  0  0
   26.4757  -19.6953   -7.6304 C   0  0  0  0  0  0  0  0  0  0  0  0
   25.5071  -20.3830   -8.5256 C   0  0  2  0  0  0  0  0  0  0  0  0
   25.6112  -21.8244   -8.4462 N   0  0  0  0  0  0  0  0  0  0  0  0
   25.7782  -19.9706   -9.9351 C   0  0  0  0  0  0  0  0  0  0  0  0
   25.4555  -18.8040  -10.2712 O   0  0  0  0  0  0  0  0  0  0  0  0
   26.3793  -20.8585  -10.8703 N   0  0  0  0  0  0  0  0  0  0  0  0
   26.5078  -20.4698  -12.2305 C   0  0  1  0  0  0  0  0  0  0  0  0
   27.8264  -20.8836  -12.8441 C   0  0  0  0  0  0  0  0  0  0  0  0
   27.9650  -20.5141  -14.2575 C   0  0  0  0  0  0  0  0  0  0  0  0
   27.7609  -21.3897  -15.2950 C   0  0  0  0  0  0  0  0  0  0  0  0
   27.8956  -21.0230  -16.6197 C   0  0  0  0  0  0  0  0  0  0  0  0
   28.2429  -19.7507  -16.9327 C   0  0  0  0  0  0  0  0  0  0  0  0
   28.4580  -18.8373  -15.9317 C   0  0  0  0  0  0  0  0  0  0  0  0
   28.3185  -19.2228  -14.6065 C   0  0  0  0  0  0  0  0  0  0  0  0
   25.3475  -20.8314  -13.0839 C   0  0  0  0  0  0  0  0  0  0  0  0
   24.9303  -22.0162  -13.2017 O   0  0  0  0  0  0  0  0  0  0  0  0
   19.9821  -21.1988  -12.8569 N   0  0  0  0  0  0  0  0  0  0  0  0
   18.7655  -20.8455  -13.4984 C   0  0  0  0  0  0  0  0  0  0  0  0
   17.7092  -21.5467  -13.2369 N   0  0  0  0  0  0  0  0  0  0  0  0
   18.7271  -19.7519  -14.3967 N   0  0  0  0  0  0  0  0  0  0  0  0
   19.8863  -18.9382  -14.5876 C   0  0  0  0  0  0  0  0  0  0  0  0
   21.0586  -19.7666  -15.0896 C   0  0  0  0  0  0  0  0  0  0  0  0
   22.2305  -19.4906  -14.1783 C   0  0  0  0  0  0  0  0  0  0  0  0
   23.4750  -20.2409  -14.6471 C   0  0  2  0  0  0  0  0  0  0  0  0
   24.6144  -19.8643  -13.8331 N   0  0  0  0  0  0  0  0  0  0  0  0
   23.7860  -19.9225  -16.0563 C   0  0  0  0  0  0  0  0  0  0  0  0
   24.4732  -18.8029  -16.4932 O   0  0  0  0  0  0  0  0  0  0  0  0
   23.4087  -20.7171  -16.9866 O   0  0  0  0  0  0  0  0  0  0  0  0
  1  2  1  0
  3  2  1  0
  4  3  1  0
  5  4  1  0
  5  6  1  6
  7  5  1  0
  7  8  2  0
  9  7  1  0
 10 11  1  6
 10  9  1  0
 12 11  1  0
 12 17  2  0
 13 12  1  0
 14 13  2  0
 14 15  1  0
 15 16  2  0
 16 17  1  0
 18 10  1  0
 19 18  2  0
 20 21  1  0
 21 22  2  0
 23 21  1  0
 24 23  1  0
 24 25  1  0
 25 26  1  0
 27 26  1  1
 27 28  1  0
 28 18  1  0
 29 30  1  0
 29 27  1  0
 31 29  2  0
M  END
$$$$
