MFR.pdb
     RDKit          3D

 31 31  0  0  1  0  0  0  0  0999 V2000
   27.3145  -19.2425  -16.2383 C   0  0  0  0  0  0  0  0  0  0  0  0
   27.4467  -20.9065  -16.8820 S   0  0  0  0  0  0  0  0  0  0  0  0
   28.3991  -21.9919  -15.8343 C   0  0  0  0  0  0  0  0  0  0  0  0
   27.9620  -22.0919  -14.4159 C   0  0  0  0  0  0  0  0  0  0  0  0
   28.1016  -20.8338  -13.6347 C   0  0  2  0  0  0  0  0  0  0  0  0
   29.4413  -20.2900  -13.7009 N   0  0  0  0  0  0  0  0  0  0  0  0
   27.7816  -21.1180  -12.2039 C   0  0  0  0  0  0  0  0  0  0  0  0
   26.7295  -21.7598  -11.9605 O   0  0  0  0  0  0  0  0  0  0  0  0
   28.6301  -20.6824  -11.1483 N   0  0  0  0  0  0  0  0  0  0  0  0
   28.1924  -20.7889   -9.8011 C   0  0  1  0  0  0  0  0  0  0  0  0
   29.2549  -20.3974   -8.7990 C   0  0  0  0  0  0  0  0  0  0  0  0
   28.7544  -20.2616   -7.4263 C   0  0  0  0  0  0  0  0  0  0  0  0
   27.9332  -19.2413   -7.0148 C   0  0  0  0  0  0  0  0  0  0  0  0
   27.4715  -19.1306   -5.7178 C   0  0  0  0  0  0  0  0  0  0  0  0
   27.8311  -20.0563   -4.7952 C   0  0  0  0  0  0  0  0  0  0  0  0
   28.6506  -21.0956   -5.1566 C   0  0  0  0  0  0  0  0  0  0  0  0
   29.1052  -21.1915   -6.4637 C   0  0  0  0  0  0  0  0  0  0  0  0
   26.8871  -20.1362   -9.5270 C   0  0  0  0  0  0  0  0  0  0  0  0
   26.6895  -18.9033   -9.7083 O   0  0  0  0  0  0  0  0  0  0  0  0
   20.2344  -22.1311  -13.9793 N   0  0  0  0  0  0  0  0  0  0  0  0
   19.7611  -20.9926  -13.2748 C   0  0  0  0  0  0  0  0  0  0  0  0
   18.6529  -20.4484  -13.6644 N   0  0  0  0  0  0  0  0  0  0  0  0
   20.4941  -20.4803  -12.1773 N   0  0  0  0  0  0  0  0  0  0  0  0
   21.8400  -20.9047  -11.9517 C   0  0  0  0  0  0  0  0  0  0  0  0
   22.3704  -20.3619  -10.6339 C   0  0  0  0  0  0  0  0  0  0  0  0
   23.7955  -20.8393  -10.4891 C   0  0  0  0  0  0  0  0  0  0  0  0
   24.4092  -20.3377   -9.1839 C   0  0  2  0  0  0  0  0  0  0  0  0
   25.7559  -20.8557   -9.0404 N   0  0  0  0  0  0  0  0  0  0  0  0
   23.6146  -20.7823   -8.0198 C   0  0  0  0  0  0  0  0  0  0  0  0
   22.4138  -20.2290   -7.6094 O   0  0  0  0  0  0  0  0  0  0  0  0
   24.0306  -21.7557   -7.2996 O   0  0  0  0  0  0  0  0  0  0  0  0
  1  2  1  0
  3  2  1  0
  4  3  1  0
  5  4  1  0
  5  6  1  1
  7  5  1  0
  7  8  2  0
  9  7  1  0
 10 11  1  1
 10  9  1  0
 12 11  1  0
 12 17  2  0
 13 12  1  0
 14 13  2  0
 14 15  1  0
 15 16  2  0
 16 17  1  0
 18 10  1  0
 19 18  2  0
 20 21  1  0
 21 22  2  0
 23 21  1  0
 24 23  1  0
 24 25  1  0
 25 26  1  0
 27 26  1  6
 27 28  1  0
 28 18  1  0
 29 30  1  0
 29 27  1  0
 31 29  2  0
M  END
$$$$
