MFR.pdb
     RDKit          3D

 31 31  0  0  1  0  0  0  0  0999 V2000
   22.4660  -24.3603  -16.2057 C   0  0  0  0  0  0  0  0  0  0  0  0
   21.0514  -24.0355  -15.1598 S   0  0  0  0  0  0  0  0  0  0  0  0
   21.2851  -22.6385  -14.0752 C   0  0  0  0  0  0  0  0  0  0  0  0
   22.6442  -22.0337  -14.0606 C   0  0  0  0  0  0  0  0  0  0  0  0
   22.8491  -20.9964  -13.0144 C   0  0  2  0  0  0  0  0  0  0  0  0
   21.9979  -19.8422  -13.2088 N   0  0  0  0  0  0  0  0  0  0  0  0
   24.2712  -20.5425  -13.0592 C   0  0  0  0  0  0  0  0  0  0  0  0
   24.5158  -19.4547  -13.6379 O   0  0  0  0  0  0  0  0  0  0  0  0
   25.3176  -21.3065  -12.4713 N   0  0  0  0  0  0  0  0  0  0  0  0
   26.6627  -20.8634  -12.5814 C   0  0  1  0  0  0  0  0  0  0  0  0
   27.4497  -21.0311  -11.3011 C   0  0  0  0  0  0  0  0  0  0  0  0
   26.7168  -20.6244  -10.0966 C   0  0  0  0  0  0  0  0  0  0  0  0
   26.7533  -19.3538   -9.5781 C   0  0  0  0  0  0  0  0  0  0  0  0
   26.0557  -18.9896   -8.4431 C   0  0  0  0  0  0  0  0  0  0  0  0
   25.2966  -19.9083   -7.7973 C   0  0  0  0  0  0  0  0  0  0  0  0
   25.2271  -21.1924   -8.2757 C   0  0  0  0  0  0  0  0  0  0  0  0
   25.9343  -21.5410   -9.4170 C   0  0  0  0  0  0  0  0  0  0  0  0
   27.3874  -21.3912  -13.7652 C   0  0  0  0  0  0  0  0  0  0  0  0
   27.9521  -22.5195  -13.7720 O   0  0  0  0  0  0  0  0  0  0  0  0
   26.8399  -26.2869  -16.4271 N   0  0  0  0  0  0  0  0  0  0  0  0
   26.6511  -26.4005  -17.8299 C   0  0  0  0  0  0  0  0  0  0  0  0
   26.9447  -27.5261  -18.3982 N   0  0  0  0  0  0  0  0  0  0  0  0
   26.1532  -25.3021  -18.5715 N   0  0  0  0  0  0  0  0  0  0  0  0
   25.6814  -24.1344  -17.8961 C   0  0  0  0  0  0  0  0  0  0  0  0
   26.7763  -23.0843  -17.7906 C   0  0  0  0  0  0  0  0  0  0  0  0
   26.6073  -22.3868  -16.4621 C   0  0  0  0  0  0  0  0  0  0  0  0
   27.6955  -21.3358  -16.2552 C   0  0  2  0  0  0  0  0  0  0  0  0
   27.4969  -20.6627  -14.9863 N   0  0  0  0  0  0  0  0  0  0  0  0
   27.6626  -20.3209  -17.3289 C   0  0  0  0  0  0  0  0  0  0  0  0
   28.2225  -20.4650  -18.5868 O   0  0  0  0  0  0  0  0  0  0  0  0
   27.0804  -19.1988  -17.1265 O   0  0  0  0  0  0  0  0  0  0  0  0
  1  2  1  0
  3  2  1  0
  4  3  1  0
  5  4  1  0
  5  6  1  6
  7  5  1  0
  7  8  2  0
  9  7  1  0
 10 11  1  1
 10  9  1  0
 12 11  1  0
 12 17  2  0
 13 12  1  0
 14 13  2  0
 14 15  1  0
 15 16  2  0
 16 17  1  0
 18 10  1  0
 19 18  2  0
 20 21  1  0
 21 22  2  0
 23 21  1  0
 24 23  1  0
 24 25  1  0
 25 26  1  0
 27 26  1  6
 27 28  1  0
 28 18  1  0
 29 30  1  0
 29 27  1  0
 31 29  2  0
M  END
$$$$
