MFR.pdb
     RDKit          3D

 31 31  0  0  1  0  0  0  0  0999 V2000
   19.7031   -8.2705  -22.0557 C   0  0  0  0  0  0  0  0  0  0  0  0
   20.1238   -9.8990  -21.4464 S   0  0  0  0  0  0  0  0  0  0  0  0
   21.8815  -10.2016  -21.4048 C   0  0  0  0  0  0  0  0  0  0  0  0
   22.7407   -9.0511  -21.0161 C   0  0  0  0  0  0  0  0  0  0  0  0
   23.8807   -9.4020  -20.1273 C   0  0  2  0  0  0  0  0  0  0  0  0
   24.1510  -10.8238  -20.1135 N   0  0  0  0  0  0  0  0  0  0  0  0
   23.5541   -8.9737  -18.7344 C   0  0  0  0  0  0  0  0  0  0  0  0
   22.9580   -9.7985  -17.9978 O   0  0  0  0  0  0  0  0  0  0  0  0
   23.9006   -7.6817  -18.2500 N   0  0  0  0  0  0  0  0  0  0  0  0
   23.5868   -7.3218  -16.9121 C   0  0  1  0  0  0  0  0  0  0  0  0
   24.8097   -7.1693  -16.0359 C   0  0  0  0  0  0  0  0  0  0  0  0
   25.5937   -8.4013  -15.8919 C   0  0  0  0  0  0  0  0  0  0  0  0
   25.3174   -9.3731  -14.9624 C   0  0  0  0  0  0  0  0  0  0  0  0
   26.0669  -10.5269  -14.8424 C   0  0  0  0  0  0  0  0  0  0  0  0
   27.1242  -10.7302  -15.6659 C   0  0  0  0  0  0  0  0  0  0  0  0
   27.4417   -9.7885  -16.6119 C   0  0  0  0  0  0  0  0  0  0  0  0
   26.6782   -8.6352  -16.7186 C   0  0  0  0  0  0  0  0  0  0  0  0
   22.6545   -6.1725  -16.7888 C   0  0  0  0  0  0  0  0  0  0  0  0
   22.7719   -5.1220  -17.4775 O   0  0  0  0  0  0  0  0  0  0  0  0
   14.6817   -7.8904  -15.6866 N   0  0  0  0  0  0  0  0  0  0  0  0
   15.1587   -7.6561  -17.0035 C   0  0  0  0  0  0  0  0  0  0  0  0
   14.3560   -7.8793  -17.9943 N   0  0  0  0  0  0  0  0  0  0  0  0
   16.4797   -7.1901  -17.2086 N   0  0  0  0  0  0  0  0  0  0  0  0
   17.1654   -6.4932  -16.1662 C   0  0  0  0  0  0  0  0  0  0  0  0
   18.5710   -6.1074  -16.5998 C   0  0  0  0  0  0  0  0  0  0  0  0
   19.2605   -5.4941  -15.4046 C   0  0  0  0  0  0  0  0  0  0  0  0
   20.6687   -5.0278  -15.7668 C   0  0  2  0  0  0  0  0  0  0  0  0
   21.5526   -6.1713  -15.8833 N   0  0  0  0  0  0  0  0  0  0  0  0
   21.2112   -4.1259  -14.7293 C   0  0  0  0  0  0  0  0  0  0  0  0
   21.1125   -2.7451  -14.7350 O   0  0  0  0  0  0  0  0  0  0  0  0
   21.8329   -4.6150  -13.7226 O   0  0  0  0  0  0  0  0  0  0  0  0
  1  2  1  0
  3  2  1  0
  4  3  1  0
  5  4  1  0
  5  6  1  1
  7  5  1  0
  7  8  2  0
  9  7  1  0
 10 11  1  1
 10  9  1  0
 12 11  1  0
 12 17  2  0
 13 12  1  0
 14 13  2  0
 14 15  1  0
 15 16  2  0
 16 17  1  0
 18 10  1  0
 19 18  2  0
 20 21  1  0
 21 22  2  0
 23 21  1  0
 24 23  1  0
 24 25  1  0
 25 26  1  0
 27 26  1  1
 27 28  1  0
 28 18  1  0
 29 30  1  0
 29 27  1  0
 31 29  2  0
M  END
$$$$
