MFR.pdb
     RDKit          3D

 31 31  0  0  1  0  0  0  0  0999 V2000
   27.2271  -15.7329  -15.0238 C   0  0  0  0  0  0  0  0  0  0  0  0
   28.4565  -16.7655  -15.8128 S   0  0  0  0  0  0  0  0  0  0  0  0
   29.1427  -17.9996  -14.7224 C   0  0  0  0  0  0  0  0  0  0  0  0
   28.1665  -18.8310  -13.9683 C   0  0  0  0  0  0  0  0  0  0  0  0
   28.7689  -19.6898  -12.9138 C   0  0  2  0  0  0  0  0  0  0  0  0
   29.6707  -20.6816  -13.4596 N   0  0  0  0  0  0  0  0  0  0  0  0
   27.6738  -20.4008  -12.1889 C   0  0  0  0  0  0  0  0  0  0  0  0
   27.4168  -21.5801  -12.5373 O   0  0  0  0  0  0  0  0  0  0  0  0
   26.9427  -19.7748  -11.1412 N   0  0  0  0  0  0  0  0  0  0  0  0
   25.8554  -20.4575  -10.5333 C   0  0  1  0  0  0  0  0  0  0  0  0
   25.5264  -19.9386   -9.1517 C   0  0  0  0  0  0  0  0  0  0  0  0
   26.6393  -20.0370   -8.2004 C   0  0  0  0  0  0  0  0  0  0  0  0
   27.4019  -21.1669   -8.0378 C   0  0  0  0  0  0  0  0  0  0  0  0
   28.4464  -21.2402   -7.1372 C   0  0  0  0  0  0  0  0  0  0  0  0
   28.7498  -20.1639   -6.3710 C   0  0  0  0  0  0  0  0  0  0  0  0
   28.0173  -19.0105   -6.4959 C   0  0  0  0  0  0  0  0  0  0  0  0
   26.9714  -18.9544   -7.4054 C   0  0  0  0  0  0  0  0  0  0  0  0
   24.6513  -20.5818  -11.3935 C   0  0  0  0  0  0  0  0  0  0  0  0
   24.1649  -19.6077  -12.0309 O   0  0  0  0  0  0  0  0  0  0  0  0
   18.3415  -24.0192  -12.7834 N   0  0  0  0  0  0  0  0  0  0  0  0
   18.5642  -24.6503  -14.0359 C   0  0  0  0  0  0  0  0  0  0  0  0
   17.5548  -24.8056  -14.8314 N   0  0  0  0  0  0  0  0  0  0  0  0
   19.8625  -25.0910  -14.3890 N   0  0  0  0  0  0  0  0  0  0  0  0
   20.9731  -24.8109  -13.5343 C   0  0  0  0  0  0  0  0  0  0  0  0
   21.7798  -23.6318  -14.0556 C   0  0  0  0  0  0  0  0  0  0  0  0
   22.9243  -23.4077  -13.0965 C   0  0  0  0  0  0  0  0  0  0  0  0
   22.9309  -21.9704  -12.5809 C   0  0  2  0  0  0  0  0  0  0  0  0
   23.9552  -21.8145  -11.5666 N   0  0  0  0  0  0  0  0  0  0  0  0
   21.6270  -21.6166  -11.9819 C   0  0  0  0  0  0  0  0  0  0  0  0
   21.2763  -21.8025  -10.6557 O   0  0  0  0  0  0  0  0  0  0  0  0
   20.7132  -21.0931  -12.7100 O   0  0  0  0  0  0  0  0  0  0  0  0
  1  2  1  0
  3  2  1  0
  4  3  1  0
  5  4  1  0
  5  6  1  6
  7  5  1  0
  7  8  2  0
  9  7  1  0
 10 11  1  1
 10  9  1  0
 12 11  1  0
 12 17  2  0
 13 12  1  0
 14 13  2  0
 14 15  1  0
 15 16  2  0
 16 17  1  0
 18 10  1  0
 19 18  2  0
 20 21  1  0
 21 22  2  0
 23 21  1  0
 24 23  1  0
 24 25  1  0
 25 26  1  0
 27 26  1  1
 27 28  1  0
 28 18  1  0
 29 30  1  0
 29 27  1  0
 31 29  2  0
M  END
$$$$
