MFR.pdb
     RDKit          3D

 31 31  0  0  1  0  0  0  0  0999 V2000
   22.7591  -21.9753  -13.8393 C   0  0  0  0  0  0  0  0  0  0  0  0
   23.9290  -23.2619  -13.4189 S   0  0  0  0  0  0  0  0  0  0  0  0
   23.8200  -24.6873  -14.4861 C   0  0  0  0  0  0  0  0  0  0  0  0
   24.9300  -24.8700  -15.4595 C   0  0  0  0  0  0  0  0  0  0  0  0
   25.2788  -23.6508  -16.2370 C   0  0  2  0  0  0  0  0  0  0  0  0
   24.2172  -23.2472  -17.1341 N   0  0  0  0  0  0  0  0  0  0  0  0
   26.4986  -23.9323  -17.0513 C   0  0  0  0  0  0  0  0  0  0  0  0
   26.3306  -24.3639  -18.2191 O   0  0  0  0  0  0  0  0  0  0  0  0
   27.8069  -23.7230  -16.5331 N   0  0  0  0  0  0  0  0  0  0  0  0
   28.9402  -24.0739  -17.3143 C   0  0  1  0  0  0  0  0  0  0  0  0
   30.0260  -23.0218  -17.2914 C   0  0  0  0  0  0  0  0  0  0  0  0
   31.2396  -23.4057  -18.0216 C   0  0  0  0  0  0  0  0  0  0  0  0
   32.2672  -24.1241  -17.4624 C   0  0  0  0  0  0  0  0  0  0  0  0
   33.4019  -24.4767  -18.1663 C   0  0  0  0  0  0  0  0  0  0  0  0
   33.5284  -24.1093  -19.4650 C   0  0  0  0  0  0  0  0  0  0  0  0
   32.5287  -23.3901  -20.0699 C   0  0  0  0  0  0  0  0  0  0  0  0
   31.3958  -23.0443  -19.3480 C   0  0  0  0  0  0  0  0  0  0  0  0
   29.4670  -25.4375  -17.0527 C   0  0  0  0  0  0  0  0  0  0  0  0
   29.5791  -25.9140  -15.8898 O   0  0  0  0  0  0  0  0  0  0  0  0
   26.0016  -32.3084  -17.8406 N   0  0  0  0  0  0  0  0  0  0  0  0
   27.1961  -32.2624  -17.0740 C   0  0  0  0  0  0  0  0  0  0  0  0
   27.6530  -33.3706  -16.5851 N   0  0  0  0  0  0  0  0  0  0  0  0
   27.8570  -31.0287  -16.8610 N   0  0  0  0  0  0  0  0  0  0  0  0
   27.3073  -29.8192  -17.3876 C   0  0  0  0  0  0  0  0  0  0  0  0
   28.3587  -29.0277  -18.1498 C   0  0  0  0  0  0  0  0  0  0  0  0
   29.3394  -28.4867  -17.1372 C   0  0  0  0  0  0  0  0  0  0  0  0
   30.4099  -27.6346  -17.8154 C   0  0  2  0  0  0  0  0  0  0  0  0
   29.8833  -26.3136  -18.0983 N   0  0  0  0  0  0  0  0  0  0  0  0
   30.8430  -28.2442  -19.0902 C   0  0  0  0  0  0  0  0  0  0  0  0
   31.6410  -29.3689  -19.2116 O   0  0  0  0  0  0  0  0  0  0  0  0
   30.4759  -27.7245  -20.2012 O   0  0  0  0  0  0  0  0  0  0  0  0
  1  2  1  0
  3  2  1  0
  4  3  1  0
  5  4  1  0
  5  6  1  6
  7  5  1  0
  7  8  2  0
  9  7  1  0
 10 11  1  1
 10  9  1  0
 12 11  1  0
 12 17  2  0
 13 12  1  0
 14 13  2  0
 14 15  1  0
 15 16  2  0
 16 17  1  0
 18 10  1  0
 19 18  2  0
 20 21  1  0
 21 22  2  0
 23 21  1  0
 24 23  1  0
 24 25  1  0
 25 26  1  0
 27 26  1  6
 27 28  1  0
 28 18  1  0
 29 30  1  0
 29 27  1  0
 31 29  2  0
M  END
$$$$
