KFW.pdb
     RDKit          3D

 35 37  0  0  1  0  0  0  0  0999 V2000
    7.4476  -18.8954   20.1437 N   0  0  0  0  0  0  0  0  0  0  0  0
    8.2865  -17.8024   19.7442 C   0  0  1  0  0  0  0  0  0  0  0  0
    7.8616  -17.1430   18.4627 C   0  0  0  0  0  0  0  0  0  0  0  0
    7.9627  -18.1313   17.2982 C   0  0  0  0  0  0  0  0  0  0  0  0
    7.4452  -17.4288   16.0621 C   0  0  0  0  0  0  0  0  0  0  0  0
    8.5412  -17.2059   15.0446 C   0  0  0  0  0  0  0  0  0  0  0  0
    8.7092  -18.3017   14.1367 N   0  0  0  0  0  0  0  0  0  0  0  0
    8.4912  -16.7912   20.7926 C   0  0  0  0  0  0  0  0  0  0  0  0
    9.4278  -15.9646   20.6186 O   0  0  0  0  0  0  0  0  0  0  0  0
    7.7283  -16.6765   21.9656 N   0  0  0  0  0  0  0  0  0  0  0  0
    7.9020  -15.6308   22.9487 C   0  0  1  0  0  0  0  0  0  0  0  0
    7.0087  -15.8044   24.1501 C   0  0  0  0  0  0  0  0  0  0  0  0
    7.1111  -14.6675   25.0943 C   0  0  0  0  0  0  0  0  0  0  0  0
    5.9887  -14.0137   25.5534 C   0  0  0  0  0  0  0  0  0  0  0  0
    6.0733  -12.9450   26.4398 C   0  0  0  0  0  0  0  0  0  0  0  0
    7.2984  -12.4977   26.8952 C   0  0  0  0  0  0  0  0  0  0  0  0
    8.4167  -13.1445   26.4415 C   0  0  0  0  0  0  0  0  0  0  0  0
    8.3271  -14.1989   25.5666 C   0  0  0  0  0  0  0  0  0  0  0  0
    9.3201  -15.5211   23.2851 C   0  0  0  0  0  0  0  0  0  0  0  0
    9.9060  -14.4248   23.1173 O   0  0  0  0  0  0  0  0  0  0  0  0
   10.1100  -16.5875   23.8014 N   0  0  0  0  0  0  0  0  0  0  0  0
   11.5104  -16.4462   24.1585 C   0  0  1  0  0  0  0  0  0  0  0  0
   11.5539  -15.4617   25.3153 C   0  0  0  0  0  0  0  0  0  0  0  0
   11.0392  -16.0217   26.5700 C   0  0  0  0  0  0  0  0  0  0  0  0
   10.7628  -17.3276   26.9198 C   0  0  0  0  0  0  0  0  0  0  0  0
   10.3083  -17.3384   28.1849 N   0  0  0  0  0  0  0  0  0  0  0  0
   10.2742  -16.0842   28.6847 C   0  0  0  0  0  0  0  0  0  0  0  0
    9.8905  -15.5673   29.9217 C   0  0  0  0  0  0  0  0  0  0  0  0
    9.9654  -14.1994   30.1536 C   0  0  0  0  0  0  0  0  0  0  0  0
   10.4189  -13.3485   29.1625 C   0  0  0  0  0  0  0  0  0  0  0  0
   10.7890  -13.8957   27.9536 C   0  0  0  0  0  0  0  0  0  0  0  0
   10.7290  -15.2530   27.6838 C   0  0  0  0  0  0  0  0  0  0  0  0
   12.0546  -17.7666   24.5535 C   0  0  0  0  0  0  0  0  0  0  0  0
   13.2660  -17.8812   24.8717 O   0  0  0  0  0  0  0  0  0  0  0  0
   11.2748  -18.9028   24.5890 O   0  0  0  0  0  0  0  0  0  0  0  0
  2  1  1  1
  2  3  1  0
  4  3  1  0
  5  4  1  0
  6  5  1  0
  7  6  1  0
  8  2  1  0
  9  8  2  0
 10  8  1  0
 11 10  1  0
 12 13  1  0
 11 12  1  1
 13 18  2  0
 14 15  2  0
 14 13  1  0
 15 16  1  0
 16 17  2  0
 18 17  1  0
 19 11  1  0
 19 21  1  0
 20 19  2  0
 22 21  1  0
 22 33  1  0
 22 23  1  1
 24 32  1  0
 24 23  1  0
 25 24  2  0
 26 25  1  0
 26 27  1  0
 27 32  2  0
 28 27  1  0
 28 29  2  0
 29 30  1  0
 30 31  2  0
 32 31  1  0
 33 35  1  0
 34 33  2  0
M  END
$$$$
