KFW.pdb
     RDKit          3D

 35 37  0  0  1  0  0  0  0  0999 V2000
    4.8914  -20.7550   24.5226 N   0  0  0  0  0  0  0  0  0  0  0  0
    5.3551  -20.0324   23.3734 C   0  0  1  0  0  0  0  0  0  0  0  0
    4.4170  -20.0827   22.2008 C   0  0  0  0  0  0  0  0  0  0  0  0
    4.8651  -21.1582   21.2082 C   0  0  0  0  0  0  0  0  0  0  0  0
    4.4371  -20.7077   19.8287 C   0  0  0  0  0  0  0  0  0  0  0  0
    4.8307  -21.7083   18.7656 C   0  0  0  0  0  0  0  0  0  0  0  0
    4.3617  -21.3645   17.4559 N   0  0  0  0  0  0  0  0  0  0  0  0
    5.7404  -18.6414   23.6568 C   0  0  0  0  0  0  0  0  0  0  0  0
    5.3005  -17.7531   22.8769 O   0  0  0  0  0  0  0  0  0  0  0  0
    6.5557  -18.2291   24.7228 N   0  0  0  0  0  0  0  0  0  0  0  0
    6.9978  -16.8681   24.9283 C   0  0  1  0  0  0  0  0  0  0  0  0
    6.6575  -16.3443   26.2999 C   0  0  0  0  0  0  0  0  0  0  0  0
    7.0297  -14.9200   26.4648 C   0  0  0  0  0  0  0  0  0  0  0  0
    8.2716  -14.5535   26.9354 C   0  0  0  0  0  0  0  0  0  0  0  0
    8.6314  -13.2192   27.0943 C   0  0  0  0  0  0  0  0  0  0  0  0
    7.7469  -12.2049   26.7825 C   0  0  0  0  0  0  0  0  0  0  0  0
    6.5115  -12.5645   26.3144 C   0  0  0  0  0  0  0  0  0  0  0  0
    6.1617  -13.8832   26.1596 C   0  0  0  0  0  0  0  0  0  0  0  0
    8.4192  -16.7722   24.6015 C   0  0  0  0  0  0  0  0  0  0  0  0
    9.2333  -17.5290   25.1827 O   0  0  0  0  0  0  0  0  0  0  0  0
    8.9674  -15.8644   23.6511 N   0  0  0  0  0  0  0  0  0  0  0  0
   10.3705  -15.8471   23.2778 C   0  0  1  0  0  0  0  0  0  0  0  0
   10.5342  -14.6920   22.3039 C   0  0  0  0  0  0  0  0  0  0  0  0
    9.2563  -14.1727   21.8038 C   0  0  0  0  0  0  0  0  0  0  0  0
    8.0206  -14.0990   22.4135 C   0  0  0  0  0  0  0  0  0  0  0  0
    7.1560  -13.5409   21.5485 N   0  0  0  0  0  0  0  0  0  0  0  0
    7.7770  -13.2426   20.3869 C   0  0  0  0  0  0  0  0  0  0  0  0
    7.3349  -12.6644   19.1975 C   0  0  0  0  0  0  0  0  0  0  0  0
    8.2242  -12.4775   18.1463 C   0  0  0  0  0  0  0  0  0  0  0  0
    9.5459  -12.8627   18.2751 C   0  0  0  0  0  0  0  0  0  0  0  0
    9.9458  -13.4303   19.4649 C   0  0  0  0  0  0  0  0  0  0  0  0
    9.0903  -13.6332   20.5353 C   0  0  0  0  0  0  0  0  0  0  0  0
   11.2012  -15.6527   24.4894 C   0  0  0  0  0  0  0  0  0  0  0  0
   11.4814  -14.4918   24.8837 O   0  0  0  0  0  0  0  0  0  0  0  0
   11.6930  -16.7120   25.2217 O   0  0  0  0  0  0  0  0  0  0  0  0
  2  1  1  1
  2  3  1  0
  4  3  1  0
  5  4  1  0
  6  5  1  0
  7  6  1  0
  8  2  1  0
  9  8  2  0
 10  8  1  0
 11 10  1  0
 12 13  1  0
 11 12  1  1
 13 18  2  0
 14 15  2  0
 14 13  1  0
 15 16  1  0
 16 17  2  0
 18 17  1  0
 19 11  1  0
 19 21  1  0
 20 19  2  0
 22 21  1  0
 22 33  1  0
 22 23  1  6
 24 32  1  0
 24 23  1  0
 25 24  2  0
 26 25  1  0
 26 27  1  0
 27 32  2  0
 28 27  1  0
 28 29  2  0
 29 30  1  0
 30 31  2  0
 32 31  1  0
 33 35  1  0
 34 33  2  0
M  END
$$$$
