KFW.pdb
     RDKit          3D

 35 37  0  0  1  0  0  0  0  0999 V2000
    8.1503  -19.3381   19.8965 N   0  0  0  0  0  0  0  0  0  0  0  0
    9.0908  -18.3028   19.5775 C   0  0  1  0  0  0  0  0  0  0  0  0
    9.0201  -17.8311   18.1527 C   0  0  0  0  0  0  0  0  0  0  0  0
    8.3910  -18.9094   17.2672 C   0  0  0  0  0  0  0  0  0  0  0  0
    9.1384  -18.9077   15.9517 C   0  0  0  0  0  0  0  0  0  0  0  0
    8.4626  -19.7854   14.9225 C   0  0  0  0  0  0  0  0  0  0  0  0
    9.1974  -19.8988   13.6975 N   0  0  0  0  0  0  0  0  0  0  0  0
    9.0504  -17.1543   20.4957 C   0  0  0  0  0  0  0  0  0  0  0  0
    9.8844  -16.2295   20.2962 O   0  0  0  0  0  0  0  0  0  0  0  0
    8.1597  -17.0097   21.5713 N   0  0  0  0  0  0  0  0  0  0  0  0
    8.1799  -15.9016   22.4996 C   0  0  1  0  0  0  0  0  0  0  0  0
    7.0424  -15.9463   23.4873 C   0  0  0  0  0  0  0  0  0  0  0  0
    7.0475  -14.7810   24.4020 C   0  0  0  0  0  0  0  0  0  0  0  0
    7.4406  -13.5330   23.9708 C   0  0  0  0  0  0  0  0  0  0  0  0
    7.4495  -12.4322   24.8211 C   0  0  0  0  0  0  0  0  0  0  0  0
    7.0605  -12.5534   26.1410 C   0  0  0  0  0  0  0  0  0  0  0  0
    6.6690  -13.7920   26.5740 C   0  0  0  0  0  0  0  0  0  0  0  0
    6.6622  -14.8751   25.7302 C   0  0  0  0  0  0  0  0  0  0  0  0
    9.4976  -15.8277   23.1277 C   0  0  0  0  0  0  0  0  0  0  0  0
   10.1511  -14.7595   23.0552 O   0  0  0  0  0  0  0  0  0  0  0  0
   10.1144  -16.8996   23.8336 N   0  0  0  0  0  0  0  0  0  0  0  0
   11.4915  -16.8679   24.2930 C   0  0  1  0  0  0  0  0  0  0  0  0
   11.5810  -15.7156   25.2799 C   0  0  0  0  0  0  0  0  0  0  0  0
   11.0282  -16.0411   26.5994 C   0  0  0  0  0  0  0  0  0  0  0  0
   10.7118  -17.2614   27.1605 C   0  0  0  0  0  0  0  0  0  0  0  0
   10.2330  -17.0454   28.3980 N   0  0  0  0  0  0  0  0  0  0  0  0
   10.2214  -15.7237   28.6754 C   0  0  0  0  0  0  0  0  0  0  0  0
    9.8275  -14.9943   29.7967 C   0  0  0  0  0  0  0  0  0  0  0  0
    9.9329  -13.6089   29.7932 C   0  0  0  0  0  0  0  0  0  0  0  0
   10.4269  -12.9505   28.6823 C   0  0  0  0  0  0  0  0  0  0  0  0
   10.8060  -13.7046   27.5935 C   0  0  0  0  0  0  0  0  0  0  0  0
   10.7165  -15.0864   27.5581 C   0  0  0  0  0  0  0  0  0  0  0  0
   11.8258  -18.1586   24.9395 C   0  0  0  0  0  0  0  0  0  0  0  0
   10.9265  -19.0129   25.1471 O   0  0  0  0  0  0  0  0  0  0  0  0
   13.1088  -18.4733   25.3335 O   0  0  0  0  0  0  0  0  0  0  0  0
  2  1  1  1
  2  3  1  0
  4  3  1  0
  5  4  1  0
  6  5  1  0
  7  6  1  0
  8  2  1  0
  9  8  2  0
 10  8  1  0
 11 10  1  0
 12 13  1  0
 11 12  1  1
 13 18  2  0
 14 15  2  0
 14 13  1  0
 15 16  1  0
 16 17  2  0
 18 17  1  0
 19 11  1  0
 19 21  1  0
 20 19  2  0
 22 21  1  0
 22 33  1  0
 22 23  1  1
 24 32  1  0
 24 23  1  0
 25 24  2  0
 26 25  1  0
 26 27  1  0
 27 32  2  0
 28 27  1  0
 28 29  2  0
 29 30  1  0
 30 31  2  0
 32 31  1  0
 33 35  1  0
 34 33  2  0
M  END
$$$$
