KFW.pdb
     RDKit          3D

 35 37  0  0  1  0  0  0  0  0999 V2000
    8.1319  -18.6243   18.8143 N   0  0  0  0  0  0  0  0  0  0  0  0
    9.2989  -17.7911   18.7688 C   0  0  1  0  0  0  0  0  0  0  0  0
    9.5104  -17.1079   17.4474 C   0  0  0  0  0  0  0  0  0  0  0  0
    8.2874  -17.3018   16.5477 C   0  0  0  0  0  0  0  0  0  0  0  0
    8.1046  -16.0284   15.7515 C   0  0  0  0  0  0  0  0  0  0  0  0
    7.0406  -16.1807   14.6880 C   0  0  0  0  0  0  0  0  0  0  0  0
    6.9076  -15.0303   13.8442 N   0  0  0  0  0  0  0  0  0  0  0  0
    9.3790  -16.8135   19.8650 C   0  0  0  0  0  0  0  0  0  0  0  0
   10.3515  -16.0106   19.8490 O   0  0  0  0  0  0  0  0  0  0  0  0
    8.4611  -16.7065   20.9219 N   0  0  0  0  0  0  0  0  0  0  0  0
    8.6261  -15.8240   22.0551 C   0  0  1  0  0  0  0  0  0  0  0  0
    7.4059  -15.7732   22.9383 C   0  0  0  0  0  0  0  0  0  0  0  0
    7.5452  -14.7828   24.0311 C   0  0  0  0  0  0  0  0  0  0  0  0
    7.2191  -15.0996   25.3315 C   0  0  0  0  0  0  0  0  0  0  0  0
    7.3457  -14.1773   26.3651 C   0  0  0  0  0  0  0  0  0  0  0  0
    7.8078  -12.8985   26.1210 C   0  0  0  0  0  0  0  0  0  0  0  0
    8.1331  -12.5792   24.8298 C   0  0  0  0  0  0  0  0  0  0  0  0
    8.0061  -13.4936   23.8135 C   0  0  0  0  0  0  0  0  0  0  0  0
    9.8499  -16.1848   22.7682 C   0  0  0  0  0  0  0  0  0  0  0  0
   10.9008  -15.5368   22.5470 O   0  0  0  0  0  0  0  0  0  0  0  0
    9.9464  -17.2408   23.7187 N   0  0  0  0  0  0  0  0  0  0  0  0
   11.1556  -17.5366   24.4663 C   0  0  1  0  0  0  0  0  0  0  0  0
   11.3619  -16.3677   25.4154 C   0  0  0  0  0  0  0  0  0  0  0  0
   10.7045  -16.5550   26.7137 C   0  0  0  0  0  0  0  0  0  0  0  0
   10.3607  -17.7113   27.3837 C   0  0  0  0  0  0  0  0  0  0  0  0
    9.7756  -17.3683   28.5444 N   0  0  0  0  0  0  0  0  0  0  0  0
    9.7202  -16.0243   28.6657 C   0  0  0  0  0  0  0  0  0  0  0  0
    9.2216  -15.1825   29.6593 C   0  0  0  0  0  0  0  0  0  0  0  0
    9.3054  -13.8042   29.5049 C   0  0  0  0  0  0  0  0  0  0  0  0
    9.8814  -13.2640   28.3699 C   0  0  0  0  0  0  0  0  0  0  0  0
   10.3629  -14.1271   27.4102 C   0  0  0  0  0  0  0  0  0  0  0  0
   10.2980  -15.5058   27.5270 C   0  0  0  0  0  0  0  0  0  0  0  0
   10.9792  -18.8078   25.2070 C   0  0  0  0  0  0  0  0  0  0  0  0
    9.8373  -19.3239   25.3132 O   0  0  0  0  0  0  0  0  0  0  0  0
   12.0353  -19.4665   25.7994 O   0  0  0  0  0  0  0  0  0  0  0  0
  2  1  1  6
  2  3  1  0
  4  3  1  0
  5  4  1  0
  6  5  1  0
  7  6  1  0
  8  2  1  0
  9  8  2  0
 10  8  1  0
 11 10  1  0
 12 13  1  0
 11 12  1  1
 13 18  2  0
 14 15  2  0
 14 13  1  0
 15 16  1  0
 16 17  2  0
 18 17  1  0
 19 11  1  0
 19 21  1  0
 20 19  2  0
 22 21  1  0
 22 33  1  0
 22 23  1  1
 24 32  1  0
 24 23  1  0
 25 24  2  0
 26 25  1  0
 26 27  1  0
 27 32  2  0
 28 27  1  0
 28 29  2  0
 29 30  1  0
 30 31  2  0
 32 31  1  0
 33 35  1  0
 34 33  2  0
M  END
$$$$
