KFW.pdb
     RDKit          3D

 35 37  0  0  1  0  0  0  0  0999 V2000
    8.3041  -18.4842   18.7369 N   0  0  0  0  0  0  0  0  0  0  0  0
    9.2016  -18.5563   19.8537 C   0  0  1  0  0  0  0  0  0  0  0  0
   10.6243  -18.8573   19.4756 C   0  0  0  0  0  0  0  0  0  0  0  0
   10.7828  -18.8457   17.9533 C   0  0  0  0  0  0  0  0  0  0  0  0
   12.2003  -19.2736   17.6424 C   0  0  0  0  0  0  0  0  0  0  0  0
   12.4789  -19.2511   16.1564 C   0  0  0  0  0  0  0  0  0  0  0  0
   13.8196  -19.6297   15.8209 N   0  0  0  0  0  0  0  0  0  0  0  0
    9.1485  -17.3838   20.7404 C   0  0  0  0  0  0  0  0  0  0  0  0
    9.9884  -16.4665   20.5308 O   0  0  0  0  0  0  0  0  0  0  0  0
    8.2399  -17.2087   21.7962 N   0  0  0  0  0  0  0  0  0  0  0  0
    8.1429  -16.0067   22.5937 C   0  0  1  0  0  0  0  0  0  0  0  0
    6.9049  -15.9740   23.4526 C   0  0  0  0  0  0  0  0  0  0  0  0
    6.8724  -14.7923   24.3453 C   0  0  0  0  0  0  0  0  0  0  0  0
    7.0699  -13.5193   23.8567 C   0  0  0  0  0  0  0  0  0  0  0  0
    7.0418  -12.4028   24.6859 C   0  0  0  0  0  0  0  0  0  0  0  0
    6.8124  -12.5329   26.0419 C   0  0  0  0  0  0  0  0  0  0  0  0
    6.6156  -13.7963   26.5318 C   0  0  0  0  0  0  0  0  0  0  0  0
    6.6445  -14.8948   25.7087 C   0  0  0  0  0  0  0  0  0  0  0  0
    9.3828  -15.8312   23.3475 C   0  0  0  0  0  0  0  0  0  0  0  0
    9.8522  -14.6772   23.4935 O   0  0  0  0  0  0  0  0  0  0  0  0
   10.1192  -16.8936   23.9446 N   0  0  0  0  0  0  0  0  0  0  0  0
   11.5327  -16.8061   24.2658 C   0  0  1  0  0  0  0  0  0  0  0  0
   11.6589  -15.7234   25.3247 C   0  0  0  0  0  0  0  0  0  0  0  0
   11.0418  -16.0920   26.6039 C   0  0  0  0  0  0  0  0  0  0  0  0
   10.6941  -17.3295   27.1056 C   0  0  0  0  0  0  0  0  0  0  0  0
   10.1570  -17.1544   28.3255 N   0  0  0  0  0  0  0  0  0  0  0  0
   10.1372  -15.8432   28.6486 C   0  0  0  0  0  0  0  0  0  0  0  0
    9.6925  -15.1515   29.7748 C   0  0  0  0  0  0  0  0  0  0  0  0
    9.8033  -13.7674   29.8254 C   0  0  0  0  0  0  0  0  0  0  0  0
   10.3529  -13.0731   28.7634 C   0  0  0  0  0  0  0  0  0  0  0  0
   10.7811  -13.7906   27.6681 C   0  0  0  0  0  0  0  0  0  0  0  0
   10.6880  -15.1699   27.5796 C   0  0  0  0  0  0  0  0  0  0  0  0
   12.0052  -18.1153   24.7742 C   0  0  0  0  0  0  0  0  0  0  0  0
   13.2061  -18.2639   25.1167 O   0  0  0  0  0  0  0  0  0  0  0  0
   11.1681  -19.2042   24.8917 O   0  0  0  0  0  0  0  0  0  0  0  0
  2  1  1  6
  2  3  1  0
  4  3  1  0
  5  4  1  0
  6  5  1  0
  7  6  1  0
  8  2  1  0
  9  8  2  0
 10  8  1  0
 11 10  1  0
 12 13  1  0
 11 12  1  1
 13 18  2  0
 14 15  2  0
 14 13  1  0
 15 16  1  0
 16 17  2  0
 18 17  1  0
 19 11  1  0
 19 21  1  0
 20 19  2  0
 22 21  1  0
 22 33  1  0
 22 23  1  1
 24 32  1  0
 24 23  1  0
 25 24  2  0
 26 25  1  0
 26 27  1  0
 27 32  2  0
 28 27  1  0
 28 29  2  0
 29 30  1  0
 30 31  2  0
 32 31  1  0
 33 35  1  0
 34 33  2  0
M  END
$$$$
