KFW.pdb
     RDKit          3D

 35 37  0  0  1  0  0  0  0  0999 V2000
    9.2704  -18.2402   18.7147 N   0  0  0  0  0  0  0  0  0  0  0  0
    8.9480  -18.3181   20.1104 C   0  0  1  0  0  0  0  0  0  0  0  0
    9.3168  -19.6266   20.7504 C   0  0  0  0  0  0  0  0  0  0  0  0
    9.6502  -20.6666   19.6780 C   0  0  0  0  0  0  0  0  0  0  0  0
    9.9671  -21.9642   20.3888 C   0  0  0  0  0  0  0  0  0  0  0  0
   10.2213  -23.0901   19.4121 C   0  0  0  0  0  0  0  0  0  0  0  0
   10.4998  -24.3445   20.0464 N   0  0  0  0  0  0  0  0  0  0  0  0
    9.4690  -17.1975   20.9081 C   0  0  0  0  0  0  0  0  0  0  0  0
   10.6306  -16.7889   20.6351 O   0  0  0  0  0  0  0  0  0  0  0  0
    8.7763  -16.5516   21.9445 N   0  0  0  0  0  0  0  0  0  0  0  0
    9.1938  -15.3059   22.5479 C   0  0  1  0  0  0  0  0  0  0  0  0
    8.0791  -14.2952   22.6321 C   0  0  0  0  0  0  0  0  0  0  0  0
    7.7283  -13.7350   21.3063 C   0  0  0  0  0  0  0  0  0  0  0  0
    6.6172  -14.1678   20.6165 C   0  0  0  0  0  0  0  0  0  0  0  0
    6.2787  -13.6490   19.3710 C   0  0  0  0  0  0  0  0  0  0  0  0
    7.0531  -12.6716   18.7765 C   0  0  0  0  0  0  0  0  0  0  0  0
    8.1585  -12.2384   19.4585 C   0  0  0  0  0  0  0  0  0  0  0  0
    8.4877  -12.7542   20.6876 C   0  0  0  0  0  0  0  0  0  0  0  0
    9.8277  -15.5864   23.8347 C   0  0  0  0  0  0  0  0  0  0  0  0
   10.6701  -14.7770   24.2914 O   0  0  0  0  0  0  0  0  0  0  0  0
    9.5580  -16.7352   24.6316 N   0  0  0  0  0  0  0  0  0  0  0  0
   10.2631  -17.0375   25.8646 C   0  0  1  0  0  0  0  0  0  0  0  0
    9.8503  -15.9665   26.8606 C   0  0  0  0  0  0  0  0  0  0  0  0
    8.4418  -15.5746   26.7366 C   0  0  0  0  0  0  0  0  0  0  0  0
    7.3307  -16.3232   26.4059 C   0  0  0  0  0  0  0  0  0  0  0  0
    6.2568  -15.5148   26.4239 N   0  0  0  0  0  0  0  0  0  0  0  0
    6.6188  -14.2565   26.7550 C   0  0  0  0  0  0  0  0  0  0  0  0
    5.8981  -13.0726   26.9082 C   0  0  0  0  0  0  0  0  0  0  0  0
    6.5572  -11.9023   27.2641 C   0  0  0  0  0  0  0  0  0  0  0  0
    7.9249  -11.9070   27.4669 C   0  0  0  0  0  0  0  0  0  0  0  0
    8.6029  -13.0954   27.3064 C   0  0  0  0  0  0  0  0  0  0  0  0
    7.9825  -14.2823   26.9527 C   0  0  0  0  0  0  0  0  0  0  0  0
    9.8774  -18.3887   26.3350 C   0  0  0  0  0  0  0  0  0  0  0  0
   10.3954  -18.8667   27.3766 O   0  0  0  0  0  0  0  0  0  0  0  0
    8.9545  -19.1645   25.6668 O   0  0  0  0  0  0  0  0  0  0  0  0
  2  1  1  6
  2  3  1  0
  4  3  1  0
  5  4  1  0
  6  5  1  0
  7  6  1  0
  8  2  1  0
  9  8  2  0
 10  8  1  0
 11 10  1  0
 12 13  1  0
 11 12  1  1
 13 18  2  0
 14 15  2  0
 14 13  1  0
 15 16  1  0
 16 17  2  0
 18 17  1  0
 19 11  1  0
 19 21  1  0
 20 19  2  0
 22 21  1  0
 22 33  1  0
 22 23  1  1
 24 32  1  0
 24 23  1  0
 25 24  2  0
 26 25  1  0
 26 27  1  0
 27 32  2  0
 28 27  1  0
 28 29  2  0
 29 30  1  0
 30 31  2  0
 32 31  1  0
 33 35  1  0
 34 33  2  0
M  END
$$$$
