RDM.pdb
     RDKit          3D

 28 27  0  0  1  0  0  0  0  0999 V2000
    8.9646  -14.2557   19.0983 N   0  0  0  0  0  0  0  0  0  0  0  0
    8.3624  -14.1323   17.8170 C   0  0  0  0  0  0  0  0  0  0  0  0
    8.2541  -12.9365   17.3451 N   0  0  0  0  0  0  0  0  0  0  0  0
    7.8979  -15.2526   17.0805 N   0  0  0  0  0  0  0  0  0  0  0  0
    7.1173  -16.2884   17.7876 C   0  0  0  0  0  0  0  0  0  0  0  0
    8.0906  -17.2726   18.3743 C   0  0  0  0  0  0  0  0  0  0  0  0
    7.6040  -17.9593   19.6020 C   0  0  0  0  0  0  0  0  0  0  0  0
    7.7155  -17.1639   20.8706 C   0  0  2  0  0  0  0  0  0  0  0  0
    7.6362  -15.7421   20.6548 N   0  0  0  0  0  0  0  0  0  0  0  0
    8.9819  -17.4503   21.5912 C   0  0  0  0  0  0  0  0  0  0  0  0
    9.1695  -18.5578   22.0987 O   0  0  0  0  0  0  0  0  0  0  0  0
    7.7902  -12.6790   16.4543 N   0  0  0  0  0  0  0  0  0  0  0  0
   10.0220  -16.4871   21.7315 C   0  0  2  0  0  0  0  0  0  0  0  0
   11.1850  -16.6891   22.5216 C   0  0  0  0  0  0  0  0  0  0  0  0
   12.4450  -16.0871   22.0105 C   0  0  0  0  0  0  0  0  0  0  0  0
   12.7288  -16.5641   20.6574 O   0  0  0  0  0  0  0  0  0  0  0  0
   12.9263  -17.8045   20.4280 C   0  0  0  0  0  0  0  0  0  0  0  0
   10.8970  -16.2184   23.8999 O   0  0  0  0  0  0  0  0  0  0  0  0
   11.7481  -16.3031   24.8250 O   0  0  0  0  0  0  0  0  0  0  0  0
   12.8059  -15.7387   19.5459 C   0  0  0  0  0  0  0  0  0  0  0  0
    7.0554  -11.0444   27.6958 S   0  0  0  0  0  0  0  0  0  0  0  0
    6.4758  -12.4772   26.7081 C   0  0  0  0  0  0  0  0  0  0  0  0
    7.6921  -13.7953   26.8812 C   0  0  0  0  0  0  0  0  0  0  0  0
    8.2522  -14.1963   25.5594 C   0  0  1  0  0  0  0  0  0  0  0  0
    9.2996  -15.2596   25.6199 N   0  0  0  0  0  0  0  0  0  0  0  0
    9.6438  -15.6452   24.2534 C   0  0  0  0  0  0  0  0  0  0  0  0
    8.8850  -16.4803   26.3385 O   0  0  0  0  0  0  0  0  0  0  0  0
    8.3470  -17.4466   25.7551 O   0  0  0  0  0  0  0  0  0  0  0  0
  2  1  1  0
  3  2  2  0
  4  5  1  0
  4  2  1  0
  6  5  1  0
  7  6  1  0
  8  9  1  6
  8  7  1  0
 10  8  1  0
 11 10  2  0
 12 10  1  0
 13 12  1  0
 13 14  1  6
 15 14  1  0
 16 15  2  0
 17 13  1  0
 17 25  1  0
 18 17  2  0
 19 15  1  0
 21 20  1  0
 22 21  1  0
 24 23  1  6
 23 22  1  0
 24 25  1  0
 24 26  1  0
 26 28  1  0
 27 26  2  0
M  END
$$$$
