RDM.pdb
     RDKit          3D

 28 27  0  0  1  0  0  0  0  0999 V2000
    8.3756  -12.5296   19.7049 N   0  0  0  0  0  0  0  0  0  0  0  0
    7.8987  -13.0947   18.4913 C   0  0  0  0  0  0  0  0  0  0  0  0
    7.6197  -12.2670   17.5419 N   0  0  0  0  0  0  0  0  0  0  0  0
    7.7310  -14.4925   18.3141 N   0  0  0  0  0  0  0  0  0  0  0  0
    8.2198  -15.4022   19.3704 C   0  0  0  0  0  0  0  0  0  0  0  0
    7.1012  -15.6016   20.3548 C   0  0  0  0  0  0  0  0  0  0  0  0
    7.4422  -16.4898   21.4996 C   0  0  0  0  0  0  0  0  0  0  0  0
    8.9100  -16.6601   21.7660 C   0  0  2  0  0  0  0  0  0  0  0  0
    9.4867  -17.7754   21.0604 N   0  0  0  0  0  0  0  0  0  0  0  0
    9.1907  -16.8361   23.2134 C   0  0  0  0  0  0  0  0  0  0  0  0
    8.6476  -16.1045   24.0437 O   0  0  0  0  0  0  0  0  0  0  0  0
    7.2995  -12.5259   16.5903 N   0  0  0  0  0  0  0  0  0  0  0  0
   10.0787  -17.8336   23.7093 C   0  0  1  0  0  0  0  0  0  0  0  0
   10.3728  -18.0159   25.0869 C   0  0  0  0  0  0  0  0  0  0  0  0
   11.4881  -18.9454   25.4080 C   0  0  0  0  0  0  0  0  0  0  0  0
   11.5895  -19.1442   26.8534 O   0  0  0  0  0  0  0  0  0  0  0  0
   10.5557  -19.0704   27.5990 C   0  0  0  0  0  0  0  0  0  0  0  0
   10.6087  -16.6806   25.6915 O   0  0  0  0  0  0  0  0  0  0  0  0
   10.9910  -15.6958   25.0050 O   0  0  0  0  0  0  0  0  0  0  0  0
   12.7763  -19.4197   27.5155 C   0  0  0  0  0  0  0  0  0  0  0  0
    7.8351  -12.0161   24.8672 S   0  0  0  0  0  0  0  0  0  0  0  0
    7.3019  -12.4202   26.5751 C   0  0  0  0  0  0  0  0  0  0  0  0
    8.7226  -13.0992   27.4510 C   0  0  0  0  0  0  0  0  0  0  0  0
    9.0748  -14.4570   26.9471 C   0  0  1  0  0  0  0  0  0  0  0  0
   10.2319  -15.1007   27.6386 N   0  0  0  0  0  0  0  0  0  0  0  0
   10.4162  -16.4381   27.0801 C   0  0  0  0  0  0  0  0  0  0  0  0
   10.0638  -15.2443   29.0979 O   0  0  0  0  0  0  0  0  0  0  0  0
    9.6625  -16.3067   29.6210 O   0  0  0  0  0  0  0  0  0  0  0  0
  2  1  1  0
  3  2  2  0
  4  5  1  0
  4  2  1  0
  6  5  1  0
  7  6  1  0
  8  9  1  6
  8  7  1  0
 10  8  1  0
 11 10  2  0
 12 10  1  0
 13 12  1  0
 13 14  1  1
 15 14  1  0
 16 15  2  0
 17 13  1  0
 17 25  1  0
 18 17  2  0
 19 15  1  0
 21 20  1  0
 22 21  1  0
 24 23  1  6
 23 22  1  0
 24 25  1  0
 24 26  1  0
 26 28  1  0
 27 26  2  0
M  END
$$$$
