RDM.pdb
     RDKit          3D

 28 27  0  0  1  0  0  0  0  0999 V2000
    8.5901  -12.3365   20.2685 N   0  0  0  0  0  0  0  0  0  0  0  0
    7.8002  -12.7596   19.1655 C   0  0  0  0  0  0  0  0  0  0  0  0
    8.1211  -12.2813   18.0111 N   0  0  0  0  0  0  0  0  0  0  0  0
    6.7120  -13.6592   19.3063 N   0  0  0  0  0  0  0  0  0  0  0  0
    6.4423  -14.2388   20.6380 C   0  0  0  0  0  0  0  0  0  0  0  0
    6.8604  -15.6824   20.6008 C   0  0  0  0  0  0  0  0  0  0  0  0
    7.9911  -16.0174   21.5091 C   0  0  0  0  0  0  0  0  0  0  0  0
    8.3698  -17.4697   21.5555 C   0  0  2  0  0  0  0  0  0  0  0  0
    7.2669  -18.3305   21.8972 N   0  0  0  0  0  0  0  0  0  0  0  0
    9.4679  -17.7222   22.5225 C   0  0  0  0  0  0  0  0  0  0  0  0
    9.3501  -18.6011   23.3788 O   0  0  0  0  0  0  0  0  0  0  0  0
    7.5526  -12.3572   17.1473 N   0  0  0  0  0  0  0  0  0  0  0  0
   10.6857  -16.9830   22.5141 C   0  0  2  0  0  0  0  0  0  0  0  0
   11.7435  -17.1918   23.4388 C   0  0  0  0  0  0  0  0  0  0  0  0
   13.0976  -16.7576   23.0043 C   0  0  0  0  0  0  0  0  0  0  0  0
   13.6147  -17.6516   21.9688 O   0  0  0  0  0  0  0  0  0  0  0  0
   13.0617  -18.7798   21.7413 C   0  0  0  0  0  0  0  0  0  0  0  0
   11.3704  -16.5480   24.7235 O   0  0  0  0  0  0  0  0  0  0  0  0
   12.0430  -16.7185   25.7750 O   0  0  0  0  0  0  0  0  0  0  0  0
   14.7126  -17.3613   21.1730 C   0  0  0  0  0  0  0  0  0  0  0  0
    6.9762  -11.4045   25.3562 S   0  0  0  0  0  0  0  0  0  0  0  0
    7.8956  -11.7618   26.9027 C   0  0  0  0  0  0  0  0  0  0  0  0
    8.0715  -13.5498   27.0397 C   0  0  0  0  0  0  0  0  0  0  0  0
    8.7218  -14.1272   25.8292 C   0  0  1  0  0  0  0  0  0  0  0  0
    9.7776  -15.1457   26.1113 N   0  0  0  0  0  0  0  0  0  0  0  0
   10.2323  -15.7020   24.8393 C   0  0  0  0  0  0  0  0  0  0  0  0
    9.3273  -16.2692   26.9559 O   0  0  0  0  0  0  0  0  0  0  0  0
    8.8677  -17.3256   26.4698 O   0  0  0  0  0  0  0  0  0  0  0  0
  2  1  1  0
  3  2  2  0
  4  5  1  0
  4  2  1  0
  6  5  1  0
  7  6  1  0
  8  9  1  1
  8  7  1  0
 10  8  1  0
 11 10  2  0
 12 10  1  0
 13 12  1  0
 13 14  1  6
 15 14  1  0
 16 15  2  0
 17 13  1  0
 17 25  1  0
 18 17  2  0
 19 15  1  0
 21 20  1  0
 22 21  1  0
 24 23  1  6
 23 22  1  0
 24 25  1  0
 24 26  1  0
 26 28  1  0
 27 26  2  0
M  END
$$$$
