RDM.pdb
     RDKit          3D

 28 27  0  0  1  0  0  0  0  0999 V2000
    9.9577  -12.9262   20.3042 N   0  0  0  0  0  0  0  0  0  0  0  0
    8.6776  -12.3977   19.9853 C   0  0  0  0  0  0  0  0  0  0  0  0
    8.2758  -11.3969   20.6934 N   0  0  0  0  0  0  0  0  0  0  0  0
    7.8691  -12.9291   18.9474 N   0  0  0  0  0  0  0  0  0  0  0  0
    8.3533  -14.1152   18.2118 C   0  0  0  0  0  0  0  0  0  0  0  0
    8.1184  -15.3189   19.0815 C   0  0  0  0  0  0  0  0  0  0  0  0
    8.4295  -16.6190   18.4268 C   0  0  0  0  0  0  0  0  0  0  0  0
    8.1374  -17.8398   19.2507 C   0  0  2  0  0  0  0  0  0  0  0  0
    6.7396  -18.1863   19.2715 N   0  0  0  0  0  0  0  0  0  0  0  0
    8.5929  -17.6789   20.6548 C   0  0  0  0  0  0  0  0  0  0  0  0
    7.7847  -17.3893   21.5394 O   0  0  0  0  0  0  0  0  0  0  0  0
    7.3479  -10.9400   20.6204 N   0  0  0  0  0  0  0  0  0  0  0  0
    9.9522  -17.8465   21.0467 C   0  0  1  0  0  0  0  0  0  0  0  0
   10.3671  -18.0645   22.3876 C   0  0  0  0  0  0  0  0  0  0  0  0
   11.7131  -18.6683   22.5738 C   0  0  0  0  0  0  0  0  0  0  0  0
   11.7489  -19.4743   23.7937 O   0  0  0  0  0  0  0  0  0  0  0  0
   10.7406  -19.5249   24.5753 C   0  0  0  0  0  0  0  0  0  0  0  0
   10.2602  -16.7782   23.1213 O   0  0  0  0  0  0  0  0  0  0  0  0
   11.0087  -15.7985   22.8622 O   0  0  0  0  0  0  0  0  0  0  0  0
   12.8434  -20.2263   24.1928 C   0  0  0  0  0  0  0  0  0  0  0  0
    6.0294  -11.5342   26.9929 S   0  0  0  0  0  0  0  0  0  0  0  0
    6.1451  -12.9220   25.7991 C   0  0  0  0  0  0  0  0  0  0  0  0
    7.7947  -13.6334   25.9377 C   0  0  0  0  0  0  0  0  0  0  0  0
    7.9890  -14.7502   24.9698 C   0  0  1  0  0  0  0  0  0  0  0  0
    9.3223  -15.4195   25.0457 N   0  0  0  0  0  0  0  0  0  0  0  0
    9.3063  -16.5797   24.1580 C   0  0  0  0  0  0  0  0  0  0  0  0
    9.6880  -15.8932   26.3949 O   0  0  0  0  0  0  0  0  0  0  0  0
    9.4793  -17.0684   26.7677 O   0  0  0  0  0  0  0  0  0  0  0  0
  2  1  1  0
  3  2  2  0
  4  5  1  0
  4  2  1  0
  6  5  1  0
  7  6  1  0
  8  9  1  1
  8  7  1  0
 10  8  1  0
 11 10  2  0
 12 10  1  0
 13 12  1  0
 13 14  1  6
 15 14  1  0
 16 15  2  0
 17 13  1  0
 17 25  1  0
 18 17  2  0
 19 15  1  0
 21 20  1  0
 22 21  1  0
 24 23  1  6
 23 22  1  0
 24 25  1  0
 24 26  1  0
 26 28  1  0
 27 26  2  0
M  END
$$$$
