RDM.pdb
     RDKit          3D

 28 27  0  0  1  0  0  0  0  0999 V2000
    4.8814  -19.6160   17.1462 N   0  0  0  0  0  0  0  0  0  0  0  0
    4.8264  -21.0123   17.4046 C   0  0  0  0  0  0  0  0  0  0  0  0
    4.5197  -21.7703   16.4067 N   0  0  0  0  0  0  0  0  0  0  0  0
    5.0906  -21.5628   18.6854 N   0  0  0  0  0  0  0  0  0  0  0  0
    5.0092  -20.6776   19.8652 C   0  0  0  0  0  0  0  0  0  0  0  0
    5.9353  -19.5169   19.6299 C   0  0  0  0  0  0  0  0  0  0  0  0
    6.9929  -19.3560   20.6648 C   0  0  0  0  0  0  0  0  0  0  0  0
    7.4106  -17.9408   20.9426 C   0  0  2  0  0  0  0  0  0  0  0  0
    7.7774  -17.2161   19.7533 N   0  0  0  0  0  0  0  0  0  0  0  0
    8.5523  -17.8790   21.8900 C   0  0  0  0  0  0  0  0  0  0  0  0
    8.4807  -18.4412   22.9847 O   0  0  0  0  0  0  0  0  0  0  0  0
    4.4682  -22.8056   16.4288 N   0  0  0  0  0  0  0  0  0  0  0  0
    9.7610  -17.1856   21.5940 C   0  0  1  0  0  0  0  0  0  0  0  0
   10.8706  -17.1183   22.4783 C   0  0  0  0  0  0  0  0  0  0  0  0
   12.1855  -16.7907   21.8663 C   0  0  0  0  0  0  0  0  0  0  0  0
   12.5935  -17.8420   20.9350 O   0  0  0  0  0  0  0  0  0  0  0  0
   12.2894  -19.0631   21.1513 C   0  0  0  0  0  0  0  0  0  0  0  0
   10.5411  -16.1608   23.5640 O   0  0  0  0  0  0  0  0  0  0  0  0
   10.5572  -14.9143   23.3815 O   0  0  0  0  0  0  0  0  0  0  0  0
   13.3212  -17.6111   19.7774 C   0  0  0  0  0  0  0  0  0  0  0  0
    7.2244  -11.1472   27.2739 S   0  0  0  0  0  0  0  0  0  0  0  0
    7.5680  -12.3392   25.9227 C   0  0  0  0  0  0  0  0  0  0  0  0
    8.6309  -13.6342   26.5860 C   0  0  0  0  0  0  0  0  0  0  0  0
    9.0482  -14.5931   25.5239 C   0  0  1  0  0  0  0  0  0  0  0  0
    9.9641  -15.6791   25.9857 N   0  0  0  0  0  0  0  0  0  0  0  0
   10.1885  -16.5971   24.8715 C   0  0  0  0  0  0  0  0  0  0  0  0
    9.4458  -16.4693   27.1194 O   0  0  0  0  0  0  0  0  0  0  0  0
    8.9519  -17.6079   26.9673 O   0  0  0  0  0  0  0  0  0  0  0  0
  2  1  1  0
  3  2  2  0
  4  5  1  0
  4  2  1  0
  6  5  1  0
  7  6  1  0
  8  9  1  6
  8  7  1  0
 10  8  1  0
 11 10  2  0
 12 10  1  0
 13 12  1  0
 13 14  1  1
 15 14  1  0
 16 15  2  0
 17 13  1  0
 17 25  1  0
 18 17  2  0
 19 15  1  0
 21 20  1  0
 22 21  1  0
 24 23  1  6
 23 22  1  0
 24 25  1  0
 24 26  1  0
 26 28  1  0
 27 26  2  0
M  END
$$$$
