RDM.pdb
     RDKit          3D

 28 27  0  0  1  0  0  0  0  0999 V2000
    9.2822  -15.3440   15.4943 N   0  0  0  0  0  0  0  0  0  0  0  0
    8.1312  -14.6704   15.0034 C   0  0  0  0  0  0  0  0  0  0  0  0
    7.6173  -15.1298   13.9128 N   0  0  0  0  0  0  0  0  0  0  0  0
    7.5629  -13.5500   15.6629 N   0  0  0  0  0  0  0  0  0  0  0  0
    8.2141  -13.0474   16.8899 C   0  0  0  0  0  0  0  0  0  0  0  0
    8.2519  -14.1765   17.8819 C   0  0  0  0  0  0  0  0  0  0  0  0
    7.9013  -13.7824   19.2738 C   0  0  0  0  0  0  0  0  0  0  0  0
    9.0562  -13.7057   20.2304 C   0  0  2  0  0  0  0  0  0  0  0  0
   10.3312  -13.9171   19.5949 N   0  0  0  0  0  0  0  0  0  0  0  0
    8.9234  -14.6894   21.3347 C   0  0  0  0  0  0  0  0  0  0  0  0
    7.8822  -14.7467   21.9922 O   0  0  0  0  0  0  0  0  0  0  0  0
    6.7864  -14.7434   13.4277 N   0  0  0  0  0  0  0  0  0  0  0  0
    9.9636  -15.5973   21.6856 C   0  0  1  0  0  0  0  0  0  0  0  0
    9.8502  -16.5697   22.7148 C   0  0  0  0  0  0  0  0  0  0  0  0
   10.8508  -17.6695   22.6991 C   0  0  0  0  0  0  0  0  0  0  0  0
   10.6474  -18.5307   21.5346 O   0  0  0  0  0  0  0  0  0  0  0  0
    9.5966  -18.4249   20.8171 C   0  0  0  0  0  0  0  0  0  0  0  0
    9.8615  -15.8653   24.0217 O   0  0  0  0  0  0  0  0  0  0  0  0
   10.7727  -15.0531   24.3337 O   0  0  0  0  0  0  0  0  0  0  0  0
   11.5469  -19.5031   21.1244 C   0  0  0  0  0  0  0  0  0  0  0  0
    6.1716  -11.5497   27.3334 S   0  0  0  0  0  0  0  0  0  0  0  0
    6.1271  -12.3467   25.6819 C   0  0  0  0  0  0  0  0  0  0  0  0
    7.6318  -13.3208   25.4983 C   0  0  0  0  0  0  0  0  0  0  0  0
    7.6003  -14.5383   26.3575 C   0  0  2  0  0  0  0  0  0  0  0  0
    8.8283  -15.3860   26.2871 N   0  0  0  0  0  0  0  0  0  0  0  0
    8.8438  -16.0678   24.9951 C   0  0  0  0  0  0  0  0  0  0  0  0
    8.9148  -16.4180   27.3388 O   0  0  0  0  0  0  0  0  0  0  0  0
    9.0413  -16.1275   28.5484 O   0  0  0  0  0  0  0  0  0  0  0  0
  2  1  1  0
  3  2  2  0
  4  5  1  0
  4  2  1  0
  6  5  1  0
  7  6  1  0
  8  9  1  6
  8  7  1  0
 10  8  1  0
 11 10  2  0
 12 10  1  0
 13 12  1  0
 13 14  1  1
 15 14  1  0
 16 15  2  0
 17 13  1  0
 17 25  1  0
 18 17  2  0
 19 15  1  0
 21 20  1  0
 22 21  1  0
 24 23  1  6
 23 22  1  0
 24 25  1  0
 24 26  1  0
 26 28  1  0
 27 26  2  0
M  END
$$$$
