RDM.pdb
     RDKit          3D

 28 27  0  0  1  0  0  0  0  0999 V2000
    9.1754  -13.5514   17.8605 N   0  0  0  0  0  0  0  0  0  0  0  0
    8.4531  -13.0823   18.9908 C   0  0  0  0  0  0  0  0  0  0  0  0
    8.9732  -12.0936   19.6360 N   0  0  0  0  0  0  0  0  0  0  0  0
    7.2238  -13.6580   19.4041 N   0  0  0  0  0  0  0  0  0  0  0  0
    6.9960  -13.8766   20.8472 C   0  0  0  0  0  0  0  0  0  0  0  0
    7.5740  -15.2182   21.2025 C   0  0  0  0  0  0  0  0  0  0  0  0
    6.6224  -16.1339   21.8891 C   0  0  0  0  0  0  0  0  0  0  0  0
    7.2012  -17.4455   22.3356 C   0  0  2  0  0  0  0  0  0  0  0  0
    6.2213  -18.3274   22.9156 N   0  0  0  0  0  0  0  0  0  0  0  0
    8.2939  -17.2580   23.3233 C   0  0  0  0  0  0  0  0  0  0  0  0
    8.0388  -17.2092   24.5283 O   0  0  0  0  0  0  0  0  0  0  0  0
    8.6041  -11.6855   20.5148 N   0  0  0  0  0  0  0  0  0  0  0  0
    9.6607  -17.1283   22.9432 C   0  0  2  0  0  0  0  0  0  0  0  0
   10.7417  -17.1377   23.8646 C   0  0  0  0  0  0  0  0  0  0  0  0
   12.1087  -17.1751   23.2805 C   0  0  0  0  0  0  0  0  0  0  0  0
   12.2901  -18.3841   22.4777 O   0  0  0  0  0  0  0  0  0  0  0  0
   11.8970  -19.5206   22.9068 C   0  0  0  0  0  0  0  0  0  0  0  0
   10.5878  -15.9729   24.7722 O   0  0  0  0  0  0  0  0  0  0  0  0
   10.4157  -14.8043   24.3341 O   0  0  0  0  0  0  0  0  0  0  0  0
   12.8847  -18.3996   21.2251 C   0  0  0  0  0  0  0  0  0  0  0  0
    6.4326  -12.0863   26.3536 S   0  0  0  0  0  0  0  0  0  0  0  0
    6.8426  -13.1557   27.7863 C   0  0  0  0  0  0  0  0  0  0  0  0
    8.6308  -13.3754   27.8174 C   0  0  0  0  0  0  0  0  0  0  0  0
    9.0694  -14.4091   26.8373 C   0  0  1  0  0  0  0  0  0  0  0  0
   10.4183  -14.9927   27.1045 N   0  0  0  0  0  0  0  0  0  0  0  0
   10.6259  -16.1111   26.1877 C   0  0  0  0  0  0  0  0  0  0  0  0
   10.5988  -15.5007   28.4785 O   0  0  0  0  0  0  0  0  0  0  0  0
   10.6778  -16.7226   28.7320 O   0  0  0  0  0  0  0  0  0  0  0  0
  2  1  1  0
  3  2  2  0
  4  5  1  0
  4  2  1  0
  6  5  1  0
  7  6  1  0
  8  9  1  1
  8  7  1  0
 10  8  1  0
 11 10  2  0
 12 10  1  0
 13 12  1  0
 13 14  1  6
 15 14  1  0
 16 15  2  0
 17 13  1  0
 17 25  1  0
 18 17  2  0
 19 15  1  0
 21 20  1  0
 22 21  1  0
 24 23  1  6
 23 22  1  0
 24 25  1  0
 24 26  1  0
 26 28  1  0
 27 26  2  0
M  END
$$$$
