SMV.pdb
     RDKit          3D

 22 21  0  0  1  0  0  0  0  0999 V2000
   26.6287  -19.1684  -15.0968 O   0  0  0  0  0  0  0  0  0  0  0  0
   27.9032  -19.2668  -14.5549 C   0  0  0  0  0  0  0  0  0  0  0  0
   28.1371  -20.6847  -14.0731 C   0  0  2  0  0  0  0  0  0  0  0  0
   28.0121  -21.5642  -15.1972 N   0  0  0  0  0  0  0  0  0  0  0  0
   27.2109  -21.0767  -13.0058 C   0  0  0  0  0  0  0  0  0  0  0  0
   26.2472  -21.8655  -13.1798 O   0  0  0  0  0  0  0  0  0  0  0  0
   26.1270  -20.2212   -5.1656 C   0  0  0  0  0  0  0  0  0  0  0  0
   27.0029  -19.8160   -6.6762 S   0  0  0  0  0  0  0  0  0  0  0  0
   26.1998  -20.5264   -8.1441 C   0  0  0  0  0  0  0  0  0  0  0  0
   27.0172  -20.1984   -9.3469 C   0  0  0  0  0  0  0  0  0  0  0  0
   26.4455  -20.8011  -10.6132 C   0  0  2  0  0  0  0  0  0  0  0  0
   27.3672  -20.5634  -11.6789 N   0  0  0  0  0  0  0  0  0  0  0  0
   25.0930  -20.2986  -10.8749 C   0  0  0  0  0  0  0  0  0  0  0  0
   24.9069  -19.0589  -10.9707 O   0  0  0  0  0  0  0  0  0  0  0  0
   20.9911  -20.7267  -13.3450 C   0  0  0  0  0  0  0  0  0  0  0  0
   22.2826  -21.3013  -12.8128 C   0  0  2  0  0  0  0  0  0  0  0  0
   22.0979  -22.7781  -12.5020 C   0  0  0  0  0  0  0  0  0  0  0  0
   22.7062  -20.6267  -11.5233 C   0  0  2  0  0  0  0  0  0  0  0  0
   23.9594  -21.1367  -11.0301 N   0  0  0  0  0  0  0  0  0  0  0  0
   21.6024  -20.8259  -10.5472 C   0  0  0  0  0  0  0  0  0  0  0  0
   21.7780  -21.5891   -9.5551 O   0  0  0  0  0  0  0  0  0  0  0  0
   20.3763  -20.2174  -10.6605 O   0  0  0  0  0  0  0  0  0  0  0  0
  1  2  1  0
  3  4  1  6
  3  5  1  0
  3  2  1  0
  5  6  2  0
  7  8  1  0
  8  9  1  0
  9 10  1  0
 11 10  1  1
 11 13  1  0
 12  5  1  0
 12 11  1  0
 13 19  1  0
 13 14  2  0
 16 18  1  0
 16 15  1  1
 17 16  1  0
 18 20  1  0
 18 19  1  1
 20 22  1  0
 21 20  2  0
M  END
$$$$
