SMV.pdb
     RDKit          3D

 22 21  0  0  1  0  0  0  0  0999 V2000
   25.8179  -22.8512  -14.9602 O   0  0  0  0  0  0  0  0  0  0  0  0
   25.3956  -22.8057  -16.2820 C   0  0  0  0  0  0  0  0  0  0  0  0
   25.4737  -21.3787  -16.7866 C   0  0  2  0  0  0  0  0  0  0  0  0
   26.8474  -20.9725  -16.7654 N   0  0  0  0  0  0  0  0  0  0  0  0
   24.6507  -20.4566  -15.9970 C   0  0  0  0  0  0  0  0  0  0  0  0
   25.1070  -19.7444  -15.0665 O   0  0  0  0  0  0  0  0  0  0  0  0
   18.7621  -18.7061  -18.1319 C   0  0  0  0  0  0  0  0  0  0  0  0
   19.1153  -17.4492  -16.9034 S   0  0  0  0  0  0  0  0  0  0  0  0
   20.4043  -17.9772  -15.7356 C   0  0  0  0  0  0  0  0  0  0  0  0
   21.3144  -18.9366  -16.4238 C   0  0  0  0  0  0  0  0  0  0  0  0
   22.3662  -19.5015  -15.4920 C   0  0  2  0  0  0  0  0  0  0  0  0
   23.2499  -20.3223  -16.2582 N   0  0  0  0  0  0  0  0  0  0  0  0
   21.7501  -20.1928  -14.3550 C   0  0  0  0  0  0  0  0  0  0  0  0
   21.3342  -21.3699  -14.5047 O   0  0  0  0  0  0  0  0  0  0  0  0
   22.8033  -19.9811  -10.3524 C   0  0  0  0  0  0  0  0  0  0  0  0
   21.3355  -19.7689  -10.6383 C   0  0  2  0  0  0  0  0  0  0  0  0
   20.4993  -20.5067   -9.6049 C   0  0  0  0  0  0  0  0  0  0  0  0
   20.9448  -20.3157  -11.9968 C   0  0  2  0  0  0  0  0  0  0  0  0
   21.5899  -19.6084  -13.0727 N   0  0  0  0  0  0  0  0  0  0  0  0
   19.4630  -20.2331  -12.0872 C   0  0  0  0  0  0  0  0  0  0  0  0
   18.9256  -19.2050  -12.5891 O   0  0  0  0  0  0  0  0  0  0  0  0
   18.6238  -21.2282  -11.6489 O   0  0  0  0  0  0  0  0  0  0  0  0
  1  2  1  0
  3  4  1  1
  3  5  1  0
  3  2  1  0
  5  6  2  0
  7  8  1  0
  8  9  1  0
  9 10  1  0
 11 10  1  6
 11 13  1  0
 12  5  1  0
 12 11  1  0
 13 19  1  0
 13 14  2  0
 16 18  1  0
 16 15  1  1
 17 16  1  0
 18 20  1  0
 18 19  1  6
 20 22  1  0
 21 20  2  0
M  END
$$$$
