SMV.pdb
     RDKit          3D

 22 21  0  0  1  0  0  0  0  0999 V2000
   28.6349  -18.3066  -15.9330 O   0  0  0  0  0  0  0  0  0  0  0  0
   27.6202  -19.1274  -15.4595 C   0  0  0  0  0  0  0  0  0  0  0  0
   28.2274  -20.3562  -14.8126 C   0  0  2  0  0  0  0  0  0  0  0  0
   28.7133  -21.2139  -15.8523 N   0  0  0  0  0  0  0  0  0  0  0  0
   27.2744  -21.0711  -13.9573 C   0  0  0  0  0  0  0  0  0  0  0  0
   26.4881  -21.9548  -14.3841 O   0  0  0  0  0  0  0  0  0  0  0  0
   27.0099  -19.2669   -7.6878 C   0  0  0  0  0  0  0  0  0  0  0  0
   25.8020  -20.5914   -7.6816 S   0  0  0  0  0  0  0  0  0  0  0  0
   25.2991  -21.0665   -9.3626 C   0  0  0  0  0  0  0  0  0  0  0  0
   26.3874  -20.6996  -10.3130 C   0  0  0  0  0  0  0  0  0  0  0  0
   26.0658  -21.0986  -11.7381 C   0  0  2  0  0  0  0  0  0  0  0  0
   27.1943  -20.7862  -12.5569 N   0  0  0  0  0  0  0  0  0  0  0  0
   24.8149  -20.4819  -12.1911 C   0  0  0  0  0  0  0  0  0  0  0  0
   24.7474  -19.2301  -12.2870 O   0  0  0  0  0  0  0  0  0  0  0  0
   21.8248  -22.6185  -14.3433 C   0  0  0  0  0  0  0  0  0  0  0  0
   22.0644  -21.1283  -14.4008 C   0  0  2  0  0  0  0  0  0  0  0  0
   23.1985  -20.8276  -15.3677 C   0  0  0  0  0  0  0  0  0  0  0  0
   22.4745  -20.5746  -13.0507 C   0  0  2  0  0  0  0  0  0  0  0  0
   23.6537  -21.2204  -12.5346 N   0  0  0  0  0  0  0  0  0  0  0  0
   21.3085  -20.7389  -12.1428 C   0  0  0  0  0  0  0  0  0  0  0  0
   20.2447  -20.0960  -12.3721 O   0  0  0  0  0  0  0  0  0  0  0  0
   21.3173  -21.5652  -11.0457 O   0  0  0  0  0  0  0  0  0  0  0  0
  1  2  1  0
  3  4  1  6
  3  5  1  0
  3  2  1  0
  5  6  2  0
  7  8  1  0
  8  9  1  0
  9 10  1  0
 11 10  1  1
 11 13  1  0
 12  5  1  0
 12 11  1  0
 13 19  1  0
 13 14  2  0
 16 18  1  0
 16 15  1  1
 17 16  1  0
 18 20  1  0
 18 19  1  1
 20 22  1  0
 21 20  2  0
M  END
$$$$
