SMV.pdb
     RDKit          3D

 22 21  0  0  1  0  0  0  0  0999 V2000
   19.8328  -23.3291  -10.3897 O   0  0  0  0  0  0  0  0  0  0  0  0
   21.0320  -22.6504  -10.5595 C   0  0  0  0  0  0  0  0  0  0  0  0
   21.1257  -21.5315   -9.5414 C   0  0  2  0  0  0  0  0  0  0  0  0
   19.9312  -20.7455   -9.6310 N   0  0  0  0  0  0  0  0  0  0  0  0
   22.3120  -20.6914   -9.7357 C   0  0  0  0  0  0  0  0  0  0  0  0
   22.3102  -19.6387  -10.4235 O   0  0  0  0  0  0  0  0  0  0  0  0
   26.9240  -19.6158   -5.5432 C   0  0  0  0  0  0  0  0  0  0  0  0
   27.9868  -19.8516   -6.9674 S   0  0  0  0  0  0  0  0  0  0  0  0
   27.0482  -19.8809   -8.5238 C   0  0  0  0  0  0  0  0  0  0  0  0
   25.7332  -20.5398   -8.2813 C   0  0  0  0  0  0  0  0  0  0  0  0
   24.8148  -20.4513   -9.4823 C   0  0  2  0  0  0  0  0  0  0  0  0
   23.5619  -21.0429   -9.1334 N   0  0  0  0  0  0  0  0  0  0  0  0
   25.4392  -21.0410  -10.6708 C   0  0  0  0  0  0  0  0  0  0  0  0
   25.5898  -22.2878  -10.7302 O   0  0  0  0  0  0  0  0  0  0  0  0
   26.3000  -20.9117  -15.4906 C   0  0  0  0  0  0  0  0  0  0  0  0
   25.8433  -20.2150  -14.2307 C   0  0  2  0  0  0  0  0  0  0  0  0
   26.3892  -18.7963  -14.2019 C   0  0  0  0  0  0  0  0  0  0  0  0
   26.3572  -20.9129  -12.9872 C   0  0  2  0  0  0  0  0  0  0  0  0
   25.8931  -20.2812  -11.7792 N   0  0  0  0  0  0  0  0  0  0  0  0
   27.8415  -20.9192  -13.0761 C   0  0  0  0  0  0  0  0  0  0  0  0
   28.5116  -20.1159  -12.3666 O   0  0  0  0  0  0  0  0  0  0  0  0
   28.5443  -21.7635  -13.9005 O   0  0  0  0  0  0  0  0  0  0  0  0
  1  2  1  0
  3  4  1  6
  3  5  1  0
  3  2  1  0
  5  6  2  0
  7  8  1  0
  8  9  1  0
  9 10  1  0
 11 10  1  1
 11 13  1  0
 12  5  1  0
 12 11  1  0
 13 19  1  0
 13 14  2  0
 16 18  1  0
 16 15  1  6
 17 16  1  0
 18 20  1  0
 18 19  1  1
 20 22  1  0
 21 20  2  0
M  END
$$$$
