SMV.pdb
     RDKit          3D

 22 21  0  0  1  0  0  0  0  0999 V2000
   27.1908  -19.1069  -16.2995 O   0  0  0  0  0  0  0  0  0  0  0  0
   28.0607  -19.2062  -15.2220 C   0  0  0  0  0  0  0  0  0  0  0  0
   28.1409  -20.6511  -14.7713 C   0  0  2  0  0  0  0  0  0  0  0  0
   28.4637  -21.4568  -15.9112 N   0  0  0  0  0  0  0  0  0  0  0  0
   26.8981  -21.1157  -14.1464 C   0  0  0  0  0  0  0  0  0  0  0  0
   26.1165  -21.9391  -14.6872 O   0  0  0  0  0  0  0  0  0  0  0  0
   25.4204  -20.3264   -7.2517 C   0  0  0  0  0  0  0  0  0  0  0  0
   26.7196  -20.1761   -8.4777 S   0  0  0  0  0  0  0  0  0  0  0  0
   26.3802  -21.1726   -9.9596 C   0  0  0  0  0  0  0  0  0  0  0  0
   25.3434  -20.4815  -10.7779 C   0  0  0  0  0  0  0  0  0  0  0  0
   25.2911  -21.0015  -12.1994 C   0  0  2  0  0  0  0  0  0  0  0  0
   26.5077  -20.6382  -12.8549 N   0  0  0  0  0  0  0  0  0  0  0  0
   24.0835  -20.5366  -12.8892 C   0  0  0  0  0  0  0  0  0  0  0  0
   24.0270  -19.3473  -13.2931 O   0  0  0  0  0  0  0  0  0  0  0  0
   21.2360  -23.1450  -14.7209 C   0  0  0  0  0  0  0  0  0  0  0  0
   21.4997  -21.7020  -15.0806 C   0  0  2  0  0  0  0  0  0  0  0  0
   22.7127  -21.6138  -15.9931 C   0  0  0  0  0  0  0  0  0  0  0  0
   21.8063  -20.8662  -13.8539 C   0  0  2  0  0  0  0  0  0  0  0  0
   22.9534  -21.3576  -13.1350 N   0  0  0  0  0  0  0  0  0  0  0  0
   20.5808  -20.8668  -13.0119 C   0  0  0  0  0  0  0  0  0  0  0  0
   20.5871  -21.4726  -11.9026 O   0  0  0  0  0  0  0  0  0  0  0  0
   19.4163  -20.2349  -13.3742 O   0  0  0  0  0  0  0  0  0  0  0  0
  1  2  1  0
  3  4  1  6
  3  5  1  0
  3  2  1  0
  5  6  2  0
  7  8  1  0
  8  9  1  0
  9 10  1  0
 11 10  1  1
 11 13  1  0
 12  5  1  0
 12 11  1  0
 13 19  1  0
 13 14  2  0
 16 18  1  0
 16 15  1  1
 17 16  1  0
 18 20  1  0
 18 19  1  1
 20 22  1  0
 21 20  2  0
M  END
$$$$
