SMV.pdb
     RDKit          3D

 22 21  0  0  1  0  0  0  0  0999 V2000
   25.4038   -9.6970  -21.4901 O   0  0  0  0  0  0  0  0  0  0  0  0
   24.3660   -9.0086  -20.8763 C   0  0  0  0  0  0  0  0  0  0  0  0
   23.4982   -9.9860  -20.1089 C   0  0  2  0  0  0  0  0  0  0  0  0
   22.8216  -10.8211  -21.0562 N   0  0  0  0  0  0  0  0  0  0  0  0
   22.5336   -9.3140  -19.2321 C   0  0  0  0  0  0  0  0  0  0  0  0
   21.5537   -8.6516  -19.6590 O   0  0  0  0  0  0  0  0  0  0  0  0
   17.8836  -10.8254  -15.2309 C   0  0  0  0  0  0  0  0  0  0  0  0
   19.3322  -11.7999  -15.6373 S   0  0  0  0  0  0  0  0  0  0  0  0
   20.4529  -10.9211  -16.7669 C   0  0  0  0  0  0  0  0  0  0  0  0
   21.2008   -9.8872  -15.9962 C   0  0  0  0  0  0  0  0  0  0  0  0
   21.7521   -8.7927  -16.8861 C   0  0  2  0  0  0  0  0  0  0  0  0
   22.6687   -9.3841  -17.8089 N   0  0  0  0  0  0  0  0  0  0  0  0
   22.3296   -7.7044  -16.0908 C   0  0  0  0  0  0  0  0  0  0  0  0
   23.4911   -7.8329  -15.6269 O   0  0  0  0  0  0  0  0  0  0  0  0
   20.3391   -3.9003  -15.6352 C   0  0  0  0  0  0  0  0  0  0  0  0
   21.8333   -4.0468  -15.7994 C   0  0  2  0  0  0  0  0  0  0  0  0
   22.1911   -4.0343  -17.2770 C   0  0  0  0  0  0  0  0  0  0  0  0
   22.3326   -5.3613  -15.2337 C   0  0  2  0  0  0  0  0  0  0  0  0
   21.6496   -6.4928  -15.8057 N   0  0  0  0  0  0  0  0  0  0  0  0
   22.1561   -5.2931  -13.7588 C   0  0  0  0  0  0  0  0  0  0  0  0
   21.2708   -6.0043  -13.2036 O   0  0  0  0  0  0  0  0  0  0  0  0
   22.9134   -4.4866  -12.9449 O   0  0  0  0  0  0  0  0  0  0  0  0
  1  2  1  0
  3  4  1  6
  3  5  1  0
  3  2  1  0
  5  6  2  0
  7  8  1  0
  8  9  1  0
  9 10  1  0
 11 10  1  1
 11 13  1  0
 12  5  1  0
 12 11  1  0
 13 19  1  0
 13 14  2  0
 16 18  1  0
 16 15  1  6
 17 16  1  0
 18 20  1  0
 18 19  1  6
 20 22  1  0
 21 20  2  0
M  END
$$$$
