SMV.pdb
     RDKit          3D

 22 21  0  0  1  0  0  0  0  0999 V2000
   17.1931  -11.6705  -11.9503 O   0  0  0  0  0  0  0  0  0  0  0  0
   15.8068  -11.6805  -11.8748 C   0  0  0  0  0  0  0  0  0  0  0  0
   15.3530  -10.6896  -10.8215 C   0  0  2  0  0  0  0  0  0  0  0  0
   13.9319  -10.8068  -10.6814 N   0  0  0  0  0  0  0  0  0  0  0  0
   15.7272   -9.3098  -11.1482 C   0  0  0  0  0  0  0  0  0  0  0  0
   15.2174   -8.6597  -12.0963 O   0  0  0  0  0  0  0  0  0  0  0  0
   16.7791   -2.3980   -8.0462 C   0  0  0  0  0  0  0  0  0  0  0  0
   16.3107   -4.1284   -8.0533 S   0  0  0  0  0  0  0  0  0  0  0  0
   16.9681   -5.0091   -9.5012 C   0  0  0  0  0  0  0  0  0  0  0  0
   16.5947   -6.4488   -9.4000 C   0  0  0  0  0  0  0  0  0  0  0  0
   17.0863   -7.2554  -10.5838 C   0  0  2  0  0  0  0  0  0  0  0  0
   16.7189   -8.6210  -10.3796 N   0  0  0  0  0  0  0  0  0  0  0  0
   18.5221   -7.0533  -10.8026 C   0  0  0  0  0  0  0  0  0  0  0  0
   19.3363   -7.4336   -9.9232 O   0  0  0  0  0  0  0  0  0  0  0  0
   20.1900   -6.5722  -14.6629 C   0  0  0  0  0  0  0  0  0  0  0  0
   20.9068   -7.1001  -13.4428 C   0  0  2  0  0  0  0  0  0  0  0  0
   20.5641   -8.5675  -13.2408 C   0  0  0  0  0  0  0  0  0  0  0  0
   20.4834   -6.3688  -12.1845 C   0  0  2  0  0  0  0  0  0  0  0  0
   19.0623   -6.4451  -11.9644 N   0  0  0  0  0  0  0  0  0  0  0  0
   20.9498   -4.9637  -12.3223 C   0  0  0  0  0  0  0  0  0  0  0  0
   20.1032   -4.0391  -12.4833 O   0  0  0  0  0  0  0  0  0  0  0  0
   22.2741   -4.6012  -12.2844 O   0  0  0  0  0  0  0  0  0  0  0  0
  1  2  1  0
  3  4  1  6
  3  5  1  0
  3  2  1  0
  5  6  2  0
  7  8  1  0
  8  9  1  0
  9 10  1  0
 11 10  1  1
 11 13  1  0
 12  5  1  0
 12 11  1  0
 13 19  1  0
 13 14  2  0
 16 18  1  0
 16 15  1  6
 17 16  1  0
 18 20  1  0
 18 19  1  6
 20 22  1  0
 21 20  2  0
M  END
$$$$
