SMV.pdb
     RDKit          3D

 22 21  0  0  1  0  0  0  0  0999 V2000
   26.7235  -19.2541  -16.9315 O   0  0  0  0  0  0  0  0  0  0  0  0
   27.9478  -19.2538  -16.2769 C   0  0  0  0  0  0  0  0  0  0  0  0
   28.2404  -20.6467  -15.7558 C   0  0  2  0  0  0  0  0  0  0  0  0
   28.4181  -21.5158  -16.8809 N   0  0  0  0  0  0  0  0  0  0  0  0
   27.1819  -21.1522  -14.8755 C   0  0  0  0  0  0  0  0  0  0  0  0
   26.3276  -22.0016  -15.2362 O   0  0  0  0  0  0  0  0  0  0  0  0
   24.6809  -20.6854   -7.3252 C   0  0  0  0  0  0  0  0  0  0  0  0
   25.8080  -20.2095   -8.6354 S   0  0  0  0  0  0  0  0  0  0  0  0
   25.3355  -20.9257  -10.2379 C   0  0  0  0  0  0  0  0  0  0  0  0
   26.3856  -20.5935  -11.2426 C   0  0  0  0  0  0  0  0  0  0  0  0
   26.0126  -21.0506  -12.6375 C   0  0  2  0  0  0  0  0  0  0  0  0
   27.0708  -20.6874  -13.5264 N   0  0  0  0  0  0  0  0  0  0  0  0
   24.7003  -20.5289  -13.0324 C   0  0  0  0  0  0  0  0  0  0  0  0
   24.5718  -19.2989  -13.2591 O   0  0  0  0  0  0  0  0  0  0  0  0
   20.4195  -21.0513  -15.2965 C   0  0  0  0  0  0  0  0  0  0  0  0
   21.7595  -21.5806  -14.8431 C   0  0  2  0  0  0  0  0  0  0  0  0
   21.6140  -23.0238  -14.3875 C   0  0  0  0  0  0  0  0  0  0  0  0
   22.3016  -20.7965  -13.6647 C   0  0  2  0  0  0  0  0  0  0  0  0
   23.5443  -21.3377  -13.1780 N   0  0  0  0  0  0  0  0  0  0  0  0
   21.2455  -20.8017  -12.6180 C   0  0  0  0  0  0  0  0  0  0  0  0
   20.1868  -20.1351  -12.7977 O   0  0  0  0  0  0  0  0  0  0  0  0
   21.3527  -21.5026  -11.4417 O   0  0  0  0  0  0  0  0  0  0  0  0
  1  2  1  0
  3  4  1  6
  3  5  1  0
  3  2  1  0
  5  6  2  0
  7  8  1  0
  8  9  1  0
  9 10  1  0
 11 10  1  1
 11 13  1  0
 12  5  1  0
 12 11  1  0
 13 19  1  0
 13 14  2  0
 16 18  1  0
 16 15  1  1
 17 16  1  0
 18 20  1  0
 18 19  1  1
 20 22  1  0
 21 20  2  0
M  END
$$$$
