SMV.pdb
     RDKit          3D

 22 21  0  0  1  0  0  0  0  0999 V2000
   26.9747  -20.7287  -18.0292 O   0  0  0  0  0  0  0  0  0  0  0  0
   27.7106  -20.3579  -16.9118 C   0  0  0  0  0  0  0  0  0  0  0  0
   27.8625  -21.5517  -15.9903 C   0  0  2  0  0  0  0  0  0  0  0  0
   28.0773  -22.7149  -16.7988 N   0  0  0  0  0  0  0  0  0  0  0  0
   26.7006  -21.7390  -15.1153 C   0  0  0  0  0  0  0  0  0  0  0  0
   25.8259  -22.6223  -15.3046 O   0  0  0  0  0  0  0  0  0  0  0  0
   25.4763  -22.3256   -9.5999 C   0  0  0  0  0  0  0  0  0  0  0  0
   24.9501  -20.6166   -9.4730 S   0  0  0  0  0  0  0  0  0  0  0  0
   24.3773  -19.9571  -11.0672 C   0  0  0  0  0  0  0  0  0  0  0  0
   25.5228  -19.9398  -12.0211 C   0  0  0  0  0  0  0  0  0  0  0  0
   25.3013  -20.8601  -13.2034 C   0  0  2  0  0  0  0  0  0  0  0  0
   26.5046  -20.8994  -13.9728 N   0  0  0  0  0  0  0  0  0  0  0  0
   24.1183  -20.4594  -13.9717 C   0  0  0  0  0  0  0  0  0  0  0  0
   24.0790  -19.3119  -14.4840 O   0  0  0  0  0  0  0  0  0  0  0  0
   20.9845  -23.1861  -15.2100 C   0  0  0  0  0  0  0  0  0  0  0  0
   21.3614  -21.9007  -15.9076 C   0  0  2  0  0  0  0  0  0  0  0  0
   22.5003  -22.1596  -16.8809 C   0  0  0  0  0  0  0  0  0  0  0  0
   21.8469  -20.8525  -14.9262 C   0  0  2  0  0  0  0  0  0  0  0  0
   22.9939  -21.2988  -14.1784 N   0  0  0  0  0  0  0  0  0  0  0  0
   20.6991  -20.5244  -14.0398 C   0  0  0  0  0  0  0  0  0  0  0  0
   20.7320  -20.8692  -12.8242 O   0  0  0  0  0  0  0  0  0  0  0  0
   19.5804  -19.8543  -14.4710 O   0  0  0  0  0  0  0  0  0  0  0  0
  1  2  1  0
  3  4  1  6
  3  5  1  0
  3  2  1  0
  5  6  2  0
  7  8  1  0
  8  9  1  0
  9 10  1  0
 11 10  1  1
 11 13  1  0
 12  5  1  0
 12 11  1  0
 13 19  1  0
 13 14  2  0
 16 18  1  0
 16 15  1  1
 17 16  1  0
 18 20  1  0
 18 19  1  1
 20 22  1  0
 21 20  2  0
M  END
$$$$
