SMV.pdb
     RDKit          3D

 22 21  0  0  1  0  0  0  0  0999 V2000
   27.0066  -19.1111  -15.9950 O   0  0  0  0  0  0  0  0  0  0  0  0
   28.1339  -19.0757  -15.1853 C   0  0  0  0  0  0  0  0  0  0  0  0
   28.4684  -20.4809  -14.7264 C   0  0  2  0  0  0  0  0  0  0  0  0
   28.7011  -21.2863  -15.8883 N   0  0  0  0  0  0  0  0  0  0  0  0
   27.4125  -21.0679  -13.8949 C   0  0  0  0  0  0  0  0  0  0  0  0
   26.5959  -21.9264  -14.3160 O   0  0  0  0  0  0  0  0  0  0  0  0
   27.4651  -20.2300   -7.4328 C   0  0  0  0  0  0  0  0  0  0  0  0
   25.6954  -20.2510   -7.7181 S   0  0  0  0  0  0  0  0  0  0  0  0
   25.2774  -20.8620   -9.3783 C   0  0  0  0  0  0  0  0  0  0  0  0
   26.3762  -20.4965  -10.3172 C   0  0  0  0  0  0  0  0  0  0  0  0
   26.1204  -20.9946  -11.7243 C   0  0  2  0  0  0  0  0  0  0  0  0
   27.2598  -20.6779  -12.5263 N   0  0  0  0  0  0  0  0  0  0  0  0
   24.8581  -20.4665  -12.2516 C   0  0  0  0  0  0  0  0  0  0  0  0
   24.7646  -19.2384  -12.5042 O   0  0  0  0  0  0  0  0  0  0  0  0
   21.9259  -22.8684  -14.2241 C   0  0  0  0  0  0  0  0  0  0  0  0
   22.1723  -21.3891  -14.4041 C   0  0  2  0  0  0  0  0  0  0  0  0
   23.3500  -21.1751  -15.3415 C   0  0  0  0  0  0  0  0  0  0  0  0
   22.5222  -20.7160  -13.0920 C   0  0  2  0  0  0  0  0  0  0  0  0
   23.7139  -21.2669  -12.5001 N   0  0  0  0  0  0  0  0  0  0  0  0
   21.3406  -20.8623  -12.2013 C   0  0  0  0  0  0  0  0  0  0  0  0
   21.4232  -21.5898  -11.1710 O   0  0  0  0  0  0  0  0  0  0  0  0
   20.1381  -20.2413  -12.4352 O   0  0  0  0  0  0  0  0  0  0  0  0
  1  2  1  0
  3  4  1  6
  3  5  1  0
  3  2  1  0
  5  6  2  0
  7  8  1  0
  8  9  1  0
  9 10  1  0
 11 10  1  1
 11 13  1  0
 12  5  1  0
 12 11  1  0
 13 19  1  0
 13 14  2  0
 16 18  1  0
 16 15  1  1
 17 16  1  0
 18 20  1  0
 18 19  1  1
 20 22  1  0
 21 20  2  0
M  END
$$$$
