LDK.pdb
     RDKit          3D

 26 25  0  0  1  0  0  0  0  0999 V2000
    8.9130  -13.2274   18.2090 C   0  0  0  0  0  0  0  0  0  0  0  0
    7.7980  -13.3157   19.2593 C   0  0  2  0  0  0  0  0  0  0  0  0
    7.4919  -11.9352   19.7785 C   0  0  0  0  0  0  0  0  0  0  0  0
    8.2550  -14.1758   20.3963 C   0  0  0  0  0  0  0  0  0  0  0  0
    8.5204  -15.6062   19.9916 C   0  0  2  0  0  0  0  0  0  0  0  0
    7.3357  -16.2050   19.4881 N   0  0  0  0  0  0  0  0  0  0  0  0
    9.1128  -16.3027   21.1590 C   0  0  0  0  0  0  0  0  0  0  0  0
    8.3091  -16.8341   21.9684 O   0  0  0  0  0  0  0  0  0  0  0  0
   10.4888  -16.4026   21.4103 N   0  0  0  0  0  0  0  0  0  0  0  0
   10.9460  -17.1399   22.5662 C   0  0  1  0  0  0  0  0  0  0  0  0
   12.3800  -17.5287   22.3531 C   0  0  0  0  0  0  0  0  0  0  0  0
   12.9059  -18.4480   23.3821 C   0  0  0  0  0  0  0  0  0  0  0  0
   12.1307  -18.8412   24.3027 O   0  0  0  0  0  0  0  0  0  0  0  0
   10.7616  -16.3603   23.8226 C   0  0  0  0  0  0  0  0  0  0  0  0
   11.4060  -15.2898   23.9336 O   0  0  0  0  0  0  0  0  0  0  0  0
   14.1997  -18.9166   23.4145 O   0  0  0  0  0  0  0  0  0  0  0  0
    9.8885  -16.8624   24.7965 N   0  0  0  0  0  0  0  0  0  0  0  0
    9.6752  -16.0191   26.0343 C   0  0  1  0  0  0  0  0  0  0  0  0
    8.3127  -15.4904   25.8255 C   0  0  0  0  0  0  0  0  0  0  0  0
    7.8932  -14.1559   26.2302 C   0  0  0  0  0  0  0  0  0  0  0  0
    6.5040  -13.6905   26.0686 C   0  0  0  0  0  0  0  0  0  0  0  0
    6.4334  -12.2526   26.6438 C   0  0  0  0  0  0  0  0  0  0  0  0
    5.0922  -11.7594   26.5270 N   0  0  0  0  0  0  0  0  0  0  0  0
    9.8947  -16.9526   27.1418 C   0  0  0  0  0  0  0  0  0  0  0  0
   10.3515  -16.7102   28.4033 O   0  0  0  0  0  0  0  0  0  0  0  0
    9.6285  -18.1946   26.9158 O   0  0  0  0  0  0  0  0  0  0  0  0
  2  1  1  6
  2  4  1  0
  3  2  1  0
  5  4  1  0
  5  6  1  1
  7  5  1  0
  8  7  2  0
  9  7  1  0
 10 14  1  0
 10  9  1  0
 10 11  1  6
 12 13  2  0
 12 11  1  0
 14 15  2  0
 16 12  1  0
 17 18  1  0
 17 14  1  0
 18 19  1  6
 20 19  1  0
 21 20  1  0
 22 21  1  0
 23 22  1  0
 24 25  1  0
 24 18  1  0
 26 24  2  0
M  END
$$$$
