LDK.pdb
     RDKit          3D

 26 25  0  0  1  0  0  0  0  0999 V2000
    9.0399  -12.9655   18.5023 C   0  0  0  0  0  0  0  0  0  0  0  0
    7.8281  -13.2902   19.3858 C   0  0  2  0  0  0  0  0  0  0  0  0
    7.3239  -12.0231   20.0253 C   0  0  0  0  0  0  0  0  0  0  0  0
    8.2399  -14.2495   20.4588 C   0  0  0  0  0  0  0  0  0  0  0  0
    8.6737  -15.5927   19.9223 C   0  0  2  0  0  0  0  0  0  0  0  0
    7.5933  -16.2321   19.2594 N   0  0  0  0  0  0  0  0  0  0  0  0
    9.2463  -16.3656   21.0508 C   0  0  0  0  0  0  0  0  0  0  0  0
    8.4337  -17.0017   21.7709 O   0  0  0  0  0  0  0  0  0  0  0  0
   10.6132  -16.4288   21.3579 N   0  0  0  0  0  0  0  0  0  0  0  0
   11.0444  -17.1729   22.5194 C   0  0  1  0  0  0  0  0  0  0  0  0
   12.4540  -17.6383   22.2971 C   0  0  0  0  0  0  0  0  0  0  0  0
   12.9878  -18.4647   23.3983 C   0  0  0  0  0  0  0  0  0  0  0  0
   12.1951  -19.2202   24.0339 O   0  0  0  0  0  0  0  0  0  0  0  0
   10.9145  -16.3675   23.7664 C   0  0  0  0  0  0  0  0  0  0  0  0
   11.6532  -15.3599   23.8785 O   0  0  0  0  0  0  0  0  0  0  0  0
   14.3069  -18.4736   23.7915 O   0  0  0  0  0  0  0  0  0  0  0  0
    9.9848  -16.7778   24.7309 N   0  0  0  0  0  0  0  0  0  0  0  0
    9.7732  -15.8652   25.9189 C   0  0  1  0  0  0  0  0  0  0  0  0
    8.4406  -15.2925   25.6440 C   0  0  0  0  0  0  0  0  0  0  0  0
    7.9890  -14.0103   26.1664 C   0  0  0  0  0  0  0  0  0  0  0  0
    6.6493  -13.4727   25.8682 C   0  0  0  0  0  0  0  0  0  0  0  0
    6.5130  -12.1326   26.6354 C   0  0  0  0  0  0  0  0  0  0  0  0
    5.2686  -11.5106   26.2880 N   0  0  0  0  0  0  0  0  0  0  0  0
    9.9223  -16.7501   27.0770 C   0  0  0  0  0  0  0  0  0  0  0  0
   10.2271  -16.4432   28.3699 O   0  0  0  0  0  0  0  0  0  0  0  0
    9.7492  -18.0117   26.8698 O   0  0  0  0  0  0  0  0  0  0  0  0
  2  1  1  6
  2  4  1  0
  3  2  1  0
  5  4  1  0
  5  6  1  1
  7  5  1  0
  8  7  2  0
  9  7  1  0
 10 14  1  0
 10  9  1  0
 10 11  1  6
 12 13  2  0
 12 11  1  0
 14 15  2  0
 16 12  1  0
 17 18  1  0
 17 14  1  0
 18 19  1  6
 20 19  1  0
 21 20  1  0
 22 21  1  0
 23 22  1  0
 24 25  1  0
 24 18  1  0
 26 24  2  0
M  END
$$$$
