LDK.pdb
     RDKit          3D

 26 25  0  0  1  0  0  0  0  0999 V2000
    7.8653  -12.4378   20.5389 C   0  0  0  0  0  0  0  0  0  0  0  0
    8.0920  -13.8840   20.0793 C   0  0  2  0  0  0  0  0  0  0  0  0
    7.5486  -14.0548   18.6848 C   0  0  0  0  0  0  0  0  0  0  0  0
    7.3714  -14.8163   21.0028 C   0  0  0  0  0  0  0  0  0  0  0  0
    7.7669  -14.6446   22.4499 C   0  0  2  0  0  0  0  0  0  0  0  0
    8.6326  -13.5290   22.5964 N   0  0  0  0  0  0  0  0  0  0  0  0
    8.3377  -15.9310   22.9171 C   0  0  0  0  0  0  0  0  0  0  0  0
    7.5878  -16.9393   22.8527 O   0  0  0  0  0  0  0  0  0  0  0  0
    9.6386  -16.0880   23.4169 N   0  0  0  0  0  0  0  0  0  0  0  0
   10.0469  -17.3729   23.9375 C   0  0  1  0  0  0  0  0  0  0  0  0
   11.4973  -17.5846   23.6141 C   0  0  0  0  0  0  0  0  0  0  0  0
   11.7579  -17.8231   22.1802 C   0  0  0  0  0  0  0  0  0  0  0  0
   12.3212  -16.9137   21.5029 O   0  0  0  0  0  0  0  0  0  0  0  0
    9.7812  -17.4821   25.3997 C   0  0  0  0  0  0  0  0  0  0  0  0
   10.0636  -16.4876   26.1103 O   0  0  0  0  0  0  0  0  0  0  0  0
   11.4270  -18.9816   21.5146 O   0  0  0  0  0  0  0  0  0  0  0  0
    9.2372  -18.6761   25.8908 N   0  0  0  0  0  0  0  0  0  0  0  0
    8.9176  -18.7336   27.3685 C   0  0  1  0  0  0  0  0  0  0  0  0
    8.0626  -19.9336   27.4604 C   0  0  0  0  0  0  0  0  0  0  0  0
    6.9036  -20.1667   26.6101 C   0  0  0  0  0  0  0  0  0  0  0  0
    6.8093  -21.3384   25.7209 C   0  0  0  0  0  0  0  0  0  0  0  0
    5.4261  -21.2737   25.0239 C   0  0  0  0  0  0  0  0  0  0  0  0
    5.2261  -22.4661   24.2532 N   0  0  0  0  0  0  0  0  0  0  0  0
   10.2320  -18.7674   28.0147 C   0  0  0  0  0  0  0  0  0  0  0  0
   10.5597  -18.5817   29.3250 O   0  0  0  0  0  0  0  0  0  0  0  0
   11.2473  -19.0011   27.2538 O   0  0  0  0  0  0  0  0  0  0  0  0
  2  1  1  1
  2  4  1  0
  3  2  1  0
  5  4  1  0
  5  6  1  6
  7  5  1  0
  8  7  2  0
  9  7  1  0
 10 14  1  0
 10  9  1  0
 10 11  1  1
 12 13  2  0
 12 11  1  0
 14 15  2  0
 16 12  1  0
 17 18  1  0
 17 14  1  0
 18 19  1  6
 20 19  1  0
 21 20  1  0
 22 21  1  0
 23 22  1  0
 24 25  1  0
 24 18  1  0
 26 24  2  0
M  END
$$$$
