LDK.pdb
     RDKit          3D

 26 25  0  0  1  0  0  0  0  0999 V2000
    9.1887  -13.0518   19.2431 C   0  0  0  0  0  0  0  0  0  0  0  0
    7.7493  -13.4937   19.5382 C   0  0  2  0  0  0  0  0  0  0  0  0
    6.8636  -12.2786   19.6285 C   0  0  0  0  0  0  0  0  0  0  0  0
    7.7129  -14.2238   20.8447 C   0  0  0  0  0  0  0  0  0  0  0  0
    8.5603  -15.4736   20.8520 C   0  0  2  0  0  0  0  0  0  0  0  0
    8.3065  -16.2494   19.6904 N   0  0  0  0  0  0  0  0  0  0  0  0
    8.3090  -16.1814   22.1306 C   0  0  0  0  0  0  0  0  0  0  0  0
    8.4166  -15.5018   23.1841 O   0  0  0  0  0  0  0  0  0  0  0  0
    7.9651  -17.5370   22.2341 N   0  0  0  0  0  0  0  0  0  0  0  0
    7.8641  -18.1443   23.5416 C   0  0  1  0  0  0  0  0  0  0  0  0
    6.8246  -19.2259   23.4913 C   0  0  0  0  0  0  0  0  0  0  0  0
    6.6705  -19.9618   24.7622 C   0  0  0  0  0  0  0  0  0  0  0  0
    7.3192  -19.5704   25.7766 O   0  0  0  0  0  0  0  0  0  0  0  0
    9.1813  -18.6598   24.0104 C   0  0  0  0  0  0  0  0  0  0  0  0
    9.6925  -19.6034   23.3609 O   0  0  0  0  0  0  0  0  0  0  0  0
    5.8594  -21.0616   24.9275 O   0  0  0  0  0  0  0  0  0  0  0  0
    9.7662  -18.0672   25.1372 N   0  0  0  0  0  0  0  0  0  0  0  0
   11.2090  -18.4150   25.4304 C   0  0  1  0  0  0  0  0  0  0  0  0
   11.9401  -17.3208   24.7614 C   0  0  0  0  0  0  0  0  0  0  0  0
   13.1425  -17.5213   23.9646 C   0  0  0  0  0  0  0  0  0  0  0  0
   14.0535  -16.4116   23.6312 C   0  0  0  0  0  0  0  0  0  0  0  0
   15.1332  -16.9780   22.6737 C   0  0  0  0  0  0  0  0  0  0  0  0
   16.0393  -15.9294   22.3059 N   0  0  0  0  0  0  0  0  0  0  0  0
   11.2649  -18.4943   26.8923 C   0  0  0  0  0  0  0  0  0  0  0  0
   12.1704  -19.1248   27.6931 O   0  0  0  0  0  0  0  0  0  0  0  0
   10.3285  -17.8905   27.5427 O   0  0  0  0  0  0  0  0  0  0  0  0
  2  1  1  1
  2  4  1  0
  3  2  1  0
  5  4  1  0
  5  6  1  6
  7  5  1  0
  8  7  2  0
  9  7  1  0
 10 14  1  0
 10  9  1  0
 10 11  1  6
 12 13  2  0
 12 11  1  0
 14 15  2  0
 16 12  1  0
 17 18  1  0
 17 14  1  0
 18 19  1  1
 20 19  1  0
 21 20  1  0
 22 21  1  0
 23 22  1  0
 24 25  1  0
 24 18  1  0
 26 24  2  0
M  END
$$$$
