LDK.pdb
     RDKit          3D

 26 25  0  0  1  0  0  0  0  0999 V2000
    8.8384  -13.3657   18.2670 C   0  0  0  0  0  0  0  0  0  0  0  0
    7.6415  -13.4580   19.2225 C   0  0  2  0  0  0  0  0  0  0  0  0
    7.2957  -12.0799   19.7228 C   0  0  0  0  0  0  0  0  0  0  0  0
    8.0035  -14.3251   20.3881 C   0  0  0  0  0  0  0  0  0  0  0  0
    8.4049  -15.7245   19.9871 C   0  0  2  0  0  0  0  0  0  0  0  0
    7.2873  -16.4291   19.4674 N   0  0  0  0  0  0  0  0  0  0  0  0
    9.0427  -16.3649   21.1626 C   0  0  0  0  0  0  0  0  0  0  0  0
    8.2754  -16.9268   21.9866 O   0  0  0  0  0  0  0  0  0  0  0  0
   10.4237  -16.3816   21.4064 N   0  0  0  0  0  0  0  0  0  0  0  0
   10.9255  -17.0366   22.5929 C   0  0  1  0  0  0  0  0  0  0  0  0
   12.3868  -17.3226   22.4035 C   0  0  0  0  0  0  0  0  0  0  0  0
   12.9840  -18.1154   23.4969 C   0  0  0  0  0  0  0  0  0  0  0  0
   14.2446  -18.1458   23.6105 O   0  0  0  0  0  0  0  0  0  0  0  0
   10.6714  -16.2253   23.8167 C   0  0  0  0  0  0  0  0  0  0  0  0
   11.0940  -15.0442   23.8204 O   0  0  0  0  0  0  0  0  0  0  0  0
   12.2577  -18.8365   24.4173 O   0  0  0  0  0  0  0  0  0  0  0  0
    9.9826  -16.8221   24.8808 N   0  0  0  0  0  0  0  0  0  0  0  0
    9.8352  -16.0117   26.1498 C   0  0  1  0  0  0  0  0  0  0  0  0
    8.5467  -15.3232   25.9371 C   0  0  0  0  0  0  0  0  0  0  0  0
    8.2028  -14.0464   26.5471 C   0  0  0  0  0  0  0  0  0  0  0  0
    6.8758  -13.4287   26.3724 C   0  0  0  0  0  0  0  0  0  0  0  0
    6.8666  -12.1212   27.2052 C   0  0  0  0  0  0  0  0  0  0  0  0
    5.5991  -11.4687   27.0514 N   0  0  0  0  0  0  0  0  0  0  0  0
    9.9203  -17.0090   27.2196 C   0  0  0  0  0  0  0  0  0  0  0  0
   10.1399  -16.8338   28.5537 O   0  0  0  0  0  0  0  0  0  0  0  0
    9.7738  -18.2437   26.8754 O   0  0  0  0  0  0  0  0  0  0  0  0
  2  1  1  6
  2  4  1  0
  3  2  1  0
  5  4  1  0
  5  6  1  1
  7  5  1  0
  8  7  2  0
  9  7  1  0
 10 14  1  0
 10  9  1  0
 10 11  1  6
 12 13  2  0
 12 11  1  0
 14 15  2  0
 16 12  1  0
 17 18  1  0
 17 14  1  0
 18 19  1  6
 20 19  1  0
 21 20  1  0
 22 21  1  0
 23 22  1  0
 24 25  1  0
 24 18  1  0
 26 24  2  0
M  END
$$$$
