LDK.pdb
     RDKit          3D

 26 25  0  0  1  0  0  0  0  0999 V2000
    7.9325  -13.0398   19.4324 C   0  0  0  0  0  0  0  0  0  0  0  0
    7.3633  -13.5954   20.7445 C   0  0  2  0  0  0  0  0  0  0  0  0
    7.2312  -12.4762   21.7439 C   0  0  0  0  0  0  0  0  0  0  0  0
    8.2963  -14.6312   21.2903 C   0  0  0  0  0  0  0  0  0  0  0  0
    8.4545  -15.8276   20.3827 C   0  0  2  0  0  0  0  0  0  0  0  0
    7.2251  -16.5287   20.2707 N   0  0  0  0  0  0  0  0  0  0  0  0
    9.5809  -16.6410   20.9009 C   0  0  0  0  0  0  0  0  0  0  0  0
    9.2933  -17.5418   21.7310 O   0  0  0  0  0  0  0  0  0  0  0  0
   10.9220  -16.4695   20.5284 N   0  0  0  0  0  0  0  0  0  0  0  0
   11.9144  -17.4065   21.0037 C   0  0  1  0  0  0  0  0  0  0  0  0
   13.0670  -17.4163   20.0422 C   0  0  0  0  0  0  0  0  0  0  0  0
   14.1192  -18.3937   20.3856 C   0  0  0  0  0  0  0  0  0  0  0  0
   13.8137  -19.3939   21.0992 O   0  0  0  0  0  0  0  0  0  0  0  0
   12.3507  -17.0866   22.3921 C   0  0  0  0  0  0  0  0  0  0  0  0
   12.7700  -15.9244   22.6086 O   0  0  0  0  0  0  0  0  0  0  0  0
   15.4309  -18.2951   19.9798 O   0  0  0  0  0  0  0  0  0  0  0  0
   12.2681  -18.0916   23.3649 N   0  0  0  0  0  0  0  0  0  0  0  0
   12.8191  -17.7719   24.7371 C   0  0  1  0  0  0  0  0  0  0  0  0
   11.9040  -18.5150   25.6260 C   0  0  0  0  0  0  0  0  0  0  0  0
   12.1141  -18.6640   27.0593 C   0  0  0  0  0  0  0  0  0  0  0  0
   11.1898  -19.4366   27.9087 C   0  0  0  0  0  0  0  0  0  0  0  0
   11.7396  -19.3751   29.3569 C   0  0  0  0  0  0  0  0  0  0  0  0
   10.8455  -20.0722   30.2347 N   0  0  0  0  0  0  0  0  0  0  0  0
   14.2181  -18.2012   24.6666 C   0  0  0  0  0  0  0  0  0  0  0  0
   14.7808  -19.2094   23.9415 O   0  0  0  0  0  0  0  0  0  0  0  0
   15.0629  -17.5486   25.3910 O   0  0  0  0  0  0  0  0  0  0  0  0
  2  1  1  6
  2  4  1  0
  3  2  1  0
  5  4  1  0
  5  6  1  1
  7  5  1  0
  8  7  2  0
  9  7  1  0
 10 14  1  0
 10  9  1  0
 10 11  1  6
 12 13  2  0
 12 11  1  0
 14 15  2  0
 16 12  1  0
 17 18  1  0
 17 14  1  0
 18 19  1  1
 20 19  1  0
 21 20  1  0
 22 21  1  0
 23 22  1  0
 24 25  1  0
 24 18  1  0
 26 24  2  0
M  END
$$$$
