LDK.pdb
     RDKit          3D

 26 25  0  0  1  0  0  0  0  0999 V2000
    6.2313  -11.8929   24.5668 C   0  0  0  0  0  0  0  0  0  0  0  0
    6.5420  -12.6344   25.8737 C   0  0  2  0  0  0  0  0  0  0  0  0
    7.1727  -11.6778   26.8516 C   0  0  0  0  0  0  0  0  0  0  0  0
    7.4996  -13.7508   25.5945 C   0  0  0  0  0  0  0  0  0  0  0  0
    6.9610  -14.7665   24.6156 C   0  0  2  0  0  0  0  0  0  0  0  0
    5.8111  -15.4055   25.1494 N   0  0  0  0  0  0  0  0  0  0  0  0
    8.0692  -15.6875   24.2657 C   0  0  0  0  0  0  0  0  0  0  0  0
    8.2489  -16.6719   25.0285 O   0  0  0  0  0  0  0  0  0  0  0  0
    8.9130  -15.5300   23.1567 N   0  0  0  0  0  0  0  0  0  0  0  0
    9.8813  -16.5587   22.8518 C   0  0  1  0  0  0  0  0  0  0  0  0
   10.4346  -16.3076   21.4793 C   0  0  0  0  0  0  0  0  0  0  0  0
    9.4959  -16.6425   20.3896 C   0  0  0  0  0  0  0  0  0  0  0  0
    8.8504  -17.7298   20.4528 O   0  0  0  0  0  0  0  0  0  0  0  0
   10.9561  -16.6232   23.8819 C   0  0  0  0  0  0  0  0  0  0  0  0
   11.5673  -15.5589   24.1411 O   0  0  0  0  0  0  0  0  0  0  0  0
    9.2678  -15.8453   19.2909 O   0  0  0  0  0  0  0  0  0  0  0  0
   11.2189  -17.8555   24.4945 N   0  0  0  0  0  0  0  0  0  0  0  0
   12.2827  -17.8796   25.5701 C   0  0  1  0  0  0  0  0  0  0  0  0
   11.8281  -18.9828   26.4394 C   0  0  0  0  0  0  0  0  0  0  0  0
   12.6253  -19.5368   27.5249 C   0  0  0  0  0  0  0  0  0  0  0  0
   12.1923  -20.7221   28.2867 C   0  0  0  0  0  0  0  0  0  0  0  0
   13.2611  -20.9789   29.3799 C   0  0  0  0  0  0  0  0  0  0  0  0
   12.8915  -22.1346   30.1438 N   0  0  0  0  0  0  0  0  0  0  0  0
   13.5339  -18.0520   24.8277 C   0  0  0  0  0  0  0  0  0  0  0  0
   13.7935  -18.8192   23.7310 O   0  0  0  0  0  0  0  0  0  0  0  0
   14.5585  -17.3957   25.2565 O   0  0  0  0  0  0  0  0  0  0  0  0
  2  1  1  6
  2  4  1  0
  3  2  1  0
  5  4  1  0
  5  6  1  1
  7  5  1  0
  8  7  2  0
  9  7  1  0
 10 14  1  0
 10  9  1  0
 10 11  1  6
 12 13  2  0
 12 11  1  0
 14 15  2  0
 16 12  1  0
 17 18  1  0
 17 14  1  0
 18 19  1  1
 20 19  1  0
 21 20  1  0
 22 21  1  0
 23 22  1  0
 24 25  1  0
 24 18  1  0
 26 24  2  0
M  END
$$$$
