LDK.pdb
     RDKit          3D

 26 25  0  0  1  0  0  0  0  0999 V2000
    8.8312  -12.2229   18.0088 C   0  0  0  0  0  0  0  0  0  0  0  0
    8.1514  -13.5946   18.1110 C   0  0  2  0  0  0  0  0  0  0  0  0
    6.7190  -13.4758   17.6604 C   0  0  0  0  0  0  0  0  0  0  0  0
    8.1798  -14.0570   19.5346 C   0  0  0  0  0  0  0  0  0  0  0  0
    9.5688  -14.0765   20.1267 C   0  0  2  0  0  0  0  0  0  0  0  0
   10.5419  -14.1940   19.0997 N   0  0  0  0  0  0  0  0  0  0  0  0
    9.6116  -15.1577   21.1406 C   0  0  0  0  0  0  0  0  0  0  0  0
    8.6028  -15.2775   21.8830 O   0  0  0  0  0  0  0  0  0  0  0  0
   10.6888  -16.0379   21.3184 N   0  0  0  0  0  0  0  0  0  0  0  0
   10.6530  -16.9908   22.4044 C   0  0  1  0  0  0  0  0  0  0  0  0
   11.7911  -17.9551   22.2367 C   0  0  0  0  0  0  0  0  0  0  0  0
   11.3731  -19.2927   21.7712 C   0  0  0  0  0  0  0  0  0  0  0  0
   10.6176  -19.3780   20.7588 O   0  0  0  0  0  0  0  0  0  0  0  0
   10.6892  -16.3127   23.7308 C   0  0  0  0  0  0  0  0  0  0  0  0
   11.7273  -15.6702   24.0189 O   0  0  0  0  0  0  0  0  0  0  0  0
   11.7510  -20.4740   22.3682 O   0  0  0  0  0  0  0  0  0  0  0  0
    9.5736  -16.4305   24.5701 N   0  0  0  0  0  0  0  0  0  0  0  0
    9.6001  -15.6536   25.8681 C   0  0  1  0  0  0  0  0  0  0  0  0
    8.3642  -14.8509   25.7812 C   0  0  0  0  0  0  0  0  0  0  0  0
    7.9135  -13.9459   26.8292 C   0  0  0  0  0  0  0  0  0  0  0  0
    6.6680  -13.1669   26.7072 C   0  0  0  0  0  0  0  0  0  0  0  0
    6.4796  -12.3941   28.0378 C   0  0  0  0  0  0  0  0  0  0  0  0
    5.3611  -11.5052   27.9168 N   0  0  0  0  0  0  0  0  0  0  0  0
    9.6828  -16.6900   26.9003 C   0  0  0  0  0  0  0  0  0  0  0  0
    9.6908  -18.0470   26.7688 O   0  0  0  0  0  0  0  0  0  0  0  0
    9.7554  -16.2866   28.1236 O   0  0  0  0  0  0  0  0  0  0  0  0
  2  1  1  1
  2  4  1  0
  3  2  1  0
  5  4  1  0
  5  6  1  6
  7  5  1  0
  8  7  2  0
  9  7  1  0
 10 14  1  0
 10  9  1  0
 10 11  1  6
 12 13  2  0
 12 11  1  0
 14 15  2  0
 16 12  1  0
 17 18  1  0
 17 14  1  0
 18 19  1  1
 20 19  1  0
 21 20  1  0
 22 21  1  0
 23 22  1  0
 24 25  1  0
 24 18  1  0
 26 24  2  0
M  END
$$$$
