MTC.pdb
     RDKit          3D

 22 21  0  0  1  0  0  0  0  0999 V2000
    7.8818  -11.7955   20.5312 C   0  0  0  0  0  0  0  0  0  0  0  0
    7.9328  -12.4253   18.8406 S   0  0  0  0  0  0  0  0  0  0  0  0
    8.4818  -14.1523   18.8953 C   0  0  0  0  0  0  0  0  0  0  0  0
    8.4682  -14.6743   20.3168 C   0  0  0  0  0  0  0  0  0  0  0  0
    9.0052  -16.0892   20.3448 C   0  0  2  0  0  0  0  0  0  0  0  0
    8.2305  -16.9625   19.4973 N   0  0  0  0  0  0  0  0  0  0  0  0
    8.9773  -16.6262   21.7342 C   0  0  0  0  0  0  0  0  0  0  0  0
    7.9396  -17.1097   22.2264 O   0  0  0  0  0  0  0  0  0  0  0  0
   10.8280  -19.3983   23.0420 C   0  0  0  0  0  0  0  0  0  0  0  0
   11.2115  -18.2382   23.8946 C   0  0  1  0  0  0  0  0  0  0  0  0
   12.4559  -17.7025   23.5502 O   0  0  0  0  0  0  0  0  0  0  0  0
   10.1651  -17.1418   23.9021 C   0  0  2  0  0  0  0  0  0  0  0  0
   10.1442  -16.5984   22.5371 N   0  0  0  0  0  0  0  0  0  0  0  0
   10.5427  -16.0270   24.7934 C   0  0  0  0  0  0  0  0  0  0  0  0
   11.2822  -15.0561   24.4136 O   0  0  0  0  0  0  0  0  0  0  0  0
   10.1137  -15.9406   26.1534 N   0  0  0  0  0  0  0  0  0  0  0  0
   10.6132  -14.9742   27.0706 C   0  0  1  0  0  0  0  0  0  0  0  0
    9.8371  -13.6863   27.0982 C   0  0  0  0  0  0  0  0  0  0  0  0
    8.9678  -13.6137   28.7073 S   0  0  0  0  0  0  0  0  0  0  0  0
   10.7405  -15.5802   28.4178 C   0  0  0  0  0  0  0  0  0  0  0  0
   11.6666  -15.0606   29.3093 O   0  0  0  0  0  0  0  0  0  0  0  0
   10.0480  -16.5523   28.8053 O   0  0  0  0  0  0  0  0  0  0  0  0
  2  1  1  0
  3  4  1  0
  3  2  1  0
  4  5  1  0
  5  7  1  0
  5  6  1  6
  7  8  2  0
 10  9  1  6
 10 12  1  0
 11 10  1  0
 12 14  1  0
 12 13  1  6
 13  7  1  0
 14 15  2  0
 16 17  1  0
 16 14  1  0
 17 20  1  0
 17 18  1  1
 19 18  1  0
 20 22  2  0
 20 21  1  0
M  END
$$$$
