MTC.pdb
     RDKit          3D

 22 21  0  0  1  0  0  0  0  0999 V2000
    8.8616  -11.4024   20.0761 C   0  0  0  0  0  0  0  0  0  0  0  0
    8.1376  -12.3927   18.7524 S   0  0  0  0  0  0  0  0  0  0  0  0
    8.5147  -14.1360   19.0774 C   0  0  0  0  0  0  0  0  0  0  0  0
    8.0095  -14.5478   20.4443 C   0  0  0  0  0  0  0  0  0  0  0  0
    8.4544  -15.9627   20.7466 C   0  0  2  0  0  0  0  0  0  0  0  0
    7.7898  -16.9166   19.8926 N   0  0  0  0  0  0  0  0  0  0  0  0
    8.1583  -16.3066   22.1656 C   0  0  0  0  0  0  0  0  0  0  0  0
    7.0003  -16.5646   22.5467 O   0  0  0  0  0  0  0  0  0  0  0  0
    9.0889  -19.1540   24.0221 C   0  0  0  0  0  0  0  0  0  0  0  0
    9.6915  -18.0086   24.7600 C   0  0  1  0  0  0  0  0  0  0  0  0
   11.0501  -17.8387   24.4779 O   0  0  0  0  0  0  0  0  0  0  0  0
    8.9527  -16.7055   24.5291 C   0  0  2  0  0  0  0  0  0  0  0  0
    9.1995  -16.3482   23.1254 N   0  0  0  0  0  0  0  0  0  0  0  0
    9.5055  -15.6073   25.3466 C   0  0  0  0  0  0  0  0  0  0  0  0
   10.5538  -14.9559   25.0143 O   0  0  0  0  0  0  0  0  0  0  0  0
    8.9154  -15.1817   26.5762 N   0  0  0  0  0  0  0  0  0  0  0  0
    9.4883  -14.1843   27.4140 C   0  0  1  0  0  0  0  0  0  0  0  0
    8.5119  -13.1513   27.9050 C   0  0  0  0  0  0  0  0  0  0  0  0
    7.3086  -12.8613   26.5565 S   0  0  0  0  0  0  0  0  0  0  0  0
   10.2289  -14.8280   28.5255 C   0  0  0  0  0  0  0  0  0  0  0  0
   10.9787  -14.0402   29.3855 O   0  0  0  0  0  0  0  0  0  0  0  0
   10.2170  -16.0648   28.7377 O   0  0  0  0  0  0  0  0  0  0  0  0
  2  1  1  0
  3  4  1  0
  3  2  1  0
  4  5  1  0
  5  7  1  0
  5  6  1  6
  7  8  2  0
 10  9  1  6
 10 12  1  0
 11 10  1  0
 12 14  1  0
 12 13  1  6
 13  7  1  0
 14 15  2  0
 16 17  1  0
 16 14  1  0
 17 20  1  0
 17 18  1  1
 19 18  1  0
 20 22  2  0
 20 21  1  0
M  END
$$$$
