MTC.pdb
     RDKit          3D

 22 21  0  0  1  0  0  0  0  0999 V2000
   -3.2619  -18.7426   23.8552 C   0  0  0  0  0  0  0  0  0  0  0  0
   -2.0768  -19.4347   22.6832 S   0  0  0  0  0  0  0  0  0  0  0  0
   -1.4579  -20.9988   23.3596 C   0  0  0  0  0  0  0  0  0  0  0  0
   -2.5655  -21.7534   24.0645 C   0  0  0  0  0  0  0  0  0  0  0  0
   -2.0127  -23.0308   24.6595 C   0  0  2  0  0  0  0  0  0  0  0  0
   -1.4237  -23.8712   23.6457 N   0  0  0  0  0  0  0  0  0  0  0  0
   -3.0945  -23.7948   25.3418 C   0  0  0  0  0  0  0  0  0  0  0  0
   -3.9053  -24.4915   24.7014 O   0  0  0  0  0  0  0  0  0  0  0  0
   -2.7171  -26.6005   27.5033 C   0  0  0  0  0  0  0  0  0  0  0  0
   -3.3743  -25.5368   28.3134 C   0  0  1  0  0  0  0  0  0  0  0  0
   -2.4681  -24.8174   29.0979 O   0  0  0  0  0  0  0  0  0  0  0  0
   -4.1973  -24.5808   27.4732 C   0  0  2  0  0  0  0  0  0  0  0  0
   -3.2277  -23.7453   26.7514 N   0  0  0  0  0  0  0  0  0  0  0  0
   -5.0014  -23.6667   28.3084 C   0  0  0  0  0  0  0  0  0  0  0  0
   -4.6013  -22.4991   28.6407 O   0  0  0  0  0  0  0  0  0  0  0  0
   -6.2925  -24.0106   28.8144 N   0  0  0  0  0  0  0  0  0  0  0  0
   -7.0348  -23.1749   29.6949 C   0  0  1  0  0  0  0  0  0  0  0  0
   -8.0454  -22.2961   29.0108 C   0  0  0  0  0  0  0  0  0  0  0  0
   -8.9734  -21.4183   30.3217 S   0  0  0  0  0  0  0  0  0  0  0  0
   -7.6425  -23.9945   30.7707 C   0  0  0  0  0  0  0  0  0  0  0  0
   -7.8923  -23.4141   32.0049 O   0  0  0  0  0  0  0  0  0  0  0  0
   -7.9492  -25.2029   30.6279 O   0  0  0  0  0  0  0  0  0  0  0  0
  2  1  1  0
  3  4  1  0
  3  2  1  0
  4  5  1  0
  5  7  1  0
  5  6  1  6
  7  8  2  0
 10  9  1  6
 10 12  1  0
 11 10  1  0
 12 14  1  0
 12 13  1  1
 13  7  1  0
 14 15  2  0
 16 17  1  0
 16 14  1  0
 17 20  1  0
 17 18  1  6
 19 18  1  0
 20 22  2  0
 20 21  1  0
M  END
$$$$
