MTC.pdb
     RDKit          3D

 22 21  0  0  1  0  0  0  0  0999 V2000
    7.2292  -11.7177   26.1420 C   0  0  0  0  0  0  0  0  0  0  0  0
    6.9203  -12.7120   27.6161 S   0  0  0  0  0  0  0  0  0  0  0  0
    6.7955  -14.4491   27.1125 C   0  0  0  0  0  0  0  0  0  0  0  0
    6.4075  -14.5573   25.6527 C   0  0  0  0  0  0  0  0  0  0  0  0
    6.3362  -16.0151   25.2516 C   0  0  2  0  0  0  0  0  0  0  0  0
    6.4405  -16.8822   26.3998 N   0  0  0  0  0  0  0  0  0  0  0  0
    7.4370  -16.3457   24.3037 C   0  0  0  0  0  0  0  0  0  0  0  0
    8.2487  -17.2613   24.5398 O   0  0  0  0  0  0  0  0  0  0  0  0
    6.8312  -15.1905   20.5272 C   0  0  0  0  0  0  0  0  0  0  0  0
    8.2808  -15.1477   20.8686 C   0  0  1  0  0  0  0  0  0  0  0  0
    8.7649  -13.8437   21.0075 O   0  0  0  0  0  0  0  0  0  0  0  0
    8.6182  -15.9549   22.1063 C   0  0  2  0  0  0  0  0  0  0  0  0
    7.5878  -15.6173   23.0980 N   0  0  0  0  0  0  0  0  0  0  0  0
    9.9128  -15.5516   22.6901 C   0  0  0  0  0  0  0  0  0  0  0  0
   10.0931  -14.4236   23.2636 O   0  0  0  0  0  0  0  0  0  0  0  0
   11.0711  -16.3875   22.6628 N   0  0  0  0  0  0  0  0  0  0  0  0
   12.3403  -15.9811   23.1614 C   0  0  1  0  0  0  0  0  0  0  0  0
   12.5369  -16.2282   24.6318 C   0  0  0  0  0  0  0  0  0  0  0  0
   12.0327  -17.9567   24.9612 S   0  0  0  0  0  0  0  0  0  0  0  0
   13.4181  -16.5864   22.3427 C   0  0  0  0  0  0  0  0  0  0  0  0
   14.7366  -16.2406   22.5964 O   0  0  0  0  0  0  0  0  0  0  0  0
   13.2038  -17.4073   21.4180 O   0  0  0  0  0  0  0  0  0  0  0  0
  2  1  1  0
  3  4  1  0
  3  2  1  0
  4  5  1  0
  5  7  1  0
  5  6  1  1
  7  8  2  0
 10  9  1  1
 10 12  1  0
 11 10  1  0
 12 14  1  0
 12 13  1  1
 13  7  1  0
 14 15  2  0
 16 17  1  0
 16 14  1  0
 17 20  1  0
 17 18  1  1
 19 18  1  0
 20 22  2  0
 20 21  1  0
M  END
$$$$
