MTC.pdb
     RDKit          3D

 22 21  0  0  1  0  0  0  0  0999 V2000
    7.0367  -11.1843   27.1526 C   0  0  0  0  0  0  0  0  0  0  0  0
    6.1705  -11.8243   25.7044 S   0  0  0  0  0  0  0  0  0  0  0  0
    5.7390  -13.5565   26.0214 C   0  0  0  0  0  0  0  0  0  0  0  0
    6.9710  -14.4350   25.9629 C   0  0  0  0  0  0  0  0  0  0  0  0
    6.8462  -15.4109   24.8125 C   0  0  2  0  0  0  0  0  0  0  0  0
    5.6656  -16.2296   24.9433 N   0  0  0  0  0  0  0  0  0  0  0  0
    8.0393  -16.3013   24.7571 C   0  0  0  0  0  0  0  0  0  0  0  0
    8.1609  -17.2781   25.5213 O   0  0  0  0  0  0  0  0  0  0  0  0
    9.7267  -17.2942   21.3348 C   0  0  0  0  0  0  0  0  0  0  0  0
   10.7478  -16.8164   22.3088 C   0  0  1  0  0  0  0  0  0  0  0  0
   11.1942  -15.5210   22.0319 O   0  0  0  0  0  0  0  0  0  0  0  0
   10.2746  -16.8999   23.7463 C   0  0  2  0  0  0  0  0  0  0  0  0
    9.0755  -16.0542   23.8231 N   0  0  0  0  0  0  0  0  0  0  0  0
   11.2581  -16.3221   24.6837 C   0  0  0  0  0  0  0  0  0  0  0  0
   11.7295  -15.1413   24.5528 O   0  0  0  0  0  0  0  0  0  0  0  0
   11.7646  -17.0341   25.8141 N   0  0  0  0  0  0  0  0  0  0  0  0
   11.7207  -16.5250   27.1421 C   0  0  1  0  0  0  0  0  0  0  0  0
   10.4381  -15.8237   27.4952 C   0  0  0  0  0  0  0  0  0  0  0  0
   10.8883  -14.1878   28.1819 S   0  0  0  0  0  0  0  0  0  0  0  0
   12.0523  -17.6037   28.1038 C   0  0  0  0  0  0  0  0  0  0  0  0
   11.8500  -18.9250   27.7355 O   0  0  0  0  0  0  0  0  0  0  0  0
   12.5130  -17.3878   29.2509 O   0  0  0  0  0  0  0  0  0  0  0  0
  2  1  1  0
  3  4  1  0
  3  2  1  0
  4  5  1  0
  5  7  1  0
  5  6  1  1
  7  8  2  0
 10  9  1  6
 10 12  1  0
 11 10  1  0
 12 14  1  0
 12 13  1  6
 13  7  1  0
 14 15  2  0
 16 17  1  0
 16 14  1  0
 17 20  1  0
 17 18  1  1
 19 18  1  0
 20 22  2  0
 20 21  1  0
M  END
$$$$
