MTC.pdb
     RDKit          3D

 22 21  0  0  1  0  0  0  0  0999 V2000
    6.4374  -11.0945   27.7285 C   0  0  0  0  0  0  0  0  0  0  0  0
    7.3263  -12.2387   26.6524 S   0  0  0  0  0  0  0  0  0  0  0  0
    6.2758  -12.6021   25.2202 C   0  0  0  0  0  0  0  0  0  0  0  0
    7.0335  -13.4163   24.1926 C   0  0  0  0  0  0  0  0  0  0  0  0
    6.5856  -14.8608   24.2566 C   0  0  2  0  0  0  0  0  0  0  0  0
    5.5434  -15.0452   25.2368 N   0  0  0  0  0  0  0  0  0  0  0  0
    7.7327  -15.7435   24.6095 C   0  0  0  0  0  0  0  0  0  0  0  0
    7.7845  -16.3412   25.7017 O   0  0  0  0  0  0  0  0  0  0  0  0
    9.4091  -17.5567   21.5024 C   0  0  0  0  0  0  0  0  0  0  0  0
   10.4309  -17.2114   22.5302 C   0  0  1  0  0  0  0  0  0  0  0  0
   11.2274  -16.1250   22.1567 O   0  0  0  0  0  0  0  0  0  0  0  0
    9.8283  -16.9596   23.8980 C   0  0  2  0  0  0  0  0  0  0  0  0
    8.8039  -15.9250   23.7002 N   0  0  0  0  0  0  0  0  0  0  0  0
   10.8170  -16.3986   24.8400 C   0  0  0  0  0  0  0  0  0  0  0  0
   11.1795  -15.1732   24.8158 O   0  0  0  0  0  0  0  0  0  0  0  0
   11.4505  -17.1779   25.8561 N   0  0  0  0  0  0  0  0  0  0  0  0
   11.6621  -16.7089   27.1828 C   0  0  1  0  0  0  0  0  0  0  0  0
   10.4533  -16.0786   27.8177 C   0  0  0  0  0  0  0  0  0  0  0  0
   11.0595  -14.8556   29.0373 S   0  0  0  0  0  0  0  0  0  0  0  0
   12.2284  -17.7974   28.0151 C   0  0  0  0  0  0  0  0  0  0  0  0
   13.2267  -17.5005   28.9304 O   0  0  0  0  0  0  0  0  0  0  0  0
   11.8512  -18.9918   27.9389 O   0  0  0  0  0  0  0  0  0  0  0  0
  2  1  1  0
  3  4  1  0
  3  2  1  0
  4  5  1  0
  5  7  1  0
  5  6  1  1
  7  8  2  0
 10  9  1  6
 10 12  1  0
 11 10  1  0
 12 14  1  0
 12 13  1  6
 13  7  1  0
 14 15  2  0
 16 17  1  0
 16 14  1  0
 17 20  1  0
 17 18  1  1
 19 18  1  0
 20 22  2  0
 20 21  1  0
M  END
$$$$
