MTC.pdb
     RDKit          3D

 22 21  0  0  1  0  0  0  0  0999 V2000
   10.2080  -12.6303   20.8800 C   0  0  0  0  0  0  0  0  0  0  0  0
    8.6037  -12.5582   20.0564 S   0  0  0  0  0  0  0  0  0  0  0  0
    7.3765  -13.3431   21.1356 C   0  0  0  0  0  0  0  0  0  0  0  0
    6.7259  -14.5204   20.4399 C   0  0  0  0  0  0  0  0  0  0  0  0
    7.5311  -15.7751   20.7019 C   0  0  2  0  0  0  0  0  0  0  0  0
    7.0074  -16.8993   19.9651 N   0  0  0  0  0  0  0  0  0  0  0  0
    7.5137  -16.1077   22.1540 C   0  0  0  0  0  0  0  0  0  0  0  0
    6.4571  -16.4098   22.7418 O   0  0  0  0  0  0  0  0  0  0  0  0
   10.9144  -17.7181   23.4370 C   0  0  0  0  0  0  0  0  0  0  0  0
    9.6047  -17.9385   24.1122 C   0  0  1  0  0  0  0  0  0  0  0  0
    9.7365  -18.5597   25.3575 O   0  0  0  0  0  0  0  0  0  0  0  0
    8.7954  -16.6651   24.2571 C   0  0  2  0  0  0  0  0  0  0  0  0
    8.7125  -16.0875   22.9086 N   0  0  0  0  0  0  0  0  0  0  0  0
    9.4845  -15.6684   25.1005 C   0  0  0  0  0  0  0  0  0  0  0  0
   10.6115  -15.1544   24.7855 O   0  0  0  0  0  0  0  0  0  0  0  0
    8.9496  -15.1957   26.3381 N   0  0  0  0  0  0  0  0  0  0  0  0
    9.6450  -14.3018   27.1996 C   0  0  1  0  0  0  0  0  0  0  0  0
    8.7867  -13.2186   27.7925 C   0  0  0  0  0  0  0  0  0  0  0  0
    7.5628  -12.7408   26.5181 S   0  0  0  0  0  0  0  0  0  0  0  0
   10.3733  -15.0704   28.2375 C   0  0  0  0  0  0  0  0  0  0  0  0
   11.2492  -14.4058   29.0822 O   0  0  0  0  0  0  0  0  0  0  0  0
   10.2416  -16.3078   28.3992 O   0  0  0  0  0  0  0  0  0  0  0  0
  2  1  1  0
  3  4  1  0
  3  2  1  0
  4  5  1  0
  5  7  1  0
  5  6  1  6
  7  8  2  0
 10  9  1  1
 10 12  1  0
 11 10  1  0
 12 14  1  0
 12 13  1  6
 13  7  1  0
 14 15  2  0
 16 17  1  0
 16 14  1  0
 17 20  1  0
 17 18  1  1
 19 18  1  0
 20 22  2  0
 20 21  1  0
M  END
$$$$
