MTC.pdb
     RDKit          3D

 22 21  0  0  1  0  0  0  0  0999 V2000
    6.9025  -11.3269   25.3841 C   0  0  0  0  0  0  0  0  0  0  0  0
    5.9273  -12.3753   26.4828 S   0  0  0  0  0  0  0  0  0  0  0  0
    5.8232  -14.0280   25.7448 C   0  0  0  0  0  0  0  0  0  0  0  0
    6.9394  -14.2391   24.7435 C   0  0  0  0  0  0  0  0  0  0  0  0
    6.8501  -15.6364   24.1684 C   0  0  2  0  0  0  0  0  0  0  0  0
    5.7426  -16.3678   24.7338 N   0  0  0  0  0  0  0  0  0  0  0  0
    8.1064  -16.3895   24.4402 C   0  0  0  0  0  0  0  0  0  0  0  0
    8.2356  -17.0984   25.4568 O   0  0  0  0  0  0  0  0  0  0  0  0
   10.4198  -17.4625   21.2872 C   0  0  0  0  0  0  0  0  0  0  0  0
   11.2101  -16.9778   22.4535 C   0  0  1  0  0  0  0  0  0  0  0  0
   11.7004  -15.6813   22.2727 O   0  0  0  0  0  0  0  0  0  0  0  0
   10.4438  -17.0594   23.7586 C   0  0  2  0  0  0  0  0  0  0  0  0
    9.1961  -16.3154   23.5378 N   0  0  0  0  0  0  0  0  0  0  0  0
   11.1537  -16.3745   24.8571 C   0  0  0  0  0  0  0  0  0  0  0  0
   11.1647  -15.1032   24.9889 O   0  0  0  0  0  0  0  0  0  0  0  0
   11.8871  -17.0750   25.8635 N   0  0  0  0  0  0  0  0  0  0  0  0
   12.1978  -16.5170   27.1350 C   0  0  1  0  0  0  0  0  0  0  0  0
   11.0092  -15.9799   27.8836 C   0  0  0  0  0  0  0  0  0  0  0  0
   11.6113  -15.4083   29.5149 S   0  0  0  0  0  0  0  0  0  0  0  0
   12.9692  -17.4965   27.9375 C   0  0  0  0  0  0  0  0  0  0  0  0
   13.7002  -17.0519   29.0285 O   0  0  0  0  0  0  0  0  0  0  0  0
   13.0000  -18.7250   27.6833 O   0  0  0  0  0  0  0  0  0  0  0  0
  2  1  1  0
  3  4  1  0
  3  2  1  0
  4  5  1  0
  5  7  1  0
  5  6  1  1
  7  8  2  0
 10  9  1  6
 10 12  1  0
 11 10  1  0
 12 14  1  0
 12 13  1  6
 13  7  1  0
 14 15  2  0
 16 17  1  0
 16 14  1  0
 17 20  1  0
 17 18  1  1
 19 18  1  0
 20 22  2  0
 20 21  1  0
M  END
$$$$
