MTC.pdb
     RDKit          3D

 22 21  0  0  1  0  0  0  0  0999 V2000
    8.4033  -11.4272   20.2430 C   0  0  0  0  0  0  0  0  0  0  0  0
    7.5374  -12.5747   19.1519 S   0  0  0  0  0  0  0  0  0  0  0  0
    8.3500  -14.1912   19.2692 C   0  0  0  0  0  0  0  0  0  0  0  0
    8.2896  -14.7197   20.6870 C   0  0  0  0  0  0  0  0  0  0  0  0
    8.9858  -16.0618   20.7602 C   0  0  2  0  0  0  0  0  0  0  0  0
    8.3225  -17.0438   19.9376 N   0  0  0  0  0  0  0  0  0  0  0  0
    9.0108  -16.5562   22.1653 C   0  0  0  0  0  0  0  0  0  0  0  0
    7.9613  -16.8206   22.7830 O   0  0  0  0  0  0  0  0  0  0  0  0
   12.6522  -17.9009   23.5793 C   0  0  0  0  0  0  0  0  0  0  0  0
   11.3665  -18.3550   24.1799 C   0  0  1  0  0  0  0  0  0  0  0  0
   11.5281  -18.8916   25.4606 O   0  0  0  0  0  0  0  0  0  0  0  0
   10.3132  -17.2655   24.2091 C   0  0  2  0  0  0  0  0  0  0  0  0
   10.2436  -16.7387   22.8392 N   0  0  0  0  0  0  0  0  0  0  0  0
   10.7122  -16.1377   25.0742 C   0  0  0  0  0  0  0  0  0  0  0  0
   11.4839  -15.1992   24.6775 O   0  0  0  0  0  0  0  0  0  0  0  0
   10.2694  -16.0013   26.4258 N   0  0  0  0  0  0  0  0  0  0  0  0
   10.7312  -14.9780   27.3000 C   0  0  1  0  0  0  0  0  0  0  0  0
    9.9246  -13.7097   27.2507 C   0  0  0  0  0  0  0  0  0  0  0  0
    8.1939  -14.1544   27.6472 S   0  0  0  0  0  0  0  0  0  0  0  0
   10.8513  -15.5121   28.6779 C   0  0  0  0  0  0  0  0  0  0  0  0
   11.3749  -14.7028   29.6746 O   0  0  0  0  0  0  0  0  0  0  0  0
   10.5011  -16.6730   29.0009 O   0  0  0  0  0  0  0  0  0  0  0  0
  2  1  1  0
  3  4  1  0
  3  2  1  0
  4  5  1  0
  5  7  1  0
  5  6  1  6
  7  8  2  0
 10  9  1  1
 10 12  1  0
 11 10  1  0
 12 14  1  0
 12 13  1  6
 13  7  1  0
 14 15  2  0
 16 17  1  0
 16 14  1  0
 17 20  1  0
 17 18  1  1
 19 18  1  0
 20 22  2  0
 20 21  1  0
M  END
$$$$
