NPC.pdb
     RDKit          3D

 22 22  0  0  1  0  0  0  0  0999 V2000
   21.1532  -11.9826  -19.1030 N   0  0  0  0  0  0  0  0  0  0  0  0
   21.6644  -13.3097  -18.9371 C   0  0  0  0  0  0  0  0  0  0  0  0
   20.8897  -14.3106  -19.0329 O   0  0  0  0  0  0  0  0  0  0  0  0
   23.1124  -13.4961  -18.6541 C   0  0  0  0  0  0  0  0  0  0  0  0
   23.8212  -12.1444  -18.6094 C   0  0  2  0  0  0  0  0  0  0  0  0
   25.2681  -12.4327  -18.4447 N   0  0  0  0  0  0  0  0  0  0  0  0
   23.3802  -11.3403  -17.4531 C   0  0  0  0  0  0  0  0  0  0  0  0
   22.1558  -11.1417  -17.3375 O   0  0  0  0  0  0  0  0  0  0  0  0
   24.2663  -10.8043  -16.5017 N   0  0  0  0  0  0  0  0  0  0  0  0
   25.4753  -11.5665  -16.1001 C   0  0  0  0  0  0  0  0  0  0  0  0
   26.5219  -10.5317  -15.7688 C   0  0  0  0  0  0  0  0  0  0  0  0
   25.8311   -9.2057  -15.9722 C   0  0  0  0  0  0  0  0  0  0  0  0
   24.3551   -9.6272  -15.7241 C   0  0  1  0  0  0  0  0  0  0  0  0
   23.5490   -8.4716  -16.0537 C   0  0  0  0  0  0  0  0  0  0  0  0
   23.4408   -8.0160  -17.2003 O   0  0  0  0  0  0  0  0  0  0  0  0
   22.7951   -7.7450  -15.0503 N   0  0  0  0  0  0  0  0  0  0  0  0
   21.9966   -6.6032  -15.3547 C   0  0  1  0  0  0  0  0  0  0  0  0
   20.5654   -6.6957  -14.7982 C   0  0  0  0  0  0  0  0  0  0  0  0
   19.7857   -5.0997  -15.2498 S   0  0  0  0  0  0  0  0  0  0  0  0
   22.5881   -5.4078  -14.7095 C   0  0  0  0  0  0  0  0  0  0  0  0
   22.9936   -5.4864  -13.5280 O   0  0  0  0  0  0  0  0  0  0  0  0
   22.7273   -4.1709  -15.3433 O   0  0  0  0  0  0  0  0  0  0  0  0
  1  2  1  0
  2  3  2  0
  4  2  1  0
  4  5  1  0
  5  6  1  1
  7  5  1  0
  7  8  2  0
  9  7  1  0
 10  9  1  0
 11 10  1  0
 11 12  1  0
 12 13  1  0
 13  9  1  0
 13 14  1  6
 15 14  2  0
 16 14  1  0
 17 20  1  0
 17 16  1  0
 17 18  1  1
 19 18  1  0
 20 22  1  0
 21 20  2  0
M  END
$$$$
