NPC.pdb
     RDKit          3D

 22 22  0  0  1  0  0  0  0  0999 V2000
   15.1101  -12.3489  -15.7277 N   0  0  0  0  0  0  0  0  0  0  0  0
   14.3095  -11.1976  -15.4383 C   0  0  0  0  0  0  0  0  0  0  0  0
   13.3618  -10.8656  -16.2147 O   0  0  0  0  0  0  0  0  0  0  0  0
   14.6037  -10.4012  -14.2174 C   0  0  0  0  0  0  0  0  0  0  0  0
   15.8518  -10.9402  -13.5219 C   0  0  2  0  0  0  0  0  0  0  0  0
   15.5063  -12.2969  -13.0283 N   0  0  0  0  0  0  0  0  0  0  0  0
   16.2238  -10.1110  -12.3592 C   0  0  0  0  0  0  0  0  0  0  0  0
   15.5891  -10.3006  -11.3042 O   0  0  0  0  0  0  0  0  0  0  0  0
   17.2413   -9.1408  -12.3960 N   0  0  0  0  0  0  0  0  0  0  0  0
   18.4412   -9.3544  -13.2436 C   0  0  0  0  0  0  0  0  0  0  0  0
   18.8820   -7.9808  -13.6850 C   0  0  0  0  0  0  0  0  0  0  0  0
   17.9093   -7.0335  -13.0266 C   0  0  0  0  0  0  0  0  0  0  0  0
   17.4909   -7.8859  -11.7952 C   0  0  1  0  0  0  0  0  0  0  0  0
   16.4188   -7.1581  -11.1514 C   0  0  0  0  0  0  0  0  0  0  0  0
   15.3991   -6.7758  -11.7416 O   0  0  0  0  0  0  0  0  0  0  0  0
   16.4570   -6.8129   -9.7434 N   0  0  0  0  0  0  0  0  0  0  0  0
   15.4093   -6.0992   -9.0901 C   0  0  1  0  0  0  0  0  0  0  0  0
   15.5061   -6.1459   -7.5555 C   0  0  0  0  0  0  0  0  0  0  0  0
   15.3034   -7.9169   -7.1294 S   0  0  0  0  0  0  0  0  0  0  0  0
   15.5037   -4.6630   -9.4421 C   0  0  0  0  0  0  0  0  0  0  0  0
   16.5889   -4.2058   -9.8658 O   0  0  0  0  0  0  0  0  0  0  0  0
   14.4407   -3.7638   -9.3307 O   0  0  0  0  0  0  0  0  0  0  0  0
  1  2  1  0
  2  3  2  0
  4  2  1  0
  4  5  1  0
  5  6  1  1
  7  5  1  0
  7  8  2  0
  9  7  1  0
 10  9  1  0
 11 10  1  0
 11 12  1  0
 12 13  1  0
 13  9  1  0
 13 14  1  6
 15 14  2  0
 16 14  1  0
 17 20  1  0
 17 16  1  0
 17 18  1  1
 19 18  1  0
 20 22  1  0
 21 20  2  0
M  END
$$$$
