NPC.pdb
     RDKit          3D

 22 22  0  0  1  0  0  0  0  0999 V2000
   20.1146  -18.9429  -14.9171 N   0  0  0  0  0  0  0  0  0  0  0  0
   21.3355  -18.4117  -15.4438 C   0  0  0  0  0  0  0  0  0  0  0  0
   21.3087  -17.4947  -16.3211 O   0  0  0  0  0  0  0  0  0  0  0  0
   22.6305  -18.9480  -14.9471 C   0  0  0  0  0  0  0  0  0  0  0  0
   23.5769  -19.2129  -16.1157 C   0  0  2  0  0  0  0  0  0  0  0  0
   22.8988  -20.2014  -16.9914 N   0  0  0  0  0  0  0  0  0  0  0  0
   24.8494  -19.8038  -15.6581 C   0  0  0  0  0  0  0  0  0  0  0  0
   24.7869  -20.9146  -15.0976 O   0  0  0  0  0  0  0  0  0  0  0  0
   26.0971  -19.1773  -15.8268 N   0  0  0  0  0  0  0  0  0  0  0  0
   26.4187  -18.4942  -17.1050 C   0  0  0  0  0  0  0  0  0  0  0  0
   27.3350  -17.3522  -16.7412 C   0  0  0  0  0  0  0  0  0  0  0  0
   27.5175  -17.4651  -15.2475 C   0  0  0  0  0  0  0  0  0  0  0  0
   27.2677  -18.9880  -15.0574 C   0  0  1  0  0  0  0  0  0  0  0  0
   27.2470  -19.2139  -13.6283 C   0  0  0  0  0  0  0  0  0  0  0  0
   27.6762  -18.3997  -12.7995 O   0  0  0  0  0  0  0  0  0  0  0  0
   26.7151  -20.4315  -13.0471 N   0  0  0  0  0  0  0  0  0  0  0  0
   26.5897  -20.6301  -11.6404 C   0  0  1  0  0  0  0  0  0  0  0  0
   25.6352  -19.6290  -10.9672 C   0  0  0  0  0  0  0  0  0  0  0  0
   25.6001  -20.1313   -9.2049 S   0  0  0  0  0  0  0  0  0  0  0  0
   25.9963  -21.9639  -11.3868 C   0  0  0  0  0  0  0  0  0  0  0  0
   25.4382  -22.5751  -12.3256 O   0  0  0  0  0  0  0  0  0  0  0  0
   26.0171  -22.6004  -10.1437 O   0  0  0  0  0  0  0  0  0  0  0  0
  1  2  1  0
  2  3  2  0
  4  2  1  0
  4  5  1  0
  5  6  1  6
  7  5  1  0
  7  8  2  0
  9  7  1  0
 10  9  1  0
 11 10  1  0
 11 12  1  0
 12 13  1  0
 13  9  1  0
 13 14  1  1
 15 14  2  0
 16 14  1  0
 17 20  1  0
 17 16  1  0
 17 18  1  6
 19 18  1  0
 20 22  1  0
 21 20  2  0
M  END
$$$$
