NPC.pdb
     RDKit          3D

 22 22  0  0  1  0  0  0  0  0999 V2000
   16.2498  -13.3481  -15.8686 N   0  0  0  0  0  0  0  0  0  0  0  0
   16.0774  -12.2169  -15.0079 C   0  0  0  0  0  0  0  0  0  0  0  0
   15.0926  -12.1649  -14.2088 O   0  0  0  0  0  0  0  0  0  0  0  0
   17.0678  -11.1090  -15.0636 C   0  0  0  0  0  0  0  0  0  0  0  0
   18.0356  -11.3221  -16.2254 C   0  0  2  0  0  0  0  0  0  0  0  0
   18.7664  -12.5823  -15.9393 N   0  0  0  0  0  0  0  0  0  0  0  0
   19.0239  -10.2297  -16.3135 C   0  0  0  0  0  0  0  0  0  0  0  0
   20.0063  -10.2941  -15.5503 O   0  0  0  0  0  0  0  0  0  0  0  0
   18.9022   -9.1476  -17.2035 N   0  0  0  0  0  0  0  0  0  0  0  0
   18.2285   -9.3348  -18.5131 C   0  0  0  0  0  0  0  0  0  0  0  0
   17.5802   -8.0111  -18.8344 C   0  0  0  0  0  0  0  0  0  0  0  0
   17.9523   -7.1098  -17.6827 C   0  0  0  0  0  0  0  0  0  0  0  0
   19.2766   -7.7847  -17.2262 C   0  0  1  0  0  0  0  0  0  0  0  0
   19.6663   -7.1139  -16.0048 C   0  0  0  0  0  0  0  0  0  0  0  0
   19.0158   -7.1738  -14.9525 O   0  0  0  0  0  0  0  0  0  0  0  0
   20.8669   -6.3051  -15.9178 N   0  0  0  0  0  0  0  0  0  0  0  0
   21.2614   -5.6263  -14.7272 C   0  0  1  0  0  0  0  0  0  0  0  0
   22.7296   -5.8768  -14.3419 C   0  0  0  0  0  0  0  0  0  0  0  0
   23.0103   -4.8253  -12.8672 S   0  0  0  0  0  0  0  0  0  0  0  0
   21.1601   -4.1639  -14.9426 C   0  0  0  0  0  0  0  0  0  0  0  0
   21.4537   -3.6874  -16.0621 O   0  0  0  0  0  0  0  0  0  0  0  0
   20.7504   -3.2598  -13.9599 O   0  0  0  0  0  0  0  0  0  0  0  0
  1  2  1  0
  2  3  2  0
  4  2  1  0
  4  5  1  0
  5  6  1  1
  7  5  1  0
  7  8  2  0
  9  7  1  0
 10  9  1  0
 11 10  1  0
 11 12  1  0
 12 13  1  0
 13  9  1  0
 13 14  1  1
 15 14  2  0
 16 14  1  0
 17 20  1  0
 17 16  1  0
 17 18  1  6
 19 18  1  0
 20 22  1  0
 21 20  2  0
M  END
$$$$
