NPC.pdb
     RDKit          3D

 22 22  0  0  1  0  0  0  0  0999 V2000
   16.4685  -15.5618  -16.6230 N   0  0  0  0  0  0  0  0  0  0  0  0
   16.5641  -14.7657  -15.4367 C   0  0  0  0  0  0  0  0  0  0  0  0
   15.8085  -15.0023  -14.4446 O   0  0  0  0  0  0  0  0  0  0  0  0
   17.5601  -13.6627  -15.3851 C   0  0  0  0  0  0  0  0  0  0  0  0
   18.2892  -13.5448  -16.7216 C   0  0  2  0  0  0  0  0  0  0  0  0
   19.1892  -14.7217  -16.8158 N   0  0  0  0  0  0  0  0  0  0  0  0
   19.1207  -12.3269  -16.7787 C   0  0  0  0  0  0  0  0  0  0  0  0
   20.1299  -12.2975  -16.0491 O   0  0  0  0  0  0  0  0  0  0  0  0
   18.8249  -11.2275  -17.6043 N   0  0  0  0  0  0  0  0  0  0  0  0
   18.0834  -11.4303  -18.8744 C   0  0  0  0  0  0  0  0  0  0  0  0
   17.2804  -10.1709  -19.0867 C   0  0  0  0  0  0  0  0  0  0  0  0
   17.6376   -9.2844  -17.9190 C   0  0  0  0  0  0  0  0  0  0  0  0
   19.0536   -9.8327  -17.5845 C   0  0  1  0  0  0  0  0  0  0  0  0
   19.4571   -9.1761  -16.3598 C   0  0  0  0  0  0  0  0  0  0  0  0
   18.8722   -9.3241  -15.2781 O   0  0  0  0  0  0  0  0  0  0  0  0
   20.5946   -8.2782  -16.3042 N   0  0  0  0  0  0  0  0  0  0  0  0
   20.9890   -7.5974  -15.1147 C   0  0  1  0  0  0  0  0  0  0  0  0
   22.5129   -7.5723  -14.9048 C   0  0  0  0  0  0  0  0  0  0  0  0
   22.9450   -9.2865  -14.4211 S   0  0  0  0  0  0  0  0  0  0  0  0
   20.5862   -6.1747  -15.2100 C   0  0  0  0  0  0  0  0  0  0  0  0
   20.6730   -5.4439  -14.1977 O   0  0  0  0  0  0  0  0  0  0  0  0
   20.1051   -5.5796  -16.3784 O   0  0  0  0  0  0  0  0  0  0  0  0
  1  2  1  0
  2  3  2  0
  4  2  1  0
  4  5  1  0
  5  6  1  1
  7  5  1  0
  7  8  2  0
  9  7  1  0
 10  9  1  0
 11 10  1  0
 11 12  1  0
 12 13  1  0
 13  9  1  0
 13 14  1  1
 15 14  2  0
 16 14  1  0
 17 20  1  0
 17 16  1  0
 17 18  1  6
 19 18  1  0
 20 22  1  0
 21 20  2  0
M  END
$$$$
