NPC.pdb
     RDKit          3D

 22 22  0  0  1  0  0  0  0  0999 V2000
   18.5466  -11.2683  -21.6146 N   0  0  0  0  0  0  0  0  0  0  0  0
   17.6715  -10.7707  -20.5965 C   0  0  0  0  0  0  0  0  0  0  0  0
   16.4479  -10.5531  -20.8546 O   0  0  0  0  0  0  0  0  0  0  0  0
   18.2164  -10.5159  -19.2365 C   0  0  0  0  0  0  0  0  0  0  0  0
   19.6941  -10.8964  -19.1785 C   0  0  2  0  0  0  0  0  0  0  0  0
   19.7468  -12.3799  -19.1606 N   0  0  0  0  0  0  0  0  0  0  0  0
   20.3322  -10.4008  -17.9436 C   0  0  0  0  0  0  0  0  0  0  0  0
   19.9455  -10.8986  -16.8691 O   0  0  0  0  0  0  0  0  0  0  0  0
   21.3344   -9.4142  -17.9341 N   0  0  0  0  0  0  0  0  0  0  0  0
   22.2781   -9.3028  -19.0748 C   0  0  0  0  0  0  0  0  0  0  0  0
   22.6321   -7.8396  -19.1735 C   0  0  0  0  0  0  0  0  0  0  0  0
   21.8812   -7.1839  -18.0406 C   0  0  0  0  0  0  0  0  0  0  0  0
   21.7607   -8.3864  -17.0623 C   0  0  1  0  0  0  0  0  0  0  0  0
   20.9039   -7.9405  -15.9849 C   0  0  0  0  0  0  0  0  0  0  0  0
   19.7298   -7.5807  -16.1472 O   0  0  0  0  0  0  0  0  0  0  0  0
   21.3618   -7.8775  -14.6103 N   0  0  0  0  0  0  0  0  0  0  0  0
   20.5236   -7.4706  -13.5305 C   0  0  1  0  0  0  0  0  0  0  0  0
   20.7839   -8.2512  -12.2307 C   0  0  0  0  0  0  0  0  0  0  0  0
   19.4757   -7.6864  -11.0780 S   0  0  0  0  0  0  0  0  0  0  0  0
   20.8089   -6.0553  -13.1978 C   0  0  0  0  0  0  0  0  0  0  0  0
   21.9921   -5.6478  -13.2157 O   0  0  0  0  0  0  0  0  0  0  0  0
   19.8258   -5.1233  -12.8573 O   0  0  0  0  0  0  0  0  0  0  0  0
  1  2  1  0
  2  3  2  0
  4  2  1  0
  4  5  1  0
  5  6  1  1
  7  5  1  0
  7  8  2  0
  9  7  1  0
 10  9  1  0
 11 10  1  0
 11 12  1  0
 12 13  1  0
 13  9  1  0
 13 14  1  1
 15 14  2  0
 16 14  1  0
 17 20  1  0
 17 16  1  0
 17 18  1  1
 19 18  1  0
 20 22  1  0
 21 20  2  0
M  END
$$$$
