NPC.pdb
     RDKit          3D

 22 22  0  0  1  0  0  0  0  0999 V2000
   25.4603  -24.0135  -19.8556 N   0  0  0  0  0  0  0  0  0  0  0  0
   25.3644  -22.8162  -19.0762 C   0  0  0  0  0  0  0  0  0  0  0  0
   24.8516  -21.7675  -19.5746 O   0  0  0  0  0  0  0  0  0  0  0  0
   25.8713  -22.8216  -17.6782 C   0  0  0  0  0  0  0  0  0  0  0  0
   27.1805  -22.0410  -17.5869 C   0  0  2  0  0  0  0  0  0  0  0  0
   28.2345  -22.9179  -18.1562 N   0  0  0  0  0  0  0  0  0  0  0  0
   27.5379  -21.7461  -16.1857 C   0  0  0  0  0  0  0  0  0  0  0  0
   27.8523  -22.7142  -15.4675 O   0  0  0  0  0  0  0  0  0  0  0  0
   27.5374  -20.4479  -15.6450 N   0  0  0  0  0  0  0  0  0  0  0  0
   28.0253  -19.3048  -16.4569 C   0  0  0  0  0  0  0  0  0  0  0  0
   27.2245  -18.1088  -16.0051 C   0  0  0  0  0  0  0  0  0  0  0  0
   26.3253  -18.6365  -14.9143 C   0  0  0  0  0  0  0  0  0  0  0  0
   27.1750  -19.8415  -14.4207 C   0  0  1  0  0  0  0  0  0  0  0  0
   26.3464  -20.5520  -13.4708 C   0  0  0  0  0  0  0  0  0  0  0  0
   25.3732  -21.2462  -13.7951 O   0  0  0  0  0  0  0  0  0  0  0  0
   26.5944  -20.5038  -12.0428 N   0  0  0  0  0  0  0  0  0  0  0  0
   25.6538  -20.9653  -11.0752 C   0  0  1  0  0  0  0  0  0  0  0  0
   25.9448  -20.4569   -9.6527 C   0  0  0  0  0  0  0  0  0  0  0  0
   24.6331  -21.2040   -8.6132 S   0  0  0  0  0  0  0  0  0  0  0  0
   24.3105  -20.4371  -11.4096 C   0  0  0  0  0  0  0  0  0  0  0  0
   24.1823  -19.2258  -11.6972 O   0  0  0  0  0  0  0  0  0  0  0  0
   23.1509  -21.2155  -11.4261 O   0  0  0  0  0  0  0  0  0  0  0  0
  1  2  1  0
  2  3  2  0
  4  2  1  0
  4  5  1  0
  5  6  1  1
  7  5  1  0
  7  8  2  0
  9  7  1  0
 10  9  1  0
 11 10  1  0
 11 12  1  0
 12 13  1  0
 13  9  1  0
 13 14  1  1
 15 14  2  0
 16 14  1  0
 17 20  1  0
 17 16  1  0
 17 18  1  1
 19 18  1  0
 20 22  1  0
 21 20  2  0
M  END
$$$$
