NPC.pdb
     RDKit          3D

 22 22  0  0  1  0  0  0  0  0999 V2000
   17.8686  -13.0381  -18.8176 N   0  0  0  0  0  0  0  0  0  0  0  0
   17.2816  -12.1282  -17.8808 C   0  0  0  0  0  0  0  0  0  0  0  0
   16.0268  -12.1276  -17.6894 O   0  0  0  0  0  0  0  0  0  0  0  0
   18.1624  -11.1888  -17.1370 C   0  0  0  0  0  0  0  0  0  0  0  0
   19.6167  -11.3778  -17.5622 C   0  0  2  0  0  0  0  0  0  0  0  0
   20.0742  -12.6484  -16.9456 N   0  0  0  0  0  0  0  0  0  0  0  0
   20.4742  -10.2886  -17.0561 C   0  0  0  0  0  0  0  0  0  0  0  0
   20.6064  -10.2018  -15.8204 O   0  0  0  0  0  0  0  0  0  0  0  0
   21.1309   -9.3695  -17.8938 N   0  0  0  0  0  0  0  0  0  0  0  0
   21.5521   -9.7768  -19.2579 C   0  0  0  0  0  0  0  0  0  0  0  0
   21.4659   -8.5306  -20.1036 C   0  0  0  0  0  0  0  0  0  0  0  0
   21.0214   -7.4480  -19.1510 C   0  0  0  0  0  0  0  0  0  0  0  0
   21.5614   -8.0255  -17.8121 C   0  0  1  0  0  0  0  0  0  0  0  0
   21.0550   -7.1585  -16.7701 C   0  0  0  0  0  0  0  0  0  0  0  0
   19.8502   -7.0224  -16.5173 O   0  0  0  0  0  0  0  0  0  0  0  0
   21.9333   -6.3681  -15.9294 N   0  0  0  0  0  0  0  0  0  0  0  0
   21.4576   -5.5478  -14.8641 C   0  0  1  0  0  0  0  0  0  0  0  0
   22.4521   -5.4296  -13.6963 C   0  0  0  0  0  0  0  0  0  0  0  0
   22.5214   -7.1113  -12.9710 S   0  0  0  0  0  0  0  0  0  0  0  0
   21.2727   -4.1636  -15.3590 C   0  0  0  0  0  0  0  0  0  0  0  0
   21.7965   -3.8255  -16.4442 O   0  0  0  0  0  0  0  0  0  0  0  0
   20.5375   -3.1876  -14.6822 O   0  0  0  0  0  0  0  0  0  0  0  0
  1  2  1  0
  2  3  2  0
  4  2  1  0
  4  5  1  0
  5  6  1  1
  7  5  1  0
  7  8  2  0
  9  7  1  0
 10  9  1  0
 11 10  1  0
 11 12  1  0
 12 13  1  0
 13  9  1  0
 13 14  1  1
 15 14  2  0
 16 14  1  0
 17 20  1  0
 17 16  1  0
 17 18  1  1
 19 18  1  0
 20 22  1  0
 21 20  2  0
M  END
$$$$
