IGW.pdb
     RDKit          3D

 27 28  0  0  1  0  0  0  0  0999 V2000
   24.6005  -14.6825  -14.7757 C   0  0  0  0  0  0  0  0  0  0  0  0
   24.6691  -16.0261  -15.4574 C   0  0  0  0  0  0  0  0  0  0  0  0
   25.9749  -16.7540  -15.1538 C   0  0  2  0  0  0  0  0  0  0  0  0
   26.9700  -16.4220  -16.2094 C   0  0  0  0  0  0  0  0  0  0  0  0
   25.6536  -18.2124  -14.9997 C   0  0  2  0  0  0  0  0  0  0  0  0
   24.6795  -18.2827  -13.8955 N   0  0  0  0  0  0  0  0  0  0  0  0
   26.7935  -19.0740  -14.6896 C   0  0  0  0  0  0  0  0  0  0  0  0
   27.6469  -19.3238  -15.6081 O   0  0  0  0  0  0  0  0  0  0  0  0
   27.0587  -19.6793  -13.4368 N   0  0  0  0  0  0  0  0  0  0  0  0
   28.2581  -20.4489  -13.1686 C   0  0  0  0  0  0  0  0  0  0  0  0
   28.2941  -20.9481  -11.7715 C   0  0  0  0  0  0  0  0  0  0  0  0
   29.2386  -21.6531  -11.3363 O   0  0  0  0  0  0  0  0  0  0  0  0
   27.2231  -20.6151  -10.9023 N   0  0  0  0  0  0  0  0  0  0  0  0
   26.6728  -21.4947   -9.9209 C   0  0  1  0  0  0  0  0  0  0  0  0
   27.5746  -21.6746   -8.7213 C   0  0  0  0  0  0  0  0  0  0  0  0
   27.5010  -20.4798   -7.8443 C   0  0  0  0  0  0  0  0  0  0  0  0
   26.8222  -19.2931   -8.0561 C   0  0  0  0  0  0  0  0  0  0  0  0
   27.0184  -18.4671   -7.0096 N   0  0  0  0  0  0  0  0  0  0  0  0
   27.8026  -19.0687   -6.1163 C   0  0  0  0  0  0  0  0  0  0  0  0
   28.3353  -18.7387   -4.8867 C   0  0  0  0  0  0  0  0  0  0  0  0
   29.1412  -19.5975   -4.1718 C   0  0  0  0  0  0  0  0  0  0  0  0
   29.4504  -20.8315   -4.6602 C   0  0  0  0  0  0  0  0  0  0  0  0
   28.9226  -21.1856   -5.9012 C   0  0  0  0  0  0  0  0  0  0  0  0
   28.1195  -20.3342   -6.6174 C   0  0  0  0  0  0  0  0  0  0  0  0
   25.3076  -21.0914   -9.5395 C   0  0  0  0  0  0  0  0  0  0  0  0
   24.7690  -19.9559  -10.1365 O   0  0  0  0  0  0  0  0  0  0  0  0
   24.6630  -21.7698   -8.6943 O   0  0  0  0  0  0  0  0  0  0  0  0
  2  1  1  0
  3  2  1  0
  3  5  1  0
  3  4  1  6
  5  6  1  1
  7  5  1  0
  7  9  1  0
  8  7  2  0
 10  9  1  0
 11 10  1  0
 12 11  2  0
 13 11  1  0
 14 25  1  0
 14 13  1  0
 14 15  1  1
 16 15  1  0
 17 16  2  0
 18 19  1  0
 18 17  1  0
 19 24  2  0
 20 19  1  0
 20 21  2  0
 21 22  1  0
 22 23  2  0
 24 16  1  0
 24 23  1  0
 25 26  1  0
 27 25  2  0
M  END
$$$$
