IGW.pdb
     RDKit          3D

 27 28  0  0  1  0  0  0  0  0999 V2000
   27.8800  -17.1130  -19.6825 C   0  0  0  0  0  0  0  0  0  0  0  0
   26.9821  -17.8000  -18.6843 C   0  0  0  0  0  0  0  0  0  0  0  0
   27.6873  -18.0399  -17.3530 C   0  0  2  0  0  0  0  0  0  0  0  0
   28.9469  -18.7924  -17.6020 C   0  0  0  0  0  0  0  0  0  0  0  0
   26.7038  -18.7056  -16.4346 C   0  0  2  0  0  0  0  0  0  0  0  0
   25.5658  -17.7733  -16.3400 N   0  0  0  0  0  0  0  0  0  0  0  0
   27.2008  -18.9942  -15.0901 C   0  0  0  0  0  0  0  0  0  0  0  0
   27.9632  -20.0057  -14.9173 O   0  0  0  0  0  0  0  0  0  0  0  0
   26.9163  -18.2447  -13.9224 N   0  0  0  0  0  0  0  0  0  0  0  0
   27.4448  -18.5857  -12.6158 C   0  0  0  0  0  0  0  0  0  0  0  0
   26.6214  -19.6177  -11.9381 C   0  0  0  0  0  0  0  0  0  0  0  0
   25.6139  -20.1345  -12.4825 O   0  0  0  0  0  0  0  0  0  0  0  0
   26.9887  -20.0309  -10.6313 N   0  0  0  0  0  0  0  0  0  0  0  0
   26.3129  -21.0408   -9.8810 C   0  0  1  0  0  0  0  0  0  0  0  0
   27.0754  -21.4653   -8.6469 C   0  0  0  0  0  0  0  0  0  0  0  0
   27.1791  -20.3307   -7.6961 C   0  0  0  0  0  0  0  0  0  0  0  0
   26.6586  -19.0544   -7.8140 C   0  0  0  0  0  0  0  0  0  0  0  0
   26.9847  -18.3309   -6.7249 N   0  0  0  0  0  0  0  0  0  0  0  0
   27.7016  -19.0865   -5.8941 C   0  0  0  0  0  0  0  0  0  0  0  0
   28.2994  -18.9095   -4.6630 C   0  0  0  0  0  0  0  0  0  0  0  0
   29.0000  -19.9109   -4.0267 C   0  0  0  0  0  0  0  0  0  0  0  0
   29.1329  -21.1403   -4.5993 C   0  0  0  0  0  0  0  0  0  0  0  0
   28.5364  -21.3410   -5.8435 C   0  0  0  0  0  0  0  0  0  0  0  0
   27.8376  -20.3472   -6.4816 C   0  0  0  0  0  0  0  0  0  0  0  0
   24.9258  -20.6481   -9.5746 C   0  0  0  0  0  0  0  0  0  0  0  0
   24.0420  -21.6377   -9.1556 O   0  0  0  0  0  0  0  0  0  0  0  0
   24.5704  -19.4443   -9.6951 O   0  0  0  0  0  0  0  0  0  0  0  0
  2  1  1  0
  3  2  1  0
  3  5  1  0
  3  4  1  6
  5  6  1  1
  7  5  1  0
  7  9  1  0
  8  7  2  0
 10  9  1  0
 11 10  1  0
 12 11  2  0
 13 11  1  0
 14 25  1  0
 14 13  1  0
 14 15  1  1
 16 15  1  0
 17 16  2  0
 18 19  1  0
 18 17  1  0
 19 24  2  0
 20 19  1  0
 20 21  2  0
 21 22  1  0
 22 23  2  0
 24 16  1  0
 24 23  1  0
 25 26  1  0
 27 25  2  0
M  END
$$$$
