IGW.pdb
     RDKit          3D

 27 28  0  0  1  0  0  0  0  0999 V2000
   24.4808  -14.7351  -16.8330 C   0  0  0  0  0  0  0  0  0  0  0  0
   24.2091  -16.0862  -16.2203 C   0  0  0  0  0  0  0  0  0  0  0  0
   25.0701  -17.1795  -16.8451 C   0  0  2  0  0  0  0  0  0  0  0  0
   24.7786  -17.2505  -18.3028 C   0  0  0  0  0  0  0  0  0  0  0  0
   24.8267  -18.4431  -16.0718 C   0  0  2  0  0  0  0  0  0  0  0  0
   23.3800  -18.7002  -16.1902 N   0  0  0  0  0  0  0  0  0  0  0  0
   25.1903  -18.3895  -14.6565 C   0  0  0  0  0  0  0  0  0  0  0  0
   24.3567  -17.8952  -13.8229 O   0  0  0  0  0  0  0  0  0  0  0  0
   26.4093  -18.8434  -14.0959 N   0  0  0  0  0  0  0  0  0  0  0  0
   26.7213  -18.7294  -12.6844 C   0  0  0  0  0  0  0  0  0  0  0  0
   26.2256  -19.8958  -11.9124 C   0  0  0  0  0  0  0  0  0  0  0  0
   25.3170  -20.6481  -12.3448 O   0  0  0  0  0  0  0  0  0  0  0  0
   26.8006  -20.1658  -10.6435 N   0  0  0  0  0  0  0  0  0  0  0  0
   26.3921  -21.2259   -9.7780 C   0  0  1  0  0  0  0  0  0  0  0  0
   27.4232  -21.5530   -8.7223 C   0  0  0  0  0  0  0  0  0  0  0  0
   27.5620  -20.4184   -7.7761 C   0  0  0  0  0  0  0  0  0  0  0  0
   26.9932  -19.1593   -7.8476 C   0  0  0  0  0  0  0  0  0  0  0  0
   27.3774  -18.4287   -6.7824 N   0  0  0  0  0  0  0  0  0  0  0  0
   28.1792  -19.1629   -6.0123 C   0  0  0  0  0  0  0  0  0  0  0  0
   28.8626  -18.9700   -4.8290 C   0  0  0  0  0  0  0  0  0  0  0  0
   29.6412  -19.9498   -4.2528 C   0  0  0  0  0  0  0  0  0  0  0  0
   29.7699  -21.1726   -4.8403 C   0  0  0  0  0  0  0  0  0  0  0  0
   29.0877  -21.3891   -6.0369 C   0  0  0  0  0  0  0  0  0  0  0  0
   28.3109  -20.4169   -6.6150 C   0  0  0  0  0  0  0  0  0  0  0  0
   25.0612  -20.9681   -9.1998 C   0  0  0  0  0  0  0  0  0  0  0  0
   24.5021  -19.7067   -9.3792 O   0  0  0  0  0  0  0  0  0  0  0  0
   24.4633  -21.8782   -8.5641 O   0  0  0  0  0  0  0  0  0  0  0  0
  2  1  1  0
  3  2  1  0
  3  5  1  0
  3  4  1  6
  5  6  1  1
  7  5  1  0
  7  9  1  0
  8  7  2  0
 10  9  1  0
 11 10  1  0
 12 11  2  0
 13 11  1  0
 14 25  1  0
 14 13  1  0
 14 15  1  1
 16 15  1  0
 17 16  2  0
 18 19  1  0
 18 17  1  0
 19 24  2  0
 20 19  1  0
 20 21  2  0
 21 22  1  0
 22 23  2  0
 24 16  1  0
 24 23  1  0
 25 26  1  0
 27 25  2  0
M  END
$$$$
