IGW.pdb
     RDKit          3D

 27 28  0  0  1  0  0  0  0  0999 V2000
   32.5261  -38.2975   -4.2233 C   0  0  0  0  0  0  0  0  0  0  0  0
   32.8400  -37.5623   -2.9444 C   0  0  0  0  0  0  0  0  0  0  0  0
   33.1410  -36.0876   -3.1932 C   0  0  2  0  0  0  0  0  0  0  0  0
   34.3472  -35.9798   -4.0583 C   0  0  0  0  0  0  0  0  0  0  0  0
   33.2395  -35.4149   -1.8547 C   0  0  2  0  0  0  0  0  0  0  0  0
   34.2525  -36.1812   -1.1066 N   0  0  0  0  0  0  0  0  0  0  0  0
   31.9989  -35.3769   -1.0816 C   0  0  0  0  0  0  0  0  0  0  0  0
   31.0337  -34.6494   -1.4979 O   0  0  0  0  0  0  0  0  0  0  0  0
   31.7480  -36.0858    0.1187 N   0  0  0  0  0  0  0  0  0  0  0  0
   30.4814  -36.0260    0.8222 C   0  0  0  0  0  0  0  0  0  0  0  0
   30.5014  -35.0197    1.9128 C   0  0  0  0  0  0  0  0  0  0  0  0
   31.4514  -34.2108    2.0604 O   0  0  0  0  0  0  0  0  0  0  0  0
   29.4084  -34.9741    2.8165 N   0  0  0  0  0  0  0  0  0  0  0  0
   29.3817  -34.2013    4.0172 C   0  0  1  0  0  0  0  0  0  0  0  0
   27.9942  -34.0736    4.6031 C   0  0  0  0  0  0  0  0  0  0  0  0
   27.1115  -33.3339    3.6673 C   0  0  0  0  0  0  0  0  0  0  0  0
   26.6963  -33.7001    2.3995 C   0  0  0  0  0  0  0  0  0  0  0  0
   25.8989  -32.7406    1.8903 N   0  0  0  0  0  0  0  0  0  0  0  0
   25.7747  -31.7555    2.7787 C   0  0  0  0  0  0  0  0  0  0  0  0
   25.1105  -30.5469    2.8289 C   0  0  0  0  0  0  0  0  0  0  0  0
   25.1718  -29.7105    3.9220 C   0  0  0  0  0  0  0  0  0  0  0  0
   25.9055  -30.0504    5.0189 C   0  0  0  0  0  0  0  0  0  0  0  0
   26.5848  -31.2677    4.9895 C   0  0  0  0  0  0  0  0  0  0  0  0
   26.5271  -32.1044    3.9035 C   0  0  0  0  0  0  0  0  0  0  0  0
   30.3611  -34.6974    5.0003 C   0  0  0  0  0  0  0  0  0  0  0  0
   31.0107  -35.8977    4.7295 O   0  0  0  0  0  0  0  0  0  0  0  0
   30.5892  -34.0379    6.0505 O   0  0  0  0  0  0  0  0  0  0  0  0
  2  1  1  0
  3  2  1  0
  3  5  1  0
  3  4  1  1
  5  6  1  1
  7  5  1  0
  7  9  1  0
  8  7  2  0
 10  9  1  0
 11 10  1  0
 12 11  2  0
 13 11  1  0
 14 25  1  0
 14 13  1  0
 14 15  1  1
 16 15  1  0
 17 16  2  0
 18 19  1  0
 18 17  1  0
 19 24  2  0
 20 19  1  0
 20 21  2  0
 21 22  1  0
 22 23  2  0
 24 16  1  0
 24 23  1  0
 25 26  1  0
 27 25  2  0
M  END
$$$$
