IGW.pdb
     RDKit          3D

 27 28  0  0  1  0  0  0  0  0999 V2000
   25.3057  -15.7523  -15.4005 C   0  0  0  0  0  0  0  0  0  0  0  0
   25.9369  -17.0832  -15.7244 C   0  0  0  0  0  0  0  0  0  0  0  0
   26.3617  -17.8344  -14.4665 C   0  0  2  0  0  0  0  0  0  0  0  0
   27.7011  -17.3450  -14.0404 C   0  0  0  0  0  0  0  0  0  0  0  0
   26.2717  -19.3029  -14.7655 C   0  0  2  0  0  0  0  0  0  0  0  0
   24.9409  -19.4971  -15.3689 N   0  0  0  0  0  0  0  0  0  0  0  0
   26.4073  -20.1857  -13.6078 C   0  0  0  0  0  0  0  0  0  0  0  0
   25.4257  -20.2953  -12.7963 O   0  0  0  0  0  0  0  0  0  0  0  0
   27.5499  -20.9570  -13.2826 N   0  0  0  0  0  0  0  0  0  0  0  0
   27.6525  -21.7459  -12.0702 C   0  0  0  0  0  0  0  0  0  0  0  0
   27.8545  -20.8945  -10.8717 C   0  0  0  0  0  0  0  0  0  0  0  0
   28.3247  -19.7318  -10.9475 O   0  0  0  0  0  0  0  0  0  0  0  0
   27.5033  -21.4160   -9.5996 N   0  0  0  0  0  0  0  0  0  0  0  0
   26.6409  -20.7638   -8.6666 C   0  0  1  0  0  0  0  0  0  0  0  0
   26.8452  -19.2668   -8.6246 C   0  0  0  0  0  0  0  0  0  0  0  0
   27.5273  -18.8804   -7.3647 C   0  0  0  0  0  0  0  0  0  0  0  0
   27.7413  -17.6136   -6.8516 C   0  0  0  0  0  0  0  0  0  0  0  0
   28.4019  -17.7058   -5.6807 N   0  0  0  0  0  0  0  0  0  0  0  0
   28.6303  -18.9892   -5.4051 C   0  0  0  0  0  0  0  0  0  0  0  0
   29.2418  -19.6879   -4.3842 C   0  0  0  0  0  0  0  0  0  0  0  0
   29.3277  -21.0630   -4.3729 C   0  0  0  0  0  0  0  0  0  0  0  0
   28.8016  -21.8022   -5.3895 C   0  0  0  0  0  0  0  0  0  0  0  0
   28.1789  -21.1163   -6.4316 C   0  0  0  0  0  0  0  0  0  0  0  0
   28.0906  -19.7471   -6.4479 C   0  0  0  0  0  0  0  0  0  0  0  0
   25.2306  -21.1303   -8.8879 C   0  0  0  0  0  0  0  0  0  0  0  0
   24.3410  -20.9811   -7.8286 O   0  0  0  0  0  0  0  0  0  0  0  0
   24.8614  -21.5649  -10.0125 O   0  0  0  0  0  0  0  0  0  0  0  0
  2  1  1  0
  3  2  1  0
  3  5  1  0
  3  4  1  6
  5  6  1  1
  7  5  1  0
  7  9  1  0
  8  7  2  0
 10  9  1  0
 11 10  1  0
 12 11  2  0
 13 11  1  0
 14 25  1  0
 14 13  1  0
 14 15  1  6
 16 15  1  0
 17 16  2  0
 18 19  1  0
 18 17  1  0
 19 24  2  0
 20 19  1  0
 20 21  2  0
 21 22  1  0
 22 23  2  0
 24 16  1  0
 24 23  1  0
 25 26  1  0
 27 25  2  0
M  END
$$$$
