IGW.pdb
     RDKit          3D

 27 28  0  0  1  0  0  0  0  0999 V2000
   24.0612  -19.1890  -19.6372 C   0  0  0  0  0  0  0  0  0  0  0  0
   23.6294  -20.2187  -18.6234 C   0  0  0  0  0  0  0  0  0  0  0  0
   24.7814  -20.6483  -17.7204 C   0  0  2  0  0  0  0  0  0  0  0  0
   25.1219  -22.0672  -18.0133 C   0  0  0  0  0  0  0  0  0  0  0  0
   24.3780  -20.3563  -16.3040 C   0  0  2  0  0  0  0  0  0  0  0  0
   24.2919  -18.8872  -16.2181 N   0  0  0  0  0  0  0  0  0  0  0  0
   25.2994  -20.8438  -15.2787 C   0  0  0  0  0  0  0  0  0  0  0  0
   25.2392  -22.0715  -14.9275 O   0  0  0  0  0  0  0  0  0  0  0  0
   26.2833  -20.0720  -14.6136 N   0  0  0  0  0  0  0  0  0  0  0  0
   27.2023  -20.6307  -13.6410 C   0  0  0  0  0  0  0  0  0  0  0  0
   26.8077  -20.2947  -12.2504 C   0  0  0  0  0  0  0  0  0  0  0  0
   26.6469  -19.1088  -11.8678 O   0  0  0  0  0  0  0  0  0  0  0  0
   26.6068  -21.3521  -11.3258 N   0  0  0  0  0  0  0  0  0  0  0  0
   26.2587  -21.1723   -9.9525 C   0  0  1  0  0  0  0  0  0  0  0  0
   27.3151  -20.4249   -9.1714 C   0  0  0  0  0  0  0  0  0  0  0  0
   26.9256  -20.3366   -7.7423 C   0  0  0  0  0  0  0  0  0  0  0  0
   25.7153  -20.6595   -7.1551 C   0  0  0  0  0  0  0  0  0  0  0  0
   25.7811  -20.4308   -5.8287 N   0  0  0  0  0  0  0  0  0  0  0  0
   26.9925  -19.9687   -5.5222 C   0  0  0  0  0  0  0  0  0  0  0  0
   27.6360  -19.5693   -4.3686 C   0  0  0  0  0  0  0  0  0  0  0  0
   28.9392  -19.1223   -4.3619 C   0  0  0  0  0  0  0  0  0  0  0  0
   29.6588  -19.0555   -5.5172 C   0  0  0  0  0  0  0  0  0  0  0  0
   29.0279  -19.4544   -6.6949 C   0  0  0  0  0  0  0  0  0  0  0  0
   27.7302  -19.9004   -6.7072 C   0  0  0  0  0  0  0  0  0  0  0  0
   24.9230  -20.5662   -9.8093 C   0  0  0  0  0  0  0  0  0  0  0  0
   23.8769  -21.3789   -9.3838 O   0  0  0  0  0  0  0  0  0  0  0  0
   24.7543  -19.3441  -10.0700 O   0  0  0  0  0  0  0  0  0  0  0  0
  2  1  1  0
  3  2  1  0
  3  5  1  0
  3  4  1  1
  5  6  1  6
  7  5  1  0
  7  9  1  0
  8  7  2  0
 10  9  1  0
 11 10  1  0
 12 11  2  0
 13 11  1  0
 14 25  1  0
 14 13  1  0
 14 15  1  6
 16 15  1  0
 17 16  2  0
 18 19  1  0
 18 17  1  0
 19 24  2  0
 20 19  1  0
 20 21  2  0
 21 22  1  0
 22 23  2  0
 24 16  1  0
 24 23  1  0
 25 26  1  0
 27 25  2  0
M  END
$$$$
