IGW.pdb
     RDKit          3D

 27 28  0  0  1  0  0  0  0  0999 V2000
   21.8464  -10.4712    8.1559 C   0  0  0  0  0  0  0  0  0  0  0  0
   20.6422  -11.0357    7.4448 C   0  0  0  0  0  0  0  0  0  0  0  0
   20.1851  -12.3560    8.0572 C   0  0  2  0  0  0  0  0  0  0  0  0
   21.3646  -13.2498    8.2147 C   0  0  0  0  0  0  0  0  0  0  0  0
   19.0748  -12.8910    7.1997 C   0  0  2  0  0  0  0  0  0  0  0  0
   17.9737  -11.9206    7.3372 N   0  0  0  0  0  0  0  0  0  0  0  0
   18.5901  -14.2217    7.5635 C   0  0  0  0  0  0  0  0  0  0  0  0
   19.3761  -15.2217    7.4360 O   0  0  0  0  0  0  0  0  0  0  0  0
   17.2987  -14.5268    8.0588 N   0  0  0  0  0  0  0  0  0  0  0  0
   16.9235  -15.8463    8.5288 C   0  0  0  0  0  0  0  0  0  0  0  0
   16.2538  -16.6411    7.4695 C   0  0  0  0  0  0  0  0  0  0  0  0
   15.0187  -16.5627    7.2532 O   0  0  0  0  0  0  0  0  0  0  0  0
   17.0396  -17.5177    6.6773 N   0  0  0  0  0  0  0  0  0  0  0  0
   16.5136  -18.4225    5.7057 C   0  0  1  0  0  0  0  0  0  0  0  0
   16.8896  -18.0487    4.2902 C   0  0  0  0  0  0  0  0  0  0  0  0
   16.3306  -16.7172    3.9488 C   0  0  0  0  0  0  0  0  0  0  0  0
   15.0521  -16.2353    4.1661 C   0  0  0  0  0  0  0  0  0  0  0  0
   14.9599  -14.9732    3.7031 N   0  0  0  0  0  0  0  0  0  0  0  0
   16.1331  -14.6074    3.1886 C   0  0  0  0  0  0  0  0  0  0  0  0
   16.6384  -13.4732    2.5862 C   0  0  0  0  0  0  0  0  0  0  0  0
   17.9390  -13.3860    2.1399 C   0  0  0  0  0  0  0  0  0  0  0  0
   18.7950  -14.4371    2.2783 C   0  0  0  0  0  0  0  0  0  0  0  0
   18.3051  -15.5933    2.8844 C   0  0  0  0  0  0  0  0  0  0  0  0
   17.0108  -15.6855    3.3307 C   0  0  0  0  0  0  0  0  0  0  0  0
   16.8584  -19.8191    6.0262 C   0  0  0  0  0  0  0  0  0  0  0  0
   17.5959  -20.0635    7.1805 O   0  0  0  0  0  0  0  0  0  0  0  0
   16.4861  -20.7512    5.2630 O   0  0  0  0  0  0  0  0  0  0  0  0
  2  1  1  0
  3  2  1  0
  3  5  1  0
  3  4  1  6
  5  6  1  1
  7  5  1  0
  7  9  1  0
  8  7  2  0
 10  9  1  0
 11 10  1  0
 12 11  2  0
 13 11  1  0
 14 25  1  0
 14 13  1  0
 14 15  1  6
 16 15  1  0
 17 16  2  0
 18 19  1  0
 18 17  1  0
 19 24  2  0
 20 19  1  0
 20 21  2  0
 21 22  1  0
 22 23  2  0
 24 16  1  0
 24 23  1  0
 25 26  1  0
 27 25  2  0
M  END
$$$$
