IGW.pdb
     RDKit          3D

 27 28  0  0  1  0  0  0  0  0999 V2000
   21.7149  -18.3246  -14.4410 C   0  0  0  0  0  0  0  0  0  0  0  0
   22.7755  -19.3964  -14.4093 C   0  0  0  0  0  0  0  0  0  0  0  0
   23.5743  -19.4471  -15.7079 C   0  0  2  0  0  0  0  0  0  0  0  0
   22.6497  -19.7566  -16.8323 C   0  0  0  0  0  0  0  0  0  0  0  0
   24.7010  -20.4189  -15.5072 C   0  0  2  0  0  0  0  0  0  0  0  0
   24.0542  -21.7204  -15.2610 N   0  0  0  0  0  0  0  0  0  0  0  0
   25.6003  -20.1121  -14.3959 C   0  0  0  0  0  0  0  0  0  0  0  0
   26.4822  -19.1993  -14.5488 O   0  0  0  0  0  0  0  0  0  0  0  0
   25.5949  -20.7413  -13.1269 N   0  0  0  0  0  0  0  0  0  0  0  0
   26.4223  -20.2987  -12.0214 C   0  0  0  0  0  0  0  0  0  0  0  0
   26.1585  -21.0780  -10.7864 C   0  0  0  0  0  0  0  0  0  0  0  0
   25.9988  -22.3241  -10.8020 O   0  0  0  0  0  0  0  0  0  0  0  0
   26.0848  -20.3875   -9.5489 N   0  0  0  0  0  0  0  0  0  0  0  0
   25.3897  -20.8635   -8.3957 C   0  0  1  0  0  0  0  0  0  0  0  0
   25.6315  -20.0118   -7.1706 C   0  0  0  0  0  0  0  0  0  0  0  0
   27.0846  -19.7633   -7.0010 C   0  0  0  0  0  0  0  0  0  0  0  0
   28.0180  -19.4081   -7.9584 C   0  0  0  0  0  0  0  0  0  0  0  0
   29.2298  -19.2811   -7.3830 N   0  0  0  0  0  0  0  0  0  0  0  0
   29.1269  -19.5403   -6.0802 C   0  0  0  0  0  0  0  0  0  0  0  0
   29.9932  -19.5711   -5.0065 C   0  0  0  0  0  0  0  0  0  0  0  0
   29.5822  -19.8847   -3.7294 C   0  0  0  0  0  0  0  0  0  0  0  0
   28.2779  -20.1829   -3.4708 C   0  0  0  0  0  0  0  0  0  0  0  0
   27.3852  -20.1577   -4.5415 C   0  0  0  0  0  0  0  0  0  0  0  0
   27.7892  -19.8459   -5.8153 C   0  0  0  0  0  0  0  0  0  0  0  0
   23.9544  -21.0536   -8.6710 C   0  0  0  0  0  0  0  0  0  0  0  0
   23.2063  -21.7976   -7.7640 O   0  0  0  0  0  0  0  0  0  0  0  0
   23.4386  -20.5481   -9.7046 O   0  0  0  0  0  0  0  0  0  0  0  0
  2  1  1  0
  3  2  1  0
  3  5  1  0
  3  4  1  6
  5  6  1  1
  7  5  1  0
  7  9  1  0
  8  7  2  0
 10  9  1  0
 11 10  1  0
 12 11  2  0
 13 11  1  0
 14 25  1  0
 14 13  1  0
 14 15  1  1
 16 15  1  0
 17 16  2  0
 18 19  1  0
 18 17  1  0
 19 24  2  0
 20 19  1  0
 20 21  2  0
 21 22  1  0
 22 23  2  0
 24 16  1  0
 24 23  1  0
 25 26  1  0
 27 25  2  0
M  END
$$$$
