LLK.pdb
     RDKit          3D

 26 25  0  0  1  0  0  0  0  0999 V2000
   20.1893  -15.8770  -18.8715 C   0  0  0  0  0  0  0  0  0  0  0  0
   20.7039  -14.5518  -19.3484 C   0  0  1  0  0  0  0  0  0  0  0  0
   19.7884  -13.9276  -20.3941 C   0  0  0  0  0  0  0  0  0  0  0  0
   20.9585  -13.5793  -18.2224 C   0  0  0  0  0  0  0  0  0  0  0  0
   21.5546  -12.3125  -18.7652 C   0  0  2  0  0  0  0  0  0  0  0  0
   22.8007  -12.5509  -19.4469 N   0  0  0  0  0  0  0  0  0  0  0  0
   21.7898  -11.3417  -17.6675 C   0  0  0  0  0  0  0  0  0  0  0  0
   20.9055  -11.2124  -16.7875 O   0  0  0  0  0  0  0  0  0  0  0  0
   25.0206  -11.1441  -14.4854 C   0  0  0  0  0  0  0  0  0  0  0  0
   25.4327  -10.8250  -15.9426 C   0  0  2  0  0  0  0  0  0  0  0  0
   26.9386  -10.6447  -15.9335 C   0  0  0  0  0  0  0  0  0  0  0  0
   24.7194   -9.5960  -16.3618 C   0  0  0  0  0  0  0  0  0  0  0  0
   23.2424   -9.6586  -16.4932 C   0  0  2  0  0  0  0  0  0  0  0  0
   22.9977  -10.5772  -17.6263 N   0  0  0  0  0  0  0  0  0  0  0  0
   22.5645   -8.3711  -16.7483 C   0  0  0  0  0  0  0  0  0  0  0  0
   22.7550   -7.7962  -17.8486 O   0  0  0  0  0  0  0  0  0  0  0  0
   21.7068   -7.7583  -15.8080 N   0  0  0  0  0  0  0  0  0  0  0  0
   21.0655   -6.4890  -16.2005 C   0  0  1  0  0  0  0  0  0  0  0  0
   19.6616   -6.8667  -16.6262 C   0  0  0  0  0  0  0  0  0  0  0  0
   18.8197   -5.7043  -17.0371 C   0  0  0  0  0  0  0  0  0  0  0  0
   17.4438   -6.2743  -17.3929 C   0  0  0  0  0  0  0  0  0  0  0  0
   16.5138   -5.1731  -17.8754 C   0  0  0  0  0  0  0  0  0  0  0  0
   15.2790   -5.8226  -18.3206 N   0  0  0  0  0  0  0  0  0  0  0  0
   21.0961   -5.5507  -15.0595 C   0  0  0  0  0  0  0  0  0  0  0  0
   20.8421   -4.2085  -15.2611 O   0  0  0  0  0  0  0  0  0  0  0  0
   21.3485   -5.9373  -13.9020 O   0  0  0  0  0  0  0  0  0  0  0  0
  2  1  1  1
  2  4  1  0
  3  2  1  0
  5  6  1  1
  5  4  1  0
  7  5  1  0
  8  7  2  0
 10  9  1  1
 10 12  1  0
 11 10  1  0
 13 12  1  6
 13 14  1  0
 14  7  1  0
 15 13  1  0
 15 17  1  0
 16 15  2  0
 18 19  1  1
 18 17  1  0
 18 24  1  0
 20 21  1  0
 20 19  1  0
 21 22  1  0
 22 23  1  0
 24 25  1  0
 26 24  2  0
M  END
$$$$
