LLK.pdb
     RDKit          3D

 26 25  0  0  1  0  0  0  0  0999 V2000
   29.8114  -20.8237  -15.4293 C   0  0  0  0  0  0  0  0  0  0  0  0
   28.6562  -20.2197  -14.6884 C   0  0  1  0  0  0  0  0  0  0  0  0
   27.4583  -19.9793  -15.5986 C   0  0  0  0  0  0  0  0  0  0  0  0
   28.2467  -21.0249  -13.4792 C   0  0  0  0  0  0  0  0  0  0  0  0
   27.1792  -20.2951  -12.7158 C   0  0  2  0  0  0  0  0  0  0  0  0
   27.4158  -18.8748  -12.6809 N   0  0  0  0  0  0  0  0  0  0  0  0
   27.1049  -20.8005  -11.3223 C   0  0  0  0  0  0  0  0  0  0  0  0
   26.9595  -22.0333  -11.1431 O   0  0  0  0  0  0  0  0  0  0  0  0
   28.0131  -18.4024   -5.7730 C   0  0  0  0  0  0  0  0  0  0  0  0
   27.5169  -19.6807   -6.4907 C   0  0  2  0  0  0  0  0  0  0  0  0
   28.3982  -20.8156   -6.0054 C   0  0  0  0  0  0  0  0  0  0  0  0
   27.6332  -19.4604   -7.9512 C   0  0  0  0  0  0  0  0  0  0  0  0
   26.8868  -20.3713   -8.8545 C   0  0  2  0  0  0  0  0  0  0  0  0
   27.1961  -19.8940  -10.2198 N   0  0  0  0  0  0  0  0  0  0  0  0
   25.4222  -20.4063   -8.6654 C   0  0  0  0  0  0  0  0  0  0  0  0
   24.9668  -20.5671   -7.5061 O   0  0  0  0  0  0  0  0  0  0  0  0
   24.5091  -20.2633   -9.7337 N   0  0  0  0  0  0  0  0  0  0  0  0
   23.0713  -20.2717   -9.4034 C   0  0  1  0  0  0  0  0  0  0  0  0
   22.3632  -19.9210  -10.6958 C   0  0  0  0  0  0  0  0  0  0  0  0
   20.8740  -19.9268  -10.5918 C   0  0  0  0  0  0  0  0  0  0  0  0
   20.3551  -20.5669  -11.8824 C   0  0  0  0  0  0  0  0  0  0  0  0
   18.8381  -20.6604  -11.8642 C   0  0  0  0  0  0  0  0  0  0  0  0
   18.4371  -21.3253  -13.1060 N   0  0  0  0  0  0  0  0  0  0  0  0
   22.6971  -21.6000   -8.8756 C   0  0  0  0  0  0  0  0  0  0  0  0
   21.7589  -21.7044   -7.8679 O   0  0  0  0  0  0  0  0  0  0  0  0
   23.2095  -22.6467   -9.3169 O   0  0  0  0  0  0  0  0  0  0  0  0
  2  1  1  6
  2  4  1  0
  3  2  1  0
  5  6  1  1
  5  4  1  0
  7  5  1  0
  8  7  2  0
 10  9  1  1
 10 12  1  0
 11 10  1  0
 13 12  1  1
 13 14  1  0
 14  7  1  0
 15 13  1  0
 15 17  1  0
 16 15  2  0
 18 19  1  6
 18 17  1  0
 18 24  1  0
 20 21  1  0
 20 19  1  0
 21 22  1  0
 22 23  1  0
 24 25  1  0
 26 24  2  0
M  END
$$$$
