LLK.pdb
     RDKit          3D

 26 25  0  0  1  0  0  0  0  0999 V2000
   25.9776  -15.4847  -16.8669 C   0  0  0  0  0  0  0  0  0  0  0  0
   26.8082  -16.4597  -16.0872 C   0  0  1  0  0  0  0  0  0  0  0  0
   27.2443  -15.8898  -14.7432 C   0  0  0  0  0  0  0  0  0  0  0  0
   26.1280  -17.7939  -15.8987 C   0  0  0  0  0  0  0  0  0  0  0  0
   26.9281  -18.6479  -14.9578 C   0  0  2  0  0  0  0  0  0  0  0  0
   28.0742  -19.2346  -15.6034 N   0  0  0  0  0  0  0  0  0  0  0  0
   26.0838  -19.7358  -14.4044 C   0  0  0  0  0  0  0  0  0  0  0  0
   26.0277  -20.8220  -15.0290 O   0  0  0  0  0  0  0  0  0  0  0  0
   26.5510  -21.9863  -10.5851 C   0  0  0  0  0  0  0  0  0  0  0  0
   26.0554  -20.5226  -10.4991 C   0  0  2  0  0  0  0  0  0  0  0  0
   26.0259  -20.1649   -9.0255 C   0  0  0  0  0  0  0  0  0  0  0  0
   24.7134  -20.4560  -11.1233 C   0  0  0  0  0  0  0  0  0  0  0  0
   24.6156  -20.6686  -12.5888 C   0  0  2  0  0  0  0  0  0  0  0  0
   25.3555  -19.5376  -13.1896 N   0  0  0  0  0  0  0  0  0  0  0  0
   23.2467  -20.7107  -13.1425 C   0  0  0  0  0  0  0  0  0  0  0  0
   22.6358  -19.6287  -13.3250 O   0  0  0  0  0  0  0  0  0  0  0  0
   22.5943  -21.9174  -13.4796 N   0  0  0  0  0  0  0  0  0  0  0  0
   21.1914  -21.8284  -13.9274 C   0  0  1  0  0  0  0  0  0  0  0  0
   20.8997  -23.1585  -14.5912 C   0  0  0  0  0  0  0  0  0  0  0  0
   19.5163  -23.2708  -15.1410 C   0  0  0  0  0  0  0  0  0  0  0  0
   19.4401  -24.6316  -15.8390 C   0  0  0  0  0  0  0  0  0  0  0  0
   18.0513  -24.8658  -16.4105 C   0  0  0  0  0  0  0  0  0  0  0  0
   18.0687  -26.1853  -17.0457 N   0  0  0  0  0  0  0  0  0  0  0  0
   20.3220  -21.5541  -12.7647 C   0  0  0  0  0  0  0  0  0  0  0  0
   19.1278  -20.8827  -12.9374 O   0  0  0  0  0  0  0  0  0  0  0  0
   20.6365  -21.9142  -11.6139 O   0  0  0  0  0  0  0  0  0  0  0  0
  2  1  1  1
  2  4  1  0
  3  2  1  0
  5  6  1  6
  5  4  1  0
  7  5  1  0
  8  7  2  0
 10  9  1  1
 10 12  1  0
 11 10  1  0
 13 12  1  1
 13 14  1  0
 14  7  1  0
 15 13  1  0
 15 17  1  0
 16 15  2  0
 18 19  1  1
 18 17  1  0
 18 24  1  0
 20 21  1  0
 20 19  1  0
 21 22  1  0
 22 23  1  0
 24 25  1  0
 26 24  2  0
M  END
$$$$
