LLK.pdb
     RDKit          3D

 26 25  0  0  1  0  0  0  0  0999 V2000
   29.3366  -21.7797  -16.3073 C   0  0  0  0  0  0  0  0  0  0  0  0
   28.4205  -20.8379  -15.5846 C   0  0  1  0  0  0  0  0  0  0  0  0
   27.2263  -20.4351  -16.4406 C   0  0  0  0  0  0  0  0  0  0  0  0
   27.9573  -21.3740  -14.2518 C   0  0  0  0  0  0  0  0  0  0  0  0
   27.0865  -20.3603  -13.5670 C   0  0  2  0  0  0  0  0  0  0  0  0
   27.7348  -19.0789  -13.4557 N   0  0  0  0  0  0  0  0  0  0  0  0
   26.7207  -20.8293  -12.2073 C   0  0  0  0  0  0  0  0  0  0  0  0
   26.1538  -21.9423  -12.0940 O   0  0  0  0  0  0  0  0  0  0  0  0
   27.6396  -18.6171   -6.5744 C   0  0  0  0  0  0  0  0  0  0  0  0
   27.0790  -19.8527   -7.3189 C   0  0  2  0  0  0  0  0  0  0  0  0
   27.7773  -21.0631   -6.7291 C   0  0  0  0  0  0  0  0  0  0  0  0
   27.3630  -19.6852   -8.7633 C   0  0  0  0  0  0  0  0  0  0  0  0
   26.5331  -20.4473   -9.7292 C   0  0  2  0  0  0  0  0  0  0  0  0
   27.0108  -20.0221  -11.0629 N   0  0  0  0  0  0  0  0  0  0  0  0
   25.0750  -20.2294   -9.6363 C   0  0  0  0  0  0  0  0  0  0  0  0
   24.6281  -19.0650   -9.7832 O   0  0  0  0  0  0  0  0  0  0  0  0
   24.1588  -21.2765   -9.3921 N   0  0  0  0  0  0  0  0  0  0  0  0
   22.7219  -20.9602   -9.5008 C   0  0  1  0  0  0  0  0  0  0  0  0
   22.2678  -21.6076  -10.7929 C   0  0  0  0  0  0  0  0  0  0  0  0
   20.8027  -21.4830  -11.0509 C   0  0  0  0  0  0  0  0  0  0  0  0
   20.5348  -22.2125  -12.3703 C   0  0  0  0  0  0  0  0  0  0  0  0
   19.0638  -22.1266  -12.7432 C   0  0  0  0  0  0  0  0  0  0  0  0
   18.9296  -22.7009  -14.0837 N   0  0  0  0  0  0  0  0  0  0  0  0
   22.0148  -21.4761   -8.3104 C   0  0  0  0  0  0  0  0  0  0  0  0
   20.6999  -21.1229   -8.0802 O   0  0  0  0  0  0  0  0  0  0  0  0
   22.5756  -22.2315   -7.4934 O   0  0  0  0  0  0  0  0  0  0  0  0
  2  1  1  6
  2  4  1  0
  3  2  1  0
  5  6  1  1
  5  4  1  0
  7  5  1  0
  8  7  2  0
 10  9  1  1
 10 12  1  0
 11 10  1  0
 13 12  1  1
 13 14  1  0
 14  7  1  0
 15 13  1  0
 15 17  1  0
 16 15  2  0
 18 19  1  6
 18 17  1  0
 18 24  1  0
 20 21  1  0
 20 19  1  0
 21 22  1  0
 22 23  1  0
 24 25  1  0
 26 24  2  0
M  END
$$$$
