LLK.pdb
     RDKit          3D

 26 25  0  0  1  0  0  0  0  0999 V2000
   29.1203  -16.9624  -16.5479 C   0  0  0  0  0  0  0  0  0  0  0  0
   27.6708  -17.3340  -16.4511 C   0  0  1  0  0  0  0  0  0  0  0  0
   26.9864  -17.3188  -17.8122 C   0  0  0  0  0  0  0  0  0  0  0  0
   27.4474  -18.6589  -15.7632 C   0  0  0  0  0  0  0  0  0  0  0  0
   25.9913  -19.0223  -15.8128 C   0  0  2  0  0  0  0  0  0  0  0  0
   25.1563  -17.9815  -15.2705 N   0  0  0  0  0  0  0  0  0  0  0  0
   25.7461  -20.2740  -15.0541 C   0  0  0  0  0  0  0  0  0  0  0  0
   26.2532  -21.3384  -15.4820 O   0  0  0  0  0  0  0  0  0  0  0  0
   27.1380  -21.5304  -11.2646 C   0  0  0  0  0  0  0  0  0  0  0  0
   25.9887  -20.4953  -11.2103 C   0  0  2  0  0  0  0  0  0  0  0  0
   25.8713  -20.0594   -9.7623 C   0  0  0  0  0  0  0  0  0  0  0  0
   24.7562  -21.1529  -11.7037 C   0  0  0  0  0  0  0  0  0  0  0  0
   24.6885  -21.5164  -13.1410 C   0  0  2  0  0  0  0  0  0  0  0  0
   24.9482  -20.2544  -13.8674 N   0  0  0  0  0  0  0  0  0  0  0  0
   23.4078  -22.0930  -13.5987 C   0  0  0  0  0  0  0  0  0  0  0  0
   23.0112  -23.1676  -13.0836 O   0  0  0  0  0  0  0  0  0  0  0  0
   22.6060  -21.4856  -14.5905 N   0  0  0  0  0  0  0  0  0  0  0  0
   21.3667  -22.1832  -14.9827 C   0  0  1  0  0  0  0  0  0  0  0  0
   20.4504  -22.0737  -13.7814 C   0  0  0  0  0  0  0  0  0  0  0  0
   19.1157  -22.7133  -13.9771 C   0  0  0  0  0  0  0  0  0  0  0  0
   18.3719  -22.5721  -12.6461 C   0  0  0  0  0  0  0  0  0  0  0  0
   16.9972  -23.2155  -12.7274 C   0  0  0  0  0  0  0  0  0  0  0  0
   16.3352  -22.9703  -11.4442 N   0  0  0  0  0  0  0  0  0  0  0  0
   20.8123  -21.5520  -16.1982 C   0  0  0  0  0  0  0  0  0  0  0  0
   19.7231  -22.1144  -16.8339 O   0  0  0  0  0  0  0  0  0  0  0  0
   21.3040  -20.5119  -16.6769 O   0  0  0  0  0  0  0  0  0  0  0  0
  2  1  1  6
  2  4  1  0
  3  2  1  0
  5  6  1  1
  5  4  1  0
  7  5  1  0
  8  7  2  0
 10  9  1  1
 10 12  1  0
 11 10  1  0
 13 12  1  1
 13 14  1  0
 14  7  1  0
 15 13  1  0
 15 17  1  0
 16 15  2  0
 18 19  1  1
 18 17  1  0
 18 24  1  0
 20 21  1  0
 20 19  1  0
 21 22  1  0
 22 23  1  0
 24 25  1  0
 26 24  2  0
M  END
$$$$
