LLK.pdb
     RDKit          3D

 26 25  0  0  1  0  0  0  0  0999 V2000
   15.5862  -21.5514    0.0272 C   0  0  0  0  0  0  0  0  0  0  0  0
   15.0734  -20.9426    1.2979 C   0  0  1  0  0  0  0  0  0  0  0  0
   14.4955  -21.9916    2.2397 C   0  0  0  0  0  0  0  0  0  0  0  0
   16.1092  -20.1074    2.0105 C   0  0  0  0  0  0  0  0  0  0  0  0
   15.5151  -19.5030    3.2500 C   0  0  2  0  0  0  0  0  0  0  0  0
   14.3555  -18.7005    2.9569 N   0  0  0  0  0  0  0  0  0  0  0  0
   16.5181  -18.6564    3.9426 C   0  0  0  0  0  0  0  0  0  0  0  0
   17.6090  -19.1780    4.2759 O   0  0  0  0  0  0  0  0  0  0  0  0
   18.9564  -15.1676    2.8698 C   0  0  0  0  0  0  0  0  0  0  0  0
   17.4446  -14.8772    3.0292 C   0  0  2  0  0  0  0  0  0  0  0  0
   17.2360  -13.4376    2.5997 C   0  0  0  0  0  0  0  0  0  0  0  0
   17.0822  -15.1012    4.4482 C   0  0  0  0  0  0  0  0  0  0  0  0
   17.2077  -16.4771    4.9901 C   0  0  2  0  0  0  0  0  0  0  0  0
   16.2353  -17.2820    4.2193 N   0  0  0  0  0  0  0  0  0  0  0  0
   16.9350  -16.6267    6.4343 C   0  0  0  0  0  0  0  0  0  0  0  0
   16.0029  -15.9577    6.9451 O   0  0  0  0  0  0  0  0  0  0  0  0
   17.6764  -17.4937    7.2673 N   0  0  0  0  0  0  0  0  0  0  0  0
   17.2922  -17.5612    8.6901 C   0  0  1  0  0  0  0  0  0  0  0  0
   16.5302  -18.8623    8.8359 C   0  0  0  0  0  0  0  0  0  0  0  0
   16.0329  -19.1214   10.2195 C   0  0  0  0  0  0  0  0  0  0  0  0
   15.3044  -20.4673   10.1696 C   0  0  0  0  0  0  0  0  0  0  0  0
   14.7627  -20.8368   11.5409 C   0  0  0  0  0  0  0  0  0  0  0  0
   14.2251  -22.1949   11.4351 N   0  0  0  0  0  0  0  0  0  0  0  0
   18.5066  -17.4996    9.5294 C   0  0  0  0  0  0  0  0  0  0  0  0
   19.7368  -17.8195    8.9901 O   0  0  0  0  0  0  0  0  0  0  0  0
   18.4562  -17.1636   10.7283 O   0  0  0  0  0  0  0  0  0  0  0  0
  2  1  1  6
  2  4  1  0
  3  2  1  0
  5  6  1  6
  5  4  1  0
  7  5  1  0
  8  7  2  0
 10  9  1  1
 10 12  1  0
 11 10  1  0
 13 12  1  6
 13 14  1  0
 14  7  1  0
 15 13  1  0
 15 17  1  0
 16 15  2  0
 18 19  1  6
 18 17  1  0
 18 24  1  0
 20 21  1  0
 20 19  1  0
 21 22  1  0
 22 23  1  0
 24 25  1  0
 26 24  2  0
M  END
$$$$
