LLK.pdb
     RDKit          3D

 26 25  0  0  1  0  0  0  0  0999 V2000
   25.9164  -18.6103  -17.7003 C   0  0  0  0  0  0  0  0  0  0  0  0
   26.8593  -19.2409  -16.7198 C   0  0  1  0  0  0  0  0  0  0  0  0
   27.8802  -18.2428  -16.1879 C   0  0  0  0  0  0  0  0  0  0  0  0
   26.1493  -19.9279  -15.5786 C   0  0  0  0  0  0  0  0  0  0  0  0
   27.1379  -20.6944  -14.7480 C   0  0  2  0  0  0  0  0  0  0  0  0
   27.7705  -21.7489  -15.4979 N   0  0  0  0  0  0  0  0  0  0  0  0
   26.4668  -21.2875  -13.5645 C   0  0  0  0  0  0  0  0  0  0  0  0
   25.9284  -22.4136  -13.6876 O   0  0  0  0  0  0  0  0  0  0  0  0
   24.2267  -20.5316   -8.6074 C   0  0  0  0  0  0  0  0  0  0  0  0
   25.7366  -20.8688   -8.6499 C   0  0  2  0  0  0  0  0  0  0  0  0
   26.3831  -20.0885   -7.5214 C   0  0  0  0  0  0  0  0  0  0  0  0
   26.2569  -20.4740   -9.9798 C   0  0  0  0  0  0  0  0  0  0  0  0
   25.6935  -21.1478  -11.1761 C   0  0  2  0  0  0  0  0  0  0  0  0
   26.4397  -20.5818  -12.3209 N   0  0  0  0  0  0  0  0  0  0  0  0
   24.2441  -20.9644  -11.3945 C   0  0  0  0  0  0  0  0  0  0  0  0
   23.4453  -21.3634  -10.5113 O   0  0  0  0  0  0  0  0  0  0  0  0
   23.7160  -20.3554  -12.5545 N   0  0  0  0  0  0  0  0  0  0  0  0
   22.2578  -20.1368  -12.6024 C   0  0  1  0  0  0  0  0  0  0  0  0
   22.0357  -19.1811  -13.7566 C   0  0  0  0  0  0  0  0  0  0  0  0
   20.6083  -18.7904  -13.9537 C   0  0  0  0  0  0  0  0  0  0  0  0
   20.5723  -17.9108  -15.2066 C   0  0  0  0  0  0  0  0  0  0  0  0
   19.1557  -17.4399  -15.4925 C   0  0  0  0  0  0  0  0  0  0  0  0
   19.2233  -16.5789  -16.6753 N   0  0  0  0  0  0  0  0  0  0  0  0
   21.5729  -21.4340  -12.7797 C   0  0  0  0  0  0  0  0  0  0  0  0
   20.4150  -21.7060  -12.0783 O   0  0  0  0  0  0  0  0  0  0  0  0
   22.0138  -22.3054  -13.5537 O   0  0  0  0  0  0  0  0  0  0  0  0
  2  1  1  6
  2  4  1  0
  3  2  1  0
  5  6  1  6
  5  4  1  0
  7  5  1  0
  8  7  2  0
 10  9  1  6
 10 12  1  0
 11 10  1  0
 13 12  1  1
 13 14  1  0
 14  7  1  0
 15 13  1  0
 15 17  1  0
 16 15  2  0
 18 19  1  6
 18 17  1  0
 18 24  1  0
 20 21  1  0
 20 19  1  0
 21 22  1  0
 22 23  1  0
 24 25  1  0
 26 24  2  0
M  END
$$$$
