LLK.pdb
     RDKit          3D

 26 25  0  0  1  0  0  0  0  0999 V2000
   27.7246  -19.1336  -18.3944 C   0  0  0  0  0  0  0  0  0  0  0  0
   27.8011  -18.9057  -16.9143 C   0  0  1  0  0  0  0  0  0  0  0  0
   27.2340  -17.5487  -16.5165 C   0  0  0  0  0  0  0  0  0  0  0  0
   27.1465  -20.0059  -16.1147 C   0  0  0  0  0  0  0  0  0  0  0  0
   27.0462  -19.6003  -14.6724 C   0  0  2  0  0  0  0  0  0  0  0  0
   28.3106  -19.7107  -13.9914 N   0  0  0  0  0  0  0  0  0  0  0  0
   26.0497  -20.4444  -13.9675 C   0  0  0  0  0  0  0  0  0  0  0  0
   25.7653  -21.5638  -14.4566 O   0  0  0  0  0  0  0  0  0  0  0  0
   26.4214  -22.1406  -10.0847 C   0  0  0  0  0  0  0  0  0  0  0  0
   26.0148  -20.6484  -10.0263 C   0  0  2  0  0  0  0  0  0  0  0  0
   26.0549  -20.2491   -8.5636 C   0  0  0  0  0  0  0  0  0  0  0  0
   24.6591  -20.5198  -10.6097 C   0  0  0  0  0  0  0  0  0  0  0  0
   24.4834  -20.8571  -12.0443 C   0  0  2  0  0  0  0  0  0  0  0  0
   25.4344  -19.9809  -12.7625 N   0  0  0  0  0  0  0  0  0  0  0  0
   23.1247  -20.6598  -12.5894 C   0  0  0  0  0  0  0  0  0  0  0  0
   22.6942  -19.4881  -12.7284 O   0  0  0  0  0  0  0  0  0  0  0  0
   22.2876  -21.7337  -12.9653 N   0  0  0  0  0  0  0  0  0  0  0  0
   20.9277  -21.4031  -13.4321 C   0  0  1  0  0  0  0  0  0  0  0  0
   20.3813  -22.6912  -14.0127 C   0  0  0  0  0  0  0  0  0  0  0  0
   18.9686  -22.5917  -14.4850 C   0  0  0  0  0  0  0  0  0  0  0  0
   18.5670  -23.9977  -14.9395 C   0  0  0  0  0  0  0  0  0  0  0  0
   17.1188  -24.0208  -15.4004 C   0  0  0  0  0  0  0  0  0  0  0  0
   16.7932  -25.4139  -15.7134 N   0  0  0  0  0  0  0  0  0  0  0  0
   20.1310  -20.8907  -12.2982 C   0  0  0  0  0  0  0  0  0  0  0  0
   19.0878  -20.0152  -12.5258 O   0  0  0  0  0  0  0  0  0  0  0  0
   20.3741  -21.2277  -11.1234 O   0  0  0  0  0  0  0  0  0  0  0  0
  2  1  1  6
  2  4  1  0
  3  2  1  0
  5  6  1  1
  5  4  1  0
  7  5  1  0
  8  7  2  0
 10  9  1  1
 10 12  1  0
 11 10  1  0
 13 12  1  1
 13 14  1  0
 14  7  1  0
 15 13  1  0
 15 17  1  0
 16 15  2  0
 18 19  1  1
 18 17  1  0
 18 24  1  0
 20 21  1  0
 20 19  1  0
 21 22  1  0
 22 23  1  0
 24 25  1  0
 26 24  2  0
M  END
$$$$
