PRW.pdb
     RDKit          3D

 33 35  0  0  1  0  0  0  0  0999 V2000
   28.4912  -26.5457  -17.3939 N   0  0  0  0  0  0  0  0  0  0  0  0
   29.7663  -26.3481  -16.7425 C   0  0  0  0  0  0  0  0  0  0  0  0
   30.6512  -27.5025  -17.0793 C   0  0  0  0  0  0  0  0  0  0  0  0
   29.8601  -28.3392  -18.0512 C   0  0  0  0  0  0  0  0  0  0  0  0
   28.7031  -27.4644  -18.4902 C   0  0  1  0  0  0  0  0  0  0  0  0
   27.4690  -28.2732  -18.6549 C   0  0  0  0  0  0  0  0  0  0  0  0
   27.1620  -28.7507  -19.7933 O   0  0  0  0  0  0  0  0  0  0  0  0
   27.4716  -31.6416  -14.2824 N   0  0  0  0  0  0  0  0  0  0  0  0
   27.4673  -32.9962  -14.6983 C   0  0  0  0  0  0  0  0  0  0  0  0
   28.4214  -33.8103  -14.3981 N   0  0  0  0  0  0  0  0  0  0  0  0
   26.3946  -33.5163  -15.4735 N   0  0  0  0  0  0  0  0  0  0  0  0
   25.2844  -32.6862  -15.7946 C   0  0  0  0  0  0  0  0  0  0  0  0
   25.5175  -31.8274  -17.0347 C   0  0  0  0  0  0  0  0  0  0  0  0
   25.2578  -30.4117  -16.6320 C   0  0  0  0  0  0  0  0  0  0  0  0
   25.4298  -29.4128  -17.7263 C   0  0  2  0  0  0  0  0  0  0  0  0
   26.5776  -28.5632  -17.6067 N   0  0  0  0  0  0  0  0  0  0  0  0
   24.1770  -28.6095  -17.9459 C   0  0  0  0  0  0  0  0  0  0  0  0
   23.8633  -27.6789  -17.1318 O   0  0  0  0  0  0  0  0  0  0  0  0
   28.2495  -34.8418  -14.5847 N   0  0  0  0  0  0  0  0  0  0  0  0
   23.2948  -28.8231  -19.0278 C   0  0  2  0  0  0  0  0  0  0  0  0
   22.0486  -28.0913  -19.2209 C   0  0  0  0  0  0  0  0  0  0  0  0
   22.1877  -27.3135  -20.4841 C   0  0  0  0  0  0  0  0  0  0  0  0
   21.0429  -26.4727  -20.8752 C   0  0  0  0  0  0  0  0  0  0  0  0
   20.6242  -25.2855  -20.2517 N   0  0  0  0  0  0  0  0  0  0  0  0
   19.5401  -24.8142  -20.8610 C   0  0  0  0  0  0  0  0  0  0  0  0
   19.1976  -25.6431  -21.8894 C   0  0  0  0  0  0  0  0  0  0  0  0
   18.1796  -25.5850  -22.8095 C   0  0  0  0  0  0  0  0  0  0  0  0
   18.0722  -26.5617  -23.7668 C   0  0  0  0  0  0  0  0  0  0  0  0
   18.9987  -27.5789  -23.7732 C   0  0  0  0  0  0  0  0  0  0  0  0
   20.0034  -27.6410  -22.8684 C   0  0  0  0  0  0  0  0  0  0  0  0
   20.1334  -26.6701  -21.8936 C   0  0  0  0  0  0  0  0  0  0  0  0
   20.8791  -28.9299  -19.0603 O   0  0  0  0  0  0  0  0  0  0  0  0
   20.9726  -30.2043  -19.1197 O   0  0  0  0  0  0  0  0  0  0  0  0
  2  1  1  0
  3  2  1  0
  4  3  1  0
  4  5  1  0
  5  1  1  0
  5  6  1  1
  6  7  2  0
  8  9  1  0
  9 11  1  0
 10  9  2  0
 11 12  1  0
 12 13  1  0
 13 14  1  0
 15 14  1  1
 15 16  1  0
 16  6  1  0
 17 15  1  0
 18 17  2  0
 19 17  1  0
 20 21  1  6
 20 19  1  0
 21 22  1  0
 22 23  2  0
 23 24  1  0
 25 26  2  0
 25 24  1  0
 27 26  1  0
 28 27  2  0
 29 28  1  0
 29 30  2  0
 30 22  1  0
 30 25  1  0
 31 33  1  0
 31 20  1  0
 32 31  2  0
M  END
$$$$
