PRW.pdb
     RDKit          3D

 33 35  0  0  1  0  0  0  0  0999 V2000
   29.1803  -20.1426  -15.4544 N   0  0  0  0  0  0  0  0  0  0  0  0
   29.8297  -19.5529  -16.6031 C   0  0  0  0  0  0  0  0  0  0  0  0
   29.4011  -18.1263  -16.7059 C   0  0  0  0  0  0  0  0  0  0  0  0
   28.5440  -17.8806  -15.4912 C   0  0  0  0  0  0  0  0  0  0  0  0
   28.7914  -19.0624  -14.5753 C   0  0  1  0  0  0  0  0  0  0  0  0
   27.5384  -19.4614  -13.8861 C   0  0  0  0  0  0  0  0  0  0  0  0
   26.9049  -18.6225  -13.1697 O   0  0  0  0  0  0  0  0  0  0  0  0
   24.5841  -25.7097  -14.8372 N   0  0  0  0  0  0  0  0  0  0  0  0
   23.3682  -25.0918  -14.4530 C   0  0  0  0  0  0  0  0  0  0  0  0
   22.5578  -25.6348  -13.6095 N   0  0  0  0  0  0  0  0  0  0  0  0
   22.9909  -23.8307  -14.9910 N   0  0  0  0  0  0  0  0  0  0  0  0
   23.8306  -23.1852  -15.9412 C   0  0  0  0  0  0  0  0  0  0  0  0
   24.4814  -21.9150  -15.4002 C   0  0  0  0  0  0  0  0  0  0  0  0
   25.0139  -22.2490  -14.0441 C   0  0  0  0  0  0  0  0  0  0  0  0
   25.7330  -21.1318  -13.3664 C   0  0  2  0  0  0  0  0  0  0  0  0
   26.9757  -20.7476  -13.9679 N   0  0  0  0  0  0  0  0  0  0  0  0
   25.8970  -21.3904  -11.8935 C   0  0  0  0  0  0  0  0  0  0  0  0
   26.9083  -22.0405  -11.4672 O   0  0  0  0  0  0  0  0  0  0  0  0
   21.6625  -25.1053  -13.3941 N   0  0  0  0  0  0  0  0  0  0  0  0
   24.9764  -20.9482  -10.9181 C   0  0  1  0  0  0  0  0  0  0  0  0
   25.1336  -21.1736   -9.4863 C   0  0  0  0  0  0  0  0  0  0  0  0
   26.5076  -20.7282   -9.1202 C   0  0  0  0  0  0  0  0  0  0  0  0
   26.7318  -20.3572   -7.7122 C   0  0  0  0  0  0  0  0  0  0  0  0
   25.7448  -20.1339   -6.7377 N   0  0  0  0  0  0  0  0  0  0  0  0
   26.3168  -19.7916   -5.5869 C   0  0  0  0  0  0  0  0  0  0  0  0
   27.6727  -19.7725   -5.7388 C   0  0  0  0  0  0  0  0  0  0  0  0
   28.6872  -19.4963   -4.8552 C   0  0  0  0  0  0  0  0  0  0  0  0
   29.9916  -19.5672   -5.2742 C   0  0  0  0  0  0  0  0  0  0  0  0
   30.2428  -19.9166   -6.5810 C   0  0  0  0  0  0  0  0  0  0  0  0
   29.2466  -20.1891   -7.4559 C   0  0  0  0  0  0  0  0  0  0  0  0
   27.9245  -20.1243   -7.0591 C   0  0  0  0  0  0  0  0  0  0  0  0
   24.0208  -20.6597   -8.7155 O   0  0  0  0  0  0  0  0  0  0  0  0
   23.9225  -20.9023   -7.4634 O   0  0  0  0  0  0  0  0  0  0  0  0
  2  1  1  0
  3  2  1  0
  4  3  1  0
  4  5  1  0
  5  1  1  0
  5  6  1  6
  6  7  2  0
  8  9  1  0
  9 11  1  0
 10  9  2  0
 11 12  1  0
 12 13  1  0
 13 14  1  0
 15 14  1  6
 15 16  1  0
 16  6  1  0
 17 15  1  0
 18 17  2  0
 19 17  1  0
 20 21  1  1
 20 19  1  0
 21 22  1  0
 22 23  2  0
 23 24  1  0
 25 26  2  0
 25 24  1  0
 27 26  1  0
 28 27  2  0
 29 28  1  0
 29 30  2  0
 30 22  1  0
 30 25  1  0
 31 33  1  0
 31 20  1  0
 32 31  2  0
M  END
$$$$
