PRW.pdb
     RDKit          3D

 33 35  0  0  1  0  0  0  0  0999 V2000
   27.3401  -17.8595  -13.9811 N   0  0  0  0  0  0  0  0  0  0  0  0
   27.7023  -16.7229  -14.7972 C   0  0  0  0  0  0  0  0  0  0  0  0
   28.0492  -17.2154  -16.1634 C   0  0  0  0  0  0  0  0  0  0  0  0
   27.7696  -18.6958  -16.1349 C   0  0  0  0  0  0  0  0  0  0  0  0
   26.9609  -18.9309  -14.8751 C   0  0  1  0  0  0  0  0  0  0  0  0
   27.3454  -20.2160  -14.2387 C   0  0  0  0  0  0  0  0  0  0  0  0
   27.0498  -21.3212  -14.7950 O   0  0  0  0  0  0  0  0  0  0  0  0
   32.2007  -24.6480  -13.7425 N   0  0  0  0  0  0  0  0  0  0  0  0
   33.3467  -23.8282  -13.5928 C   0  0  0  0  0  0  0  0  0  0  0  0
   34.5390  -24.2663  -13.8157 N   0  0  0  0  0  0  0  0  0  0  0  0
   33.2229  -22.4714  -13.1856 N   0  0  0  0  0  0  0  0  0  0  0  0
   32.1868  -22.0925  -12.2868 C   0  0  0  0  0  0  0  0  0  0  0  0
   30.7909  -22.2366  -12.8872 C   0  0  0  0  0  0  0  0  0  0  0  0
   29.8414  -21.5987  -11.9252 C   0  0  0  0  0  0  0  0  0  0  0  0
   28.4271  -21.5390  -12.3951 C   0  0  2  0  0  0  0  0  0  0  0  0
   28.0393  -20.3086  -13.0191 N   0  0  0  0  0  0  0  0  0  0  0  0
   27.4640  -21.9254  -11.3059 C   0  0  0  0  0  0  0  0  0  0  0  0
   27.5068  -23.0955  -10.8001 O   0  0  0  0  0  0  0  0  0  0  0  0
   35.3333  -23.5674  -13.7209 N   0  0  0  0  0  0  0  0  0  0  0  0
   26.4823  -21.0517  -10.7887 C   0  0  1  0  0  0  0  0  0  0  0  0
   25.9831  -21.1044   -9.4198 C   0  0  0  0  0  0  0  0  0  0  0  0
   27.1619  -20.9758   -8.5176 C   0  0  0  0  0  0  0  0  0  0  0  0
   26.8827  -20.7399   -7.0904 C   0  0  0  0  0  0  0  0  0  0  0  0
   25.8253  -21.2847   -6.3429 N   0  0  0  0  0  0  0  0  0  0  0  0
   25.8742  -20.8291   -5.0944 C   0  0  0  0  0  0  0  0  0  0  0  0
   26.9370  -19.9842   -4.9579 C   0  0  0  0  0  0  0  0  0  0  0  0
   27.4119  -19.2805   -3.8783 C   0  0  0  0  0  0  0  0  0  0  0  0
   28.5328  -18.5013   -4.0147 C   0  0  0  0  0  0  0  0  0  0  0  0
   29.1508  -18.4501   -5.2429 C   0  0  0  0  0  0  0  0  0  0  0  0
   28.6864  -19.1413   -6.3100 C   0  0  0  0  0  0  0  0  0  0  0  0
   27.5591  -19.9328   -6.1992 C   0  0  0  0  0  0  0  0  0  0  0  0
   24.8571  -20.2204   -9.2027 O   0  0  0  0  0  0  0  0  0  0  0  0
   24.6943  -19.1763   -9.9237 O   0  0  0  0  0  0  0  0  0  0  0  0
  2  1  1  0
  3  2  1  0
  4  3  1  0
  4  5  1  0
  5  1  1  0
  5  6  1  1
  6  7  2  0
  8  9  1  0
  9 11  1  0
 10  9  2  0
 11 12  1  0
 12 13  1  0
 13 14  1  0
 15 14  1  1
 15 16  1  0
 16  6  1  0
 17 15  1  0
 18 17  2  0
 19 17  1  0
 20 21  1  1
 20 19  1  0
 21 22  1  0
 22 23  2  0
 23 24  1  0
 25 26  2  0
 25 24  1  0
 27 26  1  0
 28 27  2  0
 29 28  1  0
 29 30  2  0
 30 22  1  0
 30 25  1  0
 31 33  1  0
 31 20  1  0
 32 31  2  0
M  END
$$$$
