PRW.pdb
     RDKit          3D

 33 35  0  0  1  0  0  0  0  0999 V2000
   28.8645  -19.4239  -15.2931 N   0  0  0  0  0  0  0  0  0  0  0  0
   29.2368  -19.1599  -16.6644 C   0  0  0  0  0  0  0  0  0  0  0  0
   28.4080  -18.0244  -17.1674 C   0  0  0  0  0  0  0  0  0  0  0  0
   27.6001  -17.5663  -15.9809 C   0  0  0  0  0  0  0  0  0  0  0  0
   28.2397  -18.2267  -14.7762 C   0  0  1  0  0  0  0  0  0  0  0  0
   27.2049  -18.6377  -13.7940 C   0  0  0  0  0  0  0  0  0  0  0  0
   26.5947  -17.7628  -13.1009 O   0  0  0  0  0  0  0  0  0  0  0  0
   20.6480  -22.8618  -11.5142 N   0  0  0  0  0  0  0  0  0  0  0  0
   20.3039  -22.2572  -12.7487 C   0  0  0  0  0  0  0  0  0  0  0  0
   19.0849  -21.9720  -13.0582 N   0  0  0  0  0  0  0  0  0  0  0  0
   21.3050  -21.9371  -13.7066 N   0  0  0  0  0  0  0  0  0  0  0  0
   22.6194  -22.4624  -13.5609 C   0  0  0  0  0  0  0  0  0  0  0  0
   23.5120  -21.6039  -12.6687 C   0  0  0  0  0  0  0  0  0  0  0  0
   24.6913  -21.2059  -13.4962 C   0  0  0  0  0  0  0  0  0  0  0  0
   25.7042  -20.3797  -12.7778 C   0  0  2  0  0  0  0  0  0  0  0  0
   26.8329  -19.9738  -13.5620 N   0  0  0  0  0  0  0  0  0  0  0  0
   26.1385  -21.0288  -11.4921 C   0  0  0  0  0  0  0  0  0  0  0  0
   27.1454  -21.8118  -11.4794 O   0  0  0  0  0  0  0  0  0  0  0  0
   18.9212  -21.5328  -14.0113 N   0  0  0  0  0  0  0  0  0  0  0  0
   25.4850  -20.8241  -10.2570 C   0  0  2  0  0  0  0  0  0  0  0  0
   25.9509  -21.3689   -8.9874 C   0  0  0  0  0  0  0  0  0  0  0  0
   27.3638  -20.9291   -8.8132 C   0  0  0  0  0  0  0  0  0  0  0  0
   27.6261  -19.9448   -7.7489 C   0  0  0  0  0  0  0  0  0  0  0  0
   27.1218  -18.6356   -7.6763 N   0  0  0  0  0  0  0  0  0  0  0  0
   27.5919  -18.0310   -6.5890 C   0  0  0  0  0  0  0  0  0  0  0  0
   28.4074  -18.8866   -5.9072 C   0  0  0  0  0  0  0  0  0  0  0  0
   29.1110  -18.7405   -4.7368 C   0  0  0  0  0  0  0  0  0  0  0  0
   29.8557  -19.7876   -4.2562 C   0  0  0  0  0  0  0  0  0  0  0  0
   29.8731  -20.9630   -4.9713 C   0  0  0  0  0  0  0  0  0  0  0  0
   29.1820  -21.1119   -6.1255 C   0  0  0  0  0  0  0  0  0  0  0  0
   28.4248  -20.0724   -6.6312 C   0  0  0  0  0  0  0  0  0  0  0  0
   25.0219  -21.1281   -7.9031 O   0  0  0  0  0  0  0  0  0  0  0  0
   24.0415  -20.3191   -8.0467 O   0  0  0  0  0  0  0  0  0  0  0  0
  2  1  1  0
  3  2  1  0
  4  3  1  0
  4  5  1  0
  5  1  1  0
  5  6  1  1
  6  7  2  0
  8  9  1  0
  9 11  1  0
 10  9  2  0
 11 12  1  0
 12 13  1  0
 13 14  1  0
 15 14  1  6
 15 16  1  0
 16  6  1  0
 17 15  1  0
 18 17  2  0
 19 17  1  0
 20 21  1  6
 20 19  1  0
 21 22  1  0
 22 23  2  0
 23 24  1  0
 25 26  2  0
 25 24  1  0
 27 26  1  0
 28 27  2  0
 29 28  1  0
 29 30  2  0
 30 22  1  0
 30 25  1  0
 31 33  1  0
 31 20  1  0
 32 31  2  0
M  END
$$$$
