PRW.pdb
     RDKit          3D

 33 35  0  0  1  0  0  0  0  0999 V2000
   25.1720  -18.6813  -16.5922 N   0  0  0  0  0  0  0  0  0  0  0  0
   24.7859  -18.3483  -17.9446 C   0  0  0  0  0  0  0  0  0  0  0  0
   23.4956  -17.5988  -17.8952 C   0  0  0  0  0  0  0  0  0  0  0  0
   23.1971  -17.4180  -16.4294 C   0  0  0  0  0  0  0  0  0  0  0  0
   24.4833  -17.7674  -15.7082 C   0  0  1  0  0  0  0  0  0  0  0  0
   24.1942  -18.4860  -14.4416 C   0  0  0  0  0  0  0  0  0  0  0  0
   23.5655  -17.9027  -13.5020 O   0  0  0  0  0  0  0  0  0  0  0  0
   23.6297  -23.8146  -15.7426 N   0  0  0  0  0  0  0  0  0  0  0  0
   24.6122  -24.7244  -15.2790 C   0  0  0  0  0  0  0  0  0  0  0  0
   25.4509  -25.2949  -16.0754 N   0  0  0  0  0  0  0  0  0  0  0  0
   24.7117  -25.0467  -13.8975 N   0  0  0  0  0  0  0  0  0  0  0  0
   23.9390  -24.3266  -12.9440 C   0  0  0  0  0  0  0  0  0  0  0  0
   24.5685  -22.9941  -12.5465 C   0  0  0  0  0  0  0  0  0  0  0  0
   23.7538  -21.9230  -13.1967 C   0  0  0  0  0  0  0  0  0  0  0  0
   24.2706  -20.5388  -12.9926 C   0  0  2  0  0  0  0  0  0  0  0  0
   24.5778  -19.8155  -14.1909 N   0  0  0  0  0  0  0  0  0  0  0  0
   25.4262  -20.5147  -12.0296 C   0  0  0  0  0  0  0  0  0  0  0  0
   26.6083  -20.7564  -12.4433 O   0  0  0  0  0  0  0  0  0  0  0  0
   26.0562  -26.0650  -15.6644 N   0  0  0  0  0  0  0  0  0  0  0  0
   25.2864  -20.2338  -10.6526 C   0  0  2  0  0  0  0  0  0  0  0  0
   26.4075  -20.0882   -9.7319 C   0  0  0  0  0  0  0  0  0  0  0  0
   25.9635  -19.1759   -8.6407 C   0  0  0  0  0  0  0  0  0  0  0  0
   26.9727  -18.8057   -7.6333 C   0  0  0  0  0  0  0  0  0  0  0  0
   27.6049  -17.5582   -7.5006 N   0  0  0  0  0  0  0  0  0  0  0  0
   28.4767  -17.5989   -6.4971 C   0  0  0  0  0  0  0  0  0  0  0  0
   28.4644  -18.8408   -5.9317 C   0  0  0  0  0  0  0  0  0  0  0  0
   29.1641  -19.3707   -4.8754 C   0  0  0  0  0  0  0  0  0  0  0  0
   28.9428  -20.6707   -4.4973 C   0  0  0  0  0  0  0  0  0  0  0  0
   28.0166  -21.4090   -5.1973 C   0  0  0  0  0  0  0  0  0  0  0  0
   27.3248  -20.8916   -6.2394 C   0  0  0  0  0  0  0  0  0  0  0  0
   27.5295  -19.5852   -6.6405 C   0  0  0  0  0  0  0  0  0  0  0  0
   26.9947  -21.3593   -9.3631 O   0  0  0  0  0  0  0  0  0  0  0  0
   26.2606  -22.3878   -9.1637 O   0  0  0  0  0  0  0  0  0  0  0  0
  2  1  1  0
  3  2  1  0
  4  3  1  0
  4  5  1  0
  5  1  1  0
  5  6  1  1
  6  7  2  0
  8  9  1  0
  9 11  1  0
 10  9  2  0
 11 12  1  0
 12 13  1  0
 13 14  1  0
 15 14  1  6
 15 16  1  0
 16  6  1  0
 17 15  1  0
 18 17  2  0
 19 17  1  0
 20 21  1  1
 20 19  1  0
 21 22  1  0
 22 23  2  0
 23 24  1  0
 25 26  2  0
 25 24  1  0
 27 26  1  0
 28 27  2  0
 29 28  1  0
 29 30  2  0
 30 22  1  0
 30 25  1  0
 31 33  1  0
 31 20  1  0
 32 31  2  0
M  END
$$$$
