PRW.pdb
     RDKit          3D

 33 35  0  0  1  0  0  0  0  0999 V2000
   27.3673  -23.4380  -16.5313 N   0  0  0  0  0  0  0  0  0  0  0  0
   28.3537  -23.7293  -17.5466 C   0  0  0  0  0  0  0  0  0  0  0  0
   27.9027  -23.1164  -18.8313 C   0  0  0  0  0  0  0  0  0  0  0  0
   26.6459  -22.3584  -18.4900 C   0  0  0  0  0  0  0  0  0  0  0  0
   26.6149  -22.2863  -16.9767 C   0  0  1  0  0  0  0  0  0  0  0  0
   25.2246  -22.4255  -16.4747 C   0  0  0  0  0  0  0  0  0  0  0  0
   24.3507  -21.5439  -16.7528 O   0  0  0  0  0  0  0  0  0  0  0  0
   21.3413  -28.7180  -11.7447 N   0  0  0  0  0  0  0  0  0  0  0  0
   20.5691  -28.5523  -12.9212 C   0  0  0  0  0  0  0  0  0  0  0  0
   19.6586  -29.3963  -13.2701 N   0  0  0  0  0  0  0  0  0  0  0  0
   20.7720  -27.4322  -13.7734 N   0  0  0  0  0  0  0  0  0  0  0  0
   21.6095  -26.3623  -13.3508 C   0  0  0  0  0  0  0  0  0  0  0  0
   21.6562  -25.2082  -14.3486 C   0  0  0  0  0  0  0  0  0  0  0  0
   23.0894  -25.0305  -14.7335 C   0  0  0  0  0  0  0  0  0  0  0  0
   23.4415  -23.6592  -15.2027 C   0  0  2  0  0  0  0  0  0  0  0  0
   24.7821  -23.5005  -15.6834 N   0  0  0  0  0  0  0  0  0  0  0  0
   23.1049  -22.6167  -14.1716 C   0  0  0  0  0  0  0  0  0  0  0  0
   23.1750  -22.8996  -12.9298 O   0  0  0  0  0  0  0  0  0  0  0  0
   19.1065  -29.1715  -14.1493 N   0  0  0  0  0  0  0  0  0  0  0  0
   22.7023  -21.3025  -14.4959 C   0  0  1  0  0  0  0  0  0  0  0  0
   22.1984  -20.3403  -13.5232 C   0  0  0  0  0  0  0  0  0  0  0  0
   23.3079  -19.3896  -13.2310 C   0  0  0  0  0  0  0  0  0  0  0  0
   24.4865  -19.9382  -12.5380 C   0  0  0  0  0  0  0  0  0  0  0  0
   24.4797  -20.8161  -11.4412 N   0  0  0  0  0  0  0  0  0  0  0  0
   25.7282  -21.0768  -11.0645 C   0  0  0  0  0  0  0  0  0  0  0  0
   26.5986  -20.4032  -11.8712 C   0  0  0  0  0  0  0  0  0  0  0  0
   27.9710  -20.3545  -11.8953 C   0  0  0  0  0  0  0  0  0  0  0  0
   28.6076  -19.5936  -12.8428 C   0  0  0  0  0  0  0  0  0  0  0  0
   27.8409  -18.8962  -13.7477 C   0  0  0  0  0  0  0  0  0  0  0  0
   26.4882  -18.9403  -13.7278 C   0  0  0  0  0  0  0  0  0  0  0  0
   25.8228  -19.6987  -12.7835 C   0  0  0  0  0  0  0  0  0  0  0  0
   20.9106  -19.7933  -13.8960 O   0  0  0  0  0  0  0  0  0  0  0  0
   20.2702  -19.0224  -13.1009 O   0  0  0  0  0  0  0  0  0  0  0  0
  2  1  1  0
  3  2  1  0
  4  3  1  0
  4  5  1  0
  5  1  1  0
  5  6  1  1
  6  7  2  0
  8  9  1  0
  9 11  1  0
 10  9  2  0
 11 12  1  0
 12 13  1  0
 13 14  1  0
 15 14  1  1
 15 16  1  0
 16  6  1  0
 17 15  1  0
 18 17  2  0
 19 17  1  0
 20 21  1  1
 20 19  1  0
 21 22  1  0
 22 23  2  0
 23 24  1  0
 25 26  2  0
 25 24  1  0
 27 26  1  0
 28 27  2  0
 29 28  1  0
 29 30  2  0
 30 22  1  0
 30 25  1  0
 31 33  1  0
 31 20  1  0
 32 31  2  0
M  END
$$$$
