PRW.pdb
     RDKit          3D

 33 35  0  0  1  0  0  0  0  0999 V2000
   25.3794  -25.8791  -21.8969 N   0  0  0  0  0  0  0  0  0  0  0  0
   25.9643  -25.6514  -23.1989 C   0  0  0  0  0  0  0  0  0  0  0  0
   24.9227  -25.9143  -24.2358 C   0  0  0  0  0  0  0  0  0  0  0  0
   23.6612  -26.2082  -23.4660 C   0  0  0  0  0  0  0  0  0  0  0  0
   23.9447  -25.7726  -22.0425 C   0  0  1  0  0  0  0  0  0  0  0  0
   23.3157  -26.7063  -21.0745 C   0  0  0  0  0  0  0  0  0  0  0  0
   22.0526  -26.8552  -21.0549 O   0  0  0  0  0  0  0  0  0  0  0  0
   24.2334  -31.7421  -14.4246 N   0  0  0  0  0  0  0  0  0  0  0  0
   23.8334  -32.5011  -15.5523 C   0  0  0  0  0  0  0  0  0  0  0  0
   23.0134  -33.4920  -15.4580 N   0  0  0  0  0  0  0  0  0  0  0  0
   24.3281  -32.1935  -16.8495 N   0  0  0  0  0  0  0  0  0  0  0  0
   25.1161  -31.0257  -17.0492 C   0  0  0  0  0  0  0  0  0  0  0  0
   24.2789  -29.7703  -17.2790 C   0  0  0  0  0  0  0  0  0  0  0  0
   24.3160  -29.4917  -18.7470 C   0  0  0  0  0  0  0  0  0  0  0  0
   23.4479  -28.3615  -19.1872 C   0  0  2  0  0  0  0  0  0  0  0  0
   24.0387  -27.4692  -20.1402 N   0  0  0  0  0  0  0  0  0  0  0  0
   22.8800  -27.6091  -18.0148 C   0  0  0  0  0  0  0  0  0  0  0  0
   23.5614  -26.6868  -17.4562 O   0  0  0  0  0  0  0  0  0  0  0  0
   22.7821  -34.0114  -16.3553 N   0  0  0  0  0  0  0  0  0  0  0  0
   21.6013  -27.8635  -17.4719 C   0  0  2  0  0  0  0  0  0  0  0  0
   20.9864  -27.0605  -16.4217 C   0  0  0  0  0  0  0  0  0  0  0  0
   20.9902  -25.6465  -16.8914 C   0  0  0  0  0  0  0  0  0  0  0  0
   20.0530  -25.3048  -17.9754 C   0  0  0  0  0  0  0  0  0  0  0  0
   18.6671  -25.5347  -17.9876 N   0  0  0  0  0  0  0  0  0  0  0  0
   18.1513  -25.1193  -19.1409 C   0  0  0  0  0  0  0  0  0  0  0  0
   19.1428  -24.6078  -19.9267 C   0  0  0  0  0  0  0  0  0  0  0  0
   19.1182  -24.0511  -21.1820 C   0  0  0  0  0  0  0  0  0  0  0  0
   20.2820  -23.5924  -21.7450 C   0  0  0  0  0  0  0  0  0  0  0  0
   21.4488  -23.7070  -21.0249 C   0  0  0  0  0  0  0  0  0  0  0  0
   21.4785  -24.2553  -19.7878 C   0  0  0  0  0  0  0  0  0  0  0  0
   20.3202  -24.7254  -19.1986 C   0  0  0  0  0  0  0  0  0  0  0  0
   19.7369  -27.6207  -15.9511 O   0  0  0  0  0  0  0  0  0  0  0  0
   19.0599  -27.0374  -15.0357 O   0  0  0  0  0  0  0  0  0  0  0  0
  2  1  1  0
  3  2  1  0
  4  3  1  0
  4  5  1  0
  5  1  1  0
  5  6  1  1
  6  7  2  0
  8  9  1  0
  9 11  1  0
 10  9  2  0
 11 12  1  0
 12 13  1  0
 13 14  1  0
 15 14  1  1
 15 16  1  0
 16  6  1  0
 17 15  1  0
 18 17  2  0
 19 17  1  0
 20 21  1  6
 20 19  1  0
 21 22  1  0
 22 23  2  0
 23 24  1  0
 25 26  2  0
 25 24  1  0
 27 26  1  0
 28 27  2  0
 29 28  1  0
 29 30  2  0
 30 22  1  0
 30 25  1  0
 31 33  1  0
 31 20  1  0
 32 31  2  0
M  END
$$$$
