PRW.pdb
     RDKit          3D

 33 35  0  0  1  0  0  0  0  0999 V2000
   21.4955  -13.4303  -16.0787 N   0  0  0  0  0  0  0  0  0  0  0  0
   21.5006  -14.8444  -16.3772 C   0  0  0  0  0  0  0  0  0  0  0  0
   21.8688  -15.0215  -17.8133 C   0  0  0  0  0  0  0  0  0  0  0  0
   22.1826  -13.6363  -18.3166 C   0  0  0  0  0  0  0  0  0  0  0  0
   22.3108  -12.7744  -17.0767 C   0  0  1  0  0  0  0  0  0  0  0  0
   21.7423  -11.4241  -17.3172 C   0  0  0  0  0  0  0  0  0  0  0  0
   22.2565  -10.6581  -18.1930 O   0  0  0  0  0  0  0  0  0  0  0  0
   15.1063  -12.2182  -19.0812 N   0  0  0  0  0  0  0  0  0  0  0  0
   15.2083  -11.7903  -17.7342 C   0  0  0  0  0  0  0  0  0  0  0  0
   14.6319  -12.4199  -16.7676 N   0  0  0  0  0  0  0  0  0  0  0  0
   15.9620  -10.6337  -17.3930 N   0  0  0  0  0  0  0  0  0  0  0  0
   16.6853   -9.9360  -18.4004 C   0  0  0  0  0  0  0  0  0  0  0  0
   18.1939  -10.1502  -18.3114 C   0  0  0  0  0  0  0  0  0  0  0  0
   18.6462   -9.4998  -17.0439 C   0  0  0  0  0  0  0  0  0  0  0  0
   20.1141   -9.5820  -16.7928 C   0  0  2  0  0  0  0  0  0  0  0  0
   20.6344  -10.9063  -16.6229 N   0  0  0  0  0  0  0  0  0  0  0  0
   20.5348   -8.6817  -15.6633 C   0  0  0  0  0  0  0  0  0  0  0  0
   20.4987   -9.1051  -14.4607 O   0  0  0  0  0  0  0  0  0  0  0  0
   14.7919  -12.0449  -15.7868 N   0  0  0  0  0  0  0  0  0  0  0  0
   20.9813   -7.3549  -15.8502 C   0  0  1  0  0  0  0  0  0  0  0  0
   21.4008   -6.4751  -14.7659 C   0  0  0  0  0  0  0  0  0  0  0  0
   22.5148   -7.1595  -14.0514 C   0  0  0  0  0  0  0  0  0  0  0  0
   23.7253   -7.4546  -14.8375 C   0  0  0  0  0  0  0  0  0  0  0  0
   24.3219   -6.6233  -15.8002 N   0  0  0  0  0  0  0  0  0  0  0  0
   25.3839   -7.2292  -16.3233 C   0  0  0  0  0  0  0  0  0  0  0  0
   25.5385   -8.4570  -15.7483 C   0  0  0  0  0  0  0  0  0  0  0  0
   26.4766   -9.4424  -15.9362 C   0  0  0  0  0  0  0  0  0  0  0  0
   26.4062  -10.5973  -15.1993 C   0  0  0  0  0  0  0  0  0  0  0  0
   25.3860  -10.7316  -14.2860 C   0  0  0  0  0  0  0  0  0  0  0  0
   24.4586   -9.7639  -14.0974 C   0  0  0  0  0  0  0  0  0  0  0  0
   24.5069   -8.5914  -14.8273 C   0  0  0  0  0  0  0  0  0  0  0  0
   21.6064   -5.1102  -15.2035 O   0  0  0  0  0  0  0  0  0  0  0  0
   21.4950   -4.7933  -16.4378 O   0  0  0  0  0  0  0  0  0  0  0  0
  2  1  1  0
  3  2  1  0
  4  3  1  0
  4  5  1  0
  5  1  1  0
  5  6  1  6
  6  7  2  0
  8  9  1  0
  9 11  1  0
 10  9  2  0
 11 12  1  0
 12 13  1  0
 13 14  1  0
 15 14  1  1
 15 16  1  0
 16  6  1  0
 17 15  1  0
 18 17  2  0
 19 17  1  0
 20 21  1  1
 20 19  1  0
 21 22  1  0
 22 23  2  0
 23 24  1  0
 25 26  2  0
 25 24  1  0
 27 26  1  0
 28 27  2  0
 29 28  1  0
 29 30  2  0
 30 22  1  0
 30 25  1  0
 31 33  1  0
 31 20  1  0
 32 31  2  0
M  END
$$$$
