PRW.pdb
     RDKit          3D

 33 35  0  0  1  0  0  0  0  0999 V2000
   28.3162  -18.4048  -17.6550 N   0  0  0  0  0  0  0  0  0  0  0  0
   28.8698  -17.1339  -17.2458 C   0  0  0  0  0  0  0  0  0  0  0  0
   28.4389  -16.8623  -15.8422 C   0  0  0  0  0  0  0  0  0  0  0  0
   27.6865  -18.0950  -15.4122 C   0  0  0  0  0  0  0  0  0  0  0  0
   28.0053  -19.1481  -16.4542 C   0  0  1  0  0  0  0  0  0  0  0  0
   26.8126  -19.9877  -16.7314 C   0  0  0  0  0  0  0  0  0  0  0  0
   25.9832  -19.6462  -17.6334 O   0  0  0  0  0  0  0  0  0  0  0  0
   28.8015  -24.8540  -17.9424 N   0  0  0  0  0  0  0  0  0  0  0  0
   28.0941  -25.6072  -16.9729 C   0  0  0  0  0  0  0  0  0  0  0  0
   28.6943  -26.2471  -16.0276 N   0  0  0  0  0  0  0  0  0  0  0  0
   26.6746  -25.6863  -17.0061 N   0  0  0  0  0  0  0  0  0  0  0  0
   25.9561  -25.0877  -18.0786 C   0  0  0  0  0  0  0  0  0  0  0  0
   25.8012  -23.5769  -17.9261 C   0  0  0  0  0  0  0  0  0  0  0  0
   25.3884  -23.3278  -16.5114 C   0  0  0  0  0  0  0  0  0  0  0  0
   25.2756  -21.8874  -16.1413 C   0  0  2  0  0  0  0  0  0  0  0  0
   26.5178  -21.1794  -16.0455 N   0  0  0  0  0  0  0  0  0  0  0  0
   24.4421  -21.6963  -14.9036 C   0  0  0  0  0  0  0  0  0  0  0  0
   25.0032  -21.4280  -13.7900 O   0  0  0  0  0  0  0  0  0  0  0  0
   28.0903  -26.8553  -15.4002 N   0  0  0  0  0  0  0  0  0  0  0  0
   23.0335  -21.7980  -14.8902 C   0  0  1  0  0  0  0  0  0  0  0  0
   22.2092  -21.5536  -13.7127 C   0  0  0  0  0  0  0  0  0  0  0  0
   22.5101  -20.1711  -13.2456 C   0  0  0  0  0  0  0  0  0  0  0  0
   21.9673  -19.0649  -14.0531 C   0  0  0  0  0  0  0  0  0  0  0  0
   20.6241  -18.8758  -14.4188 N   0  0  0  0  0  0  0  0  0  0  0  0
   20.5108  -17.7847  -15.1707 C   0  0  0  0  0  0  0  0  0  0  0  0
   21.7393  -17.2136  -15.3347 C   0  0  0  0  0  0  0  0  0  0  0  0
   22.1395  -16.0843  -16.0060 C   0  0  0  0  0  0  0  0  0  0  0  0
   23.4624  -15.7212  -15.9970 C   0  0  0  0  0  0  0  0  0  0  0  0
   24.3545  -16.5100  -15.3078 C   0  0  0  0  0  0  0  0  0  0  0  0
   23.9653  -17.6242  -14.6451 C   0  0  0  0  0  0  0  0  0  0  0  0
   22.6389  -18.0119  -14.6391 C   0  0  0  0  0  0  0  0  0  0  0  0
   20.8231  -21.9191  -13.9170 O   0  0  0  0  0  0  0  0  0  0  0  0
   20.3282  -21.9824  -15.0949 O   0  0  0  0  0  0  0  0  0  0  0  0
  2  1  1  0
  3  2  1  0
  4  3  1  0
  4  5  1  0
  5  1  1  0
  5  6  1  6
  6  7  2  0
  8  9  1  0
  9 11  1  0
 10  9  2  0
 11 12  1  0
 12 13  1  0
 13 14  1  0
 15 14  1  1
 15 16  1  0
 16  6  1  0
 17 15  1  0
 18 17  2  0
 19 17  1  0
 20 21  1  1
 20 19  1  0
 21 22  1  0
 22 23  2  0
 23 24  1  0
 25 26  2  0
 25 24  1  0
 27 26  1  0
 28 27  2  0
 29 28  1  0
 29 30  2  0
 30 22  1  0
 30 25  1  0
 31 33  1  0
 31 20  1  0
 32 31  2  0
M  END
$$$$
