PRW.pdb
     RDKit          3D

 33 35  0  0  1  0  0  0  0  0999 V2000
   24.9174  -18.3216  -18.5933 N   0  0  0  0  0  0  0  0  0  0  0  0
   25.2492  -17.5928  -19.7965 C   0  0  0  0  0  0  0  0  0  0  0  0
   25.3393  -18.5647  -20.9263 C   0  0  0  0  0  0  0  0  0  0  0  0
   24.9386  -19.8936  -20.3399 C   0  0  0  0  0  0  0  0  0  0  0  0
   24.3138  -19.5719  -18.9973 C   0  0  1  0  0  0  0  0  0  0  0  0
   24.6766  -20.6017  -17.9913 C   0  0  0  0  0  0  0  0  0  0  0  0
   23.8008  -21.4210  -17.5671 O   0  0  0  0  0  0  0  0  0  0  0  0
   30.9476  -24.9105  -17.4198 N   0  0  0  0  0  0  0  0  0  0  0  0
   30.6122  -24.4491  -18.7169 C   0  0  0  0  0  0  0  0  0  0  0  0
   30.7026  -25.2032  -19.7592 N   0  0  0  0  0  0  0  0  0  0  0  0
   30.1562  -23.1177  -18.9207 N   0  0  0  0  0  0  0  0  0  0  0  0
   29.9088  -22.2740  -17.8019 C   0  0  0  0  0  0  0  0  0  0  0  0
   28.5156  -21.6507  -17.8184 C   0  0  0  0  0  0  0  0  0  0  0  0
   27.7276  -22.3313  -16.7461 C   0  0  0  0  0  0  0  0  0  0  0  0
   26.3553  -21.7841  -16.5409 C   0  0  2  0  0  0  0  0  0  0  0  0
   25.9663  -20.7466  -17.4496 N   0  0  0  0  0  0  0  0  0  0  0  0
   26.1312  -21.3700  -15.1121 C   0  0  0  0  0  0  0  0  0  0  0  0
   26.2330  -20.1431  -14.7785 O   0  0  0  0  0  0  0  0  0  0  0  0
   30.5348  -24.7426  -20.7016 N   0  0  0  0  0  0  0  0  0  0  0  0
   25.8056  -22.2778  -14.0804 C   0  0  1  0  0  0  0  0  0  0  0  0
   25.5147  -21.8823  -12.7075 C   0  0  0  0  0  0  0  0  0  0  0  0
   24.5021  -20.7910  -12.7705 C   0  0  0  0  0  0  0  0  0  0  0  0
   23.7826  -20.4807  -11.5230 C   0  0  0  0  0  0  0  0  0  0  0  0
   24.3521  -20.2907  -10.2528 N   0  0  0  0  0  0  0  0  0  0  0  0
   23.3951  -20.0533   -9.3604 C   0  0  0  0  0  0  0  0  0  0  0  0
   22.1789  -20.0734   -9.9789 C   0  0  0  0  0  0  0  0  0  0  0  0
   20.9070  -19.8755   -9.5000 C   0  0  0  0  0  0  0  0  0  0  0  0
   19.8397  -19.9374  -10.3597 C   0  0  0  0  0  0  0  0  0  0  0  0
   20.0820  -20.1990  -11.6886 C   0  0  0  0  0  0  0  0  0  0  0  0
   21.3335  -20.3953  -12.1654 C   0  0  0  0  0  0  0  0  0  0  0  0
   22.4253  -20.3388  -11.3203 C   0  0  0  0  0  0  0  0  0  0  0  0
   25.2460  -23.0148  -11.8462 O   0  0  0  0  0  0  0  0  0  0  0  0
   24.6798  -24.0669  -12.3035 O   0  0  0  0  0  0  0  0  0  0  0  0
  2  1  1  0
  3  2  1  0
  4  3  1  0
  4  5  1  0
  5  1  1  0
  5  6  1  1
  6  7  2  0
  8  9  1  0
  9 11  1  0
 10  9  2  0
 11 12  1  0
 12 13  1  0
 13 14  1  0
 15 14  1  1
 15 16  1  0
 16  6  1  0
 17 15  1  0
 18 17  2  0
 19 17  1  0
 20 21  1  1
 20 19  1  0
 21 22  1  0
 22 23  2  0
 23 24  1  0
 25 26  2  0
 25 24  1  0
 27 26  1  0
 28 27  2  0
 29 28  1  0
 29 30  2  0
 30 22  1  0
 30 25  1  0
 31 33  1  0
 31 20  1  0
 32 31  2  0
M  END
$$$$
