PRW.pdb
     RDKit          3D

 33 35  0  0  1  0  0  0  0  0999 V2000
   29.0341  -19.8862  -15.7145 N   0  0  0  0  0  0  0  0  0  0  0  0
   29.6937  -19.3149  -16.8667 C   0  0  0  0  0  0  0  0  0  0  0  0
   29.4802  -17.8373  -16.8473 C   0  0  0  0  0  0  0  0  0  0  0  0
   28.7459  -17.5589  -15.5613 C   0  0  0  0  0  0  0  0  0  0  0  0
   28.8673  -18.8285  -14.7428 C   0  0  1  0  0  0  0  0  0  0  0  0
   27.6128  -19.0893  -13.9927 C   0  0  0  0  0  0  0  0  0  0  0  0
   27.1837  -18.2426  -13.1459 O   0  0  0  0  0  0  0  0  0  0  0  0
   25.7990  -25.7920  -15.7030 N   0  0  0  0  0  0  0  0  0  0  0  0
   24.4728  -25.6700  -15.2189 C   0  0  0  0  0  0  0  0  0  0  0  0
   23.8807  -26.6264  -14.5881 N   0  0  0  0  0  0  0  0  0  0  0  0
   23.7345  -24.4703  -15.4131 N   0  0  0  0  0  0  0  0  0  0  0  0
   24.4148  -23.2642  -15.7404 C   0  0  0  0  0  0  0  0  0  0  0  0
   25.2586  -22.7215  -14.5901 C   0  0  0  0  0  0  0  0  0  0  0  0
   24.6530  -21.4143  -14.1922 C   0  0  0  0  0  0  0  0  0  0  0  0
   25.5847  -20.4863  -13.4883 C   0  0  2  0  0  0  0  0  0  0  0  0
   26.8314  -20.2474  -14.1532 N   0  0  0  0  0  0  0  0  0  0  0  0
   25.7997  -20.8965  -12.0570 C   0  0  0  0  0  0  0  0  0  0  0  0
   26.8637  -21.5153  -11.7222 O   0  0  0  0  0  0  0  0  0  0  0  0
   22.8506  -26.4909  -14.3671 N   0  0  0  0  0  0  0  0  0  0  0  0
   24.8724  -20.6349  -11.0244 C   0  0  1  0  0  0  0  0  0  0  0  0
   25.0837  -20.9957   -9.6276 C   0  0  0  0  0  0  0  0  0  0  0  0
   26.4327  -20.4929   -9.2437 C   0  0  0  0  0  0  0  0  0  0  0  0
   26.6902  -20.3167   -7.8039 C   0  0  0  0  0  0  0  0  0  0  0  0
   25.7270  -20.1418   -6.7962 N   0  0  0  0  0  0  0  0  0  0  0  0
   26.3280  -19.9885   -5.6198 C   0  0  0  0  0  0  0  0  0  0  0  0
   27.6808  -20.0531   -5.7862 C   0  0  0  0  0  0  0  0  0  0  0  0
   28.7170  -19.9655   -4.8890 C   0  0  0  0  0  0  0  0  0  0  0  0
   30.0104  -20.0822   -5.3309 C   0  0  0  0  0  0  0  0  0  0  0  0
   30.2290  -20.2853   -6.6740 C   0  0  0  0  0  0  0  0  0  0  0  0
   29.2115  -20.3717   -7.5624 C   0  0  0  0  0  0  0  0  0  0  0  0
   27.8998  -20.2570   -7.1430 C   0  0  0  0  0  0  0  0  0  0  0  0
   23.9590  -20.6459   -8.7854 O   0  0  0  0  0  0  0  0  0  0  0  0
   23.1571  -19.7065   -9.1186 O   0  0  0  0  0  0  0  0  0  0  0  0
  2  1  1  0
  3  2  1  0
  4  3  1  0
  4  5  1  0
  5  1  1  0
  5  6  1  6
  6  7  2  0
  8  9  1  0
  9 11  1  0
 10  9  2  0
 11 12  1  0
 12 13  1  0
 13 14  1  0
 15 14  1  6
 15 16  1  0
 16  6  1  0
 17 15  1  0
 18 17  2  0
 19 17  1  0
 20 21  1  1
 20 19  1  0
 21 22  1  0
 22 23  2  0
 23 24  1  0
 25 26  2  0
 25 24  1  0
 27 26  1  0
 28 27  2  0
 29 28  1  0
 29 30  2  0
 30 22  1  0
 30 25  1  0
 31 33  1  0
 31 20  1  0
 32 31  2  0
M  END
$$$$
