PRW.pdb
     RDKit          3D

 33 35  0  0  1  0  0  0  0  0999 V2000
   23.0255  -25.5452  -16.3470 N   0  0  0  0  0  0  0  0  0  0  0  0
   22.6266  -26.3418  -17.4851 C   0  0  0  0  0  0  0  0  0  0  0  0
   23.8162  -27.1057  -17.9656 C   0  0  0  0  0  0  0  0  0  0  0  0
   24.9130  -26.7934  -16.9809 C   0  0  0  0  0  0  0  0  0  0  0  0
   24.2230  -26.1425  -15.7991 C   0  0  1  0  0  0  0  0  0  0  0  0
   25.0622  -25.0538  -15.2379 C   0  0  0  0  0  0  0  0  0  0  0  0
   25.9698  -25.3174  -14.3865 O   0  0  0  0  0  0  0  0  0  0  0  0
   28.7411  -17.1285  -16.7754 N   0  0  0  0  0  0  0  0  0  0  0  0
   29.3103  -18.3567  -17.1942 C   0  0  0  0  0  0  0  0  0  0  0  0
   30.5568  -18.4655  -17.5064 N   0  0  0  0  0  0  0  0  0  0  0  0
   28.5164  -19.5329  -17.2865 N   0  0  0  0  0  0  0  0  0  0  0  0
   27.1814  -19.5277  -16.7941 C   0  0  0  0  0  0  0  0  0  0  0  0
   26.9694  -20.4896  -15.6281 C   0  0  0  0  0  0  0  0  0  0  0  0
   26.0787  -21.5809  -16.1279 C   0  0  0  0  0  0  0  0  0  0  0  0
   25.7825  -22.6479  -15.1286 C   0  0  2  0  0  0  0  0  0  0  0  0
   24.9247  -23.6992  -15.5896 N   0  0  0  0  0  0  0  0  0  0  0  0
   25.2880  -22.0702  -13.8305 C   0  0  0  0  0  0  0  0  0  0  0  0
   24.1125  -21.5810  -13.7550 O   0  0  0  0  0  0  0  0  0  0  0  0
   30.8824  -19.4121  -17.8617 N   0  0  0  0  0  0  0  0  0  0  0  0
   26.0631  -22.0308  -12.6506 C   0  0  2  0  0  0  0  0  0  0  0  0
   25.6544  -21.3485  -11.4286 C   0  0  0  0  0  0  0  0  0  0  0  0
   26.7775  -21.4766  -10.4579 C   0  0  0  0  0  0  0  0  0  0  0  0
   26.6374  -20.7538   -9.1818 C   0  0  0  0  0  0  0  0  0  0  0  0
   25.4358  -20.4365   -8.5268 N   0  0  0  0  0  0  0  0  0  0  0  0
   25.6950  -19.7568   -7.4134 C   0  0  0  0  0  0  0  0  0  0  0  0
   27.0435  -19.5958   -7.2803 C   0  0  0  0  0  0  0  0  0  0  0  0
   27.7993  -18.9851   -6.3096 C   0  0  0  0  0  0  0  0  0  0  0  0
   29.1670  -18.9813   -6.4153 C   0  0  0  0  0  0  0  0  0  0  0  0
   29.7427  -19.5964   -7.5031 C   0  0  0  0  0  0  0  0  0  0  0  0
   29.0023  -20.1990   -8.4627 C   0  0  0  0  0  0  0  0  0  0  0  0
   27.6231  -20.2163   -8.3800 C   0  0  0  0  0  0  0  0  0  0  0  0
   25.1166  -20.0279  -11.6808 O   0  0  0  0  0  0  0  0  0  0  0  0
   25.7545  -19.1869  -12.4035 O   0  0  0  0  0  0  0  0  0  0  0  0
  2  1  1  0
  3  2  1  0
  4  3  1  0
  4  5  1  0
  5  1  1  0
  5  6  1  6
  6  7  2  0
  8  9  1  0
  9 11  1  0
 10  9  2  0
 11 12  1  0
 12 13  1  0
 13 14  1  0
 15 14  1  6
 15 16  1  0
 16  6  1  0
 17 15  1  0
 18 17  2  0
 19 17  1  0
 20 21  1  1
 20 19  1  0
 21 22  1  0
 22 23  2  0
 23 24  1  0
 25 26  2  0
 25 24  1  0
 27 26  1  0
 28 27  2  0
 29 28  1  0
 29 30  2  0
 30 22  1  0
 30 25  1  0
 31 33  1  0
 31 20  1  0
 32 31  2  0
M  END
$$$$
