HRK.pdb
     RDKit          3D

 31 31  0  0  1  0  0  0  0  0999 V2000
   27.0899  -19.6761  -18.4301 N   0  0  0  0  0  0  0  0  0  0  0  0
   26.7857  -19.1909  -17.1279 C   0  0  1  0  0  0  0  0  0  0  0  0
   26.6807  -17.6797  -17.1890 C   0  0  0  0  0  0  0  0  0  0  0  0
   27.9898  -17.0538  -17.4293 C   0  0  0  0  0  0  0  0  0  0  0  0
   29.1815  -17.3864  -16.8299 C   0  0  0  0  0  0  0  0  0  0  0  0
   30.1279  -16.5882  -17.3234 N   0  0  0  0  0  0  0  0  0  0  0  0
   29.5238  -15.7666  -18.2334 C   0  0  0  0  0  0  0  0  0  0  0  0
   28.2224  -16.0474  -18.3089 N   0  0  0  0  0  0  0  0  0  0  0  0
   25.5110  -19.7687  -16.6443 C   0  0  0  0  0  0  0  0  0  0  0  0
   24.5148  -19.7230  -17.4023 O   0  0  0  0  0  0  0  0  0  0  0  0
   24.2037  -20.4432   -8.5514 N   0  0  0  0  0  0  0  0  0  0  0  0
   25.5805  -20.6490   -8.8245 C   0  0  0  0  0  0  0  0  0  0  0  0
   26.4864  -20.6723   -7.8810 N   0  0  0  0  0  0  0  0  0  0  0  0
   26.0151  -20.8343  -10.1881 N   0  0  0  0  0  0  0  0  0  0  0  0
   25.0272  -21.1464  -11.1523 C   0  0  0  0  0  0  0  0  0  0  0  0
   25.6330  -21.3803  -12.5596 C   0  0  0  0  0  0  0  0  0  0  0  0
   24.4587  -21.6206  -13.4208 C   0  0  0  0  0  0  0  0  0  0  0  0
   24.3238  -20.8876  -14.7106 C   0  0  2  0  0  0  0  0  0  0  0  0
   25.4135  -20.3466  -15.3796 N   0  0  0  0  0  0  0  0  0  0  0  0
   23.2929  -19.8437  -14.5001 C   0  0  0  0  0  0  0  0  0  0  0  0
   23.7508  -18.7562  -13.9702 O   0  0  0  0  0  0  0  0  0  0  0  0
   27.4847  -20.7967   -8.2168 N   0  0  0  0  0  0  0  0  0  0  0  0
   21.9521  -19.9745  -14.8110 C   0  0  2  0  0  0  0  0  0  0  0  0
   20.9607  -18.8669  -14.5033 C   0  0  0  0  0  0  0  0  0  0  0  0
   20.0485  -18.7891  -15.6539 C   0  0  0  0  0  0  0  0  0  0  0  0
   18.9457  -17.8350  -15.6716 C   0  0  0  0  0  0  0  0  0  0  0  0
   17.9473  -17.8547  -16.7860 C   0  0  0  0  0  0  0  0  0  0  0  0
   16.8981  -16.7298  -16.5734 N   0  0  0  0  0  0  0  0  0  0  0  0
   15.9940  -16.8000  -17.7129 C   0  0  0  0  0  0  0  0  0  0  0  0
   20.4240  -19.3614  -13.2048 O   0  0  0  0  0  0  0  0  0  0  0  0
   19.8493  -18.5589  -12.2650 O   0  0  0  0  0  0  0  0  0  0  0  0
  2  1  1  6
  2  9  1  0
  2  3  1  0
  3  4  1  0
  4  8  1  0
  4  5  2  0
  5  6  1  0
  7  6  1  0
  8  7  2  0
  9 10  2  0
 12 14  1  0
 12 11  1  0
 13 12  2  0
 15 16  1  0
 15 14  1  0
 16 17  1  0
 18 17  1  1
 19 18  1  0
 19  9  1  0
 20 18  1  0
 21 20  2  0
 22 20  1  0
 23 22  1  0
 24 25  1  0
 23 24  1  1
 25 26  1  0
 26 27  1  0
 27 28  1  0
 29 23  1  0
 29 30  1  0
 31 29  2  0
M  END
$$$$
