HRK.pdb
     RDKit          3D

 31 31  0  0  1  0  0  0  0  0999 V2000
   27.4588  -17.3186  -20.2123 N   0  0  0  0  0  0  0  0  0  0  0  0
   27.7060  -17.7711  -18.8865 C   0  0  1  0  0  0  0  0  0  0  0  0
   27.8788  -16.5615  -17.9888 C   0  0  0  0  0  0  0  0  0  0  0  0
   29.0994  -15.8103  -18.3191 C   0  0  0  0  0  0  0  0  0  0  0  0
   29.1707  -14.5040  -18.7416 C   0  0  0  0  0  0  0  0  0  0  0  0
   30.4550  -14.2009  -18.9285 N   0  0  0  0  0  0  0  0  0  0  0  0
   31.1791  -15.3168  -18.6148 C   0  0  0  0  0  0  0  0  0  0  0  0
   30.3618  -16.3002  -18.2366 N   0  0  0  0  0  0  0  0  0  0  0  0
   26.5801  -18.6033  -18.4047 C   0  0  0  0  0  0  0  0  0  0  0  0
   25.4150  -18.2540  -18.7038 O   0  0  0  0  0  0  0  0  0  0  0  0
   26.1670  -26.6986  -17.8590 N   0  0  0  0  0  0  0  0  0  0  0  0
   27.0483  -26.1667  -16.8828 C   0  0  0  0  0  0  0  0  0  0  0  0
   28.1158  -26.8064  -16.4795 N   0  0  0  0  0  0  0  0  0  0  0  0
   26.7677  -24.8774  -16.2984 N   0  0  0  0  0  0  0  0  0  0  0  0
   25.5692  -24.2316  -16.6848 C   0  0  0  0  0  0  0  0  0  0  0  0
   25.3604  -22.8874  -15.9420 C   0  0  0  0  0  0  0  0  0  0  0  0
   26.3502  -21.9805  -16.5553 C   0  0  0  0  0  0  0  0  0  0  0  0
   25.9123  -20.6640  -17.0975 C   0  0  2  0  0  0  0  0  0  0  0  0
   26.8026  -19.7445  -17.6357 N   0  0  0  0  0  0  0  0  0  0  0  0
   25.0993  -20.0182  -16.0397 C   0  0  0  0  0  0  0  0  0  0  0  0
   25.8009  -19.4109  -15.1387 O   0  0  0  0  0  0  0  0  0  0  0  0
   28.7209  -26.2814  -15.7845 N   0  0  0  0  0  0  0  0  0  0  0  0
   23.7187  -20.0443  -15.9691 C   0  0  2  0  0  0  0  0  0  0  0  0
   22.9679  -19.2308  -14.9306 C   0  0  0  0  0  0  0  0  0  0  0  0
   21.8391  -18.5983  -15.6292 C   0  0  0  0  0  0  0  0  0  0  0  0
   20.8549  -17.8080  -14.8987 C   0  0  0  0  0  0  0  0  0  0  0  0
   19.7126  -17.1674  -15.6225 C   0  0  0  0  0  0  0  0  0  0  0  0
   18.8013  -16.4196  -14.6118 N   0  0  0  0  0  0  0  0  0  0  0  0
   17.6563  -15.9437  -15.3755 C   0  0  0  0  0  0  0  0  0  0  0  0
   22.6766  -20.2993  -13.9345 O   0  0  0  0  0  0  0  0  0  0  0  0
   22.4869  -20.0676  -12.6049 O   0  0  0  0  0  0  0  0  0  0  0  0
  2  1  1  6
  2  9  1  0
  2  3  1  0
  3  4  1  0
  4  8  1  0
  4  5  2  0
  5  6  1  0
  7  6  1  0
  8  7  2  0
  9 10  2  0
 12 14  1  0
 12 11  1  0
 13 12  2  0
 15 16  1  0
 15 14  1  0
 16 17  1  0
 18 17  1  1
 19 18  1  0
 19  9  1  0
 20 18  1  0
 21 20  2  0
 22 20  1  0
 23 22  1  0
 24 25  1  0
 23 24  1  6
 25 26  1  0
 26 27  1  0
 27 28  1  0
 29 23  1  0
 29 30  1  0
 31 29  2  0
M  END
$$$$
