HRK.pdb
     RDKit          3D

 31 31  0  0  1  0  0  0  0  0999 V2000
   26.5541  -18.1874  -19.7122 N   0  0  0  0  0  0  0  0  0  0  0  0
   25.9996  -17.4865  -18.6055 C   0  0  1  0  0  0  0  0  0  0  0  0
   24.9439  -16.5286  -19.1216 C   0  0  0  0  0  0  0  0  0  0  0  0
   25.5371  -15.4472  -19.9229 C   0  0  0  0  0  0  0  0  0  0  0  0
   25.4172  -15.2708  -21.2810 C   0  0  0  0  0  0  0  0  0  0  0  0
   26.0973  -14.1745  -21.6157 N   0  0  0  0  0  0  0  0  0  0  0  0
   26.6319  -13.6683  -20.4642 C   0  0  0  0  0  0  0  0  0  0  0  0
   26.2906  -14.4338  -19.4271 N   0  0  0  0  0  0  0  0  0  0  0  0
   25.3962  -18.4346  -17.6414 C   0  0  0  0  0  0  0  0  0  0  0  0
   24.8075  -19.4439  -18.0928 O   0  0  0  0  0  0  0  0  0  0  0  0
   24.9454  -23.2538  -11.6053 N   0  0  0  0  0  0  0  0  0  0  0  0
   25.5910  -23.1242  -12.8618 C   0  0  0  0  0  0  0  0  0  0  0  0
   25.5900  -24.0824  -13.7525 N   0  0  0  0  0  0  0  0  0  0  0  0
   26.2846  -21.8998  -13.1821 N   0  0  0  0  0  0  0  0  0  0  0  0
   26.1556  -20.8196  -12.2769 C   0  0  0  0  0  0  0  0  0  0  0  0
   25.1317  -19.7633  -12.7648 C   0  0  0  0  0  0  0  0  0  0  0  0
   25.7777  -19.1546  -13.9440 C   0  0  0  0  0  0  0  0  0  0  0  0
   24.9991  -18.9652  -15.1997 C   0  0  2  0  0  0  0  0  0  0  0  0
   25.4741  -18.2150  -16.2670 N   0  0  0  0  0  0  0  0  0  0  0  0
   23.6581  -18.4776  -14.7986 C   0  0  0  0  0  0  0  0  0  0  0  0
   23.6524  -17.2575  -14.3692 O   0  0  0  0  0  0  0  0  0  0  0  0
   26.1231  -23.8699  -14.6445 N   0  0  0  0  0  0  0  0  0  0  0  0
   22.4933  -19.2210  -14.8464 C   0  0  2  0  0  0  0  0  0  0  0  0
   21.1629  -18.6285  -14.4188 C   0  0  0  0  0  0  0  0  0  0  0  0
   20.3520  -18.4949  -15.6381 C   0  0  0  0  0  0  0  0  0  0  0  0
   19.0067  -17.9345  -15.5846 C   0  0  0  0  0  0  0  0  0  0  0  0
   18.1350  -17.9448  -16.8008 C   0  0  0  0  0  0  0  0  0  0  0  0
   16.7690  -17.2817  -16.4757 N   0  0  0  0  0  0  0  0  0  0  0  0
   16.0117  -17.2858  -17.7195 C   0  0  0  0  0  0  0  0  0  0  0  0
   20.7528  -19.6359  -13.4011 O   0  0  0  0  0  0  0  0  0  0  0  0
   19.7760  -19.4255  -12.4742 O   0  0  0  0  0  0  0  0  0  0  0  0
  2  1  1  6
  2  9  1  0
  2  3  1  0
  3  4  1  0
  4  8  1  0
  4  5  2  0
  5  6  1  0
  7  6  1  0
  8  7  2  0
  9 10  2  0
 12 14  1  0
 12 11  1  0
 13 12  2  0
 15 16  1  0
 15 14  1  0
 16 17  1  0
 18 17  1  1
 19 18  1  0
 19  9  1  0
 20 18  1  0
 21 20  2  0
 22 20  1  0
 23 22  1  0
 24 25  1  0
 23 24  1  6
 25 26  1  0
 26 27  1  0
 27 28  1  0
 29 23  1  0
 29 30  1  0
 31 29  2  0
M  END
$$$$
