HRK.pdb
     RDKit          3D

 31 31  0  0  1  0  0  0  0  0999 V2000
   25.7142  -11.6263  -18.4302 N   0  0  0  0  0  0  0  0  0  0  0  0
   25.3129  -11.1070  -17.1681 C   0  0  1  0  0  0  0  0  0  0  0  0
   26.5181  -10.4711  -16.5033 C   0  0  0  0  0  0  0  0  0  0  0  0
   27.5784  -11.4570  -16.2442 C   0  0  0  0  0  0  0  0  0  0  0  0
   27.5442  -12.4767  -15.3229 C   0  0  0  0  0  0  0  0  0  0  0  0
   28.6949  -13.1443  -15.4044 N   0  0  0  0  0  0  0  0  0  0  0  0
   29.4382  -12.5426  -16.3808 C   0  0  0  0  0  0  0  0  0  0  0  0
   28.7633  -11.5176  -16.9022 N   0  0  0  0  0  0  0  0  0  0  0  0
   24.2391  -10.1020  -17.3390 C   0  0  0  0  0  0  0  0  0  0  0  0
   24.3022   -9.3293  -18.3228 O   0  0  0  0  0  0  0  0  0  0  0  0
   16.3958  -10.9969  -13.6272 N   0  0  0  0  0  0  0  0  0  0  0  0
   16.0659  -10.0596  -14.6397 C   0  0  0  0  0  0  0  0  0  0  0  0
   14.8286   -9.7788  -14.9586 N   0  0  0  0  0  0  0  0  0  0  0  0
   17.1217   -9.3877  -15.3582 N   0  0  0  0  0  0  0  0  0  0  0  0
   18.4302   -9.9140  -15.2403 C   0  0  0  0  0  0  0  0  0  0  0  0
   19.4768   -9.0627  -16.0034 C   0  0  0  0  0  0  0  0  0  0  0  0
   20.7296   -9.8319  -15.8729 C   0  0  0  0  0  0  0  0  0  0  0  0
   21.9784   -9.3268  -16.5087 C   0  0  2  0  0  0  0  0  0  0  0  0
   23.1847  -10.0100  -16.4319 N   0  0  0  0  0  0  0  0  0  0  0  0
   22.1589   -7.9319  -16.0413 C   0  0  0  0  0  0  0  0  0  0  0  0
   22.8097   -7.8338  -14.9278 O   0  0  0  0  0  0  0  0  0  0  0  0
   14.7135   -9.0825  -15.7503 N   0  0  0  0  0  0  0  0  0  0  0  0
   21.6843   -6.8070  -16.6901 C   0  0  2  0  0  0  0  0  0  0  0  0
   21.9756   -5.4131  -16.1644 C   0  0  0  0  0  0  0  0  0  0  0  0
   21.8773   -4.5021  -17.3145 C   0  0  0  0  0  0  0  0  0  0  0  0
   22.0480   -3.0636  -17.1466 C   0  0  0  0  0  0  0  0  0  0  0  0
   21.8084   -2.1351  -18.2954 C   0  0  0  0  0  0  0  0  0  0  0  0
   22.1013   -0.6732  -17.8612 N   0  0  0  0  0  0  0  0  0  0  0  0
   21.7280    0.1663  -18.9911 C   0  0  0  0  0  0  0  0  0  0  0  0
   20.9395   -5.3233  -15.0980 O   0  0  0  0  0  0  0  0  0  0  0  0
   19.7487   -5.9851  -15.1377 O   0  0  0  0  0  0  0  0  0  0  0  0
  2  1  1  6
  2  9  1  0
  2  3  1  0
  3  4  1  0
  4  8  1  0
  4  5  2  0
  5  6  1  0
  7  6  1  0
  8  7  2  0
  9 10  2  0
 12 14  1  0
 12 11  1  0
 13 12  2  0
 15 16  1  0
 15 14  1  0
 16 17  1  0
 18 17  1  1
 19 18  1  0
 19  9  1  0
 20 18  1  0
 21 20  2  0
 22 20  1  0
 23 22  1  0
 24 25  1  0
 23 24  1  6
 25 26  1  0
 26 27  1  0
 27 28  1  0
 29 23  1  0
 29 30  1  0
 31 29  2  0
M  END
$$$$
