HRK.pdb
     RDKit          3D

 31 31  0  0  1  0  0  0  0  0999 V2000
   25.4832  -19.9730  -16.9575 N   0  0  0  0  0  0  0  0  0  0  0  0
   26.4030  -20.1495  -15.8868 C   0  0  1  0  0  0  0  0  0  0  0  0
   27.6643  -19.3692  -16.2013 C   0  0  0  0  0  0  0  0  0  0  0  0
   28.3079  -19.8511  -17.4329 C   0  0  0  0  0  0  0  0  0  0  0  0
   27.8516  -20.8484  -18.2618 C   0  0  0  0  0  0  0  0  0  0  0  0
   28.7174  -20.9772  -19.2669 N   0  0  0  0  0  0  0  0  0  0  0  0
   29.7056  -20.0550  -19.0643 C   0  0  0  0  0  0  0  0  0  0  0  0
   29.4610  -19.3603  -17.9526 N   0  0  0  0  0  0  0  0  0  0  0  0
   25.8151  -19.6716  -14.6146 C   0  0  0  0  0  0  0  0  0  0  0  0
   25.5691  -18.4489  -14.4983 O   0  0  0  0  0  0  0  0  0  0  0  0
   19.4153  -22.2191  -14.5174 N   0  0  0  0  0  0  0  0  0  0  0  0
   20.6279  -22.9549  -14.5441 C   0  0  0  0  0  0  0  0  0  0  0  0
   20.8254  -23.9506  -15.3694 N   0  0  0  0  0  0  0  0  0  0  0  0
   21.6895  -22.6097  -13.6297 N   0  0  0  0  0  0  0  0  0  0  0  0
   21.4754  -21.5103  -12.7646 C   0  0  0  0  0  0  0  0  0  0  0  0
   22.5103  -20.3781  -12.9863 C   0  0  0  0  0  0  0  0  0  0  0  0
   23.5697  -20.6612  -11.9984 C   0  0  0  0  0  0  0  0  0  0  0  0
   24.9866  -20.3293  -12.3163 C   0  0  2  0  0  0  0  0  0  0  0  0
   25.5430  -20.5521  -13.5687 N   0  0  0  0  0  0  0  0  0  0  0  0
   25.8185  -20.9752  -11.2735 C   0  0  0  0  0  0  0  0  0  0  0  0
   25.7531  -22.2670  -11.2786 O   0  0  0  0  0  0  0  0  0  0  0  0
   21.7605  -24.4410  -15.2693 N   0  0  0  0  0  0  0  0  0  0  0  0
   26.5986  -20.3055  -10.3490 C   0  0  2  0  0  0  0  0  0  0  0  0
   26.6987  -20.7813   -8.9111 C   0  0  0  0  0  0  0  0  0  0  0  0
   27.6441  -19.8799   -8.2360 C   0  0  0  0  0  0  0  0  0  0  0  0
   27.9676  -20.0553   -6.8248 C   0  0  0  0  0  0  0  0  0  0  0  0
   28.9226  -19.1236   -6.1472 C   0  0  0  0  0  0  0  0  0  0  0  0
   29.1143  -19.5507   -4.6665 N   0  0  0  0  0  0  0  0  0  0  0  0
   29.8896  -18.4908   -4.0374 C   0  0  0  0  0  0  0  0  0  0  0  0
   25.2616  -20.7208   -8.5241 O   0  0  0  0  0  0  0  0  0  0  0  0
   24.6534  -21.6334   -7.7148 O   0  0  0  0  0  0  0  0  0  0  0  0
  2  1  1  6
  2  9  1  0
  2  3  1  0
  3  4  1  0
  4  8  1  0
  4  5  2  0
  5  6  1  0
  7  6  1  0
  8  7  2  0
  9 10  2  0
 12 14  1  0
 12 11  1  0
 13 12  2  0
 15 16  1  0
 15 14  1  0
 16 17  1  0
 18 17  1  6
 19 18  1  0
 19  9  1  0
 20 18  1  0
 21 20  2  0
 22 20  1  0
 23 22  1  0
 24 25  1  0
 23 24  1  1
 25 26  1  0
 26 27  1  0
 27 28  1  0
 29 23  1  0
 29 30  1  0
 31 29  2  0
M  END
$$$$
