HRK.pdb
     RDKit          3D

 31 31  0  0  1  0  0  0  0  0999 V2000
   22.6980  -15.3908  -20.4458 N   0  0  0  0  0  0  0  0  0  0  0  0
   22.6667  -15.2408  -19.0316 C   0  0  1  0  0  0  0  0  0  0  0  0
   21.4059  -14.4878  -18.6546 C   0  0  0  0  0  0  0  0  0  0  0  0
   21.4759  -13.0752  -19.0583 C   0  0  0  0  0  0  0  0  0  0  0  0
   22.0774  -12.0518  -18.3649 C   0  0  0  0  0  0  0  0  0  0  0  0
   21.9239  -10.9308  -19.0693 N   0  0  0  0  0  0  0  0  0  0  0  0
   21.2340  -11.2614  -20.2019 C   0  0  0  0  0  0  0  0  0  0  0  0
   20.9624  -12.5669  -20.2065 N   0  0  0  0  0  0  0  0  0  0  0  0
   22.6835  -16.5651  -18.3695 C   0  0  0  0  0  0  0  0  0  0  0  0
   21.8969  -17.4459  -18.7870 O   0  0  0  0  0  0  0  0  0  0  0  0
   26.3881  -21.0550  -14.7131 N   0  0  0  0  0  0  0  0  0  0  0  0
   27.4064  -21.0399  -15.7007 C   0  0  0  0  0  0  0  0  0  0  0  0
   27.7842  -22.1203  -16.3344 N   0  0  0  0  0  0  0  0  0  0  0  0
   28.0642  -19.7971  -16.0251 N   0  0  0  0  0  0  0  0  0  0  0  0
   27.4119  -18.5966  -15.6561 C   0  0  0  0  0  0  0  0  0  0  0  0
   26.3190  -18.1847  -16.6749 C   0  0  0  0  0  0  0  0  0  0  0  0
   25.0589  -18.2949  -15.9144 C   0  0  0  0  0  0  0  0  0  0  0  0
   23.7618  -17.9955  -16.5829 C   0  0  2  0  0  0  0  0  0  0  0  0
   23.5463  -16.8309  -17.3074 N   0  0  0  0  0  0  0  0  0  0  0  0
   22.7074  -18.1502  -15.5527 C   0  0  0  0  0  0  0  0  0  0  0  0
   22.5549  -17.1091  -14.8004 O   0  0  0  0  0  0  0  0  0  0  0  0
   28.5856  -21.9866  -17.0161 N   0  0  0  0  0  0  0  0  0  0  0  0
   21.9399  -19.2843  -15.3628 C   0  0  2  0  0  0  0  0  0  0  0  0
   20.8558  -19.3329  -14.3014 C   0  0  0  0  0  0  0  0  0  0  0  0
   19.6421  -19.8327  -14.9642 C   0  0  0  0  0  0  0  0  0  0  0  0
   18.3983  -19.9992  -14.2212 C   0  0  0  0  0  0  0  0  0  0  0  0
   17.2340  -20.7024  -14.8450 C   0  0  0  0  0  0  0  0  0  0  0  0
   16.0741  -20.8138  -13.8185 N   0  0  0  0  0  0  0  0  0  0  0  0
   15.0417  -21.6151  -14.4608 C   0  0  0  0  0  0  0  0  0  0  0  0
   21.5251  -20.2048  -13.2961 O   0  0  0  0  0  0  0  0  0  0  0  0
   21.1975  -20.2295  -11.9734 O   0  0  0  0  0  0  0  0  0  0  0  0
  2  1  1  6
  2  9  1  0
  2  3  1  0
  3  4  1  0
  4  8  1  0
  4  5  2  0
  5  6  1  0
  7  6  1  0
  8  7  2  0
  9 10  2  0
 12 14  1  0
 12 11  1  0
 13 12  2  0
 15 16  1  0
 15 14  1  0
 16 17  1  0
 18 17  1  1
 19 18  1  0
 19  9  1  0
 20 18  1  0
 21 20  2  0
 22 20  1  0
 23 22  1  0
 24 25  1  0
 23 24  1  6
 25 26  1  0
 26 27  1  0
 27 28  1  0
 29 23  1  0
 29 30  1  0
 31 29  2  0
M  END
$$$$
