HRK.pdb
     RDKit          3D

 31 31  0  0  1  0  0  0  0  0999 V2000
   19.3598  -23.4299  -12.1632 N   0  0  0  0  0  0  0  0  0  0  0  0
   19.0420  -22.1629  -11.5999 C   0  0  1  0  0  0  0  0  0  0  0  0
   19.3228  -22.2135  -10.1108 C   0  0  0  0  0  0  0  0  0  0  0  0
   18.5724  -23.2941   -9.4532 C   0  0  0  0  0  0  0  0  0  0  0  0
   17.7467  -24.2091  -10.0623 C   0  0  0  0  0  0  0  0  0  0  0  0
   17.2636  -25.0191   -9.1206 N   0  0  0  0  0  0  0  0  0  0  0  0
   17.7957  -24.6104   -7.9299 C   0  0  0  0  0  0  0  0  0  0  0  0
   18.5991  -23.5639   -8.1240 N   0  0  0  0  0  0  0  0  0  0  0  0
   19.8515  -21.0967  -12.2326 C   0  0  0  0  0  0  0  0  0  0  0  0
   19.7148  -19.9233  -11.8162 O   0  0  0  0  0  0  0  0  0  0  0  0
   26.7482  -19.2607  -16.2416 N   0  0  0  0  0  0  0  0  0  0  0  0
   26.8471  -20.5046  -15.5668 C   0  0  0  0  0  0  0  0  0  0  0  0
   27.9299  -20.8733  -14.9319 N   0  0  0  0  0  0  0  0  0  0  0  0
   25.7240  -21.4108  -15.5774 N   0  0  0  0  0  0  0  0  0  0  0  0
   24.5742  -21.0181  -16.3030 C   0  0  0  0  0  0  0  0  0  0  0  0
   23.6319  -20.1150  -15.4670 C   0  0  0  0  0  0  0  0  0  0  0  0
   22.6977  -21.0633  -14.8295 C   0  0  0  0  0  0  0  0  0  0  0  0
   21.5616  -20.5490  -14.0148 C   0  0  2  0  0  0  0  0  0  0  0  0
   20.7415  -21.3828  -13.2666 N   0  0  0  0  0  0  0  0  0  0  0  0
   20.7380  -19.7094  -14.9168 C   0  0  0  0  0  0  0  0  0  0  0  0
   19.9120  -20.3836  -15.6491 O   0  0  0  0  0  0  0  0  0  0  0  0
   27.8968  -21.8461  -14.5105 N   0  0  0  0  0  0  0  0  0  0  0  0
   20.8156  -18.3324  -15.0146 C   0  0  2  0  0  0  0  0  0  0  0  0
   19.8388  -17.5475  -15.8712 C   0  0  0  0  0  0  0  0  0  0  0  0
   20.0831  -16.1251  -15.5896 C   0  0  0  0  0  0  0  0  0  0  0  0
   18.9829  -15.1683  -15.5603 C   0  0  0  0  0  0  0  0  0  0  0  0
   19.2200  -13.7577  -15.1207 C   0  0  0  0  0  0  0  0  0  0  0  0
   17.8770  -12.9783  -15.1038 N   0  0  0  0  0  0  0  0  0  0  0  0
   18.1510  -11.7157  -14.4320 C   0  0  0  0  0  0  0  0  0  0  0  0
   20.2001  -18.0765  -17.2160 O   0  0  0  0  0  0  0  0  0  0  0  0
   19.2886  -18.3880  -18.1801 O   0  0  0  0  0  0  0  0  0  0  0  0
  2  1  1  6
  2  9  1  0
  2  3  1  0
  3  4  1  0
  4  8  1  0
  4  5  2  0
  5  6  1  0
  7  6  1  0
  8  7  2  0
  9 10  2  0
 12 14  1  0
 12 11  1  0
 13 12  2  0
 15 16  1  0
 15 14  1  0
 16 17  1  0
 18 17  1  6
 19 18  1  0
 19  9  1  0
 20 18  1  0
 21 20  2  0
 22 20  1  0
 23 22  1  0
 24 25  1  0
 23 24  1  1
 25 26  1  0
 26 27  1  0
 27 28  1  0
 29 23  1  0
 29 30  1  0
 31 29  2  0
M  END
$$$$
