HRK.pdb
     RDKit          3D

 31 31  0  0  1  0  0  0  0  0999 V2000
   23.5779  -16.4819  -20.1587 N   0  0  0  0  0  0  0  0  0  0  0  0
   23.3555  -16.4196  -18.7550 C   0  0  1  0  0  0  0  0  0  0  0  0
   22.2970  -15.3693  -18.4809 C   0  0  0  0  0  0  0  0  0  0  0  0
   22.7985  -14.0118  -18.7437 C   0  0  0  0  0  0  0  0  0  0  0  0
   24.1053  -13.6480  -18.9669 C   0  0  0  0  0  0  0  0  0  0  0  0
   24.1377  -12.3307  -19.1674 N   0  0  0  0  0  0  0  0  0  0  0  0
   22.8506  -11.8803  -19.0757 C   0  0  0  0  0  0  0  0  0  0  0  0
   22.0273  -12.8985  -18.8239 N   0  0  0  0  0  0  0  0  0  0  0  0
   22.9092  -17.7351  -18.2423 C   0  0  0  0  0  0  0  0  0  0  0  0
   22.0057  -18.3382  -18.8658 O   0  0  0  0  0  0  0  0  0  0  0  0
   24.1691  -24.6102  -14.4080 N   0  0  0  0  0  0  0  0  0  0  0  0
   25.2333  -24.3003  -15.2934 C   0  0  0  0  0  0  0  0  0  0  0  0
   25.7270  -25.1768  -16.1298 N   0  0  0  0  0  0  0  0  0  0  0  0
   25.8081  -22.9767  -15.2788 N   0  0  0  0  0  0  0  0  0  0  0  0
   25.2152  -22.0159  -14.4254 C   0  0  0  0  0  0  0  0  0  0  0  0
   23.8689  -21.4869  -14.9821 C   0  0  0  0  0  0  0  0  0  0  0  0
   24.2358  -20.2442  -15.6887 C   0  0  0  0  0  0  0  0  0  0  0  0
   23.1960  -19.4816  -16.4345 C   0  0  2  0  0  0  0  0  0  0  0  0
   23.4722  -18.2922  -17.0952 N   0  0  0  0  0  0  0  0  0  0  0  0
   22.0607  -19.2876  -15.5015 C   0  0  0  0  0  0  0  0  0  0  0  0
   22.3018  -18.4411  -14.5537 O   0  0  0  0  0  0  0  0  0  0  0  0
   26.4521  -24.7979  -16.8047 N   0  0  0  0  0  0  0  0  0  0  0  0
   20.8423  -19.9359  -15.5841 C   0  0  2  0  0  0  0  0  0  0  0  0
   19.7049  -19.5983  -14.6374 C   0  0  0  0  0  0  0  0  0  0  0  0
   18.4653  -19.6845  -15.4235 C   0  0  0  0  0  0  0  0  0  0  0  0
   17.1704  -19.4088  -14.8119 C   0  0  0  0  0  0  0  0  0  0  0  0
   15.9086  -19.6111  -15.5905 C   0  0  0  0  0  0  0  0  0  0  0  0
   14.6790  -19.3802  -14.6706 N   0  0  0  0  0  0  0  0  0  0  0  0
   13.5050  -19.5557  -15.5139 C   0  0  0  0  0  0  0  0  0  0  0  0
   19.9458  -20.6181  -13.5788 O   0  0  0  0  0  0  0  0  0  0  0  0
   19.6169  -20.4447  -12.2676 O   0  0  0  0  0  0  0  0  0  0  0  0
  2  1  1  6
  2  9  1  0
  2  3  1  0
  3  4  1  0
  4  8  1  0
  4  5  2  0
  5  6  1  0
  7  6  1  0
  8  7  2  0
  9 10  2  0
 12 14  1  0
 12 11  1  0
 13 12  2  0
 15 16  1  0
 15 14  1  0
 16 17  1  0
 18 17  1  1
 19 18  1  0
 19  9  1  0
 20 18  1  0
 21 20  2  0
 22 20  1  0
 23 22  1  0
 24 25  1  0
 23 24  1  6
 25 26  1  0
 26 27  1  0
 27 28  1  0
 29 23  1  0
 29 30  1  0
 31 29  2  0
M  END
$$$$
