HRK.pdb
     RDKit          3D

 31 31  0  0  1  0  0  0  0  0999 V2000
   24.8132  -17.0657  -17.6146 N   0  0  0  0  0  0  0  0  0  0  0  0
   24.0664  -17.0563  -16.4039 C   0  0  1  0  0  0  0  0  0  0  0  0
   23.2472  -15.7816  -16.3529 C   0  0  0  0  0  0  0  0  0  0  0  0
   24.1014  -14.5923  -16.2147 C   0  0  0  0  0  0  0  0  0  0  0  0
   25.4751  -14.5692  -16.1654 C   0  0  0  0  0  0  0  0  0  0  0  0
   25.8616  -13.2998  -16.0406 N   0  0  0  0  0  0  0  0  0  0  0  0
   24.7280  -12.5366  -16.0200 C   0  0  0  0  0  0  0  0  0  0  0  0
   23.6512  -13.3152  -16.1318 N   0  0  0  0  0  0  0  0  0  0  0  0
   23.1738  -18.2358  -16.3365 C   0  0  0  0  0  0  0  0  0  0  0  0
   22.8079  -18.7638  -17.4118 O   0  0  0  0  0  0  0  0  0  0  0  0
   23.4839  -24.5373  -13.7594 N   0  0  0  0  0  0  0  0  0  0  0  0
   24.7032  -24.1729  -14.3864 C   0  0  0  0  0  0  0  0  0  0  0  0
   25.2679  -24.9140  -15.3047 N   0  0  0  0  0  0  0  0  0  0  0  0
   25.3608  -22.9466  -14.0039 N   0  0  0  0  0  0  0  0  0  0  0  0
   24.7459  -22.1606  -13.0004 C   0  0  0  0  0  0  0  0  0  0  0  0
   24.2710  -20.7870  -13.5387 C   0  0  0  0  0  0  0  0  0  0  0  0
   22.9687  -21.0788  -14.1689 C   0  0  0  0  0  0  0  0  0  0  0  0
   22.1832  -19.9763  -14.7905 C   0  0  2  0  0  0  0  0  0  0  0  0
   22.7453  -18.7485  -15.1131 N   0  0  0  0  0  0  0  0  0  0  0  0
   20.9871  -19.7745  -13.9388 C   0  0  0  0  0  0  0  0  0  0  0  0
   21.1959  -19.0089  -12.9174 O   0  0  0  0  0  0  0  0  0  0  0  0
   26.1403  -24.5009  -15.7444 N   0  0  0  0  0  0  0  0  0  0  0  0
   19.7452  -20.3393  -14.1631 C   0  0  2  0  0  0  0  0  0  0  0  0
   18.5792  -20.0744  -13.2280 C   0  0  0  0  0  0  0  0  0  0  0  0
   17.3706  -20.5450  -13.9210 C   0  0  0  0  0  0  0  0  0  0  0  0
   16.0490  -20.3520  -13.3354 C   0  0  0  0  0  0  0  0  0  0  0  0
   14.8217  -20.7530  -14.0916 C   0  0  0  0  0  0  0  0  0  0  0  0
   13.5539  -20.3413  -13.2950 N   0  0  0  0  0  0  0  0  0  0  0  0
   12.4199  -20.8759  -14.0358 C   0  0  0  0  0  0  0  0  0  0  0  0
   19.0440  -20.8217  -12.0263 O   0  0  0  0  0  0  0  0  0  0  0  0
   19.9428  -21.8453  -12.0684 O   0  0  0  0  0  0  0  0  0  0  0  0
  2  1  1  6
  2  9  1  0
  2  3  1  0
  3  4  1  0
  4  8  1  0
  4  5  2  0
  5  6  1  0
  7  6  1  0
  8  7  2  0
  9 10  2  0
 12 14  1  0
 12 11  1  0
 13 12  2  0
 15 16  1  0
 15 14  1  0
 16 17  1  0
 18 17  1  1
 19 18  1  0
 19  9  1  0
 20 18  1  0
 21 20  2  0
 22 20  1  0
 23 22  1  0
 24 25  1  0
 23 24  1  6
 25 26  1  0
 26 27  1  0
 27 28  1  0
 29 23  1  0
 29 30  1  0
 31 29  2  0
M  END
$$$$
