HRK.pdb
     RDKit          3D

 31 31  0  0  1  0  0  0  0  0999 V2000
   14.0376  -21.9868  -12.0302 N   0  0  0  0  0  0  0  0  0  0  0  0
   15.3689  -22.0856  -11.5388 C   0  0  1  0  0  0  0  0  0  0  0  0
   15.7159  -20.7943  -10.8240 C   0  0  0  0  0  0  0  0  0  0  0  0
   15.7694  -19.6563  -11.7542 C   0  0  0  0  0  0  0  0  0  0  0  0
   16.7723  -19.3757  -12.6517 C   0  0  0  0  0  0  0  0  0  0  0  0
   16.4394  -18.2640  -13.3072 N   0  0  0  0  0  0  0  0  0  0  0  0
   15.2275  -17.8605  -12.8210 C   0  0  0  0  0  0  0  0  0  0  0  0
   14.8089  -18.7063  -11.8789 N   0  0  0  0  0  0  0  0  0  0  0  0
   15.4940  -23.2300  -10.6076 C   0  0  0  0  0  0  0  0  0  0  0  0
   14.6227  -23.3679   -9.7184 O   0  0  0  0  0  0  0  0  0  0  0  0
   21.6737  -28.8283   -9.5310 N   0  0  0  0  0  0  0  0  0  0  0  0
   20.6291  -29.7604   -9.3018 C   0  0  0  0  0  0  0  0  0  0  0  0
   20.7676  -30.7852   -8.5005 N   0  0  0  0  0  0  0  0  0  0  0  0
   19.3638  -29.5903   -9.9745 N   0  0  0  0  0  0  0  0  0  0  0  0
   19.0893  -28.3221  -10.5396 C   0  0  0  0  0  0  0  0  0  0  0  0
   18.1204  -27.4864   -9.6650 C   0  0  0  0  0  0  0  0  0  0  0  0
   17.7612  -26.3397  -10.5219 C   0  0  0  0  0  0  0  0  0  0  0  0
   16.8111  -25.3084  -10.0192 C   0  0  2  0  0  0  0  0  0  0  0  0
   16.5519  -24.1320  -10.7095 N   0  0  0  0  0  0  0  0  0  0  0  0
   17.2189  -24.9971   -8.6287 C   0  0  0  0  0  0  0  0  0  0  0  0
   18.1255  -24.0786   -8.5430 O   0  0  0  0  0  0  0  0  0  0  0  0
   19.9386  -31.4459   -8.4655 N   0  0  0  0  0  0  0  0  0  0  0  0
   16.7182  -25.6111   -7.4955 C   0  0  2  0  0  0  0  0  0  0  0  0
   17.0922  -25.1261   -6.1067 C   0  0  0  0  0  0  0  0  0  0  0  0
   15.8317  -24.8043   -5.4213 C   0  0  0  0  0  0  0  0  0  0  0  0
   15.8276  -24.3554   -4.0338 C   0  0  0  0  0  0  0  0  0  0  0  0
   14.5665  -23.8495   -3.4071 C   0  0  0  0  0  0  0  0  0  0  0  0
   14.8144  -23.5304   -1.9077 N   0  0  0  0  0  0  0  0  0  0  0  0
   13.5564  -23.0085   -1.3923 C   0  0  0  0  0  0  0  0  0  0  0  0
   17.8780  -26.2992   -5.6322 O   0  0  0  0  0  0  0  0  0  0  0  0
   17.8130  -27.5369   -6.1989 O   0  0  0  0  0  0  0  0  0  0  0  0
  2  1  1  1
  2  9  1  0
  2  3  1  0
  3  4  1  0
  4  8  1  0
  4  5  2  0
  5  6  1  0
  7  6  1  0
  8  7  2  0
  9 10  2  0
 12 14  1  0
 12 11  1  0
 13 12  2  0
 15 16  1  0
 15 14  1  0
 16 17  1  0
 18 17  1  6
 19 18  1  0
 19  9  1  0
 20 18  1  0
 21 20  2  0
 22 20  1  0
 23 22  1  0
 24 25  1  0
 23 24  1  6
 25 26  1  0
 26 27  1  0
 27 28  1  0
 29 23  1  0
 29 30  1  0
 31 29  2  0
M  END
$$$$
