MSH.pdb
     RDKit          3D

 25 25  0  0  1  0  0  0  0  0999 V2000
   16.4803  -10.0810    9.0996 C   0  0  0  0  0  0  0  0  0  0  0  0
   17.6797   -8.7649    8.8265 S   0  0  0  0  0  0  0  0  0  0  0  0
   19.3733   -9.3921    8.7772 C   0  0  0  0  0  0  0  0  0  0  0  0
   19.4051  -10.7462    8.1108 C   0  0  0  0  0  0  0  0  0  0  0  0
   20.7810  -11.3753    8.1417 C   0  0  2  0  0  0  0  0  0  0  0  0
   21.5663  -10.7473    7.0962 N   0  0  0  0  0  0  0  0  0  0  0  0
   20.6011  -12.8283    7.9083 C   0  0  0  0  0  0  0  0  0  0  0  0
   21.0206  -13.2829    6.8087 O   0  0  0  0  0  0  0  0  0  0  0  0
   19.0665  -15.3772   10.6795 O   0  0  0  0  0  0  0  0  0  0  0  0
   20.1328  -15.8341    9.9071 C   0  0  0  0  0  0  0  0  0  0  0  0
   20.0194  -15.1497    8.5373 C   0  0  2  0  0  0  0  0  0  0  0  0
   20.0075  -13.7220    8.8059 N   0  0  0  0  0  0  0  0  0  0  0  0
   18.8296  -15.5923    7.8032 C   0  0  0  0  0  0  0  0  0  0  0  0
   17.7877  -14.9005    7.7653 O   0  0  0  0  0  0  0  0  0  0  0  0
   18.8638  -16.8287    7.1240 N   0  0  0  0  0  0  0  0  0  0  0  0
   17.6757  -17.3626    6.4379 C   0  0  1  0  0  0  0  0  0  0  0  0
   18.1133  -17.9357    5.1332 C   0  0  0  0  0  0  0  0  0  0  0  0
   17.0000  -18.5249    4.3256 C   0  0  0  0  0  0  0  0  0  0  0  0
   15.6708  -18.4914    4.6618 C   0  0  0  0  0  0  0  0  0  0  0  0
   14.9903  -19.1303    3.7005 N   0  0  0  0  0  0  0  0  0  0  0  0
   15.8738  -19.5528    2.7860 C   0  0  0  0  0  0  0  0  0  0  0  0
   17.0991  -19.1847    3.1654 N   0  0  0  0  0  0  0  0  0  0  0  0
   17.0456  -18.3834    7.2701 C   0  0  0  0  0  0  0  0  0  0  0  0
   15.6865  -18.5680    7.2450 O   0  0  0  0  0  0  0  0  0  0  0  0
   17.7237  -19.1175    8.0280 O   0  0  0  0  0  0  0  0  0  0  0  0
  1  2  1  0
  3  2  1  0
  4  3  1  0
  5  4  1  0
  5  6  1  6
  7  5  1  0
  8  7  2  0
  9 10  1  0
 11 10  1  1
 11 12  1  0
 12  7  1  0
 13 15  1  0
 13 11  1  0
 14 13  2  0
 16 15  1  0
 16 17  1  6
 17 18  1  0
 18 19  2  0
 18 22  1  0
 19 20  1  0
 20 21  1  0
 22 21  2  0
 23 16  1  0
 24 23  1  0
 25 23  2  0
M  END
$$$$
