MSH.pdb
     RDKit          3D

 25 25  0  0  1  0  0  0  0  0999 V2000
   29.3579   -9.9943  -16.9905 C   0  0  0  0  0  0  0  0  0  0  0  0
   27.7280   -9.8863  -17.7500 S   0  0  0  0  0  0  0  0  0  0  0  0
   27.8051  -10.0632  -19.5463 C   0  0  0  0  0  0  0  0  0  0  0  0
   26.4247   -9.9228  -20.1405 C   0  0  0  0  0  0  0  0  0  0  0  0
   25.3824  -10.7117  -19.3782 C   0  0  2  0  0  0  0  0  0  0  0  0
   25.5407  -12.1056  -19.7473 N   0  0  0  0  0  0  0  0  0  0  0  0
   24.0569  -10.1769  -19.7722 C   0  0  0  0  0  0  0  0  0  0  0  0
   23.6170  -10.5260  -20.9020 O   0  0  0  0  0  0  0  0  0  0  0  0
   20.7799  -10.6317  -18.4411 O   0  0  0  0  0  0  0  0  0  0  0  0
   21.1467  -10.1577  -19.6993 C   0  0  0  0  0  0  0  0  0  0  0  0
   21.9699   -8.8812  -19.4747 C   0  0  2  0  0  0  0  0  0  0  0  0
   23.2673   -9.3242  -18.9938 N   0  0  0  0  0  0  0  0  0  0  0  0
   21.3092   -7.9632  -18.5414 C   0  0  0  0  0  0  0  0  0  0  0  0
   20.1815   -7.4793  -18.7857 O   0  0  0  0  0  0  0  0  0  0  0  0
   21.9635   -7.6194  -17.3393 N   0  0  0  0  0  0  0  0  0  0  0  0
   21.3663   -6.6744  -16.3814 C   0  0  1  0  0  0  0  0  0  0  0  0
   21.7933   -7.0736  -15.0102 C   0  0  0  0  0  0  0  0  0  0  0  0
   21.2617   -8.4019  -14.5721 C   0  0  0  0  0  0  0  0  0  0  0  0
   20.3962   -9.1871  -15.2900 C   0  0  0  0  0  0  0  0  0  0  0  0
   20.1454  -10.2860  -14.5655 N   0  0  0  0  0  0  0  0  0  0  0  0
   20.8378  -10.1891  -13.4225 C   0  0  0  0  0  0  0  0  0  0  0  0
   21.5186   -9.0414  -13.4248 N   0  0  0  0  0  0  0  0  0  0  0  0
   21.8080   -5.3176  -16.6902 C   0  0  0  0  0  0  0  0  0  0  0  0
   22.6767   -5.0813  -17.7254 O   0  0  0  0  0  0  0  0  0  0  0  0
   21.4090   -4.3335  -16.0228 O   0  0  0  0  0  0  0  0  0  0  0  0
  1  2  1  0
  3  2  1  0
  4  3  1  0
  5  4  1  0
  5  6  1  6
  7  5  1  0
  8  7  2  0
  9 10  1  0
 11 10  1  1
 11 12  1  0
 12  7  1  0
 13 15  1  0
 13 11  1  0
 14 13  2  0
 16 15  1  0
 16 17  1  1
 17 18  1  0
 18 19  2  0
 18 22  1  0
 19 20  1  0
 20 21  1  0
 22 21  2  0
 23 16  1  0
 24 23  1  0
 25 23  2  0
M  END
$$$$
