MSH.pdb
     RDKit          3D

 25 25  0  0  1  0  0  0  0  0999 V2000
   14.0764  -16.7796  -12.5668 C   0  0  0  0  0  0  0  0  0  0  0  0
   15.2175  -15.7596  -13.5168 S   0  0  0  0  0  0  0  0  0  0  0  0
   14.3594  -14.7412  -14.7378 C   0  0  0  0  0  0  0  0  0  0  0  0
   15.3314  -13.7925  -15.3963 C   0  0  0  0  0  0  0  0  0  0  0  0
   14.6589  -12.8718  -16.3912 C   0  0  2  0  0  0  0  0  0  0  0  0
   14.0474  -13.7071  -17.4073 N   0  0  0  0  0  0  0  0  0  0  0  0
   15.7124  -11.9919  -16.9517 C   0  0  0  0  0  0  0  0  0  0  0  0
   15.6867  -11.7986  -18.1982 O   0  0  0  0  0  0  0  0  0  0  0  0
   16.5006   -8.5569  -16.2537 O   0  0  0  0  0  0  0  0  0  0  0  0
   16.8841   -9.2921  -17.3738 C   0  0  0  0  0  0  0  0  0  0  0  0
   17.6843  -10.4996  -16.8647 C   0  0  2  0  0  0  0  0  0  0  0  0
   16.7208  -11.3677  -16.2100 N   0  0  0  0  0  0  0  0  0  0  0  0
   18.7731  -10.0944  -15.9700 C   0  0  0  0  0  0  0  0  0  0  0  0
   18.5567   -9.7595  -14.7840 O   0  0  0  0  0  0  0  0  0  0  0  0
   20.0958  -10.0831  -16.4613 N   0  0  0  0  0  0  0  0  0  0  0  0
   21.2339   -9.7252  -15.5987 C   0  0  1  0  0  0  0  0  0  0  0  0
   22.4855  -10.1683  -16.2764 C   0  0  0  0  0  0  0  0  0  0  0  0
   23.7254   -9.9383  -15.4711 C   0  0  0  0  0  0  0  0  0  0  0  0
   23.7805   -9.8580  -14.1031 C   0  0  0  0  0  0  0  0  0  0  0  0
   25.0559   -9.6347  -13.7584 N   0  0  0  0  0  0  0  0  0  0  0  0
   25.7797   -9.5769  -14.8845 C   0  0  0  0  0  0  0  0  0  0  0  0
   24.9705   -9.7616  -15.9293 N   0  0  0  0  0  0  0  0  0  0  0  0
   21.2454   -8.2826  -15.3748 C   0  0  0  0  0  0  0  0  0  0  0  0
   21.7928   -7.7544  -14.2331 O   0  0  0  0  0  0  0  0  0  0  0  0
   20.7584   -7.4879  -16.2142 O   0  0  0  0  0  0  0  0  0  0  0  0
  1  2  1  0
  3  2  1  0
  4  3  1  0
  5  4  1  0
  5  6  1  6
  7  5  1  0
  8  7  2  0
  9 10  1  0
 11 10  1  1
 11 12  1  0
 12  7  1  0
 13 15  1  0
 13 11  1  0
 14 13  2  0
 16 15  1  0
 16 17  1  6
 17 18  1  0
 18 19  2  0
 18 22  1  0
 19 20  1  0
 20 21  1  0
 22 21  2  0
 23 16  1  0
 24 23  1  0
 25 23  2  0
M  END
$$$$
