MSH.pdb
     RDKit          3D

 25 25  0  0  1  0  0  0  0  0999 V2000
   24.5905  -15.9495  -16.1192 C   0  0  0  0  0  0  0  0  0  0  0  0
   26.2736  -15.4253  -15.7482 S   0  0  0  0  0  0  0  0  0  0  0  0
   27.3909  -16.8304  -15.5450 C   0  0  0  0  0  0  0  0  0  0  0  0
   26.6324  -18.0231  -15.0152 C   0  0  0  0  0  0  0  0  0  0  0  0
   27.5442  -19.1732  -14.6470 C   0  0  2  0  0  0  0  0  0  0  0  0
   28.1628  -19.6430  -15.8721 N   0  0  0  0  0  0  0  0  0  0  0  0
   26.6991  -20.2137  -14.0137 C   0  0  0  0  0  0  0  0  0  0  0  0
   26.5417  -21.2870  -14.6581 O   0  0  0  0  0  0  0  0  0  0  0  0
   24.7984  -20.0376  -10.2369 O   0  0  0  0  0  0  0  0  0  0  0  0
   25.6351  -21.0769  -10.6397 C   0  0  0  0  0  0  0  0  0  0  0  0
   25.4389  -21.2491  -12.1528 C   0  0  2  0  0  0  0  0  0  0  0  0
   26.0707  -20.0954  -12.7696 N   0  0  0  0  0  0  0  0  0  0  0  0
   24.0215  -21.3698  -12.5088 C   0  0  0  0  0  0  0  0  0  0  0  0
   23.2821  -22.2263  -11.9748 O   0  0  0  0  0  0  0  0  0  0  0  0
   23.4813  -20.4971  -13.4772 N   0  0  0  0  0  0  0  0  0  0  0  0
   22.0773  -20.6004  -13.9081 C   0  0  1  0  0  0  0  0  0  0  0  0
   21.9285  -19.8455  -15.1848 C   0  0  0  0  0  0  0  0  0  0  0  0
   21.9915  -18.3595  -15.0217 C   0  0  0  0  0  0  0  0  0  0  0  0
   22.0713  -17.6945  -13.8250 C   0  0  0  0  0  0  0  0  0  0  0  0
   22.0964  -16.3810  -14.0888 N   0  0  0  0  0  0  0  0  0  0  0  0
   22.0336  -16.2297  -15.4186 C   0  0  0  0  0  0  0  0  0  0  0  0
   21.9696  -17.4345  -15.9888 N   0  0  0  0  0  0  0  0  0  0  0  0
   21.7213  -22.0047  -14.0886 C   0  0  0  0  0  0  0  0  0  0  0  0
   20.4202  -22.4204  -13.9610 O   0  0  0  0  0  0  0  0  0  0  0  0
   22.5888  -22.8677  -14.3640 O   0  0  0  0  0  0  0  0  0  0  0  0
  1  2  1  0
  3  2  1  0
  4  3  1  0
  5  4  1  0
  5  6  1  6
  7  5  1  0
  8  7  2  0
  9 10  1  0
 11 10  1  1
 11 12  1  0
 12  7  1  0
 13 15  1  0
 13 11  1  0
 14 13  2  0
 16 15  1  0
 16 17  1  6
 17 18  1  0
 18 19  2  0
 18 22  1  0
 19 20  1  0
 20 21  1  0
 22 21  2  0
 23 16  1  0
 24 23  1  0
 25 23  2  0
M  END
$$$$
