MSH.pdb
     RDKit          3D

 25 25  0  0  1  0  0  0  0  0999 V2000
   20.2310  -18.7046  -10.2662 C   0  0  0  0  0  0  0  0  0  0  0  0
   20.9531  -18.6248  -11.9146 S   0  0  0  0  0  0  0  0  0  0  0  0
   19.6901  -18.5923  -13.2060 C   0  0  0  0  0  0  0  0  0  0  0  0
   20.3287  -18.3331  -14.5489 C   0  0  0  0  0  0  0  0  0  0  0  0
   19.3204  -18.3184  -15.6772 C   0  0  2  0  0  0  0  0  0  0  0  0
   18.8714  -19.6838  -15.8727 N   0  0  0  0  0  0  0  0  0  0  0  0
   20.0128  -17.7818  -16.8733 C   0  0  0  0  0  0  0  0  0  0  0  0
   19.8244  -18.3936  -17.9605 O   0  0  0  0  0  0  0  0  0  0  0  0
   19.6046  -14.6711  -18.3409 O   0  0  0  0  0  0  0  0  0  0  0  0
   20.2066  -15.7459  -18.9926 C   0  0  0  0  0  0  0  0  0  0  0  0
   21.4068  -16.1739  -18.1360 C   0  0  2  0  0  0  0  0  0  0  0  0
   20.8496  -16.6610  -16.8858 N   0  0  0  0  0  0  0  0  0  0  0  0
   22.3548  -15.0732  -17.9366 C   0  0  0  0  0  0  0  0  0  0  0  0
   22.1882  -14.2194  -17.0372 O   0  0  0  0  0  0  0  0  0  0  0  0
   23.4814  -14.9772  -18.7808 N   0  0  0  0  0  0  0  0  0  0  0  0
   24.4914  -13.9216  -18.5990 C   0  0  1  0  0  0  0  0  0  0  0  0
   25.8314  -14.5094  -18.8836 C   0  0  0  0  0  0  0  0  0  0  0  0
   26.2480  -15.5681  -17.9117 C   0  0  0  0  0  0  0  0  0  0  0  0
   25.5436  -15.9445  -16.7969 C   0  0  0  0  0  0  0  0  0  0  0  0
   26.2414  -16.9071  -16.1789 N   0  0  0  0  0  0  0  0  0  0  0  0
   27.3550  -17.1262  -16.8910 C   0  0  0  0  0  0  0  0  0  0  0  0
   27.3608  -16.3110  -17.9475 N   0  0  0  0  0  0  0  0  0  0  0  0
   24.2077  -12.8101  -19.5021 C   0  0  0  0  0  0  0  0  0  0  0  0
   24.9677  -11.6685  -19.4697 O   0  0  0  0  0  0  0  0  0  0  0  0
   23.2666  -12.8653  -20.3294 O   0  0  0  0  0  0  0  0  0  0  0  0
  1  2  1  0
  3  2  1  0
  4  3  1  0
  5  4  1  0
  5  6  1  6
  7  5  1  0
  8  7  2  0
  9 10  1  0
 11 10  1  6
 11 12  1  0
 12  7  1  0
 13 15  1  0
 13 11  1  0
 14 13  2  0
 16 15  1  0
 16 17  1  6
 17 18  1  0
 18 19  2  0
 18 22  1  0
 19 20  1  0
 20 21  1  0
 22 21  2  0
 23 16  1  0
 24 23  1  0
 25 23  2  0
M  END
$$$$
