MSH.pdb
     RDKit          3D

 25 25  0  0  1  0  0  0  0  0999 V2000
   24.0469  -12.5039  -19.5316 C   0  0  0  0  0  0  0  0  0  0  0  0
   23.2086  -14.0828  -19.3092 S   0  0  0  0  0  0  0  0  0  0  0  0
   21.4120  -13.9137  -19.3974 C   0  0  0  0  0  0  0  0  0  0  0  0
   20.9842  -12.6028  -18.7833 C   0  0  0  0  0  0  0  0  0  0  0  0
   20.4449  -12.7689  -17.3793 C   0  0  2  0  0  0  0  0  0  0  0  0
   19.3973  -13.7707  -17.4350 N   0  0  0  0  0  0  0  0  0  0  0  0
   19.9302  -11.4462  -16.9509 C   0  0  0  0  0  0  0  0  0  0  0  0
   18.7749  -11.1309  -17.3480 O   0  0  0  0  0  0  0  0  0  0  0  0
   19.3060   -9.6581  -13.6418 O   0  0  0  0  0  0  0  0  0  0  0  0
   20.3115   -9.0001  -14.3477 C   0  0  0  0  0  0  0  0  0  0  0  0
   20.0401   -9.2377  -15.8402 C   0  0  2  0  0  0  0  0  0  0  0  0
   20.6222  -10.5326  -16.1489 N   0  0  0  0  0  0  0  0  0  0  0  0
   20.5897   -8.1628  -16.6725 C   0  0  0  0  0  0  0  0  0  0  0  0
   21.7733   -8.1875  -17.0777 O   0  0  0  0  0  0  0  0  0  0  0  0
   19.7613   -7.0758  -17.0234 N   0  0  0  0  0  0  0  0  0  0  0  0
   20.2483   -5.9828  -17.8812 C   0  0  1  0  0  0  0  0  0  0  0  0
   19.0781   -5.1482  -18.2761 C   0  0  0  0  0  0  0  0  0  0  0  0
   19.4241   -4.0088  -19.1821 C   0  0  0  0  0  0  0  0  0  0  0  0
   19.9282   -4.1285  -20.4520 C   0  0  0  0  0  0  0  0  0  0  0  0
   20.1180   -2.8927  -20.9340 N   0  0  0  0  0  0  0  0  0  0  0  0
   19.7414   -2.0223  -19.9875 C   0  0  0  0  0  0  0  0  0  0  0  0
   19.3183   -2.7007  -18.9191 N   0  0  0  0  0  0  0  0  0  0  0  0
   21.2327   -5.1883  -17.1524 C   0  0  0  0  0  0  0  0  0  0  0  0
   22.1586   -4.4308  -17.8239 O   0  0  0  0  0  0  0  0  0  0  0  0
   21.2612   -5.1745  -15.8985 O   0  0  0  0  0  0  0  0  0  0  0  0
  1  2  1  0
  3  2  1  0
  4  3  1  0
  5  4  1  0
  5  6  1  6
  7  5  1  0
  8  7  2  0
  9 10  1  0
 11 10  1  1
 11 12  1  0
 12  7  1  0
 13 15  1  0
 13 11  1  0
 14 13  2  0
 16 15  1  0
 16 17  1  1
 17 18  1  0
 18 19  2  0
 18 22  1  0
 19 20  1  0
 20 21  1  0
 22 21  2  0
 23 16  1  0
 24 23  1  0
 25 23  2  0
M  END
$$$$
