MSH.pdb
     RDKit          3D

 25 25  0  0  1  0  0  0  0  0999 V2000
   17.2846  -16.2531  -17.9249 C   0  0  0  0  0  0  0  0  0  0  0  0
   17.7038  -14.6109  -17.3145 S   0  0  0  0  0  0  0  0  0  0  0  0
   18.9916  -14.6677  -16.0487 C   0  0  0  0  0  0  0  0  0  0  0  0
   19.2256  -13.2870  -15.4854 C   0  0  0  0  0  0  0  0  0  0  0  0
   19.5288  -12.2660  -16.5603 C   0  0  2  0  0  0  0  0  0  0  0  0
   20.8060  -12.6238  -17.1476 N   0  0  0  0  0  0  0  0  0  0  0  0
   19.5696  -10.9385  -15.9012 C   0  0  0  0  0  0  0  0  0  0  0  0
   18.5253  -10.5736  -15.2945 O   0  0  0  0  0  0  0  0  0  0  0  0
   22.7458   -8.4302  -16.0915 O   0  0  0  0  0  0  0  0  0  0  0  0
   22.0717   -8.4419  -14.8717 C   0  0  0  0  0  0  0  0  0  0  0  0
   20.6130   -8.8174  -15.1696 C   0  0  2  0  0  0  0  0  0  0  0  0
   20.6667  -10.0708  -15.9023 N   0  0  0  0  0  0  0  0  0  0  0  0
   19.9191   -7.7617  -15.9140 C   0  0  0  0  0  0  0  0  0  0  0  0
   19.8857   -7.7552  -17.1648 O   0  0  0  0  0  0  0  0  0  0  0  0
   19.2742   -6.7298  -15.1997 N   0  0  0  0  0  0  0  0  0  0  0  0
   18.6035   -5.6173  -15.8926 C   0  0  1  0  0  0  0  0  0  0  0  0
   17.1644   -5.6306  -15.5043 C   0  0  0  0  0  0  0  0  0  0  0  0
   16.4305   -6.8601  -15.9386 C   0  0  0  0  0  0  0  0  0  0  0  0
   16.2362   -7.2517  -17.2385 C   0  0  0  0  0  0  0  0  0  0  0  0
   15.5288   -8.3895  -17.2207 N   0  0  0  0  0  0  0  0  0  0  0  0
   15.2871   -8.7007  -15.9400 C   0  0  0  0  0  0  0  0  0  0  0  0
   15.8358   -7.7697  -15.1572 N   0  0  0  0  0  0  0  0  0  0  0  0
   19.2328   -4.3546  -15.5170 C   0  0  0  0  0  0  0  0  0  0  0  0
   18.7974   -3.1680  -16.0505 O   0  0  0  0  0  0  0  0  0  0  0  0
   20.1842   -4.3169  -14.7006 O   0  0  0  0  0  0  0  0  0  0  0  0
  1  2  1  0
  3  2  1  0
  4  3  1  0
  5  4  1  0
  5  6  1  1
  7  5  1  0
  8  7  2  0
  9 10  1  0
 11 10  1  6
 11 12  1  0
 12  7  1  0
 13 15  1  0
 13 11  1  0
 14 13  2  0
 16 15  1  0
 16 17  1  1
 17 18  1  0
 18 19  2  0
 18 22  1  0
 19 20  1  0
 20 21  1  0
 22 21  2  0
 23 16  1  0
 24 23  1  0
 25 23  2  0
M  END
$$$$
