MSH.pdb
     RDKit          3D

 25 25  0  0  1  0  0  0  0  0999 V2000
   18.6249  -16.3678  -20.5575 C   0  0  0  0  0  0  0  0  0  0  0  0
   18.9562  -14.9031  -19.5624 S   0  0  0  0  0  0  0  0  0  0  0  0
   20.2646  -15.1902  -18.3501 C   0  0  0  0  0  0  0  0  0  0  0  0
   20.4485  -13.9659  -17.4866 C   0  0  0  0  0  0  0  0  0  0  0  0
   21.5036  -14.1621  -16.4198 C   0  0  2  0  0  0  0  0  0  0  0  0
   21.0798  -15.2762  -15.5933 N   0  0  0  0  0  0  0  0  0  0  0  0
   21.5868  -12.8969  -15.6514 C   0  0  0  0  0  0  0  0  0  0  0  0
   20.6362  -12.6501  -14.8595 O   0  0  0  0  0  0  0  0  0  0  0  0
   24.8246  -10.4854  -15.5883 O   0  0  0  0  0  0  0  0  0  0  0  0
   23.9629  -10.4308  -14.4943 C   0  0  0  0  0  0  0  0  0  0  0  0
   22.5481  -10.7047  -15.0243 C   0  0  2  0  0  0  0  0  0  0  0  0
   22.6285  -11.9674  -15.7384 N   0  0  0  0  0  0  0  0  0  0  0  0
   22.0618   -9.6111  -15.8716 C   0  0  0  0  0  0  0  0  0  0  0  0
   22.3355   -9.5554  -17.0913 O   0  0  0  0  0  0  0  0  0  0  0  0
   21.2661   -8.5987  -15.2945 N   0  0  0  0  0  0  0  0  0  0  0  0
   20.7544   -7.4730  -16.0936 C   0  0  1  0  0  0  0  0  0  0  0  0
   19.7252   -8.0025  -17.0329 C   0  0  0  0  0  0  0  0  0  0  0  0
   18.5065   -8.5444  -16.3545 C   0  0  0  0  0  0  0  0  0  0  0  0
   18.5072   -9.4504  -15.3250 C   0  0  0  0  0  0  0  0  0  0  0  0
   17.2315   -9.6969  -14.9973 N   0  0  0  0  0  0  0  0  0  0  0  0
   16.4531   -8.9622  -15.8032 C   0  0  0  0  0  0  0  0  0  0  0  0
   17.2284   -8.2592  -16.6310 N   0  0  0  0  0  0  0  0  0  0  0  0
   20.1817   -6.4631  -15.2085 C   0  0  0  0  0  0  0  0  0  0  0  0
   19.7186   -5.2729  -15.7094 O   0  0  0  0  0  0  0  0  0  0  0  0
   20.0963   -6.6522  -13.9715 O   0  0  0  0  0  0  0  0  0  0  0  0
  1  2  1  0
  3  2  1  0
  4  3  1  0
  5  4  1  0
  5  6  1  1
  7  5  1  0
  8  7  2  0
  9 10  1  0
 11 10  1  6
 11 12  1  0
 12  7  1  0
 13 15  1  0
 13 11  1  0
 14 13  2  0
 16 15  1  0
 16 17  1  6
 17 18  1  0
 18 19  2  0
 18 22  1  0
 19 20  1  0
 20 21  1  0
 22 21  2  0
 23 16  1  0
 24 23  1  0
 25 23  2  0
M  END
$$$$
