FWH.pdb
     RDKit          3D

 36 39  0  0  1  0  0  0  0  0999 V2000
    7.4015  -17.6892   21.1862 N   0  0  0  0  0  0  0  0  0  0  0  0
    7.8203  -16.3278   20.9187 C   0  0  1  0  0  0  0  0  0  0  0  0
    6.6276  -15.4048   20.8118 C   0  0  0  0  0  0  0  0  0  0  0  0
    7.1032  -14.0856   20.3375 C   0  0  0  0  0  0  0  0  0  0  0  0
    7.2166  -12.9998   21.1750 C   0  0  0  0  0  0  0  0  0  0  0  0
    7.6590  -11.7777   20.7257 C   0  0  0  0  0  0  0  0  0  0  0  0
    8.0064  -11.6026   19.4057 C   0  0  0  0  0  0  0  0  0  0  0  0
    7.9033  -12.6815   18.5312 C   0  0  0  0  0  0  0  0  0  0  0  0
    7.4604  -13.8794   19.0125 C   0  0  0  0  0  0  0  0  0  0  0  0
    8.7780  -15.8866   21.9613 C   0  0  0  0  0  0  0  0  0  0  0  0
    9.5450  -14.8954   21.7088 O   0  0  0  0  0  0  0  0  0  0  0  0
    8.9259  -16.4649   23.2244 N   0  0  0  0  0  0  0  0  0  0  0  0
    9.8935  -15.9534   24.2184 C   0  0  1  0  0  0  0  0  0  0  0  0
    9.2459  -16.1679   25.5402 C   0  0  0  0  0  0  0  0  0  0  0  0
    8.0636  -15.3818   25.8447 C   0  0  0  0  0  0  0  0  0  0  0  0
    6.7744  -15.8655   25.9028 C   0  0  0  0  0  0  0  0  0  0  0  0
    5.9610  -14.8421   26.1957 N   0  0  0  0  0  0  0  0  0  0  0  0
    6.6961  -13.7214   26.3256 C   0  0  0  0  0  0  0  0  0  0  0  0
    6.3688  -12.4212   26.6135 C   0  0  0  0  0  0  0  0  0  0  0  0
    7.3681  -11.4636   26.6796 C   0  0  0  0  0  0  0  0  0  0  0  0
    8.6823  -11.7914   26.4621 C   0  0  0  0  0  0  0  0  0  0  0  0
    9.0427  -13.0911   26.1704 C   0  0  0  0  0  0  0  0  0  0  0  0
    8.0362  -14.0320   26.1083 C   0  0  0  0  0  0  0  0  0  0  0  0
   11.1653  -16.6537   24.0513 C   0  0  0  0  0  0  0  0  0  0  0  0
   11.1843  -17.9142   24.2659 O   0  0  0  0  0  0  0  0  0  0  0  0
   12.3803  -16.0446   23.6660 N   0  0  0  0  0  0  0  0  0  0  0  0
   13.5692  -16.8910   23.5191 C   0  0  1  0  0  0  0  0  0  0  0  0
   14.5978  -16.1491   22.6769 C   0  0  0  0  0  0  0  0  0  0  0  0
   14.0156  -15.7884   21.3735 C   0  0  0  0  0  0  0  0  0  0  0  0
   13.1967  -16.5183   20.5318 C   0  0  0  0  0  0  0  0  0  0  0  0
   12.9380  -15.7986   19.4327 N   0  0  0  0  0  0  0  0  0  0  0  0
   13.5667  -14.6253   19.5412 C   0  0  0  0  0  0  0  0  0  0  0  0
   14.2164  -14.6163   20.7086 N   0  0  0  0  0  0  0  0  0  0  0  0
   14.1466  -17.1935   24.8270 C   0  0  0  0  0  0  0  0  0  0  0  0
   13.4971  -16.7505   25.9778 O   0  0  0  0  0  0  0  0  0  0  0  0
   15.2175  -17.8453   24.9111 O   0  0  0  0  0  0  0  0  0  0  0  0
  2  1  1  1
  2  3  1  0
  4  3  1  0
  4  9  1  0
  5  4  2  0
  6  5  1  0
  6  7  2  0
  7  8  1  0
  8  9  2  0
 10  2  1  0
 11 10  2  0
 12 10  1  0
 13 12  1  0
 14 15  1  0
 13 14  1  1
 15 16  2  0
 17 16  1  0
 18 17  1  0
 19 18  2  0
 20 19  1  0
 21 22  1  0
 21 20  2  0
 22 23  2  0
 23 15  1  0
 23 18  1  0
 24 13  1  0
 24 25  2  0
 26 24  1  0
 27 34  1  0
 27 26  1  0
 28 29  1  0
 27 28  1  6
 29 30  2  0
 30 31  1  0
 32 31  1  0
 33 29  1  0
 33 32  2  0
 34 35  1  0
 36 34  2  0
M  END
$$$$
