FWH.pdb
     RDKit          3D

 36 39  0  0  1  0  0  0  0  0999 V2000
    8.7114  -16.9826   21.7167 N   0  0  0  0  0  0  0  0  0  0  0  0
   10.0452  -16.4849   21.9884 C   0  0  1  0  0  0  0  0  0  0  0  0
   10.3038  -15.1935   21.2460 C   0  0  0  0  0  0  0  0  0  0  0  0
    9.0135  -14.4865   21.0820 C   0  0  0  0  0  0  0  0  0  0  0  0
    8.5135  -13.6360   22.0411 C   0  0  0  0  0  0  0  0  0  0  0  0
    7.3136  -12.9836   21.8804 C   0  0  0  0  0  0  0  0  0  0  0  0
    6.5671  -13.1650   20.7387 C   0  0  0  0  0  0  0  0  0  0  0  0
    7.0446  -14.0193   19.7480 C   0  0  0  0  0  0  0  0  0  0  0  0
    8.2394  -14.6500   19.9419 C   0  0  0  0  0  0  0  0  0  0  0  0
   10.2337  -16.3369   23.4517 C   0  0  0  0  0  0  0  0  0  0  0  0
   11.3322  -15.8436   23.8813 O   0  0  0  0  0  0  0  0  0  0  0  0
    9.3026  -16.6938   24.4302 N   0  0  0  0  0  0  0  0  0  0  0  0
    9.6055  -16.6133   25.8750 C   0  0  1  0  0  0  0  0  0  0  0  0
    8.2876  -16.4349   26.5412 C   0  0  0  0  0  0  0  0  0  0  0  0
    7.4191  -15.3837   26.0418 C   0  0  0  0  0  0  0  0  0  0  0  0
    6.2604  -15.5781   25.3214 C   0  0  0  0  0  0  0  0  0  0  0  0
    5.7479  -14.3752   25.0292 N   0  0  0  0  0  0  0  0  0  0  0  0
    6.5475  -13.4216   25.5432 C   0  0  0  0  0  0  0  0  0  0  0  0
    6.4882  -12.0515   25.5331 C   0  0  0  0  0  0  0  0  0  0  0  0
    7.4829  -11.3199   26.1617 C   0  0  0  0  0  0  0  0  0  0  0  0
    8.5290  -11.9406   26.7959 C   0  0  0  0  0  0  0  0  0  0  0  0
    8.6161  -13.3176   26.8230 C   0  0  0  0  0  0  0  0  0  0  0  0
    7.6182  -14.0310   26.1927 C   0  0  0  0  0  0  0  0  0  0  0  0
   10.3255  -17.8189   26.2801 C   0  0  0  0  0  0  0  0  0  0  0  0
   10.5295  -17.9999   27.5294 O   0  0  0  0  0  0  0  0  0  0  0  0
   10.8132  -18.8063   25.3952 N   0  0  0  0  0  0  0  0  0  0  0  0
   11.5449  -19.9466   25.9571 C   0  0  1  0  0  0  0  0  0  0  0  0
   12.0765  -20.7992   24.8134 C   0  0  0  0  0  0  0  0  0  0  0  0
   12.7465  -21.9967   25.3473 C   0  0  0  0  0  0  0  0  0  0  0  0
   13.3694  -22.1997   26.5650 C   0  0  0  0  0  0  0  0  0  0  0  0
   13.8699  -23.4410   26.6042 N   0  0  0  0  0  0  0  0  0  0  0  0
   13.5878  -24.0446   25.4468 C   0  0  0  0  0  0  0  0  0  0  0  0
   12.9117  -23.1774   24.6879 N   0  0  0  0  0  0  0  0  0  0  0  0
   12.6655  -19.4836   26.7728 C   0  0  0  0  0  0  0  0  0  0  0  0
   13.5654  -18.5645   26.2360 O   0  0  0  0  0  0  0  0  0  0  0  0
   12.8150  -19.9111   27.9448 O   0  0  0  0  0  0  0  0  0  0  0  0
  2  1  1  1
  2  3  1  0
  4  3  1  0
  4  9  1  0
  5  4  2  0
  6  5  1  0
  6  7  2  0
  7  8  1  0
  8  9  2  0
 10  2  1  0
 11 10  2  0
 12 10  1  0
 13 12  1  0
 14 15  1  0
 13 14  1  1
 15 16  2  0
 17 16  1  0
 18 17  1  0
 19 18  2  0
 20 19  1  0
 21 22  1  0
 21 20  2  0
 22 23  2  0
 23 15  1  0
 23 18  1  0
 24 13  1  0
 24 25  2  0
 26 24  1  0
 27 34  1  0
 27 26  1  0
 28 29  1  0
 27 28  1  6
 29 30  2  0
 30 31  1  0
 32 31  1  0
 33 29  1  0
 33 32  2  0
 34 35  1  0
 36 34  2  0
M  END
$$$$
