FWH.pdb
     RDKit          3D

 36 39  0  0  1  0  0  0  0  0999 V2000
    5.2533  -18.9835   25.8700 N   0  0  0  0  0  0  0  0  0  0  0  0
    6.1217  -17.8604   25.5786 C   0  0  1  0  0  0  0  0  0  0  0  0
    6.6280  -17.2219   26.8522 C   0  0  0  0  0  0  0  0  0  0  0  0
    7.1865  -15.8932   26.5145 C   0  0  0  0  0  0  0  0  0  0  0  0
    8.5387  -15.6387   26.5273 C   0  0  0  0  0  0  0  0  0  0  0  0
    9.0489  -14.4010   26.2125 C   0  0  0  0  0  0  0  0  0  0  0  0
    8.2094  -13.3657   25.8705 C   0  0  0  0  0  0  0  0  0  0  0  0
    6.8351  -13.5896   25.8478 C   0  0  0  0  0  0  0  0  0  0  0  0
    6.3647  -14.8307   26.1660 C   0  0  0  0  0  0  0  0  0  0  0  0
    7.2280  -18.3014   24.6953 C   0  0  0  0  0  0  0  0  0  0  0  0
    7.8300  -19.3961   24.9672 O   0  0  0  0  0  0  0  0  0  0  0  0
    7.6868  -17.6181   23.5664 N   0  0  0  0  0  0  0  0  0  0  0  0
    8.7601  -18.1533   22.7018 C   0  0  1  0  0  0  0  0  0  0  0  0
    8.6865  -17.3554   21.4486 C   0  0  0  0  0  0  0  0  0  0  0  0
    7.8309  -16.1821   21.4483 C   0  0  0  0  0  0  0  0  0  0  0  0
    6.5774  -16.1059   22.0157 C   0  0  0  0  0  0  0  0  0  0  0  0
    6.0991  -14.8733   21.7992 N   0  0  0  0  0  0  0  0  0  0  0  0
    7.0128  -14.1635   21.1104 C   0  0  0  0  0  0  0  0  0  0  0  0
    7.0290  -12.8761   20.6382 C   0  0  0  0  0  0  0  0  0  0  0  0
    8.1376  -12.4164   19.9455 C   0  0  0  0  0  0  0  0  0  0  0  0
    9.2223  -13.2258   19.7221 C   0  0  0  0  0  0  0  0  0  0  0  0
    9.2354  -14.5258   20.1849 C   0  0  0  0  0  0  0  0  0  0  0  0
    8.1245  -14.9679   20.8723 C   0  0  0  0  0  0  0  0  0  0  0  0
   10.0366  -18.0505   23.4058 C   0  0  0  0  0  0  0  0  0  0  0  0
   11.0520  -18.6289   22.8865 O   0  0  0  0  0  0  0  0  0  0  0  0
   10.2382  -17.3558   24.6193 N   0  0  0  0  0  0  0  0  0  0  0  0
   11.5701  -17.3946   25.2324 C   0  0  1  0  0  0  0  0  0  0  0  0
   12.1597  -15.9911   25.2125 C   0  0  0  0  0  0  0  0  0  0  0  0
   12.3484  -15.5440   23.8224 C   0  0  0  0  0  0  0  0  0  0  0  0
   12.2011  -16.2389   22.6360 C   0  0  0  0  0  0  0  0  0  0  0  0
   12.5106  -15.4348   21.6111 N   0  0  0  0  0  0  0  0  0  0  0  0
   12.8534  -14.2411   22.1022 C   0  0  0  0  0  0  0  0  0  0  0  0
   12.7569  -14.3038   23.4333 N   0  0  0  0  0  0  0  0  0  0  0  0
   11.4836  -17.8602   26.6149 C   0  0  0  0  0  0  0  0  0  0  0  0
   12.6517  -17.9954   27.3630 O   0  0  0  0  0  0  0  0  0  0  0  0
   10.3673  -18.1359   27.1216 O   0  0  0  0  0  0  0  0  0  0  0  0
  2  1  1  1
  2  3  1  0
  4  3  1  0
  4  9  1  0
  5  4  2  0
  6  5  1  0
  6  7  2  0
  7  8  1  0
  8  9  2  0
 10  2  1  0
 11 10  2  0
 12 10  1  0
 13 12  1  0
 14 15  1  0
 13 14  1  6
 15 16  2  0
 17 16  1  0
 18 17  1  0
 19 18  2  0
 20 19  1  0
 21 22  1  0
 21 20  2  0
 22 23  2  0
 23 15  1  0
 23 18  1  0
 24 13  1  0
 24 25  2  0
 26 24  1  0
 27 34  1  0
 27 26  1  0
 28 29  1  0
 27 28  1  1
 29 30  2  0
 30 31  1  0
 32 31  1  0
 33 29  1  0
 33 32  2  0
 34 35  1  0
 36 34  2  0
M  END
$$$$
