FWH.pdb
     RDKit          3D

 36 39  0  0  1  0  0  0  0  0999 V2000
    7.4279  -15.9950   21.0850 N   0  0  0  0  0  0  0  0  0  0  0  0
    8.3326  -14.8662   21.1737 C   0  0  1  0  0  0  0  0  0  0  0  0
    7.5930  -13.5620   20.9795 C   0  0  0  0  0  0  0  0  0  0  0  0
    7.4497  -13.3220   19.5258 C   0  0  0  0  0  0  0  0  0  0  0  0
    6.7990  -12.2188   19.0228 C   0  0  0  0  0  0  0  0  0  0  0  0
    6.6704  -12.0040   17.6706 C   0  0  0  0  0  0  0  0  0  0  0  0
    7.1966  -12.8994   16.7678 C   0  0  0  0  0  0  0  0  0  0  0  0
    7.8614  -14.0267   17.2436 C   0  0  0  0  0  0  0  0  0  0  0  0
    7.9698  -14.2072   18.5921 C   0  0  0  0  0  0  0  0  0  0  0  0
    9.0600  -14.9104   22.4650 C   0  0  0  0  0  0  0  0  0  0  0  0
    9.7353  -13.8857   22.8234 O   0  0  0  0  0  0  0  0  0  0  0  0
    9.0784  -15.9917   23.3495 N   0  0  0  0  0  0  0  0  0  0  0  0
    9.8346  -15.9598   24.6196 C   0  0  1  0  0  0  0  0  0  0  0  0
    8.8635  -16.3849   25.6631 C   0  0  0  0  0  0  0  0  0  0  0  0
    7.6835  -15.5615   25.8582 C   0  0  0  0  0  0  0  0  0  0  0  0
    6.3832  -15.9625   25.6399 C   0  0  0  0  0  0  0  0  0  0  0  0
    5.5788  -14.9269   25.9144 N   0  0  0  0  0  0  0  0  0  0  0  0
    6.3305  -13.8787   26.3011 C   0  0  0  0  0  0  0  0  0  0  0  0
    6.0179  -12.6001   26.6859 C   0  0  0  0  0  0  0  0  0  0  0  0
    7.0332  -11.7241   27.0347 C   0  0  0  0  0  0  0  0  0  0  0  0
    8.3487  -12.1114   27.0026 C   0  0  0  0  0  0  0  0  0  0  0  0
    8.6946  -13.3913   26.6196 C   0  0  0  0  0  0  0  0  0  0  0  0
    7.6724  -14.2509   26.2756 C   0  0  0  0  0  0  0  0  0  0  0  0
   11.0059  -16.8256   24.5000 C   0  0  0  0  0  0  0  0  0  0  0  0
   10.8270  -18.0878   24.6005 O   0  0  0  0  0  0  0  0  0  0  0  0
   12.3262  -16.3750   24.2776 N   0  0  0  0  0  0  0  0  0  0  0  0
   13.4124  -17.3606   24.2975 C   0  0  1  0  0  0  0  0  0  0  0  0
   14.5684  -16.8326   23.4594 C   0  0  0  0  0  0  0  0  0  0  0  0
   14.1398  -16.6616   22.0612 C   0  0  0  0  0  0  0  0  0  0  0  0
   13.1367  -17.2980   21.3536 C   0  0  0  0  0  0  0  0  0  0  0  0
   13.1278  -16.8441   20.0939 N   0  0  0  0  0  0  0  0  0  0  0  0
   14.0963  -15.9332   19.9686 C   0  0  0  0  0  0  0  0  0  0  0  0
   14.7075  -15.8213   21.1514 N   0  0  0  0  0  0  0  0  0  0  0  0
   13.8738  -17.5858   25.6656 C   0  0  0  0  0  0  0  0  0  0  0  0
   13.2450  -16.9189   26.7155 O   0  0  0  0  0  0  0  0  0  0  0  0
   14.8278  -18.3718   25.8909 O   0  0  0  0  0  0  0  0  0  0  0  0
  2  1  1  1
  2  3  1  0
  4  3  1  0
  4  9  1  0
  5  4  2  0
  6  5  1  0
  6  7  2  0
  7  8  1  0
  8  9  2  0
 10  2  1  0
 11 10  2  0
 12 10  1  0
 13 12  1  0
 14 15  1  0
 13 14  1  1
 15 16  2  0
 17 16  1  0
 18 17  1  0
 19 18  2  0
 20 19  1  0
 21 22  1  0
 21 20  2  0
 22 23  2  0
 23 15  1  0
 23 18  1  0
 24 13  1  0
 24 25  2  0
 26 24  1  0
 27 34  1  0
 27 26  1  0
 28 29  1  0
 27 28  1  6
 29 30  2  0
 30 31  1  0
 32 31  1  0
 33 29  1  0
 33 32  2  0
 34 35  1  0
 36 34  2  0
M  END
$$$$
