FWH.pdb
     RDKit          3D

 36 39  0  0  1  0  0  0  0  0999 V2000
    7.9837  -17.2004   20.8977 N   0  0  0  0  0  0  0  0  0  0  0  0
    9.3843  -16.8576   21.0435 C   0  0  1  0  0  0  0  0  0  0  0  0
    9.7477  -15.6786   20.1696 C   0  0  0  0  0  0  0  0  0  0  0  0
    8.8864  -14.5363   20.5502 C   0  0  0  0  0  0  0  0  0  0  0  0
    7.9239  -14.6346   21.5285 C   0  0  0  0  0  0  0  0  0  0  0  0
    7.1279  -13.5682   21.8755 C   0  0  0  0  0  0  0  0  0  0  0  0
    7.2731  -12.3537   21.2449 C   0  0  0  0  0  0  0  0  0  0  0  0
    8.2382  -12.2203   20.2498 C   0  0  0  0  0  0  0  0  0  0  0  0
    9.0100  -13.3001   19.9319 C   0  0  0  0  0  0  0  0  0  0  0  0
    9.6911  -16.6106   22.4730 C   0  0  0  0  0  0  0  0  0  0  0  0
   10.7940  -16.0377   22.7730 O   0  0  0  0  0  0  0  0  0  0  0  0
    8.8697  -16.9525   23.5502 N   0  0  0  0  0  0  0  0  0  0  0  0
    9.2884  -16.7587   24.9548 C   0  0  1  0  0  0  0  0  0  0  0  0
    8.0252  -16.7387   25.7398 C   0  0  0  0  0  0  0  0  0  0  0  0
    7.1603  -15.5817   25.5919 C   0  0  0  0  0  0  0  0  0  0  0  0
    5.8711  -15.6035   25.1054 C   0  0  0  0  0  0  0  0  0  0  0  0
    5.4067  -14.3468   25.1068 N   0  0  0  0  0  0  0  0  0  0  0  0
    6.3638  -13.5265   25.5802 C   0  0  0  0  0  0  0  0  0  0  0  0
    6.4108  -12.1714   25.7857 C   0  0  0  0  0  0  0  0  0  0  0  0
    7.5638  -11.5976   26.2969 C   0  0  0  0  0  0  0  0  0  0  0  0
    8.6624  -12.3602   26.6024 C   0  0  0  0  0  0  0  0  0  0  0  0
    8.6452  -13.7261   26.4066 C   0  0  0  0  0  0  0  0  0  0  0  0
    7.4903  -14.2816   25.8972 C   0  0  0  0  0  0  0  0  0  0  0  0
   10.2123  -17.8273   25.3297 C   0  0  0  0  0  0  0  0  0  0  0  0
   10.6062  -18.6243   24.4105 O   0  0  0  0  0  0  0  0  0  0  0  0
   10.7093  -18.0474   26.6336 N   0  0  0  0  0  0  0  0  0  0  0  0
   11.9629  -18.7936   26.7857 C   0  0  1  0  0  0  0  0  0  0  0  0
   13.1026  -17.9568   26.2212 C   0  0  0  0  0  0  0  0  0  0  0  0
   13.3809  -18.3571   24.8319 C   0  0  0  0  0  0  0  0  0  0  0  0
   12.7796  -19.3232   24.0465 C   0  0  0  0  0  0  0  0  0  0  0  0
   13.3835  -19.3610   22.8519 N   0  0  0  0  0  0  0  0  0  0  0  0
   14.3571  -18.4470   22.8443 C   0  0  0  0  0  0  0  0  0  0  0  0
   14.3582  -17.8411   24.0351 N   0  0  0  0  0  0  0  0  0  0  0  0
   12.2241  -19.0728   28.1961 C   0  0  0  0  0  0  0  0  0  0  0  0
   11.3369  -18.5982   29.1606 O   0  0  0  0  0  0  0  0  0  0  0  0
   13.2385  -19.7329   28.5337 O   0  0  0  0  0  0  0  0  0  0  0  0
  2  1  1  1
  2  3  1  0
  4  3  1  0
  4  9  1  0
  5  4  2  0
  6  5  1  0
  6  7  2  0
  7  8  1  0
  8  9  2  0
 10  2  1  0
 11 10  2  0
 12 10  1  0
 13 12  1  0
 14 15  1  0
 13 14  1  1
 15 16  2  0
 17 16  1  0
 18 17  1  0
 19 18  2  0
 20 19  1  0
 21 22  1  0
 21 20  2  0
 22 23  2  0
 23 15  1  0
 23 18  1  0
 24 13  1  0
 24 25  2  0
 26 24  1  0
 27 34  1  0
 27 26  1  0
 28 29  1  0
 27 28  1  1
 29 30  2  0
 30 31  1  0
 32 31  1  0
 33 29  1  0
 33 32  2  0
 34 35  1  0
 36 34  2  0
M  END
$$$$
