FWH.pdb
     RDKit          3D

 36 39  0  0  1  0  0  0  0  0999 V2000
    7.9774  -17.5582   20.7391 N   0  0  0  0  0  0  0  0  0  0  0  0
    9.2544  -16.8728   20.7433 C   0  0  1  0  0  0  0  0  0  0  0  0
    9.2148  -15.6471   19.8589 C   0  0  0  0  0  0  0  0  0  0  0  0
    8.1988  -14.7168   20.4009 C   0  0  0  0  0  0  0  0  0  0  0  0
    6.8945  -15.0973   20.6185 C   0  0  0  0  0  0  0  0  0  0  0  0
    5.9571  -14.2262   21.1221 C   0  0  0  0  0  0  0  0  0  0  0  0
    6.3014  -12.9294   21.4275 C   0  0  0  0  0  0  0  0  0  0  0  0
    7.6134  -12.5118   21.2191 C   0  0  0  0  0  0  0  0  0  0  0  0
    8.5167  -13.4038   20.7179 C   0  0  0  0  0  0  0  0  0  0  0  0
    9.6400  -16.5452   22.1371 C   0  0  0  0  0  0  0  0  0  0  0  0
   10.6483  -15.7834   22.3311 O   0  0  0  0  0  0  0  0  0  0  0  0
    8.9907  -17.0007   23.2872 N   0  0  0  0  0  0  0  0  0  0  0  0
    9.5054  -16.7258   24.6456 C   0  0  1  0  0  0  0  0  0  0  0  0
    8.3054  -16.7217   25.5246 C   0  0  0  0  0  0  0  0  0  0  0  0
    7.4079  -15.5840   25.4312 C   0  0  0  0  0  0  0  0  0  0  0  0
    6.1157  -15.6216   24.9538 C   0  0  0  0  0  0  0  0  0  0  0  0
    5.6169  -14.3795   25.0108 N   0  0  0  0  0  0  0  0  0  0  0  0
    6.5551  -13.5531   25.5109 C   0  0  0  0  0  0  0  0  0  0  0  0
    6.5666  -12.2069   25.7721 C   0  0  0  0  0  0  0  0  0  0  0  0
    7.7077  -11.6228   26.2982 C   0  0  0  0  0  0  0  0  0  0  0  0
    8.8294  -12.3665   26.5637 C   0  0  0  0  0  0  0  0  0  0  0  0
    8.8481  -13.7231   26.3114 C   0  0  0  0  0  0  0  0  0  0  0  0
    7.7046  -14.2891   25.7879 C   0  0  0  0  0  0  0  0  0  0  0  0
   10.5015  -17.7372   24.9928 C   0  0  0  0  0  0  0  0  0  0  0  0
   10.2875  -18.9395   24.6132 O   0  0  0  0  0  0  0  0  0  0  0  0
   11.6896  -17.4887   25.7155 N   0  0  0  0  0  0  0  0  0  0  0  0
   12.5701  -18.6213   26.0212 C   0  0  1  0  0  0  0  0  0  0  0  0
   14.0170  -18.1646   25.8967 C   0  0  0  0  0  0  0  0  0  0  0  0
   14.9243  -19.2479   26.3104 C   0  0  0  0  0  0  0  0  0  0  0  0
   15.3336  -19.6324   27.5739 C   0  0  0  0  0  0  0  0  0  0  0  0
   16.1931  -20.6538   27.4687 N   0  0  0  0  0  0  0  0  0  0  0  0
   16.3501  -20.9391   26.1736 C   0  0  0  0  0  0  0  0  0  0  0  0
   15.5876  -20.0942   25.4736 N   0  0  0  0  0  0  0  0  0  0  0  0
   12.3327  -19.1015   27.3808 C   0  0  0  0  0  0  0  0  0  0  0  0
   12.9876  -20.2499   27.8222 O   0  0  0  0  0  0  0  0  0  0  0  0
   11.5458  -18.4849   28.1419 O   0  0  0  0  0  0  0  0  0  0  0  0
  2  1  1  1
  2  3  1  0
  4  3  1  0
  4  9  1  0
  5  4  2  0
  6  5  1  0
  6  7  2  0
  7  8  1  0
  8  9  2  0
 10  2  1  0
 11 10  2  0
 12 10  1  0
 13 12  1  0
 14 15  1  0
 13 14  1  1
 15 16  2  0
 17 16  1  0
 18 17  1  0
 19 18  2  0
 20 19  1  0
 21 22  1  0
 21 20  2  0
 22 23  2  0
 23 15  1  0
 23 18  1  0
 24 13  1  0
 24 25  2  0
 26 24  1  0
 27 34  1  0
 27 26  1  0
 28 29  1  0
 27 28  1  1
 29 30  2  0
 30 31  1  0
 32 31  1  0
 33 29  1  0
 33 32  2  0
 34 35  1  0
 36 34  2  0
M  END
$$$$
