FWH.pdb
     RDKit          3D

 36 39  0  0  1  0  0  0  0  0999 V2000
    7.4261  -15.4455   21.8037 N   0  0  0  0  0  0  0  0  0  0  0  0
    8.8648  -15.5760   21.6875 C   0  0  1  0  0  0  0  0  0  0  0  0
    9.4646  -14.3716   20.9980 C   0  0  0  0  0  0  0  0  0  0  0  0
    8.6115  -14.0289   19.8377 C   0  0  0  0  0  0  0  0  0  0  0  0
    7.7142  -12.9862   19.8667 C   0  0  0  0  0  0  0  0  0  0  0  0
    6.9254  -12.6751   18.7840 C   0  0  0  0  0  0  0  0  0  0  0  0
    7.0119  -13.4085   17.6229 C   0  0  0  0  0  0  0  0  0  0  0  0
    7.9102  -14.4708   17.5602 C   0  0  0  0  0  0  0  0  0  0  0  0
    8.6769  -14.7504   18.6541 C   0  0  0  0  0  0  0  0  0  0  0  0
    9.4547  -15.8048   23.0286 C   0  0  0  0  0  0  0  0  0  0  0  0
   10.5076  -15.1565   23.3536 O   0  0  0  0  0  0  0  0  0  0  0  0
    8.9576  -16.6828   23.9948 N   0  0  0  0  0  0  0  0  0  0  0  0
    9.4464  -16.6801   25.3902 C   0  0  1  0  0  0  0  0  0  0  0  0
    8.2213  -16.6504   26.2332 C   0  0  0  0  0  0  0  0  0  0  0  0
    7.3448  -15.4998   26.1047 C   0  0  0  0  0  0  0  0  0  0  0  0
    6.0757  -15.5168   25.5677 C   0  0  0  0  0  0  0  0  0  0  0  0
    5.5921  -14.2681   25.6084 N   0  0  0  0  0  0  0  0  0  0  0  0
    6.5174  -13.4575   26.1560 C   0  0  0  0  0  0  0  0  0  0  0  0
    6.5355  -12.1128   26.4249 C   0  0  0  0  0  0  0  0  0  0  0  0
    7.6589  -11.5474   27.0065 C   0  0  0  0  0  0  0  0  0  0  0  0
    8.7566  -12.3082   27.3195 C   0  0  0  0  0  0  0  0  0  0  0  0
    8.7683  -13.6636   27.0609 C   0  0  0  0  0  0  0  0  0  0  0  0
    7.6425  -14.2108   26.4818 C   0  0  0  0  0  0  0  0  0  0  0  0
   10.2936  -17.8520   25.6018 C   0  0  0  0  0  0  0  0  0  0  0  0
    9.7931  -19.0021   25.3527 O   0  0  0  0  0  0  0  0  0  0  0  0
   11.6296  -17.8131   26.0591 N   0  0  0  0  0  0  0  0  0  0  0  0
   12.3679  -19.0761   26.1649 C   0  0  1  0  0  0  0  0  0  0  0  0
   13.8459  -18.8012   25.9251 C   0  0  0  0  0  0  0  0  0  0  0  0
   14.0265  -18.1041   24.6409 C   0  0  0  0  0  0  0  0  0  0  0  0
   13.7751  -18.5348   23.3512 C   0  0  0  0  0  0  0  0  0  0  0  0
   14.1213  -17.5716   22.4878 N   0  0  0  0  0  0  0  0  0  0  0  0
   14.5889  -16.5320   23.1835 C   0  0  0  0  0  0  0  0  0  0  0  0
   14.5333  -16.8496   24.4801 N   0  0  0  0  0  0  0  0  0  0  0  0
   12.1966  -19.6589   27.4940 C   0  0  0  0  0  0  0  0  0  0  0  0
   12.8702  -20.8365   27.8138 O   0  0  0  0  0  0  0  0  0  0  0  0
   11.4493  -19.1036   28.3376 O   0  0  0  0  0  0  0  0  0  0  0  0
  2  1  1  1
  2  3  1  0
  4  3  1  0
  4  9  1  0
  5  4  2  0
  6  5  1  0
  6  7  2  0
  7  8  1  0
  8  9  2  0
 10  2  1  0
 11 10  2  0
 12 10  1  0
 13 12  1  0
 14 15  1  0
 13 14  1  1
 15 16  2  0
 17 16  1  0
 18 17  1  0
 19 18  2  0
 20 19  1  0
 21 22  1  0
 21 20  2  0
 22 23  2  0
 23 15  1  0
 23 18  1  0
 24 13  1  0
 24 25  2  0
 26 24  1  0
 27 34  1  0
 27 26  1  0
 28 29  1  0
 27 28  1  1
 29 30  2  0
 30 31  1  0
 32 31  1  0
 33 29  1  0
 33 32  2  0
 34 35  1  0
 36 34  2  0
M  END
$$$$
