DDQ.pdb
     RDKit          3D

 26 25  0  0  1  0  0  0  0  0999 V2000
   18.9423  -11.5335  -15.5746 N   0  0  0  0  0  0  0  0  0  0  0  0
   18.2672  -10.2827  -15.3966 C   0  0  1  0  0  0  0  0  0  0  0  0
   16.7631  -10.4148  -15.3689 C   0  0  0  0  0  0  0  0  0  0  0  0
   16.3431  -10.9607  -16.6895 C   0  0  0  0  0  0  0  0  0  0  0  0
   16.6622  -10.3359  -17.7328 O   0  0  0  0  0  0  0  0  0  0  0  0
   18.7886   -9.5314  -14.2321 C   0  0  0  0  0  0  0  0  0  0  0  0
   18.8631  -10.1453  -13.1328 O   0  0  0  0  0  0  0  0  0  0  0  0
   15.6145  -12.1285  -16.8299 O   0  0  0  0  0  0  0  0  0  0  0  0
   19.2011   -8.1905  -14.2772 N   0  0  0  0  0  0  0  0  0  0  0  0
   19.6573   -7.5089  -13.0499 C   0  0  1  0  0  0  0  0  0  0  0  0
   20.7604   -6.5381  -13.4117 C   0  0  0  0  0  0  0  0  0  0  0  0
   21.2405   -5.8183  -12.2349 C   0  0  0  0  0  0  0  0  0  0  0  0
   21.1893   -6.3477  -11.1086 O   0  0  0  0  0  0  0  0  0  0  0  0
   18.5244   -6.8702  -12.3624 C   0  0  0  0  0  0  0  0  0  0  0  0
   17.7564   -6.0734  -12.9521 O   0  0  0  0  0  0  0  0  0  0  0  0
   21.7544   -4.5321  -12.4013 O   0  0  0  0  0  0  0  0  0  0  0  0
   14.1482   -9.4093   -9.7166 N   0  0  0  0  0  0  0  0  0  0  0  0
   13.8463   -8.1132   -9.1881 C   0  0  0  0  0  0  0  0  0  0  0  0
   12.7913   -7.8389   -8.5924 O   0  0  0  0  0  0  0  0  0  0  0  0
   14.8629   -7.0272   -9.3650 C   0  0  0  0  0  0  0  0  0  0  0  0
   16.0828   -7.6115  -10.0156 C   0  0  0  0  0  0  0  0  0  0  0  0
   17.0839   -6.5438  -10.2960 C   0  0  2  0  0  0  0  0  0  0  0  0
   18.2381   -7.1213  -10.9913 N   0  0  0  0  0  0  0  0  0  0  0  0
   17.4906   -5.7368   -9.1506 C   0  0  0  0  0  0  0  0  0  0  0  0
   16.7089   -4.7747   -8.5388 O   0  0  0  0  0  0  0  0  0  0  0  0
   18.6502   -5.8839   -8.6278 O   0  0  0  0  0  0  0  0  0  0  0  0
  2  1  1  1
  2  3  1  0
  3  4  1  0
  4  8  1  0
  5  4  2  0
  6  2  1  0
  7  6  2  0
  9  6  1  0
 10 14  1  0
 10  9  1  0
 11 12  1  0
 10 11  1  6
 12 13  2  0
 14 23  1  0
 15 14  2  0
 16 12  1  0
 18 19  2  0
 18 17  1  0
 20 18  1  0
 21 20  1  0
 22 21  1  1
 22 24  1  0
 23 22  1  0
 24 26  2  0
 24 25  1  0
M  END
$$$$
