DDQ.pdb
     RDKit          3D

 26 25  0  0  1  0  0  0  0  0999 V2000
   23.0808  -20.7538  -16.3816 N   0  0  0  0  0  0  0  0  0  0  0  0
   23.5252  -20.2680  -15.1094 C   0  0  1  0  0  0  0  0  0  0  0  0
   24.2039  -18.9213  -15.1886 C   0  0  0  0  0  0  0  0  0  0  0  0
   25.4080  -19.0833  -16.0501 C   0  0  0  0  0  0  0  0  0  0  0  0
   26.1735  -18.0993  -16.2129 O   0  0  0  0  0  0  0  0  0  0  0  0
   22.4456  -20.2965  -14.0964 C   0  0  0  0  0  0  0  0  0  0  0  0
   22.7348  -19.9118  -12.9306 O   0  0  0  0  0  0  0  0  0  0  0  0
   25.7313  -20.2690  -16.6857 O   0  0  0  0  0  0  0  0  0  0  0  0
   21.1327  -20.7216  -14.3527 N   0  0  0  0  0  0  0  0  0  0  0  0
   20.1111  -20.6707  -13.2883 C   0  0  1  0  0  0  0  0  0  0  0  0
   18.9560  -19.8145  -13.7605 C   0  0  0  0  0  0  0  0  0  0  0  0
   18.4041  -19.0188  -12.6671 C   0  0  0  0  0  0  0  0  0  0  0  0
   18.6583  -19.3127  -11.4837 O   0  0  0  0  0  0  0  0  0  0  0  0
   19.7047  -22.0294  -12.8974 C   0  0  0  0  0  0  0  0  0  0  0  0
   19.7942  -22.9998  -13.6864 O   0  0  0  0  0  0  0  0  0  0  0  0
   17.5908  -17.9287  -12.9777 O   0  0  0  0  0  0  0  0  0  0  0  0
   19.3508  -24.1935   -7.1275 N   0  0  0  0  0  0  0  0  0  0  0  0
   18.7865  -25.3162   -7.8141 C   0  0  0  0  0  0  0  0  0  0  0  0
   18.4770  -26.3824   -7.2566 O   0  0  0  0  0  0  0  0  0  0  0  0
   18.5570  -25.1957   -9.2896 C   0  0  0  0  0  0  0  0  0  0  0  0
   18.8927  -23.7963   -9.7159 C   0  0  0  0  0  0  0  0  0  0  0  0
   18.7558  -23.6563  -11.1932 C   0  0  2  0  0  0  0  0  0  0  0  0
   19.1878  -22.3168  -11.6031 N   0  0  0  0  0  0  0  0  0  0  0  0
   17.4488  -23.9958  -11.7457 C   0  0  0  0  0  0  0  0  0  0  0  0
   16.3694  -23.1354  -11.8196 O   0  0  0  0  0  0  0  0  0  0  0  0
   17.2222  -25.1665  -12.2125 O   0  0  0  0  0  0  0  0  0  0  0  0
  2  1  1  6
  2  3  1  0
  3  4  1  0
  4  8  1  0
  5  4  2  0
  6  2  1  0
  7  6  2  0
  9  6  1  0
 10 14  1  0
 10  9  1  0
 11 12  1  0
 10 11  1  6
 12 13  2  0
 14 23  1  0
 15 14  2  0
 16 12  1  0
 18 19  2  0
 18 17  1  0
 20 18  1  0
 21 20  1  0
 22 21  1  1
 22 24  1  0
 23 22  1  0
 24 26  2  0
 24 25  1  0
M  END
$$$$
