DDQ.pdb
     RDKit          3D

 26 25  0  0  1  0  0  0  0  0999 V2000
   18.6179  -11.3362  -15.6091 N   0  0  0  0  0  0  0  0  0  0  0  0
   17.7615  -10.2430  -15.2576 C   0  0  1  0  0  0  0  0  0  0  0  0
   16.3024  -10.6263  -15.1876 C   0  0  0  0  0  0  0  0  0  0  0  0
   15.9099  -11.1195  -16.5370 C   0  0  0  0  0  0  0  0  0  0  0  0
   16.0903  -10.3718  -17.5316 O   0  0  0  0  0  0  0  0  0  0  0  0
   18.2215   -9.5491  -14.0331 C   0  0  0  0  0  0  0  0  0  0  0  0
   18.2092  -10.2054  -12.9561 O   0  0  0  0  0  0  0  0  0  0  0  0
   15.3527  -12.3669  -16.7556 O   0  0  0  0  0  0  0  0  0  0  0  0
   18.6660   -8.2182  -13.9988 N   0  0  0  0  0  0  0  0  0  0  0  0
   19.0084   -7.5791  -12.7130 C   0  0  1  0  0  0  0  0  0  0  0  0
   20.1226   -6.5816  -12.9448 C   0  0  0  0  0  0  0  0  0  0  0  0
   21.3515   -7.2481  -13.3677 C   0  0  0  0  0  0  0  0  0  0  0  0
   21.7265   -8.2941  -12.8048 O   0  0  0  0  0  0  0  0  0  0  0  0
   17.8127   -6.9815  -12.0988 C   0  0  0  0  0  0  0  0  0  0  0  0
   17.1023   -6.1472  -12.7085 O   0  0  0  0  0  0  0  0  0  0  0  0
   22.0908   -6.6890  -14.4103 O   0  0  0  0  0  0  0  0  0  0  0  0
   13.8757   -9.9512   -8.7117 N   0  0  0  0  0  0  0  0  0  0  0  0
   13.3178   -8.6472   -8.5155 C   0  0  0  0  0  0  0  0  0  0  0  0
   12.2367   -8.4379   -7.9405 O   0  0  0  0  0  0  0  0  0  0  0  0
   14.0838   -7.4689   -9.0344 C   0  0  0  0  0  0  0  0  0  0  0  0
   15.3871   -7.9535   -9.5996 C   0  0  0  0  0  0  0  0  0  0  0  0
   16.1562   -6.8169  -10.1804 C   0  0  2  0  0  0  0  0  0  0  0  0
   17.3968   -7.3171  -10.7800 N   0  0  0  0  0  0  0  0  0  0  0  0
   16.4035   -5.6925   -9.2841 C   0  0  0  0  0  0  0  0  0  0  0  0
   17.6040   -5.4299   -8.6512 O   0  0  0  0  0  0  0  0  0  0  0  0
   15.4751   -4.8500   -9.0233 O   0  0  0  0  0  0  0  0  0  0  0  0
  2  1  1  1
  2  3  1  0
  3  4  1  0
  4  8  1  0
  5  4  2  0
  6  2  1  0
  7  6  2  0
  9  6  1  0
 10 14  1  0
 10  9  1  0
 11 12  1  0
 10 11  1  6
 12 13  2  0
 14 23  1  0
 15 14  2  0
 16 12  1  0
 18 19  2  0
 18 17  1  0
 20 18  1  0
 21 20  1  0
 22 21  1  1
 22 24  1  0
 23 22  1  0
 24 26  2  0
 24 25  1  0
M  END
$$$$
