DDQ.pdb
     RDKit          3D

 26 25  0  0  1  0  0  0  0  0999 V2000
   22.7746  -20.9902  -16.0877 N   0  0  0  0  0  0  0  0  0  0  0  0
   23.0755  -20.1984  -14.9325 C   0  0  1  0  0  0  0  0  0  0  0  0
   23.6361  -18.8376  -15.2711 C   0  0  0  0  0  0  0  0  0  0  0  0
   24.8095  -19.0524  -16.1628 C   0  0  0  0  0  0  0  0  0  0  0  0
   25.1646  -20.2299  -16.4241 O   0  0  0  0  0  0  0  0  0  0  0  0
   21.9285  -20.1194  -13.9995 C   0  0  0  0  0  0  0  0  0  0  0  0
   22.0858  -19.4477  -12.9437 O   0  0  0  0  0  0  0  0  0  0  0  0
   25.5353  -18.0164  -16.7234 O   0  0  0  0  0  0  0  0  0  0  0  0
   20.6889  -20.7408  -14.2169 N   0  0  0  0  0  0  0  0  0  0  0  0
   19.5901  -20.5734  -13.2455 C   0  0  1  0  0  0  0  0  0  0  0  0
   18.5516  -19.6456  -13.8379 C   0  0  0  0  0  0  0  0  0  0  0  0
   18.7030  -18.2855  -13.3278 C   0  0  0  0  0  0  0  0  0  0  0  0
   18.6148  -18.0575  -12.1064 O   0  0  0  0  0  0  0  0  0  0  0  0
   19.0435  -21.8818  -12.8537 C   0  0  0  0  0  0  0  0  0  0  0  0
   18.6263  -22.7057  -13.7019 O   0  0  0  0  0  0  0  0  0  0  0  0
   18.9473  -17.2542  -14.2351 O   0  0  0  0  0  0  0  0  0  0  0  0
   18.8461  -24.1102   -6.9853 N   0  0  0  0  0  0  0  0  0  0  0  0
   18.2611  -25.2133   -7.6861 C   0  0  0  0  0  0  0  0  0  0  0  0
   17.8804  -26.2589   -7.1338 O   0  0  0  0  0  0  0  0  0  0  0  0
   18.0998  -25.0974   -9.1710 C   0  0  0  0  0  0  0  0  0  0  0  0
   18.5770  -23.7414   -9.6024 C   0  0  0  0  0  0  0  0  0  0  0  0
   18.3841  -23.5651  -11.0695 C   0  0  2  0  0  0  0  0  0  0  0  0
   18.9584  -22.2840  -11.4913 N   0  0  0  0  0  0  0  0  0  0  0  0
   17.0188  -23.7324  -11.5561 C   0  0  0  0  0  0  0  0  0  0  0  0
   15.9825  -22.8443  -11.3362 O   0  0  0  0  0  0  0  0  0  0  0  0
   16.6933  -24.7618  -12.2445 O   0  0  0  0  0  0  0  0  0  0  0  0
  2  1  1  6
  2  3  1  0
  3  4  1  0
  4  8  1  0
  5  4  2  0
  6  2  1  0
  7  6  2  0
  9  6  1  0
 10 14  1  0
 10  9  1  0
 11 12  1  0
 10 11  1  6
 12 13  2  0
 14 23  1  0
 15 14  2  0
 16 12  1  0
 18 19  2  0
 18 17  1  0
 20 18  1  0
 21 20  1  0
 22 21  1  1
 22 24  1  0
 23 22  1  0
 24 26  2  0
 24 25  1  0
M  END
$$$$
