DDQ.pdb
     RDKit          3D

 26 25  0  0  1  0  0  0  0  0999 V2000
   16.3451  -13.9587  -17.0186 N   0  0  0  0  0  0  0  0  0  0  0  0
   16.7356  -13.3081  -15.8036 C   0  0  1  0  0  0  0  0  0  0  0  0
   17.7414  -14.0979  -15.0003 C   0  0  0  0  0  0  0  0  0  0  0  0
   17.0915  -15.3827  -14.6190 C   0  0  0  0  0  0  0  0  0  0  0  0
   15.8969  -15.3647  -14.2274 O   0  0  0  0  0  0  0  0  0  0  0  0
   17.1712  -11.9123  -16.0366 C   0  0  0  0  0  0  0  0  0  0  0  0
   17.7372  -11.6578  -17.1347 O   0  0  0  0  0  0  0  0  0  0  0  0
   17.7381  -16.6046  -14.6734 O   0  0  0  0  0  0  0  0  0  0  0  0
   16.9942  -10.8656  -15.1185 N   0  0  0  0  0  0  0  0  0  0  0  0
   17.4122   -9.4925  -15.4632 C   0  0  1  0  0  0  0  0  0  0  0  0
   16.3840   -8.5199  -14.9274 C   0  0  0  0  0  0  0  0  0  0  0  0
   16.7712   -7.1374  -15.1960 C   0  0  0  0  0  0  0  0  0  0  0  0
   17.2509   -6.8212  -16.3012 O   0  0  0  0  0  0  0  0  0  0  0  0
   18.7731   -9.2281  -14.9709 C   0  0  0  0  0  0  0  0  0  0  0  0
   19.1029   -9.4557  -13.7826 O   0  0  0  0  0  0  0  0  0  0  0  0
   16.5922   -6.1856  -14.1919 O   0  0  0  0  0  0  0  0  0  0  0  0
   23.7195   -8.7958  -18.6765 N   0  0  0  0  0  0  0  0  0  0  0  0
   24.3696   -8.6013  -17.4156 C   0  0  0  0  0  0  0  0  0  0  0  0
   25.5994   -8.4861  -17.2832 O   0  0  0  0  0  0  0  0  0  0  0  0
   23.5154   -8.5331  -16.1868 C   0  0  0  0  0  0  0  0  0  0  0  0
   22.0758   -8.6526  -16.5945 C   0  0  0  0  0  0  0  0  0  0  0  0
   21.1890   -8.5718  -15.3996 C   0  0  2  0  0  0  0  0  0  0  0  0
   19.7892   -8.7001  -15.8156 N   0  0  0  0  0  0  0  0  0  0  0  0
   21.3923   -7.4151  -14.5339 C   0  0  0  0  0  0  0  0  0  0  0  0
   22.2214   -7.3861  -13.4282 O   0  0  0  0  0  0  0  0  0  0  0  0
   20.7822   -6.3131  -14.7639 O   0  0  0  0  0  0  0  0  0  0  0  0
  2  1  1  6
  2  3  1  0
  3  4  1  0
  4  8  1  0
  5  4  2  0
  6  2  1  0
  7  6  2  0
  9  6  1  0
 10 14  1  0
 10  9  1  0
 11 12  1  0
 10 11  1  1
 12 13  2  0
 14 23  1  0
 15 14  2  0
 16 12  1  0
 18 19  2  0
 18 17  1  0
 20 18  1  0
 21 20  1  0
 22 21  1  6
 22 24  1  0
 23 22  1  0
 24 26  2  0
 24 25  1  0
M  END
$$$$
