DDQ.pdb
     RDKit          3D

 26 25  0  0  1  0  0  0  0  0999 V2000
   13.6110   -9.5836  -11.2940 N   0  0  0  0  0  0  0  0  0  0  0  0
   14.8374   -9.6415  -10.5561 C   0  0  1  0  0  0  0  0  0  0  0  0
   15.6441  -10.8873  -10.8356 C   0  0  0  0  0  0  0  0  0  0  0  0
   14.7808  -12.0556  -10.5068 C   0  0  0  0  0  0  0  0  0  0  0  0
   14.9255  -13.1192  -11.1615 O   0  0  0  0  0  0  0  0  0  0  0  0
   15.6374   -8.4052  -10.7113 C   0  0  0  0  0  0  0  0  0  0  0  0
   15.7851   -7.9537  -11.8798 O   0  0  0  0  0  0  0  0  0  0  0  0
   13.8205  -12.0321   -9.5111 O   0  0  0  0  0  0  0  0  0  0  0  0
   16.2353   -7.7122   -9.6473 N   0  0  0  0  0  0  0  0  0  0  0  0
   16.9052   -6.4180   -9.8829 C   0  0  1  0  0  0  0  0  0  0  0  0
   16.7583   -5.5596   -8.6453 C   0  0  0  0  0  0  0  0  0  0  0  0
   15.4169   -4.9894   -8.5516 C   0  0  0  0  0  0  0  0  0  0  0  0
   14.6316   -5.0652   -9.5156 O   0  0  0  0  0  0  0  0  0  0  0  0
   18.3058   -6.6266  -10.2817 C   0  0  0  0  0  0  0  0  0  0  0  0
   19.1383   -7.1683   -9.5163 O   0  0  0  0  0  0  0  0  0  0  0  0
   15.0383   -4.3618   -7.3646 O   0  0  0  0  0  0  0  0  0  0  0  0
   20.2358   -9.3639  -14.9807 N   0  0  0  0  0  0  0  0  0  0  0  0
   21.5122   -8.8216  -14.6247 C   0  0  0  0  0  0  0  0  0  0  0  0
   22.5859   -9.1978  -15.1237 O   0  0  0  0  0  0  0  0  0  0  0  0
   21.5527   -7.7383  -13.5907 C   0  0  0  0  0  0  0  0  0  0  0  0
   20.1638   -7.5241  -13.0639 C   0  0  0  0  0  0  0  0  0  0  0  0
   20.1657   -6.4756  -12.0049 C   0  0  2  0  0  0  0  0  0  0  0  0
   18.7924   -6.2252  -11.5573 N   0  0  0  0  0  0  0  0  0  0  0  0
   20.8606   -5.2367  -12.3379 C   0  0  0  0  0  0  0  0  0  0  0  0
   22.2286   -5.0501  -12.2706 O   0  0  0  0  0  0  0  0  0  0  0  0
   20.2070   -4.2069  -12.7277 O   0  0  0  0  0  0  0  0  0  0  0  0
  2  1  1  6
  2  3  1  0
  3  4  1  0
  4  8  1  0
  5  4  2  0
  6  2  1  0
  7  6  2  0
  9  6  1  0
 10 14  1  0
 10  9  1  0
 11 12  1  0
 10 11  1  1
 12 13  2  0
 14 23  1  0
 15 14  2  0
 16 12  1  0
 18 19  2  0
 18 17  1  0
 20 18  1  0
 21 20  1  0
 22 21  1  6
 22 24  1  0
 23 22  1  0
 24 26  2  0
 24 25  1  0
M  END
$$$$
