DDQ.pdb
     RDKit          3D

 26 25  0  0  1  0  0  0  0  0999 V2000
   18.8768   -9.5107  -11.9280 N   0  0  0  0  0  0  0  0  0  0  0  0
   17.6685   -8.7983  -12.2187 C   0  0  1  0  0  0  0  0  0  0  0  0
   16.5903   -9.6706  -12.8165 C   0  0  0  0  0  0  0  0  0  0  0  0
   16.8430   -9.7431  -14.2826 C   0  0  0  0  0  0  0  0  0  0  0  0
   17.9735   -9.4096  -14.7199 O   0  0  0  0  0  0  0  0  0  0  0  0
   17.1857   -8.0251  -11.0519 C   0  0  0  0  0  0  0  0  0  0  0  0
   17.0856   -8.6363   -9.9532 O   0  0  0  0  0  0  0  0  0  0  0  0
   15.8916  -10.1615  -15.1958 O   0  0  0  0  0  0  0  0  0  0  0  0
   16.8361   -6.6664  -11.0943 N   0  0  0  0  0  0  0  0  0  0  0  0
   16.4078   -5.9679   -9.8664 C   0  0  1  0  0  0  0  0  0  0  0  0
   17.2436   -4.7174   -9.6991 C   0  0  0  0  0  0  0  0  0  0  0  0
   16.8196   -3.9484   -8.5320 C   0  0  0  0  0  0  0  0  0  0  0  0
   17.2053   -2.7742   -8.3774 O   0  0  0  0  0  0  0  0  0  0  0  0
   14.9619   -5.6991   -9.9029 C   0  0  0  0  0  0  0  0  0  0  0  0
   14.4456   -4.9736  -10.7859 O   0  0  0  0  0  0  0  0  0  0  0  0
   15.9776   -4.5563   -7.6004 O   0  0  0  0  0  0  0  0  0  0  0  0
   10.5853   -9.0242   -6.9952 N   0  0  0  0  0  0  0  0  0  0  0  0
    9.7637   -7.9765   -7.5221 C   0  0  0  0  0  0  0  0  0  0  0  0
    8.5275   -7.9425   -7.4037 O   0  0  0  0  0  0  0  0  0  0  0  0
   10.4358   -6.8580   -8.2579 C   0  0  0  0  0  0  0  0  0  0  0  0
   11.9203   -7.0740   -8.2097 C   0  0  0  0  0  0  0  0  0  0  0  0
   12.6277   -5.9870   -8.9437 C   0  0  2  0  0  0  0  0  0  0  0  0
   14.0703   -6.2473   -8.9388 N   0  0  0  0  0  0  0  0  0  0  0  0
   12.3219   -4.6265   -8.5146 C   0  0  0  0  0  0  0  0  0  0  0  0
   11.2501   -3.8751   -8.9589 O   0  0  0  0  0  0  0  0  0  0  0  0
   13.0681   -4.0279   -7.6634 O   0  0  0  0  0  0  0  0  0  0  0  0
  2  1  1  1
  2  3  1  0
  3  4  1  0
  4  8  1  0
  5  4  2  0
  6  2  1  0
  7  6  2  0
  9  6  1  0
 10 14  1  0
 10  9  1  0
 11 12  1  0
 10 11  1  6
 12 13  2  0
 14 23  1  0
 15 14  2  0
 16 12  1  0
 18 19  2  0
 18 17  1  0
 20 18  1  0
 21 20  1  0
 22 21  1  1
 22 24  1  0
 23 22  1  0
 24 26  2  0
 24 25  1  0
M  END
$$$$
