DDQ.pdb
     RDKit          3D

 26 25  0  0  1  0  0  0  0  0999 V2000
   15.5335  -12.2068  -15.9526 N   0  0  0  0  0  0  0  0  0  0  0  0
   16.0870  -12.5222  -14.6696 C   0  0  1  0  0  0  0  0  0  0  0  0
   16.9311  -13.7745  -14.6752 C   0  0  0  0  0  0  0  0  0  0  0  0
   16.0080  -14.9287  -14.8597 C   0  0  0  0  0  0  0  0  0  0  0  0
   15.8622  -15.7451  -13.9148 O   0  0  0  0  0  0  0  0  0  0  0  0
   16.7953  -11.3676  -14.0717 C   0  0  0  0  0  0  0  0  0  0  0  0
   17.3825  -11.5548  -12.9712 O   0  0  0  0  0  0  0  0  0  0  0  0
   15.2968  -15.1516  -16.0253 O   0  0  0  0  0  0  0  0  0  0  0  0
   16.8523  -10.0899  -14.6498 N   0  0  0  0  0  0  0  0  0  0  0  0
   17.6204   -9.0103  -13.9989 C   0  0  1  0  0  0  0  0  0  0  0  0
   18.6333   -8.4689  -14.9844 C   0  0  0  0  0  0  0  0  0  0  0  0
   19.4412   -7.4094  -14.3863 C   0  0  0  0  0  0  0  0  0  0  0  0
   19.8677   -7.5240  -13.2215 O   0  0  0  0  0  0  0  0  0  0  0  0
   16.7147   -7.9780  -13.4713 C   0  0  0  0  0  0  0  0  0  0  0  0
   15.8110   -7.4679  -14.1753 O   0  0  0  0  0  0  0  0  0  0  0  0
   19.7223   -6.2732  -15.1455 O   0  0  0  0  0  0  0  0  0  0  0  0
   15.3846   -7.0955   -7.5205 N   0  0  0  0  0  0  0  0  0  0  0  0
   14.3937   -7.6890   -8.3667 C   0  0  0  0  0  0  0  0  0  0  0  0
   13.4269   -8.3444   -7.9436 O   0  0  0  0  0  0  0  0  0  0  0  0
   14.5331   -7.5079   -9.8473 C   0  0  0  0  0  0  0  0  0  0  0  0
   15.7606   -6.6878  -10.1181 C   0  0  0  0  0  0  0  0  0  0  0  0
   15.9287   -6.4721  -11.5830 C   0  0  2  0  0  0  0  0  0  0  0  0
   16.8145   -7.5019  -12.1341 N   0  0  0  0  0  0  0  0  0  0  0  0
   16.3415   -5.1317  -11.9852 C   0  0  0  0  0  0  0  0  0  0  0  0
   15.5397   -4.0065  -11.9409 O   0  0  0  0  0  0  0  0  0  0  0  0
   17.5257   -4.9178  -12.4228 O   0  0  0  0  0  0  0  0  0  0  0  0
  2  1  1  6
  2  3  1  0
  3  4  1  0
  4  8  1  0
  5  4  2  0
  6  2  1  0
  7  6  2  0
  9  6  1  0
 10 14  1  0
 10  9  1  0
 11 12  1  0
 10 11  1  6
 12 13  2  0
 14 23  1  0
 15 14  2  0
 16 12  1  0
 18 19  2  0
 18 17  1  0
 20 18  1  0
 21 20  1  0
 22 21  1  1
 22 24  1  0
 23 22  1  0
 24 26  2  0
 24 25  1  0
M  END
$$$$
