DDQ.pdb
     RDKit          3D

 26 25  0  0  1  0  0  0  0  0999 V2000
   17.0974  -12.2476  -14.4730 N   0  0  0  0  0  0  0  0  0  0  0  0
   16.4449  -10.9761  -14.5698 C   0  0  1  0  0  0  0  0  0  0  0  0
   14.9385  -11.0789  -14.6009 C   0  0  0  0  0  0  0  0  0  0  0  0
   14.5729  -11.8419  -15.8267 C   0  0  0  0  0  0  0  0  0  0  0  0
   15.1877  -11.6006  -16.8965 O   0  0  0  0  0  0  0  0  0  0  0  0
   16.9240  -10.0265  -13.5397 C   0  0  0  0  0  0  0  0  0  0  0  0
   17.0062  -10.4504  -12.3546 O   0  0  0  0  0  0  0  0  0  0  0  0
   13.5847  -12.8100  -15.8504 O   0  0  0  0  0  0  0  0  0  0  0  0
   17.2885   -8.6963  -13.7997 N   0  0  0  0  0  0  0  0  0  0  0  0
   17.8040   -7.8385  -12.7145 C   0  0  1  0  0  0  0  0  0  0  0  0
   18.6486   -6.7387  -13.3207 C   0  0  0  0  0  0  0  0  0  0  0  0
   19.8200   -7.2840  -14.0017 C   0  0  0  0  0  0  0  0  0  0  0  0
   20.6342   -7.9949  -13.3827 O   0  0  0  0  0  0  0  0  0  0  0  0
   16.6981   -7.3319  -11.8872 C   0  0  0  0  0  0  0  0  0  0  0  0
   15.6184   -6.9423  -12.3921 O   0  0  0  0  0  0  0  0  0  0  0  0
   20.0042   -6.9917  -15.3533 O   0  0  0  0  0  0  0  0  0  0  0  0
   13.4766   -9.2219   -8.7537 N   0  0  0  0  0  0  0  0  0  0  0  0
   13.2859   -8.1608   -7.8115 C   0  0  0  0  0  0  0  0  0  0  0  0
   12.2258   -7.9686   -7.1929 O   0  0  0  0  0  0  0  0  0  0  0  0
   14.4322   -7.2300   -7.5586 C   0  0  0  0  0  0  0  0  0  0  0  0
   15.5930   -7.6541   -8.4103 C   0  0  0  0  0  0  0  0  0  0  0  0
   15.6956   -6.7870   -9.6180 C   0  0  2  0  0  0  0  0  0  0  0  0
   16.7928   -7.2562  -10.4694 N   0  0  0  0  0  0  0  0  0  0  0  0
   15.7822   -5.3526   -9.3654 C   0  0  0  0  0  0  0  0  0  0  0  0
   16.8839   -4.5631   -9.6368 O   0  0  0  0  0  0  0  0  0  0  0  0
   14.7941   -4.7199   -8.8526 O   0  0  0  0  0  0  0  0  0  0  0  0
  2  1  1  1
  2  3  1  0
  3  4  1  0
  4  8  1  0
  5  4  2  0
  6  2  1  0
  7  6  2  0
  9  6  1  0
 10 14  1  0
 10  9  1  0
 11 12  1  0
 10 11  1  6
 12 13  2  0
 14 23  1  0
 15 14  2  0
 16 12  1  0
 18 19  2  0
 18 17  1  0
 20 18  1  0
 21 20  1  0
 22 21  1  1
 22 24  1  0
 23 22  1  0
 24 26  2  0
 24 25  1  0
M  END
$$$$
