QER.pdb
     RDKit          3D

 30 29  0  0  1  0  0  0  0  0999 V2000
    8.8099  -12.4048   20.1546 N   0  0  0  0  0  0  0  0  0  0  0  0
    7.6814  -12.8399   19.4289 C   0  0  0  0  0  0  0  0  0  0  0  0
    6.6765  -12.0677   19.3970 O   0  0  0  0  0  0  0  0  0  0  0  0
    7.6752  -14.1755   18.7186 C   0  0  0  0  0  0  0  0  0  0  0  0
    9.0093  -14.7877   18.9551 C   0  0  0  0  0  0  0  0  0  0  0  0
    9.8685  -15.0094   17.7594 C   0  0  2  0  0  0  0  0  0  0  0  0
    9.1520  -16.0072   16.9336 N   0  0  0  0  0  0  0  0  0  0  0  0
   11.2171  -15.4984   17.9947 C   0  0  0  0  0  0  0  0  0  0  0  0
   11.4053  -16.7151   18.3560 O   0  0  0  0  0  0  0  0  0  0  0  0
   12.4259  -14.7607   17.8671 N   0  0  0  0  0  0  0  0  0  0  0  0
   13.7018  -15.2434   18.3459 C   0  0  1  0  0  0  0  0  0  0  0  0
   14.8084  -14.7124   17.4747 C   0  0  0  0  0  0  0  0  0  0  0  0
   14.6891  -15.2901   16.0964 C   0  0  0  0  0  0  0  0  0  0  0  0
   15.7643  -14.8949   15.1734 C   0  0  0  0  0  0  0  0  0  0  0  0
   16.6598  -15.6867   14.8249 O   0  0  0  0  0  0  0  0  0  0  0  0
   13.9257  -14.8362   19.7821 C   0  0  0  0  0  0  0  0  0  0  0  0
   14.1765  -13.6306   20.0005 O   0  0  0  0  0  0  0  0  0  0  0  0
   15.8054  -13.5966   14.6569 O   0  0  0  0  0  0  0  0  0  0  0  0
   10.5894  -18.2605   27.1885 N   0  0  0  0  0  0  0  0  0  0  0  0
   11.6326  -17.4068   27.6343 C   0  0  0  0  0  0  0  0  0  0  0  0
   11.7329  -17.2037   28.9102 N   0  0  0  0  0  0  0  0  0  0  0  0
   12.5495  -16.7840   26.7461 N   0  0  0  0  0  0  0  0  0  0  0  0
   12.4460  -16.9591   25.3102 C   0  0  0  0  0  0  0  0  0  0  0  0
   13.3870  -16.0391   24.5666 C   0  0  0  0  0  0  0  0  0  0  0  0
   13.1702  -16.2325   23.0967 C   0  0  0  0  0  0  0  0  0  0  0  0
   14.0914  -15.3893   22.2425 C   0  0  2  0  0  0  0  0  0  0  0  0
   13.8658  -15.7308   20.8581 N   0  0  0  0  0  0  0  0  0  0  0  0
   15.5196  -15.5413   22.6263 C   0  0  0  0  0  0  0  0  0  0  0  0
   16.3039  -16.3530   22.0482 O   0  0  0  0  0  0  0  0  0  0  0  0
   16.0802  -14.7933   23.6521 O   0  0  0  0  0  0  0  0  0  0  0  0
  2  1  1  0
  2  3  2  0
  4  5  1  0
  4  2  1  0
  6  7  1  6
  6  5  1  0
  8  6  1  0
  9  8  2  0
 10  8  1  0
 11 10  1  0
 11 12  1  6
 13 12  1  0
 14 15  2  0
 14 13  1  0
 16 11  1  0
 16 17  2  0
 18 14  1  0
 20 19  1  0
 21 20  2  0
 22 20  1  0
 23 22  1  0
 24 25  1  0
 24 23  1  0
 26 25  1  1
 26 27  1  0
 27 16  1  0
 28 26  1  0
 29 28  2  0
 30 28  1  0
M  END
$$$$
