QER.pdb
     RDKit          3D

 30 29  0  0  1  0  0  0  0  0999 V2000
    8.6926  -12.1474   18.9205 N   0  0  0  0  0  0  0  0  0  0  0  0
    8.0115  -12.7825   19.9798 C   0  0  0  0  0  0  0  0  0  0  0  0
    7.1521  -12.0984   20.6127 O   0  0  0  0  0  0  0  0  0  0  0  0
    8.2984  -14.2229   20.3425 C   0  0  0  0  0  0  0  0  0  0  0  0
    9.4054  -14.6707   19.4567 C   0  0  0  0  0  0  0  0  0  0  0  0
    9.3505  -16.0772   18.9711 C   0  0  2  0  0  0  0  0  0  0  0  0
    8.1539  -16.6719   19.6078 N   0  0  0  0  0  0  0  0  0  0  0  0
   10.4927  -16.9255   19.2689 C   0  0  0  0  0  0  0  0  0  0  0  0
   10.3182  -18.0600   19.8424 O   0  0  0  0  0  0  0  0  0  0  0  0
   11.8585  -16.6458   18.9891 N   0  0  0  0  0  0  0  0  0  0  0  0
   12.9285  -17.5805   19.2564 C   0  0  1  0  0  0  0  0  0  0  0  0
   14.1813  -17.1388   18.5487 C   0  0  0  0  0  0  0  0  0  0  0  0
   15.2682  -18.1482   18.7662 C   0  0  0  0  0  0  0  0  0  0  0  0
   16.5574  -17.8001   18.1490 C   0  0  0  0  0  0  0  0  0  0  0  0
   16.9393  -18.3156   17.0818 O   0  0  0  0  0  0  0  0  0  0  0  0
   13.1800  -17.6994   20.7401 C   0  0  0  0  0  0  0  0  0  0  0  0
   13.2071  -16.6378   21.4006 O   0  0  0  0  0  0  0  0  0  0  0  0
   17.3987  -16.8647   18.7584 O   0  0  0  0  0  0  0  0  0  0  0  0
   12.9520  -22.2971   28.7091 N   0  0  0  0  0  0  0  0  0  0  0  0
   12.6063  -22.1291   27.3424 C   0  0  0  0  0  0  0  0  0  0  0  0
   11.5003  -21.5072   27.0790 N   0  0  0  0  0  0  0  0  0  0  0  0
   13.4169  -22.6087   26.2793 N   0  0  0  0  0  0  0  0  0  0  0  0
   13.1505  -22.2401   24.9021 C   0  0  0  0  0  0  0  0  0  0  0  0
   13.3915  -20.7673   24.6620 C   0  0  0  0  0  0  0  0  0  0  0  0
   13.2683  -20.5040   23.1922 C   0  0  0  0  0  0  0  0  0  0  0  0
   13.6151  -19.0815   22.8106 C   0  0  2  0  0  0  0  0  0  0  0  0
   13.3799  -18.9210   21.3953 N   0  0  0  0  0  0  0  0  0  0  0  0
   15.0059  -18.7152   23.1873 C   0  0  0  0  0  0  0  0  0  0  0  0
   15.2942  -18.1489   24.2847 O   0  0  0  0  0  0  0  0  0  0  0  0
   16.0792  -18.9762   22.3470 O   0  0  0  0  0  0  0  0  0  0  0  0
  2  1  1  0
  2  3  2  0
  4  5  1  0
  4  2  1  0
  6  7  1  1
  6  5  1  0
  8  6  1  0
  9  8  2  0
 10  8  1  0
 11 10  1  0
 11 12  1  6
 13 12  1  0
 14 15  2  0
 14 13  1  0
 16 11  1  0
 16 17  2  0
 18 14  1  0
 20 19  1  0
 21 20  2  0
 22 20  1  0
 23 22  1  0
 24 25  1  0
 24 23  1  0
 26 25  1  6
 26 27  1  0
 27 16  1  0
 28 26  1  0
 29 28  2  0
 30 28  1  0
M  END
$$$$
