QER.pdb
     RDKit          3D

 30 29  0  0  1  0  0  0  0  0999 V2000
   10.2395  -17.8229   15.6921 N   0  0  0  0  0  0  0  0  0  0  0  0
   10.7088  -19.0019   15.0763 C   0  0  0  0  0  0  0  0  0  0  0  0
   11.4054  -18.8721   14.0251 O   0  0  0  0  0  0  0  0  0  0  0  0
   10.3911  -20.3647   15.6510 C   0  0  0  0  0  0  0  0  0  0  0  0
    9.5889  -20.1297   16.8806 C   0  0  0  0  0  0  0  0  0  0  0  0
    9.4755  -21.2658   17.8364 C   0  0  2  0  0  0  0  0  0  0  0  0
    8.0282  -21.5608   17.9344 N   0  0  0  0  0  0  0  0  0  0  0  0
    9.9881  -21.0542   19.1801 C   0  0  0  0  0  0  0  0  0  0  0  0
   10.4234  -19.8981   19.5271 O   0  0  0  0  0  0  0  0  0  0  0  0
   10.0733  -22.0183   20.2218 N   0  0  0  0  0  0  0  0  0  0  0  0
   10.9539  -21.8781   21.3597 C   0  0  1  0  0  0  0  0  0  0  0  0
   11.7090  -23.1610   21.5825 C   0  0  0  0  0  0  0  0  0  0  0  0
   11.2045  -23.8366   22.8221 C   0  0  0  0  0  0  0  0  0  0  0  0
   11.9742  -23.5341   24.0387 C   0  0  0  0  0  0  0  0  0  0  0  0
   12.5890  -22.4607   24.1815 O   0  0  0  0  0  0  0  0  0  0  0  0
   11.9164  -20.7332   21.1563 C   0  0  0  0  0  0  0  0  0  0  0  0
   11.9009  -20.1665   20.0416 O   0  0  0  0  0  0  0  0  0  0  0  0
   12.0337  -24.4627   25.0819 O   0  0  0  0  0  0  0  0  0  0  0  0
   10.7881  -13.7671   24.7441 N   0  0  0  0  0  0  0  0  0  0  0  0
    9.7375  -14.6946   24.9718 C   0  0  0  0  0  0  0  0  0  0  0  0
    9.0285  -14.5410   26.0456 N   0  0  0  0  0  0  0  0  0  0  0  0
    9.4450  -15.7601   24.0793 N   0  0  0  0  0  0  0  0  0  0  0  0
    9.9033  -17.1109   24.3412 C   0  0  0  0  0  0  0  0  0  0  0  0
   11.3319  -17.3128   23.8904 C   0  0  0  0  0  0  0  0  0  0  0  0
   11.4284  -18.6477   23.2169 C   0  0  0  0  0  0  0  0  0  0  0  0
   12.8212  -18.9639   22.7176 C   0  0  2  0  0  0  0  0  0  0  0  0
   12.8072  -20.2872   22.1409 N   0  0  0  0  0  0  0  0  0  0  0  0
   13.8500  -18.8334   23.7829 C   0  0  0  0  0  0  0  0  0  0  0  0
   14.7495  -17.9397   23.7639 O   0  0  0  0  0  0  0  0  0  0  0  0
   13.8827  -19.6942   24.8710 O   0  0  0  0  0  0  0  0  0  0  0  0
  2  1  1  0
  2  3  2  0
  4  5  1  0
  4  2  1  0
  6  7  1  1
  6  5  1  0
  8  6  1  0
  9  8  2  0
 10  8  1  0
 11 10  1  0
 11 12  1  6
 13 12  1  0
 14 15  2  0
 14 13  1  0
 16 11  1  0
 16 17  2  0
 18 14  1  0
 20 19  1  0
 21 20  2  0
 22 20  1  0
 23 22  1  0
 24 25  1  0
 24 23  1  0
 26 25  1  1
 26 27  1  0
 27 16  1  0
 28 26  1  0
 29 28  2  0
 30 28  1  0
M  END
$$$$
