QER.pdb
     RDKit          3D

 30 29  0  0  1  0  0  0  0  0999 V2000
    2.5117  -22.9292   17.2143 N   0  0  0  0  0  0  0  0  0  0  0  0
    3.1393  -23.8426   18.0869 C   0  0  0  0  0  0  0  0  0  0  0  0
    2.8291  -25.0662   17.9704 O   0  0  0  0  0  0  0  0  0  0  0  0
    4.1420  -23.3758   19.1189 C   0  0  0  0  0  0  0  0  0  0  0  0
    4.2581  -21.9020   18.9610 C   0  0  0  0  0  0  0  0  0  0  0  0
    5.3815  -21.2358   19.6762 C   0  0  2  0  0  0  0  0  0  0  0  0
    5.1974  -19.7856   19.4437 N   0  0  0  0  0  0  0  0  0  0  0  0
    6.7303  -21.5937   19.2692 C   0  0  0  0  0  0  0  0  0  0  0  0
    7.0546  -22.8279   19.1346 O   0  0  0  0  0  0  0  0  0  0  0  0
    7.7994  -20.7013   18.9824 N   0  0  0  0  0  0  0  0  0  0  0  0
    9.1041  -21.1441   18.5446 C   0  0  1  0  0  0  0  0  0  0  0  0
    9.2537  -20.9091   17.0654 C   0  0  0  0  0  0  0  0  0  0  0  0
   10.5458  -21.5000   16.5871 C   0  0  0  0  0  0  0  0  0  0  0  0
   10.6825  -21.5659   15.1238 C   0  0  0  0  0  0  0  0  0  0  0  0
   10.5966  -20.5520   14.4061 O   0  0  0  0  0  0  0  0  0  0  0  0
   10.1965  -20.4278   19.3012 C   0  0  0  0  0  0  0  0  0  0  0  0
   11.3177  -20.3561   18.7520 O   0  0  0  0  0  0  0  0  0  0  0  0
   10.9164  -22.7919   14.4942 O   0  0  0  0  0  0  0  0  0  0  0  0
    7.5000  -24.3454   25.2371 N   0  0  0  0  0  0  0  0  0  0  0  0
    7.9694  -24.5289   23.9098 C   0  0  0  0  0  0  0  0  0  0  0  0
    7.9710  -25.7363   23.4392 N   0  0  0  0  0  0  0  0  0  0  0  0
    8.4251  -23.4549   23.0996 N   0  0  0  0  0  0  0  0  0  0  0  0
    8.2839  -22.0759   23.5258 C   0  0  0  0  0  0  0  0  0  0  0  0
    8.7995  -21.1132   22.4807 C   0  0  0  0  0  0  0  0  0  0  0  0
   10.2751  -20.9478   22.6806 C   0  0  0  0  0  0  0  0  0  0  0  0
   10.9082  -19.9979   21.6877 C   0  0  2  0  0  0  0  0  0  0  0  0
   10.0128  -19.8521   20.5647 N   0  0  0  0  0  0  0  0  0  0  0  0
   12.2632  -20.4390   21.2637 C   0  0  0  0  0  0  0  0  0  0  0  0
   12.4927  -21.5912   20.7863 O   0  0  0  0  0  0  0  0  0  0  0  0
   13.3659  -19.6029   21.3690 O   0  0  0  0  0  0  0  0  0  0  0  0
  2  1  1  0
  2  3  2  0
  4  5  1  0
  4  2  1  0
  6  7  1  6
  6  5  1  0
  8  6  1  0
  9  8  2  0
 10  8  1  0
 11 10  1  0
 11 12  1  6
 13 12  1  0
 14 15  2  0
 14 13  1  0
 16 11  1  0
 16 17  2  0
 18 14  1  0
 20 19  1  0
 21 20  2  0
 22 20  1  0
 23 22  1  0
 24 25  1  0
 24 23  1  0
 26 25  1  1
 26 27  1  0
 27 16  1  0
 28 26  1  0
 29 28  2  0
 30 28  1  0
M  END
$$$$
