QER.pdb
     RDKit          3D

 30 29  0  0  1  0  0  0  0  0999 V2000
    9.0558  -15.3481   15.5906 N   0  0  0  0  0  0  0  0  0  0  0  0
    9.7355  -15.4325   14.3576 C   0  0  0  0  0  0  0  0  0  0  0  0
    9.0835  -15.1355   13.3118 O   0  0  0  0  0  0  0  0  0  0  0  0
   11.1849  -15.8608   14.2908 C   0  0  0  0  0  0  0  0  0  0  0  0
   11.6733  -15.9238   15.6937 C   0  0  0  0  0  0  0  0  0  0  0  0
   13.0894  -16.3379   15.8943 C   0  0  2  0  0  0  0  0  0  0  0  0
   13.1718  -17.7295   15.3963 N   0  0  0  0  0  0  0  0  0  0  0  0
   13.6008  -16.3112   17.2548 C   0  0  0  0  0  0  0  0  0  0  0  0
   13.4542  -17.3333   18.0164 O   0  0  0  0  0  0  0  0  0  0  0  0
   14.2839  -15.2368   17.8878 N   0  0  0  0  0  0  0  0  0  0  0  0
   14.6900  -15.2652   19.2750 C   0  0  1  0  0  0  0  0  0  0  0  0
   15.9067  -14.4005   19.4690 C   0  0  0  0  0  0  0  0  0  0  0  0
   16.3734  -14.4950   20.8905 C   0  0  0  0  0  0  0  0  0  0  0  0
   17.6073  -13.7477   21.1790 C   0  0  0  0  0  0  0  0  0  0  0  0
   18.1310  -13.7485   22.3087 O   0  0  0  0  0  0  0  0  0  0  0  0
   13.5691  -14.7998   20.1726 C   0  0  0  0  0  0  0  0  0  0  0  0
   13.0133  -13.7192   19.8771 O   0  0  0  0  0  0  0  0  0  0  0  0
   18.2316  -13.0058   20.1721 O   0  0  0  0  0  0  0  0  0  0  0  0
    6.5404  -13.6341   18.4929 N   0  0  0  0  0  0  0  0  0  0  0  0
    6.9953  -12.9303   19.6390 C   0  0  0  0  0  0  0  0  0  0  0  0
    6.5494  -11.7265   19.8157 N   0  0  0  0  0  0  0  0  0  0  0  0
    7.9016  -13.4921   20.5772 N   0  0  0  0  0  0  0  0  0  0  0  0
    8.4474  -14.8234   20.3948 C   0  0  0  0  0  0  0  0  0  0  0  0
    9.3997  -15.1936   21.5087 C   0  0  0  0  0  0  0  0  0  0  0  0
   10.7715  -15.3426   20.9248 C   0  0  0  0  0  0  0  0  0  0  0  0
   11.8681  -15.3226   21.9671 C   0  0  2  0  0  0  0  0  0  0  0  0
   13.1335  -15.5105   21.2982 N   0  0  0  0  0  0  0  0  0  0  0  0
   11.6517  -16.3299   23.0389 C   0  0  0  0  0  0  0  0  0  0  0  0
   12.2199  -17.4636   23.0413 O   0  0  0  0  0  0  0  0  0  0  0  0
   10.8046  -16.0813   24.1098 O   0  0  0  0  0  0  0  0  0  0  0  0
  2  1  1  0
  2  3  2  0
  4  5  1  0
  4  2  1  0
  6  7  1  1
  6  5  1  0
  8  6  1  0
  9  8  2  0
 10  8  1  0
 11 10  1  0
 11 12  1  6
 13 12  1  0
 14 15  2  0
 14 13  1  0
 16 11  1  0
 16 17  2  0
 18 14  1  0
 20 19  1  0
 21 20  2  0
 22 20  1  0
 23 22  1  0
 24 25  1  0
 24 23  1  0
 26 25  1  6
 26 27  1  0
 27 16  1  0
 28 26  1  0
 29 28  2  0
 30 28  1  0
M  END
$$$$
