QER.pdb
     RDKit          3D

 30 29  0  0  1  0  0  0  0  0999 V2000
    8.1643  -19.3998   29.8002 N   0  0  0  0  0  0  0  0  0  0  0  0
    9.3883  -19.3588   29.1006 C   0  0  0  0  0  0  0  0  0  0  0  0
   10.4085  -19.8347   29.6837 O   0  0  0  0  0  0  0  0  0  0  0  0
    9.4755  -18.7693   27.7101 C   0  0  0  0  0  0  0  0  0  0  0  0
    8.0948  -18.3664   27.3332 C   0  0  0  0  0  0  0  0  0  0  0  0
    7.6795  -18.6252   25.9269 C   0  0  2  0  0  0  0  0  0  0  0  0
    7.9042  -20.0713   25.7049 N   0  0  0  0  0  0  0  0  0  0  0  0
    8.3784  -17.8915   24.8845 C   0  0  0  0  0  0  0  0  0  0  0  0
    8.1154  -16.6515   24.6851 O   0  0  0  0  0  0  0  0  0  0  0  0
    9.3754  -18.3988   24.0068 N   0  0  0  0  0  0  0  0  0  0  0  0
   10.0627  -17.5809   23.0329 C   0  0  1  0  0  0  0  0  0  0  0  0
   11.4821  -18.0568   22.8765 C   0  0  0  0  0  0  0  0  0  0  0  0
   12.2393  -17.1098   21.9948 C   0  0  0  0  0  0  0  0  0  0  0  0
   13.6656  -17.4325   21.8349 C   0  0  0  0  0  0  0  0  0  0  0  0
   14.1516  -18.5011   22.2500 O   0  0  0  0  0  0  0  0  0  0  0  0
    9.3497  -17.6159   21.7028 C   0  0  0  0  0  0  0  0  0  0  0  0
    8.6534  -18.6249   21.4556 O   0  0  0  0  0  0  0  0  0  0  0  0
   14.5239  -16.5294   21.2009 O   0  0  0  0  0  0  0  0  0  0  0  0
    8.4673  -12.9346   22.7216 N   0  0  0  0  0  0  0  0  0  0  0  0
    7.6035  -11.9649   22.1478 C   0  0  0  0  0  0  0  0  0  0  0  0
    7.0021  -11.1494   22.9556 N   0  0  0  0  0  0  0  0  0  0  0  0
    7.3841  -11.8620   20.7483 N   0  0  0  0  0  0  0  0  0  0  0  0
    8.0534  -12.7455   19.8129 C   0  0  0  0  0  0  0  0  0  0  0  0
    7.8122  -14.1995   20.1484 C   0  0  0  0  0  0  0  0  0  0  0  0
    8.5485  -15.0408   19.1510 C   0  0  0  0  0  0  0  0  0  0  0  0
    8.6387  -16.4972   19.5511 C   0  0  2  0  0  0  0  0  0  0  0  0
    9.4322  -16.5893   20.7536 N   0  0  0  0  0  0  0  0  0  0  0  0
    9.1795  -17.3531   18.4623 C   0  0  0  0  0  0  0  0  0  0  0  0
    8.5829  -17.5152   17.3551 O   0  0  0  0  0  0  0  0  0  0  0  0
   10.3828  -18.0307   18.6001 O   0  0  0  0  0  0  0  0  0  0  0  0
  2  1  1  0
  2  3  2  0
  4  5  1  0
  4  2  1  0
  6  7  1  6
  6  5  1  0
  8  6  1  0
  9  8  2  0
 10  8  1  0
 11 10  1  0
 11 12  1  6
 13 12  1  0
 14 15  2  0
 14 13  1  0
 16 11  1  0
 16 17  2  0
 18 14  1  0
 20 19  1  0
 21 20  2  0
 22 20  1  0
 23 22  1  0
 24 25  1  0
 24 23  1  0
 26 25  1  6
 26 27  1  0
 27 16  1  0
 28 26  1  0
 29 28  2  0
 30 28  1  0
M  END
$$$$
