QER.pdb
     RDKit          3D

 30 29  0  0  1  0  0  0  0  0999 V2000
   15.5714  -13.9949   19.5013 N   0  0  0  0  0  0  0  0  0  0  0  0
   15.2565  -14.5823   18.2582 C   0  0  0  0  0  0  0  0  0  0  0  0
   16.0924  -15.4030   17.7737 O   0  0  0  0  0  0  0  0  0  0  0  0
   13.9712  -14.2435   17.5359 C   0  0  0  0  0  0  0  0  0  0  0  0
   12.8600  -14.7114   18.4058 C   0  0  0  0  0  0  0  0  0  0  0  0
   12.4815  -16.1475   18.2986 C   0  0  2  0  0  0  0  0  0  0  0  0
   11.5508  -16.2295   17.1506 N   0  0  0  0  0  0  0  0  0  0  0  0
   11.8340  -16.7494   19.4526 C   0  0  0  0  0  0  0  0  0  0  0  0
   10.5581  -16.6917   19.5760 O   0  0  0  0  0  0  0  0  0  0  0  0
   12.4680  -17.4358   20.5243 N   0  0  0  0  0  0  0  0  0  0  0  0
   11.7396  -18.0491   21.6122 C   0  0  1  0  0  0  0  0  0  0  0  0
   12.5930  -19.1001   22.2700 C   0  0  0  0  0  0  0  0  0  0  0  0
   13.9220  -18.5138   22.6407 C   0  0  0  0  0  0  0  0  0  0  0  0
   14.9440  -19.5044   23.0130 C   0  0  0  0  0  0  0  0  0  0  0  0
   14.9229  -20.0951   24.1089 O   0  0  0  0  0  0  0  0  0  0  0  0
   11.3124  -17.0135   22.6240 C   0  0  0  0  0  0  0  0  0  0  0  0
   12.2070  -16.2850   23.1067 O   0  0  0  0  0  0  0  0  0  0  0  0
   15.9815  -19.8106   22.1276 O   0  0  0  0  0  0  0  0  0  0  0  0
    8.0904  -14.3006   19.1814 N   0  0  0  0  0  0  0  0  0  0  0  0
    8.2276  -12.9669   19.6484 C   0  0  0  0  0  0  0  0  0  0  0  0
    8.7956  -12.1130   18.8562 N   0  0  0  0  0  0  0  0  0  0  0  0
    7.7706  -12.5484   20.9265 N   0  0  0  0  0  0  0  0  0  0  0  0
    7.4874  -13.5070   21.9773 C   0  0  0  0  0  0  0  0  0  0  0  0
    8.7368  -14.2314   22.4234 C   0  0  0  0  0  0  0  0  0  0  0  0
    8.3739  -15.1403   23.5579 C   0  0  0  0  0  0  0  0  0  0  0  0
    9.5477  -15.9397   24.0799 C   0  0  2  0  0  0  0  0  0  0  0  0
    9.9858  -16.8366   23.0369 N   0  0  0  0  0  0  0  0  0  0  0  0
    9.2269  -16.6650   25.3374 C   0  0  0  0  0  0  0  0  0  0  0  0
    8.8735  -16.0725   26.4014 O   0  0  0  0  0  0  0  0  0  0  0  0
    9.2978  -18.0488   25.4167 O   0  0  0  0  0  0  0  0  0  0  0  0
  2  1  1  0
  2  3  2  0
  4  5  1  0
  4  2  1  0
  6  7  1  6
  6  5  1  0
  8  6  1  0
  9  8  2  0
 10  8  1  0
 11 10  1  0
 11 12  1  1
 13 12  1  0
 14 15  2  0
 14 13  1  0
 16 11  1  0
 16 17  2  0
 18 14  1  0
 20 19  1  0
 21 20  2  0
 22 20  1  0
 23 22  1  0
 24 25  1  0
 24 23  1  0
 26 25  1  6
 26 27  1  0
 27 16  1  0
 28 26  1  0
 29 28  2  0
 30 28  1  0
M  END
$$$$
