QER.pdb
     RDKit          3D

 30 29  0  0  1  0  0  0  0  0999 V2000
    9.1904  -16.2816   16.5434 N   0  0  0  0  0  0  0  0  0  0  0  0
    8.5697  -15.0423   16.2817 C   0  0  0  0  0  0  0  0  0  0  0  0
    8.1550  -14.8366   15.1015 O   0  0  0  0  0  0  0  0  0  0  0  0
    8.4075  -14.0033   17.3692 C   0  0  0  0  0  0  0  0  0  0  0  0
    8.9222  -14.6169   18.6219 C   0  0  0  0  0  0  0  0  0  0  0  0
    8.1607  -14.3356   19.8702 C   0  0  2  0  0  0  0  0  0  0  0  0
    7.7034  -12.9329   19.7502 N   0  0  0  0  0  0  0  0  0  0  0  0
    8.8764  -14.4743   21.1278 C   0  0  0  0  0  0  0  0  0  0  0  0
    9.9339  -13.7809   21.3450 O   0  0  0  0  0  0  0  0  0  0  0  0
    8.5357  -15.3274   22.2131 N   0  0  0  0  0  0  0  0  0  0  0  0
    9.4185  -15.5776   23.3303 C   0  0  1  0  0  0  0  0  0  0  0  0
    8.6730  -16.3035   24.4179 C   0  0  0  0  0  0  0  0  0  0  0  0
    9.5987  -16.5894   25.5620 C   0  0  0  0  0  0  0  0  0  0  0  0
    9.0038  -17.3901   26.6434 C   0  0  0  0  0  0  0  0  0  0  0  0
    9.2528  -17.1683   27.8431 O   0  0  0  0  0  0  0  0  0  0  0  0
   10.6212  -16.3795   22.8955 C   0  0  0  0  0  0  0  0  0  0  0  0
   10.4030  -17.4501   22.2871 O   0  0  0  0  0  0  0  0  0  0  0  0
    8.1289  -18.4380   26.3425 O   0  0  0  0  0  0  0  0  0  0  0  0
   16.3800  -14.9848   18.0989 N   0  0  0  0  0  0  0  0  0  0  0  0
   15.1817  -14.2318   18.2124 C   0  0  0  0  0  0  0  0  0  0  0  0
   14.3913  -14.2101   17.1857 N   0  0  0  0  0  0  0  0  0  0  0  0
   14.8294  -13.5194   19.3896 N   0  0  0  0  0  0  0  0  0  0  0  0
   14.9902  -14.1092   20.7047 C   0  0  0  0  0  0  0  0  0  0  0  0
   14.0186  -15.2450   20.9296 C   0  0  0  0  0  0  0  0  0  0  0  0
   14.1878  -15.7376   22.3345 C   0  0  0  0  0  0  0  0  0  0  0  0
   13.1205  -16.7254   22.7521 C   0  0  2  0  0  0  0  0  0  0  0  0
   11.9430  -15.9851   23.1386 N   0  0  0  0  0  0  0  0  0  0  0  0
   13.5818  -17.6377   23.8316 C   0  0  0  0  0  0  0  0  0  0  0  0
   14.4056  -18.5804   23.6293 O   0  0  0  0  0  0  0  0  0  0  0  0
   13.1300  -17.5058   25.1372 O   0  0  0  0  0  0  0  0  0  0  0  0
  2  1  1  0
  2  3  2  0
  4  5  1  0
  4  2  1  0
  6  7  1  6
  6  5  1  0
  8  6  1  0
  9  8  2  0
 10  8  1  0
 11 10  1  0
 11 12  1  1
 13 12  1  0
 14 15  2  0
 14 13  1  0
 16 11  1  0
 16 17  2  0
 18 14  1  0
 20 19  1  0
 21 20  2  0
 22 20  1  0
 23 22  1  0
 24 25  1  0
 24 23  1  0
 26 25  1  1
 26 27  1  0
 27 16  1  0
 28 26  1  0
 29 28  2  0
 30 28  1  0
M  END
$$$$
