SCV.pdb
     RDKit          3D

 20 19  0  0  1  0  0  0  0  0999 V2000
   18.7210  -12.0363  -15.2848 O   0  0  0  0  0  0  0  0  0  0  0  0
   17.6813  -11.7324  -14.4443 C   0  0  0  0  0  0  0  0  0  0  0  0
   16.6233  -10.8610  -15.0667 C   0  0  2  0  0  0  0  0  0  0  0  0
   16.0417  -11.4609  -16.2300 N   0  0  0  0  0  0  0  0  0  0  0  0
   17.0530   -9.4904  -15.3304 C   0  0  0  0  0  0  0  0  0  0  0  0
   17.3606   -9.1809  -16.5123 O   0  0  0  0  0  0  0  0  0  0  0  0
   17.1526   -8.4726  -14.3561 N   0  0  0  0  0  0  0  0  0  0  0  0
   17.5391   -7.1358  -14.7387 C   0  0  1  0  0  0  0  0  0  0  0  0
   16.3332   -6.2599  -14.4063 C   0  0  0  0  0  0  0  0  0  0  0  0
   16.7396   -4.5022  -14.4029 S   0  0  0  0  0  0  0  0  0  0  0  0
   18.7326   -6.7648  -13.9537 C   0  0  0  0  0  0  0  0  0  0  0  0
   18.7658   -7.0007  -12.6960 O   0  0  0  0  0  0  0  0  0  0  0  0
   22.0528   -8.0950  -14.2294 C   0  0  0  0  0  0  0  0  0  0  0  0
   22.2832   -6.5990  -14.2448 C   0  0  1  0  0  0  0  0  0  0  0  0
   22.5715   -6.1794  -15.6522 C   0  0  0  0  0  0  0  0  0  0  0  0
   21.0539   -5.9427  -13.6752 C   0  0  2  0  0  0  0  0  0  0  0  0
   19.8820   -6.1526  -14.4815 N   0  0  0  0  0  0  0  0  0  0  0  0
   21.3025   -4.4789  -13.6149 C   0  0  0  0  0  0  0  0  0  0  0  0
   20.6472   -3.6655  -14.3308 O   0  0  0  0  0  0  0  0  0  0  0  0
   22.2690   -3.9473  -12.7651 O   0  0  0  0  0  0  0  0  0  0  0  0
  2  1  1  0
  3  2  1  0
  3  5  1  0
  3  4  1  6
  5  6  2  0
  7  8  1  0
  7  5  1  0
  9 10  1  0
  8  9  1  1
 11  8  1  0
 11 12  2  0
 14 13  1  6
 14 16  1  0
 15 14  1  0
 16 17  1  6
 16 18  1  0
 17 11  1  0
 18 19  2  0
 18 20  1  0
M  END
$$$$
