SCV.pdb
     RDKit          3D

 20 19  0  0  1  0  0  0  0  0999 V2000
   24.0061  -21.4908   -7.5411 O   0  0  0  0  0  0  0  0  0  0  0  0
   24.0998  -20.9963   -8.8164 C   0  0  0  0  0  0  0  0  0  0  0  0
   25.5117  -20.8643   -9.3215 C   0  0  2  0  0  0  0  0  0  0  0  0
   26.2776  -19.9295   -8.5527 N   0  0  0  0  0  0  0  0  0  0  0  0
   25.6144  -20.5904  -10.7523 C   0  0  0  0  0  0  0  0  0  0  0  0
   25.7135  -19.3900  -11.1221 O   0  0  0  0  0  0  0  0  0  0  0  0
   25.6114  -21.5739  -11.7661 N   0  0  0  0  0  0  0  0  0  0  0  0
   25.5344  -21.1864  -13.1542 C   0  0  1  0  0  0  0  0  0  0  0  0
   26.5120  -22.1069  -13.8815 C   0  0  0  0  0  0  0  0  0  0  0  0
   26.4302  -21.9188  -15.6739 S   0  0  0  0  0  0  0  0  0  0  0  0
   24.1425  -21.3814  -13.6047 C   0  0  0  0  0  0  0  0  0  0  0  0
   23.4698  -22.3833  -13.1775 O   0  0  0  0  0  0  0  0  0  0  0  0
   21.8618  -18.4652  -15.5633 C   0  0  0  0  0  0  0  0  0  0  0  0
   21.2181  -19.5738  -14.7584 C   0  0  1  0  0  0  0  0  0  0  0  0
   19.8356  -19.7994  -15.2853 C   0  0  0  0  0  0  0  0  0  0  0  0
   22.0975  -20.7902  -14.8736 C   0  0  2  0  0  0  0  0  0  0  0  0
   23.4607  -20.5342  -14.4943 N   0  0  0  0  0  0  0  0  0  0  0  0
   22.0993  -21.2211  -16.2958 C   0  0  0  0  0  0  0  0  0  0  0  0
   23.0919  -21.0056  -17.0521 O   0  0  0  0  0  0  0  0  0  0  0  0
   21.0049  -21.8799  -16.8497 O   0  0  0  0  0  0  0  0  0  0  0  0
  2  1  1  0
  3  2  1  0
  3  5  1  0
  3  4  1  1
  5  6  2  0
  7  8  1  0
  7  5  1  0
  9 10  1  0
  8  9  1  6
 11  8  1  0
 11 12  2  0
 14 13  1  6
 14 16  1  0
 15 14  1  0
 16 17  1  6
 16 18  1  0
 17 11  1  0
 18 19  2  0
 18 20  1  0
M  END
$$$$
