SCV.pdb
     RDKit          3D

 20 19  0  0  1  0  0  0  0  0999 V2000
   18.1255   -9.2160  -20.9250 O   0  0  0  0  0  0  0  0  0  0  0  0
   18.2155   -9.2402  -19.5571 C   0  0  0  0  0  0  0  0  0  0  0  0
   19.1549  -10.2876  -19.0220 C   0  0  2  0  0  0  0  0  0  0  0  0
   18.5981  -11.6051  -19.0975 N   0  0  0  0  0  0  0  0  0  0  0  0
   19.6742  -10.0027  -17.6871 C   0  0  0  0  0  0  0  0  0  0  0  0
   19.0601  -10.4801  -16.6960 O   0  0  0  0  0  0  0  0  0  0  0  0
   20.8224   -9.2264  -17.4149 N   0  0  0  0  0  0  0  0  0  0  0  0
   21.2310   -8.9867  -16.0516 C   0  0  1  0  0  0  0  0  0  0  0  0
   22.4593   -9.8692  -15.8409 C   0  0  0  0  0  0  0  0  0  0  0  0
   23.3751   -9.4288  -14.3502 S   0  0  0  0  0  0  0  0  0  0  0  0
   21.5446   -7.5508  -15.9163 C   0  0  0  0  0  0  0  0  0  0  0  0
   22.2715   -6.9724  -16.7971 O   0  0  0  0  0  0  0  0  0  0  0  0
   19.8263   -4.5945  -16.4112 C   0  0  0  0  0  0  0  0  0  0  0  0
   20.3278   -4.4020  -14.9960 C   0  0  1  0  0  0  0  0  0  0  0  0
   19.1928   -4.6543  -14.0536 C   0  0  0  0  0  0  0  0  0  0  0  0
   21.4839   -5.3440  -14.7903 C   0  0  2  0  0  0  0  0  0  0  0  0
   21.1002   -6.7275  -14.8680 N   0  0  0  0  0  0  0  0  0  0  0  0
   22.0330   -5.1048  -13.4303 C   0  0  0  0  0  0  0  0  0  0  0  0
   21.9367   -5.9742  -12.5145 O   0  0  0  0  0  0  0  0  0  0  0  0
   22.6759   -3.9111  -13.1132 O   0  0  0  0  0  0  0  0  0  0  0  0
  2  1  1  0
  3  2  1  0
  3  5  1  0
  3  4  1  1
  5  6  2  0
  7  8  1  0
  7  5  1  0
  9 10  1  0
  8  9  1  6
 11  8  1  0
 11 12  2  0
 14 13  1  6
 14 16  1  0
 15 14  1  0
 16 17  1  1
 16 18  1  0
 17 11  1  0
 18 19  2  0
 18 20  1  0
M  END
$$$$
