SCV.pdb
     RDKit          3D

 20 19  0  0  1  0  0  0  0  0999 V2000
   16.5726   -9.5659  -19.3887 O   0  0  0  0  0  0  0  0  0  0  0  0
   16.9598   -9.3742  -18.0876 C   0  0  0  0  0  0  0  0  0  0  0  0
   18.0687  -10.2866  -17.6362 C   0  0  2  0  0  0  0  0  0  0  0  0
   17.6324  -11.6439  -17.4989 N   0  0  0  0  0  0  0  0  0  0  0  0
   18.7745   -9.8289  -16.4423 C   0  0  0  0  0  0  0  0  0  0  0  0
   18.2355  -10.0266  -15.3208 O   0  0  0  0  0  0  0  0  0  0  0  0
   20.0265   -9.1751  -16.4439 N   0  0  0  0  0  0  0  0  0  0  0  0
   20.6104   -8.7203  -15.2049 C   0  0  1  0  0  0  0  0  0  0  0  0
   21.7527   -9.6929  -14.9200 C   0  0  0  0  0  0  0  0  0  0  0  0
   22.8596   -9.0942  -13.6274 S   0  0  0  0  0  0  0  0  0  0  0  0
   21.0897   -7.3392  -15.4077 C   0  0  0  0  0  0  0  0  0  0  0  0
   21.7481   -7.0428  -16.4647 O   0  0  0  0  0  0  0  0  0  0  0  0
   19.6663   -4.2022  -16.1958 C   0  0  0  0  0  0  0  0  0  0  0  0
   20.4258   -3.9012  -14.9215 C   0  0  1  0  0  0  0  0  0  0  0  0
   19.4464   -3.8339  -13.7918 C   0  0  0  0  0  0  0  0  0  0  0  0
   21.4590   -4.9810  -14.7410 C   0  0  2  0  0  0  0  0  0  0  0  0
   20.8807   -6.2773  -14.5116 N   0  0  0  0  0  0  0  0  0  0  0  0
   22.2783   -4.6365  -13.5500 C   0  0  0  0  0  0  0  0  0  0  0  0
   22.2557   -5.3472  -12.5021 O   0  0  0  0  0  0  0  0  0  0  0  0
   23.1037   -3.5152  -13.5440 O   0  0  0  0  0  0  0  0  0  0  0  0
  2  1  1  0
  3  2  1  0
  3  5  1  0
  3  4  1  1
  5  6  2  0
  7  8  1  0
  7  5  1  0
  9 10  1  0
  8  9  1  6
 11  8  1  0
 11 12  2  0
 14 13  1  6
 14 16  1  0
 15 14  1  0
 16 17  1  1
 16 18  1  0
 17 11  1  0
 18 19  2  0
 18 20  1  0
M  END
$$$$
