SCV.pdb
     RDKit          3D

 20 19  0  0  1  0  0  0  0  0999 V2000
   19.2614  -15.0404  -15.2260 O   0  0  0  0  0  0  0  0  0  0  0  0
   19.2784  -13.8449  -15.8969 C   0  0  0  0  0  0  0  0  0  0  0  0
   17.9362  -13.1685  -15.9802 C   0  0  2  0  0  0  0  0  0  0  0  0
   17.0553  -13.8227  -16.9007 N   0  0  0  0  0  0  0  0  0  0  0  0
   18.0027  -11.7317  -16.2335 C   0  0  0  0  0  0  0  0  0  0  0  0
   18.1716  -11.3446  -17.4205 O   0  0  0  0  0  0  0  0  0  0  0  0
   17.8915  -10.7302  -15.2437 N   0  0  0  0  0  0  0  0  0  0  0  0
   17.9025   -9.3359  -15.6163 C   0  0  1  0  0  0  0  0  0  0  0  0
   16.6192   -8.7542  -15.0277 C   0  0  0  0  0  0  0  0  0  0  0  0
   16.7144   -6.9669  -14.8017 S   0  0  0  0  0  0  0  0  0  0  0  0
   19.1123   -8.7197  -15.0376 C   0  0  0  0  0  0  0  0  0  0  0  0
   19.5018   -9.0598  -13.8665 O   0  0  0  0  0  0  0  0  0  0  0  0
   21.8458   -6.3428  -17.2059 C   0  0  0  0  0  0  0  0  0  0  0  0
   22.2695   -7.1832  -16.0204 C   0  0  1  0  0  0  0  0  0  0  0  0
   23.4889   -6.5635  -15.4130 C   0  0  0  0  0  0  0  0  0  0  0  0
   21.1055   -7.2472  -15.0679 C   0  0  2  0  0  0  0  0  0  0  0  0
   19.9080   -7.7561  -15.6799 N   0  0  0  0  0  0  0  0  0  0  0  0
   20.8200   -5.8659  -14.6001 C   0  0  0  0  0  0  0  0  0  0  0  0
   19.8211   -5.2150  -15.0270 O   0  0  0  0  0  0  0  0  0  0  0  0
   21.6442   -5.2356  -13.6716 O   0  0  0  0  0  0  0  0  0  0  0  0
  2  1  1  0
  3  2  1  0
  3  5  1  0
  3  4  1  6
  5  6  2  0
  7  8  1  0
  7  5  1  0
  9 10  1  0
  8  9  1  1
 11  8  1  0
 11 12  2  0
 14 13  1  6
 14 16  1  0
 15 14  1  0
 16 17  1  6
 16 18  1  0
 17 11  1  0
 18 19  2  0
 18 20  1  0
M  END
$$$$
