SCV.pdb
     RDKit          3D

 20 19  0  0  1  0  0  0  0  0999 V2000
   19.2723  -21.4879  -14.5025 O   0  0  0  0  0  0  0  0  0  0  0  0
   20.3053  -20.6400  -14.1961 C   0  0  0  0  0  0  0  0  0  0  0  0
   21.1822  -21.1220  -13.0716 C   0  0  2  0  0  0  0  0  0  0  0  0
   20.5373  -21.0161  -11.7971 N   0  0  0  0  0  0  0  0  0  0  0  0
   22.5132  -20.5213  -13.0484 C   0  0  0  0  0  0  0  0  0  0  0  0
   22.6508  -19.4029  -12.4850 O   0  0  0  0  0  0  0  0  0  0  0  0
   23.6714  -21.0999  -13.6132 N   0  0  0  0  0  0  0  0  0  0  0  0
   24.9531  -20.4533  -13.4645 C   0  0  1  0  0  0  0  0  0  0  0  0
   25.9425  -21.5841  -13.1918 C   0  0  0  0  0  0  0  0  0  0  0  0
   26.7636  -21.4095  -11.5949 S   0  0  0  0  0  0  0  0  0  0  0  0
   25.2518  -19.7403  -14.7217 C   0  0  0  0  0  0  0  0  0  0  0  0
   24.7669  -20.1680  -15.8266 O   0  0  0  0  0  0  0  0  0  0  0  0
   25.1199  -15.8239  -15.4248 C   0  0  0  0  0  0  0  0  0  0  0  0
   26.4264  -16.4193  -15.9042 C   0  0  1  0  0  0  0  0  0  0  0  0
   27.4913  -16.0885  -14.9060 C   0  0  0  0  0  0  0  0  0  0  0  0
   26.2175  -17.9006  -16.0725 C   0  0  2  0  0  0  0  0  0  0  0  0
   26.0509  -18.5889  -14.8211 N   0  0  0  0  0  0  0  0  0  0  0  0
   27.4229  -18.4606  -16.7372 C   0  0  0  0  0  0  0  0  0  0  0  0
   27.6169  -18.3246  -17.9812 O   0  0  0  0  0  0  0  0  0  0  0  0
   28.3861  -19.1576  -16.0126 O   0  0  0  0  0  0  0  0  0  0  0  0
  2  1  1  0
  3  2  1  0
  3  5  1  0
  3  4  1  1
  5  6  2  0
  7  8  1  0
  7  5  1  0
  9 10  1  0
  8  9  1  6
 11  8  1  0
 11 12  2  0
 14 13  1  1
 14 16  1  0
 15 14  1  0
 16 17  1  1
 16 18  1  0
 17 11  1  0
 18 19  2  0
 18 20  1  0
M  END
$$$$
