SCV.pdb
     RDKit          3D

 20 19  0  0  1  0  0  0  0  0999 V2000
   24.4296  -20.8760   -8.8551 O   0  0  0  0  0  0  0  0  0  0  0  0
   24.6898  -20.2966  -10.0701 C   0  0  0  0  0  0  0  0  0  0  0  0
   25.1964  -21.2572  -11.1126 C   0  0  2  0  0  0  0  0  0  0  0  0
   26.5535  -21.6489  -10.8754 N   0  0  0  0  0  0  0  0  0  0  0  0
   25.0027  -20.8073  -12.4884 C   0  0  0  0  0  0  0  0  0  0  0  0
   25.9994  -20.3530  -13.1110 O   0  0  0  0  0  0  0  0  0  0  0  0
   23.7743  -20.8408  -13.1847 N   0  0  0  0  0  0  0  0  0  0  0  0
   23.7245  -20.5029  -14.5870 C   0  0  1  0  0  0  0  0  0  0  0  0
   22.3919  -21.0577  -15.0852 C   0  0  0  0  0  0  0  0  0  0  0  0
   22.0208  -20.5431  -16.7741 S   0  0  0  0  0  0  0  0  0  0  0  0
   23.7968  -19.0334  -14.7038 C   0  0  0  0  0  0  0  0  0  0  0  0
   23.1887  -18.2964  -13.8519 O   0  0  0  0  0  0  0  0  0  0  0  0
   26.4530  -16.4279  -14.5470 C   0  0  0  0  0  0  0  0  0  0  0  0
   25.7831  -16.2581  -15.8937 C   0  0  1  0  0  0  0  0  0  0  0  0
   26.6638  -16.8659  -16.9400 C   0  0  0  0  0  0  0  0  0  0  0  0
   24.4283  -16.9096  -15.8140 C   0  0  2  0  0  0  0  0  0  0  0  0
   24.5006  -18.3414  -15.7039 N   0  0  0  0  0  0  0  0  0  0  0  0
   23.6926  -16.5909  -17.0652 C   0  0  0  0  0  0  0  0  0  0  0  0
   23.3451  -15.4059  -17.3460 O   0  0  0  0  0  0  0  0  0  0  0  0
   23.3577  -17.5882  -17.9773 O   0  0  0  0  0  0  0  0  0  0  0  0
  2  1  1  0
  3  2  1  0
  3  5  1  0
  3  4  1  1
  5  6  2  0
  7  8  1  0
  7  5  1  0
  9 10  1  0
  8  9  1  1
 11  8  1  0
 11 12  2  0
 14 13  1  1
 14 16  1  0
 15 14  1  0
 16 17  1  6
 16 18  1  0
 17 11  1  0
 18 19  2  0
 18 20  1  0
M  END
$$$$
