SCV.pdb
     RDKit          3D

 20 19  0  0  1  0  0  0  0  0999 V2000
   20.7815  -12.5979  -16.0806 O   0  0  0  0  0  0  0  0  0  0  0  0
   19.4414  -12.6353  -16.3675 C   0  0  0  0  0  0  0  0  0  0  0  0
   18.8977  -11.3495  -16.9304 C   0  0  2  0  0  0  0  0  0  0  0  0
   19.4951  -11.0124  -18.1878 N   0  0  0  0  0  0  0  0  0  0  0  0
   18.9367  -10.2234  -16.0014 C   0  0  0  0  0  0  0  0  0  0  0  0
   18.3322  -10.3386  -14.9020 O   0  0  0  0  0  0  0  0  0  0  0  0
   19.6050   -9.0019  -16.2388 N   0  0  0  0  0  0  0  0  0  0  0  0
   19.6810   -8.0015  -15.2014 C   0  0  1  0  0  0  0  0  0  0  0  0
   21.1712   -7.7163  -15.0288 C   0  0  0  0  0  0  0  0  0  0  0  0
   21.4785   -6.2047  -14.0931 S   0  0  0  0  0  0  0  0  0  0  0  0
   18.9340   -6.8137  -15.6589 C   0  0  0  0  0  0  0  0  0  0  0  0
   19.1785   -6.3130  -16.8115 O   0  0  0  0  0  0  0  0  0  0  0  0
   15.1538   -5.8489  -14.5568 C   0  0  0  0  0  0  0  0  0  0  0  0
   15.8225   -5.2683  -15.7845 C   0  0  1  0  0  0  0  0  0  0  0  0
   15.0779   -4.0350  -16.1900 C   0  0  0  0  0  0  0  0  0  0  0  0
   17.2616   -4.9985  -15.4348 C   0  0  2  0  0  0  0  0  0  0  0  0
   17.9388   -6.1561  -14.9163 N   0  0  0  0  0  0  0  0  0  0  0  0
   17.2883   -3.9516  -14.3805 C   0  0  0  0  0  0  0  0  0  0  0  0
   17.4701   -4.2431  -13.1616 O   0  0  0  0  0  0  0  0  0  0  0  0
   17.1136   -2.6069  -14.6968 O   0  0  0  0  0  0  0  0  0  0  0  0
  2  1  1  0
  3  2  1  0
  3  5  1  0
  3  4  1  6
  5  6  2  0
  7  8  1  0
  7  5  1  0
  9 10  1  0
  8  9  1  6
 11  8  1  0
 11 12  2  0
 14 13  1  1
 14 16  1  0
 15 14  1  0
 16 17  1  1
 16 18  1  0
 17 11  1  0
 18 19  2  0
 18 20  1  0
M  END
$$$$
