SCV.pdb
     RDKit          3D

 20 19  0  0  1  0  0  0  0  0999 V2000
   13.9534   -7.1634  -15.7753 O   0  0  0  0  0  0  0  0  0  0  0  0
   15.2207   -7.6813  -15.7020 C   0  0  0  0  0  0  0  0  0  0  0  0
   15.2856   -9.0644  -15.1114 C   0  0  2  0  0  0  0  0  0  0  0  0
   14.1967   -9.8895  -15.5416 N   0  0  0  0  0  0  0  0  0  0  0  0
   15.4344   -9.0906  -13.6588 C   0  0  0  0  0  0  0  0  0  0  0  0
   14.4066   -9.2955  -12.9596 O   0  0  0  0  0  0  0  0  0  0  0  0
   16.6515   -8.9025  -12.9671 N   0  0  0  0  0  0  0  0  0  0  0  0
   16.6679   -8.8556  -11.5248 C   0  0  1  0  0  0  0  0  0  0  0  0
   18.0939   -9.2314  -11.1284 C   0  0  0  0  0  0  0  0  0  0  0  0
   18.3352  -11.0171  -11.0390 S   0  0  0  0  0  0  0  0  0  0  0  0
   16.3156   -7.4837  -11.1100 C   0  0  0  0  0  0  0  0  0  0  0  0
   16.6555   -6.4903  -11.8423 O   0  0  0  0  0  0  0  0  0  0  0  0
   14.1915   -6.4799   -7.5563 C   0  0  0  0  0  0  0  0  0  0  0  0
   13.9482   -5.7223   -8.8440 C   0  0  1  0  0  0  0  0  0  0  0  0
   13.5624   -4.3176   -8.5007 C   0  0  0  0  0  0  0  0  0  0  0  0
   15.2075   -5.8027   -9.6649 C   0  0  2  0  0  0  0  0  0  0  0  0
   15.6126   -7.1550   -9.9386 N   0  0  0  0  0  0  0  0  0  0  0  0
   16.2992   -5.1532   -8.8937 C   0  0  0  0  0  0  0  0  0  0  0  0
   17.1822   -5.8340   -8.2934 O   0  0  0  0  0  0  0  0  0  0  0  0
   16.3904   -3.7667   -8.8035 O   0  0  0  0  0  0  0  0  0  0  0  0
  2  1  1  0
  3  2  1  0
  3  5  1  0
  3  4  1  1
  5  6  2  0
  7  8  1  0
  7  5  1  0
  9 10  1  0
  8  9  1  6
 11  8  1  0
 11 12  2  0
 14 13  1  1
 14 16  1  0
 15 14  1  0
 16 17  1  1
 16 18  1  0
 17 11  1  0
 18 19  2  0
 18 20  1  0
M  END
$$$$
