SCV.pdb
     RDKit          3D

 20 19  0  0  1  0  0  0  0  0999 V2000
   17.5170  -10.4444  -19.9797 O   0  0  0  0  0  0  0  0  0  0  0  0
   17.7236  -10.1412  -18.6587 C   0  0  0  0  0  0  0  0  0  0  0  0
   18.7909  -10.9718  -17.9977 C   0  0  2  0  0  0  0  0  0  0  0  0
   18.3783  -12.3293  -17.8018 N   0  0  0  0  0  0  0  0  0  0  0  0
   19.3265  -10.3934  -16.7683 C   0  0  0  0  0  0  0  0  0  0  0  0
   18.6004  -10.4084  -15.7388 O   0  0  0  0  0  0  0  0  0  0  0  0
   20.6073   -9.8120  -16.6393 N   0  0  0  0  0  0  0  0  0  0  0  0
   20.9999   -9.1868  -15.3992 C   0  0  1  0  0  0  0  0  0  0  0  0
   22.1518  -10.0376  -14.8691 C   0  0  0  0  0  0  0  0  0  0  0  0
   22.9450   -9.2997  -13.4265 S   0  0  0  0  0  0  0  0  0  0  0  0
   21.4187   -7.8037  -15.6994 C   0  0  0  0  0  0  0  0  0  0  0  0
   22.1189   -7.5632  -16.7437 O   0  0  0  0  0  0  0  0  0  0  0  0
   19.8912   -4.8841  -16.8949 C   0  0  0  0  0  0  0  0  0  0  0  0
   20.5235   -4.4016  -15.6071 C   0  0  1  0  0  0  0  0  0  0  0  0
   19.4544   -4.2988  -14.5648 C   0  0  0  0  0  0  0  0  0  0  0  0
   21.6110   -5.3759  -15.2404 C   0  0  2  0  0  0  0  0  0  0  0  0
   21.1063   -6.6819  -14.9131 N   0  0  0  0  0  0  0  0  0  0  0  0
   22.3114   -4.8501  -14.0399 C   0  0  0  0  0  0  0  0  0  0  0  0
   22.9555   -3.7602  -14.0729 O   0  0  0  0  0  0  0  0  0  0  0  0
   22.2843   -5.5400  -12.8308 O   0  0  0  0  0  0  0  0  0  0  0  0
  2  1  1  0
  3  2  1  0
  3  5  1  0
  3  4  1  1
  5  6  2  0
  7  8  1  0
  7  5  1  0
  9 10  1  0
  8  9  1  6
 11  8  1  0
 11 12  2  0
 14 13  1  6
 14 16  1  0
 15 14  1  0
 16 17  1  1
 16 18  1  0
 17 11  1  0
 18 19  2  0
 18 20  1  0
M  END
$$$$
