SCV.pdb
     RDKit          3D

 20 19  0  0  1  0  0  0  0  0999 V2000
   19.5828  -10.8370  -20.9688 O   0  0  0  0  0  0  0  0  0  0  0  0
   19.6267  -10.4765  -19.6468 C   0  0  0  0  0  0  0  0  0  0  0  0
   20.4319  -11.4094  -18.7823 C   0  0  2  0  0  0  0  0  0  0  0  0
   19.6862  -12.5691  -18.3946 N   0  0  0  0  0  0  0  0  0  0  0  0
   21.0603  -10.7684  -17.6303 C   0  0  0  0  0  0  0  0  0  0  0  0
   20.4285  -10.7538  -16.5404 O   0  0  0  0  0  0  0  0  0  0  0  0
   22.3334  -10.1567  -17.6400 N   0  0  0  0  0  0  0  0  0  0  0  0
   22.8410   -9.5164  -16.4503 C   0  0  1  0  0  0  0  0  0  0  0  0
   24.3561   -9.6959  -16.5147 C   0  0  0  0  0  0  0  0  0  0  0  0
   25.2197   -8.7005  -15.2825 S   0  0  0  0  0  0  0  0  0  0  0  0
   22.4442   -8.0954  -16.4937 C   0  0  0  0  0  0  0  0  0  0  0  0
   22.5696   -7.4326  -17.5817 O   0  0  0  0  0  0  0  0  0  0  0  0
   19.9516   -4.1952  -15.3435 C   0  0  0  0  0  0  0  0  0  0  0  0
   20.1295   -5.6970  -15.4069 C   0  0  1  0  0  0  0  0  0  0  0  0
   19.3442   -6.2177  -16.5696 C   0  0  0  0  0  0  0  0  0  0  0  0
   21.6044   -5.9767  -15.5204 C   0  0  2  0  0  0  0  0  0  0  0  0
   21.9199   -7.3750  -15.4073 N   0  0  0  0  0  0  0  0  0  0  0  0
   22.2916   -5.2689  -14.4091 C   0  0  0  0  0  0  0  0  0  0  0  0
   22.4643   -4.0145  -14.4288 O   0  0  0  0  0  0  0  0  0  0  0  0
   22.7721   -5.9628  -13.3016 O   0  0  0  0  0  0  0  0  0  0  0  0
  2  1  1  0
  3  2  1  0
  3  5  1  0
  3  4  1  1
  5  6  2  0
  7  8  1  0
  7  5  1  0
  9 10  1  0
  8  9  1  6
 11  8  1  0
 11 12  2  0
 14 13  1  6
 14 16  1  0
 15 14  1  0
 16 17  1  1
 16 18  1  0
 17 11  1  0
 18 19  2  0
 18 20  1  0
M  END
$$$$
