SCV.pdb
     RDKit          3D

 20 19  0  0  1  0  0  0  0  0999 V2000
   17.0341  -11.0280  -18.2313 O   0  0  0  0  0  0  0  0  0  0  0  0
   17.5250  -10.4215  -17.1039 C   0  0  0  0  0  0  0  0  0  0  0  0
   18.4530  -11.2880  -16.2952 C   0  0  2  0  0  0  0  0  0  0  0  0
   17.7731  -12.3943  -15.6907 N   0  0  0  0  0  0  0  0  0  0  0  0
   19.2584  -10.5582  -15.3198 C   0  0  0  0  0  0  0  0  0  0  0  0
   18.8410  -10.4946  -14.1327 O   0  0  0  0  0  0  0  0  0  0  0  0
   20.4813   -9.9106  -15.6033 N   0  0  0  0  0  0  0  0  0  0  0  0
   21.1696   -9.1734  -14.5711 C   0  0  1  0  0  0  0  0  0  0  0  0
   22.5235   -9.8636  -14.4214 C   0  0  0  0  0  0  0  0  0  0  0  0
   23.3005  -10.2063  -16.0131 S   0  0  0  0  0  0  0  0  0  0  0  0
   21.3022   -7.7744  -15.0223 C   0  0  0  0  0  0  0  0  0  0  0  0
   21.1456   -7.4874  -16.2600 O   0  0  0  0  0  0  0  0  0  0  0  0
   19.4986   -4.8406  -13.5863 C   0  0  0  0  0  0  0  0  0  0  0  0
   20.2351   -4.7753  -14.9072 C   0  0  1  0  0  0  0  0  0  0  0  0
   20.2513   -3.3520  -15.3697 C   0  0  0  0  0  0  0  0  0  0  0  0
   21.6139   -5.3386  -14.6884 C   0  0  2  0  0  0  0  0  0  0  0  0
   21.5956   -6.6852  -14.1846 N   0  0  0  0  0  0  0  0  0  0  0  0
   22.3007   -4.4901  -13.6802 C   0  0  0  0  0  0  0  0  0  0  0  0
   22.4225   -4.8600  -12.4752 O   0  0  0  0  0  0  0  0  0  0  0  0
   22.8373   -3.2527  -14.0262 O   0  0  0  0  0  0  0  0  0  0  0  0
  2  1  1  0
  3  2  1  0
  3  5  1  0
  3  4  1  1
  5  6  2  0
  7  8  1  0
  7  5  1  0
  9 10  1  0
  8  9  1  6
 11  8  1  0
 11 12  2  0
 14 13  1  1
 14 16  1  0
 15 14  1  0
 16 17  1  1
 16 18  1  0
 17 11  1  0
 18 19  2  0
 18 20  1  0
M  END
$$$$
