SCV.pdb
     RDKit          3D

 20 19  0  0  1  0  0  0  0  0999 V2000
   19.1286  -10.8996  -18.9030 O   0  0  0  0  0  0  0  0  0  0  0  0
   18.8363  -11.2860  -17.6204 C   0  0  0  0  0  0  0  0  0  0  0  0
   20.0006  -11.1934  -16.6708 C   0  0  2  0  0  0  0  0  0  0  0  0
   20.2108  -12.4130  -15.9498 N   0  0  0  0  0  0  0  0  0  0  0  0
   19.9526  -10.0431  -15.7724 C   0  0  0  0  0  0  0  0  0  0  0  0
   19.2229  -10.1188  -14.7481 O   0  0  0  0  0  0  0  0  0  0  0  0
   20.6665   -8.8390  -15.9616 N   0  0  0  0  0  0  0  0  0  0  0  0
   20.4770   -7.7319  -15.0554 C   0  0  1  0  0  0  0  0  0  0  0  0
   21.8704   -7.4102  -14.5197 C   0  0  0  0  0  0  0  0  0  0  0  0
   21.9258   -5.8293  -13.6521 S   0  0  0  0  0  0  0  0  0  0  0  0
   19.9001   -6.6101  -15.8216 C   0  0  0  0  0  0  0  0  0  0  0  0
   20.4434   -6.2448  -16.9217 O   0  0  0  0  0  0  0  0  0  0  0  0
   16.0106   -5.6243  -15.9743 C   0  0  0  0  0  0  0  0  0  0  0  0
   17.0162   -5.1057  -16.9798 C   0  0  1  0  0  0  0  0  0  0  0  0
   16.4234   -3.9191  -17.6728 C   0  0  0  0  0  0  0  0  0  0  0  0
   18.2813   -4.7790  -16.2320 C   0  0  2  0  0  0  0  0  0  0  0  0
   18.7635   -5.8777  -15.4396 N   0  0  0  0  0  0  0  0  0  0  0  0
   17.9895   -3.6519  -15.3086 C   0  0  0  0  0  0  0  0  0  0  0  0
   17.8873   -2.4613  -15.7277 O   0  0  0  0  0  0  0  0  0  0  0  0
   17.8171   -3.8659  -13.9436 O   0  0  0  0  0  0  0  0  0  0  0  0
  2  1  1  0
  3  2  1  0
  3  5  1  0
  3  4  1  1
  5  6  2  0
  7  8  1  0
  7  5  1  0
  9 10  1  0
  8  9  1  6
 11  8  1  0
 11 12  2  0
 14 13  1  1
 14 16  1  0
 15 14  1  0
 16 17  1  1
 16 18  1  0
 17 11  1  0
 18 19  2  0
 18 20  1  0
M  END
$$$$
