MEC.pdb
     RDKit          3D

 24 23  0  0  1  0  0  0  0  0999 V2000
   22.6104  -11.3848    7.4008 C   0  0  0  0  0  0  0  0  0  0  0  0
   21.5940  -10.4870    6.2292 S   0  0  0  0  0  0  0  0  0  0  0  0
   19.9296  -11.0787    6.0340 C   0  0  0  0  0  0  0  0  0  0  0  0
   19.5431  -12.2273    6.9074 C   0  0  0  0  0  0  0  0  0  0  0  0
   18.1326  -12.6275    6.6905 C   0  0  2  0  0  0  0  0  0  0  0  0
   17.2641  -11.6199    7.2347 N   0  0  0  0  0  0  0  0  0  0  0  0
   17.8238  -13.9379    7.3893 C   0  0  0  0  0  0  0  0  0  0  0  0
   17.5121  -13.9518    8.6124 O   0  0  0  0  0  0  0  0  0  0  0  0
   17.8883  -15.1322    6.6635 N   0  0  0  0  0  0  0  0  0  0  0  0
   17.7798  -16.4450    7.3156 C   0  0  1  0  0  0  0  0  0  0  0  0
   16.8745  -17.2807    6.4591 C   0  0  0  0  0  0  0  0  0  0  0  0
   16.6099  -18.6593    6.9293 C   0  0  0  0  0  0  0  0  0  0  0  0
   15.7605  -19.4257    5.9974 C   0  0  0  0  0  0  0  0  0  0  0  0
   15.8505  -20.7003    5.9322 O   0  0  0  0  0  0  0  0  0  0  0  0
   19.1442  -17.0368    7.4019 C   0  0  0  0  0  0  0  0  0  0  0  0
   19.8285  -17.1908    6.3606 O   0  0  0  0  0  0  0  0  0  0  0  0
   14.8556  -18.7980    5.1771 O   0  0  0  0  0  0  0  0  0  0  0  0
   19.7137  -17.4418    8.6383 N   0  0  0  0  0  0  0  0  0  0  0  0
   21.0373  -18.0480    8.7630 C   0  0  1  0  0  0  0  0  0  0  0  0
   21.8031  -17.2454    9.8017 C   0  0  0  0  0  0  0  0  0  0  0  0
   22.2429  -15.6181    9.1385 S   0  0  0  0  0  0  0  0  0  0  0  0
   20.9478  -19.4606    9.1742 C   0  0  0  0  0  0  0  0  0  0  0  0
   19.9484  -19.8990    9.7840 O   0  0  0  0  0  0  0  0  0  0  0  0
   21.9811  -20.3332    8.8883 O   0  0  0  0  0  0  0  0  0  0  0  0
  1  2  1  0
  2  3  1  0
  4  5  1  0
  4  3  1  0
  5  7  1  0
  5  6  1  1
  7  8  2  0
  9  7  1  0
  9 10  1  0
 10 15  1  0
 10 11  1  6
 12 13  1  0
 12 11  1  0
 13 14  2  0
 15 16  2  0
 17 13  1  0
 18 15  1  0
 18 19  1  0
 19 22  1  0
 20 21  1  0
 19 20  1  1
 22 24  1  0
 23 22  2  0
M  END
$$$$
