MEC.pdb
     RDKit          3D

 24 23  0  0  1  0  0  0  0  0999 V2000
   18.3398  -15.9279  -18.7789 C   0  0  0  0  0  0  0  0  0  0  0  0
   18.4713  -14.1435  -18.8820 S   0  0  0  0  0  0  0  0  0  0  0  0
   18.7544  -13.2970  -17.3453 C   0  0  0  0  0  0  0  0  0  0  0  0
   18.8986  -11.8132  -17.4394 C   0  0  0  0  0  0  0  0  0  0  0  0
   19.0253  -11.1910  -16.1001 C   0  0  2  0  0  0  0  0  0  0  0  0
   17.8130  -11.4080  -15.3591 N   0  0  0  0  0  0  0  0  0  0  0  0
   19.2430   -9.6941  -16.2123 C   0  0  0  0  0  0  0  0  0  0  0  0
   18.2583   -8.9112  -16.3164 O   0  0  0  0  0  0  0  0  0  0  0  0
   20.5478   -9.1896  -16.1995 N   0  0  0  0  0  0  0  0  0  0  0  0
   20.8257   -7.7499  -16.3018 C   0  0  1  0  0  0  0  0  0  0  0  0
   21.4281   -7.3308  -14.9930 C   0  0  0  0  0  0  0  0  0  0  0  0
   21.7648   -5.8962  -14.8517 C   0  0  0  0  0  0  0  0  0  0  0  0
   22.4078   -5.5865  -13.5602 C   0  0  0  0  0  0  0  0  0  0  0  0
   22.6866   -6.5201  -12.7311 O   0  0  0  0  0  0  0  0  0  0  0  0
   21.7758   -7.5376  -17.4294 C   0  0  0  0  0  0  0  0  0  0  0  0
   22.6080   -8.4298  -17.7254 O   0  0  0  0  0  0  0  0  0  0  0  0
   22.7225   -4.2961  -13.2117 O   0  0  0  0  0  0  0  0  0  0  0  0
   21.7787   -6.3436  -18.1984 N   0  0  0  0  0  0  0  0  0  0  0  0
   22.6931   -6.0963  -19.3110 C   0  0  1  0  0  0  0  0  0  0  0  0
   22.4676   -7.1994  -20.3316 C   0  0  0  0  0  0  0  0  0  0  0  0
   23.4503   -6.8873  -21.8210 S   0  0  0  0  0  0  0  0  0  0  0  0
   22.4535   -4.7775  -19.9240 C   0  0  0  0  0  0  0  0  0  0  0  0
   21.3306   -4.2304  -19.8733 O   0  0  0  0  0  0  0  0  0  0  0  0
   23.4801   -4.1173  -20.5729 O   0  0  0  0  0  0  0  0  0  0  0  0
  1  2  1  0
  2  3  1  0
  4  5  1  0
  4  3  1  0
  5  7  1  0
  5  6  1  1
  7  8  2  0
  9  7  1  0
  9 10  1  0
 10 15  1  0
 10 11  1  1
 12 13  1  0
 12 11  1  0
 13 14  2  0
 15 16  2  0
 17 13  1  0
 18 15  1  0
 18 19  1  0
 19 22  1  0
 20 21  1  0
 19 20  1  6
 22 24  1  0
 23 22  2  0
M  END
$$$$
