MEC.pdb
     RDKit          3D

 24 23  0  0  1  0  0  0  0  0999 V2000
   25.3978  -14.0903  -16.2150 C   0  0  0  0  0  0  0  0  0  0  0  0
   24.9956  -12.7720  -15.0695 S   0  0  0  0  0  0  0  0  0  0  0  0
   23.3221  -12.1770  -15.1290 C   0  0  0  0  0  0  0  0  0  0  0  0
   23.0202  -11.0021  -14.2572 C   0  0  0  0  0  0  0  0  0  0  0  0
   21.6376  -10.5099  -14.4641 C   0  0  2  0  0  0  0  0  0  0  0  0
   21.4779  -10.1041  -15.8336 N   0  0  0  0  0  0  0  0  0  0  0  0
   21.3487   -9.3088  -13.5839 C   0  0  0  0  0  0  0  0  0  0  0  0
   21.3840   -9.4147  -12.3266 O   0  0  0  0  0  0  0  0  0  0  0  0
   21.0422   -8.0811  -14.1808 N   0  0  0  0  0  0  0  0  0  0  0  0
   20.7055   -6.8922  -13.3847 C   0  0  1  0  0  0  0  0  0  0  0  0
   21.1257   -5.6981  -14.1904 C   0  0  0  0  0  0  0  0  0  0  0  0
   20.8339   -4.3709  -13.6029 C   0  0  0  0  0  0  0  0  0  0  0  0
   21.3392   -3.2584  -14.4301 C   0  0  0  0  0  0  0  0  0  0  0  0
   21.1478   -2.0441  -14.0757 O   0  0  0  0  0  0  0  0  0  0  0  0
   19.2355   -6.8941  -13.1430 C   0  0  0  0  0  0  0  0  0  0  0  0
   18.4575   -7.3611  -14.0106 O   0  0  0  0  0  0  0  0  0  0  0  0
   22.0239   -3.4917  -15.5974 O   0  0  0  0  0  0  0  0  0  0  0  0
   18.6672   -6.3792  -11.9477 N   0  0  0  0  0  0  0  0  0  0  0  0
   17.2308   -6.3389  -11.6830 C   0  0  1  0  0  0  0  0  0  0  0  0
   16.9797   -7.1737  -10.4383 C   0  0  0  0  0  0  0  0  0  0  0  0
   18.0314   -6.6043   -9.0777 S   0  0  0  0  0  0  0  0  0  0  0  0
   16.7584   -4.9583  -11.4751 C   0  0  0  0  0  0  0  0  0  0  0  0
   17.5461   -3.9883  -11.5121 O   0  0  0  0  0  0  0  0  0  0  0  0
   15.4200   -4.7121  -11.2328 O   0  0  0  0  0  0  0  0  0  0  0  0
  1  2  1  0
  2  3  1  0
  4  5  1  0
  4  3  1  0
  5  7  1  0
  5  6  1  6
  7  8  2  0
  9  7  1  0
  9 10  1  0
 10 15  1  0
 10 11  1  6
 12 13  1  0
 12 11  1  0
 13 14  2  0
 15 16  2  0
 17 13  1  0
 18 15  1  0
 18 19  1  0
 19 22  1  0
 20 21  1  0
 19 20  1  1
 22 24  1  0
 23 22  2  0
M  END
$$$$
