MEC.pdb
     RDKit          3D

 24 23  0  0  1  0  0  0  0  0999 V2000
   20.0279  -14.0978  -17.1677 C   0  0  0  0  0  0  0  0  0  0  0  0
   21.7007  -13.5806  -16.7855 S   0  0  0  0  0  0  0  0  0  0  0  0
   22.9981  -14.5639  -17.4983 C   0  0  0  0  0  0  0  0  0  0  0  0
   22.8128  -16.0437  -17.4109 C   0  0  0  0  0  0  0  0  0  0  0  0
   22.6691  -16.4936  -16.0060 C   0  0  2  0  0  0  0  0  0  0  0  0
   23.9598  -16.4954  -15.3736 N   0  0  0  0  0  0  0  0  0  0  0  0
   22.1139  -17.9036  -15.9389 C   0  0  0  0  0  0  0  0  0  0  0  0
   21.1213  -18.2338  -16.6454 O   0  0  0  0  0  0  0  0  0  0  0  0
   22.7137  -18.8352  -15.0847 N   0  0  0  0  0  0  0  0  0  0  0  0
   22.2136  -20.2119  -14.9618 C   0  0  1  0  0  0  0  0  0  0  0  0
   23.4118  -21.0914  -14.7562 C   0  0  0  0  0  0  0  0  0  0  0  0
   24.2949  -21.2868  -15.9282 C   0  0  0  0  0  0  0  0  0  0  0  0
   25.4450  -22.1634  -15.6348 C   0  0  0  0  0  0  0  0  0  0  0  0
   26.6415  -21.7570  -15.8352 O   0  0  0  0  0  0  0  0  0  0  0  0
   21.2907  -20.2700  -13.7939 C   0  0  0  0  0  0  0  0  0  0  0  0
   21.6867  -19.8980  -12.6620 O   0  0  0  0  0  0  0  0  0  0  0  0
   25.2667  -23.4330  -15.1429 O   0  0  0  0  0  0  0  0  0  0  0  0
   19.9550  -20.7381  -13.9108 N   0  0  0  0  0  0  0  0  0  0  0  0
   19.0002  -20.7540  -12.8048 C   0  0  1  0  0  0  0  0  0  0  0  0
   18.8536  -19.3222  -12.3171 C   0  0  0  0  0  0  0  0  0  0  0  0
   17.6224  -19.2334  -10.9914 S   0  0  0  0  0  0  0  0  0  0  0  0
   17.6921  -21.2851  -13.2281 C   0  0  0  0  0  0  0  0  0  0  0  0
   16.9689  -21.9361  -12.4433 O   0  0  0  0  0  0  0  0  0  0  0  0
   17.2395  -21.0688  -14.5162 O   0  0  0  0  0  0  0  0  0  0  0  0
  1  2  1  0
  2  3  1  0
  4  5  1  0
  4  3  1  0
  5  7  1  0
  5  6  1  6
  7  8  2  0
  9  7  1  0
  9 10  1  0
 10 15  1  0
 10 11  1  1
 12 13  1  0
 12 11  1  0
 13 14  2  0
 15 16  2  0
 17 13  1  0
 18 15  1  0
 18 19  1  0
 19 22  1  0
 20 21  1  0
 19 20  1  6
 22 24  1  0
 23 22  2  0
M  END
$$$$
