MEC.pdb
     RDKit          3D

 24 23  0  0  1  0  0  0  0  0999 V2000
   27.7033  -18.1496   -6.8963 C   0  0  0  0  0  0  0  0  0  0  0  0
   27.9854  -19.9061   -6.6798 S   0  0  0  0  0  0  0  0  0  0  0  0
   27.1737  -20.9713   -7.8481 C   0  0  0  0  0  0  0  0  0  0  0  0
   26.6257  -20.3006   -9.0652 C   0  0  0  0  0  0  0  0  0  0  0  0
   26.0030  -21.2754   -9.9919 C   0  0  2  0  0  0  0  0  0  0  0  0
   26.9707  -22.2763  -10.3490 N   0  0  0  0  0  0  0  0  0  0  0  0
   25.5401  -20.5969  -11.2671 C   0  0  0  0  0  0  0  0  0  0  0  0
   24.6769  -19.6768  -11.2243 O   0  0  0  0  0  0  0  0  0  0  0  0
   26.0800  -21.0020  -12.4925 N   0  0  0  0  0  0  0  0  0  0  0  0
   25.6590  -20.3987  -13.7650 C   0  0  1  0  0  0  0  0  0  0  0  0
   26.7961  -20.5792  -14.7273 C   0  0  0  0  0  0  0  0  0  0  0  0
   26.5633  -20.1217  -16.1159 C   0  0  0  0  0  0  0  0  0  0  0  0
   27.7512  -20.2846  -16.9759 C   0  0  0  0  0  0  0  0  0  0  0  0
   28.1529  -21.4501  -17.3178 O   0  0  0  0  0  0  0  0  0  0  0  0
   24.4341  -21.1057  -14.2333 C   0  0  0  0  0  0  0  0  0  0  0  0
   24.2748  -22.3237  -13.9741 O   0  0  0  0  0  0  0  0  0  0  0  0
   28.4568  -19.1977  -17.4303 O   0  0  0  0  0  0  0  0  0  0  0  0
   23.4194  -20.4450  -14.9755 N   0  0  0  0  0  0  0  0  0  0  0  0
   21.9955  -20.7494  -14.8537 C   0  0  1  0  0  0  0  0  0  0  0  0
   21.5832  -20.4083  -13.4314 C   0  0  0  0  0  0  0  0  0  0  0  0
   19.8018  -20.6579  -13.2172 S   0  0  0  0  0  0  0  0  0  0  0  0
   21.1932  -19.9744  -15.8172 C   0  0  0  0  0  0  0  0  0  0  0  0
   21.4726  -18.7869  -16.0904 O   0  0  0  0  0  0  0  0  0  0  0  0
   20.1056  -20.5564  -16.4411 O   0  0  0  0  0  0  0  0  0  0  0  0
  1  2  1  0
  2  3  1  0
  4  5  1  0
  4  3  1  0
  5  7  1  0
  5  6  1  6
  7  8  2  0
  9  7  1  0
  9 10  1  0
 10 15  1  0
 10 11  1  6
 12 13  1  0
 12 11  1  0
 13 14  2  0
 15 16  2  0
 17 13  1  0
 18 15  1  0
 18 19  1  0
 19 22  1  0
 20 21  1  0
 19 20  1  1
 22 24  1  0
 23 22  2  0
M  END
$$$$
