MEC.pdb
     RDKit          3D

 24 23  0  0  1  0  0  0  0  0999 V2000
   13.9960  -11.2946  -18.4114 C   0  0  0  0  0  0  0  0  0  0  0  0
   14.6898  -11.2624  -16.7593 S   0  0  0  0  0  0  0  0  0  0  0  0
   16.3706  -10.6985  -16.6353 C   0  0  0  0  0  0  0  0  0  0  0  0
   16.8933  -10.5184  -15.2475 C   0  0  0  0  0  0  0  0  0  0  0  0
   18.2946  -10.0356  -15.2505 C   0  0  2  0  0  0  0  0  0  0  0  0
   19.1760  -11.1378  -15.5224 N   0  0  0  0  0  0  0  0  0  0  0  0
   18.6745   -9.4551  -13.9017 C   0  0  0  0  0  0  0  0  0  0  0  0
   19.1543  -10.1960  -12.9994 O   0  0  0  0  0  0  0  0  0  0  0  0
   18.4870   -8.0886  -13.6675 N   0  0  0  0  0  0  0  0  0  0  0  0
   18.7898   -7.4739  -12.3671 C   0  0  1  0  0  0  0  0  0  0  0  0
   19.7197   -6.3273  -12.6359 C   0  0  0  0  0  0  0  0  0  0  0  0
   21.1609   -6.6544  -12.7241 C   0  0  0  0  0  0  0  0  0  0  0  0
   22.0030   -5.4625  -12.9418 C   0  0  0  0  0  0  0  0  0  0  0  0
   22.5173   -4.8385  -11.9505 O   0  0  0  0  0  0  0  0  0  0  0  0
   17.5107   -7.0055  -11.7639 C   0  0  0  0  0  0  0  0  0  0  0  0
   16.4542   -7.0214  -12.4419 O   0  0  0  0  0  0  0  0  0  0  0  0
   22.2568   -4.9901  -14.2060 O   0  0  0  0  0  0  0  0  0  0  0  0
   17.4362   -6.5326  -10.4268 N   0  0  0  0  0  0  0  0  0  0  0  0
   16.1978   -6.0909   -9.7894 C   0  0  1  0  0  0  0  0  0  0  0  0
   15.2521   -7.2803   -9.7726 C   0  0  0  0  0  0  0  0  0  0  0  0
   13.7671   -6.8881   -8.8121 S   0  0  0  0  0  0  0  0  0  0  0  0
   16.4383   -5.6110   -8.4167 C   0  0  0  0  0  0  0  0  0  0  0  0
   17.2501   -6.1854   -7.6592 O   0  0  0  0  0  0  0  0  0  0  0  0
   15.7609   -4.5043   -7.9400 O   0  0  0  0  0  0  0  0  0  0  0  0
  1  2  1  0
  2  3  1  0
  4  5  1  0
  4  3  1  0
  5  7  1  0
  5  6  1  1
  7  8  2  0
  9  7  1  0
  9 10  1  0
 10 15  1  0
 10 11  1  6
 12 13  1  0
 12 11  1  0
 13 14  2  0
 15 16  2  0
 17 13  1  0
 18 15  1  0
 18 19  1  0
 19 22  1  0
 20 21  1  0
 19 20  1  1
 22 24  1  0
 23 22  2  0
M  END
$$$$
