MEC.pdb
     RDKit          3D

 24 23  0  0  1  0  0  0  0  0999 V2000
   28.1196  -19.8737   -3.6972 C   0  0  0  0  0  0  0  0  0  0  0  0
   28.3790  -18.9464   -5.2087 S   0  0  0  0  0  0  0  0  0  0  0  0
   27.0683  -19.0329   -6.4057 C   0  0  0  0  0  0  0  0  0  0  0  0
   27.2494  -20.0401   -7.4939 C   0  0  0  0  0  0  0  0  0  0  0  0
   25.9969  -20.2486   -8.2585 C   0  0  2  0  0  0  0  0  0  0  0  0
   25.2024  -21.2517   -7.6041 N   0  0  0  0  0  0  0  0  0  0  0  0
   26.2911  -20.7305   -9.6664 C   0  0  0  0  0  0  0  0  0  0  0  0
   26.9060  -21.8167   -9.8546 O   0  0  0  0  0  0  0  0  0  0  0  0
   25.8738  -19.9576  -10.7553 N   0  0  0  0  0  0  0  0  0  0  0  0
   26.1178  -20.3745  -12.1435 C   0  0  1  0  0  0  0  0  0  0  0  0
   25.4198  -21.6896  -12.3302 C   0  0  0  0  0  0  0  0  0  0  0  0
   25.5667  -22.3314  -13.6561 C   0  0  0  0  0  0  0  0  0  0  0  0
   24.3086  -22.3399  -14.4272 C   0  0  0  0  0  0  0  0  0  0  0  0
   23.2131  -21.9543  -13.8906 O   0  0  0  0  0  0  0  0  0  0  0  0
   25.5603  -19.3307  -13.0485 C   0  0  0  0  0  0  0  0  0  0  0  0
   24.9663  -18.3349  -12.5670 O   0  0  0  0  0  0  0  0  0  0  0  0
   24.2763  -22.7603  -15.7341 O   0  0  0  0  0  0  0  0  0  0  0  0
   25.6755  -19.4177  -14.4613 N   0  0  0  0  0  0  0  0  0  0  0  0
   26.1098  -18.3108  -15.3105 C   0  0  1  0  0  0  0  0  0  0  0  0
   27.4805  -17.8774  -14.8176 C   0  0  0  0  0  0  0  0  0  0  0  0
   27.8821  -16.2278  -15.4493 S   0  0  0  0  0  0  0  0  0  0  0  0
   26.1806  -18.7122  -16.7269 C   0  0  0  0  0  0  0  0  0  0  0  0
   26.5106  -19.8713  -17.0593 O   0  0  0  0  0  0  0  0  0  0  0  0
   25.8794  -17.8013  -17.7221 O   0  0  0  0  0  0  0  0  0  0  0  0
  1  2  1  0
  2  3  1  0
  4  5  1  0
  4  3  1  0
  5  7  1  0
  5  6  1  1
  7  8  2  0
  9  7  1  0
  9 10  1  0
 10 15  1  0
 10 11  1  6
 12 13  1  0
 12 11  1  0
 13 14  2  0
 15 16  2  0
 17 13  1  0
 18 15  1  0
 18 19  1  0
 19 22  1  0
 20 21  1  0
 19 20  1  1
 22 24  1  0
 23 22  2  0
M  END
$$$$
