MEC.pdb
     RDKit          3D

 24 23  0  0  1  0  0  0  0  0999 V2000
   29.3441  -19.5439   -8.7562 C   0  0  0  0  0  0  0  0  0  0  0  0
   27.8246  -19.5339   -7.8061 S   0  0  0  0  0  0  0  0  0  0  0  0
   26.4379  -20.3570   -8.5531 C   0  0  0  0  0  0  0  0  0  0  0  0
   26.4527  -20.4279  -10.0452 C   0  0  0  0  0  0  0  0  0  0  0  0
   25.2305  -21.0795  -10.5728 C   0  0  2  0  0  0  0  0  0  0  0  0
   25.2591  -22.4786  -10.2450 N   0  0  0  0  0  0  0  0  0  0  0  0
   25.1542  -20.9546  -12.0825 C   0  0  0  0  0  0  0  0  0  0  0  0
   25.9210  -21.6345  -12.8196 O   0  0  0  0  0  0  0  0  0  0  0  0
   24.2244  -20.0769  -12.6503 N   0  0  0  0  0  0  0  0  0  0  0  0
   24.0164  -19.9979  -14.1033 C   0  0  1  0  0  0  0  0  0  0  0  0
   22.5826  -19.6098  -14.3153 C   0  0  0  0  0  0  0  0  0  0  0  0
   22.1477  -19.4357  -15.7197 C   0  0  0  0  0  0  0  0  0  0  0  0
   21.6610  -20.6903  -16.3249 C   0  0  0  0  0  0  0  0  0  0  0  0
   20.4779  -21.1135  -16.0842 O   0  0  0  0  0  0  0  0  0  0  0  0
   24.9441  -18.9693  -14.6516 C   0  0  0  0  0  0  0  0  0  0  0  0
   25.5496  -18.1918  -13.8737 O   0  0  0  0  0  0  0  0  0  0  0  0
   22.4583  -21.4366  -17.1574 O   0  0  0  0  0  0  0  0  0  0  0  0
   25.1761  -18.8295  -16.0457 N   0  0  0  0  0  0  0  0  0  0  0  0
   26.3567  -18.1807  -16.6116 C   0  0  1  0  0  0  0  0  0  0  0  0
   27.5655  -18.9977  -16.1863 C   0  0  0  0  0  0  0  0  0  0  0  0
   29.0873  -18.0510  -16.4496 S   0  0  0  0  0  0  0  0  0  0  0  0
   26.2811  -18.1091  -18.0818 C   0  0  0  0  0  0  0  0  0  0  0  0
   25.3352  -18.6306  -18.7111 O   0  0  0  0  0  0  0  0  0  0  0  0
   27.2679  -17.4559  -18.7962 O   0  0  0  0  0  0  0  0  0  0  0  0
  1  2  1  0
  2  3  1  0
  4  5  1  0
  4  3  1  0
  5  7  1  0
  5  6  1  6
  7  8  2  0
  9  7  1  0
  9 10  1  0
 10 15  1  0
 10 11  1  1
 12 13  1  0
 12 11  1  0
 13 14  2  0
 15 16  2  0
 17 13  1  0
 18 15  1  0
 18 19  1  0
 19 22  1  0
 20 21  1  0
 19 20  1  6
 22 24  1  0
 23 22  2  0
M  END
$$$$
