MEC.pdb
     RDKit          3D

 24 23  0  0  1  0  0  0  0  0999 V2000
   28.2443  -30.2405  -22.9034 C   0  0  0  0  0  0  0  0  0  0  0  0
   29.6820  -29.9385  -21.8769 S   0  0  0  0  0  0  0  0  0  0  0  0
   29.6891  -30.7488  -20.2952 C   0  0  0  0  0  0  0  0  0  0  0  0
   30.8974  -30.5102  -19.4499 C   0  0  0  0  0  0  0  0  0  0  0  0
   31.0087  -29.0886  -19.0456 C   0  0  2  0  0  0  0  0  0  0  0  0
   32.2898  -28.8682  -18.4324 N   0  0  0  0  0  0  0  0  0  0  0  0
   29.9379  -28.7234  -18.0353 C   0  0  0  0  0  0  0  0  0  0  0  0
   30.0149  -29.1364  -16.8450 O   0  0  0  0  0  0  0  0  0  0  0  0
   28.8626  -27.9235  -18.4368 N   0  0  0  0  0  0  0  0  0  0  0  0
   27.8091  -27.5093  -17.4993 C   0  0  1  0  0  0  0  0  0  0  0  0
   27.8810  -26.0138  -17.3999 C   0  0  0  0  0  0  0  0  0  0  0  0
   26.9189  -25.3675  -16.4789 C   0  0  0  0  0  0  0  0  0  0  0  0
   27.0657  -23.8998  -16.4400 C   0  0  0  0  0  0  0  0  0  0  0  0
   26.0411  -23.1461  -16.3031 O   0  0  0  0  0  0  0  0  0  0  0  0
   26.4969  -27.9546  -18.0464 C   0  0  0  0  0  0  0  0  0  0  0  0
   26.2987  -27.9468  -19.2861 O   0  0  0  0  0  0  0  0  0  0  0  0
   28.2978  -23.3034  -16.5503 O   0  0  0  0  0  0  0  0  0  0  0  0
   25.4404  -28.3962  -17.2063 N   0  0  0  0  0  0  0  0  0  0  0  0
   24.1626  -28.8998  -17.7050 C   0  0  1  0  0  0  0  0  0  0  0  0
   24.4711  -30.0448  -18.6554 C   0  0  0  0  0  0  0  0  0  0  0  0
   22.9380  -30.8512  -19.1853 S   0  0  0  0  0  0  0  0  0  0  0  0
   23.3003  -29.3680  -16.6052 C   0  0  0  0  0  0  0  0  0  0  0  0
   23.6936  -29.3543  -15.4187 O   0  0  0  0  0  0  0  0  0  0  0  0
   22.0272  -29.8356  -16.8727 O   0  0  0  0  0  0  0  0  0  0  0  0
  1  2  1  0
  2  3  1  0
  4  5  1  0
  4  3  1  0
  5  7  1  0
  5  6  1  1
  7  8  2  0
  9  7  1  0
  9 10  1  0
 10 15  1  0
 10 11  1  6
 12 13  1  0
 12 11  1  0
 13 14  2  0
 15 16  2  0
 17 13  1  0
 18 15  1  0
 18 19  1  0
 19 22  1  0
 20 21  1  0
 19 20  1  6
 22 24  1  0
 23 22  2  0
M  END
$$$$
