MEC.pdb
     RDKit          3D

 24 23  0  0  1  0  0  0  0  0999 V2000
   24.8045  -20.9902   -7.8083 C   0  0  0  0  0  0  0  0  0  0  0  0
   24.7894  -21.0098   -9.6003 S   0  0  0  0  0  0  0  0  0  0  0  0
   26.3775  -20.8975  -10.3901 C   0  0  0  0  0  0  0  0  0  0  0  0
   26.3537  -20.6123  -11.8563 C   0  0  0  0  0  0  0  0  0  0  0  0
   25.2664  -21.3529  -12.5388 C   0  0  2  0  0  0  0  0  0  0  0  0
   25.6443  -22.7330  -12.6745 N   0  0  0  0  0  0  0  0  0  0  0  0
   25.0169  -20.7978  -13.9282 C   0  0  0  0  0  0  0  0  0  0  0  0
   25.7517  -21.1418  -14.8952 O   0  0  0  0  0  0  0  0  0  0  0  0
   23.9631  -19.8994  -14.1270 N   0  0  0  0  0  0  0  0  0  0  0  0
   23.6396  -19.3623  -15.4565 C   0  0  1  0  0  0  0  0  0  0  0  0
   22.1429  -19.3095  -15.5500 C   0  0  0  0  0  0  0  0  0  0  0  0
   21.5799  -18.7738  -16.8101 C   0  0  0  0  0  0  0  0  0  0  0  0
   20.1055  -18.8228  -16.8412 C   0  0  0  0  0  0  0  0  0  0  0  0
   19.4971  -19.6407  -17.6142 O   0  0  0  0  0  0  0  0  0  0  0  0
   24.2389  -18.0031  -15.5685 C   0  0  0  0  0  0  0  0  0  0  0  0
   23.8793  -17.0920  -14.7831 O   0  0  0  0  0  0  0  0  0  0  0  0
   19.3478  -17.9967  -16.0479 O   0  0  0  0  0  0  0  0  0  0  0  0
   25.2197  -17.6896  -16.5466 N   0  0  0  0  0  0  0  0  0  0  0  0
   25.8634  -16.3829  -16.6616 C   0  0  1  0  0  0  0  0  0  0  0  0
   27.3350  -16.6307  -16.9485 C   0  0  0  0  0  0  0  0  0  0  0  0
   28.1051  -17.5101  -15.5646 S   0  0  0  0  0  0  0  0  0  0  0  0
   25.2621  -15.5777  -17.7398 C   0  0  0  0  0  0  0  0  0  0  0  0
   24.3809  -16.0495  -18.4905 O   0  0  0  0  0  0  0  0  0  0  0  0
   25.6690  -14.2718  -17.9398 O   0  0  0  0  0  0  0  0  0  0  0  0
  1  2  1  0
  2  3  1  0
  4  5  1  0
  4  3  1  0
  5  7  1  0
  5  6  1  6
  7  8  2  0
  9  7  1  0
  9 10  1  0
 10 15  1  0
 10 11  1  1
 12 13  1  0
 12 11  1  0
 13 14  2  0
 15 16  2  0
 17 13  1  0
 18 15  1  0
 18 19  1  0
 19 22  1  0
 20 21  1  0
 19 20  1  6
 22 24  1  0
 23 22  2  0
M  END
$$$$
