FRL.pdb
     RDKit          3D

 31 31  0  0  1  0  0  0  0  0999 V2000
    6.9514  -17.7782   18.6742 N   0  0  0  0  0  0  0  0  0  0  0  0
    7.6518  -16.7204   19.3635 C   0  0  1  0  0  0  0  0  0  0  0  0
    6.7962  -15.4679   19.2896 C   0  0  0  0  0  0  0  0  0  0  0  0
    7.4527  -14.2966   19.9155 C   0  0  0  0  0  0  0  0  0  0  0  0
    8.3402  -13.5516   19.1321 C   0  0  0  0  0  0  0  0  0  0  0  0
    8.9474  -12.4741   19.6911 C   0  0  0  0  0  0  0  0  0  0  0  0
    8.6848  -12.1369   20.9983 C   0  0  0  0  0  0  0  0  0  0  0  0
    7.8079  -12.8715   21.7754 C   0  0  0  0  0  0  0  0  0  0  0  0
    7.1715  -13.9851   21.2193 C   0  0  0  0  0  0  0  0  0  0  0  0
    7.8583  -17.0034   20.7996 C   0  0  0  0  0  0  0  0  0  0  0  0
    6.8110  -17.1404   21.4937 O   0  0  0  0  0  0  0  0  0  0  0  0
   13.9076  -20.3004   23.0193 N   0  0  0  0  0  0  0  0  0  0  0  0
   13.5893  -20.3681   24.4009 C   0  0  0  0  0  0  0  0  0  0  0  0
   14.5158  -20.1332   25.2586 N   0  0  0  0  0  0  0  0  0  0  0  0
   12.2744  -20.6907   24.7908 N   0  0  0  0  0  0  0  0  0  0  0  0
   11.1219  -20.1399   24.1296 C   0  0  0  0  0  0  0  0  0  0  0  0
   11.1454  -18.6164   24.1366 C   0  0  0  0  0  0  0  0  0  0  0  0
   10.7318  -18.1021   22.7943 C   0  0  0  0  0  0  0  0  0  0  0  0
    9.3171  -17.5291   22.7452 C   0  0  2  0  0  0  0  0  0  0  0  0
    9.1594  -17.1105   21.3375 N   0  0  0  0  0  0  0  0  0  0  0  0
    9.2215  -16.3186   23.5829 C   0  0  0  0  0  0  0  0  0  0  0  0
   10.0123  -15.3571   23.3180 O   0  0  0  0  0  0  0  0  0  0  0  0
   14.3167  -20.2394   26.2694 C   0  0  0  0  0  0  0  0  0  0  0  0
    8.0002  -11.9580   26.2337 C   0  0  1  0  0  0  0  0  0  0  0  0
    7.1948  -13.1242   26.7104 C   0  0  0  0  0  0  0  0  0  0  0  0
    5.7780  -12.6819   27.0750 C   0  0  0  0  0  0  0  0  0  0  0  0
    7.1590  -14.2842   25.7621 C   0  0  1  0  0  0  0  0  0  0  0  0
    8.4616  -14.9812   25.5385 N   0  0  0  0  0  0  0  0  0  0  0  0
    8.3388  -16.1184   24.6494 C   0  0  0  0  0  0  0  0  0  0  0  0
    9.1657  -15.3219   26.7923 O   0  0  0  0  0  0  0  0  0  0  0  0
   10.1675  -14.6757   27.1633 O   0  0  0  0  0  0  0  0  0  0  0  0
  2  1  1  1
  3  4  1  0
  3  2  1  0
  4  9  2  0
  5  6  2  0
  5  4  1  0
  6  7  1  0
  7  8  2  0
  9  8  1  0
 10  2  1  0
 10 20  1  0
 11 10  2  0
 13 15  1  0
 13 12  1  0
 14 13  2  0
 16 15  1  0
 16 17  1  0
 18 17  1  0
 19 18  1  6
 20 19  1  0
 21 19  1  0
 21 22  2  0
 24 23  1  1
 24 25  1  0
 26 24  1  0
 27 28  1  0
 27 26  1  6
 28 21  1  0
 29 27  1  0
 30 29  2  0
 31 29  1  0
M  END
$$$$
