FRL.pdb
     RDKit          3D

 31 31  0  0  1  0  0  0  0  0999 V2000
    7.9233  -17.3458   18.7177 N   0  0  0  0  0  0  0  0  0  0  0  0
    8.7444  -17.1510   19.8894 C   0  0  1  0  0  0  0  0  0  0  0  0
    9.4724  -15.8273   19.7348 C   0  0  0  0  0  0  0  0  0  0  0  0
    8.5469  -14.6705   19.7243 C   0  0  0  0  0  0  0  0  0  0  0  0
    9.0925  -13.4018   19.5032 C   0  0  0  0  0  0  0  0  0  0  0  0
    8.2566  -12.3326   19.4883 C   0  0  0  0  0  0  0  0  0  0  0  0
    6.9074  -12.5105   19.6875 C   0  0  0  0  0  0  0  0  0  0  0  0
    6.3650  -13.7636   19.9063 C   0  0  0  0  0  0  0  0  0  0  0  0
    7.2082  -14.8786   19.9256 C   0  0  0  0  0  0  0  0  0  0  0  0
    7.9578  -17.0542   21.1372 C   0  0  0  0  0  0  0  0  0  0  0  0
    6.7090  -16.9206   20.9962 O   0  0  0  0  0  0  0  0  0  0  0  0
    5.5626  -22.8770   26.9107 N   0  0  0  0  0  0  0  0  0  0  0  0
    6.5939  -21.9954   27.3277 C   0  0  0  0  0  0  0  0  0  0  0  0
    7.4807  -22.4296   28.1488 N   0  0  0  0  0  0  0  0  0  0  0  0
    6.6152  -20.6761   26.8338 N   0  0  0  0  0  0  0  0  0  0  0  0
    6.7749  -20.3840   25.4345 C   0  0  0  0  0  0  0  0  0  0  0  0
    6.7992  -18.8831   25.1735 C   0  0  0  0  0  0  0  0  0  0  0  0
    7.6558  -18.5948   23.9817 C   0  0  0  0  0  0  0  0  0  0  0  0
    7.7530  -17.1154   23.6159 C   0  0  2  0  0  0  0  0  0  0  0  0
    8.5896  -17.1118   22.3986 N   0  0  0  0  0  0  0  0  0  0  0  0
    8.4838  -16.3728   24.6603 C   0  0  0  0  0  0  0  0  0  0  0  0
    9.5158  -15.7190   24.3030 O   0  0  0  0  0  0  0  0  0  0  0  0
    8.2747  -21.8200   28.4146 C   0  0  0  0  0  0  0  0  0  0  0  0
    6.3548  -12.0980   26.4790 C   0  0  2  0  0  0  0  0  0  0  0  0
    7.4688  -13.0574   26.2055 C   0  0  0  0  0  0  0  0  0  0  0  0
    8.8102  -12.3256   26.1801 C   0  0  0  0  0  0  0  0  0  0  0  0
    7.5232  -14.2291   27.1385 C   0  0  2  0  0  0  0  0  0  0  0  0
    8.6009  -15.2274   26.8659 N   0  0  0  0  0  0  0  0  0  0  0  0
    8.1524  -16.3130   26.0180 C   0  0  0  0  0  0  0  0  0  0  0  0
    9.2732  -15.7114   28.0898 O   0  0  0  0  0  0  0  0  0  0  0  0
    9.9683  -14.9445   28.7878 O   0  0  0  0  0  0  0  0  0  0  0  0
  2  1  1  6
  3  4  1  0
  3  2  1  0
  4  9  2  0
  5  6  2  0
  5  4  1  0
  6  7  1  0
  7  8  2  0
  9  8  1  0
 10  2  1  0
 10 20  1  0
 11 10  2  0
 13 15  1  0
 13 12  1  0
 14 13  2  0
 16 15  1  0
 16 17  1  0
 18 17  1  0
 19 18  1  1
 20 19  1  0
 21 19  1  0
 21 22  2  0
 24 23  1  6
 24 25  1  0
 26 24  1  0
 27 28  1  0
 27 26  1  6
 28 21  1  0
 29 27  1  0
 30 29  2  0
 31 29  1  0
M  END
$$$$
