FRL.pdb
     RDKit          3D

 31 31  0  0  1  0  0  0  0  0999 V2000
    5.6066  -18.2962   26.4075 N   0  0  0  0  0  0  0  0  0  0  0  0
    5.9031  -16.9225   26.0759 C   0  0  1  0  0  0  0  0  0  0  0  0
    6.4328  -16.2438   27.3269 C   0  0  0  0  0  0  0  0  0  0  0  0
    6.5700  -14.7781   27.1602 C   0  0  0  0  0  0  0  0  0  0  0  0
    5.3983  -14.0163   27.1050 C   0  0  0  0  0  0  0  0  0  0  0  0
    5.5082  -12.6718   26.9551 C   0  0  0  0  0  0  0  0  0  0  0  0
    6.7502  -12.0887   26.8613 C   0  0  0  0  0  0  0  0  0  0  0  0
    7.9105  -12.8391   26.9155 C   0  0  0  0  0  0  0  0  0  0  0  0
    7.8201  -14.2257   27.0698 C   0  0  0  0  0  0  0  0  0  0  0  0
    6.9574  -16.7903   25.0483 C   0  0  0  0  0  0  0  0  0  0  0  0
    7.8826  -17.6502   25.0896 O   0  0  0  0  0  0  0  0  0  0  0  0
    9.5083  -15.1886   18.3162 N   0  0  0  0  0  0  0  0  0  0  0  0
    9.1332  -13.8675   17.9575 C   0  0  0  0  0  0  0  0  0  0  0  0
    9.6437  -13.3481   16.8997 N   0  0  0  0  0  0  0  0  0  0  0  0
    8.2183  -13.1661   18.7675 N   0  0  0  0  0  0  0  0  0  0  0  0
    7.3827  -13.8301   19.7318 C   0  0  0  0  0  0  0  0  0  0  0  0
    8.2095  -14.5461   20.7925 C   0  0  0  0  0  0  0  0  0  0  0  0
    7.4103  -14.6732   22.0504 C   0  0  0  0  0  0  0  0  0  0  0  0
    7.9454  -15.7080   23.0377 C   0  0  2  0  0  0  0  0  0  0  0  0
    6.9085  -15.7558   24.0886 N   0  0  0  0  0  0  0  0  0  0  0  0
    9.1917  -15.2275   23.6638 C   0  0  0  0  0  0  0  0  0  0  0  0
    9.3551  -13.9687   23.7562 O   0  0  0  0  0  0  0  0  0  0  0  0
    9.3911  -12.3802   16.6314 C   0  0  0  0  0  0  0  0  0  0  0  0
   10.3174  -15.0593   28.4548 C   0  0  1  0  0  0  0  0  0  0  0  0
   10.3568  -14.8141   26.9801 C   0  0  0  0  0  0  0  0  0  0  0  0
   10.4579  -13.3171   26.6898 C   0  0  0  0  0  0  0  0  0  0  0  0
   11.4294  -15.5674   26.2532 C   0  0  2  0  0  0  0  0  0  0  0  0
   11.4124  -15.4477   24.7640 N   0  0  0  0  0  0  0  0  0  0  0  0
   10.2223  -16.0247   24.1729 C   0  0  0  0  0  0  0  0  0  0  0  0
   12.6513  -15.9365   24.1236 O   0  0  0  0  0  0  0  0  0  0  0  0
   12.6169  -16.8403   23.2630 O   0  0  0  0  0  0  0  0  0  0  0  0
  2  1  1  1
  3  4  1  0
  3  2  1  0
  4  9  2  0
  5  6  2  0
  5  4  1  0
  6  7  1  0
  7  8  2  0
  9  8  1  0
 10  2  1  0
 10 20  1  0
 11 10  2  0
 13 15  1  0
 13 12  1  0
 14 13  2  0
 16 15  1  0
 16 17  1  0
 18 17  1  0
 19 18  1  6
 20 19  1  0
 21 19  1  0
 21 22  2  0
 24 23  1  6
 24 25  1  0
 26 24  1  0
 27 28  1  0
 27 26  1  1
 28 21  1  0
 29 27  1  0
 30 29  2  0
 31 29  1  0
M  END
$$$$
