FRL.pdb
     RDKit          3D

 31 31  0  0  1  0  0  0  0  0999 V2000
    5.4629  -17.7277   25.6377 N   0  0  0  0  0  0  0  0  0  0  0  0
    6.3504  -16.7343   25.0806 C   0  0  1  0  0  0  0  0  0  0  0  0
    6.7583  -15.7922   26.1996 C   0  0  0  0  0  0  0  0  0  0  0  0
    6.5087  -14.3714   25.8619 C   0  0  0  0  0  0  0  0  0  0  0  0
    5.3207  -13.7922   26.3196 C   0  0  0  0  0  0  0  0  0  0  0  0
    5.0793  -12.4906   26.0202 C   0  0  0  0  0  0  0  0  0  0  0  0
    5.9921  -11.7728   25.2833 C   0  0  0  0  0  0  0  0  0  0  0  0
    7.1675  -12.3426   24.8295 C   0  0  0  0  0  0  0  0  0  0  0  0
    7.4361  -13.6820   25.1267 C   0  0  0  0  0  0  0  0  0  0  0  0
    7.5999  -17.3121   24.5420 C   0  0  0  0  0  0  0  0  0  0  0  0
    8.0468  -18.3276   25.1472 O   0  0  0  0  0  0  0  0  0  0  0  0
   10.2596  -13.0312   19.3851 N   0  0  0  0  0  0  0  0  0  0  0  0
    8.8573  -12.8483   19.5064 C   0  0  0  0  0  0  0  0  0  0  0  0
    8.3887  -11.6527   19.4931 N   0  0  0  0  0  0  0  0  0  0  0  0
    8.0234  -13.9762   19.6389 N   0  0  0  0  0  0  0  0  0  0  0  0
    8.5490  -15.2953   19.8679 C   0  0  0  0  0  0  0  0  0  0  0  0
    9.0860  -15.4473   21.2856 C   0  0  0  0  0  0  0  0  0  0  0  0
    9.5900  -16.8415   21.4844 C   0  0  0  0  0  0  0  0  0  0  0  0
    9.4855  -17.3529   22.9195 C   0  0  2  0  0  0  0  0  0  0  0  0
    8.2349  -16.7438   23.4162 N   0  0  0  0  0  0  0  0  0  0  0  0
   10.5935  -16.8242   23.7376 C   0  0  0  0  0  0  0  0  0  0  0  0
   11.1800  -15.7734   23.3231 O   0  0  0  0  0  0  0  0  0  0  0  0
    7.3803  -11.4959   19.6699 C   0  0  0  0  0  0  0  0  0  0  0  0
    9.3975  -15.6064   28.8258 C   0  0  1  0  0  0  0  0  0  0  0  0
    9.9075  -14.9072   27.6063 C   0  0  0  0  0  0  0  0  0  0  0  0
   11.2940  -14.3197   27.8677 C   0  0  0  0  0  0  0  0  0  0  0  0
    9.9147  -15.7474   26.3653 C   0  0  2  0  0  0  0  0  0  0  0  0
   11.1340  -16.5849   26.1544 N   0  0  0  0  0  0  0  0  0  0  0  0
   11.0684  -17.3664   24.9363 C   0  0  0  0  0  0  0  0  0  0  0  0
   11.4903  -17.4060   27.3302 O   0  0  0  0  0  0  0  0  0  0  0  0
   12.1927  -16.9398   28.2511 O   0  0  0  0  0  0  0  0  0  0  0  0
  2  1  1  1
  3  4  1  0
  3  2  1  0
  4  9  2  0
  5  6  2  0
  5  4  1  0
  6  7  1  0
  7  8  2  0
  9  8  1  0
 10  2  1  0
 10 20  1  0
 11 10  2  0
 13 15  1  0
 13 12  1  0
 14 13  2  0
 16 15  1  0
 16 17  1  0
 18 17  1  0
 19 18  1  6
 20 19  1  0
 21 19  1  0
 21 22  2  0
 24 23  1  1
 24 25  1  0
 26 24  1  0
 27 28  1  0
 27 26  1  6
 28 21  1  0
 29 27  1  0
 30 29  2  0
 31 29  1  0
M  END
$$$$
