FRL.pdb
     RDKit          3D

 31 31  0  0  1  0  0  0  0  0999 V2000
    5.3336  -17.7067   24.8097 N   0  0  0  0  0  0  0  0  0  0  0  0
    6.3397  -16.7086   24.5334 C   0  0  1  0  0  0  0  0  0  0  0  0
    6.6571  -15.9925   25.8344 C   0  0  0  0  0  0  0  0  0  0  0  0
    6.5581  -14.5197   25.7082 C   0  0  0  0  0  0  0  0  0  0  0  0
    7.5277  -13.8651   24.9417 C   0  0  0  0  0  0  0  0  0  0  0  0
    7.4486  -12.5161   24.8148 C   0  0  0  0  0  0  0  0  0  0  0  0
    6.4324  -11.8248   25.4320 C   0  0  0  0  0  0  0  0  0  0  0  0
    5.4723  -12.4691   26.1905 C   0  0  0  0  0  0  0  0  0  0  0  0
    5.5349  -13.8584   26.3341 C   0  0  0  0  0  0  0  0  0  0  0  0
    7.6117  -17.2874   24.0517 C   0  0  0  0  0  0  0  0  0  0  0  0
    7.7963  -18.5110   24.3088 O   0  0  0  0  0  0  0  0  0  0  0  0
    7.9542  -14.1294   17.6626 N   0  0  0  0  0  0  0  0  0  0  0  0
    8.3294  -13.4374   18.8437 C   0  0  0  0  0  0  0  0  0  0  0  0
    7.8432  -12.2672   19.0525 N   0  0  0  0  0  0  0  0  0  0  0  0
    9.2204  -14.0486   19.7479 N   0  0  0  0  0  0  0  0  0  0  0  0
    9.6392  -15.4171   19.6043 C   0  0  0  0  0  0  0  0  0  0  0  0
    9.1812  -16.2706   20.7804 C   0  0  0  0  0  0  0  0  0  0  0  0
   10.2981  -16.4080   21.7658 C   0  0  0  0  0  0  0  0  0  0  0  0
    9.8949  -17.0451   23.0937 C   0  0  2  0  0  0  0  0  0  0  0  0
    8.5467  -16.4978   23.3476 N   0  0  0  0  0  0  0  0  0  0  0  0
   10.7770  -16.5768   24.1795 C   0  0  0  0  0  0  0  0  0  0  0  0
   11.2279  -15.3893   24.0990 O   0  0  0  0  0  0  0  0  0  0  0  0
    8.0415  -11.7823   19.9460 C   0  0  0  0  0  0  0  0  0  0  0  0
   10.5466  -13.7138   28.2646 C   0  0  2  0  0  0  0  0  0  0  0  0
   10.2956  -15.1861   28.3394 C   0  0  0  0  0  0  0  0  0  0  0  0
    9.0670  -15.4757   29.2010 C   0  0  0  0  0  0  0  0  0  0  0  0
   10.1802  -15.8654   27.0085 C   0  0  1  0  0  0  0  0  0  0  0  0
   11.3546  -16.6923   26.5968 N   0  0  0  0  0  0  0  0  0  0  0  0
   11.1708  -17.3139   25.3012 C   0  0  0  0  0  0  0  0  0  0  0  0
   11.7791  -17.6606   27.6293 O   0  0  0  0  0  0  0  0  0  0  0  0
   12.6053  -17.3415   28.5092 O   0  0  0  0  0  0  0  0  0  0  0  0
  2  1  1  1
  3  4  1  0
  3  2  1  0
  4  9  2  0
  5  6  2  0
  5  4  1  0
  6  7  1  0
  7  8  2  0
  9  8  1  0
 10  2  1  0
 10 20  1  0
 11 10  2  0
 13 15  1  0
 13 12  1  0
 14 13  2  0
 16 15  1  0
 16 17  1  0
 18 17  1  0
 19 18  1  6
 20 19  1  0
 21 19  1  0
 21 22  2  0
 24 23  1  1
 24 25  1  0
 26 24  1  0
 27 28  1  0
 27 26  1  6
 28 21  1  0
 29 27  1  0
 30 29  2  0
 31 29  1  0
M  END
$$$$
