FRL.pdb
     RDKit          3D

 31 31  0  0  1  0  0  0  0  0999 V2000
    5.4511  -17.7537   23.1803 N   0  0  0  0  0  0  0  0  0  0  0  0
    6.3551  -16.7064   23.5935 C   0  0  1  0  0  0  0  0  0  0  0  0
    6.1537  -16.4751   25.0808 C   0  0  0  0  0  0  0  0  0  0  0  0
    6.6392  -15.1452   25.5173 C   0  0  0  0  0  0  0  0  0  0  0  0
    7.1929  -14.3034   24.5472 C   0  0  0  0  0  0  0  0  0  0  0  0
    7.6397  -13.0808   24.9316 C   0  0  0  0  0  0  0  0  0  0  0  0
    7.5426  -12.6948   26.2481 C   0  0  0  0  0  0  0  0  0  0  0  0
    6.9958  -13.5248   27.2095 C   0  0  0  0  0  0  0  0  0  0  0  0
    6.5292  -14.7885   26.8351 C   0  0  0  0  0  0  0  0  0  0  0  0
    7.7776  -17.0658   23.4134 C   0  0  0  0  0  0  0  0  0  0  0  0
    8.1051  -18.2311   23.7772 O   0  0  0  0  0  0  0  0  0  0  0  0
    8.7410  -15.4498   17.8884 N   0  0  0  0  0  0  0  0  0  0  0  0
    8.6095  -14.0418   18.0104 C   0  0  0  0  0  0  0  0  0  0  0  0
    7.8343  -13.4227   17.1949 N   0  0  0  0  0  0  0  0  0  0  0  0
    9.3297  -13.3662   19.0153 N   0  0  0  0  0  0  0  0  0  0  0  0
   10.2996  -14.0323   19.8426 C   0  0  0  0  0  0  0  0  0  0  0  0
    9.6361  -14.9844   20.8299 C   0  0  0  0  0  0  0  0  0  0  0  0
   10.6789  -15.6137   21.6982 C   0  0  0  0  0  0  0  0  0  0  0  0
   10.1246  -16.5079   22.8049 C   0  0  2  0  0  0  0  0  0  0  0  0
    8.6944  -16.1432   22.8640 N   0  0  0  0  0  0  0  0  0  0  0  0
   10.7278  -16.1549   24.1041 C   0  0  0  0  0  0  0  0  0  0  0  0
   11.2432  -14.9967   24.2170 O   0  0  0  0  0  0  0  0  0  0  0  0
    7.7898  -12.3881   17.2162 C   0  0  0  0  0  0  0  0  0  0  0  0
   11.1801  -13.5303   28.3463 C   0  0  2  0  0  0  0  0  0  0  0  0
   10.2303  -14.6791   28.2274 C   0  0  0  0  0  0  0  0  0  0  0  0
    8.8515  -14.2900   28.7596 C   0  0  0  0  0  0  0  0  0  0  0  0
   10.1213  -15.2553   26.8481 C   0  0  1  0  0  0  0  0  0  0  0  0
   11.0024  -16.4276   26.5619 N   0  0  0  0  0  0  0  0  0  0  0  0
   10.7897  -16.9733   25.2369 C   0  0  0  0  0  0  0  0  0  0  0  0
   10.9535  -17.4664   27.6118 O   0  0  0  0  0  0  0  0  0  0  0  0
   11.7525  -17.4494   28.5709 O   0  0  0  0  0  0  0  0  0  0  0  0
  2  1  1  1
  3  4  1  0
  3  2  1  0
  4  9  2  0
  5  6  2  0
  5  4  1  0
  6  7  1  0
  7  8  2  0
  9  8  1  0
 10  2  1  0
 10 20  1  0
 11 10  2  0
 13 15  1  0
 13 12  1  0
 14 13  2  0
 16 15  1  0
 16 17  1  0
 18 17  1  0
 19 18  1  6
 20 19  1  0
 21 19  1  0
 21 22  2  0
 24 23  1  1
 24 25  1  0
 26 24  1  0
 27 28  1  0
 27 26  1  6
 28 21  1  0
 29 27  1  0
 30 29  2  0
 31 29  1  0
M  END
$$$$
