FRL.pdb
     RDKit          3D

 31 31  0  0  1  0  0  0  0  0999 V2000
    5.2527  -16.2107   25.4782 N   0  0  0  0  0  0  0  0  0  0  0  0
    6.4793  -15.7942   24.8403 C   0  0  1  0  0  0  0  0  0  0  0  0
    7.1659  -14.7953   25.7552 C   0  0  0  0  0  0  0  0  0  0  0  0
    6.5183  -13.4631   25.7255 C   0  0  0  0  0  0  0  0  0  0  0  0
    6.9964  -12.5270   24.8028 C   0  0  0  0  0  0  0  0  0  0  0  0
    6.4113  -11.3030   24.7622 C   0  0  0  0  0  0  0  0  0  0  0  0
    5.3739  -11.0069   25.6153 C   0  0  0  0  0  0  0  0  0  0  0  0
    4.8990  -11.9304   26.5286 C   0  0  0  0  0  0  0  0  0  0  0  0
    5.4873  -13.1973   26.5871 C   0  0  0  0  0  0  0  0  0  0  0  0
    7.4335  -16.9054   24.6407 C   0  0  0  0  0  0  0  0  0  0  0  0
    6.9265  -18.0256   24.3485 O   0  0  0  0  0  0  0  0  0  0  0  0
    8.3938  -13.9104   18.1460 N   0  0  0  0  0  0  0  0  0  0  0  0
    9.1869  -13.4661   19.2360 C   0  0  0  0  0  0  0  0  0  0  0  0
    9.4750  -12.2173   19.3193 N   0  0  0  0  0  0  0  0  0  0  0  0
    9.6349  -14.4014   20.1897 N   0  0  0  0  0  0  0  0  0  0  0  0
    9.3585  -15.8081   20.0721 C   0  0  0  0  0  0  0  0  0  0  0  0
    9.9858  -16.6006   21.2122 C   0  0  0  0  0  0  0  0  0  0  0  0
    9.2662  -16.2990   22.4884 C   0  0  0  0  0  0  0  0  0  0  0  0
    9.7175  -17.1377   23.6821 C   0  0  2  0  0  0  0  0  0  0  0  0
    8.8240  -16.6993   24.7735 N   0  0  0  0  0  0  0  0  0  0  0  0
   11.0972  -16.7855   24.0678 C   0  0  0  0  0  0  0  0  0  0  0  0
   11.5992  -15.7331   23.5576 O   0  0  0  0  0  0  0  0  0  0  0  0
   10.1341  -11.8914   20.0488 C   0  0  0  0  0  0  0  0  0  0  0  0
    9.3151  -14.6165   27.5228 C   0  0  1  0  0  0  0  0  0  0  0  0
   10.5723  -15.2179   26.9807 C   0  0  0  0  0  0  0  0  0  0  0  0
   11.7695  -14.8231   27.8447 C   0  0  0  0  0  0  0  0  0  0  0  0
   10.5208  -16.7044   26.7960 C   0  0  2  0  0  0  0  0  0  0  0  0
   11.8026  -17.3531   26.3853 N   0  0  0  0  0  0  0  0  0  0  0  0
   11.9173  -17.4986   24.9485 C   0  0  0  0  0  0  0  0  0  0  0  0
   12.0745  -18.6169   27.1014 O   0  0  0  0  0  0  0  0  0  0  0  0
   11.4796  -19.6707   26.7945 O   0  0  0  0  0  0  0  0  0  0  0  0
  2  1  1  1
  3  4  1  0
  3  2  1  0
  4  9  2  0
  5  6  2  0
  5  4  1  0
  6  7  1  0
  7  8  2  0
  9  8  1  0
 10  2  1  0
 10 20  1  0
 11 10  2  0
 13 15  1  0
 13 12  1  0
 14 13  2  0
 16 15  1  0
 16 17  1  0
 18 17  1  0
 19 18  1  6
 20 19  1  0
 21 19  1  0
 21 22  2  0
 24 23  1  6
 24 25  1  0
 26 24  1  0
 27 28  1  0
 27 26  1  6
 28 21  1  0
 29 27  1  0
 30 29  2  0
 31 29  1  0
M  END
$$$$
