FRL.pdb
     RDKit          3D

 31 31  0  0  1  0  0  0  0  0999 V2000
    6.3886  -17.2827   25.4746 N   0  0  0  0  0  0  0  0  0  0  0  0
    6.5082  -17.3551   24.0375 C   0  0  1  0  0  0  0  0  0  0  0  0
    5.9490  -16.0681   23.4567 C   0  0  0  0  0  0  0  0  0  0  0  0
    6.2858  -14.8831   24.2796 C   0  0  0  0  0  0  0  0  0  0  0  0
    5.9000  -14.8926   25.6240 C   0  0  0  0  0  0  0  0  0  0  0  0
    6.2039  -13.8149   26.3910 C   0  0  0  0  0  0  0  0  0  0  0  0
    6.8758  -12.7473   25.8433 C   0  0  0  0  0  0  0  0  0  0  0  0
    7.2586  -12.7348   24.5145 C   0  0  0  0  0  0  0  0  0  0  0  0
    6.9557  -13.8348   23.7065 C   0  0  0  0  0  0  0  0  0  0  0  0
    7.9099  -17.4488   23.5777 C   0  0  0  0  0  0  0  0  0  0  0  0
    8.4588  -18.5807   23.7000 O   0  0  0  0  0  0  0  0  0  0  0  0
    7.8143  -13.1179   19.2271 N   0  0  0  0  0  0  0  0  0  0  0  0
    8.4375  -13.9923   18.2989 C   0  0  0  0  0  0  0  0  0  0  0  0
    8.3302  -13.7371   17.0448 N   0  0  0  0  0  0  0  0  0  0  0  0
    9.1507  -15.1100   18.7756 N   0  0  0  0  0  0  0  0  0  0  0  0
    8.9607  -15.6313   20.1026 C   0  0  0  0  0  0  0  0  0  0  0  0
    9.2637  -14.5833   21.1662 C   0  0  0  0  0  0  0  0  0  0  0  0
   10.3389  -15.0876   22.0755 C   0  0  0  0  0  0  0  0  0  0  0  0
   10.0193  -16.4165   22.7565 C   0  0  2  0  0  0  0  0  0  0  0  0
    8.5720  -16.3251   23.0369 N   0  0  0  0  0  0  0  0  0  0  0  0
   10.7183  -16.5137   24.0519 C   0  0  0  0  0  0  0  0  0  0  0  0
   11.9909  -16.4966   24.0354 O   0  0  0  0  0  0  0  0  0  0  0  0
    8.8334  -14.3263   16.3575 C   0  0  0  0  0  0  0  0  0  0  0  0
   12.1517  -14.1973   28.4980 C   0  0  2  0  0  0  0  0  0  0  0  0
   10.8285  -14.8823   28.6248 C   0  0  0  0  0  0  0  0  0  0  0  0
    9.8829  -14.0605   29.5001 C   0  0  0  0  0  0  0  0  0  0  0  0
   10.1775  -15.2236   27.3186 C   0  0  1  0  0  0  0  0  0  0  0  0
   10.8346  -16.3084   26.5288 N   0  0  0  0  0  0  0  0  0  0  0  0
   10.1168  -16.6223   25.3102 C   0  0  0  0  0  0  0  0  0  0  0  0
   11.1371  -17.5135   27.3289 O   0  0  0  0  0  0  0  0  0  0  0  0
   10.3339  -18.4678   27.3831 O   0  0  0  0  0  0  0  0  0  0  0  0
  2  1  1  1
  3  4  1  0
  3  2  1  0
  4  9  2  0
  5  6  2  0
  5  4  1  0
  6  7  1  0
  7  8  2  0
  9  8  1  0
 10  2  1  0
 10 20  1  0
 11 10  2  0
 13 15  1  0
 13 12  1  0
 14 13  2  0
 16 15  1  0
 16 17  1  0
 18 17  1  0
 19 18  1  1
 20 19  1  0
 21 19  1  0
 21 22  2  0
 24 23  1  1
 24 25  1  0
 26 24  1  0
 27 28  1  0
 27 26  1  6
 28 21  1  0
 29 27  1  0
 30 29  2  0
 31 29  1  0
M  END
$$$$
