FRL.pdb
     RDKit          3D

 31 31  0  0  1  0  0  0  0  0999 V2000
    6.3975  -17.0001   27.0337 N   0  0  0  0  0  0  0  0  0  0  0  0
    6.1180  -17.1574   25.6258 C   0  0  1  0  0  0  0  0  0  0  0  0
    5.4525  -15.8831   25.1364 C   0  0  0  0  0  0  0  0  0  0  0  0
    6.0648  -14.6659   25.7180 C   0  0  0  0  0  0  0  0  0  0  0  0
    5.5240  -13.4280   25.3554 C   0  0  0  0  0  0  0  0  0  0  0  0
    6.0729  -12.3039   25.8823 C   0  0  0  0  0  0  0  0  0  0  0  0
    7.1352  -12.3981   26.7506 C   0  0  0  0  0  0  0  0  0  0  0  0
    7.6721  -13.6206   27.1109 C   0  0  0  0  0  0  0  0  0  0  0  0
    7.1218  -14.7910   26.5800 C   0  0  0  0  0  0  0  0  0  0  0  0
    7.3382  -17.3337   24.8102 C   0  0  0  0  0  0  0  0  0  0  0  0
    8.1583  -18.2033   25.2206 O   0  0  0  0  0  0  0  0  0  0  0  0
    8.4681  -13.8731   16.9889 N   0  0  0  0  0  0  0  0  0  0  0  0
    8.9360  -13.2233   18.1608 C   0  0  0  0  0  0  0  0  0  0  0  0
    9.0686  -11.9461   18.1455 N   0  0  0  0  0  0  0  0  0  0  0  0
    9.2418  -13.9927   19.3008 N   0  0  0  0  0  0  0  0  0  0  0  0
    9.2401  -15.4308   19.2780 C   0  0  0  0  0  0  0  0  0  0  0  0
    9.6820  -16.0140   20.6143 C   0  0  0  0  0  0  0  0  0  0  0  0
    8.5239  -16.0333   21.5609 C   0  0  0  0  0  0  0  0  0  0  0  0
    8.7944  -16.7605   22.8762 C   0  0  2  0  0  0  0  0  0  0  0  0
    7.5490  -16.5637   23.6456 N   0  0  0  0  0  0  0  0  0  0  0  0
    9.8846  -16.0980   23.6172 C   0  0  0  0  0  0  0  0  0  0  0  0
    9.9529  -14.8288   23.5513 O   0  0  0  0  0  0  0  0  0  0  0  0
    9.4314  -11.4588   18.9844 C   0  0  0  0  0  0  0  0  0  0  0  0
   11.5214  -13.4662   27.4690 C   0  0  2  0  0  0  0  0  0  0  0  0
   10.9852  -14.8425   27.7021 C   0  0  0  0  0  0  0  0  0  0  0  0
    9.9396  -14.8271   28.8167 C   0  0  0  0  0  0  0  0  0  0  0  0
   10.4423  -15.5138   26.4770 C   0  0  1  0  0  0  0  0  0  0  0  0
   11.4600  -16.0831   25.5428 N   0  0  0  0  0  0  0  0  0  0  0  0
   10.8603  -16.7311   24.3943 C   0  0  0  0  0  0  0  0  0  0  0  0
   12.4563  -16.9423   26.2160 O   0  0  0  0  0  0  0  0  0  0  0  0
   13.6267  -16.5481   26.3986 O   0  0  0  0  0  0  0  0  0  0  0  0
  2  1  1  1
  3  4  1  0
  3  2  1  0
  4  9  2  0
  5  6  2  0
  5  4  1  0
  6  7  1  0
  7  8  2  0
  9  8  1  0
 10  2  1  0
 10 20  1  0
 11 10  2  0
 13 15  1  0
 13 12  1  0
 14 13  2  0
 16 15  1  0
 16 17  1  0
 18 17  1  0
 19 18  1  6
 20 19  1  0
 21 19  1  0
 21 22  2  0
 24 23  1  1
 24 25  1  0
 26 24  1  0
 27 28  1  0
 27 26  1  6
 28 21  1  0
 29 27  1  0
 30 29  2  0
 31 29  1  0
M  END
$$$$
