FRL.pdb
     RDKit          3D

 31 31  0  0  1  0  0  0  0  0999 V2000
    5.6590  -17.7586   26.1519 N   0  0  0  0  0  0  0  0  0  0  0  0
    6.4395  -16.7597   25.4606 C   0  0  1  0  0  0  0  0  0  0  0  0
    6.8306  -15.6928   26.4680 C   0  0  0  0  0  0  0  0  0  0  0  0
    6.3126  -14.3536   26.1034 C   0  0  0  0  0  0  0  0  0  0  0  0
    4.9319  -14.2147   25.9287 C   0  0  0  0  0  0  0  0  0  0  0  0
    4.4422  -12.9931   25.5970 C   0  0  0  0  0  0  0  0  0  0  0  0
    5.2977  -11.9277   25.4405 C   0  0  0  0  0  0  0  0  0  0  0  0
    6.6632  -12.0618   25.6125 C   0  0  0  0  0  0  0  0  0  0  0  0
    7.1887  -13.3113   25.9545 C   0  0  0  0  0  0  0  0  0  0  0  0
    7.7004  -17.2941   24.9041 C   0  0  0  0  0  0  0  0  0  0  0  0
    8.2378  -18.2356   25.5537 O   0  0  0  0  0  0  0  0  0  0  0  0
   10.5518  -12.9377   19.5414 N   0  0  0  0  0  0  0  0  0  0  0  0
    9.1575  -12.9044   19.8051 C   0  0  0  0  0  0  0  0  0  0  0  0
    8.6375  -11.8105   20.2319 N   0  0  0  0  0  0  0  0  0  0  0  0
    8.3877  -14.0654   19.5944 N   0  0  0  0  0  0  0  0  0  0  0  0
    8.8818  -15.3797   19.9064 C   0  0  0  0  0  0  0  0  0  0  0  0
    8.9411  -15.6147   21.4106 C   0  0  0  0  0  0  0  0  0  0  0  0
    9.4288  -17.0023   21.6828 C   0  0  0  0  0  0  0  0  0  0  0  0
    9.4749  -17.3774   23.1624 C   0  0  2  0  0  0  0  0  0  0  0  0
    8.2491  -16.7661   23.7151 N   0  0  0  0  0  0  0  0  0  0  0  0
   10.6283  -16.7357   23.8215 C   0  0  0  0  0  0  0  0  0  0  0  0
   11.3837  -16.0054   23.1032 O   0  0  0  0  0  0  0  0  0  0  0  0
    7.6233  -11.7722   20.4388 C   0  0  0  0  0  0  0  0  0  0  0  0
   11.0417  -14.3614   28.6518 C   0  0  1  0  0  0  0  0  0  0  0  0
   11.2585  -14.7527   27.2249 C   0  0  0  0  0  0  0  0  0  0  0  0
   11.6566  -13.5351   26.3914 C   0  0  0  0  0  0  0  0  0  0  0  0
   12.2372  -15.8707   27.0288 C   0  0  2  0  0  0  0  0  0  0  0  0
   12.2861  -16.4584   25.6559 N   0  0  0  0  0  0  0  0  0  0  0  0
   10.9781  -16.8493   25.1711 C   0  0  0  0  0  0  0  0  0  0  0  0
   13.2829  -17.5406   25.5179 O   0  0  0  0  0  0  0  0  0  0  0  0
   12.9312  -18.7089   25.2534 O   0  0  0  0  0  0  0  0  0  0  0  0
  2  1  1  1
  3  4  1  0
  3  2  1  0
  4  9  2  0
  5  6  2  0
  5  4  1  0
  6  7  1  0
  7  8  2  0
  9  8  1  0
 10  2  1  0
 10 20  1  0
 11 10  2  0
 13 15  1  0
 13 12  1  0
 14 13  2  0
 16 15  1  0
 16 17  1  0
 18 17  1  0
 19 18  1  6
 20 19  1  0
 21 19  1  0
 21 22  2  0
 24 23  1  6
 24 25  1  0
 26 24  1  0
 27 28  1  0
 27 26  1  6
 28 21  1  0
 29 27  1  0
 30 29  2  0
 31 29  1  0
M  END
$$$$
