FRL.pdb
     RDKit          3D

 31 31  0  0  1  0  0  0  0  0999 V2000
    5.3129  -17.3831   24.5899 N   0  0  0  0  0  0  0  0  0  0  0  0
    6.4841  -16.5389   24.5698 C   0  0  1  0  0  0  0  0  0  0  0  0
    6.6281  -15.9067   25.9430 C   0  0  0  0  0  0  0  0  0  0  0  0
    6.6477  -14.4264   25.8849 C   0  0  0  0  0  0  0  0  0  0  0  0
    7.5140  -13.8220   24.9681 C   0  0  0  0  0  0  0  0  0  0  0  0
    7.5412  -12.4667   24.9017 C   0  0  0  0  0  0  0  0  0  0  0  0
    6.7294  -11.7205   25.7236 C   0  0  0  0  0  0  0  0  0  0  0  0
    5.8718  -12.3151   26.6310 C   0  0  0  0  0  0  0  0  0  0  0  0
    5.8279  -13.7099   26.7158 C   0  0  0  0  0  0  0  0  0  0  0  0
    7.7333  -17.2888   24.3200 C   0  0  0  0  0  0  0  0  0  0  0  0
    7.8383  -18.4024   24.9084 O   0  0  0  0  0  0  0  0  0  0  0  0
    9.8235  -13.0310   19.3880 N   0  0  0  0  0  0  0  0  0  0  0  0
    8.5889  -13.3728   19.9991 C   0  0  0  0  0  0  0  0  0  0  0  0
    7.7113  -12.4513   20.1718 N   0  0  0  0  0  0  0  0  0  0  0  0
    8.3622  -14.7047   20.3986 N   0  0  0  0  0  0  0  0  0  0  0  0
    9.4245  -15.6707   20.4838 C   0  0  0  0  0  0  0  0  0  0  0  0
   10.2235  -15.5142   21.7716 C   0  0  0  0  0  0  0  0  0  0  0  0
   10.7311  -16.8503   22.2127 C   0  0  0  0  0  0  0  0  0  0  0  0
   10.0733  -17.3892   23.4811 C   0  0  2  0  0  0  0  0  0  0  0  0
    8.7328  -16.7690   23.4689 N   0  0  0  0  0  0  0  0  0  0  0  0
   10.7806  -16.8966   24.6783 C   0  0  0  0  0  0  0  0  0  0  0  0
   11.7642  -16.1094   24.4971 O   0  0  0  0  0  0  0  0  0  0  0  0
    6.8135  -12.6794   20.6350 C   0  0  0  0  0  0  0  0  0  0  0  0
    8.6847  -14.4729   28.4062 C   0  0  1  0  0  0  0  0  0  0  0  0
    9.8006  -14.8928   27.5037 C   0  0  0  0  0  0  0  0  0  0  0  0
   10.6000  -13.6755   27.0402 C   0  0  0  0  0  0  0  0  0  0  0  0
   10.7104  -15.9335   28.0830 C   0  0  2  0  0  0  0  0  0  0  0  0
   11.3581  -16.8516   27.0980 N   0  0  0  0  0  0  0  0  0  0  0  0
   10.4749  -17.2098   26.0069 C   0  0  0  0  0  0  0  0  0  0  0  0
   11.9848  -18.0341   27.7248 O   0  0  0  0  0  0  0  0  0  0  0  0
   12.8719  -17.9068   28.5940 O   0  0  0  0  0  0  0  0  0  0  0  0
  2  1  1  1
  3  4  1  0
  3  2  1  0
  4  9  2  0
  5  6  2  0
  5  4  1  0
  6  7  1  0
  7  8  2  0
  9  8  1  0
 10  2  1  0
 10 20  1  0
 11 10  2  0
 13 15  1  0
 13 12  1  0
 14 13  2  0
 16 15  1  0
 16 17  1  0
 18 17  1  0
 19 18  1  6
 20 19  1  0
 21 19  1  0
 21 22  2  0
 24 23  1  6
 24 25  1  0
 26 24  1  0
 27 28  1  0
 27 26  1  6
 28 21  1  0
 29 27  1  0
 30 29  2  0
 31 29  1  0
M  END
$$$$
