FRL.pdb
     RDKit          3D

 31 31  0  0  1  0  0  0  0  0999 V2000
    5.6579  -16.1808   25.3571 N   0  0  0  0  0  0  0  0  0  0  0  0
    6.8462  -15.6791   24.7083 C   0  0  1  0  0  0  0  0  0  0  0  0
    7.4897  -14.6617   25.6340 C   0  0  0  0  0  0  0  0  0  0  0  0
    6.8759  -13.3188   25.5127 C   0  0  0  0  0  0  0  0  0  0  0  0
    5.8343  -12.9972   26.3890 C   0  0  0  0  0  0  0  0  0  0  0  0
    5.2637  -11.7696   26.2915 C   0  0  0  0  0  0  0  0  0  0  0  0
    5.7114  -10.8751   25.3476 C   0  0  0  0  0  0  0  0  0  0  0  0
    6.7410  -11.1901   24.4798 C   0  0  0  0  0  0  0  0  0  0  0  0
    7.3429  -12.4492   24.5631 C   0  0  0  0  0  0  0  0  0  0  0  0
    7.8600  -16.7276   24.4673 C   0  0  0  0  0  0  0  0  0  0  0  0
    7.8185  -17.7267   25.2401 O   0  0  0  0  0  0  0  0  0  0  0  0
   14.3783  -17.4676   19.9167 N   0  0  0  0  0  0  0  0  0  0  0  0
   14.0520  -18.7831   19.4949 C   0  0  0  0  0  0  0  0  0  0  0  0
   14.9992  -19.5568   19.1032 N   0  0  0  0  0  0  0  0  0  0  0  0
   12.7066  -19.2005   19.5158 N   0  0  0  0  0  0  0  0  0  0  0  0
   11.6413  -18.3323   19.9404 C   0  0  0  0  0  0  0  0  0  0  0  0
   11.3976  -18.4351   21.4408 C   0  0  0  0  0  0  0  0  0  0  0  0
   10.2915  -17.5081   21.8342 C   0  0  0  0  0  0  0  0  0  0  0  0
    9.8703  -17.6119   23.2984 C   0  0  2  0  0  0  0  0  0  0  0  0
    8.8062  -16.5956   23.4276 N   0  0  0  0  0  0  0  0  0  0  0  0
   10.9795  -17.2098   24.1840 C   0  0  0  0  0  0  0  0  0  0  0  0
   11.5524  -16.0995   23.9408 O   0  0  0  0  0  0  0  0  0  0  0  0
   14.7741  -20.5060   18.7551 C   0  0  0  0  0  0  0  0  0  0  0  0
   12.1572  -14.3434   28.0407 C   0  0  2  0  0  0  0  0  0  0  0  0
   11.1289  -15.4257   28.1266 C   0  0  0  0  0  0  0  0  0  0  0  0
    9.8258  -14.8798   28.7093 C   0  0  0  0  0  0  0  0  0  0  0  0
   10.8715  -16.1424   26.8357 C   0  0  1  0  0  0  0  0  0  0  0  0
   11.7777  -17.2928   26.5390 N   0  0  0  0  0  0  0  0  0  0  0  0
   11.4693  -17.9329   25.2766 C   0  0  0  0  0  0  0  0  0  0  0  0
   11.8766  -18.2614   27.6508 O   0  0  0  0  0  0  0  0  0  0  0  0
   10.9234  -19.0170   27.9321 O   0  0  0  0  0  0  0  0  0  0  0  0
  2  1  1  1
  3  4  1  0
  3  2  1  0
  4  9  2  0
  5  6  2  0
  5  4  1  0
  6  7  1  0
  7  8  2  0
  9  8  1  0
 10  2  1  0
 10 20  1  0
 11 10  2  0
 13 15  1  0
 13 12  1  0
 14 13  2  0
 16 15  1  0
 16 17  1  0
 18 17  1  0
 19 18  1  6
 20 19  1  0
 21 19  1  0
 21 22  2  0
 24 23  1  1
 24 25  1  0
 26 24  1  0
 27 28  1  0
 27 26  1  6
 28 21  1  0
 29 27  1  0
 30 29  2  0
 31 29  1  0
M  END
$$$$
