FRL.pdb
     RDKit          3D

 31 31  0  0  1  0  0  0  0  0999 V2000
    6.1481  -18.0681   19.9114 N   0  0  0  0  0  0  0  0  0  0  0  0
    6.9734  -16.9349   20.2571 C   0  0  1  0  0  0  0  0  0  0  0  0
    6.0551  -15.7880   20.6413 C   0  0  0  0  0  0  0  0  0  0  0  0
    6.7969  -14.5327   20.9031 C   0  0  0  0  0  0  0  0  0  0  0  0
    6.9738  -14.1465   22.2357 C   0  0  0  0  0  0  0  0  0  0  0  0
    7.6537  -12.9999   22.4913 C   0  0  0  0  0  0  0  0  0  0  0  0
    8.1503  -12.2477   21.4525 C   0  0  0  0  0  0  0  0  0  0  0  0
    7.9771  -12.6269   20.1339 C   0  0  0  0  0  0  0  0  0  0  0  0
    7.2799  -13.8045   19.8483 C   0  0  0  0  0  0  0  0  0  0  0  0
    7.8418  -17.1871   21.4265 C   0  0  0  0  0  0  0  0  0  0  0  0
    7.2883  -17.7404   22.4188 O   0  0  0  0  0  0  0  0  0  0  0  0
   13.3403  -18.2117   18.2734 N   0  0  0  0  0  0  0  0  0  0  0  0
   12.4201  -19.2885   18.3645 C   0  0  0  0  0  0  0  0  0  0  0  0
   11.7415  -19.6085   17.3222 N   0  0  0  0  0  0  0  0  0  0  0  0
   12.2761  -19.9713   19.5885 N   0  0  0  0  0  0  0  0  0  0  0  0
   12.1092  -19.2782   20.8377 C   0  0  0  0  0  0  0  0  0  0  0  0
   11.6318  -17.8469   20.6261 C   0  0  0  0  0  0  0  0  0  0  0  0
   11.4783  -17.1682   21.9502 C   0  0  0  0  0  0  0  0  0  0  0  0
   10.0689  -17.2334   22.5344 C   0  0  2  0  0  0  0  0  0  0  0  0
    9.2057  -16.8223   21.4085 N   0  0  0  0  0  0  0  0  0  0  0  0
    9.9081  -16.2330   23.6066 C   0  0  0  0  0  0  0  0  0  0  0  0
   10.2077  -15.0264   23.3339 O   0  0  0  0  0  0  0  0  0  0  0  0
   11.0277  -20.3563   17.3856 C   0  0  0  0  0  0  0  0  0  0  0  0
    9.0863  -12.2969   26.5976 C   0  0  2  0  0  0  0  0  0  0  0  0
    8.0069  -13.3249   26.4785 C   0  0  0  0  0  0  0  0  0  0  0  0
    6.6623  -12.6574   26.1920 C   0  0  0  0  0  0  0  0  0  0  0  0
    8.2850  -14.4050   25.4773 C   0  0  1  0  0  0  0  0  0  0  0  0
    9.3097  -15.4155   25.8791 N   0  0  0  0  0  0  0  0  0  0  0  0
    9.4534  -16.4794   24.9063 C   0  0  0  0  0  0  0  0  0  0  0  0
    9.1169  -15.9307   27.2507 O   0  0  0  0  0  0  0  0  0  0  0  0
    9.6553  -15.3724   28.2290 O   0  0  0  0  0  0  0  0  0  0  0  0
  2  1  1  1
  3  4  1  0
  3  2  1  0
  4  9  2  0
  5  6  2  0
  5  4  1  0
  6  7  1  0
  7  8  2  0
  9  8  1  0
 10  2  1  0
 10 20  1  0
 11 10  2  0
 13 15  1  0
 13 12  1  0
 14 13  2  0
 16 15  1  0
 16 17  1  0
 18 17  1  0
 19 18  1  6
 20 19  1  0
 21 19  1  0
 21 22  2  0
 24 23  1  1
 24 25  1  0
 26 24  1  0
 27 28  1  0
 27 26  1  6
 28 21  1  0
 29 27  1  0
 30 29  2  0
 31 29  1  0
M  END
$$$$
