FRL.pdb
     RDKit          3D

 31 31  0  0  1  0  0  0  0  0999 V2000
    6.0194  -20.4238   22.5640 N   0  0  0  0  0  0  0  0  0  0  0  0
    6.3187  -19.3971   23.5342 C   0  0  1  0  0  0  0  0  0  0  0  0
    6.8747  -20.0742   24.7746 C   0  0  0  0  0  0  0  0  0  0  0  0
    7.0387  -19.1332   25.9071 C   0  0  0  0  0  0  0  0  0  0  0  0
    7.7040  -19.5959   27.0471 C   0  0  0  0  0  0  0  0  0  0  0  0
    7.8641  -18.7445   28.0919 C   0  0  0  0  0  0  0  0  0  0  0  0
    7.3776  -17.4604   28.0146 C   0  0  0  0  0  0  0  0  0  0  0  0
    6.7194  -17.0000   26.8889 C   0  0  0  0  0  0  0  0  0  0  0  0
    6.5437  -17.8606   25.8012 C   0  0  0  0  0  0  0  0  0  0  0  0
    7.3554  -18.4499   23.0727 C   0  0  0  0  0  0  0  0  0  0  0  0
    8.5205  -18.9226   22.9445 O   0  0  0  0  0  0  0  0  0  0  0  0
    8.5879  -12.6603   17.3716 N   0  0  0  0  0  0  0  0  0  0  0  0
    7.8608  -13.7956   17.8155 C   0  0  0  0  0  0  0  0  0  0  0  0
    8.0926  -14.9306   17.2611 N   0  0  0  0  0  0  0  0  0  0  0  0
    6.9098  -13.6469   18.8442 N   0  0  0  0  0  0  0  0  0  0  0  0
    7.2498  -13.0957   20.1285 C   0  0  0  0  0  0  0  0  0  0  0  0
    8.1319  -14.0441   20.9307 C   0  0  0  0  0  0  0  0  0  0  0  0
    7.2914  -15.1294   21.5249 C   0  0  0  0  0  0  0  0  0  0  0  0
    8.0824  -16.2190   22.2453 C   0  0  2  0  0  0  0  0  0  0  0  0
    7.0353  -17.1025   22.7973 N   0  0  0  0  0  0  0  0  0  0  0  0
    8.8283  -15.6483   23.3830 C   0  0  0  0  0  0  0  0  0  0  0  0
   10.0121  -15.2363   23.1619 O   0  0  0  0  0  0  0  0  0  0  0  0
    7.5364  -15.7591   17.5385 C   0  0  0  0  0  0  0  0  0  0  0  0
    6.3429  -12.6177   27.0679 C   0  0  1  0  0  0  0  0  0  0  0  0
    7.2185  -13.3158   26.0769 C   0  0  0  0  0  0  0  0  0  0  0  0
    7.7339  -12.3286   25.0303 C   0  0  0  0  0  0  0  0  0  0  0  0
    8.3535  -14.0842   26.6832 C   0  0  2  0  0  0  0  0  0  0  0  0
    9.1655  -14.9025   25.7326 N   0  0  0  0  0  0  0  0  0  0  0  0
    8.3599  -15.5116   24.6940 C   0  0  0  0  0  0  0  0  0  0  0  0
   10.0459  -15.8797   26.4063 O   0  0  0  0  0  0  0  0  0  0  0  0
    9.9852  -17.0961   26.1320 O   0  0  0  0  0  0  0  0  0  0  0  0
  2  1  1  6
  3  4  1  0
  3  2  1  0
  4  9  2  0
  5  6  2  0
  5  4  1  0
  6  7  1  0
  7  8  2  0
  9  8  1  0
 10  2  1  0
 10 20  1  0
 11 10  2  0
 13 15  1  0
 13 12  1  0
 14 13  2  0
 16 15  1  0
 16 17  1  0
 18 17  1  0
 19 18  1  1
 20 19  1  0
 21 19  1  0
 21 22  2  0
 24 23  1  6
 24 25  1  0
 26 24  1  0
 27 28  1  0
 27 26  1  6
 28 21  1  0
 29 27  1  0
 30 29  2  0
 31 29  1  0
M  END
$$$$
