DWA.pdb
     RDKit          3D

 28 29  0  0  1  0  0  0  0  0999 V2000
   28.2863  -19.9932  -14.2675 N   0  0  0  0  0  0  0  0  0  0  0  0
   27.3090  -20.8930  -14.8074 C   0  0  1  0  0  0  0  0  0  0  0  0
   28.0597  -22.1068  -15.3212 C   0  0  0  0  0  0  0  0  0  0  0  0
   28.9140  -21.7204  -16.4453 C   0  0  0  0  0  0  0  0  0  0  0  0
   28.5595  -20.7565  -17.1720 O   0  0  0  0  0  0  0  0  0  0  0  0
   26.2996  -21.3008  -13.7856 C   0  0  0  0  0  0  0  0  0  0  0  0
   25.6671  -22.3816  -13.9235 O   0  0  0  0  0  0  0  0  0  0  0  0
   30.1050  -22.3538  -16.7689 O   0  0  0  0  0  0  0  0  0  0  0  0
   26.0005  -20.5228  -12.6350 N   0  0  0  0  0  0  0  0  0  0  0  0
   24.9505  -20.9225  -11.6683 C   0  0  1  0  0  0  0  0  0  0  0  0
   25.3074  -20.3815  -10.3150 C   0  0  0  0  0  0  0  0  0  0  0  0
   26.6410  -20.7922   -9.8379 C   0  0  0  0  0  0  0  0  0  0  0  0
   27.5140  -21.6536  -10.5247 C   0  0  0  0  0  0  0  0  0  0  0  0
   28.6227  -21.8426   -9.7956 N   0  0  0  0  0  0  0  0  0  0  0  0
   28.5458  -21.1470   -8.6402 C   0  0  0  0  0  0  0  0  0  0  0  0
   29.4343  -21.0156   -7.5928 C   0  0  0  0  0  0  0  0  0  0  0  0
   29.0626  -20.1990   -6.5465 C   0  0  0  0  0  0  0  0  0  0  0  0
   27.8406  -19.5365   -6.5515 C   0  0  0  0  0  0  0  0  0  0  0  0
   26.9731  -19.6831   -7.6038 C   0  0  0  0  0  0  0  0  0  0  0  0
   27.3217  -20.4979   -8.6665 C   0  0  0  0  0  0  0  0  0  0  0  0
   23.6212  -20.6525  -12.1789 C   0  0  0  0  0  0  0  0  0  0  0  0
   23.1386  -19.5127  -12.3607 O   0  0  0  0  0  0  0  0  0  0  0  0
   20.9720  -22.7917  -13.7423 C   0  0  0  0  0  0  0  0  0  0  0  0
   21.4218  -21.5039  -13.1024 C   0  0  2  0  0  0  0  0  0  0  0  0
   22.7346  -21.7400  -12.5238 N   0  0  0  0  0  0  0  0  0  0  0  0
   20.5014  -21.0567  -12.0298 C   0  0  0  0  0  0  0  0  0  0  0  0
   19.5045  -20.3416  -12.3077 O   0  0  0  0  0  0  0  0  0  0  0  0
   20.6944  -21.3996  -10.6967 O   0  0  0  0  0  0  0  0  0  0  0  0
  2  1  1  1
  2  6  1  0
  2  3  1  0
  3  4  1  0
  4  5  2  0
  4  8  1  0
  6  7  2  0
  9 10  1  0
  9  6  1  0
 10 11  1  1
 12 11  1  0
 13 12  2  0
 14 13  1  0
 15 14  1  0
 15 20  2  0
 16 15  1  0
 17 16  2  0
 17 18  1  0
 18 19  2  0
 19 20  1  0
 20 12  1  0
 21 22  2  0
 21 10  1  0
 24 23  1  1
 24 26  1  0
 24 25  1  0
 25 21  1  0
 26 28  1  0
 27 26  2  0
M  END
$$$$
