DWA.pdb
     RDKit          3D

 28 29  0  0  1  0  0  0  0  0999 V2000
   29.0436  -20.0633  -15.2699 N   0  0  0  0  0  0  0  0  0  0  0  0
   27.7550  -20.3875  -15.8092 C   0  0  1  0  0  0  0  0  0  0  0  0
   27.9855  -21.3431  -16.9644 C   0  0  0  0  0  0  0  0  0  0  0  0
   28.6960  -20.6532  -18.0424 C   0  0  0  0  0  0  0  0  0  0  0  0
   28.9575  -19.4298  -17.9096 O   0  0  0  0  0  0  0  0  0  0  0  0
   26.8629  -21.0126  -14.7881 C   0  0  0  0  0  0  0  0  0  0  0  0
   25.7609  -21.5129  -15.1384 O   0  0  0  0  0  0  0  0  0  0  0  0
   29.1067  -21.2652  -19.2177 O   0  0  0  0  0  0  0  0  0  0  0  0
   27.1899  -21.0798  -13.4071 N   0  0  0  0  0  0  0  0  0  0  0  0
   26.2382  -21.6055  -12.3997 C   0  0  1  0  0  0  0  0  0  0  0  0
   26.9939  -21.9350  -11.1459 C   0  0  0  0  0  0  0  0  0  0  0  0
   26.6690  -21.0614  -10.0031 C   0  0  0  0  0  0  0  0  0  0  0  0
   25.4408  -20.4049   -9.8125 C   0  0  0  0  0  0  0  0  0  0  0  0
   25.4955  -19.6677   -8.6944 N   0  0  0  0  0  0  0  0  0  0  0  0
   26.7078  -19.7926   -8.1118 C   0  0  0  0  0  0  0  0  0  0  0  0
   27.2247  -19.2483   -6.9541 C   0  0  0  0  0  0  0  0  0  0  0  0
   28.5147  -19.5942   -6.6134 C   0  0  0  0  0  0  0  0  0  0  0  0
   29.2605  -20.4573   -7.4078 C   0  0  0  0  0  0  0  0  0  0  0  0
   28.7254  -20.9856   -8.5550 C   0  0  0  0  0  0  0  0  0  0  0  0
   27.4327  -20.6538   -8.9201 C   0  0  0  0  0  0  0  0  0  0  0  0
   25.0627  -20.7658  -12.2836 C   0  0  0  0  0  0  0  0  0  0  0  0
   25.0774  -19.5355  -12.0568 O   0  0  0  0  0  0  0  0  0  0  0  0
   22.5387  -20.0638  -14.0567 C   0  0  0  0  0  0  0  0  0  0  0  0
   22.5660  -20.4956  -12.6134 C   0  0  2  0  0  0  0  0  0  0  0  0
   23.7414  -21.3317  -12.4307 N   0  0  0  0  0  0  0  0  0  0  0  0
   21.3629  -21.2752  -12.2360 C   0  0  0  0  0  0  0  0  0  0  0  0
   21.3920  -22.5327  -12.2524 O   0  0  0  0  0  0  0  0  0  0  0  0
   20.1735  -20.6651  -11.8554 O   0  0  0  0  0  0  0  0  0  0  0  0
  2  1  1  1
  2  6  1  0
  2  3  1  0
  3  4  1  0
  4  5  2  0
  4  8  1  0
  6  7  2  0
  9 10  1  0
  9  6  1  0
 10 11  1  1
 12 11  1  0
 13 12  2  0
 14 13  1  0
 15 14  1  0
 15 20  2  0
 16 15  1  0
 17 16  2  0
 17 18  1  0
 18 19  2  0
 19 20  1  0
 20 12  1  0
 21 22  2  0
 21 10  1  0
 24 23  1  6
 24 26  1  0
 24 25  1  0
 25 21  1  0
 26 28  1  0
 27 26  2  0
M  END
$$$$
