DWA.pdb
     RDKit          3D

 28 29  0  0  1  0  0  0  0  0999 V2000
   20.7650   -9.6262  -17.9531 N   0  0  0  0  0  0  0  0  0  0  0  0
   20.9040   -8.2208  -18.2019 C   0  0  1  0  0  0  0  0  0  0  0  0
   19.9899   -7.8838  -19.3645 C   0  0  0  0  0  0  0  0  0  0  0  0
   20.5339   -8.4479  -20.6008 C   0  0  0  0  0  0  0  0  0  0  0  0
   21.7535   -8.7542  -20.6415 O   0  0  0  0  0  0  0  0  0  0  0  0
   20.5455   -7.4031  -17.0053 C   0  0  0  0  0  0  0  0  0  0  0  0
   19.5783   -7.7481  -16.2752 O   0  0  0  0  0  0  0  0  0  0  0  0
   19.7857   -8.6711  -21.7475 O   0  0  0  0  0  0  0  0  0  0  0  0
   21.2479   -6.2269  -16.6289 N   0  0  0  0  0  0  0  0  0  0  0  0
   20.8412   -5.4093  -15.4615 C   0  0  1  0  0  0  0  0  0  0  0  0
   21.9189   -5.4832  -14.4199 C   0  0  0  0  0  0  0  0  0  0  0  0
   22.1775   -6.8466  -13.9207 C   0  0  0  0  0  0  0  0  0  0  0  0
   21.3926   -7.5201  -12.9688 C   0  0  0  0  0  0  0  0  0  0  0  0
   21.9274   -8.7232  -12.7173 N   0  0  0  0  0  0  0  0  0  0  0  0
   23.0437   -8.9016  -13.4568 C   0  0  0  0  0  0  0  0  0  0  0  0
   23.9141   -9.9678  -13.5532 C   0  0  0  0  0  0  0  0  0  0  0  0
   24.9681   -9.8465  -14.4331 C   0  0  0  0  0  0  0  0  0  0  0  0
   25.1424   -8.6941  -15.1905 C   0  0  0  0  0  0  0  0  0  0  0  0
   24.2643   -7.6465  -15.0771 C   0  0  0  0  0  0  0  0  0  0  0  0
   23.1980   -7.7424  -14.2004 C   0  0  0  0  0  0  0  0  0  0  0  0
   20.3730   -4.0977  -15.8627 C   0  0  0  0  0  0  0  0  0  0  0  0
   21.1051   -3.1612  -16.2527 O   0  0  0  0  0  0  0  0  0  0  0  0
   16.9511   -2.5747  -16.2684 C   0  0  0  0  0  0  0  0  0  0  0  0
   18.4558   -2.4969  -16.2832 C   0  0  2  0  0  0  0  0  0  0  0  0
   18.9632   -3.7829  -15.8330 N   0  0  0  0  0  0  0  0  0  0  0  0
   18.9737   -1.4385  -15.3837 C   0  0  0  0  0  0  0  0  0  0  0  0
   19.1747   -1.6840  -14.1664 O   0  0  0  0  0  0  0  0  0  0  0  0
   19.2545   -0.1542  -15.8348 O   0  0  0  0  0  0  0  0  0  0  0  0
  2  1  1  1
  2  6  1  0
  2  3  1  0
  3  4  1  0
  4  5  2  0
  4  8  1  0
  6  7  2  0
  9 10  1  0
  9  6  1  0
 10 11  1  1
 12 11  1  0
 13 12  2  0
 14 13  1  0
 15 14  1  0
 15 20  2  0
 16 15  1  0
 17 16  2  0
 17 18  1  0
 18 19  2  0
 19 20  1  0
 20 12  1  0
 21 22  2  0
 21 10  1  0
 24 23  1  1
 24 26  1  0
 24 25  1  0
 25 21  1  0
 26 28  1  0
 27 26  2  0
M  END
$$$$
