DWA.pdb
     RDKit          3D

 28 29  0  0  1  0  0  0  0  0999 V2000
   27.8967  -19.9497  -14.7827 N   0  0  0  0  0  0  0  0  0  0  0  0
   27.2219  -21.1989  -14.9845 C   0  0  1  0  0  0  0  0  0  0  0  0
   28.2914  -22.2704  -15.0790 C   0  0  0  0  0  0  0  0  0  0  0  0
   29.0261  -22.1260  -16.3368 C   0  0  0  0  0  0  0  0  0  0  0  0
   28.4275  -21.6525  -17.3369 O   0  0  0  0  0  0  0  0  0  0  0  0
   26.2738  -21.5080  -13.8733 C   0  0  0  0  0  0  0  0  0  0  0  0
   25.7152  -22.6360  -13.8193 O   0  0  0  0  0  0  0  0  0  0  0  0
   30.3567  -22.4808  -16.5039 O   0  0  0  0  0  0  0  0  0  0  0  0
   25.9540  -20.5820  -12.8443 N   0  0  0  0  0  0  0  0  0  0  0  0
   24.9098  -20.8641  -11.8310 C   0  0  1  0  0  0  0  0  0  0  0  0
   25.3095  -20.2251  -10.5334 C   0  0  0  0  0  0  0  0  0  0  0  0
   26.6040  -20.6963  -10.0070 C   0  0  0  0  0  0  0  0  0  0  0  0
   27.4900  -21.5491  -10.6877 C   0  0  0  0  0  0  0  0  0  0  0  0
   28.5522  -21.8043   -9.9110 N   0  0  0  0  0  0  0  0  0  0  0  0
   28.4310  -21.1620   -8.7288 C   0  0  0  0  0  0  0  0  0  0  0  0
   29.2645  -21.1060   -7.6307 C   0  0  0  0  0  0  0  0  0  0  0  0
   28.8583  -20.3292   -6.5671 C   0  0  0  0  0  0  0  0  0  0  0  0
   27.6561  -19.6322   -6.6044 C   0  0  0  0  0  0  0  0  0  0  0  0
   26.8435  -19.7039   -7.7071 C   0  0  0  0  0  0  0  0  0  0  0  0
   27.2276  -20.4773   -8.7882 C   0  0  0  0  0  0  0  0  0  0  0  0
   23.5807  -20.5923  -12.3410 C   0  0  0  0  0  0  0  0  0  0  0  0
   23.1269  -19.4545  -12.5953 O   0  0  0  0  0  0  0  0  0  0  0  0
   20.9487  -22.6073  -13.9767 C   0  0  0  0  0  0  0  0  0  0  0  0
   21.3176  -21.4360  -13.1036 C   0  0  2  0  0  0  0  0  0  0  0  0
   22.6593  -21.6754  -12.5971 N   0  0  0  0  0  0  0  0  0  0  0  0
   20.3950  -21.2781  -11.9540 C   0  0  0  0  0  0  0  0  0  0  0  0
   19.2360  -20.8218  -12.1297 O   0  0  0  0  0  0  0  0  0  0  0  0
   20.7612  -21.6195  -10.6574 O   0  0  0  0  0  0  0  0  0  0  0  0
  2  1  1  1
  2  6  1  0
  2  3  1  0
  3  4  1  0
  4  5  2  0
  4  8  1  0
  6  7  2  0
  9 10  1  0
  9  6  1  0
 10 11  1  1
 12 11  1  0
 13 12  2  0
 14 13  1  0
 15 14  1  0
 15 20  2  0
 16 15  1  0
 17 16  2  0
 17 18  1  0
 18 19  2  0
 19 20  1  0
 20 12  1  0
 21 22  2  0
 21 10  1  0
 24 23  1  6
 24 26  1  0
 24 25  1  0
 25 21  1  0
 26 28  1  0
 27 26  2  0
M  END
$$$$
