DWA.pdb
     RDKit          3D

 28 29  0  0  1  0  0  0  0  0999 V2000
   19.7497  -11.2351  -18.4140 N   0  0  0  0  0  0  0  0  0  0  0  0
   19.7725  -11.3962  -16.9892 C   0  0  1  0  0  0  0  0  0  0  0  0
   19.9100  -12.8814  -16.7131 C   0  0  0  0  0  0  0  0  0  0  0  0
   18.6489  -13.5596  -17.0171 C   0  0  0  0  0  0  0  0  0  0  0  0
   17.6899  -12.8815  -17.4679 O   0  0  0  0  0  0  0  0  0  0  0  0
   20.8983  -10.6445  -16.3595 C   0  0  0  0  0  0  0  0  0  0  0  0
   21.0803  -10.7117  -15.1146 O   0  0  0  0  0  0  0  0  0  0  0  0
   18.4358  -14.9188  -16.8393 O   0  0  0  0  0  0  0  0  0  0  0  0
   21.8023   -9.8354  -17.0989 N   0  0  0  0  0  0  0  0  0  0  0  0
   22.8271   -8.9952  -16.4352 C   0  0  1  0  0  0  0  0  0  0  0  0
   24.1440   -9.2039  -17.1235 C   0  0  0  0  0  0  0  0  0  0  0  0
   24.6751  -10.5740  -16.9986 C   0  0  0  0  0  0  0  0  0  0  0  0
   24.0960  -11.7196  -17.5714 C   0  0  0  0  0  0  0  0  0  0  0  0
   24.8126  -12.8008  -17.2334 N   0  0  0  0  0  0  0  0  0  0  0  0
   25.8572  -12.4437  -16.4549 C   0  0  0  0  0  0  0  0  0  0  0  0
   26.8671  -13.1903  -15.8836 C   0  0  0  0  0  0  0  0  0  0  0  0
   27.8151  -12.5133  -15.1469 C   0  0  0  0  0  0  0  0  0  0  0  0
   27.7516  -11.1337  -14.9890 C   0  0  0  0  0  0  0  0  0  0  0  0
   26.7374  -10.4127  -15.5660 C   0  0  0  0  0  0  0  0  0  0  0  0
   25.7724  -11.0681  -16.3101 C   0  0  0  0  0  0  0  0  0  0  0  0
   22.3658   -7.6339  -16.2495 C   0  0  0  0  0  0  0  0  0  0  0  0
   22.1845   -6.8045  -17.1686 O   0  0  0  0  0  0  0  0  0  0  0  0
   20.1977   -5.6652  -15.0571 C   0  0  0  0  0  0  0  0  0  0  0  0
   21.6587   -5.7587  -14.7007 C   0  0  2  0  0  0  0  0  0  0  0  0
   22.0750   -7.1335  -14.9257 N   0  0  0  0  0  0  0  0  0  0  0  0
   21.9161   -5.4084  -13.2834 C   0  0  0  0  0  0  0  0  0  0  0  0
   22.0756   -6.3146  -12.4257 O   0  0  0  0  0  0  0  0  0  0  0  0
   21.9908   -4.0908  -12.8473 O   0  0  0  0  0  0  0  0  0  0  0  0
  2  1  1  6
  2  6  1  0
  2  3  1  0
  3  4  1  0
  4  5  2  0
  4  8  1  0
  6  7  2  0
  9 10  1  0
  9  6  1  0
 10 11  1  6
 12 11  1  0
 13 12  2  0
 14 13  1  0
 15 14  1  0
 15 20  2  0
 16 15  1  0
 17 16  2  0
 17 18  1  0
 18 19  2  0
 19 20  1  0
 20 12  1  0
 21 22  2  0
 21 10  1  0
 24 23  1  1
 24 26  1  0
 24 25  1  0
 25 21  1  0
 26 28  1  0
 27 26  2  0
M  END
$$$$
