DWA.pdb
     RDKit          3D

 28 29  0  0  1  0  0  0  0  0999 V2000
   27.8402  -23.2514  -17.2988 N   0  0  0  0  0  0  0  0  0  0  0  0
   27.8497  -21.9606  -16.6743 C   0  0  1  0  0  0  0  0  0  0  0  0
   27.1628  -21.0016  -17.6278 C   0  0  0  0  0  0  0  0  0  0  0  0
   28.0393  -20.7242  -18.7668 C   0  0  0  0  0  0  0  0  0  0  0  0
   29.2631  -20.5235  -18.5546 O   0  0  0  0  0  0  0  0  0  0  0  0
   27.1498  -21.9724  -15.3556 C   0  0  0  0  0  0  0  0  0  0  0  0
   26.0566  -22.5860  -15.2298 O   0  0  0  0  0  0  0  0  0  0  0  0
   27.6066  -20.6666  -20.0836 O   0  0  0  0  0  0  0  0  0  0  0  0
   27.6552  -21.3158  -14.2014 N   0  0  0  0  0  0  0  0  0  0  0  0
   26.8821  -21.2407  -12.9391 C   0  0  1  0  0  0  0  0  0  0  0  0
   27.7483  -20.6302  -11.8768 C   0  0  0  0  0  0  0  0  0  0  0  0
   27.0859  -20.4982  -10.5658 C   0  0  0  0  0  0  0  0  0  0  0  0
   25.7009  -20.3565  -10.3719 C   0  0  0  0  0  0  0  0  0  0  0  0
   25.4425  -20.2276   -9.0630 N   0  0  0  0  0  0  0  0  0  0  0  0
   26.5910  -20.2758   -8.3536 C   0  0  0  0  0  0  0  0  0  0  0  0
   26.8293  -20.2050   -6.9964 C   0  0  0  0  0  0  0  0  0  0  0  0
   28.1383  -20.3094   -6.5776 C   0  0  0  0  0  0  0  0  0  0  0  0
   29.1730  -20.4792   -7.4902 C   0  0  0  0  0  0  0  0  0  0  0  0
   28.9117  -20.5461   -8.8350 C   0  0  0  0  0  0  0  0  0  0  0  0
   27.6062  -20.4432   -9.2819 C   0  0  0  0  0  0  0  0  0  0  0  0
   25.5649  -20.6741  -13.1503 C   0  0  0  0  0  0  0  0  0  0  0  0
   25.3322  -19.4724  -13.4088 O   0  0  0  0  0  0  0  0  0  0  0  0
   22.3193  -22.0789  -14.1153 C   0  0  0  0  0  0  0  0  0  0  0  0
   23.0630  -20.9950  -13.3789 C   0  0  2  0  0  0  0  0  0  0  0  0
   24.3878  -21.5081  -13.0699 N   0  0  0  0  0  0  0  0  0  0  0  0
   22.3927  -20.6123  -12.1133 C   0  0  0  0  0  0  0  0  0  0  0  0
   21.4022  -19.8369  -12.1302 O   0  0  0  0  0  0  0  0  0  0  0  0
   22.8193  -21.0825  -10.8769 O   0  0  0  0  0  0  0  0  0  0  0  0
  2  1  1  6
  2  6  1  0
  2  3  1  0
  3  4  1  0
  4  5  2  0
  4  8  1  0
  6  7  2  0
  9 10  1  0
  9  6  1  0
 10 11  1  1
 12 11  1  0
 13 12  2  0
 14 13  1  0
 15 14  1  0
 15 20  2  0
 16 15  1  0
 17 16  2  0
 17 18  1  0
 18 19  2  0
 19 20  1  0
 20 12  1  0
 21 22  2  0
 21 10  1  0
 24 23  1  1
 24 26  1  0
 24 25  1  0
 25 21  1  0
 26 28  1  0
 27 26  2  0
M  END
$$$$
