DWA.pdb
     RDKit          3D

 28 29  0  0  1  0  0  0  0  0999 V2000
   25.4061  -17.6102  -18.3680 N   0  0  0  0  0  0  0  0  0  0  0  0
   24.3605  -18.5290  -18.7128 C   0  0  1  0  0  0  0  0  0  0  0  0
   24.8673  -19.3616  -19.8750 C   0  0  0  0  0  0  0  0  0  0  0  0
   24.9043  -18.5449  -21.0892 C   0  0  0  0  0  0  0  0  0  0  0  0
   25.7358  -18.8335  -21.9881 O   0  0  0  0  0  0  0  0  0  0  0  0
   23.9894  -19.4096  -17.5657 C   0  0  0  0  0  0  0  0  0  0  0  0
   23.3879  -20.4964  -17.7767 O   0  0  0  0  0  0  0  0  0  0  0  0
   24.0731  -17.4585  -21.3199 O   0  0  0  0  0  0  0  0  0  0  0  0
   24.2814  -19.0883  -16.2129 N   0  0  0  0  0  0  0  0  0  0  0  0
   24.0444  -20.0486  -15.1091 C   0  0  1  0  0  0  0  0  0  0  0  0
   25.3245  -20.2382  -14.3495 C   0  0  0  0  0  0  0  0  0  0  0  0
   26.3887  -20.9025  -15.1246 C   0  0  0  0  0  0  0  0  0  0  0  0
   27.5032  -20.2549  -15.6852 C   0  0  0  0  0  0  0  0  0  0  0  0
   28.2513  -21.1458  -16.3510 N   0  0  0  0  0  0  0  0  0  0  0  0
   27.6968  -22.3748  -16.2691 C   0  0  0  0  0  0  0  0  0  0  0  0
   28.1021  -23.5945  -16.7708 C   0  0  0  0  0  0  0  0  0  0  0  0
   27.3123  -24.6885  -16.4895 C   0  0  0  0  0  0  0  0  0  0  0  0
   26.1548  -24.5624  -15.7302 C   0  0  0  0  0  0  0  0  0  0  0  0
   25.7715  -23.3391  -15.2426 C   0  0  0  0  0  0  0  0  0  0  0  0
   26.5463  -22.2246  -15.5112 C   0  0  0  0  0  0  0  0  0  0  0  0
   22.8508  -19.7167  -14.3570 C   0  0  0  0  0  0  0  0  0  0  0  0
   22.6186  -18.6059  -13.8303 O   0  0  0  0  0  0  0  0  0  0  0  0
   19.5762  -21.4289  -13.7441 C   0  0  0  0  0  0  0  0  0  0  0  0
   20.6273  -20.4174  -13.3670 C   0  0  2  0  0  0  0  0  0  0  0  0
   21.8101  -20.7002  -14.1638 N   0  0  0  0  0  0  0  0  0  0  0  0
   20.9905  -20.4913  -11.9316 C   0  0  0  0  0  0  0  0  0  0  0  0
   21.9563  -21.2058  -11.5584 O   0  0  0  0  0  0  0  0  0  0  0  0
   20.2951  -19.7897  -10.9539 O   0  0  0  0  0  0  0  0  0  0  0  0
  2  1  1  1
  2  6  1  0
  2  3  1  0
  3  4  1  0
  4  5  2  0
  4  8  1  0
  6  7  2  0
  9 10  1  0
  9  6  1  0
 10 11  1  1
 12 11  1  0
 13 12  2  0
 14 13  1  0
 15 14  1  0
 15 20  2  0
 16 15  1  0
 17 16  2  0
 17 18  1  0
 18 19  2  0
 19 20  1  0
 20 12  1  0
 21 22  2  0
 21 10  1  0
 24 23  1  1
 24 26  1  0
 24 25  1  0
 25 21  1  0
 26 28  1  0
 27 26  2  0
M  END
$$$$
