DWA.pdb
     RDKit          3D

 28 29  0  0  1  0  0  0  0  0999 V2000
   22.9503  -11.5733  -20.5255 N   0  0  0  0  0  0  0  0  0  0  0  0
   22.6050  -10.1878  -20.3931 C   0  0  1  0  0  0  0  0  0  0  0  0
   21.5038   -9.9073  -21.3978 C   0  0  0  0  0  0  0  0  0  0  0  0
   22.0565   -9.9183  -22.7531 C   0  0  0  0  0  0  0  0  0  0  0  0
   21.2813  -10.1270  -23.7218 O   0  0  0  0  0  0  0  0  0  0  0  0
   22.1450   -9.8558  -19.0120 C   0  0  0  0  0  0  0  0  0  0  0  0
   20.9276   -9.9740  -18.7097 O   0  0  0  0  0  0  0  0  0  0  0  0
   23.3964   -9.7113  -23.0469 O   0  0  0  0  0  0  0  0  0  0  0  0
   23.0205   -9.4022  -17.9892 N   0  0  0  0  0  0  0  0  0  0  0  0
   22.5423   -9.1181  -16.6154 C   0  0  1  0  0  0  0  0  0  0  0  0
   23.0888  -10.1627  -15.6870 C   0  0  0  0  0  0  0  0  0  0  0  0
   24.5170  -10.4640  -15.8978 C   0  0  0  0  0  0  0  0  0  0  0  0
   25.5824   -9.8231  -15.2420 C   0  0  0  0  0  0  0  0  0  0  0  0
   26.7457  -10.3136  -15.6921 N   0  0  0  0  0  0  0  0  0  0  0  0
   26.5217  -11.2628  -16.6268 C   0  0  0  0  0  0  0  0  0  0  0  0
   27.3899  -12.0515  -17.3534 C   0  0  0  0  0  0  0  0  0  0  0  0
   26.8366  -12.9592  -18.2307 C   0  0  0  0  0  0  0  0  0  0  0  0
   25.4585  -13.0715  -18.3738 C   0  0  0  0  0  0  0  0  0  0  0  0
   24.6150  -12.2759  -17.6410 C   0  0  0  0  0  0  0  0  0  0  0  0
   25.1448  -11.3559  -16.7536 C   0  0  0  0  0  0  0  0  0  0  0  0
   22.7322   -7.7262  -16.2590 C   0  0  0  0  0  0  0  0  0  0  0  0
   23.7672   -7.0608  -16.4853 O   0  0  0  0  0  0  0  0  0  0  0  0
   20.5229   -4.9269  -15.2996 C   0  0  0  0  0  0  0  0  0  0  0  0
   21.8600   -5.6100  -15.1746 C   0  0  2  0  0  0  0  0  0  0  0  0
   21.6836   -6.9926  -15.5884 N   0  0  0  0  0  0  0  0  0  0  0  0
   22.3745   -5.5903  -13.7844 C   0  0  0  0  0  0  0  0  0  0  0  0
   22.7781   -4.5141  -13.2733 O   0  0  0  0  0  0  0  0  0  0  0  0
   22.4334   -6.7359  -12.9995 O   0  0  0  0  0  0  0  0  0  0  0  0
  2  1  1  1
  2  6  1  0
  2  3  1  0
  3  4  1  0
  4  5  2  0
  4  8  1  0
  6  7  2  0
  9 10  1  0
  9  6  1  0
 10 11  1  1
 12 11  1  0
 13 12  2  0
 14 13  1  0
 15 14  1  0
 15 20  2  0
 16 15  1  0
 17 16  2  0
 17 18  1  0
 18 19  2  0
 19 20  1  0
 20 12  1  0
 21 22  2  0
 21 10  1  0
 24 23  1  1
 24 26  1  0
 24 25  1  0
 25 21  1  0
 26 28  1  0
 27 26  2  0
M  END
$$$$
