DWA.pdb
     RDKit          3D

 28 29  0  0  1  0  0  0  0  0999 V2000
   12.8828  -21.0460    2.1519 N   0  0  0  0  0  0  0  0  0  0  0  0
   12.6825  -19.9869    3.0977 C   0  0  1  0  0  0  0  0  0  0  0  0
   12.0512  -20.6064    4.3300 C   0  0  0  0  0  0  0  0  0  0  0  0
   10.7318  -21.1433    3.9928 C   0  0  0  0  0  0  0  0  0  0  0  0
   10.3911  -22.2566    4.4694 O   0  0  0  0  0  0  0  0  0  0  0  0
   13.9628  -19.3076    3.4558 C   0  0  0  0  0  0  0  0  0  0  0  0
   15.0191  -19.9830    3.5807 O   0  0  0  0  0  0  0  0  0  0  0  0
    9.8182  -20.4991    3.1714 O   0  0  0  0  0  0  0  0  0  0  0  0
   14.0660  -17.9069    3.6703 N   0  0  0  0  0  0  0  0  0  0  0  0
   15.3501  -17.2603    4.0307 C   0  0  1  0  0  0  0  0  0  0  0  0
   15.4131  -15.9114    3.3763 C   0  0  0  0  0  0  0  0  0  0  0  0
   16.7838  -15.4049    3.1778 C   0  0  0  0  0  0  0  0  0  0  0  0
   17.7938  -16.0691    2.4605 C   0  0  0  0  0  0  0  0  0  0  0  0
   18.9232  -15.3488    2.5056 N   0  0  0  0  0  0  0  0  0  0  0  0
   18.7288  -14.2203    3.2222 C   0  0  0  0  0  0  0  0  0  0  0  0
   19.5767  -13.1756    3.5280 C   0  0  0  0  0  0  0  0  0  0  0  0
   19.0599  -12.1394    4.2757 C   0  0  0  0  0  0  0  0  0  0  0  0
   17.7369  -12.1514    4.7020 C   0  0  0  0  0  0  0  0  0  0  0  0
   16.9129  -13.2015    4.3862 C   0  0  0  0  0  0  0  0  0  0  0  0
   17.4071  -14.2549    3.6373 C   0  0  0  0  0  0  0  0  0  0  0  0
   15.6077  -17.3372    5.4549 C   0  0  0  0  0  0  0  0  0  0  0  0
   14.7659  -17.1068    6.3513 O   0  0  0  0  0  0  0  0  0  0  0  0
   18.4181  -18.6205    7.5568 C   0  0  0  0  0  0  0  0  0  0  0  0
   17.2297  -17.7147    7.3632 C   0  0  2  0  0  0  0  0  0  0  0  0
   16.9175  -17.7028    5.9432 N   0  0  0  0  0  0  0  0  0  0  0  0
   17.5029  -16.3257    7.8030 C   0  0  0  0  0  0  0  0  0  0  0  0
   17.6483  -15.4092    6.9537 O   0  0  0  0  0  0  0  0  0  0  0  0
   17.6089  -15.9803    9.1452 O   0  0  0  0  0  0  0  0  0  0  0  0
  2  1  1  6
  2  6  1  0
  2  3  1  0
  3  4  1  0
  4  5  2  0
  4  8  1  0
  6  7  2  0
  9 10  1  0
  9  6  1  0
 10 11  1  1
 12 11  1  0
 13 12  2  0
 14 13  1  0
 15 14  1  0
 15 20  2  0
 16 15  1  0
 17 16  2  0
 17 18  1  0
 18 19  2  0
 19 20  1  0
 20 12  1  0
 21 22  2  0
 21 10  1  0
 24 23  1  6
 24 26  1  0
 24 25  1  0
 25 21  1  0
 26 28  1  0
 27 26  2  0
M  END
$$$$
