ETN.pdb
     RDKit          3D

 25 24  0  0  1  0  0  0  0  0999 V2000
    8.1436  -17.5590   16.2977 N   0  0  0  0  0  0  0  0  0  0  0  0
    9.4708  -16.9178   16.1810 C   0  0  1  0  0  0  0  0  0  0  0  0
    9.4137  -16.1178   14.9170 C   0  0  0  0  0  0  0  0  0  0  0  0
    8.1619  -16.2536   14.1224 C   0  0  0  0  0  0  0  0  0  0  0  0
    8.1583  -15.4720   12.8720 C   0  0  0  0  0  0  0  0  0  0  0  0
    7.1413  -15.4108   12.1452 O   0  0  0  0  0  0  0  0  0  0  0  0
    9.7006  -16.0284   17.3457 C   0  0  0  0  0  0  0  0  0  0  0  0
   10.7116  -15.3201   17.4935 O   0  0  0  0  0  0  0  0  0  0  0  0
    9.3030  -14.7813   12.4766 O   0  0  0  0  0  0  0  0  0  0  0  0
    7.6784  -13.2991   18.8021 C   0  0  0  0  0  0  0  0  0  0  0  0
    7.8484  -14.3168   19.9060 C   0  0  1  0  0  0  0  0  0  0  0  0
    6.6939  -15.1114   19.8959 O   0  0  0  0  0  0  0  0  0  0  0  0
    9.0215  -15.2402   19.6352 C   0  0  2  0  0  0  0  0  0  0  0  0
    8.7268  -15.9399   18.3997 N   0  0  0  0  0  0  0  0  0  0  0  0
    9.0916  -16.2037   20.7843 C   0  0  0  0  0  0  0  0  0  0  0  0
    8.9912  -17.4521   20.5923 O   0  0  0  0  0  0  0  0  0  0  0  0
   12.6612  -18.3492   23.2911 N   0  0  0  0  0  0  0  0  0  0  0  0
   12.6449  -16.9401   23.1693 C   0  0  0  0  0  0  0  0  0  0  0  0
   13.5337  -16.2740   23.7431 O   0  0  0  0  0  0  0  0  0  0  0  0
   11.6001  -16.2906   22.3827 C   0  0  0  0  0  0  0  0  0  0  0  0
   10.2253  -16.4210   22.9974 C   0  0  2  0  0  0  0  0  0  0  0  0
    9.2708  -15.7709   22.1176 N   0  0  0  0  0  0  0  0  0  0  0  0
   10.1745  -15.8652   24.3696 C   0  0  0  0  0  0  0  0  0  0  0  0
   10.4174  -14.5097   24.5127 O   0  0  0  0  0  0  0  0  0  0  0  0
    9.9307  -16.5327   25.3834 O   0  0  0  0  0  0  0  0  0  0  0  0
  2  1  1  1
  2  7  1  0
  3  2  1  0
  4  5  1  0
  4  3  1  0
  5  9  1  0
  6  5  2  0
  7 14  1  0
  7  8  2  0
 11 10  1  6
 12 11  1  0
 13 11  1  0
 13 14  1  6
 15 13  1  0
 15 22  1  0
 16 15  2  0
 18 17  1  0
 19 18  2  0
 21 20  1  6
 20 18  1  0
 21 22  1  0
 21 23  1  0
 23 24  1  0
 25 23  2  0
M  END
$$$$
