ETN.pdb
     RDKit          3D

 25 24  0  0  1  0  0  0  0  0999 V2000
   11.6002  -20.1985   19.3499 N   0  0  0  0  0  0  0  0  0  0  0  0
   10.8173  -20.5129   20.5643 C   0  0  1  0  0  0  0  0  0  0  0  0
   11.1394  -21.9395   20.8838 C   0  0  0  0  0  0  0  0  0  0  0  0
   12.0852  -22.6128   19.9517 C   0  0  0  0  0  0  0  0  0  0  0  0
   12.3978  -24.0065   20.3186 C   0  0  0  0  0  0  0  0  0  0  0  0
   13.5128  -24.3209   20.7920 O   0  0  0  0  0  0  0  0  0  0  0  0
   11.2405  -19.6261   21.6755 C   0  0  0  0  0  0  0  0  0  0  0  0
   12.3708  -19.1170   21.7697 O   0  0  0  0  0  0  0  0  0  0  0  0
   11.4428  -25.0066   20.1407 O   0  0  0  0  0  0  0  0  0  0  0  0
   10.2146  -16.3540   25.0396 C   0  0  0  0  0  0  0  0  0  0  0  0
    9.9286  -17.2272   23.8401 C   0  0  1  0  0  0  0  0  0  0  0  0
   10.3415  -16.5031   22.7133 O   0  0  0  0  0  0  0  0  0  0  0  0
   10.7513  -18.5015   23.8711 C   0  0  2  0  0  0  0  0  0  0  0  0
   10.3277  -19.3008   22.7376 N   0  0  0  0  0  0  0  0  0  0  0  0
   10.4261  -19.1987   25.1602 C   0  0  0  0  0  0  0  0  0  0  0  0
    9.3790  -19.9033   25.2715 O   0  0  0  0  0  0  0  0  0  0  0  0
    8.7611  -21.4830   27.7885 N   0  0  0  0  0  0  0  0  0  0  0  0
    9.9107  -22.1147   27.2593 C   0  0  0  0  0  0  0  0  0  0  0  0
    9.8390  -23.3171   26.9250 O   0  0  0  0  0  0  0  0  0  0  0  0
   11.1521  -21.3600   27.1127 C   0  0  0  0  0  0  0  0  0  0  0  0
   11.0087  -19.9016   27.4833 C   0  0  2  0  0  0  0  0  0  0  0  0
   11.2610  -19.1043   26.2966 N   0  0  0  0  0  0  0  0  0  0  0  0
   11.9034  -19.5212   28.6011 C   0  0  0  0  0  0  0  0  0  0  0  0
   12.8845  -18.5815   28.3345 O   0  0  0  0  0  0  0  0  0  0  0  0
   11.8265  -19.9879   29.7452 O   0  0  0  0  0  0  0  0  0  0  0  0
  2  1  1  6
  2  7  1  0
  3  2  1  0
  4  5  1  0
  4  3  1  0
  5  9  1  0
  6  5  2  0
  7 14  1  0
  7  8  2  0
 11 10  1  1
 12 11  1  0
 13 11  1  0
 13 14  1  6
 15 13  1  0
 15 22  1  0
 16 15  2  0
 18 17  1  0
 19 18  2  0
 21 20  1  6
 20 18  1  0
 21 22  1  0
 21 23  1  0
 23 24  1  0
 25 23  2  0
M  END
$$$$
