ETN.pdb
     RDKit          3D

 25 24  0  0  1  0  0  0  0  0999 V2000
    8.7840  -14.5431   14.8761 N   0  0  0  0  0  0  0  0  0  0  0  0
    8.6226  -15.5673   15.9303 C   0  0  1  0  0  0  0  0  0  0  0  0
    9.3400  -16.7776   15.4189 C   0  0  0  0  0  0  0  0  0  0  0  0
   10.5906  -16.5129   14.6556 C   0  0  0  0  0  0  0  0  0  0  0  0
   11.2806  -17.7320   14.1948 C   0  0  0  0  0  0  0  0  0  0  0  0
   12.0632  -17.7077   13.2184 O   0  0  0  0  0  0  0  0  0  0  0  0
    9.2452  -15.0911   17.1896 C   0  0  0  0  0  0  0  0  0  0  0  0
   10.3083  -14.4487   17.2424 O   0  0  0  0  0  0  0  0  0  0  0  0
   11.0679  -18.9446   14.8491 O   0  0  0  0  0  0  0  0  0  0  0  0
    7.7016  -12.7972   19.5714 C   0  0  0  0  0  0  0  0  0  0  0  0
    8.0542  -14.0392   20.3565 C   0  0  1  0  0  0  0  0  0  0  0  0
    6.9164  -14.8574   20.3390 O   0  0  0  0  0  0  0  0  0  0  0  0
    9.1698  -14.8211   19.6888 C   0  0  2  0  0  0  0  0  0  0  0  0
    8.6243  -15.3604   18.4581 N   0  0  0  0  0  0  0  0  0  0  0  0
    9.5484  -15.9287   20.6288 C   0  0  0  0  0  0  0  0  0  0  0  0
    9.6129  -17.1285   20.2267 O   0  0  0  0  0  0  0  0  0  0  0  0
   11.9336  -18.6166   24.1724 N   0  0  0  0  0  0  0  0  0  0  0  0
   12.5043  -18.0993   22.9861 C   0  0  0  0  0  0  0  0  0  0  0  0
   13.6180  -18.5288   22.6146 O   0  0  0  0  0  0  0  0  0  0  0  0
   11.7908  -17.0812   22.2202 C   0  0  0  0  0  0  0  0  0  0  0  0
   10.4509  -16.7177   22.8181 C   0  0  2  0  0  0  0  0  0  0  0  0
    9.8473  -15.6899   21.9893 N   0  0  0  0  0  0  0  0  0  0  0  0
   10.5708  -16.2848   24.2298 C   0  0  0  0  0  0  0  0  0  0  0  0
   10.4289  -17.2580   25.2043 O   0  0  0  0  0  0  0  0  0  0  0  0
   10.7876  -15.1189   24.5853 O   0  0  0  0  0  0  0  0  0  0  0  0
  2  1  1  6
  2  7  1  0
  3  2  1  0
  4  5  1  0
  4  3  1  0
  5  9  1  0
  6  5  2  0
  7 14  1  0
  7  8  2  0
 11 10  1  6
 12 11  1  0
 13 11  1  0
 13 14  1  6
 15 13  1  0
 15 22  1  0
 16 15  2  0
 18 17  1  0
 19 18  2  0
 21 20  1  6
 20 18  1  0
 21 22  1  0
 21 23  1  0
 23 24  1  0
 25 23  2  0
M  END
$$$$
