ETN.pdb
     RDKit          3D

 25 24  0  0  1  0  0  0  0  0999 V2000
   14.3548  -14.1177   17.3117 N   0  0  0  0  0  0  0  0  0  0  0  0
   13.0998  -14.8969   17.3744 C   0  0  1  0  0  0  0  0  0  0  0  0
   13.5277  -16.3270   17.4887 C   0  0  0  0  0  0  0  0  0  0  0  0
   14.9805  -16.5845   17.2899 C   0  0  0  0  0  0  0  0  0  0  0  0
   15.3551  -18.0077   17.3842 C   0  0  0  0  0  0  0  0  0  0  0  0
   15.0015  -18.7111   18.3571 O   0  0  0  0  0  0  0  0  0  0  0  0
   12.3199  -14.4937   18.5700 C   0  0  0  0  0  0  0  0  0  0  0  0
   12.8252  -14.0423   19.6124 O   0  0  0  0  0  0  0  0  0  0  0  0
   16.1185  -18.5972   16.3775 O   0  0  0  0  0  0  0  0  0  0  0  0
    7.7835  -13.4803   20.3378 C   0  0  0  0  0  0  0  0  0  0  0  0
    8.6777  -14.0162   19.2440 C   0  0  1  0  0  0  0  0  0  0  0  0
    8.6940  -13.0463   18.2324 O   0  0  0  0  0  0  0  0  0  0  0  0
   10.1080  -14.1767   19.7239 C   0  0  2  0  0  0  0  0  0  0  0  0
   10.8870  -14.6103   18.5801 N   0  0  0  0  0  0  0  0  0  0  0  0
   10.0946  -15.2371   20.7865 C   0  0  0  0  0  0  0  0  0  0  0  0
   10.1767  -16.4640   20.4811 O   0  0  0  0  0  0  0  0  0  0  0  0
   10.1642  -17.6402   25.3650 N   0  0  0  0  0  0  0  0  0  0  0  0
   10.2634  -16.2536   25.6263 C   0  0  0  0  0  0  0  0  0  0  0  0
   10.3942  -15.8698   26.8088 O   0  0  0  0  0  0  0  0  0  0  0  0
   10.2122  -15.3002   24.5215 C   0  0  0  0  0  0  0  0  0  0  0  0
   10.0269  -15.9606   23.1744 C   0  0  2  0  0  0  0  0  0  0  0  0
    9.9912  -14.9223   22.1604 N   0  0  0  0  0  0  0  0  0  0  0  0
    8.8141  -16.8103   23.1335 C   0  0  0  0  0  0  0  0  0  0  0  0
    7.6413  -16.2182   22.6968 O   0  0  0  0  0  0  0  0  0  0  0  0
    8.7876  -18.0035   23.4626 O   0  0  0  0  0  0  0  0  0  0  0  0
  2  1  1  1
  2  7  1  0
  3  2  1  0
  4  5  1  0
  4  3  1  0
  5  9  1  0
  6  5  2  0
  7 14  1  0
  7  8  2  0
 11 10  1  1
 12 11  1  0
 13 11  1  0
 13 14  1  6
 15 13  1  0
 15 22  1  0
 16 15  2  0
 18 17  1  0
 19 18  2  0
 21 20  1  1
 20 18  1  0
 21 22  1  0
 21 23  1  0
 23 24  1  0
 25 23  2  0
M  END
$$$$
