ETN.pdb
     RDKit          3D

 25 24  0  0  1  0  0  0  0  0999 V2000
    8.6638  -15.1344   15.4562 N   0  0  0  0  0  0  0  0  0  0  0  0
    9.0597  -16.0119   16.5785 C   0  0  1  0  0  0  0  0  0  0  0  0
   10.3062  -16.7025   16.1196 C   0  0  0  0  0  0  0  0  0  0  0  0
   10.1525  -17.5957   14.9384 C   0  0  0  0  0  0  0  0  0  0  0  0
   11.3752  -18.3421   14.5885 C   0  0  0  0  0  0  0  0  0  0  0  0
   11.7705  -18.4259   13.4041 O   0  0  0  0  0  0  0  0  0  0  0  0
    9.3374  -15.1901   17.7818 C   0  0  0  0  0  0  0  0  0  0  0  0
    9.9737  -14.1222   17.7653 O   0  0  0  0  0  0  0  0  0  0  0  0
   12.1177  -18.9732   15.5857 O   0  0  0  0  0  0  0  0  0  0  0  0
    7.4910  -13.0486   19.7464 C   0  0  0  0  0  0  0  0  0  0  0  0
    7.8725  -14.1648   20.6907 C   0  0  1  0  0  0  0  0  0  0  0  0
    6.8618  -15.1309   20.5939 O   0  0  0  0  0  0  0  0  0  0  0  0
    9.1654  -14.8352   20.2655 C   0  0  2  0  0  0  0  0  0  0  0  0
    8.8651  -15.6060   19.0745 N   0  0  0  0  0  0  0  0  0  0  0  0
    9.5773  -15.7400   21.3905 C   0  0  0  0  0  0  0  0  0  0  0  0
    9.2659  -16.9682   21.3837 O   0  0  0  0  0  0  0  0  0  0  0  0
   13.7487  -15.1382   22.3796 N   0  0  0  0  0  0  0  0  0  0  0  0
   13.0894  -16.1568   23.1066 C   0  0  0  0  0  0  0  0  0  0  0  0
   13.4109  -17.3478   22.9043 O   0  0  0  0  0  0  0  0  0  0  0  0
   12.0530  -15.8052   24.0734 C   0  0  0  0  0  0  0  0  0  0  0  0
   10.6588  -16.1504   23.6023 C   0  0  2  0  0  0  0  0  0  0  0  0
   10.3223  -15.2720   22.4965 N   0  0  0  0  0  0  0  0  0  0  0  0
    9.6641  -16.0618   24.6965 C   0  0  0  0  0  0  0  0  0  0  0  0
    9.7990  -16.9524   25.7479 O   0  0  0  0  0  0  0  0  0  0  0  0
    8.7310  -15.2487   24.7260 O   0  0  0  0  0  0  0  0  0  0  0  0
  2  1  1  6
  2  7  1  0
  3  2  1  0
  4  5  1  0
  4  3  1  0
  5  9  1  0
  6  5  2  0
  7 14  1  0
  7  8  2  0
 11 10  1  6
 12 11  1  0
 13 11  1  0
 13 14  1  6
 15 13  1  0
 15 22  1  0
 16 15  2  0
 18 17  1  0
 19 18  2  0
 21 20  1  1
 20 18  1  0
 21 22  1  0
 21 23  1  0
 23 24  1  0
 25 23  2  0
M  END
$$$$
