ETN.pdb
     RDKit          3D

 25 24  0  0  1  0  0  0  0  0999 V2000
   12.7037  -19.1288   20.8050 N   0  0  0  0  0  0  0  0  0  0  0  0
   13.1382  -17.7177   20.7243 C   0  0  1  0  0  0  0  0  0  0  0  0
   13.1408  -17.3878   19.2641 C   0  0  0  0  0  0  0  0  0  0  0  0
   14.1556  -18.1026   18.4419 C   0  0  0  0  0  0  0  0  0  0  0  0
   14.1963  -17.6714   17.0323 C   0  0  0  0  0  0  0  0  0  0  0  0
   13.6612  -18.3509   16.1277 O   0  0  0  0  0  0  0  0  0  0  0  0
   12.1723  -16.8549   21.4474 C   0  0  0  0  0  0  0  0  0  0  0  0
   12.1950  -15.6121   21.4254 O   0  0  0  0  0  0  0  0  0  0  0  0
   14.8402  -16.4851   16.6831 O   0  0  0  0  0  0  0  0  0  0  0  0
    8.2410  -17.1019   21.5901 C   0  0  0  0  0  0  0  0  0  0  0  0
    8.8599  -17.2568   22.9598 C   0  0  1  0  0  0  0  0  0  0  0  0
    9.0479  -18.6315   23.1583 O   0  0  0  0  0  0  0  0  0  0  0  0
   10.2307  -16.6102   23.0270 C   0  0  2  0  0  0  0  0  0  0  0  0
   11.1231  -17.4381   22.2388 N   0  0  0  0  0  0  0  0  0  0  0  0
   10.6438  -16.6138   24.4703 C   0  0  0  0  0  0  0  0  0  0  0  0
   11.5331  -17.4129   24.8895 O   0  0  0  0  0  0  0  0  0  0  0  0
    9.6764  -13.5546   29.6844 N   0  0  0  0  0  0  0  0  0  0  0  0
   10.5087  -14.3128   28.8282 C   0  0  0  0  0  0  0  0  0  0  0  0
   11.4959  -14.9055   29.3150 O   0  0  0  0  0  0  0  0  0  0  0  0
   10.2053  -14.3913   27.4020 C   0  0  0  0  0  0  0  0  0  0  0  0
   10.4893  -15.7519   26.8077 C   0  0  2  0  0  0  0  0  0  0  0  0
   10.0684  -15.7376   25.4183 N   0  0  0  0  0  0  0  0  0  0  0  0
    9.8326  -16.8397   27.5694 C   0  0  0  0  0  0  0  0  0  0  0  0
   10.4991  -17.3247   28.6818 O   0  0  0  0  0  0  0  0  0  0  0  0
    8.7370  -17.3344   27.2738 O   0  0  0  0  0  0  0  0  0  0  0  0
  2  1  1  6
  2  7  1  0
  3  2  1  0
  4  5  1  0
  4  3  1  0
  5  9  1  0
  6  5  2  0
  7 14  1  0
  7  8  2  0
 11 10  1  6
 12 11  1  0
 13 11  1  0
 13 14  1  6
 15 13  1  0
 15 22  1  0
 16 15  2  0
 18 17  1  0
 19 18  2  0
 21 20  1  1
 20 18  1  0
 21 22  1  0
 21 23  1  0
 23 24  1  0
 25 23  2  0
M  END
$$$$
