ETN.pdb
     RDKit          3D

 25 24  0  0  1  0  0  0  0  0999 V2000
    7.9304  -17.9100   17.9464 N   0  0  0  0  0  0  0  0  0  0  0  0
    9.2378  -17.2587   17.7162 C   0  0  1  0  0  0  0  0  0  0  0  0
    9.1133  -16.5808   16.3873 C   0  0  0  0  0  0  0  0  0  0  0  0
    8.5482  -17.4117   15.2886 C   0  0  0  0  0  0  0  0  0  0  0  0
    8.3370  -16.6753   14.0286 C   0  0  0  0  0  0  0  0  0  0  0  0
    7.7084  -17.1850   13.0739 O   0  0  0  0  0  0  0  0  0  0  0  0
    9.4942  -16.2608   18.7834 C   0  0  0  0  0  0  0  0  0  0  0  0
   10.4624  -15.4810   18.7909 O   0  0  0  0  0  0  0  0  0  0  0  0
    8.8414  -15.3839   13.8812 O   0  0  0  0  0  0  0  0  0  0  0  0
    7.1488  -13.6408   20.2171 C   0  0  0  0  0  0  0  0  0  0  0  0
    7.6016  -14.5346   21.3482 C   0  0  1  0  0  0  0  0  0  0  0  0
    6.6164  -15.5205   21.4951 O   0  0  0  0  0  0  0  0  0  0  0  0
    8.8948  -15.2510   21.0072 C   0  0  2  0  0  0  0  0  0  0  0  0
    8.6001  -16.1439   19.9032 N   0  0  0  0  0  0  0  0  0  0  0  0
    9.2947  -16.0316   22.2257 C   0  0  0  0  0  0  0  0  0  0  0  0
    8.8940  -17.2215   22.3953 O   0  0  0  0  0  0  0  0  0  0  0  0
   12.3592  -17.6629   23.0783 N   0  0  0  0  0  0  0  0  0  0  0  0
   12.8252  -16.7218   24.0260 C   0  0  0  0  0  0  0  0  0  0  0  0
   14.0576  -16.5697   24.1702 O   0  0  0  0  0  0  0  0  0  0  0  0
   11.8689  -15.9494   24.8141 C   0  0  0  0  0  0  0  0  0  0  0  0
   10.4304  -16.2247   24.4400 C   0  0  2  0  0  0  0  0  0  0  0  0
   10.1262  -15.4842   23.2289 N   0  0  0  0  0  0  0  0  0  0  0  0
    9.4957  -15.8881   25.5389 C   0  0  0  0  0  0  0  0  0  0  0  0
    8.7664  -14.7181   25.4132 O   0  0  0  0  0  0  0  0  0  0  0  0
    9.3302  -16.5826   26.5504 O   0  0  0  0  0  0  0  0  0  0  0  0
  2  1  1  1
  2  7  1  0
  3  2  1  0
  4  5  1  0
  4  3  1  0
  5  9  1  0
  6  5  2  0
  7 14  1  0
  7  8  2  0
 11 10  1  6
 12 11  1  0
 13 11  1  0
 13 14  1  6
 15 13  1  0
 15 22  1  0
 16 15  2  0
 18 17  1  0
 19 18  2  0
 21 20  1  1
 20 18  1  0
 21 22  1  0
 21 23  1  0
 23 24  1  0
 25 23  2  0
M  END
$$$$
