ETN.pdb
     RDKit          3D

 25 24  0  0  1  0  0  0  0  0999 V2000
    8.3019  -14.2877   14.6554 N   0  0  0  0  0  0  0  0  0  0  0  0
    8.3929  -15.2869   15.7415 C   0  0  1  0  0  0  0  0  0  0  0  0
    9.2966  -16.3592   15.2174 C   0  0  0  0  0  0  0  0  0  0  0  0
   10.5713  -15.8894   14.6082 C   0  0  0  0  0  0  0  0  0  0  0  0
   11.4430  -16.9778   14.1286 C   0  0  0  0  0  0  0  0  0  0  0  0
   11.1139  -18.1787   14.2534 O   0  0  0  0  0  0  0  0  0  0  0  0
    8.9819  -14.6596   16.9498 C   0  0  0  0  0  0  0  0  0  0  0  0
    9.8498  -13.7699   16.9211 O   0  0  0  0  0  0  0  0  0  0  0  0
   12.6623  -16.6800   13.5215 O   0  0  0  0  0  0  0  0  0  0  0  0
    7.3081  -12.7982   19.6279 C   0  0  0  0  0  0  0  0  0  0  0  0
    8.0030  -13.9609   20.2975 C   0  0  1  0  0  0  0  0  0  0  0  0
    7.0579  -14.9921   20.3858 O   0  0  0  0  0  0  0  0  0  0  0  0
    9.1494  -14.4848   19.4530 C   0  0  2  0  0  0  0  0  0  0  0  0
    8.5603  -15.0669   18.2626 N   0  0  0  0  0  0  0  0  0  0  0  0
    9.8447  -15.5371   20.2671 C   0  0  0  0  0  0  0  0  0  0  0  0
   10.1371  -16.6616   19.7619 O   0  0  0  0  0  0  0  0  0  0  0  0
   13.5250  -14.7850   20.6200 N   0  0  0  0  0  0  0  0  0  0  0  0
   13.2353  -15.6290   21.7175 C   0  0  0  0  0  0  0  0  0  0  0  0
   13.8750  -15.4779   22.7808 O   0  0  0  0  0  0  0  0  0  0  0  0
   12.2031  -16.6544   21.5932 C   0  0  0  0  0  0  0  0  0  0  0  0
   10.9445  -16.3275   22.3638 C   0  0  2  0  0  0  0  0  0  0  0  0
   10.2022  -15.3271   21.6183 N   0  0  0  0  0  0  0  0  0  0  0  0
   11.2385  -15.8776   23.7443 C   0  0  0  0  0  0  0  0  0  0  0  0
   10.8016  -14.6143   24.1047 O   0  0  0  0  0  0  0  0  0  0  0  0
   11.8441  -16.5560   24.5843 O   0  0  0  0  0  0  0  0  0  0  0  0
  2  1  1  6
  2  7  1  0
  3  2  1  0
  4  5  1  0
  4  3  1  0
  5  9  1  0
  6  5  2  0
  7 14  1  0
  7  8  2  0
 11 10  1  6
 12 11  1  0
 13 11  1  0
 13 14  1  6
 15 13  1  0
 15 22  1  0
 16 15  2  0
 18 17  1  0
 19 18  2  0
 21 20  1  6
 20 18  1  0
 21 22  1  0
 21 23  1  0
 23 24  1  0
 25 23  2  0
M  END
$$$$
