ETN.pdb
     RDKit          3D

 25 24  0  0  1  0  0  0  0  0999 V2000
    7.3523  -15.6286   15.5050 N   0  0  0  0  0  0  0  0  0  0  0  0
    8.2741  -16.2705   16.4665 C   0  0  1  0  0  0  0  0  0  0  0  0
    9.5449  -16.4937   15.7072 C   0  0  0  0  0  0  0  0  0  0  0  0
    9.4891  -17.5369   14.6465 C   0  0  0  0  0  0  0  0  0  0  0  0
   10.7806  -17.7815   13.9781 C   0  0  0  0  0  0  0  0  0  0  0  0
   11.7425  -18.2986   14.5893 O   0  0  0  0  0  0  0  0  0  0  0  0
    8.5110  -15.3620   17.6149 C   0  0  0  0  0  0  0  0  0  0  0  0
    8.2660  -14.1432   17.6019 O   0  0  0  0  0  0  0  0  0  0  0  0
   10.9503  -17.4354   12.6383 O   0  0  0  0  0  0  0  0  0  0  0  0
    7.2633  -13.6454   19.2013 C   0  0  0  0  0  0  0  0  0  0  0  0
    7.8128  -14.4832   20.3323 C   0  0  1  0  0  0  0  0  0  0  0  0
    6.9675  -15.5948   20.4513 O   0  0  0  0  0  0  0  0  0  0  0  0
    9.1968  -15.0145   20.0094 C   0  0  2  0  0  0  0  0  0  0  0  0
    9.0563  -15.8678   18.8453 N   0  0  0  0  0  0  0  0  0  0  0  0
    9.6453  -15.8131   21.1988 C   0  0  0  0  0  0  0  0  0  0  0  0
    9.2388  -17.0002   21.3750 O   0  0  0  0  0  0  0  0  0  0  0  0
   12.9792  -17.5163   24.7586 N   0  0  0  0  0  0  0  0  0  0  0  0
   13.4103  -16.2411   24.3243 C   0  0  0  0  0  0  0  0  0  0  0  0
   14.5143  -15.8094   24.7211 O   0  0  0  0  0  0  0  0  0  0  0  0
   12.5673  -15.4554   23.4274 C   0  0  0  0  0  0  0  0  0  0  0  0
   11.2836  -16.1586   23.0500 C   0  0  2  0  0  0  0  0  0  0  0  0
   10.5308  -15.2867   22.1663 N   0  0  0  0  0  0  0  0  0  0  0  0
   10.4929  -16.5497   24.2401 C   0  0  0  0  0  0  0  0  0  0  0  0
   10.9349  -17.6458   24.9612 O   0  0  0  0  0  0  0  0  0  0  0  0
    9.4731  -15.9616   24.6234 O   0  0  0  0  0  0  0  0  0  0  0  0
  2  1  1  6
  2  7  1  0
  3  2  1  0
  4  5  1  0
  4  3  1  0
  5  9  1  0
  6  5  2  0
  7 14  1  0
  7  8  2  0
 11 10  1  6
 12 11  1  0
 13 11  1  0
 13 14  1  6
 15 13  1  0
 15 22  1  0
 16 15  2  0
 18 17  1  0
 19 18  2  0
 21 20  1  1
 20 18  1  0
 21 22  1  0
 21 23  1  0
 23 24  1  0
 25 23  2  0
M  END
$$$$
