KQD.pdb
     RDKit          3D

 27 26  0  0  1  0  0  0  0  0999 V2000
   13.1103  -10.9538  -10.3898 N   0  0  0  0  0  0  0  0  0  0  0  0
   14.5402  -10.7732  -10.2184 C   0  0  1  0  0  0  0  0  0  0  0  0
   15.2200  -11.6820  -11.2268 C   0  0  0  0  0  0  0  0  0  0  0  0
   14.8943  -13.1311  -10.9528 C   0  0  0  0  0  0  0  0  0  0  0  0
   15.4115  -14.0481  -12.0260 C   0  0  0  0  0  0  0  0  0  0  0  0
   15.1622  -15.5028  -11.7217 C   0  0  0  0  0  0  0  0  0  0  0  0
   15.8158  -16.2766  -12.7652 N   0  0  0  0  0  0  0  0  0  0  0  0
   14.8866   -9.3508  -10.4534 C   0  0  0  0  0  0  0  0  0  0  0  0
   14.3420   -8.8068  -11.4695 O   0  0  0  0  0  0  0  0  0  0  0  0
   12.7091   -5.1135   -7.0742 N   0  0  0  0  0  0  0  0  0  0  0  0
   14.0728   -5.4380   -7.3327 C   0  0  0  0  0  0  0  0  0  0  0  0
   15.0035   -4.9967   -6.5854 O   0  0  0  0  0  0  0  0  0  0  0  0
   14.3543   -6.3103   -8.4978 C   0  0  0  0  0  0  0  0  0  0  0  0
   15.7748   -6.3906   -8.8756 C   0  0  0  0  0  0  0  0  0  0  0  0
   16.1949   -7.2535   -9.9921 C   0  0  2  0  0  0  0  0  0  0  0  0
   15.7488   -8.6172   -9.6396 N   0  0  0  0  0  0  0  0  0  0  0  0
   17.5566   -7.2514  -10.4613 C   0  0  0  0  0  0  0  0  0  0  0  0
   18.5535   -7.7296   -9.8584 O   0  0  0  0  0  0  0  0  0  0  0  0
   17.8374   -6.6533  -11.7371 N   0  0  0  0  0  0  0  0  0  0  0  0
   19.2041   -6.7795  -12.2922 C   0  0  1  0  0  0  0  0  0  0  0  0
   19.4587   -8.2171  -12.6031 C   0  0  0  0  0  0  0  0  0  0  0  0
   20.7042   -8.4779  -13.3544 C   0  0  0  0  0  0  0  0  0  0  0  0
   20.6766   -9.3196  -14.3017 O   0  0  0  0  0  0  0  0  0  0  0  0
   19.1741   -6.0209  -13.5822 C   0  0  0  0  0  0  0  0  0  0  0  0
   20.3080   -5.4592  -14.1465 O   0  0  0  0  0  0  0  0  0  0  0  0
   21.9266   -7.8745  -13.1111 O   0  0  0  0  0  0  0  0  0  0  0  0
   18.0918   -5.8805  -14.1849 O   0  0  0  0  0  0  0  0  0  0  0  0
  2  1  1  6
  3  2  1  0
  4  3  1  0
  5  4  1  0
  6  5  1  0
  7  6  1  0
  8 16  1  0
  8  2  1  0
  9  8  2  0
 10 11  1  0
 11 12  2  0
 11 13  1  0
 13 14  1  0
 15 14  1  1
 15 16  1  0
 15 17  1  0
 17 18  2  0
 19 17  1  0
 19 20  1  0
 20 21  1  6
 21 22  1  0
 22 26  1  0
 23 22  2  0
 24 20  1  0
 24 25  1  0
 27 24  2  0
M  END
$$$$
