KQD.pdb
     RDKit          3D

 27 26  0  0  1  0  0  0  0  0999 V2000
   13.1318   -9.0613   -9.5526 N   0  0  0  0  0  0  0  0  0  0  0  0
   14.5658   -9.2838   -9.5296 C   0  0  1  0  0  0  0  0  0  0  0  0
   14.8327  -10.5080  -10.3869 C   0  0  0  0  0  0  0  0  0  0  0  0
   14.1600  -11.7297   -9.8072 C   0  0  0  0  0  0  0  0  0  0  0  0
   14.3347  -12.9460  -10.6734 C   0  0  0  0  0  0  0  0  0  0  0  0
   13.6600  -14.1686  -10.1068 C   0  0  0  0  0  0  0  0  0  0  0  0
   13.8846  -15.2557  -11.0464 N   0  0  0  0  0  0  0  0  0  0  0  0
   15.2566   -8.0869  -10.0670 C   0  0  0  0  0  0  0  0  0  0  0  0
   14.7634   -7.5929  -11.1336 O   0  0  0  0  0  0  0  0  0  0  0  0
   16.9750   -2.9879   -7.6225 N   0  0  0  0  0  0  0  0  0  0  0  0
   15.6969   -3.4913   -8.0032 C   0  0  0  0  0  0  0  0  0  0  0  0
   14.6281   -2.8971   -7.6510 O   0  0  0  0  0  0  0  0  0  0  0  0
   15.6701   -4.7241   -8.8261 C   0  0  0  0  0  0  0  0  0  0  0  0
   16.9968   -5.2543   -9.1809 C   0  0  0  0  0  0  0  0  0  0  0  0
   17.1141   -6.3926  -10.1072 C   0  0  2  0  0  0  0  0  0  0  0  0
   16.3774   -7.5063   -9.4750 N   0  0  0  0  0  0  0  0  0  0  0  0
   18.3985   -6.8234  -10.5962 C   0  0  0  0  0  0  0  0  0  0  0  0
   19.2191   -7.5598   -9.9878 O   0  0  0  0  0  0  0  0  0  0  0  0
   18.8126   -6.3875  -11.9012 N   0  0  0  0  0  0  0  0  0  0  0  0
   20.1690   -6.7501  -12.3709 C   0  0  1  0  0  0  0  0  0  0  0  0
   20.0427   -7.8209  -13.4032 C   0  0  0  0  0  0  0  0  0  0  0  0
   21.3048   -8.1779  -14.0839 C   0  0  0  0  0  0  0  0  0  0  0  0
   22.3347   -8.3955  -13.3778 O   0  0  0  0  0  0  0  0  0  0  0  0
   20.6943   -5.5177  -13.0384 C   0  0  0  0  0  0  0  0  0  0  0  0
   22.0483   -5.2794  -13.2105 O   0  0  0  0  0  0  0  0  0  0  0  0
   21.4691   -8.2971  -15.4536 O   0  0  0  0  0  0  0  0  0  0  0  0
   19.8930   -4.6617  -13.4619 O   0  0  0  0  0  0  0  0  0  0  0  0
  2  1  1  6
  3  2  1  0
  4  3  1  0
  5  4  1  0
  6  5  1  0
  7  6  1  0
  8 16  1  0
  8  2  1  0
  9  8  2  0
 10 11  1  0
 11 12  2  0
 11 13  1  0
 13 14  1  0
 15 14  1  1
 15 16  1  0
 15 17  1  0
 17 18  2  0
 19 17  1  0
 19 20  1  0
 20 21  1  6
 21 22  1  0
 22 26  1  0
 23 22  2  0
 24 20  1  0
 24 25  1  0
 27 24  2  0
M  END
$$$$
