KQD.pdb
     RDKit          3D

 27 26  0  0  1  0  0  0  0  0999 V2000
   28.6686  -21.8300  -15.4761 N   0  0  0  0  0  0  0  0  0  0  0  0
   27.4134  -21.9993  -16.1849 C   0  0  1  0  0  0  0  0  0  0  0  0
   27.5857  -23.1986  -17.0997 C   0  0  0  0  0  0  0  0  0  0  0  0
   28.9554  -23.8125  -16.9326 C   0  0  0  0  0  0  0  0  0  0  0  0
   29.1910  -24.9559  -17.8799 C   0  0  0  0  0  0  0  0  0  0  0  0
   30.5182  -25.6345  -17.6581 C   0  0  0  0  0  0  0  0  0  0  0  0
   30.5167  -26.8494  -18.4573 N   0  0  0  0  0  0  0  0  0  0  0  0
   26.3226  -22.2196  -15.2050 C   0  0  0  0  0  0  0  0  0  0  0  0
   26.1394  -23.4271  -14.8397 O   0  0  0  0  0  0  0  0  0  0  0  0
   25.0374  -20.4215   -9.7189 N   0  0  0  0  0  0  0  0  0  0  0  0
   26.2241  -20.9390  -10.3153 C   0  0  0  0  0  0  0  0  0  0  0  0
   27.2457  -21.2140   -9.6081 O   0  0  0  0  0  0  0  0  0  0  0  0
   26.2118  -21.1462  -11.7831 C   0  0  0  0  0  0  0  0  0  0  0  0
   24.9660  -20.7347  -12.4508 C   0  0  0  0  0  0  0  0  0  0  0  0
   24.5016  -21.4470  -13.6527 C   0  0  2  0  0  0  0  0  0  0  0  0
   25.5240  -21.1994  -14.6901 N   0  0  0  0  0  0  0  0  0  0  0  0
   23.1716  -21.2465  -14.1679 C   0  0  0  0  0  0  0  0  0  0  0  0
   22.8325  -20.4188  -15.0543 O   0  0  0  0  0  0  0  0  0  0  0  0
   22.1068  -22.0536  -13.6396 N   0  0  0  0  0  0  0  0  0  0  0  0
   20.7384  -21.8537  -14.1683 C   0  0  1  0  0  0  0  0  0  0  0  0
   19.8644  -22.9455  -13.6466 C   0  0  0  0  0  0  0  0  0  0  0  0
   18.4548  -22.8740  -14.0843 C   0  0  0  0  0  0  0  0  0  0  0  0
   17.5988  -23.6000  -13.4952 O   0  0  0  0  0  0  0  0  0  0  0  0
   20.2747  -20.5604  -13.5745 C   0  0  0  0  0  0  0  0  0  0  0  0
   20.8042  -20.0421  -12.4037 O   0  0  0  0  0  0  0  0  0  0  0  0
   17.9732  -22.0696  -15.1033 O   0  0  0  0  0  0  0  0  0  0  0  0
   19.3759  -19.9118  -14.1454 O   0  0  0  0  0  0  0  0  0  0  0  0
  2  1  1  1
  3  2  1  0
  4  3  1  0
  5  4  1  0
  6  5  1  0
  7  6  1  0
  8 16  1  0
  8  2  1  0
  9  8  2  0
 10 11  1  0
 11 12  2  0
 11 13  1  0
 13 14  1  0
 15 14  1  1
 15 16  1  0
 15 17  1  0
 17 18  2  0
 19 17  1  0
 19 20  1  0
 20 21  1  1
 21 22  1  0
 22 26  1  0
 23 22  2  0
 24 20  1  0
 24 25  1  0
 27 24  2  0
M  END
$$$$
