KQD.pdb
     RDKit          3D

 27 26  0  0  1  0  0  0  0  0999 V2000
   19.6222  -13.0148  -15.9292 N   0  0  0  0  0  0  0  0  0  0  0  0
   19.2937  -12.0539  -16.9661 C   0  0  1  0  0  0  0  0  0  0  0  0
   18.0176  -12.5427  -17.6276 C   0  0  0  0  0  0  0  0  0  0  0  0
   18.2392  -13.8705  -18.3123 C   0  0  0  0  0  0  0  0  0  0  0  0
   18.4589  -13.7231  -19.7923 C   0  0  0  0  0  0  0  0  0  0  0  0
   18.6232  -15.0469  -20.4933 C   0  0  0  0  0  0  0  0  0  0  0  0
   18.8573  -14.7604  -21.8998 N   0  0  0  0  0  0  0  0  0  0  0  0
   19.1067  -10.7164  -16.3540 C   0  0  0  0  0  0  0  0  0  0  0  0
   18.8189   -9.7718  -17.1601 O   0  0  0  0  0  0  0  0  0  0  0  0
   17.0865   -9.6148  -10.7125 N   0  0  0  0  0  0  0  0  0  0  0  0
   16.2500   -9.8008  -11.8516 C   0  0  0  0  0  0  0  0  0  0  0  0
   15.0245  -10.1170  -11.7190 O   0  0  0  0  0  0  0  0  0  0  0  0
   16.8659   -9.6048  -13.1857 C   0  0  0  0  0  0  0  0  0  0  0  0
   18.3068   -9.3044  -13.1586 C   0  0  0  0  0  0  0  0  0  0  0  0
   19.0456   -9.1134  -14.4176 C   0  0  2  0  0  0  0  0  0  0  0  0
   19.2286  -10.4638  -14.9883 N   0  0  0  0  0  0  0  0  0  0  0  0
   20.2715   -8.3581  -14.4526 C   0  0  0  0  0  0  0  0  0  0  0  0
   21.4253   -8.7979  -14.2051 O   0  0  0  0  0  0  0  0  0  0  0  0
   20.2049   -6.9655  -14.8001 N   0  0  0  0  0  0  0  0  0  0  0  0
   21.4603   -6.1812  -14.8224 C   0  0  1  0  0  0  0  0  0  0  0  0
   21.2833   -5.0295  -15.7554 C   0  0  0  0  0  0  0  0  0  0  0  0
   22.4064   -4.0694  -15.7754 C   0  0  0  0  0  0  0  0  0  0  0  0
   23.5906   -4.5197  -15.7357 O   0  0  0  0  0  0  0  0  0  0  0  0
   21.6079   -5.6396  -13.4349 C   0  0  0  0  0  0  0  0  0  0  0  0
   22.8029   -5.1290  -12.9542 O   0  0  0  0  0  0  0  0  0  0  0  0
   22.2803   -2.6916  -15.8330 O   0  0  0  0  0  0  0  0  0  0  0  0
   20.6243   -5.6414  -12.6689 O   0  0  0  0  0  0  0  0  0  0  0  0
  2  1  1  1
  3  2  1  0
  4  3  1  0
  5  4  1  0
  6  5  1  0
  7  6  1  0
  8 16  1  0
  8  2  1  0
  9  8  2  0
 10 11  1  0
 11 12  2  0
 11 13  1  0
 13 14  1  0
 15 14  1  1
 15 16  1  0
 15 17  1  0
 17 18  2  0
 19 17  1  0
 19 20  1  0
 20 21  1  6
 21 22  1  0
 22 26  1  0
 23 22  2  0
 24 20  1  0
 24 25  1  0
 27 24  2  0
M  END
$$$$
