KQD.pdb
     RDKit          3D

 27 26  0  0  1  0  0  0  0  0999 V2000
   28.7538  -23.5045  -17.0310 N   0  0  0  0  0  0  0  0  0  0  0  0
   28.3276  -22.1946  -16.5739 C   0  0  1  0  0  0  0  0  0  0  0  0
   27.9295  -21.4079  -17.8098 C   0  0  0  0  0  0  0  0  0  0  0  0
   29.1379  -21.0845  -18.6560 C   0  0  0  0  0  0  0  0  0  0  0  0
   28.8117  -20.1521  -19.7894 C   0  0  0  0  0  0  0  0  0  0  0  0
   30.0256  -19.7612  -20.5923 C   0  0  0  0  0  0  0  0  0  0  0  0
   29.5622  -18.9281  -21.6906 N   0  0  0  0  0  0  0  0  0  0  0  0
   27.1859  -22.3483  -15.6403 C   0  0  0  0  0  0  0  0  0  0  0  0
   26.4905  -23.4071  -15.7827 O   0  0  0  0  0  0  0  0  0  0  0  0
   27.6003  -20.7699   -9.9733 N   0  0  0  0  0  0  0  0  0  0  0  0
   26.1862  -20.9370   -9.9084 C   0  0  0  0  0  0  0  0  0  0  0  0
   25.5640  -20.8256   -8.8039 O   0  0  0  0  0  0  0  0  0  0  0  0
   25.4790  -21.2377  -11.1760 C   0  0  0  0  0  0  0  0  0  0  0  0
   26.3519  -21.3381  -12.3572 C   0  0  0  0  0  0  0  0  0  0  0  0
   25.7781  -21.6558  -13.6753 C   0  0  2  0  0  0  0  0  0  0  0  0
   26.8584  -21.4181  -14.6548 N   0  0  0  0  0  0  0  0  0  0  0  0
   24.5379  -21.0647  -14.1078 C   0  0  0  0  0  0  0  0  0  0  0  0
   24.3861  -19.9011  -14.5648 O   0  0  0  0  0  0  0  0  0  0  0  0
   23.3401  -21.8536  -14.0222 N   0  0  0  0  0  0  0  0  0  0  0  0
   22.0546  -21.2329  -14.4148 C   0  0  1  0  0  0  0  0  0  0  0  0
   21.0567  -22.3177  -14.6504 C   0  0  0  0  0  0  0  0  0  0  0  0
   19.7019  -21.8472  -15.0067 C   0  0  0  0  0  0  0  0  0  0  0  0
   19.4941  -20.5993  -15.0858 O   0  0  0  0  0  0  0  0  0  0  0  0
   21.6174  -20.4482  -13.2175 C   0  0  0  0  0  0  0  0  0  0  0  0
   20.8628  -19.2904  -13.3164 O   0  0  0  0  0  0  0  0  0  0  0  0
   18.6139  -22.6635  -15.2660 O   0  0  0  0  0  0  0  0  0  0  0  0
   21.9376  -20.8401  -12.0781 O   0  0  0  0  0  0  0  0  0  0  0  0
  2  1  1  6
  3  2  1  0
  4  3  1  0
  5  4  1  0
  6  5  1  0
  7  6  1  0
  8 16  1  0
  8  2  1  0
  9  8  2  0
 10 11  1  0
 11 12  2  0
 11 13  1  0
 13 14  1  0
 15 14  1  1
 15 16  1  0
 15 17  1  0
 17 18  2  0
 19 17  1  0
 19 20  1  0
 20 21  1  1
 21 22  1  0
 22 26  1  0
 23 22  2  0
 24 20  1  0
 24 25  1  0
 27 24  2  0
M  END
$$$$
