KQD.pdb
     RDKit          3D

 27 26  0  0  1  0  0  0  0  0999 V2000
   20.7636  -13.2755  -16.1496 N   0  0  0  0  0  0  0  0  0  0  0  0
   20.2659  -12.0170  -16.6740 C   0  0  1  0  0  0  0  0  0  0  0  0
   18.8407  -11.8670  -16.1728 C   0  0  0  0  0  0  0  0  0  0  0  0
   17.9757  -13.0064  -16.6571 C   0  0  0  0  0  0  0  0  0  0  0  0
   16.5771  -12.9375  -16.1101 C   0  0  0  0  0  0  0  0  0  0  0  0
   15.6824  -14.0207  -16.6551 C   0  0  0  0  0  0  0  0  0  0  0  0
   14.4506  -13.9876  -15.8828 N   0  0  0  0  0  0  0  0  0  0  0  0
   21.1271  -10.9101  -16.1927 C   0  0  0  0  0  0  0  0  0  0  0  0
   21.1039  -10.6940  -14.9366 O   0  0  0  0  0  0  0  0  0  0  0  0
   27.0818   -7.3805  -18.2594 N   0  0  0  0  0  0  0  0  0  0  0  0
   26.4133   -8.4580  -17.6085 C   0  0  0  0  0  0  0  0  0  0  0  0
   26.9168   -9.6266  -17.5928 O   0  0  0  0  0  0  0  0  0  0  0  0
   25.1192   -8.1565  -16.9511 C   0  0  0  0  0  0  0  0  0  0  0  0
   24.0700   -9.1659  -17.1691 C   0  0  0  0  0  0  0  0  0  0  0  0
   22.7610   -9.0253  -16.5100 C   0  0  2  0  0  0  0  0  0  0  0  0
   21.9272  -10.1302  -17.0266 N   0  0  0  0  0  0  0  0  0  0  0  0
   22.0479   -7.7742  -16.5332 C   0  0  0  0  0  0  0  0  0  0  0  0
   21.5531   -7.2169  -17.5483 O   0  0  0  0  0  0  0  0  0  0  0  0
   21.8669   -7.0693  -15.2943 N   0  0  0  0  0  0  0  0  0  0  0  0
   21.1906   -5.7526  -15.3218 C   0  0  1  0  0  0  0  0  0  0  0  0
   19.7995   -5.9233  -14.8082 C   0  0  0  0  0  0  0  0  0  0  0  0
   19.0306   -4.6688  -14.6716 C   0  0  0  0  0  0  0  0  0  0  0  0
   19.5010   -3.6097  -15.1853 O   0  0  0  0  0  0  0  0  0  0  0  0
   21.9470   -4.9039  -14.3482 C   0  0  0  0  0  0  0  0  0  0  0  0
   21.6483   -3.5686  -14.1298 O   0  0  0  0  0  0  0  0  0  0  0  0
   17.8169   -4.5414  -14.0173 O   0  0  0  0  0  0  0  0  0  0  0  0
   22.8867   -5.4049  -13.7000 O   0  0  0  0  0  0  0  0  0  0  0  0
  2  1  1  1
  3  2  1  0
  4  3  1  0
  5  4  1  0
  6  5  1  0
  7  6  1  0
  8 16  1  0
  8  2  1  0
  9  8  2  0
 10 11  1  0
 11 12  2  0
 11 13  1  0
 13 14  1  0
 15 14  1  6
 15 16  1  0
 15 17  1  0
 17 18  2  0
 19 17  1  0
 19 20  1  0
 20 21  1  1
 21 22  1  0
 22 26  1  0
 23 22  2  0
 24 20  1  0
 24 25  1  0
 27 24  2  0
M  END
$$$$
