KQD.pdb
     RDKit          3D

 27 26  0  0  1  0  0  0  0  0999 V2000
   21.0908  -12.7861  -16.9701 N   0  0  0  0  0  0  0  0  0  0  0  0
   20.4038  -12.0494  -18.0150 C   0  0  1  0  0  0  0  0  0  0  0  0
   19.1957  -12.8782  -18.4130 C   0  0  0  0  0  0  0  0  0  0  0  0
   19.5142  -14.3537  -18.3657 C   0  0  0  0  0  0  0  0  0  0  0  0
   18.3158  -15.2093  -18.6692 C   0  0  0  0  0  0  0  0  0  0  0  0
   18.6374  -16.6815  -18.6833 C   0  0  0  0  0  0  0  0  0  0  0  0
   17.3954  -17.3884  -18.9528 N   0  0  0  0  0  0  0  0  0  0  0  0
   20.0000  -10.7211  -17.4944 C   0  0  0  0  0  0  0  0  0  0  0  0
   19.3818   -9.9670  -18.3155 O   0  0  0  0  0  0  0  0  0  0  0  0
   16.9731  -10.1696  -12.7126 N   0  0  0  0  0  0  0  0  0  0  0  0
   17.9652   -9.2501  -12.2630 C   0  0  0  0  0  0  0  0  0  0  0  0
   17.9987   -8.8643  -11.0509 O   0  0  0  0  0  0  0  0  0  0  0  0
   18.9513   -8.7730  -13.2619 C   0  0  0  0  0  0  0  0  0  0  0  0
   18.7949   -9.3544  -14.6052 C   0  0  0  0  0  0  0  0  0  0  0  0
   19.7402   -9.0022  -15.6775 C   0  0  2  0  0  0  0  0  0  0  0  0
   20.2598  -10.2844  -16.1961 N   0  0  0  0  0  0  0  0  0  0  0  0
   20.8039   -8.0582  -15.4500 C   0  0  0  0  0  0  0  0  0  0  0  0
   21.9270   -8.3096  -14.9388 O   0  0  0  0  0  0  0  0  0  0  0  0
   20.5942   -6.6892  -15.8324 N   0  0  0  0  0  0  0  0  0  0  0  0
   21.6773   -5.7112  -15.5831 C   0  0  1  0  0  0  0  0  0  0  0  0
   21.4640   -4.5309  -16.4716 C   0  0  0  0  0  0  0  0  0  0  0  0
   22.4470   -3.4407  -16.3012 C   0  0  0  0  0  0  0  0  0  0  0  0
   23.3949   -3.6019  -15.4752 O   0  0  0  0  0  0  0  0  0  0  0  0
   21.4868   -5.2692  -14.1658 C   0  0  0  0  0  0  0  0  0  0  0  0
   22.4424   -4.5430  -13.4736 O   0  0  0  0  0  0  0  0  0  0  0  0
   22.4257   -2.2314  -16.9754 O   0  0  0  0  0  0  0  0  0  0  0  0
   20.4303   -5.5590  -13.5707 O   0  0  0  0  0  0  0  0  0  0  0  0
  2  1  1  1
  3  2  1  0
  4  3  1  0
  5  4  1  0
  6  5  1  0
  7  6  1  0
  8 16  1  0
  8  2  1  0
  9  8  2  0
 10 11  1  0
 11 12  2  0
 11 13  1  0
 13 14  1  0
 15 14  1  1
 15 16  1  0
 15 17  1  0
 17 18  2  0
 19 17  1  0
 19 20  1  0
 20 21  1  6
 21 22  1  0
 22 26  1  0
 23 22  2  0
 24 20  1  0
 24 25  1  0
 27 24  2  0
M  END
$$$$
