NWN.pdb
     RDKit          3D

 31 32  0  0  1  0  0  0  0  0999 V2000
    6.9764  -12.6147   18.4329 N   0  0  0  0  0  0  0  0  0  0  0  0
    7.8196  -13.6812   18.8469 C   0  0  0  0  0  0  0  0  0  0  0  0
    8.0623  -14.5680   17.9679 O   0  0  0  0  0  0  0  0  0  0  0  0
    8.3977  -13.7875   20.2059 C   0  0  0  0  0  0  0  0  0  0  0  0
    8.5131  -15.2548   20.5702 C   0  0  2  0  0  0  0  0  0  0  0  0
    7.1687  -15.8161   20.6551 N   0  0  0  0  0  0  0  0  0  0  0  0
    9.2223  -15.4367   21.8626 C   0  0  0  0  0  0  0  0  0  0  0  0
   10.3720  -14.9355   21.9583 O   0  0  0  0  0  0  0  0  0  0  0  0
    8.6540  -16.1380   22.9562 N   0  0  0  0  0  0  0  0  0  0  0  0
    9.3633  -16.3349   24.2167 C   0  0  1  0  0  0  0  0  0  0  0  0
    8.4176  -16.4403   25.3653 C   0  0  0  0  0  0  0  0  0  0  0  0
    7.4031  -15.3816   25.4648 C   0  0  0  0  0  0  0  0  0  0  0  0
    6.0577  -15.5574   25.1223 C   0  0  0  0  0  0  0  0  0  0  0  0
    5.3735  -14.4356   25.3401 N   0  0  0  0  0  0  0  0  0  0  0  0
    6.2297  -13.5009   25.8239 C   0  0  0  0  0  0  0  0  0  0  0  0
    6.0071  -12.1917   26.1953 C   0  0  0  0  0  0  0  0  0  0  0  0
    7.0353  -11.4108   26.6593 C   0  0  0  0  0  0  0  0  0  0  0  0
    8.2834  -11.9863   26.7361 C   0  0  0  0  0  0  0  0  0  0  0  0
    8.5224  -13.2928   26.3692 C   0  0  0  0  0  0  0  0  0  0  0  0
    7.4994  -14.0887   25.9026 C   0  0  0  0  0  0  0  0  0  0  0  0
   10.4105  -17.3541   24.1596 C   0  0  0  0  0  0  0  0  0  0  0  0
   10.1493  -18.5042   23.7260 O   0  0  0  0  0  0  0  0  0  0  0  0
   13.8519  -15.7127   22.6523 N   0  0  0  0  0  0  0  0  0  0  0  0
   14.3710  -16.6684   23.5530 C   0  0  0  0  0  0  0  0  0  0  0  0
   15.2882  -16.3460   24.3285 O   0  0  0  0  0  0  0  0  0  0  0  0
   13.8245  -18.0325   23.5662 C   0  0  0  0  0  0  0  0  0  0  0  0
   12.7512  -18.1647   24.5924 C   0  0  2  0  0  0  0  0  0  0  0  0
   11.7565  -17.1247   24.5770 N   0  0  0  0  0  0  0  0  0  0  0  0
   13.3930  -18.1712   25.9453 C   0  0  0  0  0  0  0  0  0  0  0  0
   14.3595  -19.1109   26.3033 O   0  0  0  0  0  0  0  0  0  0  0  0
   13.0871  -17.3231   26.8272 O   0  0  0  0  0  0  0  0  0  0  0  0
  2  1  1  0
  2  3  2  0
  4  2  1  0
  5  4  1  0
  5  6  1  1
  7  5  1  0
  7  8  2  0
  9  7  1  0
 10  9  1  0
 10 11  1  1
 12 11  1  0
 12 13  2  0
 14 13  1  0
 15 20  2  0
 15 14  1  0
 16 15  1  0
 17 16  2  0
 18 17  1  0
 18 19  2  0
 19 20  1  0
 20 12  1  0
 21 28  1  0
 21 10  1  0
 22 21  2  0
 23 24  1  0
 24 26  1  0
 25 24  2  0
 27 26  1  6
 27 28  1  0
 27 29  1  0
 29 31  2  0
 29 30  1  0
M  END
$$$$
