NWN.pdb
     RDKit          3D

 31 32  0  0  1  0  0  0  0  0999 V2000
    7.0922  -12.3851   18.4010 N   0  0  0  0  0  0  0  0  0  0  0  0
    7.9287  -13.4518   18.8275 C   0  0  0  0  0  0  0  0  0  0  0  0
    8.2625  -14.2870   17.9280 O   0  0  0  0  0  0  0  0  0  0  0  0
    8.4020  -13.6140   20.2211 C   0  0  0  0  0  0  0  0  0  0  0  0
    8.5587  -15.0941   20.5106 C   0  0  2  0  0  0  0  0  0  0  0  0
    7.2373  -15.7127   20.4792 N   0  0  0  0  0  0  0  0  0  0  0  0
    9.1950  -15.3217   21.8334 C   0  0  0  0  0  0  0  0  0  0  0  0
   10.3186  -14.7899   22.0254 O   0  0  0  0  0  0  0  0  0  0  0  0
    8.5870  -16.0979   22.8526 N   0  0  0  0  0  0  0  0  0  0  0  0
    9.1988  -16.2898   24.1639 C   0  0  1  0  0  0  0  0  0  0  0  0
    8.1684  -16.4040   25.2363 C   0  0  0  0  0  0  0  0  0  0  0  0
    7.3144  -15.2252   25.4383 C   0  0  0  0  0  0  0  0  0  0  0  0
    5.9161  -15.2598   25.3960 C   0  0  0  0  0  0  0  0  0  0  0  0
    5.4147  -14.0502   25.6399 N   0  0  0  0  0  0  0  0  0  0  0  0
    6.4470  -13.1944   25.8467 C   0  0  0  0  0  0  0  0  0  0  0  0
    6.4464  -11.8444   26.1280 C   0  0  0  0  0  0  0  0  0  0  0  0
    7.6255  -11.1633   26.2951 C   0  0  0  0  0  0  0  0  0  0  0  0
    8.7944  -11.8796   26.1707 C   0  0  0  0  0  0  0  0  0  0  0  0
    8.8122  -13.2285   25.8902 C   0  0  0  0  0  0  0  0  0  0  0  0
    7.6360  -13.9254   25.7208 C   0  0  0  0  0  0  0  0  0  0  0  0
   10.2558  -17.3003   24.1874 C   0  0  0  0  0  0  0  0  0  0  0  0
   10.0806  -18.4106   23.6256 O   0  0  0  0  0  0  0  0  0  0  0  0
   15.0037  -16.3130   25.6734 N   0  0  0  0  0  0  0  0  0  0  0  0
   14.2896  -16.5249   24.4737 C   0  0  0  0  0  0  0  0  0  0  0  0
   14.1022  -15.5735   23.6950 O   0  0  0  0  0  0  0  0  0  0  0  0
   13.7750  -17.8643   24.1564 C   0  0  0  0  0  0  0  0  0  0  0  0
   12.5151  -18.1401   24.9040 C   0  0  2  0  0  0  0  0  0  0  0  0
   11.5173  -17.1057   24.8270 N   0  0  0  0  0  0  0  0  0  0  0  0
   12.8599  -18.3439   26.3469 C   0  0  0  0  0  0  0  0  0  0  0  0
   12.2424  -17.6199   27.3666 O   0  0  0  0  0  0  0  0  0  0  0  0
   13.7289  -19.1838   26.7076 O   0  0  0  0  0  0  0  0  0  0  0  0
  2  1  1  0
  2  3  2  0
  4  2  1  0
  5  4  1  0
  5  6  1  1
  7  5  1  0
  7  8  2  0
  9  7  1  0
 10  9  1  0
 10 11  1  1
 12 11  1  0
 12 13  2  0
 14 13  1  0
 15 20  2  0
 15 14  1  0
 16 15  1  0
 17 16  2  0
 18 17  1  0
 18 19  2  0
 19 20  1  0
 20 12  1  0
 21 28  1  0
 21 10  1  0
 22 21  2  0
 23 24  1  0
 24 26  1  0
 25 24  2  0
 27 26  1  6
 27 28  1  0
 27 29  1  0
 29 31  2  0
 29 30  1  0
M  END
$$$$
