NWN.pdb
     RDKit          3D

 31 32  0  0  1  0  0  0  0  0999 V2000
   11.2627  -17.2227   18.2430 N   0  0  0  0  0  0  0  0  0  0  0  0
   11.6992  -16.0084   18.8384 C   0  0  0  0  0  0  0  0  0  0  0  0
   12.3112  -15.2027   18.0676 O   0  0  0  0  0  0  0  0  0  0  0  0
   11.4742  -15.6674   20.2616 C   0  0  0  0  0  0  0  0  0  0  0  0
   10.8827  -16.8752   20.9618 C   0  0  2  0  0  0  0  0  0  0  0  0
    9.5758  -17.1542   20.3754 N   0  0  0  0  0  0  0  0  0  0  0  0
   10.7448  -16.6397   22.4220 C   0  0  0  0  0  0  0  0  0  0  0  0
   11.7535  -16.1926   23.0258 O   0  0  0  0  0  0  0  0  0  0  0  0
    9.5432  -16.8976   23.1294 N   0  0  0  0  0  0  0  0  0  0  0  0
    9.4481  -16.7880   24.5818 C   0  0  1  0  0  0  0  0  0  0  0  0
    8.0476  -16.5196   25.0191 C   0  0  0  0  0  0  0  0  0  0  0  0
    7.5073  -15.1965   24.6765 C   0  0  0  0  0  0  0  0  0  0  0  0
    6.9728  -14.8738   23.4241 C   0  0  0  0  0  0  0  0  0  0  0  0
    6.5388  -13.6146   23.4156 N   0  0  0  0  0  0  0  0  0  0  0  0
    6.7691  -13.0759   24.6394 C   0  0  0  0  0  0  0  0  0  0  0  0
    6.5055  -11.8120   25.1236 C   0  0  0  0  0  0  0  0  0  0  0  0
    6.8329  -11.4732   26.4121 C   0  0  0  0  0  0  0  0  0  0  0  0
    7.4292  -12.4401   27.1896 C   0  0  0  0  0  0  0  0  0  0  0  0
    7.6991  -13.7075   26.7211 C   0  0  0  0  0  0  0  0  0  0  0  0
    7.3750  -14.0618   25.4299 C   0  0  0  0  0  0  0  0  0  0  0  0
   10.1490  -17.8467   25.3076 C   0  0  0  0  0  0  0  0  0  0  0  0
    9.9501  -19.0521   25.0138 O   0  0  0  0  0  0  0  0  0  0  0  0
   14.8394  -20.3485   27.2056 N   0  0  0  0  0  0  0  0  0  0  0  0
   13.9347  -19.4950   27.8743 C   0  0  0  0  0  0  0  0  0  0  0  0
   13.6965  -19.6779   29.0811 O   0  0  0  0  0  0  0  0  0  0  0  0
   13.2838  -18.4008   27.1403 C   0  0  0  0  0  0  0  0  0  0  0  0
   11.8195  -18.6474   27.0081 C   0  0  2  0  0  0  0  0  0  0  0  0
   11.0763  -17.5965   26.3639 N   0  0  0  0  0  0  0  0  0  0  0  0
   11.2503  -18.8433   28.3791 C   0  0  0  0  0  0  0  0  0  0  0  0
   11.2730  -20.0809   29.0218 O   0  0  0  0  0  0  0  0  0  0  0  0
   10.7217  -17.8933   29.0185 O   0  0  0  0  0  0  0  0  0  0  0  0
  2  1  1  0
  2  3  2  0
  4  2  1  0
  5  4  1  0
  5  6  1  6
  7  5  1  0
  7  8  2  0
  9  7  1  0
 10  9  1  0
 10 11  1  6
 12 11  1  0
 12 13  2  0
 14 13  1  0
 15 20  2  0
 15 14  1  0
 16 15  1  0
 17 16  2  0
 18 17  1  0
 18 19  2  0
 19 20  1  0
 20 12  1  0
 21 28  1  0
 21 10  1  0
 22 21  2  0
 23 24  1  0
 24 26  1  0
 25 24  2  0
 27 26  1  1
 27 28  1  0
 27 29  1  0
 29 31  2  0
 29 30  1  0
M  END
$$$$
