NWN.pdb
     RDKit          3D

 31 32  0  0  1  0  0  0  0  0999 V2000
    6.7230  -13.0227   18.2207 N   0  0  0  0  0  0  0  0  0  0  0  0
    7.9163  -13.6906   18.6073 C   0  0  0  0  0  0  0  0  0  0  0  0
    8.5224  -14.3203   17.6831 O   0  0  0  0  0  0  0  0  0  0  0  0
    8.4514  -13.6772   19.9879 C   0  0  0  0  0  0  0  0  0  0  0  0
    8.7992  -15.0980   20.3867 C   0  0  2  0  0  0  0  0  0  0  0  0
    7.5852  -15.9054   20.3226 N   0  0  0  0  0  0  0  0  0  0  0  0
    9.3724  -15.1500   21.7562 C   0  0  0  0  0  0  0  0  0  0  0  0
   10.2693  -14.3124   22.0317 O   0  0  0  0  0  0  0  0  0  0  0  0
    8.9472  -16.0896   22.7294 N   0  0  0  0  0  0  0  0  0  0  0  0
    9.5331  -16.1568   24.0646 C   0  0  1  0  0  0  0  0  0  0  0  0
    8.4880  -16.3503   25.1110 C   0  0  0  0  0  0  0  0  0  0  0  0
    7.4830  -15.2840   25.2238 C   0  0  0  0  0  0  0  0  0  0  0  0
    6.1767  -15.3898   24.7333 C   0  0  0  0  0  0  0  0  0  0  0  0
    5.4891  -14.2813   25.0026 N   0  0  0  0  0  0  0  0  0  0  0  0
    6.3047  -13.4242   25.6667 C   0  0  0  0  0  0  0  0  0  0  0  0
    6.0635  -12.1569   26.1537 C   0  0  0  0  0  0  0  0  0  0  0  0
    7.0501  -11.4549   26.7986 C   0  0  0  0  0  0  0  0  0  0  0  0
    8.2763  -12.0652   26.9355 C   0  0  0  0  0  0  0  0  0  0  0  0
    8.5335  -13.3307   26.4549 C   0  0  0  0  0  0  0  0  0  0  0  0
    7.5521  -14.0476   25.8062 C   0  0  0  0  0  0  0  0  0  0  0  0
   10.6998  -17.0334   24.1612 C   0  0  0  0  0  0  0  0  0  0  0  0
   10.6257  -18.2277   23.7777 O   0  0  0  0  0  0  0  0  0  0  0  0
   14.9847  -17.2962   22.5430 N   0  0  0  0  0  0  0  0  0  0  0  0
   14.7535  -16.3986   23.6085 C   0  0  0  0  0  0  0  0  0  0  0  0
   14.8491  -15.1745   23.4112 O   0  0  0  0  0  0  0  0  0  0  0  0
   14.4031  -16.9175   24.9380 C   0  0  0  0  0  0  0  0  0  0  0  0
   13.0430  -17.5276   24.9284 C   0  0  2  0  0  0  0  0  0  0  0  0
   11.9614  -16.6113   24.6793 N   0  0  0  0  0  0  0  0  0  0  0  0
   12.8071  -18.1708   26.2599 C   0  0  0  0  0  0  0  0  0  0  0  0
   13.6254  -19.1900   26.7467 O   0  0  0  0  0  0  0  0  0  0  0  0
   11.8529  -17.8186   27.0055 O   0  0  0  0  0  0  0  0  0  0  0  0
  2  1  1  0
  2  3  2  0
  4  2  1  0
  5  4  1  0
  5  6  1  1
  7  5  1  0
  7  8  2  0
  9  7  1  0
 10  9  1  0
 10 11  1  1
 12 11  1  0
 12 13  2  0
 14 13  1  0
 15 20  2  0
 15 14  1  0
 16 15  1  0
 17 16  2  0
 18 17  1  0
 18 19  2  0
 19 20  1  0
 20 12  1  0
 21 28  1  0
 21 10  1  0
 22 21  2  0
 23 24  1  0
 24 26  1  0
 25 24  2  0
 27 26  1  1
 27 28  1  0
 27 29  1  0
 29 31  2  0
 29 30  1  0
M  END
$$$$
