NWN.pdb
     RDKit          3D

 31 32  0  0  1  0  0  0  0  0999 V2000
    6.5921  -13.1598   17.9398 N   0  0  0  0  0  0  0  0  0  0  0  0
    7.8038  -13.7911   18.3306 C   0  0  0  0  0  0  0  0  0  0  0  0
    8.3968  -14.4595   17.4252 O   0  0  0  0  0  0  0  0  0  0  0  0
    8.3715  -13.6995   19.6951 C   0  0  0  0  0  0  0  0  0  0  0  0
    8.5540  -15.1028   20.2394 C   0  0  2  0  0  0  0  0  0  0  0  0
    7.2384  -15.7192   20.3762 N   0  0  0  0  0  0  0  0  0  0  0  0
    9.2469  -15.0871   21.5532 C   0  0  0  0  0  0  0  0  0  0  0  0
   10.2788  -14.3738   21.6459 O   0  0  0  0  0  0  0  0  0  0  0  0
    8.7889  -15.8315   22.6698 N   0  0  0  0  0  0  0  0  0  0  0  0
    9.5023  -15.8565   23.9430 C   0  0  1  0  0  0  0  0  0  0  0  0
    8.5890  -16.1870   25.0750 C   0  0  0  0  0  0  0  0  0  0  0  0
    7.4851  -15.2456   25.3090 C   0  0  0  0  0  0  0  0  0  0  0  0
    6.1326  -15.5925   25.2162 C   0  0  0  0  0  0  0  0  0  0  0  0
    5.3640  -14.5440   25.5059 N   0  0  0  0  0  0  0  0  0  0  0  0
    6.1698  -13.4909   25.7934 C   0  0  0  0  0  0  0  0  0  0  0  0
    5.8560  -12.1951   26.1454 C   0  0  0  0  0  0  0  0  0  0  0  0
    6.8454  -11.2765   26.3892 C   0  0  0  0  0  0  0  0  0  0  0  0
    8.1490  -11.7017   26.2680 C   0  0  0  0  0  0  0  0  0  0  0  0
    8.4793  -12.9927   25.9175 C   0  0  0  0  0  0  0  0  0  0  0  0
    7.4964  -13.9259   25.6707 C   0  0  0  0  0  0  0  0  0  0  0  0
   10.7633  -16.5965   23.9064 C   0  0  0  0  0  0  0  0  0  0  0  0
   10.7752  -17.8075   23.5714 O   0  0  0  0  0  0  0  0  0  0  0  0
   16.1781  -17.0083   22.4677 N   0  0  0  0  0  0  0  0  0  0  0  0
   15.6891  -16.6435   23.7413 C   0  0  0  0  0  0  0  0  0  0  0  0
   16.3017  -17.0068   24.7608 O   0  0  0  0  0  0  0  0  0  0  0  0
   14.4637  -15.8398   23.8508 C   0  0  0  0  0  0  0  0  0  0  0  0
   13.2713  -16.7134   24.0450 C   0  0  2  0  0  0  0  0  0  0  0  0
   12.0260  -16.0178   24.2365 N   0  0  0  0  0  0  0  0  0  0  0  0
   13.5102  -17.5741   25.2469 C   0  0  0  0  0  0  0  0  0  0  0  0
   14.3109  -18.7150   25.1949 O   0  0  0  0  0  0  0  0  0  0  0  0
   12.9956  -17.3053   26.3665 O   0  0  0  0  0  0  0  0  0  0  0  0
  2  1  1  0
  2  3  2  0
  4  2  1  0
  5  4  1  0
  5  6  1  1
  7  5  1  0
  7  8  2  0
  9  7  1  0
 10  9  1  0
 10 11  1  1
 12 11  1  0
 12 13  2  0
 14 13  1  0
 15 20  2  0
 15 14  1  0
 16 15  1  0
 17 16  2  0
 18 17  1  0
 18 19  2  0
 19 20  1  0
 20 12  1  0
 21 28  1  0
 21 10  1  0
 22 21  2  0
 23 24  1  0
 24 26  1  0
 25 24  2  0
 27 26  1  1
 27 28  1  0
 27 29  1  0
 29 31  2  0
 29 30  1  0
M  END
$$$$
