NWN.pdb
     RDKit          3D

 31 32  0  0  1  0  0  0  0  0999 V2000
    8.7826  -16.5397   17.5434 N   0  0  0  0  0  0  0  0  0  0  0  0
    9.5341  -17.5288   18.2338 C   0  0  0  0  0  0  0  0  0  0  0  0
    9.7727  -18.5961   17.5841 O   0  0  0  0  0  0  0  0  0  0  0  0
   10.0254  -17.3636   19.6208 C   0  0  0  0  0  0  0  0  0  0  0  0
    9.3876  -16.1237   20.2164 C   0  0  2  0  0  0  0  0  0  0  0  0
    9.8387  -14.9625   19.4563 N   0  0  0  0  0  0  0  0  0  0  0  0
    9.7486  -15.9651   21.6486 C   0  0  0  0  0  0  0  0  0  0  0  0
   10.8963  -15.5171   21.9018 O   0  0  0  0  0  0  0  0  0  0  0  0
    8.8604  -16.2950   22.7036 N   0  0  0  0  0  0  0  0  0  0  0  0
    9.2799  -16.3304   24.1012 C   0  0  1  0  0  0  0  0  0  0  0  0
    8.1228  -16.1458   25.0241 C   0  0  0  0  0  0  0  0  0  0  0  0
    7.3764  -14.8881   24.8790 C   0  0  0  0  0  0  0  0  0  0  0  0
    6.3909  -14.6747   23.9087 C   0  0  0  0  0  0  0  0  0  0  0  0
    5.8718  -13.4546   24.0356 N   0  0  0  0  0  0  0  0  0  0  0  0
    6.4871  -12.8352   25.0741 C   0  0  0  0  0  0  0  0  0  0  0  0
    6.3069  -11.5711   25.5948 C   0  0  0  0  0  0  0  0  0  0  0  0
    7.0542  -11.1400   26.6615 C   0  0  0  0  0  0  0  0  0  0  0  0
    7.9803  -12.0155   27.1818 C   0  0  0  0  0  0  0  0  0  0  0  0
    8.1724  -13.2817   26.6734 C   0  0  0  0  0  0  0  0  0  0  0  0
    7.4286  -13.7283   25.6033 C   0  0  0  0  0  0  0  0  0  0  0  0
   10.1822  -17.4347   24.4258 C   0  0  0  0  0  0  0  0  0  0  0  0
    9.9425  -18.5922   23.9997 O   0  0  0  0  0  0  0  0  0  0  0  0
   14.0748  -16.9843   22.7428 N   0  0  0  0  0  0  0  0  0  0  0  0
   14.0018  -17.4054   24.0888 C   0  0  0  0  0  0  0  0  0  0  0  0
   14.5557  -16.7300   24.9739 O   0  0  0  0  0  0  0  0  0  0  0  0
   13.2738  -18.6353   24.4311 C   0  0  0  0  0  0  0  0  0  0  0  0
   12.2579  -18.3736   25.4903 C   0  0  2  0  0  0  0  0  0  0  0  0
   11.3581  -17.2830   25.2212 N   0  0  0  0  0  0  0  0  0  0  0  0
   12.9782  -18.0746   26.7687 C   0  0  0  0  0  0  0  0  0  0  0  0
   13.8539  -18.9866   27.3574 O   0  0  0  0  0  0  0  0  0  0  0  0
   12.8250  -16.9790   27.3742 O   0  0  0  0  0  0  0  0  0  0  0  0
  2  1  1  0
  2  3  2  0
  4  2  1  0
  5  4  1  0
  5  6  1  6
  7  5  1  0
  7  8  2  0
  9  7  1  0
 10  9  1  0
 10 11  1  1
 12 11  1  0
 12 13  2  0
 14 13  1  0
 15 20  2  0
 15 14  1  0
 16 15  1  0
 17 16  2  0
 18 17  1  0
 18 19  2  0
 19 20  1  0
 20 12  1  0
 21 28  1  0
 21 10  1  0
 22 21  2  0
 23 24  1  0
 24 26  1  0
 25 24  2  0
 27 26  1  6
 27 28  1  0
 27 29  1  0
 29 31  2  0
 29 30  1  0
M  END
$$$$
