NWN.pdb
     RDKit          3D

 31 32  0  0  1  0  0  0  0  0999 V2000
    8.1138  -12.4211   17.7368 N   0  0  0  0  0  0  0  0  0  0  0  0
    7.7771  -13.6039   18.4490 C   0  0  0  0  0  0  0  0  0  0  0  0
    7.3797  -14.5826   17.7403 O   0  0  0  0  0  0  0  0  0  0  0  0
    7.8702  -13.7271   19.9217 C   0  0  0  0  0  0  0  0  0  0  0  0
    8.7529  -14.9142   20.2538 C   0  0  2  0  0  0  0  0  0  0  0  0
    8.0527  -16.1335   19.8631 N   0  0  0  0  0  0  0  0  0  0  0  0
    9.0783  -14.9572   21.7026 C   0  0  0  0  0  0  0  0  0  0  0  0
    9.7815  -14.0189   22.1578 O   0  0  0  0  0  0  0  0  0  0  0  0
    8.6302  -15.9956   22.5579 N   0  0  0  0  0  0  0  0  0  0  0  0
    9.1130  -16.1486   23.9269 C   0  0  1  0  0  0  0  0  0  0  0  0
    8.0024  -16.4866   24.8635 C   0  0  0  0  0  0  0  0  0  0  0  0
    7.1796  -15.3586   25.3221 C   0  0  0  0  0  0  0  0  0  0  0  0
    5.8424  -15.4794   25.7164 C   0  0  0  0  0  0  0  0  0  0  0  0
    5.3650  -14.2983   26.1052 N   0  0  0  0  0  0  0  0  0  0  0  0
    6.3535  -13.3772   25.9818 C   0  0  0  0  0  0  0  0  0  0  0  0
    6.3538  -12.0248   26.2507 C   0  0  0  0  0  0  0  0  0  0  0  0
    7.4805  -11.2698   26.0438 C   0  0  0  0  0  0  0  0  0  0  0  0
    8.5965  -11.9155   25.5616 C   0  0  0  0  0  0  0  0  0  0  0  0
    8.6127  -13.2659   25.2881 C   0  0  0  0  0  0  0  0  0  0  0  0
    7.4891  -14.0365   25.4919 C   0  0  0  0  0  0  0  0  0  0  0  0
   10.3179  -16.9688   24.0469 C   0  0  0  0  0  0  0  0  0  0  0  0
   10.4146  -18.0463   23.4076 O   0  0  0  0  0  0  0  0  0  0  0  0
   13.9802  -17.3318   22.5102 N   0  0  0  0  0  0  0  0  0  0  0  0
   14.1409  -16.4212   23.5774 C   0  0  0  0  0  0  0  0  0  0  0  0
   14.4928  -15.2525   23.3390 O   0  0  0  0  0  0  0  0  0  0  0  0
   13.8918  -16.8612   24.9573 C   0  0  0  0  0  0  0  0  0  0  0  0
   12.5496  -17.4990   25.0772 C   0  0  2  0  0  0  0  0  0  0  0  0
   11.4310  -16.6176   24.8691 N   0  0  0  0  0  0  0  0  0  0  0  0
   12.4285  -18.0843   26.4501 C   0  0  0  0  0  0  0  0  0  0  0  0
   11.4043  -17.7201   27.3240 O   0  0  0  0  0  0  0  0  0  0  0  0
   13.2513  -18.9375   26.8810 O   0  0  0  0  0  0  0  0  0  0  0  0
  2  1  1  0
  2  3  2  0
  4  2  1  0
  5  4  1  0
  5  6  1  1
  7  5  1  0
  7  8  2  0
  9  7  1  0
 10  9  1  0
 10 11  1  1
 12 11  1  0
 12 13  2  0
 14 13  1  0
 15 20  2  0
 15 14  1  0
 16 15  1  0
 17 16  2  0
 18 17  1  0
 18 19  2  0
 19 20  1  0
 20 12  1  0
 21 28  1  0
 21 10  1  0
 22 21  2  0
 23 24  1  0
 24 26  1  0
 25 24  2  0
 27 26  1  1
 27 28  1  0
 27 29  1  0
 29 31  2  0
 29 30  1  0
M  END
$$$$
