NWN.pdb
     RDKit          3D

 31 32  0  0  1  0  0  0  0  0999 V2000
    7.4794  -13.1053   17.3378 N   0  0  0  0  0  0  0  0  0  0  0  0
    8.4666  -13.8817   18.0027 C   0  0  0  0  0  0  0  0  0  0  0  0
    9.1314  -14.6790   17.2676 O   0  0  0  0  0  0  0  0  0  0  0  0
    8.7334  -13.7956   19.4566 C   0  0  0  0  0  0  0  0  0  0  0  0
    9.1759  -15.1594   19.9498 C   0  0  2  0  0  0  0  0  0  0  0  0
    8.1121  -16.1185   19.6701 N   0  0  0  0  0  0  0  0  0  0  0  0
    9.4711  -15.1382   21.4055 C   0  0  0  0  0  0  0  0  0  0  0  0
   10.2803  -14.2648   21.8111 O   0  0  0  0  0  0  0  0  0  0  0  0
    8.8823  -16.0480   22.3199 N   0  0  0  0  0  0  0  0  0  0  0  0
    9.2585  -16.0987   23.7293 C   0  0  1  0  0  0  0  0  0  0  0  0
    8.0605  -16.0542   24.6167 C   0  0  0  0  0  0  0  0  0  0  0  0
    7.3211  -14.7843   24.6389 C   0  0  0  0  0  0  0  0  0  0  0  0
    6.4025  -14.4005   23.6554 C   0  0  0  0  0  0  0  0  0  0  0  0
    5.8716  -13.2159   23.9537 N   0  0  0  0  0  0  0  0  0  0  0  0
    6.4132  -12.7878   25.1217 C   0  0  0  0  0  0  0  0  0  0  0  0
    6.1937  -11.6298   25.8374 C   0  0  0  0  0  0  0  0  0  0  0  0
    6.8656  -11.3930   27.0099 C   0  0  0  0  0  0  0  0  0  0  0  0
    7.7577  -12.3518   27.4339 C   0  0  0  0  0  0  0  0  0  0  0  0
    7.9882  -13.5142   26.7308 C   0  0  0  0  0  0  0  0  0  0  0  0
    7.3201  -13.7656   25.5526 C   0  0  0  0  0  0  0  0  0  0  0  0
   10.2471  -17.1287   24.0468 C   0  0  0  0  0  0  0  0  0  0  0  0
   10.0485  -18.3213   23.7045 O   0  0  0  0  0  0  0  0  0  0  0  0
   13.8054  -17.9122   22.6800 N   0  0  0  0  0  0  0  0  0  0  0  0
   14.2394  -17.1622   23.7950 C   0  0  0  0  0  0  0  0  0  0  0  0
   14.9840  -16.1812   23.6224 O   0  0  0  0  0  0  0  0  0  0  0  0
   13.8088  -17.5464   25.1465 C   0  0  0  0  0  0  0  0  0  0  0  0
   12.3626  -17.9082   25.1603 C   0  0  2  0  0  0  0  0  0  0  0  0
   11.4650  -16.8634   24.7430 N   0  0  0  0  0  0  0  0  0  0  0  0
   11.9914  -18.3075   26.5550 C   0  0  0  0  0  0  0  0  0  0  0  0
   12.5905  -19.3886   27.2013 O   0  0  0  0  0  0  0  0  0  0  0  0
   11.1158  -17.6813   27.2120 O   0  0  0  0  0  0  0  0  0  0  0  0
  2  1  1  0
  2  3  2  0
  4  2  1  0
  5  4  1  0
  5  6  1  1
  7  5  1  0
  7  8  2  0
  9  7  1  0
 10  9  1  0
 10 11  1  1
 12 11  1  0
 12 13  2  0
 14 13  1  0
 15 20  2  0
 15 14  1  0
 16 15  1  0
 17 16  2  0
 18 17  1  0
 18 19  2  0
 19 20  1  0
 20 12  1  0
 21 28  1  0
 21 10  1  0
 22 21  2  0
 23 24  1  0
 24 26  1  0
 25 24  2  0
 27 26  1  1
 27 28  1  0
 27 29  1  0
 29 31  2  0
 29 30  1  0
M  END
$$$$
