NWN.pdb
     RDKit          3D

 31 32  0  0  1  0  0  0  0  0999 V2000
    8.2451  -15.6802   15.6074 N   0  0  0  0  0  0  0  0  0  0  0  0
    8.2883  -14.3325   16.0565 C   0  0  0  0  0  0  0  0  0  0  0  0
    8.2390  -13.4443   15.1473 O   0  0  0  0  0  0  0  0  0  0  0  0
    8.3842  -13.9478   17.4831 C   0  0  0  0  0  0  0  0  0  0  0  0
    8.6367  -15.1961   18.3058 C   0  0  2  0  0  0  0  0  0  0  0  0
    7.5748  -16.1568   18.0244 N   0  0  0  0  0  0  0  0  0  0  0  0
    8.6714  -14.8881   19.7586 C   0  0  0  0  0  0  0  0  0  0  0  0
    9.6483  -14.2147   20.1762 O   0  0  0  0  0  0  0  0  0  0  0  0
    7.6633  -15.3198   20.6575 N   0  0  0  0  0  0  0  0  0  0  0  0
    7.8374  -15.2888   22.1064 C   0  0  1  0  0  0  0  0  0  0  0  0
    6.5271  -15.1933   22.8125 C   0  0  0  0  0  0  0  0  0  0  0  0
    6.5913  -15.0093   24.2692 C   0  0  0  0  0  0  0  0  0  0  0  0
    6.4594  -16.0525   25.1926 C   0  0  0  0  0  0  0  0  0  0  0  0
    6.5864  -15.5904   26.4354 N   0  0  0  0  0  0  0  0  0  0  0  0
    6.8018  -14.2523   26.3730 C   0  0  0  0  0  0  0  0  0  0  0  0
    6.9895  -13.3292   27.3800 C   0  0  0  0  0  0  0  0  0  0  0  0
    7.1871  -12.0036   27.0870 C   0  0  0  0  0  0  0  0  0  0  0  0
    7.1893  -11.6415   25.7589 C   0  0  0  0  0  0  0  0  0  0  0  0
    7.0034  -12.5513   24.7410 C   0  0  0  0  0  0  0  0  0  0  0  0
    6.8049  -13.8856   25.0204 C   0  0  0  0  0  0  0  0  0  0  0  0
    8.7634  -16.2987   22.6181 C   0  0  0  0  0  0  0  0  0  0  0  0
    8.9618  -17.3584   21.9727 O   0  0  0  0  0  0  0  0  0  0  0  0
   13.5718  -17.8851   22.8151 N   0  0  0  0  0  0  0  0  0  0  0  0
   13.1502  -16.9348   23.7708 C   0  0  0  0  0  0  0  0  0  0  0  0
   13.8111  -16.7773   24.8124 O   0  0  0  0  0  0  0  0  0  0  0  0
   11.9369  -16.1421   23.5271 C   0  0  0  0  0  0  0  0  0  0  0  0
   10.7355  -16.8243   24.0871 C   0  0  2  0  0  0  0  0  0  0  0  0
    9.4829  -16.1586   23.8433 N   0  0  0  0  0  0  0  0  0  0  0  0
   10.9133  -16.9477   25.5688 C   0  0  0  0  0  0  0  0  0  0  0  0
   10.7938  -15.8525   26.4240 O   0  0  0  0  0  0  0  0  0  0  0  0
   11.1805  -18.0533   26.1136 O   0  0  0  0  0  0  0  0  0  0  0  0
  2  1  1  0
  2  3  2  0
  4  2  1  0
  5  4  1  0
  5  6  1  1
  7  5  1  0
  7  8  2  0
  9  7  1  0
 10  9  1  0
 10 11  1  1
 12 11  1  0
 12 13  2  0
 14 13  1  0
 15 20  2  0
 15 14  1  0
 16 15  1  0
 17 16  2  0
 18 17  1  0
 18 19  2  0
 19 20  1  0
 20 12  1  0
 21 28  1  0
 21 10  1  0
 22 21  2  0
 23 24  1  0
 24 26  1  0
 25 24  2  0
 27 26  1  1
 27 28  1  0
 27 29  1  0
 29 31  2  0
 29 30  1  0
M  END
$$$$
