NWN.pdb
     RDKit          3D

 31 32  0  0  1  0  0  0  0  0999 V2000
   10.8437  -18.8517   19.2631 N   0  0  0  0  0  0  0  0  0  0  0  0
    9.4910  -18.5648   19.5911 C   0  0  0  0  0  0  0  0  0  0  0  0
    8.7016  -18.4172   18.6046 O   0  0  0  0  0  0  0  0  0  0  0  0
    8.9946  -18.4384   20.9804 C   0  0  0  0  0  0  0  0  0  0  0  0
    8.5838  -16.9986   21.2192 C   0  0  2  0  0  0  0  0  0  0  0  0
    8.9871  -16.2059   20.0622 N   0  0  0  0  0  0  0  0  0  0  0  0
    9.2108  -16.4549   22.4512 C   0  0  0  0  0  0  0  0  0  0  0  0
   10.2658  -15.7854   22.3071 O   0  0  0  0  0  0  0  0  0  0  0  0
    8.6671  -16.6644   23.7440 N   0  0  0  0  0  0  0  0  0  0  0  0
    9.4415  -16.4591   24.9642 C   0  0  1  0  0  0  0  0  0  0  0  0
    8.5575  -16.1705   26.1304 C   0  0  0  0  0  0  0  0  0  0  0  0
    7.4901  -15.1864   25.9026 C   0  0  0  0  0  0  0  0  0  0  0  0
    6.2046  -15.5197   25.4613 C   0  0  0  0  0  0  0  0  0  0  0  0
    5.4476  -14.4275   25.3711 N   0  0  0  0  0  0  0  0  0  0  0  0
    6.1956  -13.3583   25.7427 C   0  0  0  0  0  0  0  0  0  0  0  0
    5.8695  -12.0203   25.8131 C   0  0  0  0  0  0  0  0  0  0  0  0
    6.7976  -11.0934   26.2151 C   0  0  0  0  0  0  0  0  0  0  0  0
    8.0533  -11.5539   26.5408 C   0  0  0  0  0  0  0  0  0  0  0  0
    8.3951  -12.8872   26.4761 C   0  0  0  0  0  0  0  0  0  0  0  0
    7.4731  -13.8290   26.0750 C   0  0  0  0  0  0  0  0  0  0  0  0
   10.4812  -17.4632   25.1875 C   0  0  0  0  0  0  0  0  0  0  0  0
   10.2197  -18.6845   25.0495 O   0  0  0  0  0  0  0  0  0  0  0  0
   14.9158  -15.8348   24.1206 N   0  0  0  0  0  0  0  0  0  0  0  0
   14.4085  -17.1443   24.2692 C   0  0  0  0  0  0  0  0  0  0  0  0
   14.1190  -17.8085   23.2585 O   0  0  0  0  0  0  0  0  0  0  0  0
   14.2274  -17.7095   25.6136 C   0  0  0  0  0  0  0  0  0  0  0  0
   12.8170  -18.1460   25.8206 C   0  0  2  0  0  0  0  0  0  0  0  0
   11.8198  -17.1403   25.5645 N   0  0  0  0  0  0  0  0  0  0  0  0
   12.6677  -18.5946   27.2414 C   0  0  0  0  0  0  0  0  0  0  0  0
   13.4739  -19.5897   27.7937 O   0  0  0  0  0  0  0  0  0  0  0  0
   11.8017  -18.0905   28.0072 O   0  0  0  0  0  0  0  0  0  0  0  0
  2  1  1  0
  2  3  2  0
  4  2  1  0
  5  4  1  0
  5  6  1  6
  7  5  1  0
  7  8  2  0
  9  7  1  0
 10  9  1  0
 10 11  1  1
 12 11  1  0
 12 13  2  0
 14 13  1  0
 15 20  2  0
 15 14  1  0
 16 15  1  0
 17 16  2  0
 18 17  1  0
 18 19  2  0
 19 20  1  0
 20 12  1  0
 21 28  1  0
 21 10  1  0
 22 21  2  0
 23 24  1  0
 24 26  1  0
 25 24  2  0
 27 26  1  1
 27 28  1  0
 27 29  1  0
 29 31  2  0
 29 30  1  0
M  END
$$$$
