QVC.pdb
     RDKit          3D

 23 22  0  0  1  0  0  0  0  0999 V2000
    8.9045  -19.8363   21.9567 N   0  0  0  0  0  0  0  0  0  0  0  0
    8.3323  -19.2815   20.7726 C   0  0  0  0  0  0  0  0  0  0  0  0
    7.9851  -20.0877   19.8893 O   0  0  0  0  0  0  0  0  0  0  0  0
    8.1944  -17.8113   20.6815 C   0  0  0  0  0  0  0  0  0  0  0  0
    8.5837  -17.0831   21.9362 C   0  0  0  0  0  0  0  0  0  0  0  0
    8.2491  -15.6118   21.8767 C   0  0  2  0  0  0  0  0  0  0  0  0
    9.0175  -15.0677   20.7479 N   0  0  0  0  0  0  0  0  0  0  0  0
    8.6794  -14.9658   23.1473 C   0  0  0  0  0  0  0  0  0  0  0  0
    9.8534  -14.5669   23.3386 O   0  0  0  0  0  0  0  0  0  0  0  0
    6.6351  -12.2396   25.0753 C   0  0  0  0  0  0  0  0  0  0  0  0
    6.9971  -13.3459   26.0470 C   0  0  2  0  0  0  0  0  0  0  0  0
    7.4629  -12.7633   27.3575 C   0  0  0  0  0  0  0  0  0  0  0  0
    8.0934  -14.2257   25.4753 C   0  0  2  0  0  0  0  0  0  0  0  0
    7.7516  -14.7777   24.2053 N   0  0  0  0  0  0  0  0  0  0  0  0
    8.5560  -15.2238   26.4572 C   0  0  0  0  0  0  0  0  0  0  0  0
    7.7444  -16.0639   26.8970 O   0  0  0  0  0  0  0  0  0  0  0  0
    9.9056  -15.2073   26.8780 N   0  0  0  0  0  0  0  0  0  0  0  0
   10.4618  -16.2235   27.7589 C   0  0  1  0  0  0  0  0  0  0  0  0
   11.9026  -16.5267   27.4447 C   0  0  0  0  0  0  0  0  0  0  0  0
   12.0009  -16.7530   25.6290 S   0  0  0  0  0  0  0  0  0  0  0  0
   10.2477  -15.8234   29.1519 C   0  0  0  0  0  0  0  0  0  0  0  0
    9.8212  -14.6817   29.4364 O   0  0  0  0  0  0  0  0  0  0  0  0
   10.5077  -16.6899   30.2089 O   0  0  0  0  0  0  0  0  0  0  0  0
  2  3  2  0
  2  1  1  0
  4  2  1  0
  5  4  1  0
  6  5  1  0
  6  7  1  6
  8  6  1  0
  8  9  2  0
 11 10  1  6
 11 13  1  0
 12 11  1  0
 13 14  1  6
 14  8  1  0
 15 13  1  0
 16 15  2  0
 17 15  1  0
 18 17  1  0
 18 21  1  0
 18 19  1  6
 20 19  1  0
 21 23  1  0
 22 21  2  0
M  END
$$$$
