QVC.pdb
     RDKit          3D

 23 22  0  0  1  0  0  0  0  0999 V2000
    8.6372  -12.2249   18.5309 N   0  0  0  0  0  0  0  0  0  0  0  0
    7.9569  -13.4178   18.1418 C   0  0  0  0  0  0  0  0  0  0  0  0
    7.6063  -13.4972   16.9495 O   0  0  0  0  0  0  0  0  0  0  0  0
    7.7215  -14.4582   19.1669 C   0  0  0  0  0  0  0  0  0  0  0  0
    8.2600  -14.1094   20.5250 C   0  0  0  0  0  0  0  0  0  0  0  0
    8.0351  -15.2095   21.5347 C   0  0  2  0  0  0  0  0  0  0  0  0
    6.5896  -15.4759   21.5274 N   0  0  0  0  0  0  0  0  0  0  0  0
    8.4599  -14.7278   22.8780 C   0  0  0  0  0  0  0  0  0  0  0  0
    9.6542  -14.4598   23.1530 O   0  0  0  0  0  0  0  0  0  0  0  0
    6.7086  -12.0571   25.0410 C   0  0  0  0  0  0  0  0  0  0  0  0
    6.8871  -13.2823   25.9162 C   0  0  2  0  0  0  0  0  0  0  0  0
    7.4259  -12.8888   27.2685 C   0  0  0  0  0  0  0  0  0  0  0  0
    7.8394  -14.2708   25.2690 C   0  0  2  0  0  0  0  0  0  0  0  0
    7.5028  -14.5534   23.9121 N   0  0  0  0  0  0  0  0  0  0  0  0
    8.0239  -15.4728   26.1031 C   0  0  0  0  0  0  0  0  0  0  0  0
    7.0541  -16.2357   26.2910 O   0  0  0  0  0  0  0  0  0  0  0  0
    9.2922  -15.7341   26.6702 N   0  0  0  0  0  0  0  0  0  0  0  0
    9.5443  -16.8857   27.5236 C   0  0  1  0  0  0  0  0  0  0  0  0
   10.2144  -18.0116   26.7822 C   0  0  0  0  0  0  0  0  0  0  0  0
   11.7136  -17.3006   26.0046 S   0  0  0  0  0  0  0  0  0  0  0  0
   10.2883  -16.4532   28.7093 C   0  0  0  0  0  0  0  0  0  0  0  0
   10.4977  -17.2386   29.6610 O   0  0  0  0  0  0  0  0  0  0  0  0
   10.7894  -15.1605   28.8257 O   0  0  0  0  0  0  0  0  0  0  0  0
  2  3  2  0
  2  1  1  0
  4  2  1  0
  5  4  1  0
  6  5  1  0
  6  7  1  1
  8  6  1  0
  8  9  2  0
 11 10  1  6
 11 13  1  0
 12 11  1  0
 13 14  1  6
 14  8  1  0
 15 13  1  0
 16 15  2  0
 17 15  1  0
 18 17  1  0
 18 21  1  0
 18 19  1  6
 20 19  1  0
 21 23  1  0
 22 21  2  0
M  END
$$$$
