QVC.pdb
     RDKit          3D

 23 22  0  0  1  0  0  0  0  0999 V2000
   13.1000  -15.8765   15.8518 N   0  0  0  0  0  0  0  0  0  0  0  0
   12.8453  -17.2208   15.4451 C   0  0  0  0  0  0  0  0  0  0  0  0
   13.8353  -17.9036   15.1220 O   0  0  0  0  0  0  0  0  0  0  0  0
   11.4453  -17.6989   15.4374 C   0  0  0  0  0  0  0  0  0  0  0  0
   10.4553  -16.6962   15.9576 C   0  0  0  0  0  0  0  0  0  0  0  0
    9.6756  -17.2163   17.1416 C   0  0  2  0  0  0  0  0  0  0  0  0
    8.2604  -17.1654   16.7477 N   0  0  0  0  0  0  0  0  0  0  0  0
    9.9144  -16.3229   18.3085 C   0  0  0  0  0  0  0  0  0  0  0  0
   11.0378  -16.2122   18.8559 O   0  0  0  0  0  0  0  0  0  0  0  0
    7.9545  -12.7595   19.0290 C   0  0  0  0  0  0  0  0  0  0  0  0
    7.8706  -13.7419   20.1809 C   0  0  2  0  0  0  0  0  0  0  0  0
    8.0288  -13.0237   21.4973 C   0  0  0  0  0  0  0  0  0  0  0  0
    8.9474  -14.8043   20.0606 C   0  0  2  0  0  0  0  0  0  0  0  0
    8.8523  -15.5514   18.8492 N   0  0  0  0  0  0  0  0  0  0  0  0
    9.0252  -15.6385   21.2740 C   0  0  0  0  0  0  0  0  0  0  0  0
    8.1045  -16.4460   21.5154 O   0  0  0  0  0  0  0  0  0  0  0  0
   10.1383  -15.5058   22.1354 N   0  0  0  0  0  0  0  0  0  0  0  0
   10.2682  -16.2693   23.3675 C   0  0  1  0  0  0  0  0  0  0  0  0
   11.6903  -16.6832   23.6370 C   0  0  0  0  0  0  0  0  0  0  0  0
   12.1765  -17.7934   22.2627 S   0  0  0  0  0  0  0  0  0  0  0  0
    9.6700  -15.5113   24.4694 C   0  0  0  0  0  0  0  0  0  0  0  0
    9.2789  -14.3340   24.3044 O   0  0  0  0  0  0  0  0  0  0  0  0
    9.5131  -16.0650   25.7361 O   0  0  0  0  0  0  0  0  0  0  0  0
  2  3  2  0
  2  1  1  0
  4  2  1  0
  5  4  1  0
  6  5  1  0
  6  7  1  6
  8  6  1  0
  8  9  2  0
 11 10  1  6
 11 13  1  0
 12 11  1  0
 13 14  1  6
 14  8  1  0
 15 13  1  0
 16 15  2  0
 17 15  1  0
 18 17  1  0
 18 21  1  0
 18 19  1  1
 20 19  1  0
 21 23  1  0
 22 21  2  0
M  END
$$$$
