QVC.pdb
     RDKit          3D

 23 22  0  0  1  0  0  0  0  0999 V2000
   11.6631  -21.4003   21.7937 N   0  0  0  0  0  0  0  0  0  0  0  0
   12.4796  -20.9089   20.7311 C   0  0  0  0  0  0  0  0  0  0  0  0
   13.1549  -21.7511   20.1103 O   0  0  0  0  0  0  0  0  0  0  0  0
   12.4645  -19.4570   20.4477 C   0  0  0  0  0  0  0  0  0  0  0  0
   11.5905  -18.6631   21.3761 C   0  0  0  0  0  0  0  0  0  0  0  0
   10.7917  -17.6053   20.6529 C   0  0  2  0  0  0  0  0  0  0  0  0
   11.6246  -17.1721   19.5220 N   0  0  0  0  0  0  0  0  0  0  0  0
   10.5510  -16.4637   21.5780 C   0  0  0  0  0  0  0  0  0  0  0  0
   11.3169  -15.4720   21.6409 O   0  0  0  0  0  0  0  0  0  0  0  0
    7.4053  -14.3825   21.8677 C   0  0  0  0  0  0  0  0  0  0  0  0
    7.6852  -14.9352   23.2517 C   0  0  2  0  0  0  0  0  0  0  0  0
    7.4385  -13.8793   24.2995 C   0  0  0  0  0  0  0  0  0  0  0  0
    9.1204  -15.4167   23.3579 C   0  0  2  0  0  0  0  0  0  0  0  0
    9.4205  -16.4636   22.4368 N   0  0  0  0  0  0  0  0  0  0  0  0
    9.4888  -15.7222   24.7526 C   0  0  0  0  0  0  0  0  0  0  0  0
    9.4028  -16.8991   25.1591 O   0  0  0  0  0  0  0  0  0  0  0  0
    9.9305  -14.6777   25.5968 N   0  0  0  0  0  0  0  0  0  0  0  0
   10.4977  -14.9247   26.9141 C   0  0  1  0  0  0  0  0  0  0  0  0
   10.7102  -13.6541   27.6930 C   0  0  0  0  0  0  0  0  0  0  0  0
    9.0932  -12.7929   27.7315 S   0  0  0  0  0  0  0  0  0  0  0  0
    9.6662  -15.9019   27.6213 C   0  0  0  0  0  0  0  0  0  0  0  0
   10.0660  -16.4459   28.6751 O   0  0  0  0  0  0  0  0  0  0  0  0
    8.4066  -16.2632   27.1539 O   0  0  0  0  0  0  0  0  0  0  0  0
  2  3  2  0
  2  1  1  0
  4  2  1  0
  5  4  1  0
  6  5  1  0
  6  7  1  6
  8  6  1  0
  8  9  2  0
 11 10  1  6
 11 13  1  0
 12 11  1  0
 13 14  1  6
 14  8  1  0
 15 13  1  0
 16 15  2  0
 17 15  1  0
 18 17  1  0
 18 21  1  0
 18 19  1  1
 20 19  1  0
 21 23  1  0
 22 21  2  0
M  END
$$$$
