QVC.pdb
     RDKit          3D

 23 22  0  0  1  0  0  0  0  0999 V2000
    6.0134  -19.9818   17.7932 N   0  0  0  0  0  0  0  0  0  0  0  0
    7.2014  -20.7673   17.6988 C   0  0  0  0  0  0  0  0  0  0  0  0
    7.1135  -21.8397   17.0718 O   0  0  0  0  0  0  0  0  0  0  0  0
    8.4327  -20.2586   18.3419 C   0  0  0  0  0  0  0  0  0  0  0  0
    8.2400  -18.9762   19.0999 C   0  0  0  0  0  0  0  0  0  0  0  0
    9.0336  -17.8339   18.5123 C   0  0  2  0  0  0  0  0  0  0  0  0
   10.3171  -18.4100   18.0865 N   0  0  0  0  0  0  0  0  0  0  0  0
    9.2583  -16.8075   19.5672 C   0  0  0  0  0  0  0  0  0  0  0  0
   10.3019  -16.7706   20.2625 O   0  0  0  0  0  0  0  0  0  0  0  0
    7.7763  -12.9968   19.2509 C   0  0  0  0  0  0  0  0  0  0  0  0
    7.4866  -13.6280   20.5988 C   0  0  2  0  0  0  0  0  0  0  0  0
    7.6886  -12.6229   21.7046 C   0  0  0  0  0  0  0  0  0  0  0  0
    8.3924  -14.8216   20.8389 C   0  0  2  0  0  0  0  0  0  0  0  0
    8.2745  -15.8165   19.8236 N   0  0  0  0  0  0  0  0  0  0  0  0
    8.2488  -15.3451   22.2099 C   0  0  0  0  0  0  0  0  0  0  0  0
    7.2084  -15.9620   22.5180 O   0  0  0  0  0  0  0  0  0  0  0  0
    9.2902  -15.1372   23.1431 N   0  0  0  0  0  0  0  0  0  0  0  0
    9.2299  -15.6425   24.5066 C   0  0  1  0  0  0  0  0  0  0  0  0
   10.5950  -15.7847   25.1251 C   0  0  0  0  0  0  0  0  0  0  0  0
   11.5546  -16.8837   24.0163 S   0  0  0  0  0  0  0  0  0  0  0  0
    8.3259  -14.7997   25.2933 C   0  0  0  0  0  0  0  0  0  0  0  0
    7.9312  -13.6950   24.8569 O   0  0  0  0  0  0  0  0  0  0  0  0
    7.8717  -15.1895   26.5492 O   0  0  0  0  0  0  0  0  0  0  0  0
  2  3  2  0
  2  1  1  0
  4  2  1  0
  5  4  1  0
  6  5  1  0
  6  7  1  1
  8  6  1  0
  8  9  2  0
 11 10  1  6
 11 13  1  0
 12 11  1  0
 13 14  1  6
 14  8  1  0
 15 13  1  0
 16 15  2  0
 17 15  1  0
 18 17  1  0
 18 21  1  0
 18 19  1  1
 20 19  1  0
 21 23  1  0
 22 21  2  0
M  END
$$$$
