QVC.pdb
     RDKit          3D

 23 22  0  0  1  0  0  0  0  0999 V2000
   14.1655  -16.1725   18.0720 N   0  0  0  0  0  0  0  0  0  0  0  0
   13.5344  -17.4326   17.8460 C   0  0  0  0  0  0  0  0  0  0  0  0
   13.9782  -18.1190   16.9065 O   0  0  0  0  0  0  0  0  0  0  0  0
   12.4161  -17.8267   18.7308 C   0  0  0  0  0  0  0  0  0  0  0  0
   12.1630  -16.8672   19.8584 C   0  0  0  0  0  0  0  0  0  0  0  0
   11.7371  -17.5671   21.1268 C   0  0  2  0  0  0  0  0  0  0  0  0
   10.5960  -18.4164   20.7564 N   0  0  0  0  0  0  0  0  0  0  0  0
   11.3126  -16.5461   22.1239 C   0  0  0  0  0  0  0  0  0  0  0  0
   12.0828  -15.6478   22.5407 O   0  0  0  0  0  0  0  0  0  0  0  0
    7.5915  -14.9340   22.2105 C   0  0  0  0  0  0  0  0  0  0  0  0
    8.0127  -15.4491   23.5730 C   0  0  2  0  0  0  0  0  0  0  0  0
    7.5976  -14.4815   24.6524 C   0  0  0  0  0  0  0  0  0  0  0  0
    9.5162  -15.6459   23.6317 C   0  0  2  0  0  0  0  0  0  0  0  0
    9.9919  -16.5592   22.6448 N   0  0  0  0  0  0  0  0  0  0  0  0
    9.9706  -15.9530   25.0005 C   0  0  0  0  0  0  0  0  0  0  0  0
   10.1403  -17.1447   25.3305 O   0  0  0  0  0  0  0  0  0  0  0  0
   10.2035  -14.8934   25.9069 N   0  0  0  0  0  0  0  0  0  0  0  0
   10.8121  -15.1015   27.2124 C   0  0  1  0  0  0  0  0  0  0  0  0
   11.0733  -13.8069   27.9350 C   0  0  0  0  0  0  0  0  0  0  0  0
    9.5029  -12.8635   27.8927 S   0  0  0  0  0  0  0  0  0  0  0  0
    9.9893  -16.0362   27.9842 C   0  0  0  0  0  0  0  0  0  0  0  0
   10.4144  -16.5442   29.0461 O   0  0  0  0  0  0  0  0  0  0  0  0
    8.7101  -16.3956   27.5715 O   0  0  0  0  0  0  0  0  0  0  0  0
  2  3  2  0
  2  1  1  0
  4  2  1  0
  5  4  1  0
  6  5  1  0
  6  7  1  6
  8  6  1  0
  8  9  2  0
 11 10  1  6
 11 13  1  0
 12 11  1  0
 13 14  1  6
 14  8  1  0
 15 13  1  0
 16 15  2  0
 17 15  1  0
 18 17  1  0
 18 21  1  0
 18 19  1  1
 20 19  1  0
 21 23  1  0
 22 21  2  0
M  END
$$$$
