QVC.pdb
     RDKit          3D

 23 22  0  0  1  0  0  0  0  0999 V2000
    9.0791  -18.4745   22.9245 N   0  0  0  0  0  0  0  0  0  0  0  0
    7.6555  -18.3987   22.9943 C   0  0  0  0  0  0  0  0  0  0  0  0
    7.0861  -19.2393   23.7154 O   0  0  0  0  0  0  0  0  0  0  0  0
    6.9696  -17.3429   22.2176 C   0  0  0  0  0  0  0  0  0  0  0  0
    7.8995  -16.4554   21.4406 C   0  0  0  0  0  0  0  0  0  0  0  0
    7.6001  -14.9891   21.6419 C   0  0  2  0  0  0  0  0  0  0  0  0
    8.2952  -14.2817   20.5570 N   0  0  0  0  0  0  0  0  0  0  0  0
    8.1415  -14.5612   22.9612 C   0  0  0  0  0  0  0  0  0  0  0  0
    9.3650  -14.3652   23.1580 O   0  0  0  0  0  0  0  0  0  0  0  0
    6.5421  -11.7646   25.2358 C   0  0  0  0  0  0  0  0  0  0  0  0
    6.7341  -13.0281   26.0517 C   0  0  2  0  0  0  0  0  0  0  0  0
    7.2592  -12.6928   27.4249 C   0  0  0  0  0  0  0  0  0  0  0  0
    7.7048  -13.9698   25.3634 C   0  0  2  0  0  0  0  0  0  0  0  0
    7.2683  -14.3573   24.0619 N   0  0  0  0  0  0  0  0  0  0  0  0
    8.0723  -15.1021   26.2336 C   0  0  0  0  0  0  0  0  0  0  0  0
    7.2845  -16.0641   26.3428 O   0  0  0  0  0  0  0  0  0  0  0  0
    9.3059  -15.0733   26.9235 N   0  0  0  0  0  0  0  0  0  0  0  0
    9.7858  -16.1974   27.7135 C   0  0  1  0  0  0  0  0  0  0  0  0
   10.8028  -17.0244   26.9732 C   0  0  0  0  0  0  0  0  0  0  0  0
   12.2198  -15.9155   26.6266 S   0  0  0  0  0  0  0  0  0  0  0  0
   10.2726  -15.7058   29.0049 C   0  0  0  0  0  0  0  0  0  0  0  0
   10.3579  -14.4790   29.2371 O   0  0  0  0  0  0  0  0  0  0  0  0
   10.6576  -16.5763   30.0197 O   0  0  0  0  0  0  0  0  0  0  0  0
  2  3  2  0
  2  1  1  0
  4  2  1  0
  5  4  1  0
  6  5  1  0
  6  7  1  6
  8  6  1  0
  8  9  2  0
 11 10  1  6
 11 13  1  0
 12 11  1  0
 13 14  1  6
 14  8  1  0
 15 13  1  0
 16 15  2  0
 17 15  1  0
 18 17  1  0
 18 21  1  0
 18 19  1  6
 20 19  1  0
 21 23  1  0
 22 21  2  0
M  END
$$$$
