QVC.pdb
     RDKit          3D

 23 22  0  0  1  0  0  0  0  0999 V2000
    5.6439  -19.0974   17.8142 N   0  0  0  0  0  0  0  0  0  0  0  0
    5.8581  -19.2523   16.4116 C   0  0  0  0  0  0  0  0  0  0  0  0
    4.8830  -19.6319   15.7363 O   0  0  0  0  0  0  0  0  0  0  0  0
    7.2019  -18.9549   15.8692 C   0  0  0  0  0  0  0  0  0  0  0  0
    8.1528  -18.3767   16.8781 C   0  0  0  0  0  0  0  0  0  0  0  0
    8.5850  -16.9735   16.5254 C   0  0  2  0  0  0  0  0  0  0  0  0
    9.6591  -17.1187   15.5326 N   0  0  0  0  0  0  0  0  0  0  0  0
    9.1067  -16.3057   17.7497 C   0  0  0  0  0  0  0  0  0  0  0  0
   10.2954  -16.4282   18.1316 O   0  0  0  0  0  0  0  0  0  0  0  0
    8.2448  -13.0272   21.3947 C   0  0  0  0  0  0  0  0  0  0  0  0
    7.6779  -13.8013   20.2206 C   0  0  2  0  0  0  0  0  0  0  0  0
    6.3731  -14.4540   20.6018 C   0  0  0  0  0  0  0  0  0  0  0  0
    8.6530  -14.8689   19.7598 C   0  0  2  0  0  0  0  0  0  0  0  0
    8.2538  -15.4909   18.5399 N   0  0  0  0  0  0  0  0  0  0  0  0
    8.9682  -15.8199   20.8418 C   0  0  0  0  0  0  0  0  0  0  0  0
    8.2479  -16.8280   20.9926 O   0  0  0  0  0  0  0  0  0  0  0  0
   10.0769  -15.5695   21.6825 N   0  0  0  0  0  0  0  0  0  0  0  0
   10.5219  -16.5186   22.6921 C   0  0  1  0  0  0  0  0  0  0  0  0
   11.8949  -17.0626   22.4003 C   0  0  0  0  0  0  0  0  0  0  0  0
   13.0478  -15.6419   22.5010 S   0  0  0  0  0  0  0  0  0  0  0  0
   10.4169  -15.8989   24.0155 C   0  0  0  0  0  0  0  0  0  0  0  0
   10.1326  -14.6864   24.1389 O   0  0  0  0  0  0  0  0  0  0  0  0
   10.6274  -16.6276   25.1819 O   0  0  0  0  0  0  0  0  0  0  0  0
  2  3  2  0
  2  1  1  0
  4  2  1  0
  5  4  1  0
  6  5  1  0
  6  7  1  6
  8  6  1  0
  8  9  2  0
 11 10  1  1
 11 13  1  0
 12 11  1  0
 13 14  1  6
 14  8  1  0
 15 13  1  0
 16 15  2  0
 17 15  1  0
 18 17  1  0
 18 21  1  0
 18 19  1  6
 20 19  1  0
 21 23  1  0
 22 21  2  0
M  END
$$$$
