QMH.pdb
     RDKit          3D

 28 28  0  0  1  0  0  0  0  0999 V2000
    5.6256  -19.5123   21.0267 N   0  0  0  0  0  0  0  0  0  0  0  0
    7.0106  -19.2790   20.6847 C   0  0  0  0  0  0  0  0  0  0  0  0
    7.6879  -20.3094   20.4629 O   0  0  0  0  0  0  0  0  0  0  0  0
    7.5146  -17.9011   20.6248 C   0  0  0  0  0  0  0  0  0  0  0  0
    6.5504  -16.8127   20.8700 C   0  0  0  0  0  0  0  0  0  0  0  0
    7.0743  -15.4234   20.7565 C   0  0  2  0  0  0  0  0  0  0  0  0
    7.8792  -15.1844   19.5943 N   0  0  0  0  0  0  0  0  0  0  0  0
    7.9089  -15.0926   21.9621 C   0  0  0  0  0  0  0  0  0  0  0  0
    9.1539  -15.1322   21.8629 O   0  0  0  0  0  0  0  0  0  0  0  0
    7.0181  -11.9375   27.8030 C   0  0  0  0  0  0  0  0  0  0  0  0
    7.1048  -11.0820   26.2068 S   0  0  0  0  0  0  0  0  0  0  0  0
    6.9183  -12.2869   24.8322 C   0  0  0  0  0  0  0  0  0  0  0  0
    7.3231  -13.6307   25.3585 C   0  0  0  0  0  0  0  0  0  0  0  0
    8.1064  -14.4953   24.4261 C   0  0  2  0  0  0  0  0  0  0  0  0
    7.3287  -14.7396   23.1990 N   0  0  0  0  0  0  0  0  0  0  0  0
    8.5813  -15.7744   24.9765 C   0  0  0  0  0  0  0  0  0  0  0  0
    7.7215  -16.7126   25.1324 O   0  0  0  0  0  0  0  0  0  0  0  0
    9.8933  -16.0990   25.3553 N   0  0  0  0  0  0  0  0  0  0  0  0
   10.2244  -17.4843   25.8223 C   0  0  1  0  0  0  0  0  0  0  0  0
   11.6583  -17.6583   25.4356 C   0  0  0  0  0  0  0  0  0  0  0  0
   11.9143  -17.7248   23.9865 C   0  0  0  0  0  0  0  0  0  0  0  0
   10.9619  -17.8247   22.9712 C   0  0  0  0  0  0  0  0  0  0  0  0
   11.6084  -17.8565   21.8145 N   0  0  0  0  0  0  0  0  0  0  0  0
   12.9160  -17.7820   22.0506 C   0  0  0  0  0  0  0  0  0  0  0  0
   13.0941  -17.7027   23.3626 N   0  0  0  0  0  0  0  0  0  0  0  0
    9.9997  -17.5571   27.2697 C   0  0  0  0  0  0  0  0  0  0  0  0
   10.1799  -18.7378   27.9579 O   0  0  0  0  0  0  0  0  0  0  0  0
    9.6411  -16.5615   27.9192 O   0  0  0  0  0  0  0  0  0  0  0  0
  2  1  1  0
  2  3  2  0
  4  2  1  0
  5  4  1  0
  5  6  1  0
  6  7  1  6
  8  6  1  0
  8  9  2  0
 10 11  1  0
 11 12  1  0
 14 13  1  1
 13 12  1  0
 14 15  1  0
 15  8  1  0
 16 14  1  0
 17 16  2  0
 18 16  1  0
 19 18  1  0
 19 20  1  1
 20 21  1  0
 21 25  1  0
 21 22  2  0
 22 23  1  0
 24 23  1  0
 25 24  2  0
 26 19  1  0
 27 26  1  0
 28 26  2  0
M  END
$$$$
