QMH.pdb
     RDKit          3D

 28 28  0  0  1  0  0  0  0  0999 V2000
    7.4026  -20.5050   20.7916 N   0  0  0  0  0  0  0  0  0  0  0  0
    8.7467  -20.0578   20.5035 C   0  0  0  0  0  0  0  0  0  0  0  0
    9.5986  -20.9680   20.3800 O   0  0  0  0  0  0  0  0  0  0  0  0
    9.0157  -18.6193   20.3819 C   0  0  0  0  0  0  0  0  0  0  0  0
    7.8670  -17.7009   20.4893 C   0  0  0  0  0  0  0  0  0  0  0  0
    8.1687  -16.2460   20.3909 C   0  0  2  0  0  0  0  0  0  0  0  0
    9.1315  -15.9050   19.3847 N   0  0  0  0  0  0  0  0  0  0  0  0
    8.6909  -15.7428   21.7075 C   0  0  0  0  0  0  0  0  0  0  0  0
    9.9253  -15.7312   21.9018 O   0  0  0  0  0  0  0  0  0  0  0  0
    6.6388  -10.6679   26.5817 C   0  0  0  0  0  0  0  0  0  0  0  0
    6.1474  -12.4130   26.5844 S   0  0  0  0  0  0  0  0  0  0  0  0
    7.5584  -13.4686   26.0640 C   0  0  0  0  0  0  0  0  0  0  0  0
    7.2272  -14.0211   24.7106 C   0  0  0  0  0  0  0  0  0  0  0  0
    8.2986  -14.8205   24.0447 C   0  0  2  0  0  0  0  0  0  0  0  0
    7.8301  -15.2844   22.7273 N   0  0  0  0  0  0  0  0  0  0  0  0
    8.8276  -15.9582   24.8130 C   0  0  0  0  0  0  0  0  0  0  0  0
    8.0559  -16.9658   24.9945 O   0  0  0  0  0  0  0  0  0  0  0  0
   10.1063  -16.0769   25.3797 N   0  0  0  0  0  0  0  0  0  0  0  0
   10.4443  -17.2548   26.2427 C   0  0  1  0  0  0  0  0  0  0  0  0
   11.8872  -17.5123   25.9463 C   0  0  0  0  0  0  0  0  0  0  0  0
   12.1605  -18.1104   24.6282 C   0  0  0  0  0  0  0  0  0  0  0  0
   11.2192  -18.5206   23.6830 C   0  0  0  0  0  0  0  0  0  0  0  0
   11.8800  -19.0010   22.6392 N   0  0  0  0  0  0  0  0  0  0  0  0
   13.1859  -18.9139   22.8798 C   0  0  0  0  0  0  0  0  0  0  0  0
   13.3487  -18.3758   24.0811 N   0  0  0  0  0  0  0  0  0  0  0  0
   10.1932  -16.8974   27.6427 C   0  0  0  0  0  0  0  0  0  0  0  0
    9.7709  -15.6315   27.9878 O   0  0  0  0  0  0  0  0  0  0  0  0
   10.3524  -17.7205   28.5586 O   0  0  0  0  0  0  0  0  0  0  0  0
  2  1  1  0
  2  3  2  0
  4  2  1  0
  5  4  1  0
  5  6  1  0
  6  7  1  6
  8  6  1  0
  8  9  2  0
 10 11  1  0
 11 12  1  0
 14 13  1  1
 13 12  1  0
 14 15  1  0
 15  8  1  0
 16 14  1  0
 17 16  2  0
 18 16  1  0
 19 18  1  0
 19 20  1  1
 20 21  1  0
 21 25  1  0
 21 22  2  0
 22 23  1  0
 24 23  1  0
 25 24  2  0
 26 19  1  0
 27 26  1  0
 28 26  2  0
M  END
$$$$
