QMH.pdb
     RDKit          3D

 28 28  0  0  1  0  0  0  0  0999 V2000
   11.7381  -17.9100   18.0689 N   0  0  0  0  0  0  0  0  0  0  0  0
   10.4431  -17.8893   17.4271 C   0  0  0  0  0  0  0  0  0  0  0  0
   10.3583  -18.5582   16.3712 O   0  0  0  0  0  0  0  0  0  0  0  0
    9.3532  -17.1122   18.0310 C   0  0  0  0  0  0  0  0  0  0  0  0
    9.6187  -16.4618   19.3276 C   0  0  0  0  0  0  0  0  0  0  0  0
    8.7799  -16.9034   20.4760 C   0  0  2  0  0  0  0  0  0  0  0  0
    7.3804  -16.6279   20.3310 N   0  0  0  0  0  0  0  0  0  0  0  0
    9.2463  -16.2313   21.7370 C   0  0  0  0  0  0  0  0  0  0  0  0
   10.4666  -16.2341   22.0058 O   0  0  0  0  0  0  0  0  0  0  0  0
    6.8753  -11.2352   27.4865 C   0  0  0  0  0  0  0  0  0  0  0  0
    6.6061  -12.1458   25.9420 S   0  0  0  0  0  0  0  0  0  0  0  0
    7.9636  -13.3550   25.6755 C   0  0  0  0  0  0  0  0  0  0  0  0
    7.7252  -14.0082   24.3476 C   0  0  0  0  0  0  0  0  0  0  0  0
    8.7542  -14.9957   23.9045 C   0  0  2  0  0  0  0  0  0  0  0  0
    8.3485  -15.5991   22.6233 N   0  0  0  0  0  0  0  0  0  0  0  0
    9.0901  -16.0551   24.8686 C   0  0  0  0  0  0  0  0  0  0  0  0
    8.2118  -16.9632   25.0870 O   0  0  0  0  0  0  0  0  0  0  0  0
   10.2857  -16.1960   25.5905 N   0  0  0  0  0  0  0  0  0  0  0  0
   10.4974  -17.3857   26.4773 C   0  0  1  0  0  0  0  0  0  0  0  0
   11.8019  -17.9499   26.0124 C   0  0  0  0  0  0  0  0  0  0  0  0
   12.3211  -19.0726   26.8123 C   0  0  0  0  0  0  0  0  0  0  0  0
   11.5801  -19.9474   27.6082 C   0  0  0  0  0  0  0  0  0  0  0  0
   12.4262  -20.8093   28.1543 N   0  0  0  0  0  0  0  0  0  0  0  0
   13.6587  -20.5214   27.7430 C   0  0  0  0  0  0  0  0  0  0  0  0
   13.5887  -19.4728   26.9337 N   0  0  0  0  0  0  0  0  0  0  0  0
   10.5242  -16.9319   27.8717 C   0  0  0  0  0  0  0  0  0  0  0  0
   10.5553  -17.8354   28.9121 O   0  0  0  0  0  0  0  0  0  0  0  0
   10.5196  -15.7239   28.1585 O   0  0  0  0  0  0  0  0  0  0  0  0
  2  1  1  0
  2  3  2  0
  4  2  1  0
  5  4  1  0
  5  6  1  0
  6  7  1  6
  8  6  1  0
  8  9  2  0
 10 11  1  0
 11 12  1  0
 14 13  1  1
 13 12  1  0
 14 15  1  0
 15  8  1  0
 16 14  1  0
 17 16  2  0
 18 16  1  0
 19 18  1  0
 19 20  1  6
 20 21  1  0
 21 25  1  0
 21 22  2  0
 22 23  1  0
 24 23  1  0
 25 24  2  0
 26 19  1  0
 27 26  1  0
 28 26  2  0
M  END
$$$$
