QMH.pdb
     RDKit          3D

 28 28  0  0  1  0  0  0  0  0999 V2000
    8.6006  -12.9964   17.4218 N   0  0  0  0  0  0  0  0  0  0  0  0
    7.4241  -13.4665   18.1178 C   0  0  0  0  0  0  0  0  0  0  0  0
    6.3392  -13.2839   17.5186 O   0  0  0  0  0  0  0  0  0  0  0  0
    7.5722  -14.1010   19.4338 C   0  0  0  0  0  0  0  0  0  0  0  0
    8.9261  -14.1517   20.0161 C   0  0  0  0  0  0  0  0  0  0  0  0
    9.3115  -15.4220   20.6908 C   0  0  2  0  0  0  0  0  0  0  0  0
    8.4079  -16.5124   20.4666 N   0  0  0  0  0  0  0  0  0  0  0  0
    9.4007  -15.2048   22.1755 C   0  0  0  0  0  0  0  0  0  0  0  0
   10.4235  -14.6616   22.6449 O   0  0  0  0  0  0  0  0  0  0  0  0
    6.4901  -11.2412   26.5585 C   0  0  0  0  0  0  0  0  0  0  0  0
    7.0045  -12.9790   26.6074 S   0  0  0  0  0  0  0  0  0  0  0  0
    6.6578  -13.7872   24.9941 C   0  0  0  0  0  0  0  0  0  0  0  0
    7.1197  -15.2093   25.0989 C   0  0  0  0  0  0  0  0  0  0  0  0
    8.4627  -15.5107   24.5193 C   0  0  2  0  0  0  0  0  0  0  0  0
    8.3660  -15.5955   23.0518 N   0  0  0  0  0  0  0  0  0  0  0  0
    9.1383  -16.7081   25.0430 C   0  0  0  0  0  0  0  0  0  0  0  0
    9.3508  -17.6765   24.2301 O   0  0  0  0  0  0  0  0  0  0  0  0
    9.5922  -16.9199   26.3542 N   0  0  0  0  0  0  0  0  0  0  0  0
   10.6242  -17.9696   26.6367 C   0  0  1  0  0  0  0  0  0  0  0  0
   11.8076  -17.5319   25.8342 C   0  0  0  0  0  0  0  0  0  0  0  0
   12.0178  -18.2653   24.5741 C   0  0  0  0  0  0  0  0  0  0  0  0
   11.0600  -18.9742   23.8476 C   0  0  0  0  0  0  0  0  0  0  0  0
   11.6596  -19.4830   22.7805 N   0  0  0  0  0  0  0  0  0  0  0  0
   12.9428  -19.1309   22.7994 C   0  0  0  0  0  0  0  0  0  0  0  0
   13.1527  -18.3964   23.8838 N   0  0  0  0  0  0  0  0  0  0  0  0
   10.8797  -17.9991   28.0806 C   0  0  0  0  0  0  0  0  0  0  0  0
   10.2893  -17.0834   28.9251 O   0  0  0  0  0  0  0  0  0  0  0  0
   11.6331  -18.8463   28.5866 O   0  0  0  0  0  0  0  0  0  0  0  0
  2  1  1  0
  2  3  2  0
  4  2  1  0
  5  4  1  0
  5  6  1  0
  6  7  1  1
  8  6  1  0
  8  9  2  0
 10 11  1  0
 11 12  1  0
 14 13  1  1
 13 12  1  0
 14 15  1  0
 15  8  1  0
 16 14  1  0
 17 16  2  0
 18 16  1  0
 19 18  1  0
 19 20  1  6
 20 21  1  0
 21 25  1  0
 21 22  2  0
 22 23  1  0
 24 23  1  0
 25 24  2  0
 26 19  1  0
 27 26  1  0
 28 26  2  0
M  END
$$$$
