QMH.pdb
     RDKit          3D

 28 28  0  0  1  0  0  0  0  0999 V2000
    9.5548  -13.7349   16.4685 N   0  0  0  0  0  0  0  0  0  0  0  0
    8.1811  -13.8525   16.9026 C   0  0  0  0  0  0  0  0  0  0  0  0
    7.3223  -13.4915   16.0650 O   0  0  0  0  0  0  0  0  0  0  0  0
    7.8932  -14.3658   18.2480 C   0  0  0  0  0  0  0  0  0  0  0  0
    9.0394  -14.7833   19.0765 C   0  0  0  0  0  0  0  0  0  0  0  0
    8.7684  -15.8199   20.1107 C   0  0  2  0  0  0  0  0  0  0  0  0
    7.4216  -16.3116   20.1214 N   0  0  0  0  0  0  0  0  0  0  0  0
    9.0598  -15.2659   21.4773 C   0  0  0  0  0  0  0  0  0  0  0  0
   10.1967  -14.8026   21.7102 O   0  0  0  0  0  0  0  0  0  0  0  0
    6.4675  -11.3534   27.6521 C   0  0  0  0  0  0  0  0  0  0  0  0
    6.3417  -12.0172   25.9696 S   0  0  0  0  0  0  0  0  0  0  0  0
    7.3120  -13.5710   25.8281 C   0  0  0  0  0  0  0  0  0  0  0  0
    7.2073  -14.0347   24.4066 C   0  0  0  0  0  0  0  0  0  0  0  0
    8.3644  -14.8200   23.8825 C   0  0  2  0  0  0  0  0  0  0  0  0
    8.0894  -15.2538   22.5018 N   0  0  0  0  0  0  0  0  0  0  0  0
    8.7813  -15.9752   24.6927 C   0  0  0  0  0  0  0  0  0  0  0  0
    7.9775  -16.9711   24.7694 O   0  0  0  0  0  0  0  0  0  0  0  0
    9.9825  -16.1223   25.4039 N   0  0  0  0  0  0  0  0  0  0  0  0
   10.2969  -17.4132   26.0976 C   0  0  1  0  0  0  0  0  0  0  0  0
   11.6109  -17.8221   25.5127 C   0  0  0  0  0  0  0  0  0  0  0  0
   12.1680  -19.0803   26.0384 C   0  0  0  0  0  0  0  0  0  0  0  0
   11.4822  -20.2780   26.2460 C   0  0  0  0  0  0  0  0  0  0  0  0
   12.3474  -21.1588   26.7281 N   0  0  0  0  0  0  0  0  0  0  0  0
   13.5396  -20.5770   26.8340 C   0  0  0  0  0  0  0  0  0  0  0  0
   13.4249  -19.3233   26.4163 N   0  0  0  0  0  0  0  0  0  0  0  0
   10.3551  -17.1668   27.5422 C   0  0  0  0  0  0  0  0  0  0  0  0
   10.4696  -18.2094   28.4365 O   0  0  0  0  0  0  0  0  0  0  0  0
   10.3032  -16.0155   28.0042 O   0  0  0  0  0  0  0  0  0  0  0  0
  2  1  1  0
  2  3  2  0
  4  2  1  0
  5  4  1  0
  5  6  1  0
  6  7  1  1
  8  6  1  0
  8  9  2  0
 10 11  1  0
 11 12  1  0
 14 13  1  1
 13 12  1  0
 14 15  1  0
 15  8  1  0
 16 14  1  0
 17 16  2  0
 18 16  1  0
 19 18  1  0
 19 20  1  6
 20 21  1  0
 21 25  1  0
 21 22  2  0
 22 23  1  0
 24 23  1  0
 25 24  2  0
 26 19  1  0
 27 26  1  0
 28 26  2  0
M  END
$$$$
