QMH.pdb
     RDKit          3D

 28 28  0  0  1  0  0  0  0  0999 V2000
   11.2936  -17.3207   17.1462 N   0  0  0  0  0  0  0  0  0  0  0  0
    9.9047  -17.6434   16.9086 C   0  0  0  0  0  0  0  0  0  0  0  0
    9.6787  -18.3000   15.8660 O   0  0  0  0  0  0  0  0  0  0  0  0
    8.8876  -17.1946   17.8680 C   0  0  0  0  0  0  0  0  0  0  0  0
    9.3557  -16.4909   19.0764 C   0  0  0  0  0  0  0  0  0  0  0  0
    8.8384  -16.9930   20.3794 C   0  0  2  0  0  0  0  0  0  0  0  0
    7.4090  -17.0652   20.4639 N   0  0  0  0  0  0  0  0  0  0  0  0
    9.3144  -16.1041   21.4942 C   0  0  0  0  0  0  0  0  0  0  0  0
   10.5369  -15.8659   21.5952 O   0  0  0  0  0  0  0  0  0  0  0  0
    6.6902  -11.5452   27.4328 C   0  0  0  0  0  0  0  0  0  0  0  0
    6.4457  -12.6873   26.0461 S   0  0  0  0  0  0  0  0  0  0  0  0
    7.9782  -12.7963   25.0383 C   0  0  0  0  0  0  0  0  0  0  0  0
    7.7088  -13.7556   23.9186 C   0  0  0  0  0  0  0  0  0  0  0  0
    8.8457  -14.6372   23.5179 C   0  0  2  0  0  0  0  0  0  0  0  0
    8.4232  -15.5328   22.4272 N   0  0  0  0  0  0  0  0  0  0  0  0
    9.4639  -15.4244   24.5962 C   0  0  0  0  0  0  0  0  0  0  0  0
    8.8744  -16.5031   24.9604 O   0  0  0  0  0  0  0  0  0  0  0  0
   10.6507  -15.1314   25.2861 N   0  0  0  0  0  0  0  0  0  0  0  0
   11.1829  -16.0845   26.3132 C   0  0  1  0  0  0  0  0  0  0  0  0
    9.9546  -16.5997   26.9928 C   0  0  0  0  0  0  0  0  0  0  0  0
   10.1968  -17.5529   28.0894 C   0  0  0  0  0  0  0  0  0  0  0  0
   11.4351  -17.9506   28.5956 C   0  0  0  0  0  0  0  0  0  0  0  0
   11.2107  -18.8166   29.5737 N   0  0  0  0  0  0  0  0  0  0  0  0
    9.8971  -18.9832   29.7077 C   0  0  0  0  0  0  0  0  0  0  0  0
    9.2910  -18.2182   28.8096 N   0  0  0  0  0  0  0  0  0  0  0  0
   11.9506  -17.1302   25.6288 C   0  0  0  0  0  0  0  0  0  0  0  0
   13.1216  -17.6190   26.1671 O   0  0  0  0  0  0  0  0  0  0  0  0
   11.5718  -17.6068   24.5467 O   0  0  0  0  0  0  0  0  0  0  0  0
  2  1  1  0
  2  3  2  0
  4  2  1  0
  5  4  1  0
  5  6  1  0
  6  7  1  6
  8  6  1  0
  8  9  2  0
 10 11  1  0
 11 12  1  0
 14 13  1  1
 13 12  1  0
 14 15  1  0
 15  8  1  0
 16 14  1  0
 17 16  2  0
 18 16  1  0
 19 18  1  0
 19 20  1  6
 20 21  1  0
 21 25  1  0
 21 22  2  0
 22 23  1  0
 24 23  1  0
 25 24  2  0
 26 19  1  0
 27 26  1  0
 28 26  2  0
M  END
$$$$
