KKQ.pdb
     RDKit          3D

 28 27  0  0  1  0  0  0  0  0999 V2000
   27.6353  -21.7831  -15.9700 N   0  0  0  0  0  0  0  0  0  0  0  0
   27.1703  -20.7657  -15.0490 C   0  0  1  0  0  0  0  0  0  0  0  0
   26.8591  -19.5008  -15.7785 C   0  0  0  0  0  0  0  0  0  0  0  0
   26.9030  -19.6238  -17.2807 C   0  0  0  0  0  0  0  0  0  0  0  0
   25.5109  -19.5915  -17.8352 C   0  0  0  0  0  0  0  0  0  0  0  0
   25.4746  -19.5965  -19.3347 C   0  0  0  0  0  0  0  0  0  0  0  0
   24.1323  -19.5445  -19.8614 N   0  0  0  0  0  0  0  0  0  0  0  0
   25.9397  -21.1850  -14.3349 C   0  0  0  0  0  0  0  0  0  0  0  0
   25.3349  -22.1918  -14.7559 O   0  0  0  0  0  0  0  0  0  0  0  0
   25.4340  -20.4945  -13.2096 N   0  0  0  0  0  0  0  0  0  0  0  0
   24.3464  -21.0056  -12.4106 C   0  0  1  0  0  0  0  0  0  0  0  0
   24.4140  -20.4153  -11.0409 C   0  0  0  0  0  0  0  0  0  0  0  0
   25.5588  -20.9820  -10.2725 C   0  0  0  0  0  0  0  0  0  0  0  0
   25.6425  -20.4253   -8.8878 C   0  0  0  0  0  0  0  0  0  0  0  0
   26.8645  -20.9762   -8.1469 C   0  0  0  0  0  0  0  0  0  0  0  0
   27.0293  -20.3798   -6.8567 N   0  0  0  0  0  0  0  0  0  0  0  0
   23.0709  -20.5866  -13.1097 C   0  0  0  0  0  0  0  0  0  0  0  0
   22.8766  -19.4097  -13.5006 O   0  0  0  0  0  0  0  0  0  0  0  0
   20.4819  -23.6450  -17.2464 N   0  0  0  0  0  0  0  0  0  0  0  0
   20.5032  -24.2633  -15.9717 C   0  0  0  0  0  0  0  0  0  0  0  0
   20.6291  -25.5135  -15.9360 O   0  0  0  0  0  0  0  0  0  0  0  0
   20.3802  -23.4511  -14.7341 C   0  0  0  0  0  0  0  0  0  0  0  0
   20.4198  -21.9915  -15.1351 C   0  0  0  0  0  0  0  0  0  0  0  0
   20.7923  -21.1082  -13.9547 C   0  0  2  0  0  0  0  0  0  0  0  0
   22.0346  -21.5234  -13.3515 N   0  0  0  0  0  0  0  0  0  0  0  0
   19.7082  -21.2730  -12.9624 C   0  0  0  0  0  0  0  0  0  0  0  0
   19.8819  -21.7686  -11.8176 O   0  0  0  0  0  0  0  0  0  0  0  0
   18.4323  -20.8641  -13.3000 O   0  0  0  0  0  0  0  0  0  0  0  0
  2  1  1  6
  3  2  1  0
  4  3  1  0
  4  5  1  0
  5  6  1  0
  6  7  1  0
  8  9  2  0
  8  2  1  0
 10  8  1  0
 11 10  1  0
 11 12  1  1
 13 12  1  0
 14 13  1  0
 15 14  1  0
 16 15  1  0
 17 11  1  0
 18 17  2  0
 19 20  1  0
 20 21  2  0
 22 20  1  0
 22 23  1  0
 24 23  1  6
 24 25  1  0
 24 26  1  0
 25 17  1  0
 26 28  1  0
 27 26  2  0
M  END
$$$$
