KKQ.pdb
     RDKit          3D

 28 27  0  0  1  0  0  0  0  0999 V2000
   35.1808  -24.6597  -18.4690 N   0  0  0  0  0  0  0  0  0  0  0  0
   33.9752  -24.4986  -19.2565 C   0  0  1  0  0  0  0  0  0  0  0  0
   33.8340  -25.6180  -20.2341 C   0  0  0  0  0  0  0  0  0  0  0  0
   34.9375  -25.6896  -21.2592 C   0  0  0  0  0  0  0  0  0  0  0  0
   34.6536  -26.7895  -22.2371 C   0  0  0  0  0  0  0  0  0  0  0  0
   35.7351  -26.9586  -23.2626 C   0  0  0  0  0  0  0  0  0  0  0  0
   35.4268  -27.9769  -24.2372 N   0  0  0  0  0  0  0  0  0  0  0  0
   32.7573  -24.4872  -18.4098 C   0  0  0  0  0  0  0  0  0  0  0  0
   32.7537  -25.1962  -17.3831 O   0  0  0  0  0  0  0  0  0  0  0  0
   31.6160  -23.7128  -18.7198 N   0  0  0  0  0  0  0  0  0  0  0  0
   30.4864  -23.6051  -17.8280 C   0  0  1  0  0  0  0  0  0  0  0  0
   29.8072  -22.2926  -18.0403 C   0  0  0  0  0  0  0  0  0  0  0  0
   28.6093  -22.1645  -17.1624 C   0  0  0  0  0  0  0  0  0  0  0  0
   27.9134  -20.8538  -17.3414 C   0  0  0  0  0  0  0  0  0  0  0  0
   26.7385  -20.7179  -16.3683 C   0  0  0  0  0  0  0  0  0  0  0  0
   26.0669  -19.4616  -16.5031 N   0  0  0  0  0  0  0  0  0  0  0  0
   29.5582  -24.7487  -18.1766 C   0  0  0  0  0  0  0  0  0  0  0  0
   29.1423  -24.9418  -19.3451 O   0  0  0  0  0  0  0  0  0  0  0  0
   28.8582  -30.0282  -14.9102 N   0  0  0  0  0  0  0  0  0  0  0  0
   27.9446  -30.2298  -15.9742 C   0  0  0  0  0  0  0  0  0  0  0  0
   27.3667  -31.3443  -16.0387 O   0  0  0  0  0  0  0  0  0  0  0  0
   27.6903  -29.1552  -16.9676 C   0  0  0  0  0  0  0  0  0  0  0  0
   28.5357  -27.9602  -16.5803 C   0  0  0  0  0  0  0  0  0  0  0  0
   28.3030  -26.7935  -17.5273 C   0  0  2  0  0  0  0  0  0  0  0  0
   29.1189  -25.6563  -17.1800 N   0  0  0  0  0  0  0  0  0  0  0  0
   26.8809  -26.4184  -17.3725 C   0  0  0  0  0  0  0  0  0  0  0  0
   25.9590  -26.8679  -18.1034 O   0  0  0  0  0  0  0  0  0  0  0  0
   26.5348  -25.5273  -16.3749 O   0  0  0  0  0  0  0  0  0  0  0  0
  2  1  1  1
  3  2  1  0
  4  3  1  0
  4  5  1  0
  5  6  1  0
  6  7  1  0
  8  9  2  0
  8  2  1  0
 10  8  1  0
 11 10  1  0
 11 12  1  6
 13 12  1  0
 14 13  1  0
 15 14  1  0
 16 15  1  0
 17 11  1  0
 18 17  2  0
 19 20  1  0
 20 21  2  0
 22 20  1  0
 22 23  1  0
 24 23  1  1
 24 25  1  0
 24 26  1  0
 25 17  1  0
 26 28  1  0
 27 26  2  0
M  END
$$$$
