KKQ.pdb
     RDKit          3D

 28 27  0  0  1  0  0  0  0  0999 V2000
   22.7243  -23.0184  -16.9141 N   0  0  0  0  0  0  0  0  0  0  0  0
   22.1716  -22.0868  -15.9517 C   0  0  1  0  0  0  0  0  0  0  0  0
   21.8263  -20.7934  -16.6125 C   0  0  0  0  0  0  0  0  0  0  0  0
   22.8914  -20.2672  -17.5412 C   0  0  0  0  0  0  0  0  0  0  0  0
   23.8175  -19.3583  -16.7909 C   0  0  0  0  0  0  0  0  0  0  0  0
   24.8692  -18.7397  -17.6633 C   0  0  0  0  0  0  0  0  0  0  0  0
   25.7627  -17.8736  -16.9328 N   0  0  0  0  0  0  0  0  0  0  0  0
   20.9360  -22.6105  -15.3197 C   0  0  0  0  0  0  0  0  0  0  0  0
   20.0290  -23.0272  -16.0683 O   0  0  0  0  0  0  0  0  0  0  0  0
   20.7513  -22.6539  -13.9187 N   0  0  0  0  0  0  0  0  0  0  0  0
   19.5804  -23.2365  -13.3087 C   0  0  1  0  0  0  0  0  0  0  0  0
   19.8885  -23.6119  -11.8969 C   0  0  0  0  0  0  0  0  0  0  0  0
   18.7566  -24.3661  -11.2870 C   0  0  0  0  0  0  0  0  0  0  0  0
   19.0162  -24.7199   -9.8581 C   0  0  0  0  0  0  0  0  0  0  0  0
   17.9062  -25.6178   -9.3037 C   0  0  0  0  0  0  0  0  0  0  0  0
   18.1043  -25.9325   -7.9219 N   0  0  0  0  0  0  0  0  0  0  0  0
   18.5028  -22.1746  -13.3554 C   0  0  0  0  0  0  0  0  0  0  0  0
   18.7249  -20.9804  -13.0388 O   0  0  0  0  0  0  0  0  0  0  0  0
   16.1052  -19.3715  -17.1360 N   0  0  0  0  0  0  0  0  0  0  0  0
   14.8992  -19.2736  -16.3988 C   0  0  0  0  0  0  0  0  0  0  0  0
   14.1349  -18.3112  -16.6630 O   0  0  0  0  0  0  0  0  0  0  0  0
   14.5651  -20.2780  -15.3568 C   0  0  0  0  0  0  0  0  0  0  0  0
   15.7081  -21.2687  -15.2884 C   0  0  0  0  0  0  0  0  0  0  0  0
   16.1707  -21.4745  -13.8546 C   0  0  2  0  0  0  0  0  0  0  0  0
   17.1842  -22.4964  -13.7647 N   0  0  0  0  0  0  0  0  0  0  0  0
   14.9800  -21.9238  -13.1012 C   0  0  0  0  0  0  0  0  0  0  0  0
   14.7899  -23.1176  -12.7475 O   0  0  0  0  0  0  0  0  0  0  0  0
   14.0187  -20.9911  -12.7624 O   0  0  0  0  0  0  0  0  0  0  0  0
  2  1  1  6
  3  2  1  0
  4  3  1  0
  4  5  1  0
  5  6  1  0
  6  7  1  0
  8  9  2  0
  8  2  1  0
 10  8  1  0
 11 10  1  0
 11 12  1  1
 13 12  1  0
 14 13  1  0
 15 14  1  0
 16 15  1  0
 17 11  1  0
 18 17  2  0
 19 20  1  0
 20 21  2  0
 22 20  1  0
 22 23  1  0
 24 23  1  6
 24 25  1  0
 24 26  1  0
 25 17  1  0
 26 28  1  0
 27 26  2  0
M  END
$$$$
