KKQ.pdb
     RDKit          3D

 28 27  0  0  1  0  0  0  0  0999 V2000
   25.6484  -20.9808   -9.9202 N   0  0  0  0  0  0  0  0  0  0  0  0
   25.4828  -20.6579  -11.3230 C   0  0  1  0  0  0  0  0  0  0  0  0
   26.4541  -21.4268  -12.1563 C   0  0  0  0  0  0  0  0  0  0  0  0
   27.8167  -21.5879  -11.5310 C   0  0  0  0  0  0  0  0  0  0  0  0
   28.6553  -20.3794  -11.8189 C   0  0  0  0  0  0  0  0  0  0  0  0
   30.0261  -20.4572  -11.2151 C   0  0  0  0  0  0  0  0  0  0  0  0
   30.8144  -19.2746  -11.4643 N   0  0  0  0  0  0  0  0  0  0  0  0
   24.1198  -20.9831  -11.8096 C   0  0  0  0  0  0  0  0  0  0  0  0
   24.0062  -21.4402  -12.9650 O   0  0  0  0  0  0  0  0  0  0  0  0
   22.9604  -20.7965  -11.0224 N   0  0  0  0  0  0  0  0  0  0  0  0
   21.6426  -21.1602  -11.4846 C   0  0  1  0  0  0  0  0  0  0  0  0
   20.6702  -21.0465  -10.3574 C   0  0  0  0  0  0  0  0  0  0  0  0
   19.2877  -21.3698  -10.8117 C   0  0  0  0  0  0  0  0  0  0  0  0
   18.7189  -22.5534  -10.0975 C   0  0  0  0  0  0  0  0  0  0  0  0
   17.3332  -22.9108  -10.6431 C   0  0  0  0  0  0  0  0  0  0  0  0
   16.8413  -24.1423  -10.1057 N   0  0  0  0  0  0  0  0  0  0  0  0
   21.2948  -20.1859  -12.5895 C   0  0  0  0  0  0  0  0  0  0  0  0
   21.3429  -18.9423  -12.4259 O   0  0  0  0  0  0  0  0  0  0  0  0
   21.3167  -21.3283  -18.7363 N   0  0  0  0  0  0  0  0  0  0  0  0
   20.7820  -20.0167  -18.6986 C   0  0  0  0  0  0  0  0  0  0  0  0
   20.5597  -19.4497  -19.7983 O   0  0  0  0  0  0  0  0  0  0  0  0
   20.5005  -19.3509  -17.4011 C   0  0  0  0  0  0  0  0  0  0  0  0
   20.8235  -20.3363  -16.2979 C   0  0  0  0  0  0  0  0  0  0  0  0
   20.5888  -19.7216  -14.9270 C   0  0  2  0  0  0  0  0  0  0  0  0
   20.8963  -20.6509  -13.8681 N   0  0  0  0  0  0  0  0  0  0  0  0
   19.1472  -19.3972  -14.8657 C   0  0  0  0  0  0  0  0  0  0  0  0
   18.2769  -20.1797  -14.4003 O   0  0  0  0  0  0  0  0  0  0  0  0
   18.7222  -18.1720  -15.3423 O   0  0  0  0  0  0  0  0  0  0  0  0
  2  1  1  1
  3  2  1  0
  4  3  1  0
  4  5  1  0
  5  6  1  0
  6  7  1  0
  8  9  2  0
  8  2  1  0
 10  8  1  0
 11 10  1  0
 11 12  1  1
 13 12  1  0
 14 13  1  0
 15 14  1  0
 16 15  1  0
 17 11  1  0
 18 17  2  0
 19 20  1  0
 20 21  2  0
 22 20  1  0
 22 23  1  0
 24 23  1  6
 24 25  1  0
 24 26  1  0
 25 17  1  0
 26 28  1  0
 27 26  2  0
M  END
$$$$
