KKQ.pdb
     RDKit          3D

 28 27  0  0  1  0  0  0  0  0999 V2000
   20.0113  -18.9573  -17.9782 N   0  0  0  0  0  0  0  0  0  0  0  0
   19.3410  -17.8876  -17.2669 C   0  0  1  0  0  0  0  0  0  0  0  0
   19.2408  -18.2076  -15.8121 C   0  0  0  0  0  0  0  0  0  0  0  0
   19.1832  -19.6824  -15.5036 C   0  0  0  0  0  0  0  0  0  0  0  0
   19.0198  -19.8881  -14.0279 C   0  0  0  0  0  0  0  0  0  0  0  0
   18.8680  -21.3312  -13.6483 C   0  0  0  0  0  0  0  0  0  0  0  0
   19.8146  -21.7468  -12.6417 N   0  0  0  0  0  0  0  0  0  0  0  0
   20.0649  -16.5991  -17.3931 C   0  0  0  0  0  0  0  0  0  0  0  0
   21.2117  -16.5240  -16.9073 O   0  0  0  0  0  0  0  0  0  0  0  0
   19.5101  -15.4684  -18.0351 N   0  0  0  0  0  0  0  0  0  0  0  0
   20.2652  -14.2608  -18.2682 C   0  0  1  0  0  0  0  0  0  0  0  0
   19.9428  -13.7253  -19.6240 C   0  0  0  0  0  0  0  0  0  0  0  0
   20.6570  -12.4408  -19.8732 C   0  0  0  0  0  0  0  0  0  0  0  0
   20.3322  -11.8627  -21.2129 C   0  0  0  0  0  0  0  0  0  0  0  0
   21.1411  -10.5883  -21.4724 C   0  0  0  0  0  0  0  0  0  0  0  0
   20.7776   -9.9582  -22.7045 N   0  0  0  0  0  0  0  0  0  0  0  0
   19.8444  -13.2813  -17.1938 C   0  0  0  0  0  0  0  0  0  0  0  0
   18.6814  -13.2634  -16.7218 O   0  0  0  0  0  0  0  0  0  0  0  0
   23.6440   -9.8112  -13.5672 N   0  0  0  0  0  0  0  0  0  0  0  0
   22.3693   -9.2986  -13.2211 C   0  0  0  0  0  0  0  0  0  0  0  0
   22.3267   -8.3854  -12.3582 O   0  0  0  0  0  0  0  0  0  0  0  0
   21.1397   -9.8305  -13.8624 C   0  0  0  0  0  0  0  0  0  0  0  0
   21.5632  -10.8659  -14.8827 C   0  0  0  0  0  0  0  0  0  0  0  0
   20.3638  -11.4093  -15.6434 C   0  0  2  0  0  0  0  0  0  0  0  0
   20.7633  -12.3347  -16.6746 N   0  0  0  0  0  0  0  0  0  0  0  0
   19.7208  -10.2405  -16.2820 C   0  0  0  0  0  0  0  0  0  0  0  0
   18.6872   -9.6811  -15.8293 O   0  0  0  0  0  0  0  0  0  0  0  0
   20.2766   -9.7272  -17.4380 O   0  0  0  0  0  0  0  0  0  0  0  0
  2  1  1  6
  3  2  1  0
  4  3  1  0
  4  5  1  0
  5  6  1  0
  6  7  1  0
  8  9  2  0
  8  2  1  0
 10  8  1  0
 11 10  1  0
 11 12  1  6
 13 12  1  0
 14 13  1  0
 15 14  1  0
 16 15  1  0
 17 11  1  0
 18 17  2  0
 19 20  1  0
 20 21  2  0
 22 20  1  0
 22 23  1  0
 24 23  1  6
 24 25  1  0
 24 26  1  0
 25 17  1  0
 26 28  1  0
 27 26  2  0
M  END
$$$$
