KKQ.pdb
     RDKit          3D

 28 27  0  0  1  0  0  0  0  0999 V2000
   21.7401  -28.2614  -15.1449 N   0  0  0  0  0  0  0  0  0  0  0  0
   22.2424  -27.4515  -16.2363 C   0  0  1  0  0  0  0  0  0  0  0  0
   21.1139  -26.8296  -16.9904 C   0  0  0  0  0  0  0  0  0  0  0  0
   20.2332  -27.8162  -17.7147 C   0  0  0  0  0  0  0  0  0  0  0  0
   19.1934  -27.0840  -18.5079 C   0  0  0  0  0  0  0  0  0  0  0  0
   18.2571  -28.0005  -19.2380 C   0  0  0  0  0  0  0  0  0  0  0  0
   17.3006  -27.2897  -20.0517 N   0  0  0  0  0  0  0  0  0  0  0  0
   23.1178  -26.3547  -15.7555 C   0  0  0  0  0  0  0  0  0  0  0  0
   22.9558  -25.9483  -14.5870 O   0  0  0  0  0  0  0  0  0  0  0  0
   24.1155  -25.7612  -16.5623 N   0  0  0  0  0  0  0  0  0  0  0  0
   24.9769  -24.7081  -16.0810 C   0  0  1  0  0  0  0  0  0  0  0  0
   26.2344  -24.6861  -16.8856 C   0  0  0  0  0  0  0  0  0  0  0  0
   27.1865  -25.7321  -16.4149 C   0  0  0  0  0  0  0  0  0  0  0  0
   28.4339  -25.7741  -17.2375 C   0  0  0  0  0  0  0  0  0  0  0  0
   29.3166  -26.9599  -16.8371 C   0  0  0  0  0  0  0  0  0  0  0  0
   30.5363  -27.0031  -17.5842 N   0  0  0  0  0  0  0  0  0  0  0  0
   24.2086  -23.4159  -16.2564 C   0  0  0  0  0  0  0  0  0  0  0  0
   23.5944  -23.1401  -17.3158 O   0  0  0  0  0  0  0  0  0  0  0  0
   20.3828  -19.0370  -15.4596 N   0  0  0  0  0  0  0  0  0  0  0  0
   21.1504  -19.3515  -14.3110 C   0  0  0  0  0  0  0  0  0  0  0  0
   20.5416  -19.8270  -13.3193 O   0  0  0  0  0  0  0  0  0  0  0  0
   22.6179  -19.1223  -14.2951 C   0  0  0  0  0  0  0  0  0  0  0  0
   23.2912  -20.4615  -14.0816 C   0  0  0  0  0  0  0  0  0  0  0  0
   23.4517  -21.2106  -15.3952 C   0  0  2  0  0  0  0  0  0  0  0  0
   24.1548  -22.4565  -15.2140 N   0  0  0  0  0  0  0  0  0  0  0  0
   24.2619  -20.3347  -16.2691 C   0  0  0  0  0  0  0  0  0  0  0  0
   23.8464  -19.2415  -16.7364 O   0  0  0  0  0  0  0  0  0  0  0  0
   25.5453  -20.7284  -16.5961 O   0  0  0  0  0  0  0  0  0  0  0  0
  2  1  1  1
  3  2  1  0
  4  3  1  0
  4  5  1  0
  5  6  1  0
  6  7  1  0
  8  9  2  0
  8  2  1  0
 10  8  1  0
 11 10  1  0
 11 12  1  6
 13 12  1  0
 14 13  1  0
 15 14  1  0
 16 15  1  0
 17 11  1  0
 18 17  2  0
 19 20  1  0
 20 21  2  0
 22 20  1  0
 22 23  1  0
 24 23  1  1
 24 25  1  0
 24 26  1  0
 25 17  1  0
 26 28  1  0
 27 26  2  0
M  END
$$$$
