KKQ.pdb
     RDKit          3D

 28 27  0  0  1  0  0  0  0  0999 V2000
   21.1797  -21.3214  -12.9378 N   0  0  0  0  0  0  0  0  0  0  0  0
   21.1647  -20.7572  -14.2723 C   0  0  1  0  0  0  0  0  0  0  0  0
   20.8927  -19.2902  -14.2183 C   0  0  0  0  0  0  0  0  0  0  0  0
   19.5128  -18.8974  -14.6822 C   0  0  0  0  0  0  0  0  0  0  0  0
   18.5050  -19.8842  -14.1753 C   0  0  0  0  0  0  0  0  0  0  0  0
   17.1244  -19.6422  -14.7094 C   0  0  0  0  0  0  0  0  0  0  0  0
   16.1941  -20.6835  -14.3460 N   0  0  0  0  0  0  0  0  0  0  0  0
   22.4603  -20.9470  -14.9691 C   0  0  0  0  0  0  0  0  0  0  0  0
   23.4867  -20.4881  -14.4281 O   0  0  0  0  0  0  0  0  0  0  0  0
   22.5729  -21.6198  -16.2074 N   0  0  0  0  0  0  0  0  0  0  0  0
   23.8473  -21.9097  -16.8192 C   0  0  1  0  0  0  0  0  0  0  0  0
   23.6796  -22.9965  -17.8290 C   0  0  0  0  0  0  0  0  0  0  0  0
   24.9707  -23.7005  -18.0737 C   0  0  0  0  0  0  0  0  0  0  0  0
   25.2759  -24.7088  -17.0133 C   0  0  0  0  0  0  0  0  0  0  0  0
   26.6074  -25.4127  -17.2911 C   0  0  0  0  0  0  0  0  0  0  0  0
   26.9527  -26.3435  -16.2606 N   0  0  0  0  0  0  0  0  0  0  0  0
   24.3016  -20.6285  -17.4848 C   0  0  0  0  0  0  0  0  0  0  0  0
   23.4925  -19.8136  -17.9918 O   0  0  0  0  0  0  0  0  0  0  0  0
   30.2676  -18.5269  -17.9437 N   0  0  0  0  0  0  0  0  0  0  0  0
   29.5283  -17.4769  -18.5423 C   0  0  0  0  0  0  0  0  0  0  0  0
   30.1743  -16.4991  -18.9970 O   0  0  0  0  0  0  0  0  0  0  0  0
   28.0466  -17.5440  -18.6219 C   0  0  0  0  0  0  0  0  0  0  0  0
   27.6161  -18.8882  -18.0739 C   0  0  0  0  0  0  0  0  0  0  0  0
   26.1059  -19.0515  -18.1447 C   0  0  2  0  0  0  0  0  0  0  0  0
   25.6783  -20.2985  -17.5603 N   0  0  0  0  0  0  0  0  0  0  0  0
   25.7628  -19.0627  -19.5832 C   0  0  0  0  0  0  0  0  0  0  0  0
   25.8099  -20.0960  -20.3018 O   0  0  0  0  0  0  0  0  0  0  0  0
   25.3680  -17.8809  -20.1801 O   0  0  0  0  0  0  0  0  0  0  0  0
  2  1  1  1
  3  2  1  0
  4  3  1  0
  4  5  1  0
  5  6  1  0
  6  7  1  0
  8  9  2  0
  8  2  1  0
 10  8  1  0
 11 10  1  0
 11 12  1  6
 13 12  1  0
 14 13  1  0
 15 14  1  0
 16 15  1  0
 17 11  1  0
 18 17  2  0
 19 20  1  0
 20 21  2  0
 22 20  1  0
 22 23  1  0
 24 23  1  6
 24 25  1  0
 24 26  1  0
 25 17  1  0
 26 28  1  0
 27 26  2  0
M  END
$$$$
