KKQ.pdb
     RDKit          3D

 28 27  0  0  1  0  0  0  0  0999 V2000
   25.1997  -14.2727  -19.5268 N   0  0  0  0  0  0  0  0  0  0  0  0
   24.2778  -14.5421  -18.4419 C   0  0  1  0  0  0  0  0  0  0  0  0
   22.8799  -14.2091  -18.8467 C   0  0  0  0  0  0  0  0  0  0  0  0
   22.5545  -12.7375  -18.8010 C   0  0  0  0  0  0  0  0  0  0  0  0
   21.1572  -12.5094  -19.2932 C   0  0  0  0  0  0  0  0  0  0  0  0
   20.7439  -11.0684  -19.2436 C   0  0  0  0  0  0  0  0  0  0  0  0
   19.4869  -10.8243  -19.9088 N   0  0  0  0  0  0  0  0  0  0  0  0
   24.2990  -15.9691  -18.0377 C   0  0  0  0  0  0  0  0  0  0  0  0
   23.3369  -16.6866  -18.3787 O   0  0  0  0  0  0  0  0  0  0  0  0
   25.3554  -16.5380  -17.2901 N   0  0  0  0  0  0  0  0  0  0  0  0
   25.3423  -17.9129  -16.8516 C   0  0  1  0  0  0  0  0  0  0  0  0
   26.6682  -18.2597  -16.2593 C   0  0  0  0  0  0  0  0  0  0  0  0
   26.6832  -19.6696  -15.7753 C   0  0  0  0  0  0  0  0  0  0  0  0
   26.9123  -20.6464  -16.8833 C   0  0  0  0  0  0  0  0  0  0  0  0
   26.7832  -22.0875  -16.3810 C   0  0  0  0  0  0  0  0  0  0  0  0
   26.8931  -23.0420  -17.4413 N   0  0  0  0  0  0  0  0  0  0  0  0
   24.2490  -18.0173  -15.8101 C   0  0  0  0  0  0  0  0  0  0  0  0
   24.1774  -17.2327  -14.8329 O   0  0  0  0  0  0  0  0  0  0  0  0
   18.6067  -18.8639  -16.3526 N   0  0  0  0  0  0  0  0  0  0  0  0
   18.6468  -19.2485  -14.9895 C   0  0  0  0  0  0  0  0  0  0  0  0
   17.6102  -19.0607  -14.3036 O   0  0  0  0  0  0  0  0  0  0  0  0
   19.8745  -19.8493  -14.4082 C   0  0  0  0  0  0  0  0  0  0  0  0
   20.9636  -19.7784  -15.4577 C   0  0  0  0  0  0  0  0  0  0  0  0
   22.2212  -19.1301  -14.9004 C   0  0  2  0  0  0  0  0  0  0  0  0
   23.2516  -19.0206  -15.9032 N   0  0  0  0  0  0  0  0  0  0  0  0
   22.7017  -20.0262  -13.8264 C   0  0  0  0  0  0  0  0  0  0  0  0
   23.7072  -20.7756  -13.9432 O   0  0  0  0  0  0  0  0  0  0  0  0
   22.0173  -20.0497  -12.6265 O   0  0  0  0  0  0  0  0  0  0  0  0
  2  1  1  6
  3  2  1  0
  4  3  1  0
  4  5  1  0
  5  6  1  0
  6  7  1  0
  8  9  2  0
  8  2  1  0
 10  8  1  0
 11 10  1  0
 11 12  1  1
 13 12  1  0
 14 13  1  0
 15 14  1  0
 16 15  1  0
 17 11  1  0
 18 17  2  0
 19 20  1  0
 20 21  2  0
 22 20  1  0
 22 23  1  0
 24 23  1  6
 24 25  1  0
 24 26  1  0
 25 17  1  0
 26 28  1  0
 27 26  2  0
M  END
$$$$
