KKQ.pdb
     RDKit          3D

 28 27  0  0  1  0  0  0  0  0999 V2000
   14.6716  -12.6177  -14.1030 N   0  0  0  0  0  0  0  0  0  0  0  0
   15.7081  -12.0157  -13.2889 C   0  0  1  0  0  0  0  0  0  0  0  0
   16.9285  -11.7492  -14.1065 C   0  0  0  0  0  0  0  0  0  0  0  0
   17.4029  -12.9294  -14.9162 C   0  0  0  0  0  0  0  0  0  0  0  0
   18.7217  -12.6124  -15.5540 C   0  0  0  0  0  0  0  0  0  0  0  0
   19.2331  -13.7183  -16.4288 C   0  0  0  0  0  0  0  0  0  0  0  0
   20.5048  -13.4080  -17.0358 N   0  0  0  0  0  0  0  0  0  0  0  0
   15.2723  -10.7253  -12.7014 C   0  0  0  0  0  0  0  0  0  0  0  0
   14.8217   -9.8550  -13.4736 O   0  0  0  0  0  0  0  0  0  0  0  0
   15.3479  -10.4495  -11.3169 N   0  0  0  0  0  0  0  0  0  0  0  0
   14.8485   -9.2235  -10.7421 C   0  0  1  0  0  0  0  0  0  0  0  0
   13.9120   -9.5426   -9.6240 C   0  0  0  0  0  0  0  0  0  0  0  0
   13.3336   -8.2981   -9.0419 C   0  0  0  0  0  0  0  0  0  0  0  0
   12.3174   -8.5865   -7.9843 C   0  0  0  0  0  0  0  0  0  0  0  0
   11.7047   -7.2914   -7.4430 C   0  0  0  0  0  0  0  0  0  0  0  0
   12.6879   -6.4292   -6.8622 N   0  0  0  0  0  0  0  0  0  0  0  0
   16.0569   -8.4712  -10.2277 C   0  0  0  0  0  0  0  0  0  0  0  0
   16.8799   -8.9882   -9.4334 O   0  0  0  0  0  0  0  0  0  0  0  0
   20.4412   -6.3636  -13.2063 N   0  0  0  0  0  0  0  0  0  0  0  0
   20.7627   -5.7095  -11.9913 C   0  0  0  0  0  0  0  0  0  0  0  0
   21.8914   -5.1624  -11.9086 O   0  0  0  0  0  0  0  0  0  0  0  0
   19.7919   -5.6802  -10.8674 C   0  0  0  0  0  0  0  0  0  0  0  0
   18.5591   -6.4434  -11.3033 C   0  0  0  0  0  0  0  0  0  0  0  0
   17.5022   -6.4490  -10.2101 C   0  0  2  0  0  0  0  0  0  0  0  0
   16.3057   -7.1350  -10.6312 N   0  0  0  0  0  0  0  0  0  0  0  0
   17.1681   -5.0308   -9.9568 C   0  0  0  0  0  0  0  0  0  0  0  0
   16.0998   -4.4875  -10.3439 O   0  0  0  0  0  0  0  0  0  0  0  0
   18.0703   -4.2513   -9.2587 O   0  0  0  0  0  0  0  0  0  0  0  0
  2  1  1  6
  3  2  1  0
  4  3  1  0
  4  5  1  0
  5  6  1  0
  6  7  1  0
  8  9  2  0
  8  2  1  0
 10  8  1  0
 11 10  1  0
 11 12  1  1
 13 12  1  0
 14 13  1  0
 15 14  1  0
 16 15  1  0
 17 11  1  0
 18 17  2  0
 19 20  1  0
 20 21  2  0
 22 20  1  0
 22 23  1  0
 24 23  1  6
 24 25  1  0
 24 26  1  0
 25 17  1  0
 26 28  1  0
 27 26  2  0
M  END
$$$$
