GPS.pdb
     RDKit          3D

 18 18  0  0  1  0  0  0  0  0999 V2000
    8.2636  -16.3899   15.9614 N   0  0  0  0  0  0  0  0  0  0  0  0
    7.6035  -16.2091   17.2081 C   0  0  0  0  0  0  0  0  0  0  0  0
    8.4166  -15.7568   18.3318 C   0  0  0  0  0  0  0  0  0  0  0  0
    9.4241  -16.4678   18.6413 O   0  0  0  0  0  0  0  0  0  0  0  0
    8.1942  -14.5983   19.1180 N   0  0  0  0  0  0  0  0  0  0  0  0
    7.1801  -13.6132   18.7947 C   0  0  0  0  0  0  0  0  0  0  0  0
    7.7053  -12.3910   19.5671 C   0  0  0  0  0  0  0  0  0  0  0  0
    8.0344  -13.0687   20.8705 C   0  0  0  0  0  0  0  0  0  0  0  0
    8.9082  -14.2180   20.3431 C   0  0  1  0  0  0  0  0  0  0  0  0
    8.9476  -15.2962   21.3293 C   0  0  0  0  0  0  0  0  0  0  0  0
    7.9305  -15.9891   21.5657 O   0  0  0  0  0  0  0  0  0  0  0  0
   12.2361  -17.4015   22.1298 O   0  0  0  0  0  0  0  0  0  0  0  0
   10.9844  -17.8151   22.5311 C   0  0  0  0  0  0  0  0  0  0  0  0
   10.1836  -16.6389   23.0657 C   0  0  2  0  0  0  0  0  0  0  0  0
   10.1252  -15.6003   22.0520 N   0  0  0  0  0  0  0  0  0  0  0  0
   10.7992  -16.0940   24.3197 C   0  0  0  0  0  0  0  0  0  0  0  0
   10.8976  -16.8400   25.4710 O   0  0  0  0  0  0  0  0  0  0  0  0
   11.2456  -14.9136   24.3329 O   0  0  0  0  0  0  0  0  0  0  0  0
  1  2  1  0
  3  2  1  0
  3  4  2  0
  5  6  1  0
  5  3  1  0
  7  6  1  0
  8  7  1  0
  8  9  1  0
  9  5  1  0
  9 10  1  1
 10 11  2  0
 12 13  1  0
 14 13  1  6
 14 15  1  0
 15 10  1  0
 16 17  1  0
 16 14  1  0
 18 16  2  0
M  END
$$$$
