GPS.pdb
     RDKit          3D

 18 18  0  0  1  0  0  0  0  0999 V2000
    6.4133  -17.9952   18.0759 N   0  0  0  0  0  0  0  0  0  0  0  0
    6.2576  -16.8046   18.8379 C   0  0  0  0  0  0  0  0  0  0  0  0
    7.4452  -16.2817   19.5049 C   0  0  0  0  0  0  0  0  0  0  0  0
    8.3821  -17.1054   19.7498 O   0  0  0  0  0  0  0  0  0  0  0  0
    7.6598  -14.9404   19.9104 N   0  0  0  0  0  0  0  0  0  0  0  0
    6.7503  -13.8628   19.5711 C   0  0  0  0  0  0  0  0  0  0  0  0
    7.6688  -12.6414   19.7455 C   0  0  0  0  0  0  0  0  0  0  0  0
    8.2991  -13.0155   21.0605 C   0  0  0  0  0  0  0  0  0  0  0  0
    8.7786  -14.4345   20.7151 C   0  0  1  0  0  0  0  0  0  0  0  0
    8.9773  -15.1980   21.9457 C   0  0  0  0  0  0  0  0  0  0  0  0
    8.0391  -15.3603   22.7604 O   0  0  0  0  0  0  0  0  0  0  0  0
   11.1534  -18.4114   22.3137 O   0  0  0  0  0  0  0  0  0  0  0  0
   10.3074  -17.9676   23.3069 C   0  0  0  0  0  0  0  0  0  0  0  0
   10.4769  -16.4720   23.5184 C   0  0  2  0  0  0  0  0  0  0  0  0
   10.2260  -15.7807   22.2659 N   0  0  0  0  0  0  0  0  0  0  0  0
   11.8563  -16.1508   24.0111 C   0  0  0  0  0  0  0  0  0  0  0  0
   12.7329  -15.3809   23.2829 O   0  0  0  0  0  0  0  0  0  0  0  0
   12.2381  -16.5953   25.1289 O   0  0  0  0  0  0  0  0  0  0  0  0
  1  2  1  0
  3  2  1  0
  3  4  2  0
  5  6  1  0
  5  3  1  0
  7  6  1  0
  8  7  1  0
  8  9  1  0
  9  5  1  0
  9 10  1  1
 10 11  2  0
 12 13  1  0
 14 13  1  6
 14 15  1  0
 15 10  1  0
 16 17  1  0
 16 14  1  0
 18 16  2  0
M  END
$$$$
