GPS.pdb
     RDKit          3D

 18 18  0  0  1  0  0  0  0  0999 V2000
    7.3385  -14.0387   21.3984 N   0  0  0  0  0  0  0  0  0  0  0  0
    6.6966  -13.8515   22.6535 C   0  0  0  0  0  0  0  0  0  0  0  0
    7.5511  -13.7833   23.8340 C   0  0  0  0  0  0  0  0  0  0  0  0
    8.6672  -14.3894   23.7773 O   0  0  0  0  0  0  0  0  0  0  0  0
    7.2597  -13.1062   25.0449 N   0  0  0  0  0  0  0  0  0  0  0  0
    6.1254  -12.2145   25.1921 C   0  0  0  0  0  0  0  0  0  0  0  0
    6.5676  -11.3794   26.4058 C   0  0  0  0  0  0  0  0  0  0  0  0
    7.0569  -12.4979   27.2867 C   0  0  0  0  0  0  0  0  0  0  0  0
    8.0112  -13.1940   26.3030 C   0  0  1  0  0  0  0  0  0  0  0  0
    8.2345  -14.5740   26.7301 C   0  0  0  0  0  0  0  0  0  0  0  0
    7.2989  -15.4076   26.7268 O   0  0  0  0  0  0  0  0  0  0  0  0
   11.6716  -16.4871   26.2172 O   0  0  0  0  0  0  0  0  0  0  0  0
   10.5036  -17.1422   26.5422 C   0  0  0  0  0  0  0  0  0  0  0  0
    9.7499  -16.3791   27.6192 C   0  0  2  0  0  0  0  0  0  0  0  0
    9.5050  -15.0226   27.1613 N   0  0  0  0  0  0  0  0  0  0  0  0
   10.5251  -16.3522   28.9025 C   0  0  0  0  0  0  0  0  0  0  0  0
   10.9424  -15.1764   29.4812 O   0  0  0  0  0  0  0  0  0  0  0  0
   10.8107  -17.4369   29.4810 O   0  0  0  0  0  0  0  0  0  0  0  0
  1  2  1  0
  3  2  1  0
  3  4  2  0
  5  6  1  0
  5  3  1  0
  7  6  1  0
  8  7  1  0
  8  9  1  0
  9  5  1  0
  9 10  1  1
 10 11  2  0
 12 13  1  0
 14 13  1  6
 14 15  1  0
 15 10  1  0
 16 17  1  0
 16 14  1  0
 18 16  2  0
M  END
$$$$
