GPS.pdb
     RDKit          3D

 18 18  0  0  1  0  0  0  0  0999 V2000
    7.2864  -17.7452   17.2686 N   0  0  0  0  0  0  0  0  0  0  0  0
    6.8810  -16.7191   18.1658 C   0  0  0  0  0  0  0  0  0  0  0  0
    7.9135  -16.1269   19.0094 C   0  0  0  0  0  0  0  0  0  0  0  0
    8.8926  -16.8698   19.3346 O   0  0  0  0  0  0  0  0  0  0  0  0
    7.9341  -14.7994   19.5064 N   0  0  0  0  0  0  0  0  0  0  0  0
    6.9826  -13.7889   19.0854 C   0  0  0  0  0  0  0  0  0  0  0  0
    7.7416  -12.5030   19.4549 C   0  0  0  0  0  0  0  0  0  0  0  0
    8.2069  -12.8997   20.8306 C   0  0  0  0  0  0  0  0  0  0  0  0
    8.8684  -14.2458   20.4942 C   0  0  1  0  0  0  0  0  0  0  0  0
    8.9592  -15.0631   21.7027 C   0  0  0  0  0  0  0  0  0  0  0  0
    7.9260  -15.4749   22.2798 O   0  0  0  0  0  0  0  0  0  0  0  0
   10.7050  -18.1762   22.2076 O   0  0  0  0  0  0  0  0  0  0  0  0
    9.9158  -17.6376   23.2006 C   0  0  0  0  0  0  0  0  0  0  0  0
   10.3273  -16.2023   23.4849 C   0  0  2  0  0  0  0  0  0  0  0  0
   10.2065  -15.4204   22.2668 N   0  0  0  0  0  0  0  0  0  0  0  0
   11.7357  -16.1371   23.9955 C   0  0  0  0  0  0  0  0  0  0  0  0
   12.0978  -16.6624   25.2139 O   0  0  0  0  0  0  0  0  0  0  0  0
   12.6280  -15.5848   23.2943 O   0  0  0  0  0  0  0  0  0  0  0  0
  1  2  1  0
  3  2  1  0
  3  4  2  0
  5  6  1  0
  5  3  1  0
  7  6  1  0
  8  7  1  0
  8  9  1  0
  9  5  1  0
  9 10  1  1
 10 11  2  0
 12 13  1  0
 14 13  1  6
 14 15  1  0
 15 10  1  0
 16 17  1  0
 16 14  1  0
 18 16  2  0
M  END
$$$$
