GPS.pdb
     RDKit          3D

 18 18  0  0  1  0  0  0  0  0999 V2000
    8.1862  -16.8829   16.5078 N   0  0  0  0  0  0  0  0  0  0  0  0
    7.5173  -16.3626   17.6499 C   0  0  0  0  0  0  0  0  0  0  0  0
    8.3499  -15.8375   18.7267 C   0  0  0  0  0  0  0  0  0  0  0  0
    9.3046  -16.5728   19.1321 O   0  0  0  0  0  0  0  0  0  0  0  0
    8.1999  -14.5834   19.3703 N   0  0  0  0  0  0  0  0  0  0  0  0
    7.2773  -13.5667   18.9028 C   0  0  0  0  0  0  0  0  0  0  0  0
    7.8777  -12.3083   19.5526 C   0  0  0  0  0  0  0  0  0  0  0  0
    8.1157  -12.8562   20.9345 C   0  0  0  0  0  0  0  0  0  0  0  0
    8.9085  -14.1218   20.5703 C   0  0  1  0  0  0  0  0  0  0  0  0
    8.8343  -15.0804   21.6714 C   0  0  0  0  0  0  0  0  0  0  0  0
    7.7508  -15.6349   21.9695 O   0  0  0  0  0  0  0  0  0  0  0  0
   10.9881  -18.0377   22.2464 O   0  0  0  0  0  0  0  0  0  0  0  0
    9.8723  -17.7727   23.0103 C   0  0  0  0  0  0  0  0  0  0  0  0
    9.9253  -16.3533   23.5516 C   0  0  2  0  0  0  0  0  0  0  0  0
    9.9726  -15.4195   22.4401 N   0  0  0  0  0  0  0  0  0  0  0  0
   11.1221  -16.1578   24.4336 C   0  0  0  0  0  0  0  0  0  0  0  0
   11.2694  -16.8263   25.6264 O   0  0  0  0  0  0  0  0  0  0  0  0
   12.0313  -15.3563   24.0818 O   0  0  0  0  0  0  0  0  0  0  0  0
  1  2  1  0
  3  2  1  0
  3  4  2  0
  5  6  1  0
  5  3  1  0
  7  6  1  0
  8  7  1  0
  8  9  1  0
  9  5  1  0
  9 10  1  1
 10 11  2  0
 12 13  1  0
 14 13  1  6
 14 15  1  0
 15 10  1  0
 16 17  1  0
 16 14  1  0
 18 16  2  0
M  END
$$$$
