GPS.pdb
     RDKit          3D

 18 18  0  0  1  0  0  0  0  0999 V2000
   -2.0657  -27.8177   29.0086 N   0  0  0  0  0  0  0  0  0  0  0  0
   -3.4448  -27.7344   28.6715 C   0  0  0  0  0  0  0  0  0  0  0  0
   -3.9956  -26.4021   28.4476 C   0  0  0  0  0  0  0  0  0  0  0  0
   -3.7873  -25.5300   29.3489 O   0  0  0  0  0  0  0  0  0  0  0  0
   -4.7444  -25.9804   27.3202 N   0  0  0  0  0  0  0  0  0  0  0  0
   -4.9485  -26.8196   26.1550 C   0  0  0  0  0  0  0  0  0  0  0  0
   -5.3025  -25.7633   25.0944 C   0  0  0  0  0  0  0  0  0  0  0  0
   -6.2794  -24.9490   25.9000 C   0  0  0  0  0  0  0  0  0  0  0  0
   -5.4210  -24.6890   27.1483 C   0  0  1  0  0  0  0  0  0  0  0  0
   -6.2866  -24.3524   28.2771 C   0  0  0  0  0  0  0  0  0  0  0  0
   -6.7736  -25.2495   29.0040 O   0  0  0  0  0  0  0  0  0  0  0  0
   -8.0672  -20.9243   31.1911 O   0  0  0  0  0  0  0  0  0  0  0  0
   -7.1504  -21.3186   30.2407 C   0  0  0  0  0  0  0  0  0  0  0  0
   -7.5566  -22.6513   29.6331 C   0  0  2  0  0  0  0  0  0  0  0  0
   -6.6082  -23.0115   28.5937 N   0  0  0  0  0  0  0  0  0  0  0  0
   -8.9404  -22.5820   29.0594 C   0  0  0  0  0  0  0  0  0  0  0  0
  -10.0595  -22.8483   29.8132 O   0  0  0  0  0  0  0  0  0  0  0  0
   -9.0974  -22.2703   27.8466 O   0  0  0  0  0  0  0  0  0  0  0  0
  1  2  1  0
  3  2  1  0
  3  4  2  0
  5  6  1  0
  5  3  1  0
  7  6  1  0
  8  7  1  0
  8  9  1  0
  9  5  1  0
  9 10  1  1
 10 11  2  0
 12 13  1  0
 14 13  1  6
 14 15  1  0
 15 10  1  0
 16 17  1  0
 16 14  1  0
 18 16  2  0
M  END
$$$$
