GPS.pdb
     RDKit          3D

 18 18  0  0  1  0  0  0  0  0999 V2000
    5.8794  -17.9536   18.2509 N   0  0  0  0  0  0  0  0  0  0  0  0
    5.8852  -16.8659   19.1672 C   0  0  0  0  0  0  0  0  0  0  0  0
    7.1859  -16.3829   19.6180 C   0  0  0  0  0  0  0  0  0  0  0  0
    8.1047  -17.2484   19.7696 O   0  0  0  0  0  0  0  0  0  0  0  0
    7.5296  -15.0381   19.9064 N   0  0  0  0  0  0  0  0  0  0  0  0
    6.6375  -13.9258   19.6408 C   0  0  0  0  0  0  0  0  0  0  0  0
    7.6350  -12.7554   19.6046 C   0  0  0  0  0  0  0  0  0  0  0  0
    8.4354  -13.0994   20.8325 C   0  0  0  0  0  0  0  0  0  0  0  0
    8.7819  -14.5609   20.5058 C   0  0  1  0  0  0  0  0  0  0  0  0
    9.1228  -15.2709   21.7372 C   0  0  0  0  0  0  0  0  0  0  0  0
    8.2871  -15.3903   22.6632 O   0  0  0  0  0  0  0  0  0  0  0  0
   11.4234  -18.3680   21.7754 O   0  0  0  0  0  0  0  0  0  0  0  0
   10.7242  -18.0392   22.9165 C   0  0  0  0  0  0  0  0  0  0  0  0
   10.7743  -16.5389   23.1551 C   0  0  2  0  0  0  0  0  0  0  0  0
   10.3995  -15.8480   21.9337 N   0  0  0  0  0  0  0  0  0  0  0  0
   12.1444  -16.1076   23.5855 C   0  0  0  0  0  0  0  0  0  0  0  0
   12.6758  -16.4650   24.8026 O   0  0  0  0  0  0  0  0  0  0  0  0
   12.8435  -15.3930   22.8152 O   0  0  0  0  0  0  0  0  0  0  0  0
  1  2  1  0
  3  2  1  0
  3  4  2  0
  5  6  1  0
  5  3  1  0
  7  6  1  0
  8  7  1  0
  8  9  1  0
  9  5  1  0
  9 10  1  1
 10 11  2  0
 12 13  1  0
 14 13  1  6
 14 15  1  0
 15 10  1  0
 16 17  1  0
 16 14  1  0
 18 16  2  0
M  END
$$$$
