GPS.pdb
     RDKit          3D

 18 18  0  0  1  0  0  0  0  0999 V2000
    8.1426  -16.8522   16.4050 N   0  0  0  0  0  0  0  0  0  0  0  0
    7.5062  -16.3726   17.5829 C   0  0  0  0  0  0  0  0  0  0  0  0
    8.3674  -15.8531   18.6398 C   0  0  0  0  0  0  0  0  0  0  0  0
    9.3203  -16.5988   19.0297 O   0  0  0  0  0  0  0  0  0  0  0  0
    8.2468  -14.5939   19.2797 N   0  0  0  0  0  0  0  0  0  0  0  0
    7.3083  -13.5781   18.8428 C   0  0  0  0  0  0  0  0  0  0  0  0
    7.9379  -12.3167   19.4581 C   0  0  0  0  0  0  0  0  0  0  0  0
    8.2308  -12.8551   20.8332 C   0  0  0  0  0  0  0  0  0  0  0  0
    9.0049  -14.1255   20.4464 C   0  0  1  0  0  0  0  0  0  0  0  0
    8.9735  -15.0759   21.5566 C   0  0  0  0  0  0  0  0  0  0  0  0
    7.9150  -15.6731   21.8622 O   0  0  0  0  0  0  0  0  0  0  0  0
   11.0460  -18.0069   22.0299 O   0  0  0  0  0  0  0  0  0  0  0  0
    9.9921  -17.7169   22.8691 C   0  0  0  0  0  0  0  0  0  0  0  0
   10.1289  -16.3088   23.4249 C   0  0  2  0  0  0  0  0  0  0  0  0
   10.1265  -15.3590   22.3260 N   0  0  0  0  0  0  0  0  0  0  0  0
   11.3913  -16.1646   24.2212 C   0  0  0  0  0  0  0  0  0  0  0  0
   11.5984  -16.8500   25.3955 O   0  0  0  0  0  0  0  0  0  0  0  0
   12.3016  -15.3922   23.8119 O   0  0  0  0  0  0  0  0  0  0  0  0
  1  2  1  0
  3  2  1  0
  3  4  2  0
  5  6  1  0
  5  3  1  0
  7  6  1  0
  8  7  1  0
  8  9  1  0
  9  5  1  0
  9 10  1  1
 10 11  2  0
 12 13  1  0
 14 13  1  6
 14 15  1  0
 15 10  1  0
 16 17  1  0
 16 14  1  0
 18 16  2  0
M  END
$$$$
