GPS.pdb
     RDKit          3D

 18 18  0  0  1  0  0  0  0  0999 V2000
    6.8739  -14.3236   21.4221 N   0  0  0  0  0  0  0  0  0  0  0  0
    6.4158  -13.8371   22.6775 C   0  0  0  0  0  0  0  0  0  0  0  0
    7.3676  -13.8495   23.7831 C   0  0  0  0  0  0  0  0  0  0  0  0
    8.4191  -14.5485   23.6347 O   0  0  0  0  0  0  0  0  0  0  0  0
    7.2364  -13.1573   25.0133 N   0  0  0  0  0  0  0  0  0  0  0  0
    6.2097  -12.1598   25.2470 C   0  0  0  0  0  0  0  0  0  0  0  0
    6.8223  -11.3826   26.4246 C   0  0  0  0  0  0  0  0  0  0  0  0
    7.2638  -12.5512   27.2647 C   0  0  0  0  0  0  0  0  0  0  0  0
    8.0680  -13.3292   26.2107 C   0  0  1  0  0  0  0  0  0  0  0  0
    8.1857  -14.7281   26.6182 C   0  0  0  0  0  0  0  0  0  0  0  0
    7.1727  -15.4608   26.7026 O   0  0  0  0  0  0  0  0  0  0  0  0
   11.5111  -16.8904   25.9574 O   0  0  0  0  0  0  0  0  0  0  0  0
   10.2938  -17.4689   26.2446 C   0  0  0  0  0  0  0  0  0  0  0  0
    9.5845  -16.6938   27.3430 C   0  0  2  0  0  0  0  0  0  0  0  0
    9.4373  -15.3085   26.9317 N   0  0  0  0  0  0  0  0  0  0  0  0
   10.3481  -16.7651   28.6315 C   0  0  0  0  0  0  0  0  0  0  0  0
   10.5859  -17.9563   29.2765 O   0  0  0  0  0  0  0  0  0  0  0  0
   10.7927  -15.7049   29.1521 O   0  0  0  0  0  0  0  0  0  0  0  0
  1  2  1  0
  3  2  1  0
  3  4  2  0
  5  6  1  0
  5  3  1  0
  7  6  1  0
  8  7  1  0
  8  9  1  0
  9  5  1  0
  9 10  1  1
 10 11  2  0
 12 13  1  0
 14 13  1  6
 14 15  1  0
 15 10  1  0
 16 17  1  0
 16 14  1  0
 18 16  2  0
M  END
$$$$
