GPS.pdb
     RDKit          3D

 18 18  0  0  1  0  0  0  0  0999 V2000
    6.9987  -13.9744   21.3753 N   0  0  0  0  0  0  0  0  0  0  0  0
    6.4636  -13.8682   22.6887 C   0  0  0  0  0  0  0  0  0  0  0  0
    7.4126  -13.8817   23.7967 C   0  0  0  0  0  0  0  0  0  0  0  0
    8.4921  -14.5315   23.6272 O   0  0  0  0  0  0  0  0  0  0  0  0
    7.2504  -13.2402   25.0504 N   0  0  0  0  0  0  0  0  0  0  0  0
    6.1662  -12.3169   25.3252 C   0  0  0  0  0  0  0  0  0  0  0  0
    6.7406  -11.5424   26.5237 C   0  0  0  0  0  0  0  0  0  0  0  0
    7.2616  -12.7085   27.3206 C   0  0  0  0  0  0  0  0  0  0  0  0
    8.1025  -13.3996   26.2352 C   0  0  1  0  0  0  0  0  0  0  0  0
    8.3106  -14.8011   26.5944 C   0  0  0  0  0  0  0  0  0  0  0  0
    7.3606  -15.6180   26.5744 O   0  0  0  0  0  0  0  0  0  0  0  0
   11.8868  -16.5732   26.0964 O   0  0  0  0  0  0  0  0  0  0  0  0
   10.7166  -17.2912   26.2141 C   0  0  0  0  0  0  0  0  0  0  0  0
    9.8295  -16.6865   27.2901 C   0  0  2  0  0  0  0  0  0  0  0  0
    9.5821  -15.2900   26.9764 N   0  0  0  0  0  0  0  0  0  0  0  0
   10.4688  -16.8003   28.6417 C   0  0  0  0  0  0  0  0  0  0  0  0
   10.7605  -18.0166   29.2135 O   0  0  0  0  0  0  0  0  0  0  0  0
   10.7537  -15.7534   29.2865 O   0  0  0  0  0  0  0  0  0  0  0  0
  1  2  1  0
  3  2  1  0
  3  4  2  0
  5  6  1  0
  5  3  1  0
  7  6  1  0
  8  7  1  0
  8  9  1  0
  9  5  1  0
  9 10  1  1
 10 11  2  0
 12 13  1  0
 14 13  1  6
 14 15  1  0
 15 10  1  0
 16 17  1  0
 16 14  1  0
 18 16  2  0
M  END
$$$$
