HWR.pdb
     RDKit          3D

 36 38  0  0  1  0  0  0  0  0999 V2000
    7.8584  -16.4280   20.8328 N   0  0  0  0  0  0  0  0  0  0  0  0
    8.8690  -15.4266   21.1253 C   0  0  1  0  0  0  0  0  0  0  0  0
    8.4583  -14.1059   20.5975 C   0  0  0  0  0  0  0  0  0  0  0  0
    8.3531  -14.2204   19.1098 C   0  0  0  0  0  0  0  0  0  0  0  0
    9.2236  -14.9064   18.2880 C   0  0  0  0  0  0  0  0  0  0  0  0
    8.8106  -14.7902   17.0005 N   0  0  0  0  0  0  0  0  0  0  0  0
    7.6941  -14.0402   17.0127 C   0  0  0  0  0  0  0  0  0  0  0  0
    7.4276  -13.7032   18.2814 N   0  0  0  0  0  0  0  0  0  0  0  0
    9.2063  -15.4948   22.5355 C   0  0  0  0  0  0  0  0  0  0  0  0
   10.0546  -14.6569   22.9790 O   0  0  0  0  0  0  0  0  0  0  0  0
    8.6817  -16.4090   23.4776 N   0  0  0  0  0  0  0  0  0  0  0  0
    9.1501  -16.4975   24.8238 C   0  0  1  0  0  0  0  0  0  0  0  0
    8.0285  -16.4441   25.8396 C   0  0  0  0  0  0  0  0  0  0  0  0
    7.1064  -15.3046   25.5814 C   0  0  0  0  0  0  0  0  0  0  0  0
    5.8984  -15.2480   24.9597 C   0  0  0  0  0  0  0  0  0  0  0  0
    5.4638  -13.9820   24.9803 N   0  0  0  0  0  0  0  0  0  0  0  0
    6.3561  -13.1760   25.6055 C   0  0  0  0  0  0  0  0  0  0  0  0
    6.3828  -11.8312   25.8834 C   0  0  0  0  0  0  0  0  0  0  0  0
    7.4309  -11.2608   26.5445 C   0  0  0  0  0  0  0  0  0  0  0  0
    8.4770  -12.0682   26.9344 C   0  0  0  0  0  0  0  0  0  0  0  0
    8.4478  -13.4075   26.6562 C   0  0  0  0  0  0  0  0  0  0  0  0
    7.3871  -14.0019   25.9837 C   0  0  0  0  0  0  0  0  0  0  0  0
    9.9223  -17.7441   25.0816 C   0  0  0  0  0  0  0  0  0  0  0  0
    9.4746  -18.8496   24.6868 O   0  0  0  0  0  0  0  0  0  0  0  0
   17.0095  -15.5735   24.0631 N   0  0  0  0  0  0  0  0  0  0  0  0
   15.9564  -15.7567   23.1137 C   0  0  0  0  0  0  0  0  0  0  0  0
   15.9939  -15.0857   22.0195 N   0  0  0  0  0  0  0  0  0  0  0  0
   14.8875  -16.6469   23.3455 N   0  0  0  0  0  0  0  0  0  0  0  0
   14.6800  -17.2589   24.6304 C   0  0  0  0  0  0  0  0  0  0  0  0
   13.5854  -18.3041   24.5833 C   0  0  0  0  0  0  0  0  0  0  0  0
   13.3276  -18.9035   25.9503 C   0  0  0  0  0  0  0  0  0  0  0  0
   11.8307  -18.9591   26.2031 C   0  0  2  0  0  0  0  0  0  0  0  0
   11.1685  -17.7571   25.7659 N   0  0  0  0  0  0  0  0  0  0  0  0
   11.5247  -19.1686   27.6298 C   0  0  0  0  0  0  0  0  0  0  0  0
   10.9464  -18.2716   28.2802 O   0  0  0  0  0  0  0  0  0  0  0  0
   11.8627  -20.3397   28.2734 O   0  0  0  0  0  0  0  0  0  0  0  0
  2  3  1  0
  2  1  1  1
  4  8  1  0
  4  3  1  0
  5  4  2  0
  6  5  1  0
  6  7  1  0
  7  8  2  0
  9  2  1  0
 10  9  2  0
 11  9  1  0
 12 11  1  0
 12 13  1  1
 13 14  1  0
 14 15  2  0
 15 16  1  0
 17 18  2  0
 17 16  1  0
 19 18  1  0
 20 19  2  0
 21 20  1  0
 21 22  2  0
 22 14  1  0
 22 17  1  0
 23 24  2  0
 23 12  1  0
 25 26  1  0
 26 28  1  0
 26 27  2  0
 28 29  1  0
 30 29  1  0
 30 31  1  0
 32 31  1  1
 32 33  1  0
 33 23  1  0
 34 32  1  0
 35 34  2  0
 36 34  1  0
M  END
$$$$
