HWR.pdb
     RDKit          3D

 36 38  0  0  1  0  0  0  0  0999 V2000
    7.4844  -16.1273   20.8285 N   0  0  0  0  0  0  0  0  0  0  0  0
    8.6354  -15.2441   20.8981 C   0  0  1  0  0  0  0  0  0  0  0  0
    8.2952  -13.9059   20.3646 C   0  0  0  0  0  0  0  0  0  0  0  0
    8.0116  -14.0543   18.9034 C   0  0  0  0  0  0  0  0  0  0  0  0
    8.0893  -15.2265   18.1797 C   0  0  0  0  0  0  0  0  0  0  0  0
    7.7623  -14.9776   16.8863 N   0  0  0  0  0  0  0  0  0  0  0  0
    7.4826  -13.6649   16.7980 C   0  0  0  0  0  0  0  0  0  0  0  0
    7.6348  -13.1197   18.0120 N   0  0  0  0  0  0  0  0  0  0  0  0
    9.1892  -15.2958   22.2389 C   0  0  0  0  0  0  0  0  0  0  0  0
   10.1416  -14.4984   22.5135 O   0  0  0  0  0  0  0  0  0  0  0  0
    8.7728  -16.1529   23.2832 N   0  0  0  0  0  0  0  0  0  0  0  0
    9.4612  -16.2551   24.5303 C   0  0  1  0  0  0  0  0  0  0  0  0
    8.5225  -16.2735   25.7183 C   0  0  0  0  0  0  0  0  0  0  0  0
    7.4043  -15.3057   25.5507 C   0  0  0  0  0  0  0  0  0  0  0  0
    6.1395  -15.4656   25.0775 C   0  0  0  0  0  0  0  0  0  0  0  0
    5.5106  -14.2848   25.1257 N   0  0  0  0  0  0  0  0  0  0  0  0
    6.3264  -13.3240   25.6237 C   0  0  0  0  0  0  0  0  0  0  0  0
    6.1663  -11.9824   25.8704 C   0  0  0  0  0  0  0  0  0  0  0  0
    7.1771  -11.2278   26.3900 C   0  0  0  0  0  0  0  0  0  0  0  0
    8.3783  -11.8433   26.6669 C   0  0  0  0  0  0  0  0  0  0  0  0
    8.5349  -13.1799   26.4201 C   0  0  0  0  0  0  0  0  0  0  0  0
    7.5144  -13.9605   25.8913 C   0  0  0  0  0  0  0  0  0  0  0  0
   10.3108  -17.4747   24.6181 C   0  0  0  0  0  0  0  0  0  0  0  0
    9.8103  -18.6033   24.3853 O   0  0  0  0  0  0  0  0  0  0  0  0
   12.8445  -16.5512   19.6066 N   0  0  0  0  0  0  0  0  0  0  0  0
   13.7133  -15.6395   20.2833 C   0  0  0  0  0  0  0  0  0  0  0  0
   13.9913  -14.5218   19.7155 N   0  0  0  0  0  0  0  0  0  0  0  0
   14.2675  -15.9330   21.5464 N   0  0  0  0  0  0  0  0  0  0  0  0
   14.1995  -17.2536   22.1121 C   0  0  0  0  0  0  0  0  0  0  0  0
   13.8746  -17.2140   23.5905 C   0  0  0  0  0  0  0  0  0  0  0  0
   13.6906  -18.6062   24.1583 C   0  0  0  0  0  0  0  0  0  0  0  0
   12.5111  -18.6091   25.1158 C   0  0  2  0  0  0  0  0  0  0  0  0
   11.6906  -17.4359   24.9587 N   0  0  0  0  0  0  0  0  0  0  0  0
   12.9482  -18.6889   26.5213 C   0  0  0  0  0  0  0  0  0  0  0  0
   12.7005  -17.7467   27.3042 O   0  0  0  0  0  0  0  0  0  0  0  0
   13.6301  -19.7865   27.0012 O   0  0  0  0  0  0  0  0  0  0  0  0
  2  3  1  0
  2  1  1  1
  4  8  1  0
  4  3  1  0
  5  4  2  0
  6  5  1  0
  6  7  1  0
  7  8  2  0
  9  2  1  0
 10  9  2  0
 11  9  1  0
 12 11  1  0
 12 13  1  1
 13 14  1  0
 14 15  2  0
 15 16  1  0
 17 18  2  0
 17 16  1  0
 19 18  1  0
 20 19  2  0
 21 20  1  0
 21 22  2  0
 22 14  1  0
 22 17  1  0
 23 24  2  0
 23 12  1  0
 25 26  1  0
 26 28  1  0
 26 27  2  0
 28 29  1  0
 30 29  1  0
 30 31  1  0
 32 31  1  6
 32 33  1  0
 33 23  1  0
 34 32  1  0
 35 34  2  0
 36 34  1  0
M  END
$$$$
