HWR.pdb
     RDKit          3D

 36 38  0  0  1  0  0  0  0  0999 V2000
   10.3167  -16.8827   20.2793 N   0  0  0  0  0  0  0  0  0  0  0  0
    9.3221  -17.5470   21.1033 C   0  0  1  0  0  0  0  0  0  0  0  0
    9.2840  -18.9960   20.8032 C   0  0  0  0  0  0  0  0  0  0  0  0
    8.4608  -19.1861   19.5687 C   0  0  0  0  0  0  0  0  0  0  0  0
    7.3470  -18.4510   19.2186 C   0  0  0  0  0  0  0  0  0  0  0  0
    6.8631  -18.9060   18.0351 N   0  0  0  0  0  0  0  0  0  0  0  0
    7.6631  -19.9149   17.6460 C   0  0  0  0  0  0  0  0  0  0  0  0
    8.6179  -20.0756   18.5716 N   0  0  0  0  0  0  0  0  0  0  0  0
    9.5286  -17.1682   22.4893 C   0  0  0  0  0  0  0  0  0  0  0  0
   10.7264  -16.9892   22.8785 O   0  0  0  0  0  0  0  0  0  0  0  0
    8.5215  -16.9760   23.4627 N   0  0  0  0  0  0  0  0  0  0  0  0
    8.8044  -16.6685   24.8283 C   0  0  1  0  0  0  0  0  0  0  0  0
    7.5865  -16.1799   25.5838 C   0  0  0  0  0  0  0  0  0  0  0  0
    6.9929  -14.9721   24.9480 C   0  0  0  0  0  0  0  0  0  0  0  0
    6.3397  -14.8063   23.7670 C   0  0  0  0  0  0  0  0  0  0  0  0
    5.9976  -13.5180   23.6427 N   0  0  0  0  0  0  0  0  0  0  0  0
    6.4073  -12.8044   24.7195 C   0  0  0  0  0  0  0  0  0  0  0  0
    6.3059  -11.4804   25.0707 C   0  0  0  0  0  0  0  0  0  0  0  0
    6.8191  -11.0133   26.2451 C   0  0  0  0  0  0  0  0  0  0  0  0
    7.4499  -11.9050   27.0850 C   0  0  0  0  0  0  0  0  0  0  0  0
    7.5495  -13.2233   26.7326 C   0  0  0  0  0  0  0  0  0  0  0  0
    7.0316  -13.7128   25.5399 C   0  0  0  0  0  0  0  0  0  0  0  0
    9.3523  -17.8331   25.5769 C   0  0  0  0  0  0  0  0  0  0  0  0
    8.6811  -18.8915   25.6647 O   0  0  0  0  0  0  0  0  0  0  0  0
   16.3564  -19.3191   26.4296 N   0  0  0  0  0  0  0  0  0  0  0  0
   16.0528  -18.7342   25.1609 C   0  0  0  0  0  0  0  0  0  0  0  0
   16.8673  -17.8689   24.6743 N   0  0  0  0  0  0  0  0  0  0  0  0
   14.8931  -19.0797   24.4367 N   0  0  0  0  0  0  0  0  0  0  0  0
   14.0327  -20.1530   24.8568 C   0  0  0  0  0  0  0  0  0  0  0  0
   12.6493  -19.6541   25.2174 C   0  0  0  0  0  0  0  0  0  0  0  0
   12.5686  -19.2371   26.6714 C   0  0  0  0  0  0  0  0  0  0  0  0
   11.1294  -18.8982   27.0203 C   0  0  2  0  0  0  0  0  0  0  0  0
   10.6231  -17.8172   26.2143 N   0  0  0  0  0  0  0  0  0  0  0  0
   10.9832  -18.5304   28.4403 C   0  0  0  0  0  0  0  0  0  0  0  0
   11.0372  -19.4157   29.3209 O   0  0  0  0  0  0  0  0  0  0  0  0
   10.7864  -17.2223   28.8278 O   0  0  0  0  0  0  0  0  0  0  0  0
  2  3  1  0
  2  1  1  6
  4  8  1  0
  4  3  1  0
  5  4  2  0
  6  5  1  0
  6  7  1  0
  7  8  2  0
  9  2  1  0
 10  9  2  0
 11  9  1  0
 12 11  1  0
 12 13  1  1
 13 14  1  0
 14 15  2  0
 15 16  1  0
 17 18  2  0
 17 16  1  0
 19 18  1  0
 20 19  2  0
 21 20  1  0
 21 22  2  0
 22 14  1  0
 22 17  1  0
 23 24  2  0
 23 12  1  0
 25 26  1  0
 26 28  1  0
 26 27  2  0
 28 29  1  0
 30 29  1  0
 30 31  1  0
 32 31  1  6
 32 33  1  0
 33 23  1  0
 34 32  1  0
 35 34  2  0
 36 34  1  0
M  END
$$$$
