HWR.pdb
     RDKit          3D

 36 38  0  0  1  0  0  0  0  0999 V2000
    9.1807  -12.8509   18.3329 N   0  0  0  0  0  0  0  0  0  0  0  0
    8.7542  -14.1745   18.7522 C   0  0  1  0  0  0  0  0  0  0  0  0
    9.4471  -15.2171   17.9621 C   0  0  0  0  0  0  0  0  0  0  0  0
    8.6699  -15.4280   16.7016 C   0  0  0  0  0  0  0  0  0  0  0  0
    7.7703  -14.5403   16.1483 C   0  0  0  0  0  0  0  0  0  0  0  0
    7.2609  -15.0703   15.0075 N   0  0  0  0  0  0  0  0  0  0  0  0
    7.8334  -16.2767   14.8457 C   0  0  0  0  0  0  0  0  0  0  0  0
    8.6765  -16.4825   15.8659 N   0  0  0  0  0  0  0  0  0  0  0  0
    8.8575  -14.2677   20.1971 C   0  0  0  0  0  0  0  0  0  0  0  0
    9.9792  -13.9851   20.7264 O   0  0  0  0  0  0  0  0  0  0  0  0
    7.8257  -14.6454   21.0867 N   0  0  0  0  0  0  0  0  0  0  0  0
    8.0085  -14.7373   22.5000 C   0  0  1  0  0  0  0  0  0  0  0  0
    6.6992  -14.7616   23.2602 C   0  0  0  0  0  0  0  0  0  0  0  0
    6.9180  -14.7573   24.7324 C   0  0  0  0  0  0  0  0  0  0  0  0
    6.8100  -15.7451   25.6608 C   0  0  0  0  0  0  0  0  0  0  0  0
    7.1118  -15.2393   26.8629 N   0  0  0  0  0  0  0  0  0  0  0  0
    7.4233  -13.9238   26.7681 C   0  0  0  0  0  0  0  0  0  0  0  0
    7.7941  -12.9714   27.6857 C   0  0  0  0  0  0  0  0  0  0  0  0
    8.0575  -11.6861   27.3120 C   0  0  0  0  0  0  0  0  0  0  0  0
    7.9437  -11.3550   25.9794 C   0  0  0  0  0  0  0  0  0  0  0  0
    7.5742  -12.3057   25.0676 C   0  0  0  0  0  0  0  0  0  0  0  0
    7.3029  -13.6182   25.4339 C   0  0  0  0  0  0  0  0  0  0  0  0
    8.7764  -15.9482   22.9015 C   0  0  0  0  0  0  0  0  0  0  0  0
    8.5650  -17.0428   22.3223 O   0  0  0  0  0  0  0  0  0  0  0  0
   15.6180  -15.9879   19.3495 N   0  0  0  0  0  0  0  0  0  0  0  0
   15.8361  -15.2433   20.5504 C   0  0  0  0  0  0  0  0  0  0  0  0
   16.6862  -14.2812   20.5292 N   0  0  0  0  0  0  0  0  0  0  0  0
   15.1483  -15.5354   21.7464 N   0  0  0  0  0  0  0  0  0  0  0  0
   14.0155  -16.4214   21.7686 C   0  0  0  0  0  0  0  0  0  0  0  0
   13.4012  -16.5113   23.1496 C   0  0  0  0  0  0  0  0  0  0  0  0
   12.1024  -15.7364   23.2336 C   0  0  0  0  0  0  0  0  0  0  0  0
   11.0240  -16.6218   23.8344 C   0  0  2  0  0  0  0  0  0  0  0  0
    9.7600  -15.9379   23.9281 N   0  0  0  0  0  0  0  0  0  0  0  0
   11.3963  -17.1018   25.1775 C   0  0  0  0  0  0  0  0  0  0  0  0
   11.1392  -16.4028   26.1812 O   0  0  0  0  0  0  0  0  0  0  0  0
   12.0271  -18.3139   25.3588 O   0  0  0  0  0  0  0  0  0  0  0  0
  2  3  1  0
  2  1  1  6
  4  8  1  0
  4  3  1  0
  5  4  2  0
  6  5  1  0
  6  7  1  0
  7  8  2  0
  9  2  1  0
 10  9  2  0
 11  9  1  0
 12 11  1  0
 12 13  1  1
 13 14  1  0
 14 15  2  0
 15 16  1  0
 17 18  2  0
 17 16  1  0
 19 18  1  0
 20 19  2  0
 21 20  1  0
 21 22  2  0
 22 14  1  0
 22 17  1  0
 23 24  2  0
 23 12  1  0
 25 26  1  0
 26 28  1  0
 26 27  2  0
 28 29  1  0
 30 29  1  0
 30 31  1  0
 32 31  1  1
 32 33  1  0
 33 23  1  0
 34 32  1  0
 35 34  2  0
 36 34  1  0
M  END
$$$$
