HWR.pdb
     RDKit          3D

 36 38  0  0  1  0  0  0  0  0999 V2000
   10.0161  -14.2861   20.4158 N   0  0  0  0  0  0  0  0  0  0  0  0
    8.9215  -15.0003   21.0492 C   0  0  1  0  0  0  0  0  0  0  0  0
    8.4291  -16.0824   20.1672 C   0  0  0  0  0  0  0  0  0  0  0  0
    8.1424  -15.4848   18.8262 C   0  0  0  0  0  0  0  0  0  0  0  0
    7.5412  -14.2643   18.5967 C   0  0  0  0  0  0  0  0  0  0  0  0
    7.4468  -14.0552   17.2591 N   0  0  0  0  0  0  0  0  0  0  0  0
    7.9821  -15.1312   16.6551 C   0  0  0  0  0  0  0  0  0  0  0  0
    8.3963  -15.9827   17.6024 N   0  0  0  0  0  0  0  0  0  0  0  0
    9.3196  -15.3779   22.3931 C   0  0  0  0  0  0  0  0  0  0  0  0
   10.5358  -15.1969   22.7194 O   0  0  0  0  0  0  0  0  0  0  0  0
    8.4830  -15.9334   23.3881 N   0  0  0  0  0  0  0  0  0  0  0  0
    8.9250  -16.2002   24.7196 C   0  0  1  0  0  0  0  0  0  0  0  0
    7.8170  -16.0669   25.7430 C   0  0  0  0  0  0  0  0  0  0  0  0
    6.9884  -14.8542   25.5017 C   0  0  0  0  0  0  0  0  0  0  0  0
    6.0223  -14.5934   24.5810 C   0  0  0  0  0  0  0  0  0  0  0  0
    5.5716  -13.3475   24.7726 N   0  0  0  0  0  0  0  0  0  0  0  0
    6.2152  -12.7560   25.8083 C   0  0  0  0  0  0  0  0  0  0  0  0
    6.1251  -11.5168   26.3938 C   0  0  0  0  0  0  0  0  0  0  0  0
    6.9120  -11.1702   27.4529 C   0  0  0  0  0  0  0  0  0  0  0  0
    7.8113  -12.0975   27.9320 C   0  0  0  0  0  0  0  0  0  0  0  0
    7.8989  -13.3311   27.3468 C   0  0  0  0  0  0  0  0  0  0  0  0
    7.1041  -13.6977   26.2678 C   0  0  0  0  0  0  0  0  0  0  0  0
    9.5045  -17.5635   24.8692 C   0  0  0  0  0  0  0  0  0  0  0  0
    8.9395  -18.5458   24.3268 O   0  0  0  0  0  0  0  0  0  0  0  0
   14.3155  -18.4701   20.5762 N   0  0  0  0  0  0  0  0  0  0  0  0
   15.0990  -19.3872   21.3436 C   0  0  0  0  0  0  0  0  0  0  0  0
   16.3623  -19.4488   21.1219 N   0  0  0  0  0  0  0  0  0  0  0  0
   14.5259  -20.2179   22.3286 N   0  0  0  0  0  0  0  0  0  0  0  0
   14.3529  -19.7719   23.6849 C   0  0  0  0  0  0  0  0  0  0  0  0
   12.8894  -19.6806   24.0626 C   0  0  0  0  0  0  0  0  0  0  0  0
   12.7105  -19.2090   25.4909 C   0  0  0  0  0  0  0  0  0  0  0  0
   11.2288  -19.1446   25.8196 C   0  0  2  0  0  0  0  0  0  0  0  0
   10.6901  -17.8255   25.6089 N   0  0  0  0  0  0  0  0  0  0  0  0
   10.9603  -19.5417   27.2136 C   0  0  0  0  0  0  0  0  0  0  0  0
   10.9884  -20.7498   27.5326 O   0  0  0  0  0  0  0  0  0  0  0  0
   10.6760  -18.6067   28.1857 O   0  0  0  0  0  0  0  0  0  0  0  0
  2  3  1  0
  2  1  1  6
  4  8  1  0
  4  3  1  0
  5  4  2  0
  6  5  1  0
  6  7  1  0
  7  8  2  0
  9  2  1  0
 10  9  2  0
 11  9  1  0
 12 11  1  0
 12 13  1  1
 13 14  1  0
 14 15  2  0
 15 16  1  0
 17 18  2  0
 17 16  1  0
 19 18  1  0
 20 19  2  0
 21 20  1  0
 21 22  2  0
 22 14  1  0
 22 17  1  0
 23 24  2  0
 23 12  1  0
 25 26  1  0
 26 28  1  0
 26 27  2  0
 28 29  1  0
 30 29  1  0
 30 31  1  0
 32 31  1  1
 32 33  1  0
 33 23  1  0
 34 32  1  0
 35 34  2  0
 36 34  1  0
M  END
$$$$
