AMH.pdb
     RDKit          3D

 24 24  0  0  1  0  0  0  0  0999 V2000
   28.4617  -21.7083  -15.0724 C   0  0  0  0  0  0  0  0  0  0  0  0
   27.3353  -20.7148  -15.0437 C   0  0  2  0  0  0  0  0  0  0  0  0
   27.8723  -19.4463  -14.5977 N   0  0  0  0  0  0  0  0  0  0  0  0
   26.2532  -21.1923  -14.1151 C   0  0  0  0  0  0  0  0  0  0  0  0
   25.7650  -22.3223  -14.3490 O   0  0  0  0  0  0  0  0  0  0  0  0
   28.6723  -20.7726   -8.7739 C   0  0  0  0  0  0  0  0  0  0  0  0
   26.9085  -21.1790   -8.6998 S   0  0  0  0  0  0  0  0  0  0  0  0
   26.2275  -21.4993  -10.3426 C   0  0  0  0  0  0  0  0  0  0  0  0
   25.1822  -20.4559  -10.7242 C   0  0  0  0  0  0  0  0  0  0  0  0
   24.7662  -20.7833  -12.1438 C   0  0  2  0  0  0  0  0  0  0  0  0
   25.8149  -20.4035  -13.0377 N   0  0  0  0  0  0  0  0  0  0  0  0
   23.4983  -20.1836  -12.5545 C   0  0  0  0  0  0  0  0  0  0  0  0
   23.4553  -18.9784  -12.8766 O   0  0  0  0  0  0  0  0  0  0  0  0
   22.2574  -20.9333  -12.6096 N   0  0  0  0  0  0  0  0  0  0  0  0
   21.2445  -20.6081  -13.5756 C   0  0  1  0  0  0  0  0  0  0  0  0
   21.7712  -20.8340  -14.9631 C   0  0  0  0  0  0  0  0  0  0  0  0
   20.7628  -20.3718  -15.9474 C   0  0  0  0  0  0  0  0  0  0  0  0
   19.5113  -19.8202  -15.6698 C   0  0  0  0  0  0  0  0  0  0  0  0
   18.9162  -19.5401  -16.8397 N   0  0  0  0  0  0  0  0  0  0  0  0
   19.7512  -19.8973  -17.8276 C   0  0  0  0  0  0  0  0  0  0  0  0
   20.8772  -20.4044  -17.2843 N   0  0  0  0  0  0  0  0  0  0  0  0
   20.0366  -21.4930  -13.4114 C   0  0  0  0  0  0  0  0  0  0  0  0
   18.7794  -20.9372  -13.2527 O   0  0  0  0  0  0  0  0  0  0  0  0
   20.1213  -22.7441  -13.4119 O   0  0  0  0  0  0  0  0  0  0  0  0
  2  1  1  1
  3  2  1  0
  4  2  1  0
  5  4  2  0
  6  7  1  0
  8  7  1  0
  9  8  1  0
 10 11  1  0
 10  9  1  1
 11  4  1  0
 12 10  1  0
 13 12  2  0
 14 12  1  0
 15 16  1  6
 15 14  1  0
 16 17  1  0
 17 21  1  0
 18 17  2  0
 18 19  1  0
 19 20  1  0
 21 20  2  0
 22 23  1  0
 22 15  1  0
 24 22  2  0
M  END
$$$$
