AMH.pdb
     RDKit          3D

 24 24  0  0  1  0  0  0  0  0999 V2000
   25.9111   -9.1721  -23.3525 C   0  0  0  0  0  0  0  0  0  0  0  0
   25.7654   -8.3268  -22.1193 C   0  0  2  0  0  0  0  0  0  0  0  0
   27.0838   -7.8652  -21.7382 N   0  0  0  0  0  0  0  0  0  0  0  0
   25.1425   -9.1342  -21.0141 C   0  0  0  0  0  0  0  0  0  0  0  0
   24.1879   -9.8822  -21.3289 O   0  0  0  0  0  0  0  0  0  0  0  0
   26.0974  -12.8777  -14.2539 C   0  0  0  0  0  0  0  0  0  0  0  0
   26.8201  -11.7425  -15.4665 S   0  0  0  0  0  0  0  0  0  0  0  0
   25.5938  -11.1803  -16.6687 C   0  0  0  0  0  0  0  0  0  0  0  0
   26.2207  -10.2649  -17.7157 C   0  0  0  0  0  0  0  0  0  0  0  0
   25.0819   -9.8078  -18.6043 C   0  0  2  0  0  0  0  0  0  0  0  0
   25.6138   -9.0493  -19.6929 N   0  0  0  0  0  0  0  0  0  0  0  0
   24.0415   -9.0514  -17.9107 C   0  0  0  0  0  0  0  0  0  0  0  0
   24.2319   -7.8521  -17.6217 O   0  0  0  0  0  0  0  0  0  0  0  0
   22.7682   -9.6347  -17.5318 N   0  0  0  0  0  0  0  0  0  0  0  0
   21.7614   -8.8424  -16.8810 C   0  0  1  0  0  0  0  0  0  0  0  0
   20.5716   -9.6974  -16.5541 C   0  0  0  0  0  0  0  0  0  0  0  0
   19.5053   -8.8456  -15.9737 C   0  0  0  0  0  0  0  0  0  0  0  0
   19.5421   -7.4621  -15.7935 C   0  0  0  0  0  0  0  0  0  0  0  0
   18.3791   -7.0882  -15.2379 N   0  0  0  0  0  0  0  0  0  0  0  0
   17.6266   -8.1864  -15.0684 C   0  0  0  0  0  0  0  0  0  0  0  0
   18.3126   -9.2581  -15.5167 N   0  0  0  0  0  0  0  0  0  0  0  0
   22.2728   -8.2799  -15.5807 C   0  0  0  0  0  0  0  0  0  0  0  0
   21.9551   -6.9864  -15.2057 O   0  0  0  0  0  0  0  0  0  0  0  0
   22.9928   -8.9488  -14.8019 O   0  0  0  0  0  0  0  0  0  0  0  0
  2  1  1  6
  3  2  1  0
  4  2  1  0
  5  4  2  0
  6  7  1  0
  8  7  1  0
  9  8  1  0
 10 11  1  0
 10  9  1  1
 11  4  1  0
 12 10  1  0
 13 12  2  0
 14 12  1  0
 15 16  1  1
 15 14  1  0
 16 17  1  0
 17 21  1  0
 18 17  2  0
 18 19  1  0
 19 20  1  0
 21 20  2  0
 22 23  1  0
 22 15  1  0
 24 22  2  0
M  END
$$$$
