AMH.pdb
     RDKit          3D

 24 24  0  0  1  0  0  0  0  0999 V2000
   20.0994  -13.5517  -19.2343 C   0  0  0  0  0  0  0  0  0  0  0  0
   21.4590  -14.0441  -18.8274 C   0  0  2  0  0  0  0  0  0  0  0  0
   21.3297  -15.4310  -18.4319 N   0  0  0  0  0  0  0  0  0  0  0  0
   21.9875  -13.2124  -17.6916 C   0  0  0  0  0  0  0  0  0  0  0  0
   21.2926  -13.1708  -16.6498 O   0  0  0  0  0  0  0  0  0  0  0  0
   28.1204  -13.2815  -15.6975 C   0  0  0  0  0  0  0  0  0  0  0  0
   27.5998  -11.6002  -15.2690 S   0  0  0  0  0  0  0  0  0  0  0  0
   25.8118  -11.3936  -15.4290 C   0  0  0  0  0  0  0  0  0  0  0  0
   25.2809  -12.0917  -16.6771 C   0  0  0  0  0  0  0  0  0  0  0  0
   23.7999  -11.7776  -16.7317 C   0  0  2  0  0  0  0  0  0  0  0  0
   23.2040  -12.5172  -17.8000 N   0  0  0  0  0  0  0  0  0  0  0  0
   23.4890  -10.3550  -16.8554 C   0  0  0  0  0  0  0  0  0  0  0  0
   23.6070   -9.7859  -17.9601 O   0  0  0  0  0  0  0  0  0  0  0  0
   23.0390   -9.5501  -15.7353 N   0  0  0  0  0  0  0  0  0  0  0  0
   22.7575   -8.1508  -15.9019 C   0  0  1  0  0  0  0  0  0  0  0  0
   22.0663   -7.6202  -14.6794 C   0  0  0  0  0  0  0  0  0  0  0  0
   21.6797   -6.2079  -14.9137 C   0  0  0  0  0  0  0  0  0  0  0  0
   22.4118   -5.0700  -14.5715 C   0  0  0  0  0  0  0  0  0  0  0  0
   21.7068   -3.9953  -14.9574 N   0  0  0  0  0  0  0  0  0  0  0  0
   20.5689   -4.4254  -15.5241 C   0  0  0  0  0  0  0  0  0  0  0  0
   20.5517   -5.7741  -15.4977 N   0  0  0  0  0  0  0  0  0  0  0  0
   24.0282   -7.3598  -16.0700 C   0  0  0  0  0  0  0  0  0  0  0  0
   24.0779   -6.2965  -16.9541 O   0  0  0  0  0  0  0  0  0  0  0  0
   25.0712   -7.6288  -15.4279 O   0  0  0  0  0  0  0  0  0  0  0  0
  2  1  1  1
  3  2  1  0
  4  2  1  0
  5  4  2  0
  6  7  1  0
  8  7  1  0
  9  8  1  0
 10 11  1  0
 10  9  1  6
 11  4  1  0
 12 10  1  0
 13 12  2  0
 14 12  1  0
 15 16  1  1
 15 14  1  0
 16 17  1  0
 17 21  1  0
 18 17  2  0
 18 19  1  0
 19 20  1  0
 21 20  2  0
 22 23  1  0
 22 15  1  0
 24 22  2  0
M  END
$$$$
