AMH.pdb
     RDKit          3D

 24 24  0  0  1  0  0  0  0  0999 V2000
   22.0168  -13.5183  -18.1278 C   0  0  0  0  0  0  0  0  0  0  0  0
   20.8704  -13.7622  -17.1882 C   0  0  2  0  0  0  0  0  0  0  0  0
   20.1020  -14.8759  -17.7038 N   0  0  0  0  0  0  0  0  0  0  0  0
   20.0182  -12.5273  -17.0868 C   0  0  0  0  0  0  0  0  0  0  0  0
   20.1785  -11.6551  -17.9719 O   0  0  0  0  0  0  0  0  0  0  0  0
   13.7357  -14.1848  -16.8915 C   0  0  0  0  0  0  0  0  0  0  0  0
   14.6270  -13.2071  -15.6541 S   0  0  0  0  0  0  0  0  0  0  0  0
   16.2018  -12.5948  -16.2948 C   0  0  0  0  0  0  0  0  0  0  0  0
   16.9126  -11.7131  -15.2728 C   0  0  0  0  0  0  0  0  0  0  0  0
   18.1943  -11.2551  -15.9381 C   0  0  2  0  0  0  0  0  0  0  0  0
   19.0878  -12.3657  -16.0461 N   0  0  0  0  0  0  0  0  0  0  0  0
   18.8502  -10.1304  -15.2743 C   0  0  0  0  0  0  0  0  0  0  0  0
   19.9121  -10.3129  -14.6440 O   0  0  0  0  0  0  0  0  0  0  0  0
   18.3199   -8.7804  -15.3107 N   0  0  0  0  0  0  0  0  0  0  0  0
   19.0681   -7.6819  -14.7644 C   0  0  1  0  0  0  0  0  0  0  0  0
   20.3440   -7.5004  -15.5343 C   0  0  0  0  0  0  0  0  0  0  0  0
   21.0782   -6.3324  -14.9904 C   0  0  0  0  0  0  0  0  0  0  0  0
   21.6113   -6.2000  -13.7074 C   0  0  0  0  0  0  0  0  0  0  0  0
   22.1920   -4.9929  -13.6254 N   0  0  0  0  0  0  0  0  0  0  0  0
   22.0381   -4.3757  -14.8070 C   0  0  0  0  0  0  0  0  0  0  0  0
   21.3592   -5.1917  -15.6397 N   0  0  0  0  0  0  0  0  0  0  0  0
   18.2964   -6.3932  -14.8767 C   0  0  0  0  0  0  0  0  0  0  0  0
   18.4484   -5.4021  -13.9231 O   0  0  0  0  0  0  0  0  0  0  0  0
   17.5011   -6.1721  -15.8206 O   0  0  0  0  0  0  0  0  0  0  0  0
  2  1  1  6
  3  2  1  0
  4  2  1  0
  5  4  2  0
  6  7  1  0
  8  7  1  0
  9  8  1  0
 10 11  1  0
 10  9  1  1
 11  4  1  0
 12 10  1  0
 13 12  2  0
 14 12  1  0
 15 16  1  6
 15 14  1  0
 16 17  1  0
 17 21  1  0
 18 17  2  0
 18 19  1  0
 19 20  1  0
 21 20  2  0
 22 23  1  0
 22 15  1  0
 24 22  2  0
M  END
$$$$
