AMH.pdb
     RDKit          3D

 24 24  0  0  1  0  0  0  0  0999 V2000
   22.8102  -11.1701  -20.8952 C   0  0  0  0  0  0  0  0  0  0  0  0
   24.1120  -11.2743  -20.1530 C   0  0  2  0  0  0  0  0  0  0  0  0
   24.5366  -12.6581  -20.1920 N   0  0  0  0  0  0  0  0  0  0  0  0
   23.9324  -10.8110  -18.7337 C   0  0  0  0  0  0  0  0  0  0  0  0
   22.8699  -11.1451  -18.1598 O   0  0  0  0  0  0  0  0  0  0  0  0
   28.1943  -13.2720  -14.7192 C   0  0  0  0  0  0  0  0  0  0  0  0
   27.9507  -11.5050  -15.0355 S   0  0  0  0  0  0  0  0  0  0  0  0
   26.3745  -11.1852  -15.8594 C   0  0  0  0  0  0  0  0  0  0  0  0
   26.1444   -9.6903  -16.0581 C   0  0  0  0  0  0  0  0  0  0  0  0
   24.7998   -9.5638  -16.7446 C   0  0  2  0  0  0  0  0  0  0  0  0
   24.9138  -10.0402  -18.0875 N   0  0  0  0  0  0  0  0  0  0  0  0
   24.2360   -8.2157  -16.7235 C   0  0  0  0  0  0  0  0  0  0  0  0
   24.7386   -7.3197  -17.4327 O   0  0  0  0  0  0  0  0  0  0  0  0
   23.0953   -7.8552  -15.9027 N   0  0  0  0  0  0  0  0  0  0  0  0
   22.4707   -6.5680  -16.0368 C   0  0  1  0  0  0  0  0  0  0  0  0
   22.1318   -6.3127  -17.4768 C   0  0  0  0  0  0  0  0  0  0  0  0
   21.5887   -4.9394  -17.6126 C   0  0  0  0  0  0  0  0  0  0  0  0
   22.1017   -3.7744  -17.0406 C   0  0  0  0  0  0  0  0  0  0  0  0
   21.3141   -2.7527  -17.4108 N   0  0  0  0  0  0  0  0  0  0  0  0
   20.3358   -3.2417  -18.1884 C   0  0  0  0  0  0  0  0  0  0  0  0
   20.5026   -4.5747  -18.3118 N   0  0  0  0  0  0  0  0  0  0  0  0
   21.1807   -6.5094  -15.2615 C   0  0  0  0  0  0  0  0  0  0  0  0
   20.7366   -7.6157  -14.5589 O   0  0  0  0  0  0  0  0  0  0  0  0
   20.4720   -5.4756  -15.2230 O   0  0  0  0  0  0  0  0  0  0  0  0
  2  1  1  6
  3  2  1  0
  4  2  1  0
  5  4  2  0
  6  7  1  0
  8  7  1  0
  9  8  1  0
 10 11  1  0
 10  9  1  6
 11  4  1  0
 12 10  1  0
 13 12  2  0
 14 12  1  0
 15 16  1  6
 15 14  1  0
 16 17  1  0
 17 21  1  0
 18 17  2  0
 18 19  1  0
 19 20  1  0
 21 20  2  0
 22 23  1  0
 22 15  1  0
 24 22  2  0
M  END
$$$$
