AMH.pdb
     RDKit          3D

 24 24  0  0  1  0  0  0  0  0999 V2000
   28.4472  -22.4893  -16.1992 C   0  0  0  0  0  0  0  0  0  0  0  0
   27.3615  -21.4626  -16.0445 C   0  0  2  0  0  0  0  0  0  0  0  0
   27.9909  -20.1637  -15.9290 N   0  0  0  0  0  0  0  0  0  0  0  0
   26.5376  -21.7668  -14.8239 C   0  0  0  0  0  0  0  0  0  0  0  0
   25.8592  -22.8199  -14.8473 O   0  0  0  0  0  0  0  0  0  0  0  0
   25.3139  -21.0017   -7.1597 C   0  0  0  0  0  0  0  0  0  0  0  0
   26.3619  -20.5664   -8.5717 S   0  0  0  0  0  0  0  0  0  0  0  0
   25.5490  -20.9304  -10.1439 C   0  0  0  0  0  0  0  0  0  0  0  0
   26.5017  -20.7385  -11.3198 C   0  0  0  0  0  0  0  0  0  0  0  0
   25.7079  -21.0928  -12.5607 C   0  0  2  0  0  0  0  0  0  0  0  0
   26.5334  -20.9064  -13.7128 N   0  0  0  0  0  0  0  0  0  0  0  0
   24.4523  -20.3589  -12.7038 C   0  0  0  0  0  0  0  0  0  0  0  0
   24.4669  -19.1668  -13.0740 O   0  0  0  0  0  0  0  0  0  0  0  0
   23.1587  -20.9572  -12.4324 N   0  0  0  0  0  0  0  0  0  0  0  0
   22.0162  -20.6370  -13.2430 C   0  0  1  0  0  0  0  0  0  0  0  0
   22.2534  -21.0808  -14.6573 C   0  0  0  0  0  0  0  0  0  0  0  0
   22.4874  -19.8890  -15.5083 C   0  0  0  0  0  0  0  0  0  0  0  0
   22.4988  -18.5550  -15.0984 C   0  0  0  0  0  0  0  0  0  0  0  0
   22.7454  -17.7951  -16.1768 N   0  0  0  0  0  0  0  0  0  0  0  0
   22.8864  -18.6077  -17.2353 C   0  0  0  0  0  0  0  0  0  0  0  0
   22.7292  -19.8844  -16.8285 N   0  0  0  0  0  0  0  0  0  0  0  0
   20.7870  -21.3570  -12.7535 C   0  0  0  0  0  0  0  0  0  0  0  0
   19.5608  -20.7161  -12.7393 O   0  0  0  0  0  0  0  0  0  0  0  0
   20.8260  -22.5427  -12.3474 O   0  0  0  0  0  0  0  0  0  0  0  0
  2  1  1  1
  3  2  1  0
  4  2  1  0
  5  4  2  0
  6  7  1  0
  8  7  1  0
  9  8  1  0
 10 11  1  0
 10  9  1  1
 11  4  1  0
 12 10  1  0
 13 12  2  0
 14 12  1  0
 15 16  1  6
 15 14  1  0
 16 17  1  0
 17 21  1  0
 18 17  2  0
 18 19  1  0
 19 20  1  0
 21 20  2  0
 22 23  1  0
 22 15  1  0
 24 22  2  0
M  END
$$$$
