AMH.pdb
     RDKit          3D

 24 24  0  0  1  0  0  0  0  0999 V2000
   26.6530   -9.8943  -22.1091 C   0  0  0  0  0  0  0  0  0  0  0  0
   26.0041   -8.6402  -21.5966 C   0  0  2  0  0  0  0  0  0  0  0  0
   27.0505   -7.7628  -21.1152 N   0  0  0  0  0  0  0  0  0  0  0  0
   25.0391   -8.9755  -20.4932 C   0  0  0  0  0  0  0  0  0  0  0  0
   24.0430   -9.6689  -20.8041 O   0  0  0  0  0  0  0  0  0  0  0  0
   23.7709  -10.7816  -13.0748 C   0  0  0  0  0  0  0  0  0  0  0  0
   24.9695  -10.3373  -14.3583 S   0  0  0  0  0  0  0  0  0  0  0  0
   24.1545   -9.7207  -15.8485 C   0  0  0  0  0  0  0  0  0  0  0  0
   25.1672   -9.3960  -16.9421 C   0  0  0  0  0  0  0  0  0  0  0  0
   24.3688   -8.8079  -18.0875 C   0  0  2  0  0  0  0  0  0  0  0  0
   25.2505   -8.5291  -19.1775 N   0  0  0  0  0  0  0  0  0  0  0  0
   23.5947   -7.6193  -17.7357 C   0  0  0  0  0  0  0  0  0  0  0  0
   24.1751   -6.5285  -17.5581 O   0  0  0  0  0  0  0  0  0  0  0  0
   22.1525   -7.6406  -17.5788 N   0  0  0  0  0  0  0  0  0  0  0  0
   21.4259   -6.4333  -17.2968 C   0  0  1  0  0  0  0  0  0  0  0  0
   20.3324   -6.2477  -18.3084 C   0  0  0  0  0  0  0  0  0  0  0  0
   20.6033   -5.0221  -19.0981 C   0  0  0  0  0  0  0  0  0  0  0  0
   21.8496   -4.4505  -19.3584 C   0  0  0  0  0  0  0  0  0  0  0  0
   21.6515   -3.3538  -20.1062 N   0  0  0  0  0  0  0  0  0  0  0  0
   20.3324   -3.2265  -20.3172 C   0  0  0  0  0  0  0  0  0  0  0  0
   19.6928   -4.2432  -19.7029 N   0  0  0  0  0  0  0  0  0  0  0  0
   20.7693   -6.5011  -15.9429 C   0  0  0  0  0  0  0  0  0  0  0  0
   20.6258   -5.3572  -15.1776 O   0  0  0  0  0  0  0  0  0  0  0  0
   20.3353   -7.5762  -15.4651 O   0  0  0  0  0  0  0  0  0  0  0  0
  2  1  1  1
  3  2  1  0
  4  2  1  0
  5  4  2  0
  6  7  1  0
  8  7  1  0
  9  8  1  0
 10 11  1  0
 10  9  1  1
 11  4  1  0
 12 10  1  0
 13 12  2  0
 14 12  1  0
 15 16  1  6
 15 14  1  0
 16 17  1  0
 17 21  1  0
 18 17  2  0
 18 19  1  0
 19 20  1  0
 21 20  2  0
 22 23  1  0
 22 15  1  0
 24 22  2  0
M  END
$$$$
