AMH.pdb
     RDKit          3D

 24 24  0  0  1  0  0  0  0  0999 V2000
   27.2563  -19.7297  -16.6289 C   0  0  0  0  0  0  0  0  0  0  0  0
   27.9347  -20.5616  -15.5780 C   0  0  2  0  0  0  0  0  0  0  0  0
   28.6139  -21.6529  -16.2446 N   0  0  0  0  0  0  0  0  0  0  0  0
   26.9177  -21.0835  -14.6009 C   0  0  0  0  0  0  0  0  0  0  0  0
   26.2188  -22.0534  -14.9757 O   0  0  0  0  0  0  0  0  0  0  0  0
   25.2755  -21.1145   -7.1938 C   0  0  0  0  0  0  0  0  0  0  0  0
   25.1106  -19.8717   -8.5013 S   0  0  0  0  0  0  0  0  0  0  0  0
   24.9180  -20.6350  -10.1278 C   0  0  0  0  0  0  0  0  0  0  0  0
   26.1168  -20.3426  -11.0246 C   0  0  0  0  0  0  0  0  0  0  0  0
   25.7627  -20.9005  -12.3879 C   0  0  2  0  0  0  0  0  0  0  0  0
   26.7638  -20.5060  -13.3290 N   0  0  0  0  0  0  0  0  0  0  0  0
   24.4328  -20.5277  -12.8656 C   0  0  0  0  0  0  0  0  0  0  0  0
   24.2307  -19.3792  -13.3107 O   0  0  0  0  0  0  0  0  0  0  0  0
   23.3083  -21.4444  -12.8498 N   0  0  0  0  0  0  0  0  0  0  0  0
   22.0420  -21.0640  -13.4127 C   0  0  1  0  0  0  0  0  0  0  0  0
   21.6085  -22.0813  -14.4279 C   0  0  0  0  0  0  0  0  0  0  0  0
   20.3254  -21.6488  -15.0326 C   0  0  0  0  0  0  0  0  0  0  0  0
   19.2757  -20.9901  -14.3908 C   0  0  0  0  0  0  0  0  0  0  0  0
   18.3050  -20.7841  -15.2944 N   0  0  0  0  0  0  0  0  0  0  0  0
   18.7147  -21.2898  -16.4680 C   0  0  0  0  0  0  0  0  0  0  0  0
   19.9462  -21.8172  -16.3091 N   0  0  0  0  0  0  0  0  0  0  0  0
   20.9727  -21.0128  -12.3531 C   0  0  0  0  0  0  0  0  0  0  0  0
   19.7371  -20.4566  -12.6333 O   0  0  0  0  0  0  0  0  0  0  0  0
   21.1568  -21.4634  -11.1975 O   0  0  0  0  0  0  0  0  0  0  0  0
  2  1  1  6
  3  2  1  0
  4  2  1  0
  5  4  2  0
  6  7  1  0
  8  7  1  0
  9  8  1  0
 10 11  1  0
 10  9  1  1
 11  4  1  0
 12 10  1  0
 13 12  2  0
 14 12  1  0
 15 16  1  6
 15 14  1  0
 16 17  1  0
 17 21  1  0
 18 17  2  0
 18 19  1  0
 19 20  1  0
 21 20  2  0
 22 23  1  0
 22 15  1  0
 24 22  2  0
M  END
$$$$
