AMH.pdb
     RDKit          3D

 24 24  0  0  1  0  0  0  0  0999 V2000
   27.5778  -23.0042  -16.4275 C   0  0  0  0  0  0  0  0  0  0  0  0
   26.9891  -21.6714  -16.0617 C   0  0  2  0  0  0  0  0  0  0  0  0
   28.0812  -20.7393  -15.8740 N   0  0  0  0  0  0  0  0  0  0  0  0
   26.1736  -21.7980  -14.8046 C   0  0  0  0  0  0  0  0  0  0  0  0
   25.2078  -22.5955  -14.8349 O   0  0  0  0  0  0  0  0  0  0  0  0
   25.6626  -20.3797   -7.0675 C   0  0  0  0  0  0  0  0  0  0  0  0
   26.6990  -20.3408   -8.5527 S   0  0  0  0  0  0  0  0  0  0  0  0
   25.7553  -20.7564  -10.0366 C   0  0  0  0  0  0  0  0  0  0  0  0
   26.6304  -20.7031  -11.2850 C   0  0  0  0  0  0  0  0  0  0  0  0
   25.7361  -21.1111  -12.4379 C   0  0  2  0  0  0  0  0  0  0  0  0
   26.4856  -21.0543  -13.6538 N   0  0  0  0  0  0  0  0  0  0  0  0
   24.5073  -20.3287  -12.5546 C   0  0  0  0  0  0  0  0  0  0  0  0
   24.5691  -19.0896  -12.6926 O   0  0  0  0  0  0  0  0  0  0  0  0
   23.1877  -20.9307  -12.5181 N   0  0  0  0  0  0  0  0  0  0  0  0
   22.0764  -20.3062  -13.1814 C   0  0  1  0  0  0  0  0  0  0  0  0
   22.3135  -20.2841  -14.6636 C   0  0  0  0  0  0  0  0  0  0  0  0
   21.2029  -19.5555  -15.3230 C   0  0  0  0  0  0  0  0  0  0  0  0
   20.1007  -18.9664  -14.7018 C   0  0  0  0  0  0  0  0  0  0  0  0
   19.3365  -18.4139  -15.6568 N   0  0  0  0  0  0  0  0  0  0  0  0
   19.9239  -18.6391  -16.8422 C   0  0  0  0  0  0  0  0  0  0  0  0
   21.0617  -19.3350  -16.6394 N   0  0  0  0  0  0  0  0  0  0  0  0
   20.8042  -21.0782  -12.9483 C   0  0  0  0  0  0  0  0  0  0  0  0
   19.6462  -20.4204  -12.5730 O   0  0  0  0  0  0  0  0  0  0  0  0
   20.7458  -22.3236  -13.0825 O   0  0  0  0  0  0  0  0  0  0  0  0
  2  1  1  1
  3  2  1  0
  4  2  1  0
  5  4  2  0
  6  7  1  0
  8  7  1  0
  9  8  1  0
 10 11  1  0
 10  9  1  1
 11  4  1  0
 12 10  1  0
 13 12  2  0
 14 12  1  0
 15 16  1  6
 15 14  1  0
 16 17  1  0
 17 21  1  0
 18 17  2  0
 18 19  1  0
 19 20  1  0
 21 20  2  0
 22 23  1  0
 22 15  1  0
 24 22  2  0
M  END
$$$$
