AMH.pdb
     RDKit          3D

 24 24  0  0  1  0  0  0  0  0999 V2000
   23.5196  -21.4944  -20.0864 C   0  0  0  0  0  0  0  0  0  0  0  0
   24.8819  -20.9676  -19.7354 C   0  0  2  0  0  0  0  0  0  0  0  0
   25.7646  -22.1013  -19.5562 N   0  0  0  0  0  0  0  0  0  0  0  0
   24.8063  -20.1461  -18.4782 C   0  0  0  0  0  0  0  0  0  0  0  0
   24.4728  -20.7457  -17.4298 O   0  0  0  0  0  0  0  0  0  0  0  0
   26.9896  -13.6306  -14.6783 C   0  0  0  0  0  0  0  0  0  0  0  0
   27.0462  -14.5661  -16.2284 S   0  0  0  0  0  0  0  0  0  0  0  0
   25.9368  -15.9919  -16.1888 C   0  0  0  0  0  0  0  0  0  0  0  0
   26.0315  -16.8059  -17.4754 C   0  0  0  0  0  0  0  0  0  0  0  0
   25.0307  -17.9338  -17.3291 C   0  0  2  0  0  0  0  0  0  0  0  0
   25.0975  -18.7713  -18.4856 N   0  0  0  0  0  0  0  0  0  0  0  0
   23.6573  -17.4947  -17.0911 C   0  0  0  0  0  0  0  0  0  0  0  0
   23.0035  -16.9675  -18.0145 O   0  0  0  0  0  0  0  0  0  0  0  0
   22.9975  -17.6434  -15.8075 N   0  0  0  0  0  0  0  0  0  0  0  0
   21.6442  -17.1979  -15.6206 C   0  0  1  0  0  0  0  0  0  0  0  0
   21.2253  -17.4216  -14.1965 C   0  0  0  0  0  0  0  0  0  0  0  0
   19.7762  -17.1352  -14.0651 C   0  0  0  0  0  0  0  0  0  0  0  0
   18.9297  -16.6236  -15.0497 C   0  0  0  0  0  0  0  0  0  0  0  0
   17.7011  -16.5150  -14.5206 N   0  0  0  0  0  0  0  0  0  0  0  0
   17.7566  -16.9392  -13.2487 C   0  0  0  0  0  0  0  0  0  0  0  0
   19.0213  -17.3174  -12.9703 N   0  0  0  0  0  0  0  0  0  0  0  0
   21.5184  -15.7217  -15.8922 C   0  0  0  0  0  0  0  0  0  0  0  0
   22.6447  -14.9184  -15.9239 O   0  0  0  0  0  0  0  0  0  0  0  0
   20.4094  -15.1732  -16.0962 O   0  0  0  0  0  0  0  0  0  0  0  0
  2  1  1  1
  3  2  1  0
  4  2  1  0
  5  4  2  0
  6  7  1  0
  8  7  1  0
  9  8  1  0
 10 11  1  0
 10  9  1  6
 11  4  1  0
 12 10  1  0
 13 12  2  0
 14 12  1  0
 15 16  1  1
 15 14  1  0
 16 17  1  0
 17 21  1  0
 18 17  2  0
 18 19  1  0
 19 20  1  0
 21 20  2  0
 22 23  1  0
 22 15  1  0
 24 22  2  0
M  END
$$$$
