KTA.pdb
     RDKit          3D

 22 21  0  0  1  0  0  0  0  0999 V2000
   10.6490  -18.7243   21.6692 N   0  0  0  0  0  0  0  0  0  0  0  0
   11.3120  -17.4430   21.6642 C   0  0  1  0  0  0  0  0  0  0  0  0
   11.3799  -16.8169   20.3232 C   0  0  0  0  0  0  0  0  0  0  0  0
   12.0690  -17.5692   19.2583 C   0  0  0  0  0  0  0  0  0  0  0  0
   13.1549  -16.8120   18.5544 C   0  0  0  0  0  0  0  0  0  0  0  0
   13.9110  -17.7403   17.5879 C   0  0  0  0  0  0  0  0  0  0  0  0
   14.9800  -16.9418   17.0168 N   0  0  0  0  0  0  0  0  0  0  0  0
   10.5727  -16.5674   22.6447 C   0  0  0  0  0  0  0  0  0  0  0  0
   10.6627  -15.3210   22.5887 O   0  0  0  0  0  0  0  0  0  0  0  0
    6.7826  -17.2436   23.8114 C   0  0  0  0  0  0  0  0  0  0  0  0
    7.7303  -17.0217   24.9283 C   0  0  1  0  0  0  0  0  0  0  0  0
    8.0532  -18.3027   25.4447 O   0  0  0  0  0  0  0  0  0  0  0  0
    8.9915  -16.2640   24.5948 C   0  0  2  0  0  0  0  0  0  0  0  0
    9.7558  -17.1145   23.6576 N   0  0  0  0  0  0  0  0  0  0  0  0
    9.8162  -15.8784   25.7360 C   0  0  0  0  0  0  0  0  0  0  0  0
   10.8763  -16.5605   25.9726 O   0  0  0  0  0  0  0  0  0  0  0  0
   10.0510  -13.3104   28.5127 C   0  0  0  0  0  0  0  0  0  0  0  0
   10.4155  -14.5826   27.7803 C   0  0  2  0  0  0  0  0  0  0  0  0
    9.5701  -14.8089   26.6305 N   0  0  0  0  0  0  0  0  0  0  0  0
   10.3112  -15.6915   28.7594 C   0  0  0  0  0  0  0  0  0  0  0  0
   11.0731  -15.7043   29.7580 O   0  0  0  0  0  0  0  0  0  0  0  0
    9.4045  -16.7328   28.6325 O   0  0  0  0  0  0  0  0  0  0  0  0
  2  1  1  6
  2  8  1  0
  3  2  1  0
  4  3  1  0
  5  6  1  0
  5  4  1  0
  6  7  1  0
  8 14  1  0
  8  9  2  0
 11 10  1  6
 12 11  1  0
 13 11  1  0
 13 15  1  0
 13 14  1  6
 15 16  2  0
 18 17  1  1
 19 18  1  0
 19 15  1  0
 20 18  1  0
 20 22  1  0
 21 20  2  0
M  END
$$$$
