KTA.pdb
     RDKit          3D

 22 21  0  0  1  0  0  0  0  0999 V2000
    5.8993  -17.1294   20.7426 N   0  0  0  0  0  0  0  0  0  0  0  0
    7.0433  -16.4950   21.3510 C   0  0  1  0  0  0  0  0  0  0  0  0
    7.2576  -15.1009   20.8979 C   0  0  0  0  0  0  0  0  0  0  0  0
    7.8417  -14.9062   19.5578 C   0  0  0  0  0  0  0  0  0  0  0  0
    8.0058  -13.4743   19.1447 C   0  0  0  0  0  0  0  0  0  0  0  0
    8.5814  -13.3935   17.7201 C   0  0  0  0  0  0  0  0  0  0  0  0
    8.6070  -11.9839   17.3757 N   0  0  0  0  0  0  0  0  0  0  0  0
    6.8360  -16.5640   22.8433 C   0  0  0  0  0  0  0  0  0  0  0  0
    5.7205  -16.3117   23.3500 O   0  0  0  0  0  0  0  0  0  0  0  0
    7.7475  -18.6988   27.0384 C   0  0  0  0  0  0  0  0  0  0  0  0
    7.7950  -18.4114   25.5858 C   0  0  1  0  0  0  0  0  0  0  0  0
    6.7401  -19.1514   24.9928 O   0  0  0  0  0  0  0  0  0  0  0  0
    7.6975  -16.9595   25.1877 C   0  0  2  0  0  0  0  0  0  0  0  0
    7.8841  -16.9135   23.7218 N   0  0  0  0  0  0  0  0  0  0  0  0
    8.6294  -16.0577   25.8581 C   0  0  0  0  0  0  0  0  0  0  0  0
    9.8564  -16.0712   25.4852 O   0  0  0  0  0  0  0  0  0  0  0  0
    8.8025  -13.1854   28.2897 C   0  0  0  0  0  0  0  0  0  0  0  0
    9.3560  -14.3929   27.5664 C   0  0  2  0  0  0  0  0  0  0  0  0
    8.3208  -15.1476   26.8979 N   0  0  0  0  0  0  0  0  0  0  0  0
   10.0641  -15.2163   28.5763 C   0  0  0  0  0  0  0  0  0  0  0  0
    9.5742  -16.3195   28.9237 O   0  0  0  0  0  0  0  0  0  0  0  0
   11.2568  -14.8303   29.1686 O   0  0  0  0  0  0  0  0  0  0  0  0
  2  1  1  6
  2  8  1  0
  3  2  1  0
  4  3  1  0
  5  6  1  0
  5  4  1  0
  6  7  1  0
  8 14  1  0
  8  9  2  0
 11 10  1  1
 12 11  1  0
 13 11  1  0
 13 15  1  0
 13 14  1  6
 15 16  2  0
 18 17  1  1
 19 18  1  0
 19 15  1  0
 20 18  1  0
 20 22  1  0
 21 20  2  0
M  END
$$$$
