KTA.pdb
     RDKit          3D

 22 21  0  0  1  0  0  0  0  0999 V2000
    9.7889  -17.3091   20.0695 N   0  0  0  0  0  0  0  0  0  0  0  0
   10.3601  -17.6500   21.3497 C   0  0  1  0  0  0  0  0  0  0  0  0
   11.8368  -17.5370   21.3880 C   0  0  0  0  0  0  0  0  0  0  0  0
   12.5882  -18.0854   20.2437 C   0  0  0  0  0  0  0  0  0  0  0  0
   14.0794  -17.9886   20.3654 C   0  0  0  0  0  0  0  0  0  0  0  0
   14.7549  -18.5652   19.1089 C   0  0  0  0  0  0  0  0  0  0  0  0
   16.1654  -18.2445   19.2272 N   0  0  0  0  0  0  0  0  0  0  0  0
    9.7114  -16.7474   22.3692 C   0  0  0  0  0  0  0  0  0  0  0  0
    9.2495  -15.6326   22.0397 O   0  0  0  0  0  0  0  0  0  0  0  0
    6.6470  -17.3031   24.0289 C   0  0  0  0  0  0  0  0  0  0  0  0
    7.6425  -17.0699   25.1011 C   0  0  1  0  0  0  0  0  0  0  0  0
    8.0090  -18.3473   25.5969 O   0  0  0  0  0  0  0  0  0  0  0  0
    8.8749  -16.2917   24.7117 C   0  0  2  0  0  0  0  0  0  0  0  0
    9.6001  -17.1211   23.7258 N   0  0  0  0  0  0  0  0  0  0  0  0
    9.7530  -15.9082   25.8132 C   0  0  0  0  0  0  0  0  0  0  0  0
   10.8493  -16.5564   25.9650 O   0  0  0  0  0  0  0  0  0  0  0  0
   10.1234  -13.3559   28.5843 C   0  0  0  0  0  0  0  0  0  0  0  0
   10.4378  -14.6386   27.8470 C   0  0  2  0  0  0  0  0  0  0  0  0
    9.5234  -14.8750   26.7535 N   0  0  0  0  0  0  0  0  0  0  0  0
   10.3889  -15.7350   28.8443 C   0  0  0  0  0  0  0  0  0  0  0  0
    9.4889  -16.6068   28.7566 O   0  0  0  0  0  0  0  0  0  0  0  0
   11.2962  -15.8540   29.8861 O   0  0  0  0  0  0  0  0  0  0  0  0
  2  1  1  6
  2  8  1  0
  3  2  1  0
  4  3  1  0
  5  6  1  0
  5  4  1  0
  6  7  1  0
  8 14  1  0
  8  9  2  0
 11 10  1  6
 12 11  1  0
 13 11  1  0
 13 15  1  0
 13 14  1  6
 15 16  2  0
 18 17  1  1
 19 18  1  0
 19 15  1  0
 20 18  1  0
 20 22  1  0
 21 20  2  0
M  END
$$$$
