KTA.pdb
     RDKit          3D

 22 21  0  0  1  0  0  0  0  0999 V2000
    9.5541  -16.1352   20.9230 N   0  0  0  0  0  0  0  0  0  0  0  0
    9.1018  -14.7984   21.2225 C   0  0  1  0  0  0  0  0  0  0  0  0
    8.1326  -14.2666   20.2362 C   0  0  0  0  0  0  0  0  0  0  0  0
    8.5004  -14.3526   18.8106 C   0  0  0  0  0  0  0  0  0  0  0  0
    7.4816  -13.7941   17.8630 C   0  0  0  0  0  0  0  0  0  0  0  0
    7.9794  -13.9175   16.4124 C   0  0  0  0  0  0  0  0  0  0  0  0
    6.8682  -13.5150   15.5699 N   0  0  0  0  0  0  0  0  0  0  0  0
    8.5104  -14.8402   22.6093 C   0  0  0  0  0  0  0  0  0  0  0  0
    7.8947  -13.8564   23.0758 O   0  0  0  0  0  0  0  0  0  0  0  0
    6.3764  -17.7755   24.0785 C   0  0  0  0  0  0  0  0  0  0  0  0
    7.4903  -17.4058   24.9825 C   0  0  1  0  0  0  0  0  0  0  0  0
    8.4995  -18.3861   24.8019 O   0  0  0  0  0  0  0  0  0  0  0  0
    8.0700  -16.0250   24.7996 C   0  0  2  0  0  0  0  0  0  0  0  0
    8.6268  -15.9823   23.4306 N   0  0  0  0  0  0  0  0  0  0  0  0
    9.0748  -15.6275   25.7812 C   0  0  0  0  0  0  0  0  0  0  0  0
   10.3049  -15.8835   25.5234 O   0  0  0  0  0  0  0  0  0  0  0  0
    9.5929  -13.5433   28.8580 C   0  0  0  0  0  0  0  0  0  0  0  0
    9.9118  -14.7024   27.9401 C   0  0  2  0  0  0  0  0  0  0  0  0
    8.8361  -14.9744   27.0144 N   0  0  0  0  0  0  0  0  0  0  0  0
   10.1959  -15.8739   28.8039 C   0  0  0  0  0  0  0  0  0  0  0  0
   11.1259  -15.8067   29.6455 O   0  0  0  0  0  0  0  0  0  0  0  0
    9.4806  -17.0596   28.7334 O   0  0  0  0  0  0  0  0  0  0  0  0
  2  1  1  6
  2  8  1  0
  3  2  1  0
  4  3  1  0
  5  6  1  0
  5  4  1  0
  6  7  1  0
  8 14  1  0
  8  9  2  0
 11 10  1  6
 12 11  1  0
 13 11  1  0
 13 15  1  0
 13 14  1  6
 15 16  2  0
 18 17  1  1
 19 18  1  0
 19 15  1  0
 20 18  1  0
 20 22  1  0
 21 20  2  0
M  END
$$$$
