KTA.pdb
     RDKit          3D

 22 21  0  0  1  0  0  0  0  0999 V2000
    7.0532  -16.1154   20.0972 N   0  0  0  0  0  0  0  0  0  0  0  0
    7.7139  -15.1742   20.9683 C   0  0  1  0  0  0  0  0  0  0  0  0
    7.3869  -13.7606   20.6693 C   0  0  0  0  0  0  0  0  0  0  0  0
    8.0724  -13.1341   19.5236 C   0  0  0  0  0  0  0  0  0  0  0  0
    7.9083  -13.8567   18.2202 C   0  0  0  0  0  0  0  0  0  0  0  0
    8.7223  -13.1574   17.1175 C   0  0  0  0  0  0  0  0  0  0  0  0
    8.4684  -13.9009   15.8972 N   0  0  0  0  0  0  0  0  0  0  0  0
    7.3282  -15.5430   22.3790 C   0  0  0  0  0  0  0  0  0  0  0  0
    6.2216  -16.0711   22.6259 O   0  0  0  0  0  0  0  0  0  0  0  0
    6.6528  -17.7664   23.7470 C   0  0  0  0  0  0  0  0  0  0  0  0
    7.7327  -17.3309   24.6630 C   0  0  1  0  0  0  0  0  0  0  0  0
    8.9304  -17.9223   24.1855 O   0  0  0  0  0  0  0  0  0  0  0  0
    7.9166  -15.8418   24.8202 C   0  0  2  0  0  0  0  0  0  0  0  0
    8.1937  -15.3089   23.4693 N   0  0  0  0  0  0  0  0  0  0  0  0
    8.9523  -15.4301   25.7630 C   0  0  0  0  0  0  0  0  0  0  0  0
   10.1778  -15.5548   25.4058 O   0  0  0  0  0  0  0  0  0  0  0  0
    9.4635  -13.3993   28.8667 C   0  0  0  0  0  0  0  0  0  0  0  0
    9.8606  -14.4738   27.8792 C   0  0  2  0  0  0  0  0  0  0  0  0
    8.7487  -14.8947   27.0577 N   0  0  0  0  0  0  0  0  0  0  0  0
   10.4140  -15.6026   28.6659 C   0  0  0  0  0  0  0  0  0  0  0  0
   11.4143  -15.4085   29.4005 O   0  0  0  0  0  0  0  0  0  0  0  0
    9.8803  -16.8819   28.6358 O   0  0  0  0  0  0  0  0  0  0  0  0
  2  1  1  6
  2  8  1  0
  3  2  1  0
  4  3  1  0
  5  6  1  0
  5  4  1  0
  6  7  1  0
  8 14  1  0
  8  9  2  0
 11 10  1  6
 12 11  1  0
 13 11  1  0
 13 15  1  0
 13 14  1  6
 15 16  2  0
 18 17  1  1
 19 18  1  0
 19 15  1  0
 20 18  1  0
 20 22  1  0
 21 20  2  0
M  END
$$$$
