GPI.pdb
     RDKit          3D

 20 20  0  0  1  0  0  0  0  0999 V2000
   22.6120  -20.7007  -12.3906 N   0  0  0  0  0  0  0  0  0  0  0  0
   24.0306  -20.2459  -12.4104 C   0  0  0  0  0  0  0  0  0  0  0  0
   24.6560  -20.5802  -11.1365 C   0  0  0  0  0  0  0  0  0  0  0  0
   23.9177  -20.3175  -10.0945 O   0  0  0  0  0  0  0  0  0  0  0  0
   25.9013  -21.1302  -10.8475 N   0  0  0  0  0  0  0  0  0  0  0  0
   26.4383  -22.2470  -11.7132 C   0  0  0  0  0  0  0  0  0  0  0  0
   27.7998  -21.6528  -12.0436 C   0  0  0  0  0  0  0  0  0  0  0  0
   28.1190  -20.6702  -10.9113 C   0  0  0  0  0  0  0  0  0  0  0  0
   26.9746  -21.0017   -9.9287 C   0  0  1  0  0  0  0  0  0  0  0  0
   26.9310  -20.0957   -8.8191 C   0  0  0  0  0  0  0  0  0  0  0  0
   26.6581  -18.9046   -8.8806 O   0  0  0  0  0  0  0  0  0  0  0  0
   27.7629  -20.1612   -2.6828 C   0  0  0  0  0  0  0  0  0  0  0  0
   27.5802  -19.3649   -3.9625 C   0  0  0  0  0  0  0  0  0  0  0  0
   27.3303  -20.3628   -5.0748 C   0  0  2  0  0  0  0  0  0  0  0  0
   28.4281  -21.4013   -4.9665 C   0  0  0  0  0  0  0  0  0  0  0  0
   27.4701  -19.7065   -6.4392 C   0  0  2  0  0  0  0  0  0  0  0  0
   27.2343  -20.6228   -7.5054 N   0  0  0  0  0  0  0  0  0  0  0  0
   28.8493  -19.1960   -6.5280 C   0  0  0  0  0  0  0  0  0  0  0  0
   29.7884  -19.8782   -7.2609 O   0  0  0  0  0  0  0  0  0  0  0  0
   29.1637  -18.1465   -5.9390 O   0  0  0  0  0  0  0  0  0  0  0  0
  2  1  1  0
  3  2  1  0
  4  3  2  0
  5  6  1  0
  5  3  1  0
  7  6  1  0
  8  9  1  0
  8  7  1  0
  9 10  1  1
  9  5  1  0
 10 17  1  0
 11 10  2  0
 12 13  1  0
 13 14  1  0
 14 15  1  6
 16 18  1  0
 16 14  1  0
 16 17  1  6
 18 19  1  0
 20 18  2  0
M  END
$$$$
