GPI.pdb
     RDKit          3D

 20 20  0  0  1  0  0  0  0  0999 V2000
   21.9405  -20.4871  -12.3941 N   0  0  0  0  0  0  0  0  0  0  0  0
   23.3706  -20.0778  -12.4765 C   0  0  0  0  0  0  0  0  0  0  0  0
   24.0500  -20.4692  -11.2473 C   0  0  0  0  0  0  0  0  0  0  0  0
   23.3747  -20.2167  -10.1609 O   0  0  0  0  0  0  0  0  0  0  0  0
   25.2907  -21.0644  -11.0399 N   0  0  0  0  0  0  0  0  0  0  0  0
   25.7274  -22.2013  -11.9354 C   0  0  0  0  0  0  0  0  0  0  0  0
   27.0848  -21.6581  -12.3579 C   0  0  0  0  0  0  0  0  0  0  0  0
   27.5145  -20.6866  -11.2527 C   0  0  0  0  0  0  0  0  0  0  0  0
   26.4268  -20.9746  -10.1950 C   0  0  1  0  0  0  0  0  0  0  0  0
   26.4906  -20.0664   -9.0882 C   0  0  0  0  0  0  0  0  0  0  0  0
   26.1138  -18.9024   -9.0975 O   0  0  0  0  0  0  0  0  0  0  0  0
   27.4977  -19.9202   -3.0338 C   0  0  0  0  0  0  0  0  0  0  0  0
   27.5000  -19.1792   -4.3590 C   0  0  0  0  0  0  0  0  0  0  0  0
   27.1132  -20.1804   -5.4284 C   0  0  2  0  0  0  0  0  0  0  0  0
   28.0438  -21.3636   -5.2572 C   0  0  0  0  0  0  0  0  0  0  0  0
   27.3592  -19.6168   -6.8190 C   0  0  2  0  0  0  0  0  0  0  0  0
   27.0471  -20.5561   -7.8448 N   0  0  0  0  0  0  0  0  0  0  0  0
   28.7890  -19.2689   -6.8918 C   0  0  0  0  0  0  0  0  0  0  0  0
   29.6522  -20.0580   -7.6107 O   0  0  0  0  0  0  0  0  0  0  0  0
   29.2149  -18.2600   -6.3020 O   0  0  0  0  0  0  0  0  0  0  0  0
  2  1  1  0
  3  2  1  0
  4  3  2  0
  5  6  1  0
  5  3  1  0
  7  6  1  0
  8  9  1  0
  8  7  1  0
  9 10  1  1
  9  5  1  0
 10 17  1  0
 11 10  2  0
 12 13  1  0
 13 14  1  0
 14 15  1  1
 16 18  1  0
 16 14  1  0
 16 17  1  6
 18 19  1  0
 20 18  2  0
M  END
$$$$
