GPI.pdb
     RDKit          3D

 20 20  0  0  1  0  0  0  0  0999 V2000
   25.1708  -17.5588  -16.7242 N   0  0  0  0  0  0  0  0  0  0  0  0
   26.1473  -17.7074  -15.6088 C   0  0  0  0  0  0  0  0  0  0  0  0
   26.1235  -19.0862  -15.1352 C   0  0  0  0  0  0  0  0  0  0  0  0
   24.9349  -19.6214  -15.1109 O   0  0  0  0  0  0  0  0  0  0  0  0
   27.1505  -19.9223  -14.7077 N   0  0  0  0  0  0  0  0  0  0  0  0
   28.4982  -19.8503  -15.3887 C   0  0  0  0  0  0  0  0  0  0  0  0
   29.3732  -19.6684  -14.1570 C   0  0  0  0  0  0  0  0  0  0  0  0
   28.5826  -20.2606  -12.9848 C   0  0  0  0  0  0  0  0  0  0  0  0
   27.4202  -20.9320  -13.7484 C   0  0  1  0  0  0  0  0  0  0  0  0
   26.4123  -21.4415  -12.8659 C   0  0  0  0  0  0  0  0  0  0  0  0
   26.2406  -22.6193  -12.5830 O   0  0  0  0  0  0  0  0  0  0  0  0
   26.5345  -19.9389   -8.1069 C   0  0  0  0  0  0  0  0  0  0  0  0
   26.2372  -20.7849   -9.3320 C   0  0  0  0  0  0  0  0  0  0  0  0
   24.9076  -20.3138   -9.8850 C   0  0  2  0  0  0  0  0  0  0  0  0
   23.8482  -20.8144   -8.9244 C   0  0  0  0  0  0  0  0  0  0  0  0
   24.6214  -20.9504  -11.2359 C   0  0  2  0  0  0  0  0  0  0  0  0
   25.5124  -20.4902  -12.2488 N   0  0  0  0  0  0  0  0  0  0  0  0
   23.2401  -20.5854  -11.5958 C   0  0  0  0  0  0  0  0  0  0  0  0
   22.2054  -21.4380  -11.3010 O   0  0  0  0  0  0  0  0  0  0  0  0
   23.0105  -19.5046  -12.1669 O   0  0  0  0  0  0  0  0  0  0  0  0
  2  1  1  0
  3  2  1  0
  4  3  2  0
  5  6  1  0
  5  3  1  0
  7  6  1  0
  8  9  1  0
  8  7  1  0
  9 10  1  1
  9  5  1  0
 10 17  1  0
 11 10  2  0
 12 13  1  0
 13 14  1  0
 14 15  1  1
 16 18  1  0
 16 14  1  0
 16 17  1  6
 18 19  1  0
 20 18  2  0
M  END
$$$$
