GPI.pdb
     RDKit          3D

 20 20  0  0  1  0  0  0  0  0999 V2000
   22.4565  -21.0069  -12.2076 N   0  0  0  0  0  0  0  0  0  0  0  0
   23.8784  -20.6147  -12.4179 C   0  0  0  0  0  0  0  0  0  0  0  0
   24.6261  -20.8565  -11.1898 C   0  0  0  0  0  0  0  0  0  0  0  0
   23.9025  -20.8078  -10.1063 O   0  0  0  0  0  0  0  0  0  0  0  0
   25.9746  -21.1297  -10.9810 N   0  0  0  0  0  0  0  0  0  0  0  0
   26.7086  -22.0279  -11.9502 C   0  0  0  0  0  0  0  0  0  0  0  0
   27.8862  -21.1176  -12.2669 C   0  0  0  0  0  0  0  0  0  0  0  0
   28.0277  -20.1753  -11.0661 C   0  0  0  0  0  0  0  0  0  0  0  0
   27.0320  -20.8300  -10.0839 C   0  0  1  0  0  0  0  0  0  0  0  0
   26.8365  -20.0427   -8.9024 C   0  0  0  0  0  0  0  0  0  0  0  0
   26.2359  -18.9783   -8.8453 O   0  0  0  0  0  0  0  0  0  0  0  0
   29.7009  -21.3458   -4.0153 C   0  0  0  0  0  0  0  0  0  0  0  0
   29.2789  -20.7864   -5.3621 C   0  0  0  0  0  0  0  0  0  0  0  0
   27.8110  -20.4271   -5.2537 C   0  0  2  0  0  0  0  0  0  0  0  0
   27.0583  -21.7399   -5.1787 C   0  0  0  0  0  0  0  0  0  0  0  0
   27.3307  -19.7083   -6.5045 C   0  0  2  0  0  0  0  0  0  0  0  0
   27.3931  -20.5386   -7.6615 N   0  0  0  0  0  0  0  0  0  0  0  0
   28.2106  -18.5415   -6.6908 C   0  0  0  0  0  0  0  0  0  0  0  0
   28.1444  -17.4848   -5.8171 O   0  0  0  0  0  0  0  0  0  0  0  0
   29.0141  -18.5130   -7.6399 O   0  0  0  0  0  0  0  0  0  0  0  0
  2  1  1  0
  3  2  1  0
  4  3  2  0
  5  6  1  0
  5  3  1  0
  7  6  1  0
  8  9  1  0
  8  7  1  0
  9 10  1  1
  9  5  1  0
 10 17  1  0
 11 10  2  0
 12 13  1  0
 13 14  1  0
 14 15  1  6
 16 18  1  0
 16 14  1  0
 16 17  1  6
 18 19  1  0
 20 18  2  0
M  END
$$$$
