GPI.pdb
     RDKit          3D

 20 20  0  0  1  0  0  0  0  0999 V2000
   21.8861  -11.0044  -20.0072 N   0  0  0  0  0  0  0  0  0  0  0  0
   22.4476   -9.6273  -19.9197 C   0  0  0  0  0  0  0  0  0  0  0  0
   22.4079   -9.1838  -18.5313 C   0  0  0  0  0  0  0  0  0  0  0  0
   21.2857   -9.4431  -17.9203 O   0  0  0  0  0  0  0  0  0  0  0  0
   23.3614   -8.5344  -17.7529 N   0  0  0  0  0  0  0  0  0  0  0  0
   24.8075   -8.9666  -17.8370 C   0  0  0  0  0  0  0  0  0  0  0  0
   25.4416   -7.6103  -18.1094 C   0  0  0  0  0  0  0  0  0  0  0  0
   24.4675   -6.5675  -17.5494 C   0  0  0  0  0  0  0  0  0  0  0  0
   23.4786   -7.4884  -16.8017 C   0  0  1  0  0  0  0  0  0  0  0  0
   22.3411   -6.7736  -16.3025 C   0  0  0  0  0  0  0  0  0  0  0  0
   21.4989   -6.2064  -16.9850 O   0  0  0  0  0  0  0  0  0  0  0  0
   19.8264   -8.3721  -11.6552 C   0  0  0  0  0  0  0  0  0  0  0  0
   20.8541   -7.5658  -12.4291 C   0  0  0  0  0  0  0  0  0  0  0  0
   20.1121   -6.8484  -13.5383 C   0  0  2  0  0  0  0  0  0  0  0  0
   19.5949   -7.9269  -14.4683 C   0  0  0  0  0  0  0  0  0  0  0  0
   21.0551   -5.9742  -14.3499 C   0  0  2  0  0  0  0  0  0  0  0  0
   22.1611   -6.7094  -14.8676 N   0  0  0  0  0  0  0  0  0  0  0  0
   21.5473   -4.9217  -13.4441 C   0  0  0  0  0  0  0  0  0  0  0  0
   20.6918   -3.9464  -12.9952 O   0  0  0  0  0  0  0  0  0  0  0  0
   22.7383   -4.9161  -13.0854 O   0  0  0  0  0  0  0  0  0  0  0  0
  2  1  1  0
  3  2  1  0
  4  3  2  0
  5  6  1  0
  5  3  1  0
  7  6  1  0
  8  9  1  0
  8  7  1  0
  9 10  1  6
  9  5  1  0
 10 17  1  0
 11 10  2  0
 12 13  1  0
 13 14  1  0
 14 15  1  6
 16 18  1  0
 16 14  1  0
 16 17  1  1
 18 19  1  0
 20 18  2  0
M  END
$$$$
