GPI.pdb
     RDKit          3D

 20 20  0  0  1  0  0  0  0  0999 V2000
   29.3524  -22.0530  -17.9472 N   0  0  0  0  0  0  0  0  0  0  0  0
   28.4931  -20.8391  -17.8589 C   0  0  0  0  0  0  0  0  0  0  0  0
   28.1463  -20.6013  -16.4628 C   0  0  0  0  0  0  0  0  0  0  0  0
   28.2718  -21.6483  -15.6961 O   0  0  0  0  0  0  0  0  0  0  0  0
   27.7069  -19.4509  -15.8147 N   0  0  0  0  0  0  0  0  0  0  0  0
   28.4495  -18.1511  -16.0248 C   0  0  0  0  0  0  0  0  0  0  0  0
   27.2731  -17.2707  -16.4206 C   0  0  0  0  0  0  0  0  0  0  0  0
   26.0289  -17.9283  -15.8127 C   0  0  0  0  0  0  0  0  0  0  0  0
   26.6921  -19.0067  -14.9283 C   0  0  1  0  0  0  0  0  0  0  0  0
   25.7330  -19.9007  -14.3496 C   0  0  0  0  0  0  0  0  0  0  0  0
   24.9465  -20.6029  -14.9703 O   0  0  0  0  0  0  0  0  0  0  0  0
   25.7189  -20.5627   -8.6333 C   0  0  0  0  0  0  0  0  0  0  0  0
   25.2642  -20.0943  -10.0040 C   0  0  0  0  0  0  0  0  0  0  0  0
   25.2250  -21.3153  -10.9002 C   0  0  2  0  0  0  0  0  0  0  0  0
   26.6493  -21.8253  -10.9835 C   0  0  0  0  0  0  0  0  0  0  0  0
   24.8012  -20.9432  -12.3123 C   0  0  2  0  0  0  0  0  0  0  0  0
   25.6795  -19.9903  -12.9057 N   0  0  0  0  0  0  0  0  0  0  0  0
   23.4483  -20.3682  -12.2144 C   0  0  0  0  0  0  0  0  0  0  0  0
   22.3810  -21.1728  -11.9015 O   0  0  0  0  0  0  0  0  0  0  0  0
   23.2723  -19.1533  -12.4151 O   0  0  0  0  0  0  0  0  0  0  0  0
  2  1  1  0
  3  2  1  0
  4  3  2  0
  5  6  1  0
  5  3  1  0
  7  6  1  0
  8  9  1  0
  8  7  1  0
  9 10  1  6
  9  5  1  0
 10 17  1  0
 11 10  2  0
 12 13  1  0
 13 14  1  0
 14 15  1  6
 16 18  1  0
 16 14  1  0
 16 17  1  1
 18 19  1  0
 20 18  2  0
M  END
$$$$
