GPI.pdb
     RDKit          3D

 20 20  0  0  1  0  0  0  0  0999 V2000
   15.0149  -13.4070  -14.0458 N   0  0  0  0  0  0  0  0  0  0  0  0
   15.4748  -12.0882  -14.5645 C   0  0  0  0  0  0  0  0  0  0  0  0
   15.8525  -11.2395  -13.4407 C   0  0  0  0  0  0  0  0  0  0  0  0
   15.2274  -11.5152  -12.3302 O   0  0  0  0  0  0  0  0  0  0  0  0
   16.7635  -10.1910  -13.3545 N   0  0  0  0  0  0  0  0  0  0  0  0
   18.1769  -10.3932  -13.8511 C   0  0  0  0  0  0  0  0  0  0  0  0
   18.2748   -9.1881  -14.7751 C   0  0  0  0  0  0  0  0  0  0  0  0
   17.2555   -8.1697  -14.2520 C   0  0  0  0  0  0  0  0  0  0  0  0
   16.8518   -8.8428  -12.9220 C   0  0  1  0  0  0  0  0  0  0  0  0
   15.7613   -8.1692  -12.2807 C   0  0  0  0  0  0  0  0  0  0  0  0
   14.6901   -7.8893  -12.8013 O   0  0  0  0  0  0  0  0  0  0  0  0
   12.3990   -8.4081   -7.5944 C   0  0  0  0  0  0  0  0  0  0  0  0
   13.0227   -7.3815   -8.5230 C   0  0  0  0  0  0  0  0  0  0  0  0
   14.2564   -8.0207   -9.1271 C   0  0  2  0  0  0  0  0  0  0  0  0
   15.2863   -8.0852   -8.0177 C   0  0  0  0  0  0  0  0  0  0  0  0
   14.8402   -7.1487  -10.2275 C   0  0  2  0  0  0  0  0  0  0  0  0
   15.9288   -7.7807  -10.8963 N   0  0  0  0  0  0  0  0  0  0  0  0
   15.3126   -5.9098   -9.5851 C   0  0  0  0  0  0  0  0  0  0  0  0
   14.4287   -4.8936   -9.3196 O   0  0  0  0  0  0  0  0  0  0  0  0
   16.5126   -5.7839   -9.2828 O   0  0  0  0  0  0  0  0  0  0  0  0
  2  1  1  0
  3  2  1  0
  4  3  2  0
  5  6  1  0
  5  3  1  0
  7  6  1  0
  8  9  1  0
  8  7  1  0
  9 10  1  6
  9  5  1  0
 10 17  1  0
 11 10  2  0
 12 13  1  0
 13 14  1  0
 14 15  1  1
 16 18  1  0
 16 14  1  0
 16 17  1  1
 18 19  1  0
 20 18  2  0
M  END
$$$$
