RVI.pdb
     RDKit          3D

 27 26  0  0  1  0  0  0  0  0999 V2000
   25.2576  -28.9406  -18.1422 N   0  0  0  0  0  0  0  0  0  0  0  0
   25.8680  -29.1423  -16.8715 C   0  0  0  0  0  0  0  0  0  0  0  0
   25.2293  -29.7191  -15.8944 N   0  0  0  0  0  0  0  0  0  0  0  0
   27.1984  -28.7378  -16.5992 N   0  0  0  0  0  0  0  0  0  0  0  0
   28.0426  -28.1461  -17.6005 C   0  0  0  0  0  0  0  0  0  0  0  0
   27.6234  -26.8171  -18.0921 C   0  0  0  0  0  0  0  0  0  0  0  0
   27.3214  -25.7382  -17.1425 C   0  0  0  0  0  0  0  0  0  0  0  0
   26.7915  -24.4468  -17.6142 C   0  0  2  0  0  0  0  0  0  0  0  0
   27.3372  -24.0562  -18.8941 N   0  0  0  0  0  0  0  0  0  0  0  0
   27.1560  -23.3852  -16.6032 C   0  0  0  0  0  0  0  0  0  0  0  0
   28.1287  -23.4920  -15.8462 O   0  0  0  0  0  0  0  0  0  0  0  0
   25.7376  -29.8319  -14.9991 C   0  0  0  0  0  0  0  0  0  0  0  0
   26.5600  -18.5962  -15.7168 C   0  0  1  0  0  0  0  0  0  0  0  0
   26.4253  -19.8925  -16.4705 C   0  0  0  0  0  0  0  0  0  0  0  0
   25.2088  -19.9146  -17.3597 C   0  0  2  0  0  0  0  0  0  0  0  0
   26.5405  -21.1223  -15.6056 N   0  0  0  0  0  0  0  0  0  0  0  0
   26.3635  -22.2426  -16.5236 C   0  0  0  0  0  0  0  0  0  0  0  0
   25.5010  -21.2489  -14.5671 O   0  0  0  0  0  0  0  0  0  0  0  0
   24.4931  -21.9754  -14.8719 C   0  0  0  0  0  0  0  0  0  0  0  0
   26.5933  -21.6940   -9.3055 C   0  0  0  0  0  0  0  0  0  0  0  0
   25.8889  -21.8688  -10.6001 C   0  0  2  0  0  0  0  0  0  0  0  0
   24.8668  -20.8801  -10.9945 C   0  0  0  0  0  0  0  0  0  0  0  0
   23.7407  -20.9568   -9.9613 C   0  0  2  0  0  0  0  0  0  0  0  0
   24.3890  -20.9148  -12.3721 N   0  0  0  0  0  0  0  0  0  0  0  0
   25.5211  -20.6538  -13.3034 C   0  0  0  0  0  0  0  0  0  0  0  0
   23.2512  -20.0956  -12.8011 O   0  0  0  0  0  0  0  0  0  0  0  0
   23.4991  -18.8959  -13.2041 O   0  0  0  0  0  0  0  0  0  0  0  0
  2  1  1  0
  3  2  2  0
  4  2  1  0
  5  6  1  0
  5  4  1  0
  7  6  1  0
  8  9  1  6
  8  7  1  0
 10  8  1  0
 11 10  2  0
 13 12  1  6
 13 14  1  0
 15 13  1  0
 15 16  1  1
 16 10  1  0
 17 15  1  0
 18 17  2  0
 20 19  1  0
 20 21  1  0
 21 23  1  0
 21 22  1  6
 23 24  1  6
 24 17  1  0
 25 23  1  0
 25 27  1  0
 26 25  2  0
M  END
$$$$
