RVI.pdb
     RDKit          3D

 27 26  0  0  1  0  0  0  0  0999 V2000
   26.4338  -24.3642  -20.1236 N   0  0  0  0  0  0  0  0  0  0  0  0
   27.7166  -24.9824  -20.1065 C   0  0  0  0  0  0  0  0  0  0  0  0
   28.2579  -25.4551  -21.1923 N   0  0  0  0  0  0  0  0  0  0  0  0
   28.4776  -25.1119  -18.9183 N   0  0  0  0  0  0  0  0  0  0  0  0
   28.0213  -24.6043  -17.6535 C   0  0  0  0  0  0  0  0  0  0  0  0
   28.8480  -23.5370  -17.0525 C   0  0  0  0  0  0  0  0  0  0  0  0
   28.4009  -22.1389  -17.1005 C   0  0  0  0  0  0  0  0  0  0  0  0
   26.9778  -21.8100  -17.2947 C   0  0  2  0  0  0  0  0  0  0  0  0
   26.6565  -21.5254  -18.6746 N   0  0  0  0  0  0  0  0  0  0  0  0
   26.6567  -20.5833  -16.4738 C   0  0  0  0  0  0  0  0  0  0  0  0
   27.0843  -19.4585  -16.7614 O   0  0  0  0  0  0  0  0  0  0  0  0
   29.2104  -25.8536  -21.1104 C   0  0  0  0  0  0  0  0  0  0  0  0
   23.2094  -19.6235  -16.0324 C   0  0  1  0  0  0  0  0  0  0  0  0
   24.4122  -18.8733  -15.5257 C   0  0  0  0  0  0  0  0  0  0  0  0
   25.2165  -18.2588  -16.6422 C   0  0  1  0  0  0  0  0  0  0  0  0
   25.2609  -19.6546  -14.5545 N   0  0  0  0  0  0  0  0  0  0  0  0
   25.8468  -20.7283  -15.3501 C   0  0  0  0  0  0  0  0  0  0  0  0
   24.5147  -20.2927  -13.4539 O   0  0  0  0  0  0  0  0  0  0  0  0
   24.0504  -21.4595  -13.6974 C   0  0  0  0  0  0  0  0  0  0  0  0
   26.6053  -20.7035   -8.7176 C   0  0  0  0  0  0  0  0  0  0  0  0
   25.7667  -20.9486   -9.9174 C   0  0  2  0  0  0  0  0  0  0  0  0
   24.3600  -20.5029   -9.9069 C   0  0  0  0  0  0  0  0  0  0  0  0
   23.6685  -21.2153   -8.7424 C   0  0  2  0  0  0  0  0  0  0  0  0
   23.6152  -20.5862  -11.1581 N   0  0  0  0  0  0  0  0  0  0  0  0
   24.2747  -19.7424  -12.1926 C   0  0  0  0  0  0  0  0  0  0  0  0
   22.1750  -20.3152  -11.2030 O   0  0  0  0  0  0  0  0  0  0  0  0
   21.8039  -19.1023  -11.4360 O   0  0  0  0  0  0  0  0  0  0  0  0
  2  1  1  0
  3  2  2  0
  4  2  1  0
  5  6  1  0
  5  4  1  0
  7  6  1  0
  8  9  1  6
  8  7  1  0
 10  8  1  0
 11 10  2  0
 13 12  1  1
 13 14  1  0
 15 13  1  0
 15 16  1  6
 16 10  1  0
 17 15  1  0
 18 17  2  0
 20 19  1  0
 20 21  1  0
 21 23  1  0
 21 22  1  6
 23 24  1  6
 24 17  1  0
 25 23  1  0
 25 27  1  0
 26 25  2  0
M  END
$$$$
