RVI.pdb
     RDKit          3D

 27 26  0  0  1  0  0  0  0  0999 V2000
   22.5086  -20.4588   -9.8227 N   0  0  0  0  0  0  0  0  0  0  0  0
   23.7599  -20.7723   -9.2192 C   0  0  0  0  0  0  0  0  0  0  0  0
   23.8629  -20.9838   -7.9386 N   0  0  0  0  0  0  0  0  0  0  0  0
   24.9560  -20.8798   -9.9712 N   0  0  0  0  0  0  0  0  0  0  0  0
   24.9983  -20.6397  -11.3875 C   0  0  0  0  0  0  0  0  0  0  0  0
   26.3336  -20.7250  -12.0150 C   0  0  0  0  0  0  0  0  0  0  0  0
   26.4813  -20.5565  -13.4664 C   0  0  0  0  0  0  0  0  0  0  0  0
   25.6570  -21.3405  -14.4030 C   0  0  2  0  0  0  0  0  0  0  0  0
   26.0834  -22.7179  -14.4995 N   0  0  0  0  0  0  0  0  0  0  0  0
   25.7696  -20.7156  -15.7736 C   0  0  0  0  0  0  0  0  0  0  0  0
   26.8048  -20.7724  -16.4488 O   0  0  0  0  0  0  0  0  0  0  0  0
   24.8105  -21.1728   -7.5658 C   0  0  0  0  0  0  0  0  0  0  0  0
   23.1361  -19.5207  -19.6660 C   0  0  1  0  0  0  0  0  0  0  0  0
   23.4652  -20.1042  -18.3178 C   0  0  0  0  0  0  0  0  0  0  0  0
   22.2392  -20.3017  -17.4640 C   0  0  2  0  0  0  0  0  0  0  0  0
   24.5751  -19.3873  -17.5910 N   0  0  0  0  0  0  0  0  0  0  0  0
   24.6622  -20.0507  -16.2944 C   0  0  0  0  0  0  0  0  0  0  0  0
   24.3211  -17.9586  -17.3272 O   0  0  0  0  0  0  0  0  0  0  0  0
   23.4886  -17.7036  -16.3900 C   0  0  0  0  0  0  0  0  0  0  0  0
   27.4481  -14.4663  -15.4944 C   0  0  0  0  0  0  0  0  0  0  0  0
   26.2225  -15.1693  -15.9487 C   0  0  2  0  0  0  0  0  0  0  0  0
   25.5523  -14.7096  -17.1805 C   0  0  0  0  0  0  0  0  0  0  0  0
   25.2053  -13.2324  -16.9823 C   0  0  2  0  0  0  0  0  0  0  0  0
   24.4342  -15.5030  -17.6781 N   0  0  0  0  0  0  0  0  0  0  0  0
   24.8996  -16.8801  -18.0007 C   0  0  0  0  0  0  0  0  0  0  0  0
   23.6063  -15.0316  -18.7925 O   0  0  0  0  0  0  0  0  0  0  0  0
   22.5530  -14.3458  -18.5037 O   0  0  0  0  0  0  0  0  0  0  0  0
  2  1  1  0
  3  2  2  0
  4  2  1  0
  5  6  1  0
  5  4  1  0
  7  6  1  0
  8  9  1  6
  8  7  1  0
 10  8  1  0
 11 10  2  0
 13 12  1  6
 13 14  1  0
 15 13  1  0
 15 16  1  1
 16 10  1  0
 17 15  1  0
 18 17  2  0
 20 19  1  0
 20 21  1  0
 21 23  1  0
 21 22  1  6
 23 24  1  1
 24 17  1  0
 25 23  1  0
 25 27  1  0
 26 25  2  0
M  END
$$$$
