RVI.pdb
     RDKit          3D

 27 26  0  0  1  0  0  0  0  0999 V2000
   30.8192  -25.2327  -15.8609 N   0  0  0  0  0  0  0  0  0  0  0  0
   29.4559  -25.5814  -16.0797 C   0  0  0  0  0  0  0  0  0  0  0  0
   29.0183  -26.7872  -15.8562 N   0  0  0  0  0  0  0  0  0  0  0  0
   28.5005  -24.6428  -16.5423 N   0  0  0  0  0  0  0  0  0  0  0  0
   28.7766  -23.2341  -16.6102 C   0  0  0  0  0  0  0  0  0  0  0  0
   29.2450  -22.6090  -15.3557 C   0  0  0  0  0  0  0  0  0  0  0  0
   28.4430  -21.5651  -14.7046 C   0  0  0  0  0  0  0  0  0  0  0  0
   26.9811  -21.5181  -14.8827 C   0  0  2  0  0  0  0  0  0  0  0  0
   26.5965  -21.1654  -16.2303 N   0  0  0  0  0  0  0  0  0  0  0  0
   26.4209  -20.4749  -13.9448 C   0  0  0  0  0  0  0  0  0  0  0  0
   25.9974  -19.3818  -14.3405 O   0  0  0  0  0  0  0  0  0  0  0  0
   28.0272  -26.9803  -16.0867 C   0  0  0  0  0  0  0  0  0  0  0  0
   23.5965  -21.4112  -11.7655 C   0  0  1  0  0  0  0  0  0  0  0  0
   24.2274  -20.0568  -11.9497 C   0  0  0  0  0  0  0  0  0  0  0  0
   23.9705  -19.4866  -13.3209 C   0  0  1  0  0  0  0  0  0  0  0  0
   25.6811  -19.9958  -11.5536 N   0  0  0  0  0  0  0  0  0  0  0  0
   26.3809  -20.7587  -12.5818 C   0  0  0  0  0  0  0  0  0  0  0  0
   25.9974  -20.6276  -10.2590 O   0  0  0  0  0  0  0  0  0  0  0  0
   26.0994  -21.9027  -10.2706 C   0  0  0  0  0  0  0  0  0  0  0  0
   28.1178  -18.4979   -5.2913 C   0  0  0  0  0  0  0  0  0  0  0  0
   27.4480  -18.8469   -6.5690 C   0  0  2  0  0  0  0  0  0  0  0  0
   27.5769  -20.2219   -7.0889 C   0  0  0  0  0  0  0  0  0  0  0  0
   28.8925  -20.2897   -7.8676 C   0  0  1  0  0  0  0  0  0  0  0  0
   26.4440  -20.7767   -7.8210 N   0  0  0  0  0  0  0  0  0  0  0  0
   26.1904  -19.9660   -9.0439 C   0  0  0  0  0  0  0  0  0  0  0  0
   25.1571  -21.0147   -7.1600 O   0  0  0  0  0  0  0  0  0  0  0  0
   24.1488  -20.3105   -7.5480 O   0  0  0  0  0  0  0  0  0  0  0  0
  2  1  1  0
  3  2  2  0
  4  2  1  0
  5  6  1  0
  5  4  1  0
  7  6  1  0
  8  9  1  6
  8  7  1  0
 10  8  1  0
 11 10  2  0
 13 12  1  1
 13 14  1  0
 15 13  1  0
 15 16  1  6
 16 10  1  0
 17 15  1  0
 18 17  2  0
 20 19  1  0
 20 21  1  0
 21 23  1  0
 21 22  1  1
 23 24  1  6
 24 17  1  0
 25 23  1  0
 25 27  1  0
 26 25  2  0
M  END
$$$$
