RVI.pdb
     RDKit          3D

 27 26  0  0  1  0  0  0  0  0999 V2000
   25.4181  -25.2651  -17.9009 N   0  0  0  0  0  0  0  0  0  0  0  0
   26.2505  -25.7516  -16.8527 C   0  0  0  0  0  0  0  0  0  0  0  0
   27.2976  -26.4846  -17.1009 N   0  0  0  0  0  0  0  0  0  0  0  0
   25.9955  -25.4629  -15.4892 N   0  0  0  0  0  0  0  0  0  0  0  0
   25.4666  -24.1985  -15.0566 C   0  0  0  0  0  0  0  0  0  0  0  0
   26.3656  -23.0366  -15.2158 C   0  0  0  0  0  0  0  0  0  0  0  0
   25.9385  -21.7039  -14.7707 C   0  0  0  0  0  0  0  0  0  0  0  0
   24.6088  -21.5016  -14.1688 C   0  0  2  0  0  0  0  0  0  0  0  0
   23.6265  -21.0533  -15.1292 N   0  0  0  0  0  0  0  0  0  0  0  0
   24.7291  -20.4491  -13.0920 C   0  0  0  0  0  0  0  0  0  0  0  0
   24.5156  -19.2494  -13.3061 O   0  0  0  0  0  0  0  0  0  0  0  0
   27.8578  -26.7985  -16.2883 C   0  0  0  0  0  0  0  0  0  0  0  0
   23.3138  -18.7911   -9.2449 C   0  0  1  0  0  0  0  0  0  0  0  0
   23.5921  -19.6934  -10.4174 C   0  0  0  0  0  0  0  0  0  0  0  0
   22.6990  -20.9071  -10.4313 C   0  0  2  0  0  0  0  0  0  0  0  0
   25.0492  -20.0370  -10.5976 N   0  0  0  0  0  0  0  0  0  0  0  0
   25.0947  -20.8491  -11.8090 C   0  0  0  0  0  0  0  0  0  0  0  0
   25.6329  -20.8488   -9.5133 O   0  0  0  0  0  0  0  0  0  0  0  0
   25.8981  -22.0651   -9.8077 C   0  0  0  0  0  0  0  0  0  0  0  0
   29.5664  -21.0927  -10.6776 C   0  0  0  0  0  0  0  0  0  0  0  0
   28.4961  -21.3834   -9.6913 C   0  0  2  0  0  0  0  0  0  0  0  0
   28.3001  -20.4579   -8.5587 C   0  0  0  0  0  0  0  0  0  0  0  0
   29.6628  -20.2675   -7.8890 C   0  0  2  0  0  0  0  0  0  0  0  0
   27.2308  -20.7620   -7.6146 N   0  0  0  0  0  0  0  0  0  0  0  0
   25.9145  -20.4124   -8.2165 C   0  0  0  0  0  0  0  0  0  0  0  0
   27.2564  -20.2385   -6.2453 O   0  0  0  0  0  0  0  0  0  0  0  0
   26.8185  -19.0401   -6.0574 O   0  0  0  0  0  0  0  0  0  0  0  0
  2  1  1  0
  3  2  2  0
  4  2  1  0
  5  6  1  0
  5  4  1  0
  7  6  1  0
  8  9  1  6
  8  7  1  0
 10  8  1  0
 11 10  2  0
 13 12  1  6
 13 14  1  0
 15 13  1  0
 15 16  1  1
 16 10  1  0
 17 15  1  0
 18 17  2  0
 20 19  1  0
 20 21  1  0
 21 23  1  0
 21 22  1  6
 23 24  1  1
 24 17  1  0
 25 23  1  0
 25 27  1  0
 26 25  2  0
M  END
$$$$
