GAT.pdb
     RDKit          3D

 17 16  0  0  1  0  0  0  0  0999 V2000
   19.3980  -12.1141  -18.0910 N   0  0  0  0  0  0  0  0  0  0  0  0
   20.6821  -11.5086  -17.9297 C   0  0  0  0  0  0  0  0  0  0  0  0
   20.7988  -10.7449  -16.6566 C   0  0  0  0  0  0  0  0  0  0  0  0
   19.8049  -10.3225  -16.0143 O   0  0  0  0  0  0  0  0  0  0  0  0
   23.6296  -10.1718  -14.2397 C   0  0  0  0  0  0  0  0  0  0  0  0
   22.2649   -9.8115  -14.8445 C   0  0  2  0  0  0  0  0  0  0  0  0
   22.0962  -10.4721  -16.1285 N   0  0  0  0  0  0  0  0  0  0  0  0
   22.3001   -8.3442  -15.0698 C   0  0  0  0  0  0  0  0  0  0  0  0
   22.9752   -7.8924  -16.0105 O   0  0  0  0  0  0  0  0  0  0  0  0
   19.7815   -6.0578  -16.2450 C   0  0  0  0  0  0  0  0  0  0  0  0
   20.2522   -5.4930  -14.9244 C   0  0  1  0  0  0  0  0  0  0  0  0
   19.2957   -5.7439  -13.9601 O   0  0  0  0  0  0  0  0  0  0  0  0
   21.6169   -6.0391  -14.5590 C   0  0  2  0  0  0  0  0  0  0  0  0
   21.5844   -7.4332  -14.2419 N   0  0  0  0  0  0  0  0  0  0  0  0
   22.1515   -5.2719  -13.4289 C   0  0  0  0  0  0  0  0  0  0  0  0
   22.4979   -4.0594  -13.5142 O   0  0  0  0  0  0  0  0  0  0  0  0
   22.2904   -5.8945  -12.1960 O   0  0  0  0  0  0  0  0  0  0  0  0
  1  2  1  0
  2  3  1  0
  3  4  2  0
  6  5  1  6
  7  6  1  0
  7  3  1  0
  8  9  2  0
  8  6  1  0
 11 10  1  6
 11 13  1  0
 12 11  1  0
 13 15  1  0
 13 14  1  1
 14  8  1  0
 15 17  1  0
 16 15  2  0
M  END
$$$$
