GAT.pdb
     RDKit          3D

 17 16  0  0  1  0  0  0  0  0999 V2000
   16.5248  -12.3100  -14.9363 N   0  0  0  0  0  0  0  0  0  0  0  0
   16.1460  -10.9429  -14.7658 C   0  0  0  0  0  0  0  0  0  0  0  0
   17.1570   -9.9964  -15.3129 C   0  0  0  0  0  0  0  0  0  0  0  0
   18.2605  -10.3666  -15.7864 O   0  0  0  0  0  0  0  0  0  0  0  0
   17.0260   -6.3144  -16.1836 C   0  0  0  0  0  0  0  0  0  0  0  0
   17.7584   -7.6441  -15.9530 C   0  0  2  0  0  0  0  0  0  0  0  0
   16.8726   -8.5979  -15.3056 N   0  0  0  0  0  0  0  0  0  0  0  0
   18.8750   -7.3321  -15.0252 C   0  0  0  0  0  0  0  0  0  0  0  0
   18.6422   -7.2389  -13.8078 O   0  0  0  0  0  0  0  0  0  0  0  0
   22.3210   -9.2078  -14.8637 C   0  0  0  0  0  0  0  0  0  0  0  0
   22.5221   -7.7107  -14.9167 C   0  0  1  0  0  0  0  0  0  0  0  0
   22.9751   -7.3607  -16.1738 O   0  0  0  0  0  0  0  0  0  0  0  0
   21.2549   -6.9812  -14.5212 C   0  0  2  0  0  0  0  0  0  0  0  0
   20.2086   -7.1351  -15.4838 N   0  0  0  0  0  0  0  0  0  0  0  0
   21.5627   -5.5604  -14.3260 C   0  0  0  0  0  0  0  0  0  0  0  0
   21.0331   -4.6353  -15.0051 O   0  0  0  0  0  0  0  0  0  0  0  0
   22.4803   -5.1965  -13.3500 O   0  0  0  0  0  0  0  0  0  0  0  0
  1  2  1  0
  2  3  1  0
  3  4  2  0
  6  5  1  1
  7  6  1  0
  7  3  1  0
  8  9  2  0
  8  6  1  0
 11 10  1  6
 11 13  1  0
 12 11  1  0
 13 15  1  0
 13 14  1  6
 14  8  1  0
 15 17  1  0
 16 15  2  0
M  END
$$$$
