GAT.pdb
     RDKit          3D

 17 16  0  0  1  0  0  0  0  0999 V2000
   24.7503  -14.6725  -18.8735 N   0  0  0  0  0  0  0  0  0  0  0  0
   25.0739  -13.2815  -18.8296 C   0  0  0  0  0  0  0  0  0  0  0  0
   24.6072  -12.6247  -17.5773 C   0  0  0  0  0  0  0  0  0  0  0  0
   23.5035  -12.8829  -17.0353 O   0  0  0  0  0  0  0  0  0  0  0  0
   26.2153  -10.2482  -15.0961 C   0  0  0  0  0  0  0  0  0  0  0  0
   25.0172  -10.9496  -15.7524 C   0  0  2  0  0  0  0  0  0  0  0  0
   25.4437  -11.6525  -16.9513 N   0  0  0  0  0  0  0  0  0  0  0  0
   24.0840   -9.8645  -16.1483 C   0  0  0  0  0  0  0  0  0  0  0  0
   24.3611   -9.1570  -17.1319 O   0  0  0  0  0  0  0  0  0  0  0  0
   20.6436  -10.2042  -17.4104 C   0  0  0  0  0  0  0  0  0  0  0  0
   20.5898   -9.2500  -16.2394 C   0  0  1  0  0  0  0  0  0  0  0  0
   20.0625   -9.9080  -15.1454 O   0  0  0  0  0  0  0  0  0  0  0  0
   21.9542   -8.6511  -15.9675 C   0  0  2  0  0  0  0  0  0  0  0  0
   22.8778   -9.6055  -15.4372 N   0  0  0  0  0  0  0  0  0  0  0  0
   21.8044   -7.5204  -15.0452 C   0  0  0  0  0  0  0  0  0  0  0  0
   21.1641   -6.4694  -15.3330 O   0  0  0  0  0  0  0  0  0  0  0  0
   22.3897   -7.5924  -13.7885 O   0  0  0  0  0  0  0  0  0  0  0  0
  1  2  1  0
  2  3  1  0
  3  4  2  0
  6  5  1  6
  7  6  1  0
  7  3  1  0
  8  9  2  0
  8  6  1  0
 11 10  1  6
 11 13  1  0
 12 11  1  0
 13 15  1  0
 13 14  1  1
 14  8  1  0
 15 17  1  0
 16 15  2  0
M  END
$$$$
