GAT.pdb
     RDKit          3D

 17 16  0  0  1  0  0  0  0  0999 V2000
   27.5857  -12.8918  -20.0524 N   0  0  0  0  0  0  0  0  0  0  0  0
   26.9513  -11.6116  -20.0668 C   0  0  0  0  0  0  0  0  0  0  0  0
   26.0632  -11.3998  -18.8904 C   0  0  0  0  0  0  0  0  0  0  0  0
   24.8703  -11.7922  -18.8496 O   0  0  0  0  0  0  0  0  0  0  0  0
   26.7166  -10.2263  -15.3493 C   0  0  0  0  0  0  0  0  0  0  0  0
   25.8017  -10.6048  -16.5231 C   0  0  2  0  0  0  0  0  0  0  0  0
   26.5785  -10.7195  -17.7466 N   0  0  0  0  0  0  0  0  0  0  0  0
   24.8508   -9.4741  -16.6721 C   0  0  0  0  0  0  0  0  0  0  0  0
   25.2541   -8.4045  -17.1599 O   0  0  0  0  0  0  0  0  0  0  0  0
   21.6264   -9.3741  -18.6842 C   0  0  0  0  0  0  0  0  0  0  0  0
   21.3355   -8.9460  -17.2641 C   0  0  1  0  0  0  0  0  0  0  0  0
   20.6986   -9.9783  -16.6034 O   0  0  0  0  0  0  0  0  0  0  0  0
   22.6008   -8.4903  -16.5674 C   0  0  2  0  0  0  0  0  0  0  0  0
   23.4873   -9.5733  -16.2736 N   0  0  0  0  0  0  0  0  0  0  0  0
   22.2389   -7.7800  -15.3361 C   0  0  0  0  0  0  0  0  0  0  0  0
   22.5262   -8.2028  -14.1802 O   0  0  0  0  0  0  0  0  0  0  0  0
   21.5453   -6.5810  -15.4276 O   0  0  0  0  0  0  0  0  0  0  0  0
  1  2  1  0
  2  3  1  0
  3  4  2  0
  6  5  1  1
  7  6  1  0
  7  3  1  0
  8  9  2  0
  8  6  1  0
 11 10  1  6
 11 13  1  0
 12 11  1  0
 13 15  1  0
 13 14  1  1
 14  8  1  0
 15 17  1  0
 16 15  2  0
M  END
$$$$
