GAT.pdb
     RDKit          3D

 17 16  0  0  1  0  0  0  0  0999 V2000
   23.8853  -21.4631   -8.2664 N   0  0  0  0  0  0  0  0  0  0  0  0
   23.5546  -20.4150   -9.1794 C   0  0  0  0  0  0  0  0  0  0  0  0
   23.7796  -20.8013  -10.5998 C   0  0  0  0  0  0  0  0  0  0  0  0
   24.6141  -21.6721  -10.9519 O   0  0  0  0  0  0  0  0  0  0  0  0
   21.9273  -20.0391  -13.8139 C   0  0  0  0  0  0  0  0  0  0  0  0
   23.1263  -20.5671  -13.0129 C   0  0  2  0  0  0  0  0  0  0  0  0
   23.0176  -20.1595  -11.6217 N   0  0  0  0  0  0  0  0  0  0  0  0
   24.3225  -19.9152  -13.6036 C   0  0  0  0  0  0  0  0  0  0  0  0
   24.5537  -18.7227  -13.3407 O   0  0  0  0  0  0  0  0  0  0  0  0
   27.8924  -20.5899  -12.9860 C   0  0  0  0  0  0  0  0  0  0  0  0
   27.6664  -20.7042  -14.4761 C   0  0  1  0  0  0  0  0  0  0  0  0
   27.6383  -22.0399  -14.8268 O   0  0  0  0  0  0  0  0  0  0  0  0
   26.4155  -19.9580  -14.8916 C   0  0  2  0  0  0  0  0  0  0  0  0
   25.2176  -20.6120  -14.4644 N   0  0  0  0  0  0  0  0  0  0  0  0
   26.4165  -19.7984  -16.3497 C   0  0  0  0  0  0  0  0  0  0  0  0
   25.5137  -20.2663  -17.1004 O   0  0  0  0  0  0  0  0  0  0  0  0
   27.4547  -19.1006  -16.9515 O   0  0  0  0  0  0  0  0  0  0  0  0
  1  2  1  0
  2  3  1  0
  3  4  2  0
  6  5  1  6
  7  6  1  0
  7  3  1  0
  8  9  2  0
  8  6  1  0
 11 10  1  1
 11 13  1  0
 12 11  1  0
 13 15  1  0
 13 14  1  6
 14  8  1  0
 15 17  1  0
 16 15  2  0
M  END
$$$$
