GAT.pdb
     RDKit          3D

 17 16  0  0  1  0  0  0  0  0999 V2000
   23.7995  -11.5210  -19.8212 N   0  0  0  0  0  0  0  0  0  0  0  0
   24.3484  -11.0350  -18.5949 C   0  0  0  0  0  0  0  0  0  0  0  0
   23.3574  -10.2713  -17.7873 C   0  0  0  0  0  0  0  0  0  0  0  0
   22.5374   -9.4627  -18.2899 O   0  0  0  0  0  0  0  0  0  0  0  0
   22.2889  -10.4219  -14.1517 C   0  0  0  0  0  0  0  0  0  0  0  0
   22.3440   -9.7765  -15.5440 C   0  0  2  0  0  0  0  0  0  0  0  0
   23.3259  -10.4566  -16.3726 N   0  0  0  0  0  0  0  0  0  0  0  0
   22.7994   -8.3807  -15.3219 C   0  0  0  0  0  0  0  0  0  0  0  0
   24.0083   -8.1611  -15.1351 O   0  0  0  0  0  0  0  0  0  0  0  0
   22.2675   -5.2492  -17.5337 C   0  0  0  0  0  0  0  0  0  0  0  0
   21.8095   -4.9679  -16.1210 C   0  0  1  0  0  0  0  0  0  0  0  0
   20.4287   -4.9571  -16.0884 O   0  0  0  0  0  0  0  0  0  0  0  0
   22.4156   -5.9591  -15.1492 C   0  0  2  0  0  0  0  0  0  0  0  0
   21.8951   -7.2807  -15.3155 N   0  0  0  0  0  0  0  0  0  0  0  0
   22.1828   -5.4886  -13.7795 C   0  0  0  0  0  0  0  0  0  0  0  0
   21.4461   -6.0966  -12.9519 O   0  0  0  0  0  0  0  0  0  0  0  0
   22.7955   -4.3175  -13.3549 O   0  0  0  0  0  0  0  0  0  0  0  0
  1  2  1  0
  2  3  1  0
  3  4  2  0
  6  5  1  1
  7  6  1  0
  7  3  1  0
  8  9  2  0
  8  6  1  0
 11 10  1  6
 11 13  1  0
 12 11  1  0
 13 15  1  0
 13 14  1  1
 14  8  1  0
 15 17  1  0
 16 15  2  0
M  END
$$$$
