CCA.pdb
     RDKit          3D

 18 17  0  0  1  0  0  0  0  0999 V2000
    9.5617  -16.7531   18.4496 N   0  0  0  0  0  0  0  0  0  0  0  0
    8.3803  -16.6198   19.2738 C   0  0  1  0  0  0  0  0  0  0  0  0
    7.6052  -17.9237   19.3336 C   0  0  0  0  0  0  0  0  0  0  0  0
    6.7477  -18.1781   17.7602 S   0  0  0  0  0  0  0  0  0  0  0  0
    8.7984  -16.2702   20.6459 C   0  0  0  0  0  0  0  0  0  0  0  0
    9.9321  -16.6381   21.0322 O   0  0  0  0  0  0  0  0  0  0  0  0
    7.9195  -15.5342   21.4886 N   0  0  0  0  0  0  0  0  0  0  0  0
    8.3479  -15.2391   22.8158 C   0  0  1  0  0  0  0  0  0  0  0  0
    7.3591  -14.2768   23.4358 C   0  0  0  0  0  0  0  0  0  0  0  0
    7.8896  -13.9489   25.1308 S   0  0  0  0  0  0  0  0  0  0  0  0
    8.4289  -16.4339   23.6915 C   0  0  0  0  0  0  0  0  0  0  0  0
    7.4313  -17.1677   23.9015 O   0  0  0  0  0  0  0  0  0  0  0  0
   10.9843  -18.7175   24.4681 C   0  0  0  0  0  0  0  0  0  0  0  0
    9.8810  -17.8991   25.1441 C   0  0  2  0  0  0  0  0  0  0  0  0
    9.6602  -16.7411   24.2957 N   0  0  0  0  0  0  0  0  0  0  0  0
   10.4052  -17.4191   26.4486 C   0  0  0  0  0  0  0  0  0  0  0  0
   10.6389  -18.3547   27.4537 O   0  0  0  0  0  0  0  0  0  0  0  0
   10.6416  -16.2207   26.6752 O   0  0  0  0  0  0  0  0  0  0  0  0
  2  1  1  6
  2  3  1  0
  3  4  1  0
  5  2  1  0
  5  6  2  0
  7  5  1  0
  8  7  1  0
  8  9  1  1
 10  9  1  0
 11  8  1  0
 12 11  2  0
 14 13  1  6
 14 15  1  0
 14 16  1  0
 15 11  1  0
 16 17  1  0
 18 16  2  0
M  END
$$$$
