CCA.pdb
     RDKit          3D

 18 17  0  0  1  0  0  0  0  0999 V2000
    8.4188  -14.7856   20.3906 N   0  0  0  0  0  0  0  0  0  0  0  0
    7.4719  -15.0580   21.4499 C   0  0  1  0  0  0  0  0  0  0  0  0
    7.1028  -16.5300   21.4885 C   0  0  0  0  0  0  0  0  0  0  0  0
    6.0831  -16.9251   20.0465 S   0  0  0  0  0  0  0  0  0  0  0  0
    8.0940  -14.7060   22.7418 C   0  0  0  0  0  0  0  0  0  0  0  0
    9.2984  -15.0016   22.9200 O   0  0  0  0  0  0  0  0  0  0  0  0
    7.3254  -14.0487   23.7425 N   0  0  0  0  0  0  0  0  0  0  0  0
    7.9222  -13.8358   25.0195 C   0  0  1  0  0  0  0  0  0  0  0  0
    7.0168  -12.9323   25.8270 C   0  0  0  0  0  0  0  0  0  0  0  0
    7.7935  -12.6591   27.4345 S   0  0  0  0  0  0  0  0  0  0  0  0
    8.1253  -15.0847   25.7939 C   0  0  0  0  0  0  0  0  0  0  0  0
    7.1588  -15.7941   26.1688 O   0  0  0  0  0  0  0  0  0  0  0  0
   11.0892  -17.1902   26.2340 C   0  0  0  0  0  0  0  0  0  0  0  0
    9.7744  -16.6856   26.8347 C   0  0  2  0  0  0  0  0  0  0  0  0
    9.4389  -15.4727   26.1096 N   0  0  0  0  0  0  0  0  0  0  0  0
   10.0330  -16.3173   28.2505 C   0  0  0  0  0  0  0  0  0  0  0  0
   10.1141  -14.9663   28.5797 O   0  0  0  0  0  0  0  0  0  0  0  0
   10.1788  -17.1650   29.1469 O   0  0  0  0  0  0  0  0  0  0  0  0
  2  1  1  6
  2  3  1  0
  3  4  1  0
  5  2  1  0
  5  6  2  0
  7  5  1  0
  8  7  1  0
  8  9  1  1
 10  9  1  0
 11  8  1  0
 12 11  2  0
 14 13  1  6
 14 15  1  0
 14 16  1  0
 15 11  1  0
 16 17  1  0
 18 16  2  0
M  END
$$$$
