CCA.pdb
     RDKit          3D

 18 17  0  0  1  0  0  0  0  0999 V2000
   -1.2136  -26.2562   27.4159 N   0  0  0  0  0  0  0  0  0  0  0  0
   -2.6403  -26.4946   27.4281 C   0  0  1  0  0  0  0  0  0  0  0  0
   -2.9877  -27.6900   28.2970 C   0  0  0  0  0  0  0  0  0  0  0  0
   -2.2835  -29.1853   27.5598 S   0  0  0  0  0  0  0  0  0  0  0  0
   -3.3132  -25.3067   27.9902 C   0  0  0  0  0  0  0  0  0  0  0  0
   -3.1572  -25.0577   29.2082 O   0  0  0  0  0  0  0  0  0  0  0  0
   -4.1125  -24.4817   27.1508 N   0  0  0  0  0  0  0  0  0  0  0  0
   -4.7669  -23.3583   27.7356 C   0  0  1  0  0  0  0  0  0  0  0  0
   -4.7303  -22.2141   26.7468 C   0  0  0  0  0  0  0  0  0  0  0  0
   -3.1235  -21.4027   26.8939 S   0  0  0  0  0  0  0  0  0  0  0  0
   -6.1866  -23.6139   28.0818 C   0  0  0  0  0  0  0  0  0  0  0  0
   -6.9770  -24.1571   27.2705 O   0  0  0  0  0  0  0  0  0  0  0  0
   -7.8618  -23.6288   31.3682 C   0  0  0  0  0  0  0  0  0  0  0  0
   -7.9855  -23.5029   29.8473 C   0  0  2  0  0  0  0  0  0  0  0  0
   -6.6462  -23.2334   29.3545 N   0  0  0  0  0  0  0  0  0  0  0  0
   -8.8293  -22.3153   29.5564 C   0  0  0  0  0  0  0  0  0  0  0  0
   -8.2105  -21.0715   29.4549 O   0  0  0  0  0  0  0  0  0  0  0  0
  -10.0596  -22.3898   29.4013 O   0  0  0  0  0  0  0  0  0  0  0  0
  2  1  1  1
  2  3  1  0
  3  4  1  0
  5  2  1  0
  5  6  2  0
  7  5  1  0
  8  7  1  0
  8  9  1  6
 10  9  1  0
 11  8  1  0
 12 11  2  0
 14 13  1  1
 14 15  1  0
 14 16  1  0
 15 11  1  0
 16 17  1  0
 18 16  2  0
M  END
$$$$
