CCA.pdb
     RDKit          3D

 18 17  0  0  1  0  0  0  0  0999 V2000
    5.0720  -13.4037   26.2693 N   0  0  0  0  0  0  0  0  0  0  0  0
    6.2885  -13.0982   25.5484 C   0  0  1  0  0  0  0  0  0  0  0  0
    7.2429  -12.2863   26.4055 C   0  0  0  0  0  0  0  0  0  0  0  0
    6.5982  -10.6046   26.5832 S   0  0  0  0  0  0  0  0  0  0  0  0
    6.9565  -14.3652   25.1904 C   0  0  0  0  0  0  0  0  0  0  0  0
    7.0138  -15.2702   26.0550 O   0  0  0  0  0  0  0  0  0  0  0  0
    7.5130  -14.5304   23.8915 N   0  0  0  0  0  0  0  0  0  0  0  0
    8.2494  -15.7205   23.6199 C   0  0  1  0  0  0  0  0  0  0  0  0
    8.6670  -15.7045   22.1662 C   0  0  0  0  0  0  0  0  0  0  0  0
    9.4781  -14.1246   21.8376 S   0  0  0  0  0  0  0  0  0  0  0  0
    9.4757  -15.8590   24.4432 C   0  0  0  0  0  0  0  0  0  0  0  0
   10.0479  -14.8617   24.9491 O   0  0  0  0  0  0  0  0  0  0  0  0
   10.6085  -17.1326   26.9609 C   0  0  0  0  0  0  0  0  0  0  0  0
   11.1106  -17.4326   25.5460 C   0  0  2  0  0  0  0  0  0  0  0  0
   10.0005  -17.1457   24.6546 N   0  0  0  0  0  0  0  0  0  0  0  0
   11.4001  -18.8876   25.4651 C   0  0  0  0  0  0  0  0  0  0  0  0
   10.6216  -19.6721   24.6174 O   0  0  0  0  0  0  0  0  0  0  0  0
   12.3058  -19.4276   26.1220 O   0  0  0  0  0  0  0  0  0  0  0  0
  2  1  1  1
  2  3  1  0
  3  4  1  0
  5  2  1  0
  5  6  2  0
  7  5  1  0
  8  7  1  0
  8  9  1  6
 10  9  1  0
 11  8  1  0
 12 11  2  0
 14 13  1  1
 14 15  1  0
 14 16  1  0
 15 11  1  0
 16 17  1  0
 18 16  2  0
M  END
$$$$
