CCA.pdb
     RDKit          3D

 18 17  0  0  1  0  0  0  0  0999 V2000
    8.6962  -14.8962   20.4074 N   0  0  0  0  0  0  0  0  0  0  0  0
    7.5647  -15.0165   21.3006 C   0  0  1  0  0  0  0  0  0  0  0  0
    6.9364  -16.3952   21.2049 C   0  0  0  0  0  0  0  0  0  0  0  0
    6.2754  -16.6326   19.5370 S   0  0  0  0  0  0  0  0  0  0  0  0
    8.0338  -14.8203   22.6867 C   0  0  0  0  0  0  0  0  0  0  0  0
    9.1264  -15.3344   23.0213 O   0  0  0  0  0  0  0  0  0  0  0  0
    7.2484  -14.0635   23.6002 N   0  0  0  0  0  0  0  0  0  0  0  0
    7.6597  -14.0158   24.9643 C   0  0  1  0  0  0  0  0  0  0  0  0
    6.8129  -12.9901   25.6847 C   0  0  0  0  0  0  0  0  0  0  0  0
    7.3575  -12.9283   27.4055 S   0  0  0  0  0  0  0  0  0  0  0  0
    7.5077  -15.3095   25.6743 C   0  0  0  0  0  0  0  0  0  0  0  0
    6.4002  -15.8980   25.7452 O   0  0  0  0  0  0  0  0  0  0  0  0
    8.9347  -18.2346   26.0323 C   0  0  0  0  0  0  0  0  0  0  0  0
    8.6191  -17.1209   27.0343 C   0  0  2  0  0  0  0  0  0  0  0  0
    8.6409  -15.8805   26.2790 N   0  0  0  0  0  0  0  0  0  0  0  0
    9.7246  -17.0742   28.0256 C   0  0  0  0  0  0  0  0  0  0  0  0
    9.8985  -18.1634   28.8762 O   0  0  0  0  0  0  0  0  0  0  0  0
   10.4957  -16.1050   28.1235 O   0  0  0  0  0  0  0  0  0  0  0  0
  2  1  1  6
  2  3  1  0
  3  4  1  0
  5  2  1  0
  5  6  2  0
  7  5  1  0
  8  7  1  0
  8  9  1  1
 10  9  1  0
 11  8  1  0
 12 11  2  0
 14 13  1  6
 14 15  1  0
 14 16  1  0
 15 11  1  0
 16 17  1  0
 18 16  2  0
M  END
$$$$
