MGR.pdb
     RDKit          3D

 24 23  0  0  1  0  0  0  0  0999 V2000
   20.7814  -13.9276  -17.5379 C   0  0  0  0  0  0  0  0  0  0  0  0
   20.7685  -15.6359  -18.1478 S   0  0  0  0  0  0  0  0  0  0  0  0
   22.2896  -16.4800  -17.6550 C   0  0  0  0  0  0  0  0  0  0  0  0
   23.2809  -15.4436  -17.1656 C   0  0  0  0  0  0  0  0  0  0  0  0
   24.6415  -15.6707  -17.8113 C   0  0  2  0  0  0  0  0  0  0  0  0
   24.6587  -16.8569  -18.6125 N   0  0  0  0  0  0  0  0  0  0  0  0
   25.6754  -15.8154  -16.7232 C   0  0  0  0  0  0  0  0  0  0  0  0
   25.8299  -14.9832  -15.8109 O   0  0  0  0  0  0  0  0  0  0  0  0
   26.5451  -16.9760  -16.7217 N   0  0  0  0  0  0  0  0  0  0  0  0
   27.5095  -17.1623  -15.6805 C   0  0  0  0  0  0  0  0  0  0  0  0
   27.3657  -18.4396  -14.9952 C   0  0  0  0  0  0  0  0  0  0  0  0
   28.1881  -18.6428  -14.0260 O   0  0  0  0  0  0  0  0  0  0  0  0
   26.5918  -20.5958   -9.3224 N   0  0  0  0  0  0  0  0  0  0  0  0
   25.2891  -20.9655   -8.8452 C   0  0  0  0  0  0  0  0  0  0  0  0
   25.0953  -21.5106   -7.7136 N   0  0  0  0  0  0  0  0  0  0  0  0
   24.1643  -20.7016   -9.6924 N   0  0  0  0  0  0  0  0  0  0  0  0
   24.2701  -20.0244  -10.9357 C   0  0  0  0  0  0  0  0  0  0  0  0
   25.1289  -20.6221  -11.9987 C   0  0  0  0  0  0  0  0  0  0  0  0
   25.2424  -19.9154  -13.2918 C   0  0  0  0  0  0  0  0  0  0  0  0
   26.0886  -20.5043  -14.3408 C   0  0  2  0  0  0  0  0  0  0  0  0
   26.4192  -19.4288  -15.3105 N   0  0  0  0  0  0  0  0  0  0  0  0
   25.4061  -21.5910  -15.0901 C   0  0  0  0  0  0  0  0  0  0  0  0
   24.4911  -21.4269  -15.9305 O   0  0  0  0  0  0  0  0  0  0  0  0
   25.8036  -22.9143  -14.8450 O   0  0  0  0  0  0  0  0  0  0  0  0
  1  2  1  0
  3  2  1  0
  4  3  1  0
  5  4  1  0
  5  6  1  1
  7  5  1  0
  8  7  2  0
  9  7  1  0
 10  9  1  0
 11 21  1  0
 11 10  1  0
 12 11  2  0
 14 13  1  0
 15 14  2  0
 16 14  1  0
 17 16  1  0
 18 17  1  0
 20 19  1  1
 19 18  1  0
 20 21  1  0
 22 20  1  0
 23 22  2  0
 24 22  1  0
M  END
$$$$
