MGR.pdb
     RDKit          3D

 24 23  0  0  1  0  0  0  0  0999 V2000
   27.5944  -17.4026  -17.7472 C   0  0  0  0  0  0  0  0  0  0  0  0
   28.4351  -18.9828  -18.0419 S   0  0  0  0  0  0  0  0  0  0  0  0
   27.6457  -20.2925  -17.0771 C   0  0  0  0  0  0  0  0  0  0  0  0
   26.6889  -19.6559  -16.0896 C   0  0  0  0  0  0  0  0  0  0  0  0
   26.4451  -20.5934  -14.9142 C   0  0  2  0  0  0  0  0  0  0  0  0
   26.1448  -21.9239  -15.3484 N   0  0  0  0  0  0  0  0  0  0  0  0
   25.2738  -20.0761  -14.1176 C   0  0  0  0  0  0  0  0  0  0  0  0
   25.2393  -18.9404  -13.6101 O   0  0  0  0  0  0  0  0  0  0  0  0
   24.1184  -20.9302  -13.9202 N   0  0  0  0  0  0  0  0  0  0  0  0
   22.9947  -20.4717  -13.1615 C   0  0  0  0  0  0  0  0  0  0  0  0
   21.9470  -21.4758  -13.0352 C   0  0  0  0  0  0  0  0  0  0  0  0
   22.1121  -22.5392  -13.7417 O   0  0  0  0  0  0  0  0  0  0  0  0
   18.8514  -25.5945   -7.2067 N   0  0  0  0  0  0  0  0  0  0  0  0
   17.7820  -24.6381   -7.1496 C   0  0  0  0  0  0  0  0  0  0  0  0
   17.0273  -24.5031   -6.1360 N   0  0  0  0  0  0  0  0  0  0  0  0
   17.5668  -23.8032   -8.2938 N   0  0  0  0  0  0  0  0  0  0  0  0
   18.1384  -24.0666   -9.5663 C   0  0  0  0  0  0  0  0  0  0  0  0
   17.8423  -23.1265  -10.6859 C   0  0  0  0  0  0  0  0  0  0  0  0
   18.8690  -22.1311  -11.0591 C   0  0  0  0  0  0  0  0  0  0  0  0
   19.8369  -22.4822  -12.1094 C   0  0  2  0  0  0  0  0  0  0  0  0
   20.8088  -21.3643  -12.2191 N   0  0  0  0  0  0  0  0  0  0  0  0
   19.2034  -22.6595  -13.4419 C   0  0  0  0  0  0  0  0  0  0  0  0
   18.9012  -23.7602  -13.9592 O   0  0  0  0  0  0  0  0  0  0  0  0
   18.9182  -21.5115  -14.1969 O   0  0  0  0  0  0  0  0  0  0  0  0
  1  2  1  0
  3  2  1  0
  4  3  1  0
  5  4  1  0
  5  6  1  6
  7  5  1  0
  8  7  2  0
  9  7  1  0
 10  9  1  0
 11 21  1  0
 11 10  1  0
 12 11  2  0
 14 13  1  0
 15 14  2  0
 16 14  1  0
 17 16  1  0
 18 17  1  0
 20 19  1  1
 19 18  1  0
 20 21  1  0
 22 20  1  0
 23 22  2  0
 24 22  1  0
M  END
$$$$
