MGR.pdb
     RDKit          3D

 24 23  0  0  1  0  0  0  0  0999 V2000
   15.4746  -26.0729    1.9040 C   0  0  0  0  0  0  0  0  0  0  0  0
   14.4365  -24.6738    2.4094 S   0  0  0  0  0  0  0  0  0  0  0  0
   15.2359  -23.1159    1.9584 C   0  0  0  0  0  0  0  0  0  0  0  0
   14.4106  -21.9714    2.5108 C   0  0  0  0  0  0  0  0  0  0  0  0
   15.0412  -20.6375    2.1325 C   0  0  2  0  0  0  0  0  0  0  0  0
   16.4649  -20.7352    2.0195 N   0  0  0  0  0  0  0  0  0  0  0  0
   14.7161  -19.6274    3.2039 C   0  0  0  0  0  0  0  0  0  0  0  0
   13.5539  -19.3371    3.5408 O   0  0  0  0  0  0  0  0  0  0  0  0
   15.7988  -18.9475    3.8888 N   0  0  0  0  0  0  0  0  0  0  0  0
   15.5232  -17.9930    4.9192 C   0  0  0  0  0  0  0  0  0  0  0  0
   16.7303  -17.4279    5.5073 C   0  0  0  0  0  0  0  0  0  0  0  0
   17.8379  -17.9327    5.0885 O   0  0  0  0  0  0  0  0  0  0  0  0
   19.6123  -11.1658    6.1126 N   0  0  0  0  0  0  0  0  0  0  0  0
   20.8585  -11.2453    6.8213 C   0  0  0  0  0  0  0  0  0  0  0  0
   21.7087  -10.3008    6.8348 N   0  0  0  0  0  0  0  0  0  0  0  0
   21.1442  -12.4494    7.5431 N   0  0  0  0  0  0  0  0  0  0  0  0
   20.1408  -13.3665    7.9525 C   0  0  0  0  0  0  0  0  0  0  0  0
   19.0457  -13.6948    6.9944 C   0  0  0  0  0  0  0  0  0  0  0  0
   17.9554  -14.5828    7.4493 C   0  0  0  0  0  0  0  0  0  0  0  0
   18.0367  -16.0153    7.1258 C   0  0  2  0  0  0  0  0  0  0  0  0
   16.7631  -16.4020    6.4665 N   0  0  0  0  0  0  0  0  0  0  0  0
   18.1971  -16.8706    8.3304 C   0  0  0  0  0  0  0  0  0  0  0  0
   17.2591  -17.3173    9.0313 O   0  0  0  0  0  0  0  0  0  0  0  0
   19.4980  -17.2109    8.7318 O   0  0  0  0  0  0  0  0  0  0  0  0
  1  2  1  0
  3  2  1  0
  4  3  1  0
  5  4  1  0
  5  6  1  1
  7  5  1  0
  8  7  2  0
  9  7  1  0
 10  9  1  0
 11 21  1  0
 11 10  1  0
 12 11  2  0
 14 13  1  0
 15 14  2  0
 16 14  1  0
 17 16  1  0
 18 17  1  0
 20 19  1  1
 19 18  1  0
 20 21  1  0
 22 20  1  0
 23 22  2  0
 24 22  1  0
M  END
$$$$
