MGR.pdb
     RDKit          3D

 24 23  0  0  1  0  0  0  0  0999 V2000
   29.4010  -19.3550   -3.4002 C   0  0  0  0  0  0  0  0  0  0  0  0
   29.3650  -20.0803   -5.0624 S   0  0  0  0  0  0  0  0  0  0  0  0
   27.7373  -19.8329   -5.8100 C   0  0  0  0  0  0  0  0  0  0  0  0
   27.7355  -20.4680   -7.1857 C   0  0  0  0  0  0  0  0  0  0  0  0
   26.3448  -20.3855   -7.8015 C   0  0  2  0  0  0  0  0  0  0  0  0
   25.3260  -20.7527   -6.8654 N   0  0  0  0  0  0  0  0  0  0  0  0
   26.2780  -21.3312   -8.9742 C   0  0  0  0  0  0  0  0  0  0  0  0
   26.6394  -22.5206   -8.9157 O   0  0  0  0  0  0  0  0  0  0  0  0
   25.7703  -20.8500  -10.2446 N   0  0  0  0  0  0  0  0  0  0  0  0
   26.4619  -19.8239  -10.9639 C   0  0  0  0  0  0  0  0  0  0  0  0
   25.8551  -19.5275  -12.2546 C   0  0  0  0  0  0  0  0  0  0  0  0
   26.4648  -18.6414  -12.9619 O   0  0  0  0  0  0  0  0  0  0  0  0
   24.5669  -19.2981  -19.8206 N   0  0  0  0  0  0  0  0  0  0  0  0
   25.9191  -18.9558  -19.4801 C   0  0  0  0  0  0  0  0  0  0  0  0
   26.6068  -18.1139  -20.1383 N   0  0  0  0  0  0  0  0  0  0  0  0
   26.5082  -19.5992  -18.3436 N   0  0  0  0  0  0  0  0  0  0  0  0
   25.8182  -20.5473  -17.5433 C   0  0  0  0  0  0  0  0  0  0  0  0
   24.8402  -20.0468  -16.5344 C   0  0  0  0  0  0  0  0  0  0  0  0
   25.1160  -20.2942  -15.1038 C   0  0  0  0  0  0  0  0  0  0  0  0
   24.1714  -19.7686  -14.1064 C   0  0  2  0  0  0  0  0  0  0  0  0
   24.6898  -20.1268  -12.7613 N   0  0  0  0  0  0  0  0  0  0  0  0
   22.8117  -20.3543  -14.2347 C   0  0  0  0  0  0  0  0  0  0  0  0
   22.4510  -21.4574  -13.7620 O   0  0  0  0  0  0  0  0  0  0  0  0
   21.8427  -19.6279  -14.9437 O   0  0  0  0  0  0  0  0  0  0  0  0
  1  2  1  0
  3  2  1  0
  4  3  1  0
  5  4  1  0
  5  6  1  1
  7  5  1  0
  8  7  2  0
  9  7  1  0
 10  9  1  0
 11 21  1  0
 11 10  1  0
 12 11  2  0
 14 13  1  0
 15 14  2  0
 16 14  1  0
 17 16  1  0
 18 17  1  0
 20 19  1  6
 19 18  1  0
 20 21  1  0
 22 20  1  0
 23 22  2  0
 24 22  1  0
M  END
$$$$
