MGR.pdb
     RDKit          3D

 24 23  0  0  1  0  0  0  0  0999 V2000
   31.2603  -22.2976  -10.7549 C   0  0  0  0  0  0  0  0  0  0  0  0
   29.5310  -21.7811  -10.5726 S   0  0  0  0  0  0  0  0  0  0  0  0
   29.0278  -20.7905  -11.9991 C   0  0  0  0  0  0  0  0  0  0  0  0
   27.6050  -20.3169  -11.7811 C   0  0  0  0  0  0  0  0  0  0  0  0
   26.6302  -21.4701  -11.9802 C   0  0  2  0  0  0  0  0  0  0  0  0
   26.6893  -21.9927  -13.3115 N   0  0  0  0  0  0  0  0  0  0  0  0
   25.2305  -20.9699  -11.7261 C   0  0  0  0  0  0  0  0  0  0  0  0
   24.8066  -20.6666  -10.5961 O   0  0  0  0  0  0  0  0  0  0  0  0
   24.3151  -20.8282  -12.8421 N   0  0  0  0  0  0  0  0  0  0  0  0
   22.9922  -20.3206  -12.6392 C   0  0  0  0  0  0  0  0  0  0  0  0
   21.9564  -21.3023  -12.9310 C   0  0  0  0  0  0  0  0  0  0  0  0
   22.2420  -22.1487  -13.8580 O   0  0  0  0  0  0  0  0  0  0  0  0
   19.1744  -25.7704   -8.1923 N   0  0  0  0  0  0  0  0  0  0  0  0
   18.4612  -24.6128   -7.7309 C   0  0  0  0  0  0  0  0  0  0  0  0
   18.5200  -24.1958   -6.5319 N   0  0  0  0  0  0  0  0  0  0  0  0
   17.6505  -23.9036   -8.6755 N   0  0  0  0  0  0  0  0  0  0  0  0
   17.5850  -24.2430  -10.0525 C   0  0  0  0  0  0  0  0  0  0  0  0
   18.7485  -23.9058  -10.9228 C   0  0  0  0  0  0  0  0  0  0  0  0
   18.7704  -22.5865  -11.5885 C   0  0  0  0  0  0  0  0  0  0  0  0
   19.6969  -22.3836  -12.7127 C   0  0  2  0  0  0  0  0  0  0  0  0
   20.7103  -21.3844  -12.2874 N   0  0  0  0  0  0  0  0  0  0  0  0
   19.0238  -21.8526  -13.9264 C   0  0  0  0  0  0  0  0  0  0  0  0
   18.7157  -20.6529  -14.1172 O   0  0  0  0  0  0  0  0  0  0  0  0
   18.6955  -22.7555  -14.9493 O   0  0  0  0  0  0  0  0  0  0  0  0
  1  2  1  0
  3  2  1  0
  4  3  1  0
  5  4  1  0
  5  6  1  6
  7  5  1  0
  8  7  2  0
  9  7  1  0
 10  9  1  0
 11 21  1  0
 11 10  1  0
 12 11  2  0
 14 13  1  0
 15 14  2  0
 16 14  1  0
 17 16  1  0
 18 17  1  0
 20 19  1  1
 19 18  1  0
 20 21  1  0
 22 20  1  0
 23 22  2  0
 24 22  1  0
M  END
$$$$
