MGR.pdb
     RDKit          3D

 24 23  0  0  1  0  0  0  0  0999 V2000
   24.4402  -25.2051  -15.6203 C   0  0  0  0  0  0  0  0  0  0  0  0
   25.9184  -25.4260  -16.6482 S   0  0  0  0  0  0  0  0  0  0  0  0
   26.1134  -24.0153  -17.7623 C   0  0  0  0  0  0  0  0  0  0  0  0
   26.1983  -22.7511  -16.9313 C   0  0  0  0  0  0  0  0  0  0  0  0
   27.6315  -22.2360  -16.9019 C   0  0  2  0  0  0  0  0  0  0  0  0
   28.5313  -23.1989  -16.3430 N   0  0  0  0  0  0  0  0  0  0  0  0
   27.6804  -20.9896  -16.0546 C   0  0  0  0  0  0  0  0  0  0  0  0
   27.0201  -19.9651  -16.3055 O   0  0  0  0  0  0  0  0  0  0  0  0
   28.5349  -20.9622  -14.8831 N   0  0  0  0  0  0  0  0  0  0  0  0
   28.5116  -19.8435  -13.9905 C   0  0  0  0  0  0  0  0  0  0  0  0
   27.2706  -19.7467  -13.2337 C   0  0  0  0  0  0  0  0  0  0  0  0
   26.4523  -18.8345  -13.6279 O   0  0  0  0  0  0  0  0  0  0  0  0
   20.5336  -21.3638  -15.8895 N   0  0  0  0  0  0  0  0  0  0  0  0
   20.2326  -20.2801  -14.9970 C   0  0  0  0  0  0  0  0  0  0  0  0
   19.1817  -19.5725  -15.0969 N   0  0  0  0  0  0  0  0  0  0  0  0
   21.1673  -19.9941  -13.9496 N   0  0  0  0  0  0  0  0  0  0  0  0
   22.4016  -20.6796  -13.8012 C   0  0  0  0  0  0  0  0  0  0  0  0
   23.3399  -20.2291  -12.7328 C   0  0  0  0  0  0  0  0  0  0  0  0
   24.6047  -20.9708  -12.5483 C   0  0  0  0  0  0  0  0  0  0  0  0
   25.5623  -20.4851  -11.5431 C   0  0  2  0  0  0  0  0  0  0  0  0
   26.9199  -20.5574  -12.1413 N   0  0  0  0  0  0  0  0  0  0  0  0
   25.5707  -21.3111  -10.3078 C   0  0  0  0  0  0  0  0  0  0  0  0
   26.2378  -22.3590  -10.1421 O   0  0  0  0  0  0  0  0  0  0  0  0
   24.7683  -20.9008   -9.2321 O   0  0  0  0  0  0  0  0  0  0  0  0
  1  2  1  0
  3  2  1  0
  4  3  1  0
  5  4  1  0
  5  6  1  1
  7  5  1  0
  8  7  2  0
  9  7  1  0
 10  9  1  0
 11 21  1  0
 11 10  1  0
 12 11  2  0
 14 13  1  0
 15 14  2  0
 16 14  1  0
 17 16  1  0
 18 17  1  0
 20 19  1  6
 19 18  1  0
 20 21  1  0
 22 20  1  0
 23 22  2  0
 24 22  1  0
M  END
$$$$
