MGR.pdb
     RDKit          3D

 24 23  0  0  1  0  0  0  0  0999 V2000
   24.3513  -21.1611   -9.2126 C   0  0  0  0  0  0  0  0  0  0  0  0
   26.1118  -20.8474   -9.5172 S   0  0  0  0  0  0  0  0  0  0  0  0
   26.4849  -21.0697  -11.2724 C   0  0  0  0  0  0  0  0  0  0  0  0
   25.1796  -21.1472  -12.0382 C   0  0  0  0  0  0  0  0  0  0  0  0
   25.4523  -21.2836  -13.5305 C   0  0  2  0  0  0  0  0  0  0  0  0
   26.8550  -21.3224  -13.8134 N   0  0  0  0  0  0  0  0  0  0  0  0
   24.8551  -20.0958  -14.2421 C   0  0  0  0  0  0  0  0  0  0  0  0
   25.2105  -18.9219  -14.0313 O   0  0  0  0  0  0  0  0  0  0  0  0
   23.8112  -20.3103  -15.2258 N   0  0  0  0  0  0  0  0  0  0  0  0
   22.4844  -19.8243  -14.9978 C   0  0  0  0  0  0  0  0  0  0  0  0
   21.5138  -20.8930  -14.8035 C   0  0  0  0  0  0  0  0  0  0  0  0
   21.9966  -22.0863  -14.8092 O   0  0  0  0  0  0  0  0  0  0  0  0
   18.5357  -24.6752  -10.1299 N   0  0  0  0  0  0  0  0  0  0  0  0
   18.5575  -23.9433   -8.8948 C   0  0  0  0  0  0  0  0  0  0  0  0
   18.3749  -24.4905   -7.7625 N   0  0  0  0  0  0  0  0  0  0  0  0
   18.7981  -22.5323   -8.9554 N   0  0  0  0  0  0  0  0  0  0  0  0
   18.7696  -21.7905  -10.1655 C   0  0  0  0  0  0  0  0  0  0  0  0
   19.9374  -21.8919  -11.0879 C   0  0  0  0  0  0  0  0  0  0  0  0
   20.0011  -20.9759  -12.2460 C   0  0  0  0  0  0  0  0  0  0  0  0
   19.4152  -21.4161  -13.5212 C   0  0  2  0  0  0  0  0  0  0  0  0
   20.1334  -20.7124  -14.6145 N   0  0  0  0  0  0  0  0  0  0  0  0
   17.9730  -21.0784  -13.6405 C   0  0  0  0  0  0  0  0  0  0  0  0
   17.0280  -21.8968  -13.5525 O   0  0  0  0  0  0  0  0  0  0  0  0
   17.6242  -19.7396  -13.8755 O   0  0  0  0  0  0  0  0  0  0  0  0
  1  2  1  0
  3  2  1  0
  4  3  1  0
  5  4  1  0
  5  6  1  1
  7  5  1  0
  8  7  2  0
  9  7  1  0
 10  9  1  0
 11 21  1  0
 11 10  1  0
 12 11  2  0
 14 13  1  0
 15 14  2  0
 16 14  1  0
 17 16  1  0
 18 17  1  0
 20 19  1  1
 19 18  1  0
 20 21  1  0
 22 20  1  0
 23 22  2  0
 24 22  1  0
M  END
$$$$
