DVY.pdb
     RDKit          3D

 28 28  0  0  1  0  0  0  0  0999 V2000
   28.1499  -21.3096  -15.8178 N   0  0  0  0  0  0  0  0  0  0  0  0
   27.1735  -20.4678  -15.1537 C   0  0  1  0  0  0  0  0  0  0  0  0
   26.4871  -19.6526  -16.2313 C   0  0  0  0  0  0  0  0  0  0  0  0
   27.5106  -18.7278  -16.7893 C   0  0  0  0  0  0  0  0  0  0  0  0
   28.1426  -19.0422  -17.8290 O   0  0  0  0  0  0  0  0  0  0  0  0
   26.1928  -21.2981  -14.3916 C   0  0  0  0  0  0  0  0  0  0  0  0
   25.9142  -22.4621  -14.7159 O   0  0  0  0  0  0  0  0  0  0  0  0
   27.8146  -17.5012  -16.2078 O   0  0  0  0  0  0  0  0  0  0  0  0
   25.0904  -19.7756  -10.5943 C   0  0  0  0  0  0  0  0  0  0  0  0
   25.1668  -21.2065  -10.9937 C   0  0  2  0  0  0  0  0  0  0  0  0
   26.5723  -21.7629  -10.9431 C   0  0  0  0  0  0  0  0  0  0  0  0
   24.6389  -21.4803  -12.4069 C   0  0  2  0  0  0  0  0  0  0  0  0
   25.5678  -20.7307  -13.2675 N   0  0  0  0  0  0  0  0  0  0  0  0
   23.2981  -20.8294  -12.6026 C   0  0  0  0  0  0  0  0  0  0  0  0
   23.1532  -19.5620  -12.4921 O   0  0  0  0  0  0  0  0  0  0  0  0
   23.4608  -17.5955  -17.8374 O   0  0  0  0  0  0  0  0  0  0  0  0
   22.6880  -18.4037  -16.9793 C   0  0  0  0  0  0  0  0  0  0  0  0
   21.5886  -17.8884  -16.3253 C   0  0  0  0  0  0  0  0  0  0  0  0
   20.8254  -18.6980  -15.4740 C   0  0  0  0  0  0  0  0  0  0  0  0
   21.1606  -20.0170  -15.2780 C   0  0  0  0  0  0  0  0  0  0  0  0
   20.4007  -20.9100  -14.3900 C   0  0  0  0  0  0  0  0  0  0  0  0
   20.8401  -20.9017  -12.9585 C   0  0  2  0  0  0  0  0  0  0  0  0
   22.1309  -21.5710  -12.9174 N   0  0  0  0  0  0  0  0  0  0  0  0
   19.8669  -21.6087  -12.1193 C   0  0  0  0  0  0  0  0  0  0  0  0
   18.6943  -21.1362  -11.9323 O   0  0  0  0  0  0  0  0  0  0  0  0
   22.2603  -20.5098  -15.9397 C   0  0  0  0  0  0  0  0  0  0  0  0
   23.0202  -19.7220  -16.7811 C   0  0  0  0  0  0  0  0  0  0  0  0
   20.1291  -22.8102  -11.4804 O   0  0  0  0  0  0  0  0  0  0  0  0
  2  1  1  6
  2  6  1  0
  3  2  1  0
  4  3  1  0
  4  5  2  0
  6 13  1  0
  6  7  2  0
  8  4  1  0
 10  9  1  6
 10 11  1  0
 12 10  1  0
 12 13  1  6
 14 12  1  0
 14 23  1  0
 15 14  2  0
 16 17  1  0
 17 18  2  0
 18 19  1  0
 20 19  2  0
 20 21  1  0
 22 21  1  6
 22 23  1  0
 22 24  1  0
 24 28  1  0
 25 24  2  0
 26 20  1  0
 27 17  1  0
 27 26  2  0
M  END
$$$$
