DVY.pdb
     RDKit          3D

 28 28  0  0  1  0  0  0  0  0999 V2000
   25.3227  -13.7297  -18.1940 N   0  0  0  0  0  0  0  0  0  0  0  0
   24.5014  -12.5350  -18.2236 C   0  0  1  0  0  0  0  0  0  0  0  0
   23.0914  -12.9590  -17.8642 C   0  0  0  0  0  0  0  0  0  0  0  0
   22.5703  -13.7425  -19.0168 C   0  0  0  0  0  0  0  0  0  0  0  0
   22.8913  -13.4254  -20.1897 O   0  0  0  0  0  0  0  0  0  0  0  0
   25.0228  -11.5127  -17.2670 C   0  0  0  0  0  0  0  0  0  0  0  0
   25.4348  -11.8103  -16.1359 O   0  0  0  0  0  0  0  0  0  0  0  0
   21.7245  -14.8362  -18.8636 O   0  0  0  0  0  0  0  0  0  0  0  0
   26.5613   -8.2395  -18.9719 C   0  0  0  0  0  0  0  0  0  0  0  0
   26.8026   -8.6025  -17.5496 C   0  0  2  0  0  0  0  0  0  0  0  0
   27.8407   -9.6898  -17.3822 C   0  0  0  0  0  0  0  0  0  0  0  0
   25.5453   -9.0819  -16.8146 C   0  0  2  0  0  0  0  0  0  0  0  0
   25.0433  -10.1669  -17.6725 N   0  0  0  0  0  0  0  0  0  0  0  0
   24.4809   -8.0208  -16.8468 C   0  0  0  0  0  0  0  0  0  0  0  0
   23.7481   -7.8472  -17.8824 O   0  0  0  0  0  0  0  0  0  0  0  0
   19.1259  -11.2212  -15.9821 O   0  0  0  0  0  0  0  0  0  0  0  0
   19.8883  -10.0778  -15.6688 C   0  0  0  0  0  0  0  0  0  0  0  0
   20.8150  -10.1059  -14.6478 C   0  0  0  0  0  0  0  0  0  0  0  0
   21.5691   -8.9653  -14.3423 C   0  0  0  0  0  0  0  0  0  0  0  0
   21.3967   -7.8022  -15.0551 C   0  0  0  0  0  0  0  0  0  0  0  0
   22.1543   -6.5736  -14.7727 C   0  0  0  0  0  0  0  0  0  0  0  0
   23.1500   -6.1893  -15.8231 C   0  0  2  0  0  0  0  0  0  0  0  0
   24.2289   -7.1619  -15.7467 N   0  0  0  0  0  0  0  0  0  0  0  0
   23.6589   -4.8360  -15.5766 C   0  0  0  0  0  0  0  0  0  0  0  0
   24.8835   -4.6402  -15.2683 O   0  0  0  0  0  0  0  0  0  0  0  0
   20.4675   -7.7966  -16.0683 C   0  0  0  0  0  0  0  0  0  0  0  0
   19.7185   -8.9140  -16.3788 C   0  0  0  0  0  0  0  0  0  0  0  0
   22.8791   -3.6930  -15.6560 O   0  0  0  0  0  0  0  0  0  0  0  0
  2  1  1  1
  2  6  1  0
  3  2  1  0
  4  3  1  0
  4  5  2  0
  6 13  1  0
  6  7  2  0
  8  4  1  0
 10  9  1  6
 10 11  1  0
 12 10  1  0
 12 13  1  6
 14 12  1  0
 14 23  1  0
 15 14  2  0
 16 17  1  0
 17 18  2  0
 18 19  1  0
 20 19  2  0
 20 21  1  0
 22 21  1  1
 22 23  1  0
 22 24  1  0
 24 28  1  0
 25 24  2  0
 26 20  1  0
 27 17  1  0
 27 26  2  0
M  END
$$$$
