DVY.pdb
     RDKit          3D

 28 28  0  0  1  0  0  0  0  0999 V2000
   27.4069  -20.5457  -17.7766 N   0  0  0  0  0  0  0  0  0  0  0  0
   26.7927  -21.1618  -16.6163 C   0  0  1  0  0  0  0  0  0  0  0  0
   27.9060  -21.4549  -15.6305 C   0  0  0  0  0  0  0  0  0  0  0  0
   28.7819  -22.4786  -16.2620 C   0  0  0  0  0  0  0  0  0  0  0  0
   29.7038  -23.0146  -15.5970 O   0  0  0  0  0  0  0  0  0  0  0  0
   25.7634  -20.2570  -16.0216 C   0  0  0  0  0  0  0  0  0  0  0  0
   25.8610  -19.0215  -16.0633 O   0  0  0  0  0  0  0  0  0  0  0  0
   28.6327  -22.8862  -17.5836 O   0  0  0  0  0  0  0  0  0  0  0  0
   21.0985  -19.7067  -15.5241 C   0  0  0  0  0  0  0  0  0  0  0  0
   22.4121  -20.2898  -15.9080 C   0  0  2  0  0  0  0  0  0  0  0  0
   22.3557  -21.7848  -16.1307 C   0  0  0  0  0  0  0  0  0  0  0  0
   23.5202  -20.0430  -14.8775 C   0  0  2  0  0  0  0  0  0  0  0  0
   24.6469  -20.8363  -15.3938 N   0  0  0  0  0  0  0  0  0  0  0  0
   23.1608  -20.6691  -13.5589 C   0  0  0  0  0  0  0  0  0  0  0  0
   23.1910  -21.9389  -13.3970 O   0  0  0  0  0  0  0  0  0  0  0  0
   27.9685  -20.8706   -7.9735 O   0  0  0  0  0  0  0  0  0  0  0  0
   26.7008  -20.5666   -8.5096 C   0  0  0  0  0  0  0  0  0  0  0  0
   26.5718  -19.6737   -9.5527 C   0  0  0  0  0  0  0  0  0  0  0  0
   25.3084  -19.3766  -10.0804 C   0  0  0  0  0  0  0  0  0  0  0  0
   24.1794  -19.9704   -9.5667 C   0  0  0  0  0  0  0  0  0  0  0  0
   22.8284  -19.6898  -10.0758 C   0  0  0  0  0  0  0  0  0  0  0  0
   22.3815  -20.5702  -11.2016 C   0  0  2  0  0  0  0  0  0  0  0  0
   22.7731  -19.9002  -12.4319 N   0  0  0  0  0  0  0  0  0  0  0  0
   20.9276  -20.7591  -11.1588 C   0  0  0  0  0  0  0  0  0  0  0  0
   20.3863  -21.4939  -10.2643 O   0  0  0  0  0  0  0  0  0  0  0  0
   24.3314  -20.8570   -8.5271 C   0  0  0  0  0  0  0  0  0  0  0  0
   25.5709  -21.1578   -7.9988 C   0  0  0  0  0  0  0  0  0  0  0  0
   20.0477  -20.1744  -12.0557 O   0  0  0  0  0  0  0  0  0  0  0  0
  2  1  1  6
  2  6  1  0
  3  2  1  0
  4  3  1  0
  4  5  2  0
  6 13  1  0
  6  7  2  0
  8  4  1  0
 10  9  1  1
 10 11  1  0
 12 10  1  0
 12 13  1  6
 14 12  1  0
 14 23  1  0
 15 14  2  0
 16 17  1  0
 17 18  2  0
 18 19  1  0
 20 19  2  0
 20 21  1  0
 22 21  1  1
 22 23  1  0
 22 24  1  0
 24 28  1  0
 25 24  2  0
 26 20  1  0
 27 17  1  0
 27 26  2  0
M  END
$$$$
