DVY.pdb
     RDKit          3D

 28 28  0  0  1  0  0  0  0  0999 V2000
   24.9757  -15.2854  -17.5219 N   0  0  0  0  0  0  0  0  0  0  0  0
   24.4687  -13.9596  -17.8183 C   0  0  1  0  0  0  0  0  0  0  0  0
   23.1112  -14.1406  -18.4677 C   0  0  0  0  0  0  0  0  0  0  0  0
   23.3295  -14.9323  -19.7085 C   0  0  0  0  0  0  0  0  0  0  0  0
   24.3892  -14.7883  -20.3685 O   0  0  0  0  0  0  0  0  0  0  0  0
   24.3711  -13.1414  -16.5721 C   0  0  0  0  0  0  0  0  0  0  0  0
   23.8660  -13.5793  -15.5277 O   0  0  0  0  0  0  0  0  0  0  0  0
   22.4001  -15.8479  -20.1913 O   0  0  0  0  0  0  0  0  0  0  0  0
   26.8831   -9.8910  -16.4443 C   0  0  0  0  0  0  0  0  0  0  0  0
   26.2750  -10.5076  -15.2348 C   0  0  2  0  0  0  0  0  0  0  0  0
   27.0202  -11.7331  -14.7546 C   0  0  0  0  0  0  0  0  0  0  0  0
   24.8145  -10.9320  -15.4281 C   0  0  2  0  0  0  0  0  0  0  0  0
   24.8727  -11.8284  -16.5937 N   0  0  0  0  0  0  0  0  0  0  0  0
   23.9800   -9.7605  -15.8652 C   0  0  0  0  0  0  0  0  0  0  0  0
   24.0150   -9.3344  -17.0721 O   0  0  0  0  0  0  0  0  0  0  0  0
   17.6656  -12.3804  -14.7556 O   0  0  0  0  0  0  0  0  0  0  0  0
   18.5863  -11.4037  -15.1859 C   0  0  0  0  0  0  0  0  0  0  0  0
   18.3499  -10.0638  -14.9611 C   0  0  0  0  0  0  0  0  0  0  0  0
   19.2699   -9.0989  -15.3916 C   0  0  0  0  0  0  0  0  0  0  0  0
   20.4210   -9.4730  -16.0440 C   0  0  0  0  0  0  0  0  0  0  0  0
   21.4168   -8.5033  -16.5249 C   0  0  0  0  0  0  0  0  0  0  0  0
   22.3235   -7.9516  -15.4685 C   0  0  2  0  0  0  0  0  0  0  0  0
   23.1162   -9.0684  -14.9784 N   0  0  0  0  0  0  0  0  0  0  0  0
   21.5405   -7.3591  -14.3789 C   0  0  0  0  0  0  0  0  0  0  0  0
   20.8166   -6.3247  -14.5768 O   0  0  0  0  0  0  0  0  0  0  0  0
   20.6363  -10.8139  -16.2576 C   0  0  0  0  0  0  0  0  0  0  0  0
   19.7374  -11.7740  -15.8381 C   0  0  0  0  0  0  0  0  0  0  0  0
   21.5202   -7.8564  -13.0855 O   0  0  0  0  0  0  0  0  0  0  0  0
  2  1  1  1
  2  6  1  0
  3  2  1  0
  4  3  1  0
  4  5  2  0
  6 13  1  0
  6  7  2  0
  8  4  1  0
 10  9  1  6
 10 11  1  0
 12 10  1  0
 12 13  1  6
 14 12  1  0
 14 23  1  0
 15 14  2  0
 16 17  1  0
 17 18  2  0
 18 19  1  0
 20 19  2  0
 20 21  1  0
 22 21  1  6
 22 23  1  0
 22 24  1  0
 24 28  1  0
 25 24  2  0
 26 20  1  0
 27 17  1  0
 27 26  2  0
M  END
$$$$
