DVY.pdb
     RDKit          3D

 28 28  0  0  1  0  0  0  0  0999 V2000
   25.0724  -12.8387  -19.4190 N   0  0  0  0  0  0  0  0  0  0  0  0
   23.8315  -13.2656  -18.8019 C   0  0  1  0  0  0  0  0  0  0  0  0
   23.9763  -14.7426  -18.4941 C   0  0  0  0  0  0  0  0  0  0  0  0
   23.8790  -15.4645  -19.7916 C   0  0  0  0  0  0  0  0  0  0  0  0
   23.6942  -14.8229  -20.8563 O   0  0  0  0  0  0  0  0  0  0  0  0
   23.5593  -12.4757  -17.5634 C   0  0  0  0  0  0  0  0  0  0  0  0
   22.6052  -12.7263  -16.8119 O   0  0  0  0  0  0  0  0  0  0  0  0
   23.9843  -16.8478  -19.8939 O   0  0  0  0  0  0  0  0  0  0  0  0
   26.4606   -9.5082  -16.6691 C   0  0  0  0  0  0  0  0  0  0  0  0
   25.7089  -10.2694  -15.6355 C   0  0  2  0  0  0  0  0  0  0  0  0
   26.3596  -11.5873  -15.2784 C   0  0  0  0  0  0  0  0  0  0  0  0
   24.2640  -10.5898  -16.0359 C   0  0  2  0  0  0  0  0  0  0  0  0
   24.4213  -11.4115  -17.2465 N   0  0  0  0  0  0  0  0  0  0  0  0
   23.5550   -9.3435  -16.4874 C   0  0  0  0  0  0  0  0  0  0  0  0
   23.6256   -8.9426  -17.7014 O   0  0  0  0  0  0  0  0  0  0  0  0
   17.7861   -3.8476  -19.4031 O   0  0  0  0  0  0  0  0  0  0  0  0
   18.6319   -4.8340  -18.8568 C   0  0  0  0  0  0  0  0  0  0  0  0
   19.9098   -5.0152  -19.3425 C   0  0  0  0  0  0  0  0  0  0  0  0
   20.7447   -5.9976  -18.7943 C   0  0  0  0  0  0  0  0  0  0  0  0
   20.3029   -6.7949  -17.7648 C   0  0  0  0  0  0  0  0  0  0  0  0
   21.1327   -7.8464  -17.1573 C   0  0  0  0  0  0  0  0  0  0  0  0
   22.0940   -7.3689  -16.1131 C   0  0  2  0  0  0  0  0  0  0  0  0
   22.7762   -8.5497  -15.6071 N   0  0  0  0  0  0  0  0  0  0  0  0
   21.3778   -6.6851  -15.0310 C   0  0  0  0  0  0  0  0  0  0  0  0
   20.9743   -7.3264  -14.0019 O   0  0  0  0  0  0  0  0  0  0  0  0
   19.0256   -6.5972  -17.2963 C   0  0  0  0  0  0  0  0  0  0  0  0
   18.1937   -5.6324  -17.8283 C   0  0  0  0  0  0  0  0  0  0  0  0
   21.0890   -5.3297  -15.0340 O   0  0  0  0  0  0  0  0  0  0  0  0
  2  1  1  1
  2  6  1  0
  3  2  1  0
  4  3  1  0
  4  5  2  0
  6 13  1  0
  6  7  2  0
  8  4  1  0
 10  9  1  6
 10 11  1  0
 12 10  1  0
 12 13  1  6
 14 12  1  0
 14 23  1  0
 15 14  2  0
 16 17  1  0
 17 18  2  0
 18 19  1  0
 20 19  2  0
 20 21  1  0
 22 21  1  6
 22 23  1  0
 22 24  1  0
 24 28  1  0
 25 24  2  0
 26 20  1  0
 27 17  1  0
 27 26  2  0
M  END
$$$$
