DVY.pdb
     RDKit          3D

 28 28  0  0  1  0  0  0  0  0999 V2000
   22.9982  -12.6226  -19.1576 N   0  0  0  0  0  0  0  0  0  0  0  0
   23.2653  -11.2222  -18.8922 C   0  0  1  0  0  0  0  0  0  0  0  0
   22.9534  -10.4637  -20.1668 C   0  0  0  0  0  0  0  0  0  0  0  0
   23.9868  -10.8535  -21.1638 C   0  0  0  0  0  0  0  0  0  0  0  0
   24.3973  -10.0151  -22.0051 O   0  0  0  0  0  0  0  0  0  0  0  0
   22.4341  -10.7338  -17.7510 C   0  0  0  0  0  0  0  0  0  0  0  0
   21.2099  -10.9225  -17.6922 O   0  0  0  0  0  0  0  0  0  0  0  0
   24.5385  -12.1293  -21.2175 O   0  0  0  0  0  0  0  0  0  0  0  0
   24.5634   -9.7545  -14.3773 C   0  0  0  0  0  0  0  0  0  0  0  0
   23.1050  -10.0462  -14.3533 C   0  0  2  0  0  0  0  0  0  0  0  0
   22.7962  -11.5261  -14.3041 C   0  0  0  0  0  0  0  0  0  0  0  0
   22.3439   -9.4808  -15.5582 C   0  0  2  0  0  0  0  0  0  0  0  0
   23.0716  -10.0360  -16.7105 N   0  0  0  0  0  0  0  0  0  0  0  0
   22.5307   -7.9917  -15.6463 C   0  0  0  0  0  0  0  0  0  0  0  0
   23.5343   -7.4839  -16.2583 O   0  0  0  0  0  0  0  0  0  0  0  0
   22.4610    0.0794  -18.1137 O   0  0  0  0  0  0  0  0  0  0  0  0
   22.2847   -1.2765  -17.7714 C   0  0  0  0  0  0  0  0  0  0  0  0
   21.0482   -1.8771  -17.8824 C   0  0  0  0  0  0  0  0  0  0  0  0
   20.8809   -3.2253  -17.5402 C   0  0  0  0  0  0  0  0  0  0  0  0
   21.9458   -3.9691  -17.0891 C   0  0  0  0  0  0  0  0  0  0  0  0
   21.8261   -5.3846  -16.7083 C   0  0  0  0  0  0  0  0  0  0  0  0
   21.8268   -5.6449  -15.2336 C   0  0  2  0  0  0  0  0  0  0  0  0
   21.6183   -7.0746  -15.0652 N   0  0  0  0  0  0  0  0  0  0  0  0
   20.7547   -4.8878  -14.5788 C   0  0  0  0  0  0  0  0  0  0  0  0
   19.5533   -5.3234  -14.5700 O   0  0  0  0  0  0  0  0  0  0  0  0
   23.1691   -3.3502  -16.9860 C   0  0  0  0  0  0  0  0  0  0  0  0
   23.3465   -2.0225  -17.3202 C   0  0  0  0  0  0  0  0  0  0  0  0
   20.9492   -3.6762  -13.9349 O   0  0  0  0  0  0  0  0  0  0  0  0
  2  1  1  6
  2  6  1  0
  3  2  1  0
  4  3  1  0
  4  5  2  0
  6 13  1  0
  6  7  2  0
  8  4  1  0
 10  9  1  6
 10 11  1  0
 12 10  1  0
 12 13  1  6
 14 12  1  0
 14 23  1  0
 15 14  2  0
 16 17  1  0
 17 18  2  0
 18 19  1  0
 20 19  2  0
 20 21  1  0
 22 21  1  6
 22 23  1  0
 22 24  1  0
 24 28  1  0
 25 24  2  0
 26 20  1  0
 27 17  1  0
 27 26  2  0
M  END
$$$$
