DVY.pdb
     RDKit          3D

 28 28  0  0  1  0  0  0  0  0999 V2000
   23.1729  -12.0189  -18.5117 N   0  0  0  0  0  0  0  0  0  0  0  0
   22.0111  -11.3242  -19.0318 C   0  0  1  0  0  0  0  0  0  0  0  0
   21.0352  -12.3849  -19.5005 C   0  0  0  0  0  0  0  0  0  0  0  0
   21.5626  -12.9175  -20.7859 C   0  0  0  0  0  0  0  0  0  0  0  0
   22.1144  -12.1440  -21.6083 O   0  0  0  0  0  0  0  0  0  0  0  0
   21.4041  -10.4522  -17.9816 C   0  0  0  0  0  0  0  0  0  0  0  0
   20.3836   -9.7779  -18.1861 O   0  0  0  0  0  0  0  0  0  0  0  0
   21.4761  -14.2608  -21.1369 O   0  0  0  0  0  0  0  0  0  0  0  0
   21.7214   -9.6572  -13.0865 C   0  0  0  0  0  0  0  0  0  0  0  0
   21.9092  -10.3964  -14.3636 C   0  0  2  0  0  0  0  0  0  0  0  0
   23.3402  -10.8285  -14.5947 C   0  0  0  0  0  0  0  0  0  0  0  0
   21.4876   -9.5998  -15.6039 C   0  0  2  0  0  0  0  0  0  0  0  0
   22.0189  -10.4003  -16.7185 N   0  0  0  0  0  0  0  0  0  0  0  0
   22.2248   -8.2910  -15.6639 C   0  0  0  0  0  0  0  0  0  0  0  0
   23.4815   -8.2478  -15.9055 O   0  0  0  0  0  0  0  0  0  0  0  0
   16.8960   -3.8547  -18.3041 O   0  0  0  0  0  0  0  0  0  0  0  0
   18.2132   -4.2200  -17.9600 C   0  0  0  0  0  0  0  0  0  0  0  0
   18.7082   -5.4649  -18.2870 C   0  0  0  0  0  0  0  0  0  0  0  0
   20.0185   -5.8207  -17.9417 C   0  0  0  0  0  0  0  0  0  0  0  0
   20.8297   -4.9350  -17.2723 C   0  0  0  0  0  0  0  0  0  0  0  0
   22.2093   -5.2578  -16.8778 C   0  0  0  0  0  0  0  0  0  0  0  0
   22.3577   -5.8156  -15.4961 C   0  0  2  0  0  0  0  0  0  0  0  0
   21.5802   -7.0444  -15.4597 N   0  0  0  0  0  0  0  0  0  0  0  0
   21.8580   -4.8608  -14.5012 C   0  0  0  0  0  0  0  0  0  0  0  0
   22.4070   -3.7160  -14.3550 O   0  0  0  0  0  0  0  0  0  0  0  0
   20.3157   -3.6997  -16.9561 C   0  0  0  0  0  0  0  0  0  0  0  0
   19.0263   -3.3375  -17.2911 C   0  0  0  0  0  0  0  0  0  0  0  0
   20.7823   -5.1119  -13.6642 O   0  0  0  0  0  0  0  0  0  0  0  0
  2  1  1  1
  2  6  1  0
  3  2  1  0
  4  3  1  0
  4  5  2  0
  6 13  1  0
  6  7  2  0
  8  4  1  0
 10  9  1  1
 10 11  1  0
 12 10  1  0
 12 13  1  6
 14 12  1  0
 14 23  1  0
 15 14  2  0
 16 17  1  0
 17 18  2  0
 18 19  1  0
 20 19  2  0
 20 21  1  0
 22 21  1  6
 22 23  1  0
 22 24  1  0
 24 28  1  0
 25 24  2  0
 26 20  1  0
 27 17  1  0
 27 26  2  0
M  END
$$$$
