DVY.pdb
     RDKit          3D

 28 28  0  0  1  0  0  0  0  0999 V2000
   26.0746   -8.2808  -19.9403 N   0  0  0  0  0  0  0  0  0  0  0  0
   25.3272   -7.5499  -18.9353 C   0  0  1  0  0  0  0  0  0  0  0  0
   24.7735   -6.3111  -19.6104 C   0  0  0  0  0  0  0  0  0  0  0  0
   25.9265   -5.4038  -19.8581 C   0  0  0  0  0  0  0  0  0  0  0  0
   26.5540   -4.9051  -18.8902 O   0  0  0  0  0  0  0  0  0  0  0  0
   24.2336   -8.3973  -18.3714 C   0  0  0  0  0  0  0  0  0  0  0  0
   23.6538   -9.2656  -19.0404 O   0  0  0  0  0  0  0  0  0  0  0  0
   26.3600   -5.0682  -21.1366 O   0  0  0  0  0  0  0  0  0  0  0  0
   24.1904   -8.6839  -14.3191 C   0  0  0  0  0  0  0  0  0  0  0  0
   23.4524   -9.6261  -15.2024 C   0  0  2  0  0  0  0  0  0  0  0  0
   24.3329  -10.7119  -15.7798 C   0  0  0  0  0  0  0  0  0  0  0  0
   22.7630   -8.9447  -16.3904 C   0  0  2  0  0  0  0  0  0  0  0  0
   23.8548   -8.1958  -17.0327 N   0  0  0  0  0  0  0  0  0  0  0  0
   21.7925   -7.9029  -15.9081 C   0  0  0  0  0  0  0  0  0  0  0  0
   22.2003   -6.7967  -15.4086 O   0  0  0  0  0  0  0  0  0  0  0  0
   16.1401   -1.5135  -15.5990 O   0  0  0  0  0  0  0  0  0  0  0  0
   17.0375   -2.5848  -15.7825 C   0  0  0  0  0  0  0  0  0  0  0  0
   18.1861   -2.6804  -15.0253 C   0  0  0  0  0  0  0  0  0  0  0  0
   19.0733   -3.7484  -15.2135 C   0  0  0  0  0  0  0  0  0  0  0  0
   18.8121   -4.7161  -16.1548 C   0  0  0  0  0  0  0  0  0  0  0  0
   19.7115   -5.8536  -16.4003 C   0  0  0  0  0  0  0  0  0  0  0  0
   19.5019   -7.0313  -15.4994 C   0  0  2  0  0  0  0  0  0  0  0  0
   20.3873   -8.0816  -15.9777 N   0  0  0  0  0  0  0  0  0  0  0  0
   18.1044   -7.4735  -15.5502 C   0  0  0  0  0  0  0  0  0  0  0  0
   17.7412   -8.4157  -16.3335 O   0  0  0  0  0  0  0  0  0  0  0  0
   17.6616   -4.6008  -16.8984 C   0  0  0  0  0  0  0  0  0  0  0  0
   16.7798   -3.5533  -16.7222 C   0  0  0  0  0  0  0  0  0  0  0  0
   17.0936   -6.9247  -14.7770 O   0  0  0  0  0  0  0  0  0  0  0  0
  2  1  1  6
  2  6  1  0
  3  2  1  0
  4  3  1  0
  4  5  2  0
  6 13  1  0
  6  7  2  0
  8  4  1  0
 10  9  1  6
 10 11  1  0
 12 10  1  0
 12 13  1  6
 14 12  1  0
 14 23  1  0
 15 14  2  0
 16 17  1  0
 17 18  2  0
 18 19  1  0
 20 19  2  0
 20 21  1  0
 22 21  1  6
 22 23  1  0
 22 24  1  0
 24 28  1  0
 25 24  2  0
 26 20  1  0
 27 17  1  0
 27 26  2  0
M  END
$$$$
