DVY.pdb
     RDKit          3D

 28 28  0  0  1  0  0  0  0  0999 V2000
   17.6064  -14.4098  -15.7315 N   0  0  0  0  0  0  0  0  0  0  0  0
   17.1905  -13.0617  -16.0671 C   0  0  1  0  0  0  0  0  0  0  0  0
   15.7946  -12.8775  -15.5063 C   0  0  0  0  0  0  0  0  0  0  0  0
   14.8692  -13.6248  -16.4003 C   0  0  0  0  0  0  0  0  0  0  0  0
   15.0284  -13.5843  -17.6461 O   0  0  0  0  0  0  0  0  0  0  0  0
   18.1418  -12.0595  -15.4992 C   0  0  0  0  0  0  0  0  0  0  0  0
   18.6749  -12.2042  -14.3890 O   0  0  0  0  0  0  0  0  0  0  0  0
   13.8089  -14.3866  -15.9200 O   0  0  0  0  0  0  0  0  0  0  0  0
   19.9069   -9.6889  -18.2721 C   0  0  0  0  0  0  0  0  0  0  0  0
   20.4528   -9.8730  -16.9007 C   0  0  2  0  0  0  0  0  0  0  0  0
   21.2366  -11.1567  -16.7410 C   0  0  0  0  0  0  0  0  0  0  0  0
   19.3792   -9.8774  -15.8060 C   0  0  2  0  0  0  0  0  0  0  0  0
   18.4374  -10.9138  -16.2582 N   0  0  0  0  0  0  0  0  0  0  0  0
   18.6006   -8.5917  -15.8281 C   0  0  0  0  0  0  0  0  0  0  0  0
   17.5636   -8.4565  -16.5670 O   0  0  0  0  0  0  0  0  0  0  0  0
   16.4389   -6.9352   -8.9744 O   0  0  0  0  0  0  0  0  0  0  0  0
   16.5309   -6.8628  -10.3791 C   0  0  0  0  0  0  0  0  0  0  0  0
   16.5859   -8.0100  -11.1424 C   0  0  0  0  0  0  0  0  0  0  0  0
   16.6772   -7.9300  -12.5382 C   0  0  0  0  0  0  0  0  0  0  0  0
   16.7132   -6.7077  -13.1671 C   0  0  0  0  0  0  0  0  0  0  0  0
   16.8167   -6.5644  -14.6272 C   0  0  0  0  0  0  0  0  0  0  0  0
   18.1880   -6.2416  -15.1351 C   0  0  2  0  0  0  0  0  0  0  0  0
   18.9637   -7.4685  -15.0419 N   0  0  0  0  0  0  0  0  0  0  0  0
   18.7993   -5.1835  -14.3240 C   0  0  0  0  0  0  0  0  0  0  0  0
   18.3449   -3.9893  -14.3508 O   0  0  0  0  0  0  0  0  0  0  0  0
   16.6573   -5.5773  -12.3867 C   0  0  0  0  0  0  0  0  0  0  0  0
   16.5672   -5.6433  -11.0107 C   0  0  0  0  0  0  0  0  0  0  0  0
   19.8853   -5.3843  -13.4869 O   0  0  0  0  0  0  0  0  0  0  0  0
  2  1  1  1
  2  6  1  0
  3  2  1  0
  4  3  1  0
  4  5  2  0
  6 13  1  0
  6  7  2  0
  8  4  1  0
 10  9  1  6
 10 11  1  0
 12 10  1  0
 12 13  1  6
 14 12  1  0
 14 23  1  0
 15 14  2  0
 16 17  1  0
 17 18  2  0
 18 19  1  0
 20 19  2  0
 20 21  1  0
 22 21  1  1
 22 23  1  0
 22 24  1  0
 24 28  1  0
 25 24  2  0
 26 20  1  0
 27 17  1  0
 27 26  2  0
M  END
$$$$
