DVY.pdb
     RDKit          3D

 28 28  0  0  1  0  0  0  0  0999 V2000
   27.8446  -21.7121  -16.4133 N   0  0  0  0  0  0  0  0  0  0  0  0
   27.0853  -20.7741  -15.6092 C   0  0  1  0  0  0  0  0  0  0  0  0
   26.4288  -19.8008  -16.5678 C   0  0  0  0  0  0  0  0  0  0  0  0
   27.5213  -19.0015  -17.1854 C   0  0  0  0  0  0  0  0  0  0  0  0
   28.7216  -19.3089  -16.9758 O   0  0  0  0  0  0  0  0  0  0  0  0
   26.0695  -21.4911  -14.7810 C   0  0  0  0  0  0  0  0  0  0  0  0
   25.6656  -22.6291  -15.0630 O   0  0  0  0  0  0  0  0  0  0  0  0
   27.2808  -17.9030  -18.0043 O   0  0  0  0  0  0  0  0  0  0  0  0
   25.2215  -19.7644  -11.0005 C   0  0  0  0  0  0  0  0  0  0  0  0
   25.1238  -21.2060  -11.3537 C   0  0  2  0  0  0  0  0  0  0  0  0
   26.4532  -21.9246  -11.2889 C   0  0  0  0  0  0  0  0  0  0  0  0
   24.5579  -21.4596  -12.7559 C   0  0  2  0  0  0  0  0  0  0  0  0
   25.5585  -20.8442  -13.6423 N   0  0  0  0  0  0  0  0  0  0  0  0
   23.2970  -20.6681  -12.9650 C   0  0  0  0  0  0  0  0  0  0  0  0
   23.2433  -19.4196  -12.6861 O   0  0  0  0  0  0  0  0  0  0  0  0
   24.1159  -16.9353  -17.9609 O   0  0  0  0  0  0  0  0  0  0  0  0
   23.2577  -17.7931  -17.2436 C   0  0  0  0  0  0  0  0  0  0  0  0
   23.5058  -19.1482  -17.1813 C   0  0  0  0  0  0  0  0  0  0  0  0
   22.6482  -19.9945  -16.4663 C   0  0  0  0  0  0  0  0  0  0  0  0
   21.5476  -19.4871  -15.8168 C   0  0  0  0  0  0  0  0  0  0  0  0
   20.6097  -20.3293  -15.0590 C   0  0  0  0  0  0  0  0  0  0  0  0
   20.9041  -20.4442  -13.5952 C   0  0  2  0  0  0  0  0  0  0  0  0
   22.1094  -21.2500  -13.4772 N   0  0  0  0  0  0  0  0  0  0  0  0
   19.7857  -21.0858  -12.8961 C   0  0  0  0  0  0  0  0  0  0  0  0
   19.9155  -22.2444  -12.3726 O   0  0  0  0  0  0  0  0  0  0  0  0
   21.3194  -18.1335  -15.8924 C   0  0  0  0  0  0  0  0  0  0  0  0
   22.1571  -17.2895  -16.5936 C   0  0  0  0  0  0  0  0  0  0  0  0
   18.5351  -20.5071  -12.7487 O   0  0  0  0  0  0  0  0  0  0  0  0
  2  1  1  6
  2  6  1  0
  3  2  1  0
  4  3  1  0
  4  5  2  0
  6 13  1  0
  6  7  2  0
  8  4  1  0
 10  9  1  6
 10 11  1  0
 12 10  1  0
 12 13  1  6
 14 12  1  0
 14 23  1  0
 15 14  2  0
 16 17  1  0
 17 18  2  0
 18 19  1  0
 20 19  2  0
 20 21  1  0
 22 21  1  6
 22 23  1  0
 22 24  1  0
 24 28  1  0
 25 24  2  0
 26 20  1  0
 27 17  1  0
 27 26  2  0
M  END
$$$$
