QAL.pdb
     RDKit          3D

 23 22  0  0  1  0  0  0  0  0999 V2000
   15.0635  -13.8295  -18.1520 N   0  0  0  0  0  0  0  0  0  0  0  0
   15.6982  -14.5937  -17.1515 C   0  0  0  0  0  0  0  0  0  0  0  0
   15.3693  -15.7863  -16.9950 O   0  0  0  0  0  0  0  0  0  0  0  0
   16.7356  -13.9679  -16.3145 C   0  0  0  0  0  0  0  0  0  0  0  0
   17.0611  -12.5507  -16.6512 C   0  0  0  0  0  0  0  0  0  0  0  0
   17.1442  -11.6234  -15.4691 C   0  0  2  0  0  0  0  0  0  0  0  0
   15.7742  -11.1658  -15.2220 N   0  0  0  0  0  0  0  0  0  0  0  0
   17.9570  -10.4203  -15.7658 C   0  0  0  0  0  0  0  0  0  0  0  0
   19.1783  -10.5506  -15.9998 O   0  0  0  0  0  0  0  0  0  0  0  0
   17.1664   -6.7555  -16.0320 C   0  0  0  0  0  0  0  0  0  0  0  0
   18.1790   -7.9012  -15.9342 C   0  0  2  0  0  0  0  0  0  0  0  0
   17.4161   -9.1107  -15.7990 N   0  0  0  0  0  0  0  0  0  0  0  0
   19.0248   -7.6169  -14.7582 C   0  0  0  0  0  0  0  0  0  0  0  0
   18.7124   -7.8780  -13.5697 O   0  0  0  0  0  0  0  0  0  0  0  0
   23.3940   -9.8644  -14.0933 C   0  0  0  0  0  0  0  0  0  0  0  0
   22.7242   -8.6058  -14.6446 C   0  0  2  0  0  0  0  0  0  0  0  0
   23.6443   -7.8654  -15.5196 C   0  0  0  0  0  0  0  0  0  0  0  0
   22.0122   -7.9196  -13.5599 C   0  0  0  0  0  0  0  0  0  0  0  0
   21.2179   -6.7186  -13.8680 C   0  0  2  0  0  0  0  0  0  0  0  0
   20.2833   -7.0043  -14.9809 N   0  0  0  0  0  0  0  0  0  0  0  0
   21.9432   -5.5044  -14.2015 C   0  0  0  0  0  0  0  0  0  0  0  0
   21.8965   -4.9126  -15.4404 O   0  0  0  0  0  0  0  0  0  0  0  0
   22.6783   -4.9233  -13.3374 O   0  0  0  0  0  0  0  0  0  0  0  0
  1  2  1  0
  2  3  2  0
  4  5  1  0
  4  2  1  0
  5  6  1  0
  6  8  1  0
  6  7  1  6
  8  9  2  0
 11 10  1  1
 11 13  1  0
 12 11  1  0
 12  8  1  0
 13 14  2  0
 13 20  1  0
 16 15  1  1
 16 17  1  0
 18 16  1  0
 19 18  1  6
 19 21  1  0
 20 19  1  0
 21 23  2  0
 21 22  1  0
M  END
$$$$
