QAL.pdb
     RDKit          3D

 23 22  0  0  1  0  0  0  0  0999 V2000
   17.5755  -15.4281  -15.2594 N   0  0  0  0  0  0  0  0  0  0  0  0
   18.7283  -15.7169  -16.0177 C   0  0  0  0  0  0  0  0  0  0  0  0
   19.5564  -16.5394  -15.5787 O   0  0  0  0  0  0  0  0  0  0  0  0
   18.9291  -15.0426  -17.3113 C   0  0  0  0  0  0  0  0  0  0  0  0
   17.8210  -14.1397  -17.7413 C   0  0  0  0  0  0  0  0  0  0  0  0
   18.1098  -13.3282  -18.9751 C   0  0  2  0  0  0  0  0  0  0  0  0
   18.7647  -14.2443  -19.9129 N   0  0  0  0  0  0  0  0  0  0  0  0
   19.0656  -12.2288  -18.7031 C   0  0  0  0  0  0  0  0  0  0  0  0
   20.2805  -12.4940  -18.5720 O   0  0  0  0  0  0  0  0  0  0  0  0
   18.6884   -8.5057  -18.3397 C   0  0  0  0  0  0  0  0  0  0  0  0
   19.5615   -9.7642  -18.3822 C   0  0  2  0  0  0  0  0  0  0  0  0
   18.6706  -10.8731  -18.5818 N   0  0  0  0  0  0  0  0  0  0  0  0
   20.2784   -9.8236  -17.0932 C   0  0  0  0  0  0  0  0  0  0  0  0
   19.8383  -10.3716  -16.0519 O   0  0  0  0  0  0  0  0  0  0  0  0
   26.1431  -10.1381  -15.7838 C   0  0  0  0  0  0  0  0  0  0  0  0
   24.7690   -9.9617  -15.1377 C   0  0  2  0  0  0  0  0  0  0  0  0
   24.5614  -10.9537  -14.0732 C   0  0  0  0  0  0  0  0  0  0  0  0
   23.7600   -9.7709  -16.1864 C   0  0  0  0  0  0  0  0  0  0  0  0
   22.4050   -9.3344  -15.8099 C   0  0  2  0  0  0  0  0  0  0  0  0
   21.5582   -9.2193  -17.0195 N   0  0  0  0  0  0  0  0  0  0  0  0
   22.2851   -8.0912  -15.0671 C   0  0  0  0  0  0  0  0  0  0  0  0
   22.2012   -8.0348  -13.6971 O   0  0  0  0  0  0  0  0  0  0  0  0
   22.2458   -6.9694  -15.6712 O   0  0  0  0  0  0  0  0  0  0  0  0
  1  2  1  0
  2  3  2  0
  4  5  1  0
  4  2  1  0
  5  6  1  0
  6  8  1  0
  6  7  1  6
  8  9  2  0
 11 10  1  1
 11 13  1  0
 12 11  1  0
 12  8  1  0
 13 14  2  0
 13 20  1  0
 16 15  1  6
 16 17  1  0
 18 16  1  0
 19 18  1  6
 19 21  1  0
 20 19  1  0
 21 23  2  0
 21 22  1  0
M  END
$$$$
