QAL.pdb
     RDKit          3D

 23 22  0  0  1  0  0  0  0  0999 V2000
   16.6451  -17.8925    2.0550 N   0  0  0  0  0  0  0  0  0  0  0  0
   16.4257  -16.8636    2.9936 C   0  0  0  0  0  0  0  0  0  0  0  0
   16.4428  -15.6766    2.6119 O   0  0  0  0  0  0  0  0  0  0  0  0
   16.1801  -17.2127    4.4030 C   0  0  0  0  0  0  0  0  0  0  0  0
   16.1410  -18.6742    4.7030 C   0  0  0  0  0  0  0  0  0  0  0  0
   14.8792  -19.3736    4.2753 C   0  0  2  0  0  0  0  0  0  0  0  0
   13.8550  -18.9818    5.2473 N   0  0  0  0  0  0  0  0  0  0  0  0
   15.0102  -20.8477    4.3530 C   0  0  0  0  0  0  0  0  0  0  0  0
   14.9983  -21.4039    5.4727 O   0  0  0  0  0  0  0  0  0  0  0  0
   15.4307  -23.5511    1.7750 C   0  0  0  0  0  0  0  0  0  0  0  0
   15.4652  -23.0741    3.2307 C   0  0  2  0  0  0  0  0  0  0  0  0
   15.1501  -21.6729    3.2091 N   0  0  0  0  0  0  0  0  0  0  0  0
   16.8246  -23.3532    3.7337 C   0  0  0  0  0  0  0  0  0  0  0  0
   17.8131  -22.5912    3.5906 O   0  0  0  0  0  0  0  0  0  0  0  0
   18.7047  -23.1673    7.6085 C   0  0  0  0  0  0  0  0  0  0  0  0
   17.6176  -24.2344    7.4826 C   0  0  2  0  0  0  0  0  0  0  0  0
   17.1139  -24.6253    8.8069 C   0  0  0  0  0  0  0  0  0  0  0  0
   18.0465  -25.2534    6.5173 C   0  0  0  0  0  0  0  0  0  0  0  0
   18.3120  -24.8576    5.1240 C   0  0  2  0  0  0  0  0  0  0  0  0
   17.0357  -24.5693    4.4301 N   0  0  0  0  0  0  0  0  0  0  0  0
   19.0642  -25.7858    4.2968 C   0  0  0  0  0  0  0  0  0  0  0  0
   20.4231  -25.9591    4.3999 O   0  0  0  0  0  0  0  0  0  0  0  0
   18.4809  -26.4943    3.4121 O   0  0  0  0  0  0  0  0  0  0  0  0
  1  2  1  0
  2  3  2  0
  4  5  1  0
  4  2  1  0
  5  6  1  0
  6  8  1  0
  6  7  1  1
  8  9  2  0
 11 10  1  6
 11 13  1  0
 12 11  1  0
 12  8  1  0
 13 14  2  0
 13 20  1  0
 16 15  1  1
 16 17  1  0
 18 16  1  0
 19 18  1  1
 19 21  1  0
 20 19  1  0
 21 23  2  0
 21 22  1  0
M  END
$$$$
