QAL.pdb
     RDKit          3D

 23 22  0  0  1  0  0  0  0  0999 V2000
   16.8151   -6.7891  -17.8742 N   0  0  0  0  0  0  0  0  0  0  0  0
   16.6468   -7.9952  -18.5846 C   0  0  0  0  0  0  0  0  0  0  0  0
   15.9760   -7.9949  -19.6358 O   0  0  0  0  0  0  0  0  0  0  0  0
   17.2672   -9.2280  -18.0710 C   0  0  0  0  0  0  0  0  0  0  0  0
   18.0598   -9.0710  -16.8161 C   0  0  0  0  0  0  0  0  0  0  0  0
   18.7847  -10.3109  -16.3672 C   0  0  2  0  0  0  0  0  0  0  0  0
   17.7456  -11.2422  -15.9195 N   0  0  0  0  0  0  0  0  0  0  0  0
   19.6627  -10.0475  -15.2028 C   0  0  0  0  0  0  0  0  0  0  0  0
   19.1460   -9.8219  -14.0868 O   0  0  0  0  0  0  0  0  0  0  0  0
   23.2790  -10.4542  -14.4860 C   0  0  0  0  0  0  0  0  0  0  0  0
   21.9707   -9.7049  -14.2132 C   0  0  2  0  0  0  0  0  0  0  0  0
   21.0774  -10.0375  -15.2878 N   0  0  0  0  0  0  0  0  0  0  0  0
   22.3091   -8.2688  -14.1665 C   0  0  0  0  0  0  0  0  0  0  0  0
   23.1038   -7.7452  -13.3463 O   0  0  0  0  0  0  0  0  0  0  0  0
   20.9412   -3.5912  -17.9680 C   0  0  0  0  0  0  0  0  0  0  0  0
   21.8372   -4.0187  -16.8057 C   0  0  2  0  0  0  0  0  0  0  0  0
   23.2076   -3.5216  -16.9926 C   0  0  0  0  0  0  0  0  0  0  0  0
   21.5923   -5.4329  -16.4982 C   0  0  0  0  0  0  0  0  0  0  0  0
   22.0406   -5.9757  -15.2049 C   0  0  2  0  0  0  0  0  0  0  0  0
   21.6950   -7.4131  -15.1147 N   0  0  0  0  0  0  0  0  0  0  0  0
   21.5492   -5.3273  -14.0009 C   0  0  0  0  0  0  0  0  0  0  0  0
   22.2940   -4.4389  -13.2637 O   0  0  0  0  0  0  0  0  0  0  0  0
   20.3765   -5.5652  -13.5617 O   0  0  0  0  0  0  0  0  0  0  0  0
  1  2  1  0
  2  3  2  0
  4  5  1  0
  4  2  1  0
  5  6  1  0
  6  8  1  0
  6  7  1  1
  8  9  2  0
 11 10  1  6
 11 13  1  0
 12 11  1  0
 12  8  1  0
 13 14  2  0
 13 20  1  0
 16 15  1  6
 16 17  1  0
 18 16  1  0
 19 18  1  6
 19 21  1  0
 20 19  1  0
 21 23  2  0
 21 22  1  0
M  END
$$$$
