QAL.pdb
     RDKit          3D

 23 22  0  0  1  0  0  0  0  0999 V2000
   22.0134  -21.1822  -17.6173 N   0  0  0  0  0  0  0  0  0  0  0  0
   20.6821  -21.4442  -17.2342 C   0  0  0  0  0  0  0  0  0  0  0  0
   20.0522  -22.3569  -17.8043 O   0  0  0  0  0  0  0  0  0  0  0  0
   20.0652  -20.6359  -16.1690 C   0  0  0  0  0  0  0  0  0  0  0  0
   20.9635  -19.6330  -15.5248 C   0  0  0  0  0  0  0  0  0  0  0  0
   21.9993  -20.2138  -14.6008 C   0  0  2  0  0  0  0  0  0  0  0  0
   21.3545  -20.3137  -13.2886 N   0  0  0  0  0  0  0  0  0  0  0  0
   23.1669  -19.3148  -14.4435 C   0  0  0  0  0  0  0  0  0  0  0  0
   23.0125  -18.2041  -13.8903 O   0  0  0  0  0  0  0  0  0  0  0  0
   26.7963  -19.5977  -15.3830 C   0  0  0  0  0  0  0  0  0  0  0  0
   25.6223  -18.8011  -14.8042 C   0  0  2  0  0  0  0  0  0  0  0  0
   24.4682  -19.6515  -14.8930 N   0  0  0  0  0  0  0  0  0  0  0  0
   25.5017  -17.5761  -15.6189 C   0  0  0  0  0  0  0  0  0  0  0  0
   24.7371  -17.4438  -16.6070 O   0  0  0  0  0  0  0  0  0  0  0  0
   24.8571  -12.3938  -15.8604 C   0  0  0  0  0  0  0  0  0  0  0  0
   26.2977  -12.6729  -15.4319 C   0  0  2  0  0  0  0  0  0  0  0  0
   27.2485  -12.1264  -16.4105 C   0  0  0  0  0  0  0  0  0  0  0  0
   26.4093  -14.0651  -14.9808 C   0  0  0  0  0  0  0  0  0  0  0  0
   26.1642  -15.1541  -15.9411 C   0  0  2  0  0  0  0  0  0  0  0  0
   26.3056  -16.4640  -15.2646 N   0  0  0  0  0  0  0  0  0  0  0  0
   26.9846  -15.1858  -17.1401 C   0  0  0  0  0  0  0  0  0  0  0  0
   26.5564  -14.7236  -18.3609 O   0  0  0  0  0  0  0  0  0  0  0  0
   28.1668  -15.6617  -17.1116 O   0  0  0  0  0  0  0  0  0  0  0  0
  1  2  1  0
  2  3  2  0
  4  5  1  0
  4  2  1  0
  5  6  1  0
  6  8  1  0
  6  7  1  1
  8  9  2  0
 11 10  1  6
 11 13  1  0
 12 11  1  0
 12  8  1  0
 13 14  2  0
 13 20  1  0
 16 15  1  6
 16 17  1  0
 18 16  1  0
 19 18  1  1
 19 21  1  0
 20 19  1  0
 21 23  2  0
 21 22  1  0
M  END
$$$$
