QAL.pdb
     RDKit          3D

 23 22  0  0  1  0  0  0  0  0999 V2000
   13.5612  -11.8816  -15.8906 N   0  0  0  0  0  0  0  0  0  0  0  0
   13.5710  -13.2479  -15.5431 C   0  0  0  0  0  0  0  0  0  0  0  0
   12.4894  -13.8302  -15.3289 O   0  0  0  0  0  0  0  0  0  0  0  0
   14.8573  -13.9577  -15.4418 C   0  0  0  0  0  0  0  0  0  0  0  0
   16.0690  -13.1278  -15.7080 C   0  0  0  0  0  0  0  0  0  0  0  0
   16.3192  -12.8223  -17.1600 C   0  0  2  0  0  0  0  0  0  0  0  0
   16.8639  -14.0529  -17.7402 N   0  0  0  0  0  0  0  0  0  0  0  0
   17.3463  -11.7683  -17.3347 C   0  0  0  0  0  0  0  0  0  0  0  0
   18.5456  -12.0409  -17.1100 O   0  0  0  0  0  0  0  0  0  0  0  0
   17.1798   -8.1252  -18.2436 C   0  0  0  0  0  0  0  0  0  0  0  0
   17.9852   -9.3778  -17.8831 C   0  0  2  0  0  0  0  0  0  0  0  0
   17.0372  -10.4486  -17.7490 N   0  0  0  0  0  0  0  0  0  0  0  0
   18.6962   -9.0745  -16.6256 C   0  0  0  0  0  0  0  0  0  0  0  0
   18.2076   -9.2047  -15.4756 O   0  0  0  0  0  0  0  0  0  0  0  0
   23.8250  -10.3947  -14.3173 C   0  0  0  0  0  0  0  0  0  0  0  0
   22.7718   -9.2944  -14.1879 C   0  0  2  0  0  0  0  0  0  0  0  0
   22.2820   -9.2006  -12.8053 C   0  0  0  0  0  0  0  0  0  0  0  0
   21.8285   -9.3907  -15.3082 C   0  0  0  0  0  0  0  0  0  0  0  0
   20.8391   -8.3188  -15.5094 C   0  0  2  0  0  0  0  0  0  0  0  0
   20.0289   -8.6010  -16.7167 N   0  0  0  0  0  0  0  0  0  0  0  0
   21.3394   -6.9592  -15.6215 C   0  0  0  0  0  0  0  0  0  0  0  0
   21.4725   -6.1123  -14.5481 O   0  0  0  0  0  0  0  0  0  0  0  0
   21.6803   -6.4786  -16.7519 O   0  0  0  0  0  0  0  0  0  0  0  0
  1  2  1  0
  2  3  2  0
  4  5  1  0
  4  2  1  0
  5  6  1  0
  6  8  1  0
  6  7  1  6
  8  9  2  0
 11 10  1  1
 11 13  1  0
 12 11  1  0
 12  8  1  0
 13 14  2  0
 13 20  1  0
 16 15  1  1
 16 17  1  0
 18 16  1  0
 19 18  1  6
 19 21  1  0
 20 19  1  0
 21 23  2  0
 21 22  1  0
M  END
$$$$
