QAL.pdb
     RDKit          3D

 23 22  0  0  1  0  0  0  0  0999 V2000
   26.7792  -22.0639  -10.2406 N   0  0  0  0  0  0  0  0  0  0  0  0
   25.7197  -21.1343  -10.2724 C   0  0  0  0  0  0  0  0  0  0  0  0
   24.7854  -21.2467   -9.4543 O   0  0  0  0  0  0  0  0  0  0  0  0
   25.7399  -20.0508  -11.2695 C   0  0  0  0  0  0  0  0  0  0  0  0
   26.7192  -20.2234  -12.3826 C   0  0  0  0  0  0  0  0  0  0  0  0
   26.2975  -21.1965  -13.4502 C   0  0  2  0  0  0  0  0  0  0  0  0
   27.3429  -21.1436  -14.4758 N   0  0  0  0  0  0  0  0  0  0  0  0
   25.0299  -20.7890  -14.1008 C   0  0  0  0  0  0  0  0  0  0  0  0
   24.9699  -19.6844  -14.6834 O   0  0  0  0  0  0  0  0  0  0  0  0
   21.8232  -22.5844  -14.8178 C   0  0  0  0  0  0  0  0  0  0  0  0
   22.6414  -21.2894  -14.7848 C   0  0  2  0  0  0  0  0  0  0  0  0
   23.8650  -21.5964  -14.0981 N   0  0  0  0  0  0  0  0  0  0  0  0
   21.8178  -20.2883  -14.0786 C   0  0  0  0  0  0  0  0  0  0  0  0
   21.7584  -20.1597  -12.8303 O   0  0  0  0  0  0  0  0  0  0  0  0
   19.3597  -16.1297  -12.8806 C   0  0  0  0  0  0  0  0  0  0  0  0
   19.9051  -15.8309  -14.2769 C   0  0  2  0  0  0  0  0  0  0  0  0
   18.9219  -15.0819  -15.0722 C   0  0  0  0  0  0  0  0  0  0  0  0
   20.5390  -17.0384  -14.8195 C   0  0  0  0  0  0  0  0  0  0  0  0
   20.1977  -18.3502  -14.2442 C   0  0  2  0  0  0  0  0  0  0  0  0
   21.0344  -19.4046  -14.8620 N   0  0  0  0  0  0  0  0  0  0  0  0
   18.8119  -18.7787  -14.3317 C   0  0  0  0  0  0  0  0  0  0  0  0
   17.8980  -18.5910  -13.3233 O   0  0  0  0  0  0  0  0  0  0  0  0
   18.3739  -19.3682  -15.3736 O   0  0  0  0  0  0  0  0  0  0  0  0
  1  2  1  0
  2  3  2  0
  4  5  1  0
  4  2  1  0
  5  6  1  0
  6  8  1  0
  6  7  1  6
  8  9  2  0
 11 10  1  1
 11 13  1  0
 12 11  1  0
 12  8  1  0
 13 14  2  0
 13 20  1  0
 16 15  1  1
 16 17  1  0
 18 16  1  0
 19 18  1  6
 19 21  1  0
 20 19  1  0
 21 23  2  0
 21 22  1  0
M  END
$$$$
