KQM.pdb
     RDKit          3D

 27 26  0  0  1  0  0  0  0  0999 V2000
   17.3813  -14.2128  -18.0511 N   0  0  0  0  0  0  0  0  0  0  0  0
   17.7410  -13.6276  -16.8198 C   0  0  1  0  0  0  0  0  0  0  0  0
   18.6618  -14.3860  -15.9246 C   0  0  0  0  0  0  0  0  0  0  0  0
   18.1505  -15.6139  -15.2932 C   0  0  0  0  0  0  0  0  0  0  0  0
   18.5739  -16.9268  -15.8192 C   0  0  0  0  0  0  0  0  0  0  0  0
   17.9064  -18.1251  -15.2366 C   0  0  0  0  0  0  0  0  0  0  0  0
   18.2675  -19.3084  -15.9604 N   0  0  0  0  0  0  0  0  0  0  0  0
   18.1497  -12.1813  -16.9286 C   0  0  0  0  0  0  0  0  0  0  0  0
   19.0663  -11.9123  -17.7574 O   0  0  0  0  0  0  0  0  0  0  0  0
   14.8278   -7.1986  -15.1343 N   0  0  0  0  0  0  0  0  0  0  0  0
   16.0409   -6.5619  -15.4766 C   0  0  0  0  0  0  0  0  0  0  0  0
   16.1888   -5.3144  -15.4421 O   0  0  0  0  0  0  0  0  0  0  0  0
   17.2270   -7.3814  -15.9052 C   0  0  0  0  0  0  0  0  0  0  0  0
   16.9095   -8.8382  -15.8933 C   0  0  0  0  0  0  0  0  0  0  0  0
   18.0329   -9.7306  -16.3642 C   0  0  2  0  0  0  0  0  0  0  0  0
   17.5989  -11.1354  -16.1923 N   0  0  0  0  0  0  0  0  0  0  0  0
   19.2430   -9.4852  -15.5611 C   0  0  0  0  0  0  0  0  0  0  0  0
   19.3071   -9.9867  -14.3864 O   0  0  0  0  0  0  0  0  0  0  0  0
   26.8425  -10.0715  -14.9298 C   0  0  0  0  0  0  0  0  0  0  0  0
   25.2734  -10.2125  -15.8295 S   0  0  0  0  0  0  0  0  0  0  0  0
   23.9613   -9.2618  -14.9815 C   0  0  0  0  0  0  0  0  0  0  0  0
   22.6560   -9.4362  -15.6778 C   0  0  0  0  0  0  0  0  0  0  0  0
   21.5477   -8.6111  -15.0610 C   0  0  2  0  0  0  0  0  0  0  0  0
   20.3780   -8.7442  -15.9517 N   0  0  0  0  0  0  0  0  0  0  0  0
   21.9750   -7.2031  -15.0108 C   0  0  0  0  0  0  0  0  0  0  0  0
   21.6827   -6.4421  -15.9679 O   0  0  0  0  0  0  0  0  0  0  0  0
   22.6894   -6.6194  -13.9755 O   0  0  0  0  0  0  0  0  0  0  0  0
  2  3  1  0
  2  1  1  6
  4  5  1  0
  4  3  1  0
  6  5  1  0
  7  6  1  0
  8  9  2  0
  8  2  1  0
 10 11  1  0
 11 12  2  0
 13 14  1  0
 13 11  1  0
 15 14  1  1
 15 16  1  0
 16  8  1  0
 17 24  1  0
 17 15  1  0
 18 17  2  0
 19 20  1  0
 20 21  1  0
 21 22  1  0
 23 22  1  6
 23 24  1  0
 23 25  1  0
 25 27  1  0
 26 25  2  0
M  END
$$$$
