KQM.pdb
     RDKit          3D

 27 26  0  0  1  0  0  0  0  0999 V2000
   15.1712  -23.2365   -3.0743 N   0  0  0  0  0  0  0  0  0  0  0  0
   14.5519  -23.3259   -1.8108 C   0  0  1  0  0  0  0  0  0  0  0  0
   14.3111  -24.6834   -1.2416 C   0  0  0  0  0  0  0  0  0  0  0  0
   15.3724  -25.6921   -1.3964 C   0  0  0  0  0  0  0  0  0  0  0  0
   15.1857  -27.0330   -0.8077 C   0  0  0  0  0  0  0  0  0  0  0  0
   16.3112  -27.9960   -0.9724 C   0  0  0  0  0  0  0  0  0  0  0  0
   15.9514  -29.2875   -0.4653 N   0  0  0  0  0  0  0  0  0  0  0  0
   15.1338  -22.3940   -0.7795 C   0  0  0  0  0  0  0  0  0  0  0  0
   16.2897  -21.9383   -1.0155 O   0  0  0  0  0  0  0  0  0  0  0  0
   11.9010  -18.5118    2.7142 N   0  0  0  0  0  0  0  0  0  0  0  0
   13.2128  -18.1211    3.0617 C   0  0  0  0  0  0  0  0  0  0  0  0
   13.4626  -17.0724    3.7076 O   0  0  0  0  0  0  0  0  0  0  0  0
   14.3846  -18.9731    2.6577 C   0  0  0  0  0  0  0  0  0  0  0  0
   13.9531  -20.1112    1.7965 C   0  0  0  0  0  0  0  0  0  0  0  0
   15.0776  -20.9957    1.3133 C   0  0  2  0  0  0  0  0  0  0  0  0
   14.4995  -22.0051    0.3977 N   0  0  0  0  0  0  0  0  0  0  0  0
   15.7146  -21.6721    2.4562 C   0  0  0  0  0  0  0  0  0  0  0  0
   15.1824  -22.7456    2.9031 O   0  0  0  0  0  0  0  0  0  0  0  0
   20.9119  -25.4948    1.8339 C   0  0  0  0  0  0  0  0  0  0  0  0
   20.7314  -23.9067    2.6921 S   0  0  0  0  0  0  0  0  0  0  0  0
   18.9933  -23.6457    3.1974 C   0  0  0  0  0  0  0  0  0  0  0  0
   18.8524  -22.3642    3.9438 C   0  0  0  0  0  0  0  0  0  0  0  0
   17.4135  -22.0339    4.2752 C   0  0  2  0  0  0  0  0  0  0  0  0
   16.8839  -21.2646    3.1319 N   0  0  0  0  0  0  0  0  0  0  0  0
   17.3844  -21.2013    5.4891 C   0  0  0  0  0  0  0  0  0  0  0  0
   17.0794  -19.9858    5.3883 O   0  0  0  0  0  0  0  0  0  0  0  0
   17.6684  -21.6453    6.7717 O   0  0  0  0  0  0  0  0  0  0  0  0
  2  3  1  0
  2  1  1  6
  4  5  1  0
  4  3  1  0
  6  5  1  0
  7  6  1  0
  8  9  2  0
  8  2  1  0
 10 11  1  0
 11 12  2  0
 13 14  1  0
 13 11  1  0
 15 14  1  1
 15 16  1  0
 16  8  1  0
 17 24  1  0
 17 15  1  0
 18 17  2  0
 19 20  1  0
 20 21  1  0
 21 22  1  0
 23 22  1  6
 23 24  1  0
 23 25  1  0
 25 27  1  0
 26 25  2  0
M  END
$$$$
