KQM.pdb
     RDKit          3D

 27 26  0  0  1  0  0  0  0  0999 V2000
   28.3146  -14.3098  -20.6186 N   0  0  0  0  0  0  0  0  0  0  0  0
   27.5947  -14.5364  -19.4276 C   0  0  1  0  0  0  0  0  0  0  0  0
   27.7976  -15.8341  -18.7209 C   0  0  0  0  0  0  0  0  0  0  0  0
   27.7883  -17.0655  -19.5279 C   0  0  0  0  0  0  0  0  0  0  0  0
   26.5131  -17.7768  -19.7455 C   0  0  0  0  0  0  0  0  0  0  0  0
   26.3169  -19.0421  -18.9828 C   0  0  0  0  0  0  0  0  0  0  0  0
   25.0617  -19.6471  -19.3190 N   0  0  0  0  0  0  0  0  0  0  0  0
   27.6275  -13.3770  -18.4656 C   0  0  0  0  0  0  0  0  0  0  0  0
   26.9401  -13.4964  -17.4108 O   0  0  0  0  0  0  0  0  0  0  0  0
   31.8114   -8.7071  -18.3647 N   0  0  0  0  0  0  0  0  0  0  0  0
   32.0367  -10.0082  -17.8639 C   0  0  0  0  0  0  0  0  0  0  0  0
   33.1850  -10.4502  -17.6082 O   0  0  0  0  0  0  0  0  0  0  0  0
   30.8755  -10.9308  -17.6143 C   0  0  0  0  0  0  0  0  0  0  0  0
   29.5779  -10.2573  -17.9077 C   0  0  0  0  0  0  0  0  0  0  0  0
   28.3564  -11.1080  -17.6541 C   0  0  2  0  0  0  0  0  0  0  0  0
   28.3491  -12.2008  -18.6527 N   0  0  0  0  0  0  0  0  0  0  0  0
   27.1363  -10.2960  -17.8011 C   0  0  0  0  0  0  0  0  0  0  0  0
   26.6622  -10.1149  -18.9749 O   0  0  0  0  0  0  0  0  0  0  0  0
   19.9745   -8.4684  -15.4065 C   0  0  0  0  0  0  0  0  0  0  0  0
   21.5084   -9.4302  -15.2901 S   0  0  0  0  0  0  0  0  0  0  0  0
   22.8104   -8.6886  -16.3386 C   0  0  0  0  0  0  0  0  0  0  0  0
   24.0805   -9.4574  -16.2174 C   0  0  0  0  0  0  0  0  0  0  0  0
   25.1999   -8.8759  -17.0530 C   0  0  2  0  0  0  0  0  0  0  0  0
   26.4030   -9.6813  -16.7646 N   0  0  0  0  0  0  0  0  0  0  0  0
   25.4262   -7.4810  -16.6398 C   0  0  0  0  0  0  0  0  0  0  0  0
   26.3728   -7.2233  -15.8536 O   0  0  0  0  0  0  0  0  0  0  0  0
   24.6722   -6.3919  -17.0499 O   0  0  0  0  0  0  0  0  0  0  0  0
  2  3  1  0
  2  1  1  6
  4  5  1  0
  4  3  1  0
  6  5  1  0
  7  6  1  0
  8  9  2  0
  8  2  1  0
 10 11  1  0
 11 12  2  0
 13 14  1  0
 13 11  1  0
 15 14  1  6
 15 16  1  0
 16  8  1  0
 17 24  1  0
 17 15  1  0
 18 17  2  0
 19 20  1  0
 20 21  1  0
 21 22  1  0
 23 22  1  1
 23 24  1  0
 23 25  1  0
 25 27  1  0
 26 25  2  0
M  END
$$$$
