KQM.pdb
     RDKit          3D

 27 26  0  0  1  0  0  0  0  0999 V2000
   34.0929  -21.5494  -21.3985 N   0  0  0  0  0  0  0  0  0  0  0  0
   33.1044  -22.2761  -22.0933 C   0  0  1  0  0  0  0  0  0  0  0  0
   33.5398  -23.1583  -23.2144 C   0  0  0  0  0  0  0  0  0  0  0  0
   34.0936  -22.5173  -24.4186 C   0  0  0  0  0  0  0  0  0  0  0  0
   33.2025  -21.7269  -25.2908 C   0  0  0  0  0  0  0  0  0  0  0  0
   33.8105  -21.1621  -26.5287 C   0  0  0  0  0  0  0  0  0  0  0  0
   32.8364  -20.4297  -27.2831 N   0  0  0  0  0  0  0  0  0  0  0  0
   32.1189  -22.9773  -21.1946 C   0  0  0  0  0  0  0  0  0  0  0  0
   31.1440  -23.5505  -21.7608 O   0  0  0  0  0  0  0  0  0  0  0  0
   33.0692  -24.8491  -15.3093 N   0  0  0  0  0  0  0  0  0  0  0  0
   31.7379  -25.2815  -15.4962 C   0  0  0  0  0  0  0  0  0  0  0  0
   31.1284  -25.9919  -14.6578 O   0  0  0  0  0  0  0  0  0  0  0  0
   30.9876  -24.8934  -16.7407 C   0  0  0  0  0  0  0  0  0  0  0  0
   31.8460  -24.0948  -17.6618 C   0  0  0  0  0  0  0  0  0  0  0  0
   31.1990  -23.7468  -18.9811 C   0  0  2  0  0  0  0  0  0  0  0  0
   32.2031  -23.0378  -19.8059 N   0  0  0  0  0  0  0  0  0  0  0  0
   30.0357  -22.8715  -18.7575 C   0  0  0  0  0  0  0  0  0  0  0  0
   29.1474  -23.2414  -17.9152 O   0  0  0  0  0  0  0  0  0  0  0  0
   26.6506  -17.7404  -14.9496 C   0  0  0  0  0  0  0  0  0  0  0  0
   27.9292  -18.9232  -15.4572 S   0  0  0  0  0  0  0  0  0  0  0  0
   27.6647  -19.4483  -17.1888 C   0  0  0  0  0  0  0  0  0  0  0  0
   28.7188  -20.4131  -17.6096 C   0  0  0  0  0  0  0  0  0  0  0  0
   28.5765  -20.8443  -19.0529 C   0  0  2  0  0  0  0  0  0  0  0  0
   29.7829  -21.6304  -19.3785 N   0  0  0  0  0  0  0  0  0  0  0  0
   28.5219  -19.6444  -19.9043 C   0  0  0  0  0  0  0  0  0  0  0  0
   29.5317  -19.3327  -20.5853 O   0  0  0  0  0  0  0  0  0  0  0  0
   27.4282  -18.8014  -20.0309 O   0  0  0  0  0  0  0  0  0  0  0  0
  2  3  1  0
  2  1  1  1
  4  5  1  0
  4  3  1  0
  6  5  1  0
  7  6  1  0
  8  9  2  0
  8  2  1  0
 10 11  1  0
 11 12  2  0
 13 14  1  0
 13 11  1  0
 15 14  1  1
 15 16  1  0
 16  8  1  0
 17 24  1  0
 17 15  1  0
 18 17  2  0
 19 20  1  0
 20 21  1  0
 21 22  1  0
 23 22  1  1
 23 24  1  0
 23 25  1  0
 25 27  1  0
 26 25  2  0
M  END
$$$$
