KQM.pdb
     RDKit          3D

 27 26  0  0  1  0  0  0  0  0999 V2000
   28.1041  -20.0447  -16.7105 N   0  0  0  0  0  0  0  0  0  0  0  0
   28.2166  -18.8860  -15.9150 C   0  0  1  0  0  0  0  0  0  0  0  0
   28.3027  -17.5665  -16.6051 C   0  0  0  0  0  0  0  0  0  0  0  0
   28.9317  -17.5260  -17.9356 C   0  0  0  0  0  0  0  0  0  0  0  0
   28.5199  -18.5069  -18.9593 C   0  0  0  0  0  0  0  0  0  0  0  0
   29.2345  -18.4470  -20.2657 C   0  0  0  0  0  0  0  0  0  0  0  0
   28.7299  -19.4421  -21.1655 N   0  0  0  0  0  0  0  0  0  0  0  0
   27.2454  -18.8405  -14.7637 C   0  0  0  0  0  0  0  0  0  0  0  0
   27.2926  -17.8167  -14.0228 O   0  0  0  0  0  0  0  0  0  0  0  0
   20.4088  -20.9046  -12.9069 N   0  0  0  0  0  0  0  0  0  0  0  0
   21.5937  -20.7791  -13.6649 C   0  0  0  0  0  0  0  0  0  0  0  0
   21.6802  -21.1549  -14.8609 O   0  0  0  0  0  0  0  0  0  0  0  0
   22.8236  -20.1742  -13.0455 C   0  0  0  0  0  0  0  0  0  0  0  0
   23.9649  -20.1694  -14.0051 C   0  0  0  0  0  0  0  0  0  0  0  0
   25.2614  -19.6427  -13.4379 C   0  0  2  0  0  0  0  0  0  0  0  0
   26.3141  -19.8307  -14.4614 N   0  0  0  0  0  0  0  0  0  0  0  0
   25.6185  -20.3879  -12.2186 C   0  0  0  0  0  0  0  0  0  0  0  0
   26.1332  -21.5518  -12.3443 O   0  0  0  0  0  0  0  0  0  0  0  0
   29.1063  -18.9303   -7.3614 C   0  0  0  0  0  0  0  0  0  0  0  0
   27.9444  -19.9512   -6.4133 S   0  0  0  0  0  0  0  0  0  0  0  0
   26.8601  -20.9008   -7.5389 C   0  0  0  0  0  0  0  0  0  0  0  0
   26.6179  -20.1404   -8.7968 C   0  0  0  0  0  0  0  0  0  0  0  0
   25.6915  -20.8635   -9.7499 C   0  0  2  0  0  0  0  0  0  0  0  0
   25.4606  -19.9506  -10.8868 N   0  0  0  0  0  0  0  0  0  0  0  0
   24.4175  -21.1317   -9.0626 C   0  0  0  0  0  0  0  0  0  0  0  0
   23.3977  -20.4725   -9.3884 O   0  0  0  0  0  0  0  0  0  0  0  0
   24.2302  -22.0724   -8.0612 O   0  0  0  0  0  0  0  0  0  0  0  0
  2  3  1  0
  2  1  1  6
  4  5  1  0
  4  3  1  0
  6  5  1  0
  7  6  1  0
  8  9  2  0
  8  2  1  0
 10 11  1  0
 11 12  2  0
 13 14  1  0
 13 11  1  0
 15 14  1  6
 15 16  1  0
 16  8  1  0
 17 24  1  0
 17 15  1  0
 18 17  2  0
 19 20  1  0
 20 21  1  0
 21 22  1  0
 23 22  1  1
 23 24  1  0
 23 25  1  0
 25 27  1  0
 26 25  2  0
M  END
$$$$
