KQM.pdb
     RDKit          3D

 27 26  0  0  1  0  0  0  0  0999 V2000
   16.1887  -24.7096   -4.6413 N   0  0  0  0  0  0  0  0  0  0  0  0
   15.2639  -24.9783   -3.6115 C   0  0  1  0  0  0  0  0  0  0  0  0
   15.1799  -26.3732   -3.0900 C   0  0  0  0  0  0  0  0  0  0  0  0
   14.5702  -27.3956   -3.9563 C   0  0  0  0  0  0  0  0  0  0  0  0
   14.8029  -27.3401   -5.4131 C   0  0  0  0  0  0  0  0  0  0  0  0
   14.1116  -28.3706   -6.2385 C   0  0  0  0  0  0  0  0  0  0  0  0
   14.3687  -28.1594   -7.6327 N   0  0  0  0  0  0  0  0  0  0  0  0
   15.2932  -23.9738   -2.4886 C   0  0  0  0  0  0  0  0  0  0  0  0
   16.4272  -23.5147   -2.1684 O   0  0  0  0  0  0  0  0  0  0  0  0
   10.2788  -21.1800    0.0732 N   0  0  0  0  0  0  0  0  0  0  0  0
   10.9004  -20.6178   -1.0633 C   0  0  0  0  0  0  0  0  0  0  0  0
   10.3162  -19.8122   -1.8308 O   0  0  0  0  0  0  0  0  0  0  0  0
   12.3219  -20.9767   -1.3993 C   0  0  0  0  0  0  0  0  0  0  0  0
   12.8588  -21.9977   -0.4546 C   0  0  0  0  0  0  0  0  0  0  0  0
   14.2632  -22.4605   -0.7603 C   0  0  2  0  0  0  0  0  0  0  0  0
   14.1775  -23.5222   -1.7882 N   0  0  0  0  0  0  0  0  0  0  0  0
   14.8930  -23.0004    0.4568 C   0  0  0  0  0  0  0  0  0  0  0  0
   14.8642  -24.2644    0.6487 O   0  0  0  0  0  0  0  0  0  0  0  0
   21.0353  -24.8002    4.2943 C   0  0  0  0  0  0  0  0  0  0  0  0
   20.1673  -23.7916    3.0610 S   0  0  0  0  0  0  0  0  0  0  0  0
   18.3920  -23.6568    3.4786 C   0  0  0  0  0  0  0  0  0  0  0  0
   17.6305  -23.0679    2.3417 C   0  0  0  0  0  0  0  0  0  0  0  0
   16.1518  -22.9340    2.6333 C   0  0  2  0  0  0  0  0  0  0  0  0
   15.5510  -22.2632    1.4635 N   0  0  0  0  0  0  0  0  0  0  0  0
   15.9775  -22.0944    3.8300 C   0  0  0  0  0  0  0  0  0  0  0  0
   15.6871  -20.8796    3.6863 O   0  0  0  0  0  0  0  0  0  0  0  0
   16.1054  -22.5308    5.1400 O   0  0  0  0  0  0  0  0  0  0  0  0
  2  3  1  0
  2  1  1  1
  4  5  1  0
  4  3  1  0
  6  5  1  0
  7  6  1  0
  8  9  2  0
  8  2  1  0
 10 11  1  0
 11 12  2  0
 13 14  1  0
 13 11  1  0
 15 14  1  1
 15 16  1  0
 16  8  1  0
 17 24  1  0
 17 15  1  0
 18 17  2  0
 19 20  1  0
 20 21  1  0
 21 22  1  0
 23 22  1  6
 23 24  1  0
 23 25  1  0
 25 27  1  0
 26 25  2  0
M  END
$$$$
