KQM.pdb
     RDKit          3D

 27 26  0  0  1  0  0  0  0  0999 V2000
   19.6306  -19.7241  -17.6980 N   0  0  0  0  0  0  0  0  0  0  0  0
   19.3984  -19.7243  -16.3073 C   0  0  1  0  0  0  0  0  0  0  0  0
   18.0074  -19.9696  -15.8280 C   0  0  0  0  0  0  0  0  0  0  0  0
   17.2309  -21.0334  -16.4862 C   0  0  0  0  0  0  0  0  0  0  0  0
   16.4112  -21.9442  -15.6626 C   0  0  0  0  0  0  0  0  0  0  0  0
   17.0600  -23.2122  -15.2241 C   0  0  0  0  0  0  0  0  0  0  0  0
   16.1862  -23.9587  -14.3676 N   0  0  0  0  0  0  0  0  0  0  0  0
   20.3994  -20.5320  -15.5223 C   0  0  0  0  0  0  0  0  0  0  0  0
   20.4341  -20.3329  -14.2739 O   0  0  0  0  0  0  0  0  0  0  0  0
   24.0632  -25.1888  -14.3544 N   0  0  0  0  0  0  0  0  0  0  0  0
   22.7155  -25.5091  -14.6290 C   0  0  0  0  0  0  0  0  0  0  0  0
   22.1371  -26.5067  -14.1296 O   0  0  0  0  0  0  0  0  0  0  0  0
   21.9083  -24.6406  -15.5544 C   0  0  0  0  0  0  0  0  0  0  0  0
   22.6787  -23.4340  -15.9715 C   0  0  0  0  0  0  0  0  0  0  0  0
   22.2972  -22.1637  -15.2498 C   0  0  2  0  0  0  0  0  0  0  0  0
   21.2766  -21.4675  -16.0653 N   0  0  0  0  0  0  0  0  0  0  0  0
   23.4786  -21.2983  -15.0922 C   0  0  0  0  0  0  0  0  0  0  0  0
   23.7727  -20.4899  -16.0385 O   0  0  0  0  0  0  0  0  0  0  0  0
   26.5292  -21.5046   -8.6766 C   0  0  0  0  0  0  0  0  0  0  0  0
   25.9476  -20.2322   -9.8317 S   0  0  0  0  0  0  0  0  0  0  0  0
   25.9964  -20.8565  -11.5499 C   0  0  0  0  0  0  0  0  0  0  0  0
   25.5526  -19.8009  -12.5027 C   0  0  0  0  0  0  0  0  0  0  0  0
   25.4714  -20.2961  -13.9301 C   0  0  2  0  0  0  0  0  0  0  0  0
   24.3466  -21.2509  -13.9813 N   0  0  0  0  0  0  0  0  0  0  0  0
   26.7262  -20.9897  -14.2647 C   0  0  0  0  0  0  0  0  0  0  0  0
   26.7673  -22.2444  -14.1952 O   0  0  0  0  0  0  0  0  0  0  0  0
   27.9016  -20.3711  -14.6630 O   0  0  0  0  0  0  0  0  0  0  0  0
  2  3  1  0
  2  1  1  6
  4  5  1  0
  4  3  1  0
  6  5  1  0
  7  6  1  0
  8  9  2  0
  8  2  1  0
 10 11  1  0
 11 12  2  0
 13 14  1  0
 13 11  1  0
 15 14  1  6
 15 16  1  0
 16  8  1  0
 17 24  1  0
 17 15  1  0
 18 17  2  0
 19 20  1  0
 20 21  1  0
 21 22  1  0
 23 22  1  1
 23 24  1  0
 23 25  1  0
 25 27  1  0
 26 25  2  0
M  END
$$$$
