KQM.pdb
     RDKit          3D

 27 26  0  0  1  0  0  0  0  0999 V2000
   20.4274  -11.6377  -15.7899 N   0  0  0  0  0  0  0  0  0  0  0  0
   20.4406  -11.1002  -17.0933 C   0  0  1  0  0  0  0  0  0  0  0  0
   19.1367  -10.9387  -17.7992 C   0  0  0  0  0  0  0  0  0  0  0  0
   18.1105  -11.9742  -17.5933 C   0  0  0  0  0  0  0  0  0  0  0  0
   16.9141  -11.6556  -16.7891 C   0  0  0  0  0  0  0  0  0  0  0  0
   15.8884  -12.7298  -16.6655 C   0  0  0  0  0  0  0  0  0  0  0  0
   14.8907  -12.3693  -15.7016 N   0  0  0  0  0  0  0  0  0  0  0  0
   21.2977   -9.8691  -17.2362 C   0  0  0  0  0  0  0  0  0  0  0  0
   21.4396   -9.4101  -18.4061 O   0  0  0  0  0  0  0  0  0  0  0  0
   21.7598   -5.2216  -13.3932 N   0  0  0  0  0  0  0  0  0  0  0  0
   20.8577   -5.3735  -14.4691 C   0  0  0  0  0  0  0  0  0  0  0  0
   19.7524   -4.7778  -14.5206 O   0  0  0  0  0  0  0  0  0  0  0  0
   21.2027   -6.2792  -15.6193 C   0  0  0  0  0  0  0  0  0  0  0  0
   22.4828   -7.0026  -15.3717 C   0  0  0  0  0  0  0  0  0  0  0  0
   22.8249   -8.0477  -16.4066 C   0  0  2  0  0  0  0  0  0  0  0  0
   21.9359   -9.2109  -16.1879 N   0  0  0  0  0  0  0  0  0  0  0  0
   24.2298   -8.4643  -16.2580 C   0  0  0  0  0  0  0  0  0  0  0  0
   24.6544   -8.7718  -15.0915 O   0  0  0  0  0  0  0  0  0  0  0  0
   28.9710  -13.7580  -15.4332 C   0  0  0  0  0  0  0  0  0  0  0  0
   27.3982  -12.9466  -15.8323 S   0  0  0  0  0  0  0  0  0  0  0  0
   27.6750  -11.1919  -16.2669 C   0  0  0  0  0  0  0  0  0  0  0  0
   26.3760  -10.4956  -16.4838 C   0  0  0  0  0  0  0  0  0  0  0  0
   26.5463   -9.0884  -17.0131 C   0  0  2  0  0  0  0  0  0  0  0  0
   25.1898   -8.5739  -17.2858 N   0  0  0  0  0  0  0  0  0  0  0  0
   27.3174   -9.1420  -18.2662 C   0  0  0  0  0  0  0  0  0  0  0  0
   28.5673   -9.2652  -18.2088 O   0  0  0  0  0  0  0  0  0  0  0  0
   26.7787   -9.0691  -19.5418 O   0  0  0  0  0  0  0  0  0  0  0  0
  2  3  1  0
  2  1  1  1
  4  5  1  0
  4  3  1  0
  6  5  1  0
  7  6  1  0
  8  9  2  0
  8  2  1  0
 10 11  1  0
 11 12  2  0
 13 14  1  0
 13 11  1  0
 15 14  1  1
 15 16  1  0
 16  8  1  0
 17 24  1  0
 17 15  1  0
 18 17  2  0
 19 20  1  0
 20 21  1  0
 21 22  1  0
 23 22  1  6
 23 24  1  0
 23 25  1  0
 25 27  1  0
 26 25  2  0
M  END
$$$$
