KQM.pdb
     RDKit          3D

 27 26  0  0  1  0  0  0  0  0999 V2000
   23.8907  -21.2626  -17.8042 N   0  0  0  0  0  0  0  0  0  0  0  0
   24.0101  -20.0582  -17.0809 C   0  0  1  0  0  0  0  0  0  0  0  0
   25.1532  -19.1561  -17.4034 C   0  0  0  0  0  0  0  0  0  0  0  0
   25.6381  -19.1304  -18.7934 C   0  0  0  0  0  0  0  0  0  0  0  0
   26.8488  -18.3520  -19.1217 C   0  0  0  0  0  0  0  0  0  0  0  0
   27.2291  -18.2863  -20.5612 C   0  0  0  0  0  0  0  0  0  0  0  0
   28.4558  -17.5642  -20.7288 N   0  0  0  0  0  0  0  0  0  0  0  0
   22.7203  -19.2881  -16.9622 C   0  0  0  0  0  0  0  0  0  0  0  0
   22.1013  -19.0500  -18.0391 O   0  0  0  0  0  0  0  0  0  0  0  0
   18.7587  -19.1548  -12.2270 N   0  0  0  0  0  0  0  0  0  0  0  0
   18.2198  -18.0960  -12.9904 C   0  0  0  0  0  0  0  0  0  0  0  0
   17.1615  -17.4973  -12.6729 O   0  0  0  0  0  0  0  0  0  0  0  0
   18.9166  -17.6396  -14.2428 C   0  0  0  0  0  0  0  0  0  0  0  0
   20.1842  -18.3938  -14.4608 C   0  0  0  0  0  0  0  0  0  0  0  0
   20.9213  -18.0318  -15.7280 C   0  0  2  0  0  0  0  0  0  0  0  0
   22.1698  -18.8260  -15.7694 N   0  0  0  0  0  0  0  0  0  0  0  0
   21.2488  -16.5957  -15.7288 C   0  0  0  0  0  0  0  0  0  0  0  0
   22.0987  -16.1638  -14.8766 O   0  0  0  0  0  0  0  0  0  0  0  0
   22.2832   -9.8110  -19.5219 C   0  0  0  0  0  0  0  0  0  0  0  0
   21.9273  -11.5900  -19.5211 S   0  0  0  0  0  0  0  0  0  0  0  0
   21.6198  -12.1809  -17.8180 C   0  0  0  0  0  0  0  0  0  0  0  0
   21.3079  -13.6375  -17.8181 C   0  0  0  0  0  0  0  0  0  0  0  0
   21.0704  -14.1863  -16.4282 C   0  0  2  0  0  0  0  0  0  0  0  0
   20.7227  -15.6117  -16.5919 N   0  0  0  0  0  0  0  0  0  0  0  0
   19.9392  -13.4667  -15.8199 C   0  0  0  0  0  0  0  0  0  0  0  0
   20.1650  -12.4202  -15.1608 O   0  0  0  0  0  0  0  0  0  0  0  0
   18.6081  -13.8448  -15.9098 O   0  0  0  0  0  0  0  0  0  0  0  0
  2  3  1  0
  2  1  1  6
  4  5  1  0
  4  3  1  0
  6  5  1  0
  7  6  1  0
  8  9  2  0
  8  2  1  0
 10 11  1  0
 11 12  2  0
 13 14  1  0
 13 11  1  0
 15 14  1  1
 15 16  1  0
 16  8  1  0
 17 24  1  0
 17 15  1  0
 18 17  2  0
 19 20  1  0
 20 21  1  0
 21 22  1  0
 23 22  1  6
 23 24  1  0
 23 25  1  0
 25 27  1  0
 26 25  2  0
M  END
$$$$
