KQM.pdb
     RDKit          3D

 27 26  0  0  1  0  0  0  0  0999 V2000
   18.0306  -14.4622  -18.4104 N   0  0  0  0  0  0  0  0  0  0  0  0
   18.4036  -13.7551  -17.2490 C   0  0  1  0  0  0  0  0  0  0  0  0
   19.2046  -14.4741  -16.2164 C   0  0  0  0  0  0  0  0  0  0  0  0
   18.7262  -15.7931  -15.7704 C   0  0  0  0  0  0  0  0  0  0  0  0
   19.4126  -16.4703  -14.6525 C   0  0  0  0  0  0  0  0  0  0  0  0
   18.8482  -17.7795  -14.2185 C   0  0  0  0  0  0  0  0  0  0  0  0
   19.5189  -18.2566  -13.0450 N   0  0  0  0  0  0  0  0  0  0  0  0
   18.9671  -12.3849  -17.5242 C   0  0  0  0  0  0  0  0  0  0  0  0
   19.7061  -12.2705  -18.5441 O   0  0  0  0  0  0  0  0  0  0  0  0
   16.0533   -7.1664  -17.3402 N   0  0  0  0  0  0  0  0  0  0  0  0
   17.3532   -6.6282  -17.4629 C   0  0  0  0  0  0  0  0  0  0  0  0
   17.5708   -5.3985  -17.6040 O   0  0  0  0  0  0  0  0  0  0  0  0
   18.5512   -7.5369  -17.4274 C   0  0  0  0  0  0  0  0  0  0  0  0
   18.1462   -8.9562  -17.2161 C   0  0  0  0  0  0  0  0  0  0  0  0
   19.2964   -9.9267  -17.0923 C   0  0  2  0  0  0  0  0  0  0  0  0
   18.7363  -11.2527  -16.7470 N   0  0  0  0  0  0  0  0  0  0  0  0
   20.2161   -9.4864  -16.0293 C   0  0  0  0  0  0  0  0  0  0  0  0
   19.8449   -9.6110  -14.8119 O   0  0  0  0  0  0  0  0  0  0  0  0
   26.4233  -12.0305  -15.5430 C   0  0  0  0  0  0  0  0  0  0  0  0
   25.9134  -10.2996  -15.7313 S   0  0  0  0  0  0  0  0  0  0  0  0
   24.1625  -10.0914  -15.2464 C   0  0  0  0  0  0  0  0  0  0  0  0
   23.7434   -8.6698  -15.3972 C   0  0  0  0  0  0  0  0  0  0  0  0
   22.2874   -8.4479  -15.0509 C   0  0  2  0  0  0  0  0  0  0  0  0
   21.5018   -8.9326  -16.2029 N   0  0  0  0  0  0  0  0  0  0  0  0
   22.0574   -7.0056  -14.8655 C   0  0  0  0  0  0  0  0  0  0  0  0
   22.2698   -6.4938  -13.7369 O   0  0  0  0  0  0  0  0  0  0  0  0
   21.6172   -6.1320  -15.8482 O   0  0  0  0  0  0  0  0  0  0  0  0
  2  3  1  0
  2  1  1  6
  4  5  1  0
  4  3  1  0
  6  5  1  0
  7  6  1  0
  8  9  2  0
  8  2  1  0
 10 11  1  0
 11 12  2  0
 13 14  1  0
 13 11  1  0
 15 14  1  1
 15 16  1  0
 16  8  1  0
 17 24  1  0
 17 15  1  0
 18 17  2  0
 19 20  1  0
 20 21  1  0
 21 22  1  0
 23 22  1  6
 23 24  1  0
 23 25  1  0
 25 27  1  0
 26 25  2  0
M  END
$$$$
