KQM.pdb
     RDKit          3D

 27 26  0  0  1  0  0  0  0  0999 V2000
   15.9974  -13.1414    5.6380 N   0  0  0  0  0  0  0  0  0  0  0  0
   17.1046  -14.0032    5.4981 C   0  0  1  0  0  0  0  0  0  0  0  0
   18.3699  -13.6398    6.1993 C   0  0  0  0  0  0  0  0  0  0  0  0
   19.0710  -12.4203    5.7649 C   0  0  0  0  0  0  0  0  0  0  0  0
   20.3726  -12.0800    6.3730 C   0  0  0  0  0  0  0  0  0  0  0  0
   20.9804  -10.7821    5.9643 C   0  0  0  0  0  0  0  0  0  0  0  0
   22.2645  -10.6086    6.5772 N   0  0  0  0  0  0  0  0  0  0  0  0
   16.7708  -15.4602    5.6888 C   0  0  0  0  0  0  0  0  0  0  0  0
   16.3542  -15.8010    6.8332 O   0  0  0  0  0  0  0  0  0  0  0  0
   15.9314  -19.9136    1.3434 N   0  0  0  0  0  0  0  0  0  0  0  0
   15.8362  -20.6825    2.5241 C   0  0  0  0  0  0  0  0  0  0  0  0
   15.5173  -21.8980    2.5215 O   0  0  0  0  0  0  0  0  0  0  0  0
   16.1222  -20.0514    3.8591 C   0  0  0  0  0  0  0  0  0  0  0  0
   16.3302  -18.5807    3.7276 C   0  0  0  0  0  0  0  0  0  0  0  0
   16.7200  -17.8837    5.0092 C   0  0  2  0  0  0  0  0  0  0  0  0
   16.8872  -16.4437    4.7098 N   0  0  0  0  0  0  0  0  0  0  0  0
   17.9885  -18.4336    5.5171 C   0  0  0  0  0  0  0  0  0  0  0  0
   19.0774  -17.8361    5.2124 O   0  0  0  0  0  0  0  0  0  0  0  0
   23.4606  -18.0395   10.0763 C   0  0  0  0  0  0  0  0  0  0  0  0
   21.8350  -17.7056    9.3434 S   0  0  0  0  0  0  0  0  0  0  0  0
   21.2700  -19.1390    8.3582 C   0  0  0  0  0  0  0  0  0  0  0  0
   20.0032  -18.8162    7.6440 C   0  0  0  0  0  0  0  0  0  0  0  0
   19.4756  -19.9785    6.8317 C   0  0  2  0  0  0  0  0  0  0  0  0
   18.1466  -19.5742    6.3319 N   0  0  0  0  0  0  0  0  0  0  0  0
   19.3387  -21.1505    7.7122 C   0  0  0  0  0  0  0  0  0  0  0  0
   18.2321  -21.3716    8.2664 O   0  0  0  0  0  0  0  0  0  0  0  0
   20.3450  -22.0618    7.9947 O   0  0  0  0  0  0  0  0  0  0  0  0
  2  3  1  0
  2  1  1  1
  4  5  1  0
  4  3  1  0
  6  5  1  0
  7  6  1  0
  8  9  2  0
  8  2  1  0
 10 11  1  0
 11 12  2  0
 13 14  1  0
 13 11  1  0
 15 14  1  6
 15 16  1  0
 16  8  1  0
 17 24  1  0
 17 15  1  0
 18 17  2  0
 19 20  1  0
 20 21  1  0
 21 22  1  0
 23 22  1  1
 23 24  1  0
 23 25  1  0
 25 27  1  0
 26 25  2  0
M  END
$$$$
