YAV.pdb
     RDKit          3D

 25 25  0  0  1  0  0  0  0  0999 V2000
    8.0491  -13.3041   16.1596 O   0  0  0  0  0  0  0  0  0  0  0  0
    7.9590  -13.6849   17.5021 C   0  0  0  0  0  0  0  0  0  0  0  0
    8.4327  -14.8906   17.9562 C   0  0  0  0  0  0  0  0  0  0  0  0
    8.3214  -15.2298   19.3068 C   0  0  0  0  0  0  0  0  0  0  0  0
    7.7406  -14.3809   20.2229 C   0  0  0  0  0  0  0  0  0  0  0  0
    7.6036  -14.7110   21.6522 C   0  0  0  0  0  0  0  0  0  0  0  0
    7.2011  -16.1421   21.9229 C   0  0  2  0  0  0  0  0  0  0  0  0
    5.7742  -16.2129   21.6405 N   0  0  0  0  0  0  0  0  0  0  0  0
    7.4995  -16.4653   23.3278 C   0  0  0  0  0  0  0  0  0  0  0  0
    6.8472  -15.9161   24.2518 O   0  0  0  0  0  0  0  0  0  0  0  0
    7.2699  -13.1644   19.7289 C   0  0  0  0  0  0  0  0  0  0  0  0
    7.3774  -12.8247   18.3968 C   0  0  0  0  0  0  0  0  0  0  0  0
    9.2579  -19.0663   25.3542 C   0  0  0  0  0  0  0  0  0  0  0  0
    8.7383  -17.6661   25.1124 C   0  0  2  0  0  0  0  0  0  0  0  0
    8.5076  -17.3862   23.7329 N   0  0  0  0  0  0  0  0  0  0  0  0
    9.6789  -16.7264   25.7605 C   0  0  0  0  0  0  0  0  0  0  0  0
   10.6926  -16.3833   25.0906 O   0  0  0  0  0  0  0  0  0  0  0  0
    9.3915  -13.2207   26.7694 C   0  0  0  0  0  0  0  0  0  0  0  0
    9.8767  -13.9684   28.0038 C   0  0  1  0  0  0  0  0  0  0  0  0
    8.7387  -14.1282   28.9701 C   0  0  0  0  0  0  0  0  0  0  0  0
   10.4947  -15.3008   27.6244 C   0  0  2  0  0  0  0  0  0  0  0  0
    9.5099  -16.2013   27.0617 N   0  0  0  0  0  0  0  0  0  0  0  0
   11.0476  -15.8828   28.8745 C   0  0  0  0  0  0  0  0  0  0  0  0
   12.1935  -15.3746   29.4788 O   0  0  0  0  0  0  0  0  0  0  0  0
   10.4429  -16.8633   29.3808 O   0  0  0  0  0  0  0  0  0  0  0  0
  2  1  1  0
  3  2  2  0
  4  5  2  0
  4  3  1  0
  5 11  1  0
  6  5  1  0
  7  9  1  0
  7  6  1  0
  7  8  1  1
  9 10  2  0
 11 12  2  0
 12  2  1  0
 14 13  1  6
 15 14  1  0
 15  9  1  0
 16 22  1  0
 16 14  1  0
 17 16  2  0
 19 18  1  6
 19 20  1  0
 21 19  1  0
 21 22  1  1
 23 21  1  0
 23 24  1  0
 25 23  2  0
M  END
$$$$
