YAV.pdb
     RDKit          3D

 25 25  0  0  1  0  0  0  0  0999 V2000
    7.7354  -22.2703   29.7492 O   0  0  0  0  0  0  0  0  0  0  0  0
    7.6527  -21.2380   28.8096 C   0  0  0  0  0  0  0  0  0  0  0  0
    6.5820  -21.1020   27.9613 C   0  0  0  0  0  0  0  0  0  0  0  0
    6.5413  -20.0547   27.0376 C   0  0  0  0  0  0  0  0  0  0  0  0
    7.5585  -19.1310   26.9423 C   0  0  0  0  0  0  0  0  0  0  0  0
    7.5480  -18.0188   25.9761 C   0  0  0  0  0  0  0  0  0  0  0  0
    7.4763  -18.4532   24.5306 C   0  0  2  0  0  0  0  0  0  0  0  0
    8.4111  -19.5624   24.4029 N   0  0  0  0  0  0  0  0  0  0  0  0
    7.8504  -17.3181   23.6710 C   0  0  0  0  0  0  0  0  0  0  0  0
    9.0628  -17.0690   23.4504 O   0  0  0  0  0  0  0  0  0  0  0  0
    8.6312  -19.2978   27.8182 C   0  0  0  0  0  0  0  0  0  0  0  0
    8.6762  -20.3296   28.7319 C   0  0  0  0  0  0  0  0  0  0  0  0
    6.2474  -14.6425   21.5287 C   0  0  0  0  0  0  0  0  0  0  0  0
    7.3286  -15.2566   22.3905 C   0  0  2  0  0  0  0  0  0  0  0  0
    6.9081  -16.4503   23.0484 N   0  0  0  0  0  0  0  0  0  0  0  0
    7.8088  -14.2061   23.3145 C   0  0  0  0  0  0  0  0  0  0  0  0
    8.4650  -13.2558   22.8041 O   0  0  0  0  0  0  0  0  0  0  0  0
    6.6811  -11.2953   24.9182 C   0  0  0  0  0  0  0  0  0  0  0  0
    7.1535  -12.1988   26.0490 C   0  0  1  0  0  0  0  0  0  0  0  0
    5.9684  -12.8739   26.6768 C   0  0  0  0  0  0  0  0  0  0  0  0
    8.1828  -13.1969   25.5536 C   0  0  2  0  0  0  0  0  0  0  0  0
    7.5790  -14.2065   24.7090 N   0  0  0  0  0  0  0  0  0  0  0  0
    8.7663  -13.8382   26.7601 C   0  0  0  0  0  0  0  0  0  0  0  0
    8.6243  -15.1994   27.0114 O   0  0  0  0  0  0  0  0  0  0  0  0
    9.4026  -13.1062   27.5618 O   0  0  0  0  0  0  0  0  0  0  0  0
  2  1  1  0
  3  2  2  0
  4  5  2  0
  4  3  1  0
  5 11  1  0
  6  5  1  0
  7  9  1  0
  7  6  1  0
  7  8  1  1
  9 10  2  0
 11 12  2  0
 12  2  1  0
 14 13  1  1
 15 14  1  0
 15  9  1  0
 16 22  1  0
 16 14  1  0
 17 16  2  0
 19 18  1  6
 19 20  1  0
 21 19  1  0
 21 22  1  6
 23 21  1  0
 23 24  1  0
 25 23  2  0
M  END
$$$$
