YAV.pdb
     RDKit          3D

 25 25  0  0  1  0  0  0  0  0999 V2000
    7.4222  -12.3166   16.3376 O   0  0  0  0  0  0  0  0  0  0  0  0
    7.5068  -12.8821   17.6136 C   0  0  0  0  0  0  0  0  0  0  0  0
    8.6991  -13.0099   18.2819 C   0  0  0  0  0  0  0  0  0  0  0  0
    8.7368  -13.5815   19.5561 C   0  0  0  0  0  0  0  0  0  0  0  0
    7.5967  -14.0329   20.1832 C   0  0  0  0  0  0  0  0  0  0  0  0
    7.6035  -14.6446   21.5235 C   0  0  0  0  0  0  0  0  0  0  0  0
    8.0802  -16.0783   21.5489 C   0  0  2  0  0  0  0  0  0  0  0  0
    7.0264  -16.8579   20.9144 N   0  0  0  0  0  0  0  0  0  0  0  0
    8.2982  -16.4851   22.9468 C   0  0  0  0  0  0  0  0  0  0  0  0
    7.3475  -16.4468   23.7687 O   0  0  0  0  0  0  0  0  0  0  0  0
    6.4024  -13.8882   19.4771 C   0  0  0  0  0  0  0  0  0  0  0  0
    6.3596  -13.3247   18.2193 C   0  0  0  0  0  0  0  0  0  0  0  0
   10.4594  -18.6957   24.9005 C   0  0  0  0  0  0  0  0  0  0  0  0
    9.6734  -17.4072   24.7962 C   0  0  2  0  0  0  0  0  0  0  0  0
    9.5500  -16.9348   23.4560 N   0  0  0  0  0  0  0  0  0  0  0  0
   10.2985  -16.4313   25.7153 C   0  0  0  0  0  0  0  0  0  0  0  0
   11.2628  -15.7562   25.2586 O   0  0  0  0  0  0  0  0  0  0  0  0
    9.1194  -13.3129   27.0897 C   0  0  0  0  0  0  0  0  0  0  0  0
    9.5808  -14.1254   28.2919 C   0  0  1  0  0  0  0  0  0  0  0  0
    8.3834  -14.6714   29.0147 C   0  0  0  0  0  0  0  0  0  0  0  0
   10.5420  -15.2209   27.8711 C   0  0  2  0  0  0  0  0  0  0  0  0
    9.8852  -16.2163   27.0496 N   0  0  0  0  0  0  0  0  0  0  0  0
   11.0381  -15.8525   29.1210 C   0  0  0  0  0  0  0  0  0  0  0  0
   11.9258  -15.2016   29.9723 O   0  0  0  0  0  0  0  0  0  0  0  0
   10.6279  -17.0103   29.3941 O   0  0  0  0  0  0  0  0  0  0  0  0
  2  1  1  0
  3  2  2  0
  4  5  2  0
  4  3  1  0
  5 11  1  0
  6  5  1  0
  7  9  1  0
  7  6  1  0
  7  8  1  1
  9 10  2  0
 11 12  2  0
 12  2  1  0
 14 13  1  6
 15 14  1  0
 15  9  1  0
 16 22  1  0
 16 14  1  0
 17 16  2  0
 19 18  1  6
 19 20  1  0
 21 19  1  0
 21 22  1  6
 23 21  1  0
 23 24  1  0
 25 23  2  0
M  END
$$$$
