YAV.pdb
     RDKit          3D

 25 25  0  0  1  0  0  0  0  0999 V2000
    8.5082  -13.4069   15.4035 O   0  0  0  0  0  0  0  0  0  0  0  0
    8.2963  -13.7480   16.7430 C   0  0  0  0  0  0  0  0  0  0  0  0
    8.9249  -14.8141   17.3369 C   0  0  0  0  0  0  0  0  0  0  0  0
    8.6832  -15.1185   18.6788 C   0  0  0  0  0  0  0  0  0  0  0  0
    7.8175  -14.3726   19.4478 C   0  0  0  0  0  0  0  0  0  0  0  0
    7.5374  -14.6704   20.8632 C   0  0  0  0  0  0  0  0  0  0  0  0
    7.3604  -16.1405   21.1648 C   0  0  2  0  0  0  0  0  0  0  0  0
    6.0565  -16.5017   20.6262 N   0  0  0  0  0  0  0  0  0  0  0  0
    7.4275  -16.3412   22.6216 C   0  0  0  0  0  0  0  0  0  0  0  0
    6.4591  -16.0025   23.3485 O   0  0  0  0  0  0  0  0  0  0  0  0
    7.1956  -13.2968   18.8141 C   0  0  0  0  0  0  0  0  0  0  0  0
    7.4307  -12.9920   17.4899 C   0  0  0  0  0  0  0  0  0  0  0  0
    9.4343  -18.1450   25.2176 C   0  0  0  0  0  0  0  0  0  0  0  0
    8.5872  -16.9959   24.7164 C   0  0  2  0  0  0  0  0  0  0  0  0
    8.5470  -16.9106   23.2931 N   0  0  0  0  0  0  0  0  0  0  0  0
    9.0785  -15.7644   25.3721 C   0  0  0  0  0  0  0  0  0  0  0  0
   10.0827  -15.2040   24.8509 O   0  0  0  0  0  0  0  0  0  0  0  0
    8.0294  -12.3461   25.6740 C   0  0  0  0  0  0  0  0  0  0  0  0
    8.2063  -12.8279   27.1075 C   0  0  1  0  0  0  0  0  0  0  0  0
    6.8591  -13.0966   27.7135 C   0  0  0  0  0  0  0  0  0  0  0  0
    9.1107  -14.0444   27.1644 C   0  0  2  0  0  0  0  0  0  0  0  0
    8.4983  -15.1911   26.5262 N   0  0  0  0  0  0  0  0  0  0  0  0
    9.3390  -14.3358   28.6032 C   0  0  0  0  0  0  0  0  0  0  0  0
    8.8134  -15.4686   29.2170 O   0  0  0  0  0  0  0  0  0  0  0  0
   10.0313  -13.5181   29.2631 O   0  0  0  0  0  0  0  0  0  0  0  0
  2  1  1  0
  3  2  2  0
  4  5  2  0
  4  3  1  0
  5 11  1  0
  6  5  1  0
  7  9  1  0
  7  6  1  0
  7  8  1  1
  9 10  2  0
 11 12  2  0
 12  2  1  0
 14 13  1  6
 15 14  1  0
 15  9  1  0
 16 22  1  0
 16 14  1  0
 17 16  2  0
 19 18  1  6
 19 20  1  0
 21 19  1  0
 21 22  1  1
 23 21  1  0
 23 24  1  0
 25 23  2  0
M  END
$$$$
