CYD.pdb
     RDKit          3D

 27 27  0  0  1  0  0  0  0  0999 V2000
   21.9889  -12.0567  -17.5543 N   0  0  0  0  0  0  0  0  0  0  0  0
   21.6767  -10.7050  -17.8898 C   0  0  1  0  0  0  0  0  0  0  0  0
   20.2396  -10.5158  -18.3183 C   0  0  0  0  0  0  0  0  0  0  0  0
   19.8886  -11.6773  -19.6666 S   0  0  0  0  0  0  0  0  0  0  0  0
   22.0712   -9.7258  -16.8433 C   0  0  0  0  0  0  0  0  0  0  0  0
   21.8508  -10.0131  -15.6573 O   0  0  0  0  0  0  0  0  0  0  0  0
   27.6467  -12.2630  -16.3518 O   0  0  0  0  0  0  0  0  0  0  0  0
   26.9105  -11.0763  -16.2985 C   0  0  0  0  0  0  0  0  0  0  0  0
   26.6293  -10.3838  -17.4550 C   0  0  0  0  0  0  0  0  0  0  0  0
   25.9050   -9.2127  -17.4199 C   0  0  0  0  0  0  0  0  0  0  0  0
   25.4262   -8.6775  -16.2216 C   0  0  0  0  0  0  0  0  0  0  0  0
   24.6798   -7.4160  -16.2114 C   0  0  0  0  0  0  0  0  0  0  0  0
   23.2084   -7.5884  -16.1040 C   0  0  2  0  0  0  0  0  0  0  0  0
   22.6872   -8.4790  -17.1341 N   0  0  0  0  0  0  0  0  0  0  0  0
   22.5191   -6.3009  -16.0856 C   0  0  0  0  0  0  0  0  0  0  0  0
   22.5308   -5.5941  -17.1209 O   0  0  0  0  0  0  0  0  0  0  0  0
   25.7205   -9.3885  -15.0785 C   0  0  0  0  0  0  0  0  0  0  0  0
   26.4454  -10.5621  -15.1062 C   0  0  0  0  0  0  0  0  0  0  0  0
   21.8235   -5.7795  -14.9624 N   0  0  0  0  0  0  0  0  0  0  0  0
   21.0873   -4.5128  -15.1024 C   0  0  1  0  0  0  0  0  0  0  0  0
   19.8216   -4.5420  -14.3103 C   0  0  0  0  0  0  0  0  0  0  0  0
   18.7774   -5.4217  -14.8741 C   0  0  0  0  0  0  0  0  0  0  0  0
   18.6711   -5.6714  -16.1137 O   0  0  0  0  0  0  0  0  0  0  0  0
   21.9517   -3.3673  -14.7641 C   0  0  0  0  0  0  0  0  0  0  0  0
   23.0571   -3.4715  -14.1814 O   0  0  0  0  0  0  0  0  0  0  0  0
   17.8396   -6.0269  -14.0170 O   0  0  0  0  0  0  0  0  0  0  0  0
   21.5327   -2.0939  -15.1043 O   0  0  0  0  0  0  0  0  0  0  0  0
  2  1  1  1
  2  3  1  0
  4  3  1  0
  5  2  1  0
  6  5  2  0
  8  7  1  0
  8 18  2  0
  9  8  1  0
 10  9  2  0
 10 11  1  0
 11 17  2  0
 13 12  1  6
 12 11  1  0
 13 14  1  0
 14  5  1  0
 15 13  1  0
 15 19  1  0
 16 15  2  0
 17 18  1  0
 20 24  1  0
 20 19  1  0
 20 21  1  1
 22 21  1  0
 22 23  2  0
 24 27  1  0
 25 24  2  0
 26 22  1  0
M  END
$$$$
