CYD.pdb
     RDKit          3D

 27 27  0  0  1  0  0  0  0  0999 V2000
   19.3723  -20.4582  -11.3322 N   0  0  0  0  0  0  0  0  0  0  0  0
   20.2726  -21.2666  -12.0892 C   0  0  1  0  0  0  0  0  0  0  0  0
   19.5711  -22.1843  -13.0642 C   0  0  0  0  0  0  0  0  0  0  0  0
   18.7907  -23.5253  -12.1247 S   0  0  0  0  0  0  0  0  0  0  0  0
   21.3578  -20.4925  -12.7472 C   0  0  0  0  0  0  0  0  0  0  0  0
   21.1588  -19.2930  -12.9907 O   0  0  0  0  0  0  0  0  0  0  0  0
   29.2317  -18.5651  -16.4712 O   0  0  0  0  0  0  0  0  0  0  0  0
   28.1973  -19.0928  -15.6938 C   0  0  0  0  0  0  0  0  0  0  0  0
   27.8723  -20.4276  -15.7884 C   0  0  0  0  0  0  0  0  0  0  0  0
   26.8555  -20.9637  -15.0293 C   0  0  0  0  0  0  0  0  0  0  0  0
   26.1134  -20.1865  -14.1365 C   0  0  0  0  0  0  0  0  0  0  0  0
   25.0201  -20.7783  -13.3601 C   0  0  0  0  0  0  0  0  0  0  0  0
   23.6720  -20.2944  -13.7537 C   0  0  2  0  0  0  0  0  0  0  0  0
   22.6095  -21.0580  -13.1104 N   0  0  0  0  0  0  0  0  0  0  0  0
   23.5218  -20.2526  -15.2059 C   0  0  0  0  0  0  0  0  0  0  0  0
   23.2446  -21.3122  -15.8157 O   0  0  0  0  0  0  0  0  0  0  0  0
   26.4575  -18.8544  -14.0599 C   0  0  0  0  0  0  0  0  0  0  0  0
   27.4746  -18.3108  -14.8172 C   0  0  0  0  0  0  0  0  0  0  0  0
   23.6688  -19.0801  -15.9940 N   0  0  0  0  0  0  0  0  0  0  0  0
   23.4553  -19.1646  -17.4477 C   0  0  1  0  0  0  0  0  0  0  0  0
   22.5334  -18.0863  -17.9142 C   0  0  0  0  0  0  0  0  0  0  0  0
   21.1003  -18.4207  -17.7862 C   0  0  0  0  0  0  0  0  0  0  0  0
   20.6810  -19.5551  -17.4018 O   0  0  0  0  0  0  0  0  0  0  0  0
   24.7437  -19.1703  -18.1644 C   0  0  0  0  0  0  0  0  0  0  0  0
   25.5815  -18.2389  -18.1075 O   0  0  0  0  0  0  0  0  0  0  0  0
   20.1287  -17.4522  -18.0995 O   0  0  0  0  0  0  0  0  0  0  0  0
   25.0634  -20.2623  -18.9506 O   0  0  0  0  0  0  0  0  0  0  0  0
  2  1  1  6
  2  3  1  0
  4  3  1  0
  5  2  1  0
  6  5  2  0
  8  7  1  0
  8 18  2  0
  9  8  1  0
 10  9  2  0
 10 11  1  0
 11 17  2  0
 13 12  1  6
 12 11  1  0
 13 14  1  0
 14  5  1  0
 15 13  1  0
 15 19  1  0
 16 15  2  0
 17 18  1  0
 20 24  1  0
 20 19  1  0
 20 21  1  6
 22 21  1  0
 22 23  2  0
 24 27  1  0
 25 24  2  0
 26 22  1  0
M  END
$$$$
