CYD.pdb
     RDKit          3D

 27 27  0  0  1  0  0  0  0  0999 V2000
   28.1784  -23.4128  -17.4474 N   0  0  0  0  0  0  0  0  0  0  0  0
   27.6939  -22.1330  -17.0420 C   0  0  1  0  0  0  0  0  0  0  0  0
   27.1296  -21.3216  -18.1857 C   0  0  0  0  0  0  0  0  0  0  0  0
   28.4720  -20.9729  -19.3547 S   0  0  0  0  0  0  0  0  0  0  0  0
   26.7533  -22.1896  -15.8923 C   0  0  0  0  0  0  0  0  0  0  0  0
   25.9681  -23.1468  -15.8226 O   0  0  0  0  0  0  0  0  0  0  0  0
   22.7363  -20.6116   -8.1445 O   0  0  0  0  0  0  0  0  0  0  0  0
   23.6291  -20.5918   -9.2194 C   0  0  0  0  0  0  0  0  0  0  0  0
   23.3088  -19.9108  -10.3726 C   0  0  0  0  0  0  0  0  0  0  0  0
   24.1774  -19.8814  -11.4412 C   0  0  0  0  0  0  0  0  0  0  0  0
   25.4119  -20.5344  -11.4062 C   0  0  0  0  0  0  0  0  0  0  0  0
   26.3055  -20.5075  -12.5678 C   0  0  0  0  0  0  0  0  0  0  0  0
   25.7969  -21.2712  -13.7359 C   0  0  2  0  0  0  0  0  0  0  0  0
   26.7096  -21.2029  -14.8710 N   0  0  0  0  0  0  0  0  0  0  0  0
   24.4403  -20.8637  -14.0917 C   0  0  0  0  0  0  0  0  0  0  0  0
   24.2855  -19.9180  -14.9000 O   0  0  0  0  0  0  0  0  0  0  0  0
   25.7094  -21.2086  -10.2418 C   0  0  0  0  0  0  0  0  0  0  0  0
   24.8442  -21.2423   -9.1676 C   0  0  0  0  0  0  0  0  0  0  0  0
   23.2611  -21.4693  -13.5815 N   0  0  0  0  0  0  0  0  0  0  0  0
   21.9599  -21.1014  -14.1625 C   0  0  1  0  0  0  0  0  0  0  0  0
   21.8612  -21.5591  -15.5806 C   0  0  0  0  0  0  0  0  0  0  0  0
   21.5984  -20.4738  -16.5477 C   0  0  0  0  0  0  0  0  0  0  0  0
   21.4855  -19.2548  -16.2136 O   0  0  0  0  0  0  0  0  0  0  0  0
   20.8548  -21.5948  -13.3202 C   0  0  0  0  0  0  0  0  0  0  0  0
   20.7335  -22.7870  -12.9509 O   0  0  0  0  0  0  0  0  0  0  0  0
   21.4617  -20.7776  -17.9149 O   0  0  0  0  0  0  0  0  0  0  0  0
   19.8856  -20.7008  -12.9029 O   0  0  0  0  0  0  0  0  0  0  0  0
  2  1  1  6
  2  3  1  0
  4  3  1  0
  5  2  1  0
  6  5  2  0
  8  7  1  0
  8 18  2  0
  9  8  1  0
 10  9  2  0
 10 11  1  0
 11 17  2  0
 13 12  1  1
 12 11  1  0
 13 14  1  0
 14  5  1  0
 15 13  1  0
 15 19  1  0
 16 15  2  0
 17 18  1  0
 20 24  1  0
 20 19  1  0
 20 21  1  6
 22 21  1  0
 22 23  2  0
 24 27  1  0
 25 24  2  0
 26 22  1  0
M  END
$$$$
