CYD.pdb
     RDKit          3D

 27 27  0  0  1  0  0  0  0  0999 V2000
   30.5611  -33.4496  -16.2103 N   0  0  0  0  0  0  0  0  0  0  0  0
   29.4795  -32.5857  -15.8627 C   0  0  1  0  0  0  0  0  0  0  0  0
   28.7466  -32.0373  -17.0656 C   0  0  0  0  0  0  0  0  0  0  0  0
   29.6719  -30.6099  -17.6954 S   0  0  0  0  0  0  0  0  0  0  0  0
   28.5425  -33.1748  -14.8703 C   0  0  0  0  0  0  0  0  0  0  0  0
   28.2888  -34.3861  -14.9494 O   0  0  0  0  0  0  0  0  0  0  0  0
   23.6812  -34.4544   -7.5433 O   0  0  0  0  0  0  0  0  0  0  0  0
   24.5323  -33.9346   -8.5223 C   0  0  0  0  0  0  0  0  0  0  0  0
   25.5535  -34.7052   -9.0315 C   0  0  0  0  0  0  0  0  0  0  0  0
   26.4012  -34.2080   -9.9968 C   0  0  0  0  0  0  0  0  0  0  0  0
   26.2664  -32.9117  -10.4997 C   0  0  0  0  0  0  0  0  0  0  0  0
   27.1988  -32.4002  -11.5084 C   0  0  0  0  0  0  0  0  0  0  0  0
   27.0227  -33.0064  -12.8529 C   0  0  2  0  0  0  0  0  0  0  0  0
   27.9243  -32.4201  -13.8375 N   0  0  0  0  0  0  0  0  0  0  0  0
   25.6276  -32.9583  -13.2826 C   0  0  0  0  0  0  0  0  0  0  0  0
   25.2507  -32.0072  -14.0071 O   0  0  0  0  0  0  0  0  0  0  0  0
   25.2374  -32.1606   -9.9745 C   0  0  0  0  0  0  0  0  0  0  0  0
   24.3847  -32.6520   -9.0076 C   0  0  0  0  0  0  0  0  0  0  0  0
   24.6476  -33.9259  -12.9352 N   0  0  0  0  0  0  0  0  0  0  0  0
   23.2908  -33.8006  -13.4915 C   0  0  1  0  0  0  0  0  0  0  0  0
   23.2689  -34.1854  -14.9343 C   0  0  0  0  0  0  0  0  0  0  0  0
   21.9195  -34.1969  -15.5351 C   0  0  0  0  0  0  0  0  0  0  0  0
   21.6574  -33.6920  -16.6694 O   0  0  0  0  0  0  0  0  0  0  0  0
   22.3221  -34.5590  -12.6788 C   0  0  0  0  0  0  0  0  0  0  0  0
   21.0809  -34.5232  -12.8534 O   0  0  0  0  0  0  0  0  0  0  0  0
   20.8516  -34.7908  -14.8371 O   0  0  0  0  0  0  0  0  0  0  0  0
   22.7952  -35.3641  -11.6586 O   0  0  0  0  0  0  0  0  0  0  0  0
  2  1  1  6
  2  3  1  0
  4  3  1  0
  5  2  1  0
  6  5  2  0
  8  7  1  0
  8 18  2  0
  9  8  1  0
 10  9  2  0
 10 11  1  0
 11 17  2  0
 13 12  1  1
 12 11  1  0
 13 14  1  0
 14  5  1  0
 15 13  1  0
 15 19  1  0
 16 15  2  0
 17 18  1  0
 20 24  1  0
 20 19  1  0
 20 21  1  6
 22 21  1  0
 22 23  2  0
 24 27  1  0
 25 24  2  0
 26 22  1  0
M  END
$$$$
