CYD.pdb
     RDKit          3D

 27 27  0  0  1  0  0  0  0  0999 V2000
   28.3438  -20.7434  -14.7026 N   0  0  0  0  0  0  0  0  0  0  0  0
   27.3544  -19.8686  -14.1616 C   0  0  1  0  0  0  0  0  0  0  0  0
   26.8847  -18.8216  -15.1456 C   0  0  0  0  0  0  0  0  0  0  0  0
   28.2458  -17.6576  -15.4330 S   0  0  0  0  0  0  0  0  0  0  0  0
   26.2123  -20.5801  -13.5299 C   0  0  0  0  0  0  0  0  0  0  0  0
   26.1733  -21.8168  -13.6116 O   0  0  0  0  0  0  0  0  0  0  0  0
   27.7860  -20.3118   -6.8859 O   0  0  0  0  0  0  0  0  0  0  0  0
   26.7890  -20.1985   -7.8586 C   0  0  0  0  0  0  0  0  0  0  0  0
   26.1432  -21.3229   -8.3220 C   0  0  0  0  0  0  0  0  0  0  0  0
   25.1583  -21.2287   -9.2803 C   0  0  0  0  0  0  0  0  0  0  0  0
   24.7719  -20.0003   -9.8222 C   0  0  0  0  0  0  0  0  0  0  0  0
   23.7384  -19.9325  -10.8594 C   0  0  0  0  0  0  0  0  0  0  0  0
   24.1082  -20.6200  -12.1231 C   0  0  2  0  0  0  0  0  0  0  0  0
   25.1648  -19.9144  -12.8384 N   0  0  0  0  0  0  0  0  0  0  0  0
   22.9378  -20.8615  -12.9627 C   0  0  0  0  0  0  0  0  0  0  0  0
   22.6196  -20.0020  -13.8180 O   0  0  0  0  0  0  0  0  0  0  0  0
   25.4326  -18.8903   -9.3426 C   0  0  0  0  0  0  0  0  0  0  0  0
   26.4199  -18.9773   -8.3828 C   0  0  0  0  0  0  0  0  0  0  0  0
   22.1176  -22.0182  -12.8819 N   0  0  0  0  0  0  0  0  0  0  0  0
   20.8891  -22.0813  -13.6899 C   0  0  1  0  0  0  0  0  0  0  0  0
   20.4633  -23.4969  -13.9022 C   0  0  0  0  0  0  0  0  0  0  0  0
   19.2436  -23.6433  -14.7226 C   0  0  0  0  0  0  0  0  0  0  0  0
   18.3572  -24.5242  -14.5023 O   0  0  0  0  0  0  0  0  0  0  0  0
   19.8305  -21.2449  -13.0952 C   0  0  0  0  0  0  0  0  0  0  0  0
   19.8328  -20.8536  -11.9038 O   0  0  0  0  0  0  0  0  0  0  0  0
   19.0275  -22.7762  -15.8096 O   0  0  0  0  0  0  0  0  0  0  0  0
   18.7638  -20.8591  -13.8863 O   0  0  0  0  0  0  0  0  0  0  0  0
  2  1  1  6
  2  3  1  0
  4  3  1  0
  5  2  1  0
  6  5  2  0
  8  7  1  0
  8 18  2  0
  9  8  1  0
 10  9  2  0
 10 11  1  0
 11 17  2  0
 13 12  1  1
 12 11  1  0
 13 14  1  0
 14  5  1  0
 15 13  1  0
 15 19  1  0
 16 15  2  0
 17 18  1  0
 20 24  1  0
 20 19  1  0
 20 21  1  1
 22 21  1  0
 22 23  2  0
 24 27  1  0
 25 24  2  0
 26 22  1  0
M  END
$$$$
