CYD.pdb
     RDKit          3D

 27 27  0  0  1  0  0  0  0  0999 V2000
   26.0035  -34.5708   -9.1420 N   0  0  0  0  0  0  0  0  0  0  0  0
   26.4942  -33.6090   -8.2085 C   0  0  1  0  0  0  0  0  0  0  0  0
   25.4001  -32.7694   -7.5897 C   0  0  0  0  0  0  0  0  0  0  0  0
   24.9055  -31.5025   -8.7899 S   0  0  0  0  0  0  0  0  0  0  0  0
   27.3934  -34.1872   -7.1756 C   0  0  0  0  0  0  0  0  0  0  0  0
   27.0814  -35.2745   -6.6676 O   0  0  0  0  0  0  0  0  0  0  0  0
   34.6818  -35.8800   -2.3433 O   0  0  0  0  0  0  0  0  0  0  0  0
   33.7214  -35.2853   -3.1661 C   0  0  0  0  0  0  0  0  0  0  0  0
   33.6878  -35.5751   -4.5118 C   0  0  0  0  0  0  0  0  0  0  0  0
   32.7477  -34.9977   -5.3365 C   0  0  0  0  0  0  0  0  0  0  0  0
   31.7936  -34.0998   -4.8518 C   0  0  0  0  0  0  0  0  0  0  0  0
   30.8211  -33.4808   -5.7572 C   0  0  0  0  0  0  0  0  0  0  0  0
   29.4956  -34.1511   -5.7658 C   0  0  2  0  0  0  0  0  0  0  0  0
   28.5905  -33.5567   -6.7423 N   0  0  0  0  0  0  0  0  0  0  0  0
   28.9118  -34.1990   -4.4279 C   0  0  0  0  0  0  0  0  0  0  0  0
   28.0891  -33.3135   -4.0953 O   0  0  0  0  0  0  0  0  0  0  0  0
   31.8478  -33.8260   -3.5024 C   0  0  0  0  0  0  0  0  0  0  0  0
   32.7865  -34.4006   -2.6705 C   0  0  0  0  0  0  0  0  0  0  0  0
   29.2114  -35.1915   -3.4571 N   0  0  0  0  0  0  0  0  0  0  0  0
   28.4777  -35.1880   -2.1813 C   0  0  1  0  0  0  0  0  0  0  0  0
   27.0311  -35.4893   -2.3980 C   0  0  0  0  0  0  0  0  0  0  0  0
   26.2685  -35.7130   -1.1528 C   0  0  0  0  0  0  0  0  0  0  0  0
   26.4159  -35.0067   -0.1089 O   0  0  0  0  0  0  0  0  0  0  0  0
   29.1156  -36.0962   -1.2106 C   0  0  0  0  0  0  0  0  0  0  0  0
   28.7116  -36.2613   -0.0351 O   0  0  0  0  0  0  0  0  0  0  0  0
   25.3243  -36.7547   -1.0923 O   0  0  0  0  0  0  0  0  0  0  0  0
   30.2275  -36.8177   -1.6053 O   0  0  0  0  0  0  0  0  0  0  0  0
  2  1  1  1
  2  3  1  0
  4  3  1  0
  5  2  1  0
  6  5  2  0
  8  7  1  0
  8 18  2  0
  9  8  1  0
 10  9  2  0
 10 11  1  0
 11 17  2  0
 13 12  1  1
 12 11  1  0
 13 14  1  0
 14  5  1  0
 15 13  1  0
 15 19  1  0
 16 15  2  0
 17 18  1  0
 20 24  1  0
 20 19  1  0
 20 21  1  6
 22 21  1  0
 22 23  2  0
 24 27  1  0
 25 24  2  0
 26 22  1  0
M  END
$$$$
