CYD.pdb
     RDKit          3D

 27 27  0  0  1  0  0  0  0  0999 V2000
   26.4700  -11.7824  -17.3871 N   0  0  0  0  0  0  0  0  0  0  0  0
   25.9735  -10.8738  -16.4048 C   0  0  1  0  0  0  0  0  0  0  0  0
   26.7885   -9.6049  -16.3029 C   0  0  0  0  0  0  0  0  0  0  0  0
   28.3878  -10.0129  -15.5508 S   0  0  0  0  0  0  0  0  0  0  0  0
   24.5218  -10.5846  -16.5414 C   0  0  0  0  0  0  0  0  0  0  0  0
   24.0995  -10.2071  -17.6445 O   0  0  0  0  0  0  0  0  0  0  0  0
   15.7452  -10.9036  -15.6889 O   0  0  0  0  0  0  0  0  0  0  0  0
   17.1205  -11.0225  -15.4713 C   0  0  0  0  0  0  0  0  0  0  0  0
   17.9376  -11.5191  -16.4623 C   0  0  0  0  0  0  0  0  0  0  0  0
   19.2951  -11.6427  -16.2641 C   0  0  0  0  0  0  0  0  0  0  0  0
   19.9011  -11.2740  -15.0606 C   0  0  0  0  0  0  0  0  0  0  0  0
   21.3447  -11.4404  -14.8685 C   0  0  0  0  0  0  0  0  0  0  0  0
   22.1686  -10.4569  -15.6170 C   0  0  2  0  0  0  0  0  0  0  0  0
   23.5956  -10.7191  -15.4724 N   0  0  0  0  0  0  0  0  0  0  0  0
   21.8194   -9.0846  -15.2593 C   0  0  0  0  0  0  0  0  0  0  0  0
   22.2966   -8.5934  -14.2093 O   0  0  0  0  0  0  0  0  0  0  0  0
   19.0628  -10.7801  -14.0849 C   0  0  0  0  0  0  0  0  0  0  0  0
   17.7024  -10.6535  -14.2765 C   0  0  0  0  0  0  0  0  0  0  0  0
   20.9641   -8.2489  -16.0257 N   0  0  0  0  0  0  0  0  0  0  0  0
   20.6473   -6.9009  -15.5271 C   0  0  1  0  0  0  0  0  0  0  0  0
   21.3235   -5.8554  -16.3517 C   0  0  0  0  0  0  0  0  0  0  0  0
   20.9852   -4.4704  -15.9653 C   0  0  0  0  0  0  0  0  0  0  0  0
   21.0680   -4.0390  -14.7748 O   0  0  0  0  0  0  0  0  0  0  0  0
   19.1884   -6.7081  -15.4366 C   0  0  0  0  0  0  0  0  0  0  0  0
   18.3532   -7.3485  -16.1183 O   0  0  0  0  0  0  0  0  0  0  0  0
   20.5463   -3.5615  -16.9459 O   0  0  0  0  0  0  0  0  0  0  0  0
   18.6948   -5.7683  -14.5500 O   0  0  0  0  0  0  0  0  0  0  0  0
  2  1  1  6
  2  3  1  0
  4  3  1  0
  5  2  1  0
  6  5  2  0
  8  7  1  0
  8 18  2  0
  9  8  1  0
 10  9  2  0
 10 11  1  0
 11 17  2  0
 13 12  1  1
 12 11  1  0
 13 14  1  0
 14  5  1  0
 15 13  1  0
 15 19  1  0
 16 15  2  0
 17 18  1  0
 20 24  1  0
 20 19  1  0
 20 21  1  6
 22 21  1  0
 22 23  2  0
 24 27  1  0
 25 24  2  0
 26 22  1  0
M  END
$$$$
