CYD.pdb
     RDKit          3D

 27 27  0  0  1  0  0  0  0  0999 V2000
   24.6247  -19.3259  -14.9268 N   0  0  0  0  0  0  0  0  0  0  0  0
   24.9516  -18.4441  -16.0003 C   0  0  1  0  0  0  0  0  0  0  0  0
   24.1840  -18.7412  -17.2682 C   0  0  0  0  0  0  0  0  0  0  0  0
   24.4058  -20.4956  -17.6715 S   0  0  0  0  0  0  0  0  0  0  0  0
   24.8716  -17.0056  -15.6342 C   0  0  0  0  0  0  0  0  0  0  0  0
   23.8875  -16.6183  -14.9867 O   0  0  0  0  0  0  0  0  0  0  0  0
   26.7927   -8.3001  -15.7632 O   0  0  0  0  0  0  0  0  0  0  0  0
   26.8693   -9.6947  -15.7173 C   0  0  0  0  0  0  0  0  0  0  0  0
   27.2036  -10.4070  -16.8474 C   0  0  0  0  0  0  0  0  0  0  0  0
   27.2836  -11.7818  -16.8192 C   0  0  0  0  0  0  0  0  0  0  0  0
   27.0319  -12.5113  -15.6547 C   0  0  0  0  0  0  0  0  0  0  0  0
   27.0995  -13.9756  -15.6602 C   0  0  0  0  0  0  0  0  0  0  0  0
   25.7707  -14.6393  -15.6490 C   0  0  2  0  0  0  0  0  0  0  0  0
   25.8652  -16.0541  -15.9888 N   0  0  0  0  0  0  0  0  0  0  0  0
   24.8119  -13.9307  -16.4927 C   0  0  0  0  0  0  0  0  0  0  0  0
   24.8118  -14.1535  -17.7263 O   0  0  0  0  0  0  0  0  0  0  0  0
   26.6994  -11.7763  -14.5376 C   0  0  0  0  0  0  0  0  0  0  0  0
   26.6175  -10.3992  -14.5586 C   0  0  0  0  0  0  0  0  0  0  0  0
   23.8619  -12.9906  -16.0119 N   0  0  0  0  0  0  0  0  0  0  0  0
   22.8748  -12.4294  -16.9482 C   0  0  1  0  0  0  0  0  0  0  0  0
   21.4921  -12.5425  -16.3955 C   0  0  0  0  0  0  0  0  0  0  0  0
   20.4350  -12.0715  -17.3136 C   0  0  0  0  0  0  0  0  0  0  0  0
   20.2327  -10.8460  -17.5734 O   0  0  0  0  0  0  0  0  0  0  0  0
   23.2350  -11.0488  -17.3197 C   0  0  0  0  0  0  0  0  0  0  0  0
   23.6144  -10.1788  -16.5002 O   0  0  0  0  0  0  0  0  0  0  0  0
   19.5951  -13.0066  -17.9464 O   0  0  0  0  0  0  0  0  0  0  0  0
   23.1559  -10.6750  -18.6489 O   0  0  0  0  0  0  0  0  0  0  0  0
  2  1  1  1
  2  3  1  0
  4  3  1  0
  5  2  1  0
  6  5  2  0
  8  7  1  0
  8 18  2  0
  9  8  1  0
 10  9  2  0
 10 11  1  0
 11 17  2  0
 13 12  1  6
 12 11  1  0
 13 14  1  0
 14  5  1  0
 15 13  1  0
 15 19  1  0
 16 15  2  0
 17 18  1  0
 20 24  1  0
 20 19  1  0
 20 21  1  1
 22 21  1  0
 22 23  2  0
 24 27  1  0
 25 24  2  0
 26 22  1  0
M  END
$$$$
