CYD.pdb
     RDKit          3D

 27 27  0  0  1  0  0  0  0  0999 V2000
   21.4969  -11.7174  -17.9932 N   0  0  0  0  0  0  0  0  0  0  0  0
   21.2994  -11.5539  -16.5892 C   0  0  1  0  0  0  0  0  0  0  0  0
   21.8147  -12.7199  -15.7768 C   0  0  0  0  0  0  0  0  0  0  0  0
   20.8831  -14.2020  -16.2517 S   0  0  0  0  0  0  0  0  0  0  0  0
   21.7994  -10.2558  -16.0650 C   0  0  0  0  0  0  0  0  0  0  0  0
   21.6688  -10.0221  -14.8542 O   0  0  0  0  0  0  0  0  0  0  0  0
   28.0611  -11.6841  -15.6949 O   0  0  0  0  0  0  0  0  0  0  0  0
   27.1112  -10.6892  -15.9414 C   0  0  0  0  0  0  0  0  0  0  0  0
   26.7403  -10.3914  -17.2336 C   0  0  0  0  0  0  0  0  0  0  0  0
   25.8055   -9.4138  -17.4939 C   0  0  0  0  0  0  0  0  0  0  0  0
   25.1957   -8.6853  -16.4696 C   0  0  0  0  0  0  0  0  0  0  0  0
   24.2229   -7.6329  -16.7773 C   0  0  0  0  0  0  0  0  0  0  0  0
   22.8308   -7.9657  -16.3802 C   0  0  2  0  0  0  0  0  0  0  0  0
   22.4184   -9.2714  -16.8812 N   0  0  0  0  0  0  0  0  0  0  0  0
   21.8987   -6.9076  -16.7609 C   0  0  0  0  0  0  0  0  0  0  0  0
   21.6018   -6.7700  -17.9710 O   0  0  0  0  0  0  0  0  0  0  0  0
   25.5834   -9.0016  -15.1857 C   0  0  0  0  0  0  0  0  0  0  0  0
   26.5189   -9.9796  -14.9177 C   0  0  0  0  0  0  0  0  0  0  0  0
   21.2920   -6.0059  -15.8464 N   0  0  0  0  0  0  0  0  0  0  0  0
   20.3825   -4.9698  -16.3613 C   0  0  1  0  0  0  0  0  0  0  0  0
   19.0798   -4.9940  -15.6315 C   0  0  0  0  0  0  0  0  0  0  0  0
   18.1431   -3.9249  -16.0336 C   0  0  0  0  0  0  0  0  0  0  0  0
   18.3843   -3.1027  -16.9696 O   0  0  0  0  0  0  0  0  0  0  0  0
   21.0320   -3.6464  -16.3356 C   0  0  0  0  0  0  0  0  0  0  0  0
   21.8333   -3.2762  -15.4450 O   0  0  0  0  0  0  0  0  0  0  0  0
   16.9140   -3.7874  -15.3624 O   0  0  0  0  0  0  0  0  0  0  0  0
   20.7519   -2.7476  -17.3488 O   0  0  0  0  0  0  0  0  0  0  0  0
  2  1  1  6
  2  3  1  0
  4  3  1  0
  5  2  1  0
  6  5  2  0
  8  7  1  0
  8 18  2  0
  9  8  1  0
 10  9  2  0
 10 11  1  0
 11 17  2  0
 13 12  1  6
 12 11  1  0
 13 14  1  0
 14  5  1  0
 15 13  1  0
 15 19  1  0
 16 15  2  0
 17 18  1  0
 20 24  1  0
 20 19  1  0
 20 21  1  1
 22 21  1  0
 22 23  2  0
 24 27  1  0
 25 24  2  0
 26 22  1  0
M  END
$$$$
