CYD.pdb
     RDKit          3D

 27 27  0  0  1  0  0  0  0  0999 V2000
   19.2811  -13.5502  -16.1335 N   0  0  0  0  0  0  0  0  0  0  0  0
   19.0143  -12.1941  -16.4895 C   0  0  1  0  0  0  0  0  0  0  0  0
   17.8051  -11.6218  -15.7859 C   0  0  0  0  0  0  0  0  0  0  0  0
   16.3355  -12.5188  -16.3565 S   0  0  0  0  0  0  0  0  0  0  0  0
   20.1967  -11.3020  -16.3629 C   0  0  0  0  0  0  0  0  0  0  0  0
   20.7849  -11.2579  -15.2721 O   0  0  0  0  0  0  0  0  0  0  0  0
   27.3954   -6.5237  -18.4126 O   0  0  0  0  0  0  0  0  0  0  0  0
   26.2137   -7.2679  -18.4643 C   0  0  0  0  0  0  0  0  0  0  0  0
   26.1658   -8.5295  -17.9146 C   0  0  0  0  0  0  0  0  0  0  0  0
   25.0090   -9.2761  -17.9570 C   0  0  0  0  0  0  0  0  0  0  0  0
   23.8415   -8.7938  -18.5536 C   0  0  0  0  0  0  0  0  0  0  0  0
   22.6323   -9.6205  -18.6068 C   0  0  0  0  0  0  0  0  0  0  0  0
   21.8884   -9.6818  -17.3225 C   0  0  2  0  0  0  0  0  0  0  0  0
   20.6853  -10.4986  -17.4279 N   0  0  0  0  0  0  0  0  0  0  0  0
   21.6064   -8.3460  -16.8036 C   0  0  0  0  0  0  0  0  0  0  0  0
   20.6452   -7.7009  -17.2850 O   0  0  0  0  0  0  0  0  0  0  0  0
   23.9147   -7.5294  -19.0964 C   0  0  0  0  0  0  0  0  0  0  0  0
   25.0699   -6.7759  -19.0575 C   0  0  0  0  0  0  0  0  0  0  0  0
   22.3527   -7.7107  -15.7756 N   0  0  0  0  0  0  0  0  0  0  0  0
   21.9334   -6.3806  -15.3055 C   0  0  1  0  0  0  0  0  0  0  0  0
   22.1847   -6.2296  -13.8412 C   0  0  0  0  0  0  0  0  0  0  0  0
   21.8130   -4.9068  -13.2987 C   0  0  0  0  0  0  0  0  0  0  0  0
   22.6448   -3.9630  -13.1325 O   0  0  0  0  0  0  0  0  0  0  0  0
   22.5662   -5.3198  -16.1106 C   0  0  0  0  0  0  0  0  0  0  0  0
   21.9809   -4.2718  -16.4732 O   0  0  0  0  0  0  0  0  0  0  0  0
   20.4765   -4.6522  -12.9396 O   0  0  0  0  0  0  0  0  0  0  0  0
   23.8853   -5.4743  -16.4964 O   0  0  0  0  0  0  0  0  0  0  0  0
  2  1  1  1
  2  3  1  0
  4  3  1  0
  5  2  1  0
  6  5  2  0
  8  7  1  0
  8 18  2  0
  9  8  1  0
 10  9  2  0
 10 11  1  0
 11 17  2  0
 13 12  1  6
 12 11  1  0
 13 14  1  0
 14  5  1  0
 15 13  1  0
 15 19  1  0
 16 15  2  0
 17 18  1  0
 20 24  1  0
 20 19  1  0
 20 21  1  1
 22 21  1  0
 22 23  2  0
 24 27  1  0
 25 24  2  0
 26 22  1  0
M  END
$$$$
