CYD.pdb
     RDKit          3D

 27 27  0  0  1  0  0  0  0  0999 V2000
   28.2332  -18.9256  -16.0157 N   0  0  0  0  0  0  0  0  0  0  0  0
   27.4407  -18.7950  -14.8359 C   0  0  1  0  0  0  0  0  0  0  0  0
   26.7684  -17.4463  -14.7179 C   0  0  0  0  0  0  0  0  0  0  0  0
   28.0439  -16.2001  -14.3860 S   0  0  0  0  0  0  0  0  0  0  0  0
   26.4756  -19.9087  -14.6410 C   0  0  0  0  0  0  0  0  0  0  0  0
   25.9674  -20.4279  -15.6459 O   0  0  0  0  0  0  0  0  0  0  0  0
   26.6465  -19.1979   -7.3671 O   0  0  0  0  0  0  0  0  0  0  0  0
   26.3221  -19.9620   -8.4913 C   0  0  0  0  0  0  0  0  0  0  0  0
   27.3062  -20.3458   -9.3746 C   0  0  0  0  0  0  0  0  0  0  0  0
   27.0035  -21.0990  -10.4874 C   0  0  0  0  0  0  0  0  0  0  0  0
   25.6969  -21.5052  -10.7698 C   0  0  0  0  0  0  0  0  0  0  0  0
   25.4001  -22.2847  -11.9750 C   0  0  0  0  0  0  0  0  0  0  0  0
   25.1113  -21.4548  -13.1725 C   0  0  2  0  0  0  0  0  0  0  0  0
   26.1072  -20.4069  -13.3625 N   0  0  0  0  0  0  0  0  0  0  0  0
   23.7505  -20.9252  -13.1406 C   0  0  0  0  0  0  0  0  0  0  0  0
   23.5399  -19.8339  -12.5607 O   0  0  0  0  0  0  0  0  0  0  0  0
   24.7303  -21.1088   -9.8713 C   0  0  0  0  0  0  0  0  0  0  0  0
   25.0264  -20.3544   -8.7547 C   0  0  0  0  0  0  0  0  0  0  0  0
   22.6269  -21.5653  -13.7280 N   0  0  0  0  0  0  0  0  0  0  0  0
   21.3199  -20.8895  -13.6926 C   0  0  1  0  0  0  0  0  0  0  0  0
   21.0568  -20.1711  -14.9751 C   0  0  0  0  0  0  0  0  0  0  0  0
   20.0289  -19.1149  -14.8750 C   0  0  0  0  0  0  0  0  0  0  0  0
   19.4447  -18.8116  -13.7901 O   0  0  0  0  0  0  0  0  0  0  0  0
   20.2510  -21.8403  -13.3357 C   0  0  0  0  0  0  0  0  0  0  0  0
   19.4383  -21.6612  -12.3977 O   0  0  0  0  0  0  0  0  0  0  0  0
   19.6588  -18.3923  -16.0244 O   0  0  0  0  0  0  0  0  0  0  0  0
   20.1228  -23.0046  -14.0710 O   0  0  0  0  0  0  0  0  0  0  0  0
  2  1  1  6
  2  3  1  0
  4  3  1  0
  5  2  1  0
  6  5  2  0
  8  7  1  0
  8 18  2  0
  9  8  1  0
 10  9  2  0
 10 11  1  0
 11 17  2  0
 13 12  1  1
 12 11  1  0
 13 14  1  0
 14  5  1  0
 15 13  1  0
 15 19  1  0
 16 15  2  0
 17 18  1  0
 20 24  1  0
 20 19  1  0
 20 21  1  6
 22 21  1  0
 22 23  2  0
 24 27  1  0
 25 24  2  0
 26 22  1  0
M  END
$$$$
