CYD.pdb
     RDKit          3D

 27 27  0  0  1  0  0  0  0  0999 V2000
   27.7248  -21.2277  -10.9589 N   0  0  0  0  0  0  0  0  0  0  0  0
   26.3567  -20.9559  -10.6568 C   0  0  1  0  0  0  0  0  0  0  0  0
   26.1782  -20.1164   -9.4126 C   0  0  0  0  0  0  0  0  0  0  0  0
   27.1273  -20.8796   -8.0684 S   0  0  0  0  0  0  0  0  0  0  0  0
   25.5917  -20.4043  -11.8059 C   0  0  0  0  0  0  0  0  0  0  0  0
   26.1564  -19.5887  -12.5499 O   0  0  0  0  0  0  0  0  0  0  0  0
   28.7983  -18.8672  -16.9026 O   0  0  0  0  0  0  0  0  0  0  0  0
   27.7058  -19.4906  -16.2938 C   0  0  0  0  0  0  0  0  0  0  0  0
   27.8767  -20.6735  -15.6099 C   0  0  0  0  0  0  0  0  0  0  0  0
   26.8104  -21.3009  -15.0042 C   0  0  0  0  0  0  0  0  0  0  0  0
   25.5183  -20.7723  -15.0546 C   0  0  0  0  0  0  0  0  0  0  0  0
   24.3978  -21.4748  -14.4225 C   0  0  0  0  0  0  0  0  0  0  0  0
   23.6617  -20.6578  -13.4241 C   0  0  2  0  0  0  0  0  0  0  0  0
   24.2479  -20.7647  -12.0934 N   0  0  0  0  0  0  0  0  0  0  0  0
   22.2346  -20.9685  -13.4264 C   0  0  0  0  0  0  0  0  0  0  0  0
   21.8572  -22.0798  -12.9858 O   0  0  0  0  0  0  0  0  0  0  0  0
   25.3730  -19.5884  -15.7445 C   0  0  0  0  0  0  0  0  0  0  0  0
   26.4364  -18.9546  -16.3535 C   0  0  0  0  0  0  0  0  0  0  0  0
   21.2232  -20.0903  -13.8989 N   0  0  0  0  0  0  0  0  0  0  0  0
   19.8152  -20.5102  -13.8145 C   0  0  1  0  0  0  0  0  0  0  0  0
   18.8998  -19.3648  -14.0977 C   0  0  0  0  0  0  0  0  0  0  0  0
   18.7569  -18.4152  -12.9752 C   0  0  0  0  0  0  0  0  0  0  0  0
   18.1742  -17.2929  -13.0818 O   0  0  0  0  0  0  0  0  0  0  0  0
   19.5657  -21.6749  -14.6835 C   0  0  0  0  0  0  0  0  0  0  0  0
   18.6469  -22.5069  -14.4937 O   0  0  0  0  0  0  0  0  0  0  0  0
   19.2836  -18.7451  -11.7127 O   0  0  0  0  0  0  0  0  0  0  0  0
   20.3851  -21.8755  -15.7794 O   0  0  0  0  0  0  0  0  0  0  0  0
  2  1  1  6
  2  3  1  0
  4  3  1  0
  5  2  1  0
  6  5  2  0
  8  7  1  0
  8 18  2  0
  9  8  1  0
 10  9  2  0
 10 11  1  0
 11 17  2  0
 13 12  1  6
 12 11  1  0
 13 14  1  0
 14  5  1  0
 15 13  1  0
 15 19  1  0
 16 15  2  0
 17 18  1  0
 20 24  1  0
 20 19  1  0
 20 21  1  6
 22 21  1  0
 22 23  2  0
 24 27  1  0
 25 24  2  0
 26 22  1  0
M  END
$$$$
