TED.pdb
     RDKit          3D

 25 24  0  0  1  0  0  0  0  0999 V2000
    7.7774  -11.8163   19.3869 C   0  0  0  0  0  0  0  0  0  0  0  0
    8.7088  -12.9521   19.7022 C   0  0  1  0  0  0  0  0  0  0  0  0
    8.8495  -13.1245   21.0850 O   0  0  0  0  0  0  0  0  0  0  0  0
    8.3593  -14.2493   19.0267 C   0  0  2  0  0  0  0  0  0  0  0  0
    6.9819  -14.5494   19.4909 N   0  0  0  0  0  0  0  0  0  0  0  0
    9.2375  -15.3410   19.4964 C   0  0  0  0  0  0  0  0  0  0  0  0
    8.8561  -16.0552   20.4847 O   0  0  0  0  0  0  0  0  0  0  0  0
   10.4978  -15.6908   18.9446 N   0  0  0  0  0  0  0  0  0  0  0  0
   11.3308  -16.7131   19.5773 C   0  0  1  0  0  0  0  0  0  0  0  0
   12.2152  -17.3910   18.5458 C   0  0  0  0  0  0  0  0  0  0  0  0
   13.0476  -16.4124   17.7679 C   0  0  0  0  0  0  0  0  0  0  0  0
   13.8785  -17.1544   16.7859 C   0  0  0  0  0  0  0  0  0  0  0  0
   15.1200  -16.9803   16.6546 O   0  0  0  0  0  0  0  0  0  0  0  0
   12.2045  -16.1774   20.6454 C   0  0  0  0  0  0  0  0  0  0  0  0
   12.5674  -14.9605   20.5807 O   0  0  0  0  0  0  0  0  0  0  0  0
   13.3033  -18.1055   15.9400 O   0  0  0  0  0  0  0  0  0  0  0  0
   12.6756  -16.9186   21.7486 N   0  0  0  0  0  0  0  0  0  0  0  0
   13.5480  -16.3745   22.8016 C   0  0  1  0  0  0  0  0  0  0  0  0
   13.2789  -17.2396   24.0092 C   0  0  0  0  0  0  0  0  0  0  0  0
   11.9962  -16.9937   24.6772 C   0  0  0  0  0  0  0  0  0  0  0  0
   11.5333  -15.8600   24.8725 O   0  0  0  0  0  0  0  0  0  0  0  0
   14.9391  -16.3451   22.3536 C   0  0  0  0  0  0  0  0  0  0  0  0
   15.9540  -15.7050   23.0157 O   0  0  0  0  0  0  0  0  0  0  0  0
   11.2759  -18.1151   25.1084 O   0  0  0  0  0  0  0  0  0  0  0  0
   15.2538  -16.9417   21.2863 O   0  0  0  0  0  0  0  0  0  0  0  0
  2  1  1  1
  2  4  1  0
  3  2  1  0
  4  6  1  0
  4  5  1  1
  6  8  1  0
  6  7  2  0
  8  9  1  0
  9 14  1  0
  9 10  1  6
 10 11  1  0
 12 11  1  0
 12 16  1  0
 13 12  2  0
 14 15  2  0
 17 14  1  0
 17 18  1  0
 18 19  1  1
 20 19  1  0
 20 24  1  0
 21 20  2  0
 22 18  1  0
 22 23  1  0
 25 22  2  0
M  END
$$$$
