TED.pdb
     RDKit          3D

 25 24  0  0  1  0  0  0  0  0999 V2000
    9.4755  -12.4966   20.1361 C   0  0  0  0  0  0  0  0  0  0  0  0
    8.5629  -13.4130   19.3715 C   0  0  1  0  0  0  0  0  0  0  0  0
    7.3370  -12.7945   19.0957 O   0  0  0  0  0  0  0  0  0  0  0  0
    9.1687  -13.9964   18.1250 C   0  0  2  0  0  0  0  0  0  0  0  0
    8.1447  -14.9477   17.6257 N   0  0  0  0  0  0  0  0  0  0  0  0
   10.3839  -14.7742   18.4443 C   0  0  0  0  0  0  0  0  0  0  0  0
   10.2528  -15.9385   18.9537 O   0  0  0  0  0  0  0  0  0  0  0  0
   11.7223  -14.3500   18.2345 N   0  0  0  0  0  0  0  0  0  0  0  0
   12.8436  -15.1468   18.7318 C   0  0  1  0  0  0  0  0  0  0  0  0
   14.0541  -14.9811   17.8303 C   0  0  0  0  0  0  0  0  0  0  0  0
   13.8816  -15.6620   16.5027 C   0  0  0  0  0  0  0  0  0  0  0  0
   15.0961  -15.4349   15.6789 C   0  0  0  0  0  0  0  0  0  0  0  0
   15.0743  -15.3327   14.4228 O   0  0  0  0  0  0  0  0  0  0  0  0
   13.2492  -14.7900   20.1099 C   0  0  0  0  0  0  0  0  0  0  0  0
   13.5143  -13.5740   20.3701 O   0  0  0  0  0  0  0  0  0  0  0  0
   16.3528  -15.3215   16.2781 O   0  0  0  0  0  0  0  0  0  0  0  0
   13.3677  -15.7040   21.1772 N   0  0  0  0  0  0  0  0  0  0  0  0
   13.8389  -15.3481   22.5252 C   0  0  1  0  0  0  0  0  0  0  0  0
   12.8930  -16.0584   23.4633 C   0  0  0  0  0  0  0  0  0  0  0  0
   12.8449  -17.5168   23.3118 C   0  0  0  0  0  0  0  0  0  0  0  0
   13.5179  -18.1400   22.4772 O   0  0  0  0  0  0  0  0  0  0  0  0
   15.2505  -15.6926   22.6850 C   0  0  0  0  0  0  0  0  0  0  0  0
   16.0003  -16.3486   21.7441 O   0  0  0  0  0  0  0  0  0  0  0  0
   11.9852  -18.2192   24.1660 O   0  0  0  0  0  0  0  0  0  0  0  0
   15.8430  -15.3760   23.7541 O   0  0  0  0  0  0  0  0  0  0  0  0
  2  1  1  6
  2  4  1  0
  3  2  1  0
  4  6  1  0
  4  5  1  1
  6  8  1  0
  6  7  2  0
  8  9  1  0
  9 14  1  0
  9 10  1  6
 10 11  1  0
 12 11  1  0
 12 16  1  0
 13 12  2  0
 14 15  2  0
 17 14  1  0
 17 18  1  0
 18 19  1  1
 20 19  1  0
 20 24  1  0
 21 20  2  0
 22 18  1  0
 22 23  1  0
 25 22  2  0
M  END
$$$$
