TED.pdb
     RDKit          3D

 25 24  0  0  1  0  0  0  0  0999 V2000
    7.8590  -12.1224   19.5652 C   0  0  0  0  0  0  0  0  0  0  0  0
    8.6401  -13.4015   19.4594 C   0  0  1  0  0  0  0  0  0  0  0  0
    9.3611  -13.6546   20.6331 O   0  0  0  0  0  0  0  0  0  0  0  0
    7.8233  -14.5978   19.0559 C   0  0  2  0  0  0  0  0  0  0  0  0
    6.7485  -14.6740   20.0765 N   0  0  0  0  0  0  0  0  0  0  0  0
    8.6215  -15.8376   19.1534 C   0  0  0  0  0  0  0  0  0  0  0  0
    8.4787  -16.5817   20.1821 O   0  0  0  0  0  0  0  0  0  0  0  0
    9.5566  -16.3030   18.1920 N   0  0  0  0  0  0  0  0  0  0  0  0
   10.3466  -17.5080   18.4428 C   0  0  1  0  0  0  0  0  0  0  0  0
   10.8470  -18.0968   17.1358 C   0  0  0  0  0  0  0  0  0  0  0  0
   11.6689  -17.1222   16.3418 C   0  0  0  0  0  0  0  0  0  0  0  0
   12.0011  -17.7255   15.0262 C   0  0  0  0  0  0  0  0  0  0  0  0
   12.7146  -18.7564   14.8952 O   0  0  0  0  0  0  0  0  0  0  0  0
   11.5195  -17.2681   19.3135 C   0  0  0  0  0  0  0  0  0  0  0  0
   12.1973  -18.2683   19.7094 O   0  0  0  0  0  0  0  0  0  0  0  0
   11.5234  -17.1600   13.8416 O   0  0  0  0  0  0  0  0  0  0  0  0
   11.9549  -15.9990   19.7473 N   0  0  0  0  0  0  0  0  0  0  0  0
   13.0608  -15.7805   20.6933 C   0  0  1  0  0  0  0  0  0  0  0  0
   13.8868  -14.6801   20.0720 C   0  0  0  0  0  0  0  0  0  0  0  0
   14.6491  -15.0713   18.8812 C   0  0  0  0  0  0  0  0  0  0  0  0
   15.2119  -16.1697   18.7601 O   0  0  0  0  0  0  0  0  0  0  0  0
   12.5454  -15.4933   22.0308 C   0  0  0  0  0  0  0  0  0  0  0  0
   11.2151  -15.3969   22.3454 O   0  0  0  0  0  0  0  0  0  0  0  0
   14.7313  -14.1371   17.8407 O   0  0  0  0  0  0  0  0  0  0  0  0
   13.3606  -15.3170   22.9787 O   0  0  0  0  0  0  0  0  0  0  0  0
  2  1  1  1
  2  4  1  0
  3  2  1  0
  4  6  1  0
  4  5  1  1
  6  8  1  0
  6  7  2  0
  8  9  1  0
  9 14  1  0
  9 10  1  6
 10 11  1  0
 12 11  1  0
 12 16  1  0
 13 12  2  0
 14 15  2  0
 17 14  1  0
 17 18  1  0
 18 19  1  6
 20 19  1  0
 20 24  1  0
 21 20  2  0
 22 18  1  0
 22 23  1  0
 25 22  2  0
M  END
$$$$
