TED.pdb
     RDKit          3D

 25 24  0  0  1  0  0  0  0  0999 V2000
    9.0857  -12.2880   20.0872 C   0  0  0  0  0  0  0  0  0  0  0  0
    8.1248  -13.0326   19.2043 C   0  0  1  0  0  0  0  0  0  0  0  0
    6.9858  -12.2644   18.9322 O   0  0  0  0  0  0  0  0  0  0  0  0
    8.7319  -13.5702   17.9380 C   0  0  2  0  0  0  0  0  0  0  0  0
    7.6505  -14.3800   17.3235 N   0  0  0  0  0  0  0  0  0  0  0  0
    9.8567  -14.4803   18.2382 C   0  0  0  0  0  0  0  0  0  0  0  0
    9.6042  -15.7055   18.4976 O   0  0  0  0  0  0  0  0  0  0  0  0
   11.2306  -14.1240   18.2661 N   0  0  0  0  0  0  0  0  0  0  0  0
   12.2527  -15.1200   18.5861 C   0  0  1  0  0  0  0  0  0  0  0  0
   13.3792  -15.0708   17.5692 C   0  0  0  0  0  0  0  0  0  0  0  0
   13.0012  -15.7008   16.2593 C   0  0  0  0  0  0  0  0  0  0  0  0
   14.1959  -15.7441   15.3784 C   0  0  0  0  0  0  0  0  0  0  0  0
   14.2556  -15.1658   14.2600 O   0  0  0  0  0  0  0  0  0  0  0  0
   12.8444  -14.9399   19.9310 C   0  0  0  0  0  0  0  0  0  0  0  0
   13.2935  -13.7936   20.2490 O   0  0  0  0  0  0  0  0  0  0  0  0
   15.3393  -16.4487   15.7623 O   0  0  0  0  0  0  0  0  0  0  0  0
   12.9526  -15.9528   20.9060 N   0  0  0  0  0  0  0  0  0  0  0  0
   13.5778  -15.7701   22.2257 C   0  0  1  0  0  0  0  0  0  0  0  0
   12.9045  -16.7879   23.1146 C   0  0  0  0  0  0  0  0  0  0  0  0
   13.3874  -16.8207   24.4994 C   0  0  0  0  0  0  0  0  0  0  0  0
   14.3603  -16.1643   24.8999 O   0  0  0  0  0  0  0  0  0  0  0  0
   15.0312  -15.8922   22.1285 C   0  0  0  0  0  0  0  0  0  0  0  0
   15.9226  -15.1516   22.8598 O   0  0  0  0  0  0  0  0  0  0  0  0
   12.6967  -17.6451   25.3968 O   0  0  0  0  0  0  0  0  0  0  0  0
   15.5250  -16.7293   21.3225 O   0  0  0  0  0  0  0  0  0  0  0  0
  2  1  1  6
  2  4  1  0
  3  2  1  0
  4  6  1  0
  4  5  1  1
  6  8  1  0
  6  7  2  0
  8  9  1  0
  9 14  1  0
  9 10  1  6
 10 11  1  0
 12 11  1  0
 12 16  1  0
 13 12  2  0
 14 15  2  0
 17 14  1  0
 17 18  1  0
 18 19  1  1
 20 19  1  0
 20 24  1  0
 21 20  2  0
 22 18  1  0
 22 23  1  0
 25 22  2  0
M  END
$$$$
