TED.pdb
     RDKit          3D

 25 24  0  0  1  0  0  0  0  0999 V2000
    7.1503  -12.2075   19.2927 C   0  0  0  0  0  0  0  0  0  0  0  0
    8.3547  -13.0747   19.5262 C   0  0  1  0  0  0  0  0  0  0  0  0
    8.0911  -14.0628   20.4831 O   0  0  0  0  0  0  0  0  0  0  0  0
    8.9432  -13.6717   18.2778 C   0  0  2  0  0  0  0  0  0  0  0  0
    7.8984  -14.6035   17.7847 N   0  0  0  0  0  0  0  0  0  0  0  0
   10.1444  -14.4727   18.5927 C   0  0  0  0  0  0  0  0  0  0  0  0
   10.0140  -15.7300   18.7785 O   0  0  0  0  0  0  0  0  0  0  0  0
   11.4687  -13.9752   18.7108 N   0  0  0  0  0  0  0  0  0  0  0  0
   12.5631  -14.8571   19.1157 C   0  0  1  0  0  0  0  0  0  0  0  0
   13.8937  -14.3093   18.6312 C   0  0  0  0  0  0  0  0  0  0  0  0
   15.0446  -15.2169   18.9593 C   0  0  0  0  0  0  0  0  0  0  0  0
   16.3082  -14.5823   18.5060 C   0  0  0  0  0  0  0  0  0  0  0  0
   17.2931  -14.3760   19.2650 O   0  0  0  0  0  0  0  0  0  0  0  0
   12.6530  -15.0430   20.5815 C   0  0  0  0  0  0  0  0  0  0  0  0
   12.2428  -14.1079   21.3392 O   0  0  0  0  0  0  0  0  0  0  0  0
   16.4650  -14.1742   17.1793 O   0  0  0  0  0  0  0  0  0  0  0  0
   13.1650  -16.1924   21.2180 N   0  0  0  0  0  0  0  0  0  0  0  0
   13.2198  -16.3773   22.6770 C   0  0  1  0  0  0  0  0  0  0  0  0
   12.0871  -17.3259   22.9873 C   0  0  0  0  0  0  0  0  0  0  0  0
   12.0054  -17.7609   24.3860 C   0  0  0  0  0  0  0  0  0  0  0  0
   11.1330  -18.5324   24.8122 O   0  0  0  0  0  0  0  0  0  0  0  0
   14.5458  -16.8342   23.0889 C   0  0  0  0  0  0  0  0  0  0  0  0
   15.1639  -17.9579   22.6058 O   0  0  0  0  0  0  0  0  0  0  0  0
   12.9749  -17.2640   25.2665 O   0  0  0  0  0  0  0  0  0  0  0  0
   15.1866  -16.1664   23.9477 O   0  0  0  0  0  0  0  0  0  0  0  0
  2  1  1  6
  2  4  1  0
  3  2  1  0
  4  6  1  0
  4  5  1  1
  6  8  1  0
  6  7  2  0
  8  9  1  0
  9 14  1  0
  9 10  1  1
 10 11  1  0
 12 11  1  0
 12 16  1  0
 13 12  2  0
 14 15  2  0
 17 14  1  0
 17 18  1  0
 18 19  1  6
 20 19  1  0
 20 24  1  0
 21 20  2  0
 22 18  1  0
 22 23  1  0
 25 22  2  0
M  END
$$$$
