TED.pdb
     RDKit          3D

 25 24  0  0  1  0  0  0  0  0999 V2000
    8.1934  -12.1996   19.0339 C   0  0  0  0  0  0  0  0  0  0  0  0
    8.4837  -13.5852   19.5369 C   0  0  1  0  0  0  0  0  0  0  0  0
    9.6325  -13.6042   20.3377 O   0  0  0  0  0  0  0  0  0  0  0  0
    7.3274  -14.2501   20.2312 C   0  0  2  0  0  0  0  0  0  0  0  0
    6.9583  -13.3103   21.3190 N   0  0  0  0  0  0  0  0  0  0  0  0
    7.7499  -15.5187   20.8604 C   0  0  0  0  0  0  0  0  0  0  0  0
    7.7598  -15.5997   22.1353 O   0  0  0  0  0  0  0  0  0  0  0  0
    8.1553  -16.6933   20.1739 N   0  0  0  0  0  0  0  0  0  0  0  0
    8.4987  -17.9078   20.9130 C   0  0  1  0  0  0  0  0  0  0  0  0
    8.5039  -19.1104   19.9859 C   0  0  0  0  0  0  0  0  0  0  0  0
    8.7662  -18.7345   18.5557 C   0  0  0  0  0  0  0  0  0  0  0  0
    8.0727  -19.6992   17.6649 C   0  0  0  0  0  0  0  0  0  0  0  0
    8.5137  -20.8529   17.4132 O   0  0  0  0  0  0  0  0  0  0  0  0
    9.8212  -17.8362   21.5742 C   0  0  0  0  0  0  0  0  0  0  0  0
   10.2675  -18.8756   22.1550 O   0  0  0  0  0  0  0  0  0  0  0  0
    6.8658  -19.3600   17.0489 O   0  0  0  0  0  0  0  0  0  0  0  0
   10.6415  -16.6900   21.6133 N   0  0  0  0  0  0  0  0  0  0  0  0
   11.9298  -16.6161   22.3210 C   0  0  1  0  0  0  0  0  0  0  0  0
   12.6480  -15.4470   21.6913 C   0  0  0  0  0  0  0  0  0  0  0  0
   13.3858  -15.7588   20.4623 C   0  0  0  0  0  0  0  0  0  0  0  0
   13.4228  -16.8900   19.9555 O   0  0  0  0  0  0  0  0  0  0  0  0
   11.7196  -16.5144   23.7640 C   0  0  0  0  0  0  0  0  0  0  0  0
   12.6735  -16.7905   24.7083 O   0  0  0  0  0  0  0  0  0  0  0  0
   14.0771  -14.7065   19.8485 O   0  0  0  0  0  0  0  0  0  0  0  0
   10.5906  -16.1501   24.1964 O   0  0  0  0  0  0  0  0  0  0  0  0
  2  1  1  1
  2  4  1  0
  3  2  1  0
  4  6  1  0
  4  5  1  1
  6  8  1  0
  6  7  2  0
  8  9  1  0
  9 14  1  0
  9 10  1  6
 10 11  1  0
 12 11  1  0
 12 16  1  0
 13 12  2  0
 14 15  2  0
 17 14  1  0
 17 18  1  0
 18 19  1  6
 20 19  1  0
 20 24  1  0
 21 20  2  0
 22 18  1  0
 22 23  1  0
 25 22  2  0
M  END
$$$$
