TED.pdb
     RDKit          3D

 25 24  0  0  1  0  0  0  0  0999 V2000
    7.7945  -13.7399   16.2907 C   0  0  0  0  0  0  0  0  0  0  0  0
    8.3264  -14.2603   17.5958 C   0  0  1  0  0  0  0  0  0  0  0  0
    9.7238  -14.1798   17.6429 O   0  0  0  0  0  0  0  0  0  0  0  0
    7.7057  -13.6351   18.8144 C   0  0  2  0  0  0  0  0  0  0  0  0
    8.1273  -12.2132   18.7568 N   0  0  0  0  0  0  0  0  0  0  0  0
    8.2680  -14.2186   20.0501 C   0  0  0  0  0  0  0  0  0  0  0  0
    9.3106  -13.6868   20.5624 O   0  0  0  0  0  0  0  0  0  0  0  0
    7.7524  -15.3412   20.7496 N   0  0  0  0  0  0  0  0  0  0  0  0
    8.4464  -15.8718   21.9227 C   0  0  1  0  0  0  0  0  0  0  0  0
    7.6811  -17.0459   22.5068 C   0  0  0  0  0  0  0  0  0  0  0  0
    8.4312  -17.7296   23.6139 C   0  0  0  0  0  0  0  0  0  0  0  0
    7.6979  -18.9583   24.0110 C   0  0  0  0  0  0  0  0  0  0  0  0
    7.9481  -19.6073   25.0621 O   0  0  0  0  0  0  0  0  0  0  0  0
    9.8249  -16.3257   21.6314 C   0  0  0  0  0  0  0  0  0  0  0  0
    9.9908  -17.2639   20.7893 O   0  0  0  0  0  0  0  0  0  0  0  0
    6.6685  -19.4632   23.2131 O   0  0  0  0  0  0  0  0  0  0  0  0
   10.9900  -15.7936   22.2211 N   0  0  0  0  0  0  0  0  0  0  0  0
   12.3207  -16.4166   22.1371 C   0  0  1  0  0  0  0  0  0  0  0  0
   13.2109  -15.3455   21.5544 C   0  0  0  0  0  0  0  0  0  0  0  0
   13.4843  -15.4767   20.1191 C   0  0  0  0  0  0  0  0  0  0  0  0
   13.0086  -16.3776   19.4121 O   0  0  0  0  0  0  0  0  0  0  0  0
   12.7335  -16.9276   23.4429 C   0  0  0  0  0  0  0  0  0  0  0  0
   12.0394  -16.7304   24.6080 O   0  0  0  0  0  0  0  0  0  0  0  0
   14.3308  -14.5221   19.5409 O   0  0  0  0  0  0  0  0  0  0  0  0
   13.7991  -17.5991   23.5311 O   0  0  0  0  0  0  0  0  0  0  0  0
  2  1  1  6
  2  4  1  0
  3  2  1  0
  4  6  1  0
  4  5  1  1
  6  8  1  0
  6  7  2  0
  8  9  1  0
  9 14  1  0
  9 10  1  6
 10 11  1  0
 12 11  1  0
 12 16  1  0
 13 12  2  0
 14 15  2  0
 17 14  1  0
 17 18  1  0
 18 19  1  1
 20 19  1  0
 20 24  1  0
 21 20  2  0
 22 18  1  0
 22 23  1  0
 25 22  2  0
M  END
$$$$
