ARM.pdb
     RDKit          3D

 25 24  0  0  1  0  0  0  0  0999 V2000
    7.4017  -13.2548   18.4254 C   0  0  0  0  0  0  0  0  0  0  0  0
    8.4596  -13.8885   19.2885 C   0  0  2  0  0  0  0  0  0  0  0  0
    9.0877  -14.9322   18.5017 N   0  0  0  0  0  0  0  0  0  0  0  0
    7.9670  -14.4716   20.5246 C   0  0  0  0  0  0  0  0  0  0  0  0
    7.3954  -13.7494   21.3794 O   0  0  0  0  0  0  0  0  0  0  0  0
    5.6660  -21.9667   24.2010 N   0  0  0  0  0  0  0  0  0  0  0  0
    6.2837  -21.3170   25.2847 C   0  0  0  0  0  0  0  0  0  0  0  0
    6.1718  -21.7624   26.4949 N   0  0  0  0  0  0  0  0  0  0  0  0
    7.0436  -20.1434   25.0088 N   0  0  0  0  0  0  0  0  0  0  0  0
    7.0980  -19.6176   23.6606 C   0  0  0  0  0  0  0  0  0  0  0  0
    7.9609  -18.3724   23.6202 C   0  0  0  0  0  0  0  0  0  0  0  0
    7.9668  -17.8998   22.1774 C   0  0  0  0  0  0  0  0  0  0  0  0
    7.6935  -16.3912   22.1345 C   0  0  2  0  0  0  0  0  0  0  0  0
    8.0842  -15.8528   20.8602 N   0  0  0  0  0  0  0  0  0  0  0  0
    8.5426  -15.7686   23.1830 C   0  0  0  0  0  0  0  0  0  0  0  0
    9.7817  -15.5888   23.0685 O   0  0  0  0  0  0  0  0  0  0  0  0
    6.5992  -21.2785   27.2959 C   0  0  0  0  0  0  0  0  0  0  0  0
    5.5166  -11.6738   27.4188 S   0  0  0  0  0  0  0  0  0  0  0  0
    7.1483  -11.0267   26.9467 C   0  0  0  0  0  0  0  0  0  0  0  0
    8.3069  -12.4041   26.6448 C   0  0  0  0  0  0  0  0  0  0  0  0
    7.7130  -13.3025   25.5984 C   0  0  1  0  0  0  0  0  0  0  0  0
    8.6111  -14.4806   25.3253 N   0  0  0  0  0  0  0  0  0  0  0  0
    7.8918  -15.3605   24.3777 C   0  0  0  0  0  0  0  0  0  0  0  0
    8.9819  -15.2499   26.5304 O   0  0  0  0  0  0  0  0  0  0  0  0
    9.9360  -14.7438   27.4384 O   0  0  0  0  0  0  0  0  0  0  0  0
  2  1  1  6
  3  2  1  0
  4  5  2  0
  4  2  1  0
  6  7  1  0
  7  9  1  0
  8  7  2  0
  9 10  1  0
 10 11  1  0
 11 12  1  0
 13 12  1  6
 13 14  1  0
 14  4  1  0
 15 22  1  0
 15 13  1  0
 16 15  2  0
 18 17  1  0
 18 19  1  0
 19 20  1  0
 21 20  1  6
 21 22  1  0
 21 23  1  0
 23 25  2  0
 23 24  1  0
M  END
$$$$
