ARM.pdb
     RDKit          3D

 25 24  0  0  1  0  0  0  0  0999 V2000
    6.6499  -19.1294   26.5773 C   0  0  0  0  0  0  0  0  0  0  0  0
    6.6501  -19.4721   25.1117 C   0  0  2  0  0  0  0  0  0  0  0  0
    7.1821  -20.8152   24.9844 N   0  0  0  0  0  0  0  0  0  0  0  0
    7.4379  -18.5799   24.2786 C   0  0  0  0  0  0  0  0  0  0  0  0
    8.6694  -18.7795   24.1286 O   0  0  0  0  0  0  0  0  0  0  0  0
    8.2870  -13.4391   16.6125 N   0  0  0  0  0  0  0  0  0  0  0  0
    7.9690  -13.2647   17.9714 C   0  0  0  0  0  0  0  0  0  0  0  0
    8.2936  -12.1868   18.6104 N   0  0  0  0  0  0  0  0  0  0  0  0
    7.2722  -14.3190   18.6301 N   0  0  0  0  0  0  0  0  0  0  0  0
    6.8516  -14.1585   20.0064 C   0  0  0  0  0  0  0  0  0  0  0  0
    7.7647  -14.9437   20.9264 C   0  0  0  0  0  0  0  0  0  0  0  0
    6.8621  -15.7646   21.8301 C   0  0  0  0  0  0  0  0  0  0  0  0
    7.7179  -16.5192   22.8551 C   0  0  2  0  0  0  0  0  0  0  0  0
    6.9056  -17.4504   23.5894 N   0  0  0  0  0  0  0  0  0  0  0  0
    8.2429  -15.5070   23.8080 C   0  0  0  0  0  0  0  0  0  0  0  0
    7.9232  -14.2911   23.7882 O   0  0  0  0  0  0  0  0  0  0  0  0
    8.2082  -12.1123   19.6329 C   0  0  0  0  0  0  0  0  0  0  0  0
    6.2733  -12.1471   27.5083 S   0  0  0  0  0  0  0  0  0  0  0  0
    7.2624  -13.1925   28.6185 C   0  0  0  0  0  0  0  0  0  0  0  0
    8.7890  -13.7334   27.7774 C   0  0  0  0  0  0  0  0  0  0  0  0
    8.4055  -14.5614   26.5848 C   0  0  1  0  0  0  0  0  0  0  0  0
    9.6264  -15.0255   25.8344 N   0  0  0  0  0  0  0  0  0  0  0  0
    9.1598  -15.9653   24.7910 C   0  0  0  0  0  0  0  0  0  0  0  0
   10.6395  -15.6889   26.6801 O   0  0  0  0  0  0  0  0  0  0  0  0
   10.9837  -17.0395   26.4601 O   0  0  0  0  0  0  0  0  0  0  0  0
  2  1  1  1
  3  2  1  0
  4  5  2  0
  4  2  1  0
  6  7  1  0
  7  9  1  0
  8  7  2  0
  9 10  1  0
 10 11  1  0
 11 12  1  0
 13 12  1  6
 13 14  1  0
 14  4  1  0
 15 22  1  0
 15 13  1  0
 16 15  2  0
 18 17  1  0
 18 19  1  0
 19 20  1  0
 21 20  1  6
 21 22  1  0
 21 23  1  0
 23 25  2  0
 23 24  1  0
M  END
$$$$
