ARM.pdb
     RDKit          3D

 25 24  0  0  1  0  0  0  0  0999 V2000
    8.8170  -11.8432   19.3274 C   0  0  0  0  0  0  0  0  0  0  0  0
    8.5114  -13.2102   18.7766 C   0  0  2  0  0  0  0  0  0  0  0  0
    7.3558  -13.0761   17.9106 N   0  0  0  0  0  0  0  0  0  0  0  0
    8.2243  -14.2202   19.7807 C   0  0  0  0  0  0  0  0  0  0  0  0
    7.0513  -14.3738   20.2042 O   0  0  0  0  0  0  0  0  0  0  0  0
   11.6905  -19.9301   24.2490 N   0  0  0  0  0  0  0  0  0  0  0  0
   10.6605  -20.8487   23.9782 C   0  0  0  0  0  0  0  0  0  0  0  0
   10.3989  -21.8296   24.7814 N   0  0  0  0  0  0  0  0  0  0  0  0
    9.9062  -20.6661   22.7830 N   0  0  0  0  0  0  0  0  0  0  0  0
   10.2419  -19.5905   21.8734 C   0  0  0  0  0  0  0  0  0  0  0  0
    9.4024  -18.3665   22.1799 C   0  0  0  0  0  0  0  0  0  0  0  0
    9.7236  -17.3443   21.1042 C   0  0  0  0  0  0  0  0  0  0  0  0
    8.9035  -16.0717   21.3498 C   0  0  2  0  0  0  0  0  0  0  0  0
    9.2053  -15.0864   20.3476 N   0  0  0  0  0  0  0  0  0  0  0  0
    9.3229  -15.5358   22.6707 C   0  0  0  0  0  0  0  0  0  0  0  0
   10.4907  -15.1514   22.9343 O   0  0  0  0  0  0  0  0  0  0  0  0
    9.7226  -22.5664   24.5402 C   0  0  0  0  0  0  0  0  0  0  0  0
    6.0393  -11.3964   26.3046 S   0  0  0  0  0  0  0  0  0  0  0  0
    6.3158  -12.7452   27.4913 C   0  0  0  0  0  0  0  0  0  0  0  0
    7.7376  -13.7619   26.9664 C   0  0  0  0  0  0  0  0  0  0  0  0
    7.5208  -14.1802   25.5406 C   0  0  1  0  0  0  0  0  0  0  0  0
    8.6971  -14.9667   25.0238 N   0  0  0  0  0  0  0  0  0  0  0  0
    8.3265  -15.4637   23.6802 C   0  0  0  0  0  0  0  0  0  0  0  0
    9.0873  -16.1041   25.8815 O   0  0  0  0  0  0  0  0  0  0  0  0
   10.1081  -15.9583   26.8446 O   0  0  0  0  0  0  0  0  0  0  0  0
  2  1  1  1
  3  2  1  0
  4  5  2  0
  4  2  1  0
  6  7  1  0
  7  9  1  0
  8  7  2  0
  9 10  1  0
 10 11  1  0
 11 12  1  0
 13 12  1  6
 13 14  1  0
 14  4  1  0
 15 22  1  0
 15 13  1  0
 16 15  2  0
 18 17  1  0
 18 19  1  0
 19 20  1  0
 21 20  1  6
 21 22  1  0
 21 23  1  0
 23 25  2  0
 23 24  1  0
M  END
$$$$
