ARM.pdb
     RDKit          3D

 25 24  0  0  1  0  0  0  0  0999 V2000
    7.7651  -19.9457   25.1046 C   0  0  0  0  0  0  0  0  0  0  0  0
    7.5708  -19.7289   23.6278 C   0  0  2  0  0  0  0  0  0  0  0  0
    8.1946  -20.8452   22.9438 N   0  0  0  0  0  0  0  0  0  0  0  0
    8.1387  -18.4940   23.1146 C   0  0  0  0  0  0  0  0  0  0  0  0
    9.3398  -18.4563   22.7473 O   0  0  0  0  0  0  0  0  0  0  0  0
    7.9275  -14.1730   16.9052 N   0  0  0  0  0  0  0  0  0  0  0  0
    8.0479  -13.5647   18.1675 C   0  0  0  0  0  0  0  0  0  0  0  0
    8.3397  -12.3095   18.2898 N   0  0  0  0  0  0  0  0  0  0  0  0
    7.8371  -14.3780   19.3186 N   0  0  0  0  0  0  0  0  0  0  0  0
    8.4984  -14.0524   20.5650 C   0  0  0  0  0  0  0  0  0  0  0  0
    7.4711  -13.7661   21.6418 C   0  0  0  0  0  0  0  0  0  0  0  0
    6.8623  -15.1039   22.0221 C   0  0  0  0  0  0  0  0  0  0  0  0
    7.9784  -16.0745   22.4280 C   0  0  2  0  0  0  0  0  0  0  0  0
    7.4144  -17.2719   22.9887 N   0  0  0  0  0  0  0  0  0  0  0  0
    8.7767  -15.3977   23.4829 C   0  0  0  0  0  0  0  0  0  0  0  0
    9.3110  -14.2681   23.3435 O   0  0  0  0  0  0  0  0  0  0  0  0
    8.5375  -11.8821   19.2045 C   0  0  0  0  0  0  0  0  0  0  0  0
    6.0565  -12.5197   26.5683 S   0  0  0  0  0  0  0  0  0  0  0  0
    7.2814  -12.4933   27.9110 C   0  0  0  0  0  0  0  0  0  0  0  0
    8.6422  -13.6523   27.5427 C   0  0  0  0  0  0  0  0  0  0  0  0
    8.3545  -14.3192   26.2284 C   0  0  1  0  0  0  0  0  0  0  0  0
    9.4071  -15.3462   25.9021 N   0  0  0  0  0  0  0  0  0  0  0  0
    8.9312  -16.0888   24.7140 C   0  0  0  0  0  0  0  0  0  0  0  0
    9.6863  -16.2949   26.9991 O   0  0  0  0  0  0  0  0  0  0  0  0
   10.3653  -15.8684   28.1602 O   0  0  0  0  0  0  0  0  0  0  0  0
  2  1  1  1
  3  2  1  0
  4  5  2  0
  4  2  1  0
  6  7  1  0
  7  9  1  0
  8  7  2  0
  9 10  1  0
 10 11  1  0
 11 12  1  0
 13 12  1  1
 13 14  1  0
 14  4  1  0
 15 22  1  0
 15 13  1  0
 16 15  2  0
 18 17  1  0
 18 19  1  0
 19 20  1  0
 21 20  1  6
 21 22  1  0
 21 23  1  0
 23 25  2  0
 23 24  1  0
M  END
$$$$
