ARM.pdb
     RDKit          3D

 25 24  0  0  1  0  0  0  0  0999 V2000
    9.0016  -20.2102   21.9959 C   0  0  0  0  0  0  0  0  0  0  0  0
    9.4590  -19.2359   20.9437 C   0  0  2  0  0  0  0  0  0  0  0  0
   10.6952  -19.7520   20.3884 N   0  0  0  0  0  0  0  0  0  0  0  0
    9.6947  -17.8860   21.4263 C   0  0  0  0  0  0  0  0  0  0  0  0
   10.8145  -17.5725   21.9027 O   0  0  0  0  0  0  0  0  0  0  0  0
    9.2318  -12.8221   17.8158 N   0  0  0  0  0  0  0  0  0  0  0  0
    8.1442  -13.4061   17.1419 C   0  0  0  0  0  0  0  0  0  0  0  0
    8.1926  -13.6658   15.8747 N   0  0  0  0  0  0  0  0  0  0  0  0
    6.9768  -13.7064   17.9020 N   0  0  0  0  0  0  0  0  0  0  0  0
    7.0187  -13.6406   19.3480 C   0  0  0  0  0  0  0  0  0  0  0  0
    8.0318  -14.6307   19.8866 C   0  0  0  0  0  0  0  0  0  0  0  0
    7.9731  -14.5258   21.4001 C   0  0  0  0  0  0  0  0  0  0  0  0
    8.9182  -15.5630   22.0195 C   0  0  2  0  0  0  0  0  0  0  0  0
    8.7194  -16.8458   21.4021 N   0  0  0  0  0  0  0  0  0  0  0  0
    8.5537  -15.6759   23.4556 C   0  0  0  0  0  0  0  0  0  0  0  0
    7.5350  -16.2811   23.8764 O   0  0  0  0  0  0  0  0  0  0  0  0
    7.3924  -14.0698   15.3698 C   0  0  0  0  0  0  0  0  0  0  0  0
    6.0299  -10.5492   26.1256 S   0  0  0  0  0  0  0  0  0  0  0  0
    6.0380  -12.3658   26.1856 C   0  0  0  0  0  0  0  0  0  0  0  0
    7.7240  -12.9966   25.8854 C   0  0  0  0  0  0  0  0  0  0  0  0
    7.6874  -14.4965   25.9486 C   0  0  2  0  0  0  0  0  0  0  0  0
    9.0725  -15.0761   25.8270 N   0  0  0  0  0  0  0  0  0  0  0  0
    9.4242  -15.0544   24.3899 C   0  0  0  0  0  0  0  0  0  0  0  0
    9.1991  -16.4530   26.3464 O   0  0  0  0  0  0  0  0  0  0  0  0
    9.1263  -16.7056   27.7327 O   0  0  0  0  0  0  0  0  0  0  0  0
  2  1  1  1
  3  2  1  0
  4  5  2  0
  4  2  1  0
  6  7  1  0
  7  9  1  0
  8  7  2  0
  9 10  1  0
 10 11  1  0
 11 12  1  0
 13 12  1  6
 13 14  1  0
 14  4  1  0
 15 22  1  0
 15 13  1  0
 16 15  2  0
 18 17  1  0
 18 19  1  0
 19 20  1  0
 21 20  1  1
 21 22  1  0
 21 23  1  0
 23 25  2  0
 23 24  1  0
M  END
$$$$
