NVL.pdb
     RDKit          3D

 24 23  0  0  1  0  0  0  0  0999 V2000
   11.6756  -20.0475   18.6929 N   0  0  0  0  0  0  0  0  0  0  0  0
   12.2169  -19.8940   19.9846 C   0  0  0  0  0  0  0  0  0  0  0  0
   12.8722  -20.8337   20.4903 O   0  0  0  0  0  0  0  0  0  0  0  0
   11.9995  -18.6254   20.7169 C   0  0  0  0  0  0  0  0  0  0  0  0
   11.0760  -17.7051   19.9410 C   0  0  2  0  0  0  0  0  0  0  0  0
   11.7345  -17.1415   18.7823 N   0  0  0  0  0  0  0  0  0  0  0  0
   10.7356  -16.5788   20.8696 C   0  0  0  0  0  0  0  0  0  0  0  0
   11.5702  -15.7263   21.2409 O   0  0  0  0  0  0  0  0  0  0  0  0
    7.1752  -14.8156   20.5132 C   0  0  0  0  0  0  0  0  0  0  0  0
    7.4261  -15.2774   21.9227 C   0  0  2  0  0  0  0  0  0  0  0  0
    6.8412  -14.3045   22.8940 C   0  0  0  0  0  0  0  0  0  0  0  0
    8.9215  -15.4418   22.1645 C   0  0  2  0  0  0  0  0  0  0  0  0
    9.3872  -16.5166   21.3246 N   0  0  0  0  0  0  0  0  0  0  0  0
    9.1759  -15.7965   23.5788 C   0  0  0  0  0  0  0  0  0  0  0  0
    9.1146  -17.0030   23.9667 O   0  0  0  0  0  0  0  0  0  0  0  0
    9.7707  -13.3166   29.2800 C   0  0  0  0  0  0  0  0  0  0  0  0
    9.8857  -14.5406   28.3562 C   0  0  2  0  0  0  0  0  0  0  0  0
   11.2398  -15.1711   28.6100 C   0  0  0  0  0  0  0  0  0  0  0  0
    9.7183  -14.1044   26.9329 C   0  0  0  0  0  0  0  0  0  0  0  0
    9.6322  -15.1959   25.9346 C   0  0  2  0  0  0  0  0  0  0  0  0
    9.4985  -14.8121   24.5641 N   0  0  0  0  0  0  0  0  0  0  0  0
    8.4243  -16.0126   26.2836 C   0  0  0  0  0  0  0  0  0  0  0  0
    8.5533  -17.2121   26.9761 O   0  0  0  0  0  0  0  0  0  0  0  0
    7.2864  -15.6220   25.9546 O   0  0  0  0  0  0  0  0  0  0  0  0
  2  1  1  0
  2  3  2  0
  4  2  1  0
  5  4  1  0
  5  6  1  6
  7  8  2  0
  7  5  1  0
 10  9  1  6
 10 12  1  0
 11 10  1  0
 12 13  1  6
 13  7  1  0
 14 21  1  0
 14 12  1  0
 15 14  2  0
 17 16  1  1
 18 17  1  0
 20 19  1  1
 19 17  1  0
 20 22  1  0
 20 21  1  0
 22 23  1  0
 24 22  2  0
M  END
$$$$
