NVL.pdb
     RDKit          3D

 24 23  0  0  1  0  0  0  0  0999 V2000
   14.5187  -17.8147   18.3564 N   0  0  0  0  0  0  0  0  0  0  0  0
   13.9921  -17.9030   19.6603 C   0  0  0  0  0  0  0  0  0  0  0  0
   14.4481  -18.7625   20.4487 O   0  0  0  0  0  0  0  0  0  0  0  0
   12.9110  -16.9781   20.0709 C   0  0  0  0  0  0  0  0  0  0  0  0
   12.1268  -17.5478   21.2381 C   0  0  2  0  0  0  0  0  0  0  0  0
   11.2764  -18.6435   20.8255 N   0  0  0  0  0  0  0  0  0  0  0  0
   11.2439  -16.4390   21.7261 C   0  0  0  0  0  0  0  0  0  0  0  0
   11.6785  -15.3108   22.0411 O   0  0  0  0  0  0  0  0  0  0  0  0
    7.7848  -15.8407   20.0099 C   0  0  0  0  0  0  0  0  0  0  0  0
    7.5917  -16.0078   21.4924 C   0  0  2  0  0  0  0  0  0  0  0  0
    6.5128  -15.0947   21.9763 C   0  0  0  0  0  0  0  0  0  0  0  0
    8.8972  -15.7310   22.2279 C   0  0  2  0  0  0  0  0  0  0  0  0
    9.8526  -16.7298   21.8191 N   0  0  0  0  0  0  0  0  0  0  0  0
    8.6934  -15.8353   23.6902 C   0  0  0  0  0  0  0  0  0  0  0  0
    9.1789  -16.8071   24.3457 O   0  0  0  0  0  0  0  0  0  0  0  0
    8.7920  -12.3335   27.0088 C   0  0  0  0  0  0  0  0  0  0  0  0
    7.4684  -12.5772   26.2648 C   0  0  2  0  0  0  0  0  0  0  0  0
    6.4828  -11.5309   26.7439 C   0  0  0  0  0  0  0  0  0  0  0  0
    6.9960  -13.9722   26.5383 C   0  0  0  0  0  0  0  0  0  0  0  0
    7.7261  -15.0468   25.8259 C   0  0  2  0  0  0  0  0  0  0  0  0
    7.9503  -14.8607   24.4265 N   0  0  0  0  0  0  0  0  0  0  0  0
    6.9178  -16.3002   25.9801 C   0  0  0  0  0  0  0  0  0  0  0  0
    7.0507  -17.0966   27.1128 O   0  0  0  0  0  0  0  0  0  0  0  0
    6.1145  -16.6423   25.0895 O   0  0  0  0  0  0  0  0  0  0  0  0
  2  1  1  0
  2  3  2  0
  4  2  1  0
  5  4  1  0
  5  6  1  6
  7  8  2  0
  7  5  1  0
 10  9  1  6
 10 12  1  0
 11 10  1  0
 12 13  1  6
 13  7  1  0
 14 21  1  0
 14 12  1  0
 15 14  2  0
 17 16  1  1
 18 17  1  0
 20 19  1  6
 19 17  1  0
 20 22  1  0
 20 21  1  0
 22 23  1  0
 24 22  2  0
M  END
$$$$
