NVL.pdb
     RDKit          3D

 24 23  0  0  1  0  0  0  0  0999 V2000
    5.8228  -21.4407   22.4763 N   0  0  0  0  0  0  0  0  0  0  0  0
    5.3692  -20.5969   21.4431 C   0  0  0  0  0  0  0  0  0  0  0  0
    4.7903  -21.0978   20.4521 O   0  0  0  0  0  0  0  0  0  0  0  0
    5.5863  -19.1360   21.5508 C   0  0  0  0  0  0  0  0  0  0  0  0
    6.4290  -18.8033   22.7678 C   0  0  2  0  0  0  0  0  0  0  0  0
    5.6228  -18.2745   23.8468 N   0  0  0  0  0  0  0  0  0  0  0  0
    7.3789  -17.7280   22.3339 C   0  0  0  0  0  0  0  0  0  0  0  0
    8.3011  -17.9240   21.5140 O   0  0  0  0  0  0  0  0  0  0  0  0
    6.7481  -14.5128   20.7296 C   0  0  0  0  0  0  0  0  0  0  0  0
    7.2705  -14.1850   22.1016 C   0  0  2  0  0  0  0  0  0  0  0  0
    8.0953  -12.9402   22.0536 C   0  0  0  0  0  0  0  0  0  0  0  0
    8.0897  -15.3493   22.6451 C   0  0  2  0  0  0  0  0  0  0  0  0
    7.1840  -16.4392   22.9084 N   0  0  0  0  0  0  0  0  0  0  0  0
    8.7523  -14.9627   23.9110 C   0  0  0  0  0  0  0  0  0  0  0  0
    8.3035  -14.0057   24.6128 O   0  0  0  0  0  0  0  0  0  0  0  0
    8.9711  -13.9003   28.9449 C   0  0  0  0  0  0  0  0  0  0  0  0
   10.0920  -14.3379   27.9873 C   0  0  2  0  0  0  0  0  0  0  0  0
   11.0430  -13.1673   27.8417 C   0  0  0  0  0  0  0  0  0  0  0  0
    9.4921  -14.7506   26.6782 C   0  0  0  0  0  0  0  0  0  0  0  0
   10.4417  -15.3050   25.6851 C   0  0  2  0  0  0  0  0  0  0  0  0
    9.9140  -15.6382   24.3990 N   0  0  0  0  0  0  0  0  0  0  0  0
   11.0008  -16.5662   26.2724 C   0  0  0  0  0  0  0  0  0  0  0  0
   10.5445  -17.8103   25.8496 O   0  0  0  0  0  0  0  0  0  0  0  0
   11.8851  -16.5112   27.1503 O   0  0  0  0  0  0  0  0  0  0  0  0
  2  1  1  0
  2  3  2  0
  4  2  1  0
  5  4  1  0
  5  6  1  1
  7  8  2  0
  7  5  1  0
 10  9  1  6
 10 12  1  0
 11 10  1  0
 12 13  1  1
 13  7  1  0
 14 21  1  0
 14 12  1  0
 15 14  2  0
 17 16  1  1
 18 17  1  0
 20 19  1  1
 19 17  1  0
 20 22  1  0
 20 21  1  0
 22 23  1  0
 24 22  2  0
M  END
$$$$
