NVL.pdb
     RDKit          3D

 24 23  0  0  1  0  0  0  0  0999 V2000
   10.5548  -20.4616   17.8363 N   0  0  0  0  0  0  0  0  0  0  0  0
    9.4700  -19.6226   18.1594 C   0  0  0  0  0  0  0  0  0  0  0  0
    8.3020  -20.0217   17.9478 O   0  0  0  0  0  0  0  0  0  0  0  0
    9.7336  -18.2870   18.7421 C   0  0  0  0  0  0  0  0  0  0  0  0
    9.1535  -18.1834   20.1402 C   0  0  2  0  0  0  0  0  0  0  0  0
    7.7070  -18.2157   20.1215 N   0  0  0  0  0  0  0  0  0  0  0  0
    9.5769  -16.8457   20.6676 C   0  0  0  0  0  0  0  0  0  0  0  0
   10.7711  -16.4829   20.7244 O   0  0  0  0  0  0  0  0  0  0  0  0
    7.2872  -13.9404   19.7198 C   0  0  0  0  0  0  0  0  0  0  0  0
    7.6113  -13.7721   21.1791 C   0  0  2  0  0  0  0  0  0  0  0  0
    7.8855  -12.3351   21.4822 C   0  0  0  0  0  0  0  0  0  0  0  0
    8.8084  -14.6364   21.5556 C   0  0  2  0  0  0  0  0  0  0  0  0
    8.5365  -15.9810   21.1134 N   0  0  0  0  0  0  0  0  0  0  0  0
    8.9926  -14.6448   23.0242 C   0  0  0  0  0  0  0  0  0  0  0  0
   10.0811  -14.2519   23.5443 O   0  0  0  0  0  0  0  0  0  0  0  0
    7.7032  -12.0563   26.5600 C   0  0  0  0  0  0  0  0  0  0  0  0
    6.6840  -12.9433   25.8256 C   0  0  2  0  0  0  0  0  0  0  0  0
    5.3068  -12.5543   26.3232 C   0  0  0  0  0  0  0  0  0  0  0  0
    6.9994  -14.3836   26.0904 C   0  0  0  0  0  0  0  0  0  0  0  0
    8.1417  -14.9397   25.3281 C   0  0  2  0  0  0  0  0  0  0  0  0
    7.9684  -15.0894   23.9171 N   0  0  0  0  0  0  0  0  0  0  0  0
    8.4162  -16.3041   25.8859 C   0  0  0  0  0  0  0  0  0  0  0  0
    8.7898  -16.4661   27.2159 O   0  0  0  0  0  0  0  0  0  0  0  0
    8.3115  -17.3119   25.1587 O   0  0  0  0  0  0  0  0  0  0  0  0
  2  1  1  0
  2  3  2  0
  4  2  1  0
  5  4  1  0
  5  6  1  6
  7  8  2  0
  7  5  1  0
 10  9  1  6
 10 12  1  0
 11 10  1  0
 12 13  1  1
 13  7  1  0
 14 21  1  0
 14 12  1  0
 15 14  2  0
 17 16  1  1
 18 17  1  0
 20 19  1  1
 19 17  1  0
 20 22  1  0
 20 21  1  0
 22 23  1  0
 24 22  2  0
M  END
$$$$
