NVL.pdb
     RDKit          3D

 24 23  0  0  1  0  0  0  0  0999 V2000
   12.8702  -18.3836   17.6733 N   0  0  0  0  0  0  0  0  0  0  0  0
   13.1709  -17.9893   18.9921 C   0  0  0  0  0  0  0  0  0  0  0  0
   14.1058  -18.5557   19.6032 O   0  0  0  0  0  0  0  0  0  0  0  0
   12.3755  -16.9140   19.6276 C   0  0  0  0  0  0  0  0  0  0  0  0
   11.5222  -17.4666   20.7538 C   0  0  2  0  0  0  0  0  0  0  0  0
   10.5069  -18.3714   20.2594 N   0  0  0  0  0  0  0  0  0  0  0  0
   10.8286  -16.2875   21.3665 C   0  0  0  0  0  0  0  0  0  0  0  0
   11.4344  -15.2636   21.7481 O   0  0  0  0  0  0  0  0  0  0  0  0
    6.7038  -16.7391   21.4424 C   0  0  0  0  0  0  0  0  0  0  0  0
    7.2572  -15.3402   21.4483 C   0  0  2  0  0  0  0  0  0  0  0  0
    7.3228  -14.8077   20.0540 C   0  0  0  0  0  0  0  0  0  0  0  0
    8.6375  -15.3228   22.0935 C   0  0  2  0  0  0  0  0  0  0  0  0
    9.4136  -16.3825   21.5003 N   0  0  0  0  0  0  0  0  0  0  0  0
    8.5260  -15.5696   23.5486 C   0  0  0  0  0  0  0  0  0  0  0  0
    9.1122  -16.5580   24.0863 O   0  0  0  0  0  0  0  0  0  0  0  0
    8.6186  -12.2638   27.2098 C   0  0  0  0  0  0  0  0  0  0  0  0
    7.3302  -12.5896   26.4360 C   0  0  2  0  0  0  0  0  0  0  0  0
    6.2553  -11.6440   26.9320 C   0  0  0  0  0  0  0  0  0  0  0  0
    6.9701  -14.0269   26.6561 C   0  0  0  0  0  0  0  0  0  0  0  0
    7.6903  -15.0047   25.8073 C   0  0  2  0  0  0  0  0  0  0  0  0
    7.7635  -14.7191   24.4085 N   0  0  0  0  0  0  0  0  0  0  0  0
    6.9790  -16.3165   25.9528 C   0  0  0  0  0  0  0  0  0  0  0  0
    6.2509  -16.8513   24.8952 O   0  0  0  0  0  0  0  0  0  0  0  0
    7.0340  -16.9440   27.0294 O   0  0  0  0  0  0  0  0  0  0  0  0
  2  1  1  0
  2  3  2  0
  4  2  1  0
  5  4  1  0
  5  6  1  6
  7  8  2  0
  7  5  1  0
 10  9  1  6
 10 12  1  0
 11 10  1  0
 12 13  1  6
 13  7  1  0
 14 21  1  0
 14 12  1  0
 15 14  2  0
 17 16  1  1
 18 17  1  0
 20 19  1  1
 19 17  1  0
 20 22  1  0
 20 21  1  0
 22 23  1  0
 24 22  2  0
M  END
$$$$
