NVL.pdb
     RDKit          3D

 24 23  0  0  1  0  0  0  0  0999 V2000
   12.0911  -19.8569   19.4024 N   0  0  0  0  0  0  0  0  0  0  0  0
   11.8348  -19.8295   20.7876 C   0  0  0  0  0  0  0  0  0  0  0  0
   11.8747  -20.8978   21.4397 O   0  0  0  0  0  0  0  0  0  0  0  0
   11.5238  -18.5385   21.4430 C   0  0  0  0  0  0  0  0  0  0  0  0
   11.3813  -17.4314   20.4154 C   0  0  2  0  0  0  0  0  0  0  0  0
   12.6685  -16.9966   19.9175 N   0  0  0  0  0  0  0  0  0  0  0  0
   10.7521  -16.2762   21.1339 C   0  0  0  0  0  0  0  0  0  0  0  0
   11.4134  -15.4259   21.7669 O   0  0  0  0  0  0  0  0  0  0  0  0
    7.6315  -14.3791   19.6429 C   0  0  0  0  0  0  0  0  0  0  0  0
    7.3170  -14.8884   21.0230 C   0  0  2  0  0  0  0  0  0  0  0  0
    6.4768  -13.8955   21.7581 C   0  0  0  0  0  0  0  0  0  0  0  0
    8.6053  -15.1692   21.7868 C   0  0  2  0  0  0  0  0  0  0  0  0
    9.3323  -16.1831   21.0651 N   0  0  0  0  0  0  0  0  0  0  0  0
    8.2968  -15.6767   23.1426 C   0  0  0  0  0  0  0  0  0  0  0  0
    8.3671  -16.9164   23.4032 O   0  0  0  0  0  0  0  0  0  0  0  0
    9.3451  -13.7765   27.7343 C   0  0  0  0  0  0  0  0  0  0  0  0
    8.2200  -13.2790   26.8116 C   0  0  2  0  0  0  0  0  0  0  0  0
    7.5714  -12.0907   27.4921 C   0  0  0  0  0  0  0  0  0  0  0  0
    7.2503  -14.3943   26.5671 C   0  0  0  0  0  0  0  0  0  0  0  0
    7.6312  -15.3521   25.5027 C   0  0  2  0  0  0  0  0  0  0  0  0
    7.9100  -14.8084   24.2104 N   0  0  0  0  0  0  0  0  0  0  0  0
    6.4848  -16.3050   25.3422 C   0  0  0  0  0  0  0  0  0  0  0  0
    6.3516  -17.4047   26.1835 O   0  0  0  0  0  0  0  0  0  0  0  0
    5.6353  -16.1196   24.4480 O   0  0  0  0  0  0  0  0  0  0  0  0
  2  1  1  0
  2  3  2  0
  4  2  1  0
  5  4  1  0
  5  6  1  1
  7  8  2  0
  7  5  1  0
 10  9  1  6
 10 12  1  0
 11 10  1  0
 12 13  1  6
 13  7  1  0
 14 21  1  0
 14 12  1  0
 15 14  2  0
 17 16  1  1
 18 17  1  0
 20 19  1  1
 19 17  1  0
 20 22  1  0
 20 21  1  0
 22 23  1  0
 24 22  2  0
M  END
$$$$
