NVL.pdb
     RDKit          3D

 24 23  0  0  1  0  0  0  0  0999 V2000
   14.7276  -18.1601   18.9733 N   0  0  0  0  0  0  0  0  0  0  0  0
   13.3416  -18.0269   18.7580 C   0  0  0  0  0  0  0  0  0  0  0  0
   12.7731  -18.7835   17.9378 O   0  0  0  0  0  0  0  0  0  0  0  0
   12.5865  -16.9954   19.5056 C   0  0  0  0  0  0  0  0  0  0  0  0
   11.5928  -17.6363   20.4563 C   0  0  2  0  0  0  0  0  0  0  0  0
   10.4428  -18.1611   19.7521 N   0  0  0  0  0  0  0  0  0  0  0  0
   11.1171  -16.5399   21.3610 C   0  0  0  0  0  0  0  0  0  0  0  0
   11.8895  -15.7218   21.9042 O   0  0  0  0  0  0  0  0  0  0  0  0
    7.4451  -14.9940   20.6163 C   0  0  0  0  0  0  0  0  0  0  0  0
    7.6423  -15.3580   22.0625 C   0  0  2  0  0  0  0  0  0  0  0  0
    6.9540  -14.3646   22.9409 C   0  0  0  0  0  0  0  0  0  0  0  0
    9.1288  -15.4236   22.3910 C   0  0  2  0  0  0  0  0  0  0  0  0
    9.7121  -16.4652   21.5833 N   0  0  0  0  0  0  0  0  0  0  0  0
    9.3235  -15.7611   23.8189 C   0  0  0  0  0  0  0  0  0  0  0  0
    9.3340  -16.9697   24.2048 O   0  0  0  0  0  0  0  0  0  0  0  0
   10.3702  -13.2574   29.4634 C   0  0  0  0  0  0  0  0  0  0  0  0
   10.2218  -14.4967   28.5651 C   0  0  2  0  0  0  0  0  0  0  0  0
   11.4798  -15.3252   28.7287 C   0  0  0  0  0  0  0  0  0  0  0  0
   10.0086  -14.0590   27.1484 C   0  0  0  0  0  0  0  0  0  0  0  0
    9.7004  -15.1403   26.1835 C   0  0  2  0  0  0  0  0  0  0  0  0
    9.5068  -14.7570   24.8201 N   0  0  0  0  0  0  0  0  0  0  0  0
    8.4289  -15.7875   26.6444 C   0  0  0  0  0  0  0  0  0  0  0  0
    8.4589  -16.9587   27.3943 O   0  0  0  0  0  0  0  0  0  0  0  0
    7.3265  -15.2791   26.3582 O   0  0  0  0  0  0  0  0  0  0  0  0
  2  1  1  0
  2  3  2  0
  4  2  1  0
  5  4  1  0
  5  6  1  6
  7  8  2  0
  7  5  1  0
 10  9  1  6
 10 12  1  0
 11 10  1  0
 12 13  1  6
 13  7  1  0
 14 21  1  0
 14 12  1  0
 15 14  2  0
 17 16  1  1
 18 17  1  0
 20 19  1  1
 19 17  1  0
 20 22  1  0
 20 21  1  0
 22 23  1  0
 24 22  2  0
M  END
$$$$
