NVL.pdb
     RDKit          3D

 24 23  0  0  1  0  0  0  0  0999 V2000
    5.6106  -21.0416   23.8408 N   0  0  0  0  0  0  0  0  0  0  0  0
    6.2930  -20.2048   24.7459 C   0  0  0  0  0  0  0  0  0  0  0  0
    6.1531  -20.3897   25.9765 O   0  0  0  0  0  0  0  0  0  0  0  0
    7.1609  -19.1247   24.2233 C   0  0  0  0  0  0  0  0  0  0  0  0
    7.0136  -18.9934   22.7190 C   0  0  2  0  0  0  0  0  0  0  0  0
    7.4401  -20.1946   22.0341 N   0  0  0  0  0  0  0  0  0  0  0  0
    7.9288  -17.8799   22.3076 C   0  0  0  0  0  0  0  0  0  0  0  0
    9.1014  -18.0698   21.9206 O   0  0  0  0  0  0  0  0  0  0  0  0
    6.4177  -14.6597   20.3382 C   0  0  0  0  0  0  0  0  0  0  0  0
    7.1669  -14.3082   21.5945 C   0  0  2  0  0  0  0  0  0  0  0  0
    7.8777  -13.0056   21.4215 C   0  0  0  0  0  0  0  0  0  0  0  0
    8.1542  -15.4144   21.9456 C   0  0  2  0  0  0  0  0  0  0  0  0
    7.3949  -16.5611   22.3769 N   0  0  0  0  0  0  0  0  0  0  0  0
    9.0360  -14.9816   23.0529 C   0  0  0  0  0  0  0  0  0  0  0  0
    9.9139  -14.0840   22.8707 O   0  0  0  0  0  0  0  0  0  0  0  0
    6.2077  -12.2067   26.7951 C   0  0  0  0  0  0  0  0  0  0  0  0
    7.5413  -12.9722   26.8158 C   0  0  2  0  0  0  0  0  0  0  0  0
    8.6495  -11.9442   26.9188 C   0  0  0  0  0  0  0  0  0  0  0  0
    7.6524  -13.8071   25.5770 C   0  0  0  0  0  0  0  0  0  0  0  0
    8.8436  -14.6849   25.5011 C   0  0  2  0  0  0  0  0  0  0  0  0
    8.9439  -15.5450   24.3637 N   0  0  0  0  0  0  0  0  0  0  0  0
    8.8174  -15.5626   26.7165 C   0  0  0  0  0  0  0  0  0  0  0  0
    8.7500  -16.9463   26.5925 O   0  0  0  0  0  0  0  0  0  0  0  0
    8.8560  -15.0573   27.8561 O   0  0  0  0  0  0  0  0  0  0  0  0
  2  1  1  0
  2  3  2  0
  4  2  1  0
  5  4  1  0
  5  6  1  6
  7  8  2  0
  7  5  1  0
 10  9  1  6
 10 12  1  0
 11 10  1  0
 12 13  1  1
 13  7  1  0
 14 21  1  0
 14 12  1  0
 15 14  2  0
 17 16  1  6
 18 17  1  0
 20 19  1  6
 19 17  1  0
 20 22  1  0
 20 21  1  0
 22 23  1  0
 24 22  2  0
M  END
$$$$
