NVL.pdb
     RDKit          3D

 24 23  0  0  1  0  0  0  0  0999 V2000
   13.9193  -17.8626   19.2376 N   0  0  0  0  0  0  0  0  0  0  0  0
   14.2700  -16.5028   19.3525 C   0  0  0  0  0  0  0  0  0  0  0  0
   15.2681  -16.0725   18.7305 O   0  0  0  0  0  0  0  0  0  0  0  0
   13.4514  -15.6115   20.2059 C   0  0  0  0  0  0  0  0  0  0  0  0
   12.1488  -15.2505   19.5169 C   0  0  2  0  0  0  0  0  0  0  0  0
   12.3659  -14.3575   18.3992 N   0  0  0  0  0  0  0  0  0  0  0  0
   11.3281  -14.5199   20.5365 C   0  0  0  0  0  0  0  0  0  0  0  0
   11.6099  -13.3724   20.9424 O   0  0  0  0  0  0  0  0  0  0  0  0
    7.6330  -14.1456   20.1375 C   0  0  0  0  0  0  0  0  0  0  0  0
    7.8535  -14.8347   21.4564 C   0  0  2  0  0  0  0  0  0  0  0  0
    6.8481  -14.3644   22.4563 C   0  0  0  0  0  0  0  0  0  0  0  0
    9.2689  -14.5734   21.9567 C   0  0  2  0  0  0  0  0  0  0  0  0
   10.1835  -15.2035   21.0381 N   0  0  0  0  0  0  0  0  0  0  0  0
    9.4555  -15.1677   23.2994 C   0  0  0  0  0  0  0  0  0  0  0  0
    9.9814  -16.3144   23.4344 O   0  0  0  0  0  0  0  0  0  0  0  0
    9.4670  -13.4964   29.3240 C   0  0  0  0  0  0  0  0  0  0  0  0
    9.7796  -14.5431   28.2416 C   0  0  2  0  0  0  0  0  0  0  0  0
   11.2529  -14.8791   28.3518 C   0  0  0  0  0  0  0  0  0  0  0  0
    9.4212  -13.9877   26.8973 C   0  0  0  0  0  0  0  0  0  0  0  0
    9.5608  -14.9257   25.7589 C   0  0  2  0  0  0  0  0  0  0  0  0
    9.0585  -14.4895   24.4937 N   0  0  0  0  0  0  0  0  0  0  0  0
    8.8112  -16.1715   26.1252 C   0  0  0  0  0  0  0  0  0  0  0  0
    9.4662  -17.2475   26.7152 O   0  0  0  0  0  0  0  0  0  0  0  0
    7.5867  -16.2551   25.9030 O   0  0  0  0  0  0  0  0  0  0  0  0
  2  1  1  0
  2  3  2  0
  4  2  1  0
  5  4  1  0
  5  6  1  6
  7  8  2  0
  7  5  1  0
 10  9  1  6
 10 12  1  0
 11 10  1  0
 12 13  1  6
 13  7  1  0
 14 21  1  0
 14 12  1  0
 15 14  2  0
 17 16  1  1
 18 17  1  0
 20 19  1  1
 19 17  1  0
 20 22  1  0
 20 21  1  0
 22 23  1  0
 24 22  2  0
M  END
$$$$
