HDR.pdb
     RDKit          3D

 30 30  0  0  1  0  0  0  0  0999 V2000
    9.8995  -19.0769   16.9737 N   0  0  0  0  0  0  0  0  0  0  0  0
   10.4715  -17.8537   17.4376 C   0  0  1  0  0  0  0  0  0  0  0  0
    9.4981  -16.7142   17.2575 C   0  0  0  0  0  0  0  0  0  0  0  0
    9.2113  -16.5645   15.8079 C   0  0  0  0  0  0  0  0  0  0  0  0
   10.1600  -16.3018   14.8042 C   0  0  0  0  0  0  0  0  0  0  0  0
    9.5266  -16.2401   13.6234 N   0  0  0  0  0  0  0  0  0  0  0  0
    8.2239  -16.4487   13.8221 C   0  0  0  0  0  0  0  0  0  0  0  0
    8.0485  -16.6420   15.1412 N   0  0  0  0  0  0  0  0  0  0  0  0
   10.9186  -17.9966   18.8451 C   0  0  0  0  0  0  0  0  0  0  0  0
   10.3038  -18.7419   19.6144 O   0  0  0  0  0  0  0  0  0  0  0  0
   12.0454  -17.2877   19.3215 N   0  0  0  0  0  0  0  0  0  0  0  0
   12.5140  -17.3131   20.6761 C   0  0  1  0  0  0  0  0  0  0  0  0
   14.0041  -16.9842   20.7632 C   0  0  0  0  0  0  0  0  0  0  0  0
   14.8417  -17.9885   20.0797 C   0  0  0  0  0  0  0  0  0  0  0  0
   14.6609  -19.2367   20.1773 O   0  0  0  0  0  0  0  0  0  0  0  0
   11.7727  -16.4651   21.6054 C   0  0  0  0  0  0  0  0  0  0  0  0
   11.4040  -15.3045   21.2809 O   0  0  0  0  0  0  0  0  0  0  0  0
   15.8893  -17.5593   19.2851 O   0  0  0  0  0  0  0  0  0  0  0  0
    7.9071  -14.1959   19.1220 N   0  0  0  0  0  0  0  0  0  0  0  0
    7.7789  -13.1077   20.0506 C   0  0  0  0  0  0  0  0  0  0  0  0
    8.1206  -11.9561   19.6329 N   0  0  0  0  0  0  0  0  0  0  0  0
    7.3006  -13.2818   21.3673 N   0  0  0  0  0  0  0  0  0  0  0  0
    7.2704  -14.5837   21.9949 C   0  0  0  0  0  0  0  0  0  0  0  0
    8.4123  -14.7377   23.0034 C   0  0  0  0  0  0  0  0  0  0  0  0
    9.1722  -16.0170   22.7712 C   0  0  0  0  0  0  0  0  0  0  0  0
   10.3355  -16.2192   23.6724 C   0  0  2  0  0  0  0  0  0  0  0  0
   11.4045  -16.8476   22.9268 N   0  0  0  0  0  0  0  0  0  0  0  0
   10.0182  -16.9271   24.9245 C   0  0  0  0  0  0  0  0  0  0  0  0
   10.3063  -18.1587   25.0528 O   0  0  0  0  0  0  0  0  0  0  0  0
    9.4068  -16.3488   26.0324 O   0  0  0  0  0  0  0  0  0  0  0  0
  2  3  1  0
  2  1  1  1
  3  4  1  0
  4  5  2  0
  5  6  1  0
  7  6  1  0
  8  4  1  0
  8  7  2  0
  9  2  1  0
 10  9  2  0
 11  9  1  0
 12 11  1  0
 12 13  1  6
 13 14  1  0
 14 18  1  0
 15 14  2  0
 16 27  1  0
 16 12  1  0
 17 16  2  0
 20 21  2  0
 20 19  1  0
 22 20  1  0
 23 22  1  0
 24 23  1  0
 26 25  1  6
 25 24  1  0
 26 28  1  0
 26 27  1  0
 28 30  1  0
 29 28  2  0
M  END
$$$$
