HDR.pdb
     RDKit          3D

 30 30  0  0  1  0  0  0  0  0999 V2000
    8.9324  -17.0337   19.9401 N   0  0  0  0  0  0  0  0  0  0  0  0
    9.3778  -16.1660   20.9829 C   0  0  1  0  0  0  0  0  0  0  0  0
    8.2431  -15.2961   21.4665 C   0  0  0  0  0  0  0  0  0  0  0  0
    7.8628  -14.3667   20.3721 C   0  0  0  0  0  0  0  0  0  0  0  0
    8.4845  -14.2783   19.1143 C   0  0  0  0  0  0  0  0  0  0  0  0
    7.8628  -13.3310   18.3962 N   0  0  0  0  0  0  0  0  0  0  0  0
    6.8782  -12.8106   19.1308 C   0  0  0  0  0  0  0  0  0  0  0  0
    6.8901  -13.4428   20.3174 N   0  0  0  0  0  0  0  0  0  0  0  0
    9.9919  -16.9538   22.0799 C   0  0  0  0  0  0  0  0  0  0  0  0
    9.5866  -18.0954   22.3204 O   0  0  0  0  0  0  0  0  0  0  0  0
   11.0409  -16.4135   22.8590 N   0  0  0  0  0  0  0  0  0  0  0  0
   11.6555  -17.0744   23.9728 C   0  0  1  0  0  0  0  0  0  0  0  0
   13.0256  -16.4788   24.2955 C   0  0  0  0  0  0  0  0  0  0  0  0
   13.9671  -16.5912   23.1649 C   0  0  0  0  0  0  0  0  0  0  0  0
   14.1392  -17.6522   22.4979 O   0  0  0  0  0  0  0  0  0  0  0  0
   10.8474  -17.1242   25.1881 C   0  0  0  0  0  0  0  0  0  0  0  0
   10.4981  -16.0709   25.7856 O   0  0  0  0  0  0  0  0  0  0  0  0
   14.7134  -15.4849   22.8010 O   0  0  0  0  0  0  0  0  0  0  0  0
    4.1663  -21.8243   23.1203 N   0  0  0  0  0  0  0  0  0  0  0  0
    5.0320  -21.7948   24.2659 C   0  0  0  0  0  0  0  0  0  0  0  0
    4.9334  -22.7648   25.0826 N   0  0  0  0  0  0  0  0  0  0  0  0
    5.9549  -20.7518   24.4971 N   0  0  0  0  0  0  0  0  0  0  0  0
    6.8571  -20.7770   25.6264 C   0  0  0  0  0  0  0  0  0  0  0  0
    7.6871  -19.4923   25.6993 C   0  0  0  0  0  0  0  0  0  0  0  0
    8.6239  -19.5179   26.8782 C   0  0  0  0  0  0  0  0  0  0  0  0
    9.5359  -18.3492   26.9707 C   0  0  2  0  0  0  0  0  0  0  0  0
   10.3886  -18.3243   25.8020 N   0  0  0  0  0  0  0  0  0  0  0  0
   10.2917  -18.2667   28.2323 C   0  0  0  0  0  0  0  0  0  0  0  0
   11.5435  -18.4882   28.2428 O   0  0  0  0  0  0  0  0  0  0  0  0
    9.7407  -17.9526   29.4706 O   0  0  0  0  0  0  0  0  0  0  0  0
  2  3  1  0
  2  1  1  6
  3  4  1  0
  4  5  2  0
  5  6  1  0
  7  6  1  0
  8  4  1  0
  8  7  2  0
  9  2  1  0
 10  9  2  0
 11  9  1  0
 12 11  1  0
 12 13  1  1
 13 14  1  0
 14 18  1  0
 15 14  2  0
 16 27  1  0
 16 12  1  0
 17 16  2  0
 20 21  2  0
 20 19  1  0
 22 20  1  0
 23 22  1  0
 24 23  1  0
 26 25  1  1
 25 24  1  0
 26 28  1  0
 26 27  1  0
 28 30  1  0
 29 28  2  0
M  END
$$$$
