HDR.pdb
     RDKit          3D

 30 30  0  0  1  0  0  0  0  0999 V2000
   13.2229  -16.9388   17.3764 N   0  0  0  0  0  0  0  0  0  0  0  0
   13.7436  -16.5847   18.6579 C   0  0  1  0  0  0  0  0  0  0  0  0
   13.8303  -15.0842   18.7961 C   0  0  0  0  0  0  0  0  0  0  0  0
   15.0937  -14.6253   18.1641 C   0  0  0  0  0  0  0  0  0  0  0  0
   16.1368  -15.4535   17.7140 C   0  0  0  0  0  0  0  0  0  0  0  0
   17.1045  -14.6800   17.1995 N   0  0  0  0  0  0  0  0  0  0  0  0
   16.7332  -13.4024   17.2991 C   0  0  0  0  0  0  0  0  0  0  0  0
   15.5215  -13.3844   17.8818 N   0  0  0  0  0  0  0  0  0  0  0  0
   12.9294  -17.2042   19.7325 C   0  0  0  0  0  0  0  0  0  0  0  0
   11.6987  -17.1051   19.7081 O   0  0  0  0  0  0  0  0  0  0  0  0
   13.5459  -17.9109   20.7908 N   0  0  0  0  0  0  0  0  0  0  0  0
   12.8480  -18.4988   21.8964 C   0  0  1  0  0  0  0  0  0  0  0  0
   13.7184  -19.5141   22.6365 C   0  0  0  0  0  0  0  0  0  0  0  0
   13.0027  -20.1578   23.7549 C   0  0  0  0  0  0  0  0  0  0  0  0
   11.8876  -20.7422   23.6308 O   0  0  0  0  0  0  0  0  0  0  0  0
   12.2878  -17.5483   22.8530 C   0  0  0  0  0  0  0  0  0  0  0  0
   12.9775  -16.5991   23.3132 O   0  0  0  0  0  0  0  0  0  0  0  0
   13.5666  -20.1285   25.0175 O   0  0  0  0  0  0  0  0  0  0  0  0
    6.7452  -12.9965   19.8202 N   0  0  0  0  0  0  0  0  0  0  0  0
    8.1672  -12.9534   19.6232 C   0  0  0  0  0  0  0  0  0  0  0  0
    8.5865  -12.2858   18.6252 N   0  0  0  0  0  0  0  0  0  0  0  0
    9.0756  -13.6115   20.4803 N   0  0  0  0  0  0  0  0  0  0  0  0
    8.6209  -14.3844   21.6142 C   0  0  0  0  0  0  0  0  0  0  0  0
    9.7973  -15.0359   22.3465 C   0  0  0  0  0  0  0  0  0  0  0  0
    9.3205  -15.8618   23.5120 C   0  0  0  0  0  0  0  0  0  0  0  0
   10.3928  -16.5958   24.2315 C   0  0  2  0  0  0  0  0  0  0  0  0
   10.9533  -17.5950   23.3477 N   0  0  0  0  0  0  0  0  0  0  0  0
    9.9822  -17.1489   25.5334 C   0  0  0  0  0  0  0  0  0  0  0  0
    9.8280  -18.4029   25.6748 O   0  0  0  0  0  0  0  0  0  0  0  0
    9.7379  -16.3948   26.6768 O   0  0  0  0  0  0  0  0  0  0  0  0
  2  3  1  0
  2  1  1  6
  3  4  1  0
  4  5  2  0
  5  6  1  0
  7  6  1  0
  8  4  1  0
  8  7  2  0
  9  2  1  0
 10  9  2  0
 11  9  1  0
 12 11  1  0
 12 13  1  1
 13 14  1  0
 14 18  1  0
 15 14  2  0
 16 27  1  0
 16 12  1  0
 17 16  2  0
 20 21  2  0
 20 19  1  0
 22 20  1  0
 23 22  1  0
 24 23  1  0
 26 25  1  6
 25 24  1  0
 26 28  1  0
 26 27  1  0
 28 30  1  0
 29 28  2  0
M  END
$$$$
