HDR.pdb
     RDKit          3D

 30 30  0  0  1  0  0  0  0  0999 V2000
    7.9294  -13.1361   18.9403 N   0  0  0  0  0  0  0  0  0  0  0  0
    8.3690  -14.4505   18.5968 C   0  0  1  0  0  0  0  0  0  0  0  0
    9.5089  -14.3846   17.6097 C   0  0  0  0  0  0  0  0  0  0  0  0
    8.9436  -14.3929   16.2362 C   0  0  0  0  0  0  0  0  0  0  0  0
    8.0005  -13.4820   15.7290 C   0  0  0  0  0  0  0  0  0  0  0  0
    7.7364  -13.8060   14.4543 N   0  0  0  0  0  0  0  0  0  0  0  0
    8.4609  -14.8762   14.1231 C   0  0  0  0  0  0  0  0  0  0  0  0
    9.1822  -15.2188   15.2050 N   0  0  0  0  0  0  0  0  0  0  0  0
    8.7258  -15.2093   19.8208 C   0  0  0  0  0  0  0  0  0  0  0  0
    9.0724  -14.6058   20.8410 O   0  0  0  0  0  0  0  0  0  0  0  0
    8.6743  -16.6223   19.8365 N   0  0  0  0  0  0  0  0  0  0  0  0
    9.1257  -17.4444   20.9207 C   0  0  1  0  0  0  0  0  0  0  0  0
    8.6642  -18.8926   20.7598 C   0  0  0  0  0  0  0  0  0  0  0  0
    9.1037  -19.7495   21.8777 C   0  0  0  0  0  0  0  0  0  0  0  0
    9.2482  -19.3356   23.0644 O   0  0  0  0  0  0  0  0  0  0  0  0
   10.5653  -17.4159   21.1636 C   0  0  0  0  0  0  0  0  0  0  0  0
   11.3727  -17.9844   20.3804 O   0  0  0  0  0  0  0  0  0  0  0  0
    9.3798  -21.0825   21.6327 O   0  0  0  0  0  0  0  0  0  0  0  0
   13.2257  -15.7062   18.2471 N   0  0  0  0  0  0  0  0  0  0  0  0
   14.2034  -14.6869   17.9864 C   0  0  0  0  0  0  0  0  0  0  0  0
   14.6484  -14.6118   16.7973 N   0  0  0  0  0  0  0  0  0  0  0  0
   14.6646  -13.8004   18.9835 N   0  0  0  0  0  0  0  0  0  0  0  0
   14.1945  -13.8863   20.3478 C   0  0  0  0  0  0  0  0  0  0  0  0
   13.5348  -15.2408   20.6208 C   0  0  0  0  0  0  0  0  0  0  0  0
   13.0894  -15.3479   22.0555 C   0  0  0  0  0  0  0  0  0  0  0  0
   12.6159  -16.6969   22.4584 C   0  0  2  0  0  0  0  0  0  0  0  0
   11.1829  -16.7678   22.2710 N   0  0  0  0  0  0  0  0  0  0  0  0
   13.0376  -17.1109   23.8075 C   0  0  0  0  0  0  0  0  0  0  0  0
   14.2474  -17.4339   24.0277 O   0  0  0  0  0  0  0  0  0  0  0  0
   12.1997  -17.1835   24.9158 O   0  0  0  0  0  0  0  0  0  0  0  0
  2  3  1  0
  2  1  1  1
  3  4  1  0
  4  5  2  0
  5  6  1  0
  7  6  1  0
  8  4  1  0
  8  7  2  0
  9  2  1  0
 10  9  2  0
 11  9  1  0
 12 11  1  0
 12 13  1  6
 13 14  1  0
 14 18  1  0
 15 14  2  0
 16 27  1  0
 16 12  1  0
 17 16  2  0
 20 21  2  0
 20 19  1  0
 22 20  1  0
 23 22  1  0
 24 23  1  0
 26 25  1  1
 25 24  1  0
 26 28  1  0
 26 27  1  0
 28 30  1  0
 29 28  2  0
M  END
$$$$
