HDR.pdb
     RDKit          3D

 30 30  0  0  1  0  0  0  0  0999 V2000
    8.5540  -16.8187   19.8540 N   0  0  0  0  0  0  0  0  0  0  0  0
    9.7128  -16.1459   20.3473 C   0  0  1  0  0  0  0  0  0  0  0  0
    9.3202  -14.8824   21.0738 C   0  0  0  0  0  0  0  0  0  0  0  0
    8.5790  -14.0073   20.1298 C   0  0  0  0  0  0  0  0  0  0  0  0
    9.1548  -13.1805   19.1495 C   0  0  0  0  0  0  0  0  0  0  0  0
    8.1710  -12.5488   18.4919 N   0  0  0  0  0  0  0  0  0  0  0  0
    6.9985  -12.9289   19.0026 C   0  0  0  0  0  0  0  0  0  0  0  0
    7.2592  -13.8063   19.9876 N   0  0  0  0  0  0  0  0  0  0  0  0
   10.5146  -17.0597   21.1977 C   0  0  0  0  0  0  0  0  0  0  0  0
    9.9643  -17.7135   22.0893 O   0  0  0  0  0  0  0  0  0  0  0  0
   11.9084  -17.1940   21.0011 N   0  0  0  0  0  0  0  0  0  0  0  0
   12.7821  -17.9598   21.8410 C   0  0  1  0  0  0  0  0  0  0  0  0
   14.2145  -17.9653   21.3077 C   0  0  0  0  0  0  0  0  0  0  0  0
   15.1076  -18.8266   22.1063 C   0  0  0  0  0  0  0  0  0  0  0  0
   14.7944  -19.9867   22.5019 O   0  0  0  0  0  0  0  0  0  0  0  0
   12.7876  -17.5716   23.2486 C   0  0  0  0  0  0  0  0  0  0  0  0
   12.8878  -16.3637   23.5943 O   0  0  0  0  0  0  0  0  0  0  0  0
   16.3608  -18.3548   22.4529 O   0  0  0  0  0  0  0  0  0  0  0  0
   10.3502  -14.5291   30.5750 N   0  0  0  0  0  0  0  0  0  0  0  0
    9.9286  -14.6074   29.2042 C   0  0  0  0  0  0  0  0  0  0  0  0
   10.1656  -13.5934   28.4741 N   0  0  0  0  0  0  0  0  0  0  0  0
    9.2808  -15.7421   28.6698 N   0  0  0  0  0  0  0  0  0  0  0  0
    9.5618  -16.2134   27.3323 C   0  0  0  0  0  0  0  0  0  0  0  0
   10.9274  -16.9027   27.2648 C   0  0  0  0  0  0  0  0  0  0  0  0
   11.2151  -17.4014   25.8732 C   0  0  0  0  0  0  0  0  0  0  0  0
   12.5310  -18.0721   25.7148 C   0  0  2  0  0  0  0  0  0  0  0  0
   12.6857  -18.4847   24.3366 N   0  0  0  0  0  0  0  0  0  0  0  0
   12.7742  -19.1662   26.6705 C   0  0  0  0  0  0  0  0  0  0  0  0
   12.6914  -20.3766   26.2905 O   0  0  0  0  0  0  0  0  0  0  0  0
   13.1032  -18.9931   28.0112 O   0  0  0  0  0  0  0  0  0  0  0  0
  2  3  1  0
  2  1  1  1
  3  4  1  0
  4  5  2  0
  5  6  1  0
  7  6  1  0
  8  4  1  0
  8  7  2  0
  9  2  1  0
 10  9  2  0
 11  9  1  0
 12 11  1  0
 12 13  1  6
 13 14  1  0
 14 18  1  0
 15 14  2  0
 16 27  1  0
 16 12  1  0
 17 16  2  0
 20 21  2  0
 20 19  1  0
 22 20  1  0
 23 22  1  0
 24 23  1  0
 26 25  1  6
 25 24  1  0
 26 28  1  0
 26 27  1  0
 28 30  1  0
 29 28  2  0
M  END
$$$$
