HDR.pdb
     RDKit          3D

 30 30  0  0  1  0  0  0  0  0999 V2000
   12.6972  -17.7158   14.8878 N   0  0  0  0  0  0  0  0  0  0  0  0
   13.6951  -17.7853   15.9067 C   0  0  1  0  0  0  0  0  0  0  0  0
   14.5422  -16.5361   15.9017 C   0  0  0  0  0  0  0  0  0  0  0  0
   15.3861  -16.5442   14.6794 C   0  0  0  0  0  0  0  0  0  0  0  0
   14.9214  -16.6789   13.3595 C   0  0  0  0  0  0  0  0  0  0  0  0
   15.9744  -16.6357   12.5294 N   0  0  0  0  0  0  0  0  0  0  0  0
   17.0857  -16.4816   13.2514 C   0  0  0  0  0  0  0  0  0  0  0  0
   16.7168  -16.4285   14.5433 N   0  0  0  0  0  0  0  0  0  0  0  0
   13.0654  -18.0347   17.2267 C   0  0  0  0  0  0  0  0  0  0  0  0
   11.8829  -17.7307   17.4128 O   0  0  0  0  0  0  0  0  0  0  0  0
   13.8038  -18.6190   18.2814 N   0  0  0  0  0  0  0  0  0  0  0  0
   13.2728  -18.9303   19.5762 C   0  0  1  0  0  0  0  0  0  0  0  0
   14.0101  -20.1040   20.2203 C   0  0  0  0  0  0  0  0  0  0  0  0
   13.7191  -21.3859   19.5500 C   0  0  0  0  0  0  0  0  0  0  0  0
   12.5821  -21.6946   19.0893 O   0  0  0  0  0  0  0  0  0  0  0  0
   13.2256  -17.8112   20.5131 C   0  0  0  0  0  0  0  0  0  0  0  0
   14.2596  -17.1467   20.7919 O   0  0  0  0  0  0  0  0  0  0  0  0
   14.7340  -22.3152   19.4104 O   0  0  0  0  0  0  0  0  0  0  0  0
    8.1830  -13.4114   17.4360 N   0  0  0  0  0  0  0  0  0  0  0  0
    8.1363  -13.4422   18.8712 C   0  0  0  0  0  0  0  0  0  0  0  0
    7.4142  -12.5625   19.4390 N   0  0  0  0  0  0  0  0  0  0  0  0
    8.8477  -14.3912   19.6366 N   0  0  0  0  0  0  0  0  0  0  0  0
    8.7273  -14.4451   21.0762 C   0  0  0  0  0  0  0  0  0  0  0  0
    9.6162  -15.5444   21.6644 C   0  0  0  0  0  0  0  0  0  0  0  0
   11.0751  -15.2145   21.4887 C   0  0  0  0  0  0  0  0  0  0  0  0
   12.0105  -16.2184   22.0574 C   0  0  2  0  0  0  0  0  0  0  0  0
   12.0494  -17.3722   21.1851 N   0  0  0  0  0  0  0  0  0  0  0  0
   11.7423  -16.5716   23.4619 C   0  0  0  0  0  0  0  0  0  0  0  0
   11.9514  -15.7231   24.3853 O   0  0  0  0  0  0  0  0  0  0  0  0
   11.2573  -17.8019   23.8942 O   0  0  0  0  0  0  0  0  0  0  0  0
  2  3  1  0
  2  1  1  6
  3  4  1  0
  4  5  2  0
  5  6  1  0
  7  6  1  0
  8  4  1  0
  8  7  2  0
  9  2  1  0
 10  9  2  0
 11  9  1  0
 12 11  1  0
 12 13  1  1
 13 14  1  0
 14 18  1  0
 15 14  2  0
 16 27  1  0
 16 12  1  0
 17 16  2  0
 20 21  2  0
 20 19  1  0
 22 20  1  0
 23 22  1  0
 24 23  1  0
 26 25  1  6
 25 24  1  0
 26 28  1  0
 26 27  1  0
 28 30  1  0
 29 28  2  0
M  END
$$$$
