HDR.pdb
     RDKit          3D

 30 30  0  0  1  0  0  0  0  0999 V2000
   10.1207  -17.3462   16.6353 N   0  0  0  0  0  0  0  0  0  0  0  0
   10.7385  -16.1237   17.0385 C   0  0  1  0  0  0  0  0  0  0  0  0
    9.7003  -15.0443   17.2258 C   0  0  0  0  0  0  0  0  0  0  0  0
    9.0152  -14.8194   15.9272 C   0  0  0  0  0  0  0  0  0  0  0  0
    7.7611  -14.2083   15.7535 C   0  0  0  0  0  0  0  0  0  0  0  0
    7.4777  -14.1800   14.4427 N   0  0  0  0  0  0  0  0  0  0  0  0
    8.4849  -14.7420   13.7721 C   0  0  0  0  0  0  0  0  0  0  0  0
    9.4028  -15.1225   14.6781 N   0  0  0  0  0  0  0  0  0  0  0  0
   11.5554  -16.3386   18.2583 C   0  0  0  0  0  0  0  0  0  0  0  0
   11.3268  -17.3064   18.9906 O   0  0  0  0  0  0  0  0  0  0  0  0
   12.5984  -15.4459   18.5967 N   0  0  0  0  0  0  0  0  0  0  0  0
   13.4455  -15.5770   19.7458 C   0  0  1  0  0  0  0  0  0  0  0  0
   14.6679  -14.6644   19.6519 C   0  0  0  0  0  0  0  0  0  0  0  0
   15.5134  -14.9767   18.4836 C   0  0  0  0  0  0  0  0  0  0  0  0
   16.0911  -14.0979   17.7805 O   0  0  0  0  0  0  0  0  0  0  0  0
   12.7835  -15.3740   21.0314 C   0  0  0  0  0  0  0  0  0  0  0  0
   12.9985  -14.3423   21.7228 O   0  0  0  0  0  0  0  0  0  0  0  0
   15.6941  -16.2992   18.1208 O   0  0  0  0  0  0  0  0  0  0  0  0
    7.9579  -12.1406   19.0206 N   0  0  0  0  0  0  0  0  0  0  0  0
    7.7769  -12.8116   20.2774 C   0  0  0  0  0  0  0  0  0  0  0  0
    7.9417  -12.1135   21.3276 N   0  0  0  0  0  0  0  0  0  0  0  0
    7.4336  -14.1778   20.3694 N   0  0  0  0  0  0  0  0  0  0  0  0
    7.8270  -14.9816   21.5046 C   0  0  0  0  0  0  0  0  0  0  0  0
    9.3462  -14.9627   21.6953 C   0  0  0  0  0  0  0  0  0  0  0  0
    9.7755  -15.9677   22.7314 C   0  0  0  0  0  0  0  0  0  0  0  0
   11.2455  -16.0850   22.9096 C   0  0  2  0  0  0  0  0  0  0  0  0
   11.8613  -16.2881   21.6161 N   0  0  0  0  0  0  0  0  0  0  0  0
   11.6587  -17.0896   23.9042 C   0  0  0  0  0  0  0  0  0  0  0  0
   12.3094  -18.1193   23.5400 O   0  0  0  0  0  0  0  0  0  0  0  0
   11.3942  -17.0145   25.2681 O   0  0  0  0  0  0  0  0  0  0  0  0
  2  3  1  0
  2  1  1  1
  3  4  1  0
  4  5  2  0
  5  6  1  0
  7  6  1  0
  8  4  1  0
  8  7  2  0
  9  2  1  0
 10  9  2  0
 11  9  1  0
 12 11  1  0
 12 13  1  6
 13 14  1  0
 14 18  1  0
 15 14  2  0
 16 27  1  0
 16 12  1  0
 17 16  2  0
 20 21  2  0
 20 19  1  0
 22 20  1  0
 23 22  1  0
 24 23  1  0
 26 25  1  6
 25 24  1  0
 26 28  1  0
 26 27  1  0
 28 30  1  0
 29 28  2  0
M  END
$$$$
