YEQ.pdb
     RDKit          3D

 31 31  0  0  1  0  0  0  0  0999 V2000
    5.5312  -10.3033   27.0992 O   0  0  0  0  0  0  0  0  0  0  0  0
    6.1516  -11.4796   26.6720 C   0  0  0  0  0  0  0  0  0  0  0  0
    6.8795  -11.4383   25.5020 C   0  0  0  0  0  0  0  0  0  0  0  0
    7.5095  -12.6014   25.0535 C   0  0  0  0  0  0  0  0  0  0  0  0
    7.4244  -13.7858   25.7453 C   0  0  0  0  0  0  0  0  0  0  0  0
    8.0952  -14.9811   25.2471 C   0  0  0  0  0  0  0  0  0  0  0  0
    7.2867  -15.7610   24.2419 C   0  0  2  0  0  0  0  0  0  0  0  0
    6.2853  -16.5080   25.0043 N   0  0  0  0  0  0  0  0  0  0  0  0
    8.2091  -16.7192   23.5796 C   0  0  0  0  0  0  0  0  0  0  0  0
    8.5130  -17.7868   24.1635 O   0  0  0  0  0  0  0  0  0  0  0  0
    6.6916  -13.8002   26.9105 C   0  0  0  0  0  0  0  0  0  0  0  0
    6.0543  -12.6473   27.3753 C   0  0  0  0  0  0  0  0  0  0  0  0
    8.7600  -16.4588   22.2959 N   0  0  0  0  0  0  0  0  0  0  0  0
    9.9319  -17.2220   21.7923 C   0  0  1  0  0  0  0  0  0  0  0  0
   10.1414  -16.6682   20.4046 C   0  0  0  0  0  0  0  0  0  0  0  0
   11.3955  -17.0742   19.7253 C   0  0  0  0  0  0  0  0  0  0  0  0
   11.0889  -17.7121   18.3846 C   0  0  0  0  0  0  0  0  0  0  0  0
   11.1111  -17.0258   17.3361 O   0  0  0  0  0  0  0  0  0  0  0  0
   11.0403  -16.9478   22.6992 C   0  0  0  0  0  0  0  0  0  0  0  0
   11.4413  -15.7599   22.8684 O   0  0  0  0  0  0  0  0  0  0  0  0
   10.7793  -19.0541   18.2814 O   0  0  0  0  0  0  0  0  0  0  0  0
   11.8056  -18.5378   28.3970 N   0  0  0  0  0  0  0  0  0  0  0  0
   11.0905  -19.1599   27.3446 C   0  0  0  0  0  0  0  0  0  0  0  0
   10.1312  -19.9382   27.5954 O   0  0  0  0  0  0  0  0  0  0  0  0
   11.4425  -18.9102   25.9312 C   0  0  0  0  0  0  0  0  0  0  0  0
   12.5177  -17.9135   25.7038 C   0  0  0  0  0  0  0  0  0  0  0  0
   12.8763  -17.6940   24.2922 C   0  0  2  0  0  0  0  0  0  0  0  0
   11.7114  -17.9497   23.4256 N   0  0  0  0  0  0  0  0  0  0  0  0
   14.0392  -18.3160   23.7149 C   0  0  0  0  0  0  0  0  0  0  0  0
   14.4878  -19.5663   24.0985 O   0  0  0  0  0  0  0  0  0  0  0  0
   14.7152  -17.7357   22.8279 O   0  0  0  0  0  0  0  0  0  0  0  0
  2  1  1  0
  3  2  2  0
  4  3  1  0
  5 11  1  0
  5  4  2  0
  6  5  1  0
  7  6  1  0
  7  8  1  1
  9  7  1  0
  9 10  2  0
 11 12  2  0
 12  2  1  0
 13  9  1  0
 14 13  1  0
 14 15  1  6
 16 15  1  0
 16 17  1  0
 17 21  1  0
 17 18  2  0
 19 14  1  0
 20 19  2  0
 23 22  1  0
 23 25  1  0
 24 23  2  0
 26 25  1  0
 27 26  1  1
 27 28  1  0
 28 19  1  0
 29 27  1  0
 29 30  1  0
 31 29  2  0
M  END
$$$$
