YEQ.pdb
     RDKit          3D

 31 31  0  0  1  0  0  0  0  0999 V2000
    8.1169  -12.4350   27.2956 O   0  0  0  0  0  0  0  0  0  0  0  0
    7.7142  -13.1815   26.1858 C   0  0  0  0  0  0  0  0  0  0  0  0
    6.8558  -14.2397   26.3955 C   0  0  0  0  0  0  0  0  0  0  0  0
    6.4384  -15.0017   25.3018 C   0  0  0  0  0  0  0  0  0  0  0  0
    6.8591  -14.7266   24.0228 C   0  0  0  0  0  0  0  0  0  0  0  0
    6.4028  -15.5439   22.9043 C   0  0  0  0  0  0  0  0  0  0  0  0
    6.5269  -17.0274   23.1414 C   0  0  2  0  0  0  0  0  0  0  0  0
    6.0963  -17.2650   24.5199 N   0  0  0  0  0  0  0  0  0  0  0  0
    7.9652  -17.3773   23.0133 C   0  0  0  0  0  0  0  0  0  0  0  0
    8.5700  -17.8704   23.9953 O   0  0  0  0  0  0  0  0  0  0  0  0
    7.7159  -13.6648   23.8405 C   0  0  0  0  0  0  0  0  0  0  0  0
    8.1446  -12.8909   24.9217 C   0  0  0  0  0  0  0  0  0  0  0  0
    8.6792  -17.1681   21.8027 N   0  0  0  0  0  0  0  0  0  0  0  0
   10.0562  -17.6973   21.6202 C   0  0  1  0  0  0  0  0  0  0  0  0
   10.3692  -17.3720   20.1806 C   0  0  0  0  0  0  0  0  0  0  0  0
   11.7118  -17.7787   19.6996 C   0  0  0  0  0  0  0  0  0  0  0  0
   11.6821  -18.0419   18.2068 C   0  0  0  0  0  0  0  0  0  0  0  0
   12.5362  -17.5185   17.4537 O   0  0  0  0  0  0  0  0  0  0  0  0
   10.9110  -16.9973   22.5716 C   0  0  0  0  0  0  0  0  0  0  0  0
   10.8480  -15.7378   22.6723 O   0  0  0  0  0  0  0  0  0  0  0  0
   10.7226  -18.8576   17.6401 O   0  0  0  0  0  0  0  0  0  0  0  0
   10.4388  -17.5269   27.8768 N   0  0  0  0  0  0  0  0  0  0  0  0
   11.4537  -18.4630   27.5612 C   0  0  0  0  0  0  0  0  0  0  0  0
   11.5609  -19.5354   28.2150 O   0  0  0  0  0  0  0  0  0  0  0  0
   12.4059  -18.2132   26.4589 C   0  0  0  0  0  0  0  0  0  0  0  0
   12.1947  -16.9555   25.7009 C   0  0  0  0  0  0  0  0  0  0  0  0
   12.7434  -16.9516   24.3340 C   0  0  2  0  0  0  0  0  0  0  0  0
   11.8274  -17.6525   23.4159 N   0  0  0  0  0  0  0  0  0  0  0  0
   14.0926  -17.3807   24.0729 C   0  0  0  0  0  0  0  0  0  0  0  0
   15.1935  -16.7937   24.6690 O   0  0  0  0  0  0  0  0  0  0  0  0
   14.3340  -18.3180   23.2708 O   0  0  0  0  0  0  0  0  0  0  0  0
  2  1  1  0
  3  2  2  0
  4  3  1  0
  5 11  1  0
  5  4  2  0
  6  5  1  0
  7  6  1  0
  7  8  1  1
  9  7  1  0
  9 10  2  0
 11 12  2  0
 12  2  1  0
 13  9  1  0
 14 13  1  0
 14 15  1  6
 16 15  1  0
 16 17  1  0
 17 21  1  0
 17 18  2  0
 19 14  1  0
 20 19  2  0
 23 22  1  0
 23 25  1  0
 24 23  2  0
 26 25  1  0
 27 26  1  1
 27 28  1  0
 28 19  1  0
 29 27  1  0
 29 30  1  0
 31 29  2  0
M  END
$$$$
