YEQ.pdb
     RDKit          3D

 31 31  0  0  1  0  0  0  0  0999 V2000
    7.3651  -11.8679   17.5729 O   0  0  0  0  0  0  0  0  0  0  0  0
    7.6449  -12.6542   18.6929 C   0  0  0  0  0  0  0  0  0  0  0  0
    8.9095  -13.1916   18.8058 C   0  0  0  0  0  0  0  0  0  0  0  0
    9.2142  -13.9816   19.9167 C   0  0  0  0  0  0  0  0  0  0  0  0
    8.2894  -14.2382   20.9003 C   0  0  0  0  0  0  0  0  0  0  0  0
    8.6426  -15.0679   22.0466 C   0  0  0  0  0  0  0  0  0  0  0  0
    8.9503  -16.5003   21.6919 C   0  0  2  0  0  0  0  0  0  0  0  0
    7.6829  -17.1088   21.2851 N   0  0  0  0  0  0  0  0  0  0  0  0
    9.4365  -17.1675   22.9272 C   0  0  0  0  0  0  0  0  0  0  0  0
    8.6424  -17.3572   23.8794 O   0  0  0  0  0  0  0  0  0  0  0  0
    7.0343  -13.6898   20.7637 C   0  0  0  0  0  0  0  0  0  0  0  0
    6.7104  -12.8971   19.6599 C   0  0  0  0  0  0  0  0  0  0  0  0
   10.7836  -17.5994   23.0614 N   0  0  0  0  0  0  0  0  0  0  0  0
   11.2651  -18.2403   24.3132 C   0  0  1  0  0  0  0  0  0  0  0  0
   12.5660  -18.8834   23.9002 C   0  0  0  0  0  0  0  0  0  0  0  0
   13.3950  -19.4363   24.9985 C   0  0  0  0  0  0  0  0  0  0  0  0
   14.6707  -20.0412   24.4459 C   0  0  0  0  0  0  0  0  0  0  0  0
   15.0778  -21.1512   24.8616 O   0  0  0  0  0  0  0  0  0  0  0  0
   11.4308  -17.1785   25.2987 C   0  0  0  0  0  0  0  0  0  0  0  0
   11.9818  -16.0885   24.9689 O   0  0  0  0  0  0  0  0  0  0  0  0
   15.4130  -19.3927   23.4785 O   0  0  0  0  0  0  0  0  0  0  0  0
    7.8201  -13.7185   25.3904 N   0  0  0  0  0  0  0  0  0  0  0  0
    8.3622  -13.8715   26.6900 C   0  0  0  0  0  0  0  0  0  0  0  0
    8.2550  -12.9475   27.5408 O   0  0  0  0  0  0  0  0  0  0  0  0
    9.0587  -15.1137   27.0846 C   0  0  0  0  0  0  0  0  0  0  0  0
   10.5285  -14.9999   27.2523 C   0  0  0  0  0  0  0  0  0  0  0  0
   11.2085  -16.2436   27.6528 C   0  0  2  0  0  0  0  0  0  0  0  0
   10.9995  -17.2885   26.6343 N   0  0  0  0  0  0  0  0  0  0  0  0
   11.0090  -16.8125   28.9602 C   0  0  0  0  0  0  0  0  0  0  0  0
   11.1904  -16.0916   30.1260 O   0  0  0  0  0  0  0  0  0  0  0  0
   10.6642  -18.0130   29.1021 O   0  0  0  0  0  0  0  0  0  0  0  0
  2  1  1  0
  3  2  2  0
  4  3  1  0
  5 11  1  0
  5  4  2  0
  6  5  1  0
  7  6  1  0
  7  8  1  1
  9  7  1  0
  9 10  2  0
 11 12  2  0
 12  2  1  0
 13  9  1  0
 14 13  1  0
 14 15  1  6
 16 15  1  0
 16 17  1  0
 17 21  1  0
 17 18  2  0
 19 14  1  0
 20 19  2  0
 23 22  1  0
 23 25  1  0
 24 23  2  0
 26 25  1  0
 27 26  1  6
 27 28  1  0
 28 19  1  0
 29 27  1  0
 29 30  1  0
 31 29  2  0
M  END
$$$$
