YEQ.pdb
     RDKit          3D

 31 31  0  0  1  0  0  0  0  0999 V2000
    5.7499  -10.7394   27.8527 O   0  0  0  0  0  0  0  0  0  0  0  0
    6.3510  -11.7134   27.0521 C   0  0  0  0  0  0  0  0  0  0  0  0
    7.0425  -12.7284   27.6785 C   0  0  0  0  0  0  0  0  0  0  0  0
    7.6525  -13.7146   26.9000 C   0  0  0  0  0  0  0  0  0  0  0  0
    7.5830  -13.7022   25.5276 C   0  0  0  0  0  0  0  0  0  0  0  0
    8.2325  -14.7487   24.7464 C   0  0  0  0  0  0  0  0  0  0  0  0
    7.2704  -15.6829   24.0580 C   0  0  2  0  0  0  0  0  0  0  0  0
    6.6097  -16.4509   25.1142 N   0  0  0  0  0  0  0  0  0  0  0  0
    8.0752  -16.6052   23.2159 C   0  0  0  0  0  0  0  0  0  0  0  0
    8.5579  -17.6441   23.7266 O   0  0  0  0  0  0  0  0  0  0  0  0
    6.8866  -12.6780   24.9269 C   0  0  0  0  0  0  0  0  0  0  0  0
    6.2697  -11.6824   25.6883 C   0  0  0  0  0  0  0  0  0  0  0  0
    8.3150  -16.3422   21.8402 N   0  0  0  0  0  0  0  0  0  0  0  0
    9.4167  -17.0200   21.1078 C   0  0  1  0  0  0  0  0  0  0  0  0
    9.1733  -16.6319   19.6703 C   0  0  0  0  0  0  0  0  0  0  0  0
    8.1484  -17.4239   18.9480 C   0  0  0  0  0  0  0  0  0  0  0  0
    8.0427  -16.9644   17.5071 C   0  0  0  0  0  0  0  0  0  0  0  0
    8.4542  -17.6961   16.5766 O   0  0  0  0  0  0  0  0  0  0  0  0
   10.6684  -16.4993   21.6447 C   0  0  0  0  0  0  0  0  0  0  0  0
   10.7330  -15.3045   22.0556 O   0  0  0  0  0  0  0  0  0  0  0  0
    7.4954  -15.7388   17.1821 O   0  0  0  0  0  0  0  0  0  0  0  0
   10.5702  -19.2324   26.3855 N   0  0  0  0  0  0  0  0  0  0  0  0
   11.6097  -18.2850   26.5525 C   0  0  0  0  0  0  0  0  0  0  0  0
   11.8302  -17.7693   27.6814 O   0  0  0  0  0  0  0  0  0  0  0  0
   12.4641  -17.8818   25.4161 C   0  0  0  0  0  0  0  0  0  0  0  0
   11.7674  -17.7140   24.1170 C   0  0  0  0  0  0  0  0  0  0  0  0
   12.6424  -17.3894   22.9775 C   0  0  2  0  0  0  0  0  0  0  0  0
   11.8457  -17.2649   21.7434 N   0  0  0  0  0  0  0  0  0  0  0  0
   13.8223  -18.1665   22.7008 C   0  0  0  0  0  0  0  0  0  0  0  0
   13.7953  -19.3273   21.9501 O   0  0  0  0  0  0  0  0  0  0  0  0
   14.9471  -17.8229   23.1449 O   0  0  0  0  0  0  0  0  0  0  0  0
  2  1  1  0
  3  2  2  0
  4  3  1  0
  5 11  1  0
  5  4  2  0
  6  5  1  0
  7  6  1  0
  7  8  1  1
  9  7  1  0
  9 10  2  0
 11 12  2  0
 12  2  1  0
 13  9  1  0
 14 13  1  0
 14 15  1  6
 16 15  1  0
 16 17  1  0
 17 21  1  0
 17 18  2  0
 19 14  1  0
 20 19  2  0
 23 22  1  0
 23 25  1  0
 24 23  2  0
 26 25  1  0
 27 26  1  1
 27 28  1  0
 28 19  1  0
 29 27  1  0
 29 30  1  0
 31 29  2  0
M  END
$$$$
