YEQ.pdb
     RDKit          3D

 31 31  0  0  1  0  0  0  0  0999 V2000
    7.7254  -12.1898   17.1670 O   0  0  0  0  0  0  0  0  0  0  0  0
    7.5535  -12.7038   18.4544 C   0  0  0  0  0  0  0  0  0  0  0  0
    6.8113  -13.8569   18.5962 C   0  0  0  0  0  0  0  0  0  0  0  0
    6.6248  -14.3909   19.8733 C   0  0  0  0  0  0  0  0  0  0  0  0
    7.1602  -13.7997   20.9924 C   0  0  0  0  0  0  0  0  0  0  0  0
    6.9448  -14.3852   22.3107 C   0  0  0  0  0  0  0  0  0  0  0  0
    8.1483  -15.1058   22.8627 C   0  0  2  0  0  0  0  0  0  0  0  0
    8.5937  -16.0301   21.8191 N   0  0  0  0  0  0  0  0  0  0  0  0
    7.6942  -15.8859   24.0429 C   0  0  0  0  0  0  0  0  0  0  0  0
    7.1932  -15.2857   25.0236 O   0  0  0  0  0  0  0  0  0  0  0  0
    7.8970  -12.6494   20.8235 C   0  0  0  0  0  0  0  0  0  0  0  0
    8.0947  -12.0999   19.5544 C   0  0  0  0  0  0  0  0  0  0  0  0
    7.8120  -17.3011   24.0922 N   0  0  0  0  0  0  0  0  0  0  0  0
    7.7921  -18.0302   25.3874 C   0  0  1  0  0  0  0  0  0  0  0  0
    7.3081  -19.4077   25.0073 C   0  0  0  0  0  0  0  0  0  0  0  0
    7.2122  -20.3910   26.1133 C   0  0  0  0  0  0  0  0  0  0  0  0
    6.7266  -21.7291   25.5915 C   0  0  0  0  0  0  0  0  0  0  0  0
    6.5210  -21.8950   24.3664 O   0  0  0  0  0  0  0  0  0  0  0  0
    9.1555  -18.0171   25.9044 C   0  0  0  0  0  0  0  0  0  0  0  0
   10.0796  -17.4649   25.2400 O   0  0  0  0  0  0  0  0  0  0  0  0
    6.4994  -22.7926   26.4428 O   0  0  0  0  0  0  0  0  0  0  0  0
    9.9277  -12.9618   27.5292 N   0  0  0  0  0  0  0  0  0  0  0  0
   10.1032  -14.0687   28.3951 C   0  0  0  0  0  0  0  0  0  0  0  0
    9.9615  -13.9357   29.6405 O   0  0  0  0  0  0  0  0  0  0  0  0
   10.4490  -15.4043   27.8653 C   0  0  0  0  0  0  0  0  0  0  0  0
    9.6441  -16.5328   28.3942 C   0  0  0  0  0  0  0  0  0  0  0  0
   10.2377  -17.8669   28.2004 C   0  0  2  0  0  0  0  0  0  0  0  0
    9.5213  -18.5927   27.1360 N   0  0  0  0  0  0  0  0  0  0  0  0
   10.4531  -18.7539   29.3137 C   0  0  0  0  0  0  0  0  0  0  0  0
    9.4772  -19.6109   29.7879 O   0  0  0  0  0  0  0  0  0  0  0  0
   11.5540  -18.7823   29.9199 O   0  0  0  0  0  0  0  0  0  0  0  0
  2  1  1  0
  3  2  2  0
  4  3  1  0
  5 11  1  0
  5  4  2  0
  6  5  1  0
  7  6  1  0
  7  8  1  6
  9  7  1  0
  9 10  2  0
 11 12  2  0
 12  2  1  0
 13  9  1  0
 14 13  1  0
 14 15  1  6
 16 15  1  0
 16 17  1  0
 17 21  1  0
 17 18  2  0
 19 14  1  0
 20 19  2  0
 23 22  1  0
 23 25  1  0
 24 23  2  0
 26 25  1  0
 27 26  1  1
 27 28  1  0
 28 19  1  0
 29 27  1  0
 29 30  1  0
 31 29  2  0
M  END
$$$$
