YEQ.pdb
     RDKit          3D

 31 31  0  0  1  0  0  0  0  0999 V2000
    5.2470  -10.3240   26.0329 O   0  0  0  0  0  0  0  0  0  0  0  0
    6.0248  -11.4681   25.8403 C   0  0  0  0  0  0  0  0  0  0  0  0
    5.7412  -12.5789   26.6061 C   0  0  0  0  0  0  0  0  0  0  0  0
    6.5046  -13.7355   26.4323 C   0  0  0  0  0  0  0  0  0  0  0  0
    7.5304  -13.7978   25.5199 C   0  0  0  0  0  0  0  0  0  0  0  0
    8.3070  -15.0226   25.3654 C   0  0  0  0  0  0  0  0  0  0  0  0
    7.6520  -16.0536   24.4819 C   0  0  2  0  0  0  0  0  0  0  0  0
    6.6938  -16.7725   25.3228 N   0  0  0  0  0  0  0  0  0  0  0  0
    8.7128  -16.9946   24.0385 C   0  0  0  0  0  0  0  0  0  0  0  0
    8.6669  -18.1933   24.4051 O   0  0  0  0  0  0  0  0  0  0  0  0
    7.7930  -12.6752   24.7680 C   0  0  0  0  0  0  0  0  0  0  0  0
    7.0406  -11.5089   24.9272 C   0  0  0  0  0  0  0  0  0  0  0  0
    9.7843  -16.5728   23.2059 N   0  0  0  0  0  0  0  0  0  0  0  0
   10.7526  -17.5503   22.6435 C   0  0  1  0  0  0  0  0  0  0  0  0
   11.0347  -17.0104   21.2632 C   0  0  0  0  0  0  0  0  0  0  0  0
   12.0401  -17.7551   20.4671 C   0  0  0  0  0  0  0  0  0  0  0  0
   11.8057  -17.5410   18.9846 C   0  0  0  0  0  0  0  0  0  0  0  0
   11.6015  -18.5186   18.2274 O   0  0  0  0  0  0  0  0  0  0  0  0
   11.9196  -17.5448   23.5177 C   0  0  0  0  0  0  0  0  0  0  0  0
   12.7960  -18.4508   23.4101 O   0  0  0  0  0  0  0  0  0  0  0  0
   11.8105  -16.2754   18.4319 O   0  0  0  0  0  0  0  0  0  0  0  0
   10.5719  -14.6594   28.6455 N   0  0  0  0  0  0  0  0  0  0  0  0
   10.9042  -15.9677   29.0744 C   0  0  0  0  0  0  0  0  0  0  0  0
   11.0123  -16.2302   30.3026 O   0  0  0  0  0  0  0  0  0  0  0  0
   11.1257  -17.0567   28.1003 C   0  0  0  0  0  0  0  0  0  0  0  0
   11.0852  -16.6582   26.6718 C   0  0  0  0  0  0  0  0  0  0  0  0
   12.3416  -16.8641   25.9310 C   0  0  2  0  0  0  0  0  0  0  0  0
   12.1446  -16.5632   24.5014 N   0  0  0  0  0  0  0  0  0  0  0  0
   13.0868  -18.0894   26.0568 C   0  0  0  0  0  0  0  0  0  0  0  0
   12.6063  -19.3071   25.6117 O   0  0  0  0  0  0  0  0  0  0  0  0
   14.2230  -18.1081   26.5945 O   0  0  0  0  0  0  0  0  0  0  0  0
  2  1  1  0
  3  2  2  0
  4  3  1  0
  5 11  1  0
  5  4  2  0
  6  5  1  0
  7  6  1  0
  7  8  1  1
  9  7  1  0
  9 10  2  0
 11 12  2  0
 12  2  1  0
 13  9  1  0
 14 13  1  0
 14 15  1  6
 16 15  1  0
 16 17  1  0
 17 21  1  0
 17 18  2  0
 19 14  1  0
 20 19  2  0
 23 22  1  0
 23 25  1  0
 24 23  2  0
 26 25  1  0
 27 26  1  1
 27 28  1  0
 28 19  1  0
 29 27  1  0
 29 30  1  0
 31 29  2  0
M  END
$$$$
