YEQ.pdb
     RDKit          3D

 31 31  0  0  1  0  0  0  0  0999 V2000
    9.1797  -11.8406   20.5068 O   0  0  0  0  0  0  0  0  0  0  0  0
    8.3484  -12.9628   20.5278 C   0  0  0  0  0  0  0  0  0  0  0  0
    7.9590  -13.4560   21.7550 C   0  0  0  0  0  0  0  0  0  0  0  0
    7.1278  -14.5773   21.8027 C   0  0  0  0  0  0  0  0  0  0  0  0
    6.6869  -15.2031   20.6614 C   0  0  0  0  0  0  0  0  0  0  0  0
    5.8196  -16.3723   20.7491 C   0  0  0  0  0  0  0  0  0  0  0  0
    6.4302  -17.6294   20.1842 C   0  0  2  0  0  0  0  0  0  0  0  0
    5.4043  -18.6687   20.2801 N   0  0  0  0  0  0  0  0  0  0  0  0
    7.5767  -17.9949   21.0557 C   0  0  0  0  0  0  0  0  0  0  0  0
    7.3593  -18.5292   22.1694 O   0  0  0  0  0  0  0  0  0  0  0  0
    7.0900  -14.6909   19.4490 C   0  0  0  0  0  0  0  0  0  0  0  0
    7.9212  -13.5702   19.3806 C   0  0  0  0  0  0  0  0  0  0  0  0
    8.9205  -17.7549   20.6609 N   0  0  0  0  0  0  0  0  0  0  0  0
   10.0605  -18.1695   21.5199 C   0  0  1  0  0  0  0  0  0  0  0  0
   11.2704  -17.8337   20.6834 C   0  0  0  0  0  0  0  0  0  0  0  0
   12.5871  -18.1454   21.2905 C   0  0  0  0  0  0  0  0  0  0  0  0
   13.7013  -17.9046   20.2910 C   0  0  0  0  0  0  0  0  0  0  0  0
   14.8910  -18.1552   20.5953 O   0  0  0  0  0  0  0  0  0  0  0  0
    9.9721  -17.3911   22.7497 C   0  0  0  0  0  0  0  0  0  0  0  0
   10.3349  -16.1792   22.7599 O   0  0  0  0  0  0  0  0  0  0  0  0
   13.4397  -17.4071   19.0295 O   0  0  0  0  0  0  0  0  0  0  0  0
    7.9455  -14.6748   25.6014 N   0  0  0  0  0  0  0  0  0  0  0  0
    6.9690  -15.6177   25.1973 C   0  0  0  0  0  0  0  0  0  0  0  0
    5.9139  -15.2390   24.6207 O   0  0  0  0  0  0  0  0  0  0  0  0
    7.1613  -17.0639   25.4331 C   0  0  0  0  0  0  0  0  0  0  0  0
    8.4373  -17.4433   26.0881 C   0  0  0  0  0  0  0  0  0  0  0  0
    9.6435  -17.2430   25.2668 C   0  0  2  0  0  0  0  0  0  0  0  0
    9.4894  -17.9152   23.9639 N   0  0  0  0  0  0  0  0  0  0  0  0
   10.9548  -17.5239   25.7904 C   0  0  0  0  0  0  0  0  0  0  0  0
   11.4853  -18.7999   25.8358 O   0  0  0  0  0  0  0  0  0  0  0  0
   11.6843  -16.6069   26.2456 O   0  0  0  0  0  0  0  0  0  0  0  0
  2  1  1  0
  3  2  2  0
  4  3  1  0
  5 11  1  0
  5  4  2  0
  6  5  1  0
  7  6  1  0
  7  8  1  1
  9  7  1  0
  9 10  2  0
 11 12  2  0
 12  2  1  0
 13  9  1  0
 14 13  1  0
 14 15  1  6
 16 15  1  0
 16 17  1  0
 17 21  1  0
 17 18  2  0
 19 14  1  0
 20 19  2  0
 23 22  1  0
 23 25  1  0
 24 23  2  0
 26 25  1  0
 27 26  1  1
 27 28  1  0
 28 19  1  0
 29 27  1  0
 29 30  1  0
 31 29  2  0
M  END
$$$$
