YEQ.pdb
     RDKit          3D

 31 31  0  0  1  0  0  0  0  0999 V2000
    6.6138  -11.9120   17.9222 O   0  0  0  0  0  0  0  0  0  0  0  0
    7.2961  -12.7676   18.7902 C   0  0  0  0  0  0  0  0  0  0  0  0
    6.5528  -13.6512   19.5436 C   0  0  0  0  0  0  0  0  0  0  0  0
    7.2116  -14.5174   20.4191 C   0  0  0  0  0  0  0  0  0  0  0  0
    8.5796  -14.5140   20.5509 C   0  0  0  0  0  0  0  0  0  0  0  0
    9.2339  -15.4328   21.4754 C   0  0  0  0  0  0  0  0  0  0  0  0
    9.7733  -16.6781   20.8194 C   0  0  2  0  0  0  0  0  0  0  0  0
    8.6119  -17.4467   20.3694 N   0  0  0  0  0  0  0  0  0  0  0  0
   10.4944  -17.4514   21.8632 C   0  0  0  0  0  0  0  0  0  0  0  0
    9.8742  -18.3123   22.5321 O   0  0  0  0  0  0  0  0  0  0  0  0
    9.2983  -13.6222   19.7875 C   0  0  0  0  0  0  0  0  0  0  0  0
    8.6576  -12.7479   18.9061 C   0  0  0  0  0  0  0  0  0  0  0  0
   11.8750  -17.2422   22.1267 N   0  0  0  0  0  0  0  0  0  0  0  0
   12.5921  -18.0423   23.1539 C   0  0  1  0  0  0  0  0  0  0  0  0
   14.0419  -17.6983   22.9174 C   0  0  0  0  0  0  0  0  0  0  0  0
   15.0244  -18.3929   23.7844 C   0  0  0  0  0  0  0  0  0  0  0  0
   15.5738  -19.6202   23.0842 C   0  0  0  0  0  0  0  0  0  0  0  0
   16.3175  -19.4990   22.0827 O   0  0  0  0  0  0  0  0  0  0  0  0
   12.0978  -17.6065   24.4546 C   0  0  0  0  0  0  0  0  0  0  0  0
   12.3924  -16.4563   24.8914 O   0  0  0  0  0  0  0  0  0  0  0  0
   15.2735  -20.8939   23.5255 O   0  0  0  0  0  0  0  0  0  0  0  0
    6.4715  -17.1796   25.5238 N   0  0  0  0  0  0  0  0  0  0  0  0
    7.2928  -16.1052   25.9448 C   0  0  0  0  0  0  0  0  0  0  0  0
    6.8428  -14.9280   25.9714 O   0  0  0  0  0  0  0  0  0  0  0  0
    8.6901  -16.3338   26.3684 C   0  0  0  0  0  0  0  0  0  0  0  0
    9.1762  -17.7306   26.2509 C   0  0  0  0  0  0  0  0  0  0  0  0
   10.6167  -17.9125   26.4987 C   0  0  2  0  0  0  0  0  0  0  0  0
   11.2842  -18.4055   25.2803 N   0  0  0  0  0  0  0  0  0  0  0  0
   11.0871  -18.6655   27.6319 C   0  0  0  0  0  0  0  0  0  0  0  0
   11.8868  -19.7863   27.5062 O   0  0  0  0  0  0  0  0  0  0  0  0
   10.7787  -18.3368   28.8054 O   0  0  0  0  0  0  0  0  0  0  0  0
  2  1  1  0
  3  2  2  0
  4  3  1  0
  5 11  1  0
  5  4  2  0
  6  5  1  0
  7  6  1  0
  7  8  1  1
  9  7  1  0
  9 10  2  0
 11 12  2  0
 12  2  1  0
 13  9  1  0
 14 13  1  0
 14 15  1  1
 16 15  1  0
 16 17  1  0
 17 21  1  0
 17 18  2  0
 19 14  1  0
 20 19  2  0
 23 22  1  0
 23 25  1  0
 24 23  2  0
 26 25  1  0
 27 26  1  6
 27 28  1  0
 28 19  1  0
 29 27  1  0
 29 30  1  0
 31 29  2  0
M  END
$$$$
