YNQ.pdb
     RDKit          3D

 30 30  0  0  1  0  0  0  0  0999 V2000
   10.4365  -13.6426   30.2467 O   0  0  0  0  0  0  0  0  0  0  0  0
    9.9429  -14.2279   29.0988 C   0  0  0  0  0  0  0  0  0  0  0  0
    8.7936  -13.7541   28.5020 C   0  0  0  0  0  0  0  0  0  0  0  0
    8.3198  -14.3571   27.3536 C   0  0  0  0  0  0  0  0  0  0  0  0
    9.0151  -15.4332   26.8223 C   0  0  0  0  0  0  0  0  0  0  0  0
    8.4836  -16.0512   25.6000 C   0  0  0  0  0  0  0  0  0  0  0  0
    7.3570  -17.0145   25.9091 C   0  0  2  0  0  0  0  0  0  0  0  0
    7.8789  -18.0031   26.8221 N   0  0  0  0  0  0  0  0  0  0  0  0
    6.9443  -17.6580   24.6571 C   0  0  0  0  0  0  0  0  0  0  0  0
    7.4122  -18.7831   24.3428 O   0  0  0  0  0  0  0  0  0  0  0  0
   10.1651  -15.9122   27.4137 C   0  0  0  0  0  0  0  0  0  0  0  0
   10.6341  -15.3009   28.5669 C   0  0  0  0  0  0  0  0  0  0  0  0
    3.2874  -17.4527   19.8025 N   0  0  0  0  0  0  0  0  0  0  0  0
    3.7281  -18.1514   20.9528 C   0  0  0  0  0  0  0  0  0  0  0  0
    3.6904  -19.4128   20.9191 O   0  0  0  0  0  0  0  0  0  0  0  0
    4.1990  -17.3754   22.1073 C   0  0  0  0  0  0  0  0  0  0  0  0
    5.5834  -17.7428   22.5497 C   0  0  2  0  0  0  0  0  0  0  0  0
    6.0256  -17.0941   23.7361 N   0  0  0  0  0  0  0  0  0  0  0  0
    6.5870  -17.4979   21.4820 C   0  0  0  0  0  0  0  0  0  0  0  0
    6.6029  -18.1528   20.4078 O   0  0  0  0  0  0  0  0  0  0  0  0
    8.3395  -12.2990   19.1819 N   0  0  0  0  0  0  0  0  0  0  0  0
    7.7203  -13.3102   18.4145 C   0  0  0  0  0  0  0  0  0  0  0  0
    7.1111  -13.0400   17.3701 O   0  0  0  0  0  0  0  0  0  0  0  0
    7.8033  -14.7173   18.8707 C   0  0  0  0  0  0  0  0  0  0  0  0
    8.5731  -14.8154   20.1561 C   0  0  0  0  0  0  0  0  0  0  0  0
    8.5940  -16.2570   20.6026 C   0  0  2  0  0  0  0  0  0  0  0  0
    7.6107  -16.4901   21.6096 N   0  0  0  0  0  0  0  0  0  0  0  0
    9.9701  -16.5841   21.0382 C   0  0  0  0  0  0  0  0  0  0  0  0
   10.2787  -16.9438   22.1910 O   0  0  0  0  0  0  0  0  0  0  0  0
   10.9797  -16.4807   20.0927 O   0  0  0  0  0  0  0  0  0  0  0  0
  2  1  1  0
  3  2  2  0
  4  3  1  0
  5  4  2  0
  5 11  1  0
  6  5  1  0
  7  9  1  0
  7  6  1  0
  7  8  1  1
  9 10  2  0
 11 12  2  0
 12  2  1  0
 13 14  1  0
 14 16  1  0
 14 15  2  0
 17 16  1  6
 18 17  1  0
 18  9  1  0
 19 17  1  0
 19 20  2  0
 21 22  1  0
 22 24  1  0
 22 23  2  0
 24 25  1  0
 26 25  1  1
 26 27  1  0
 26 28  1  0
 27 19  1  0
 28 29  2  0
 28 30  1  0
M  END
$$$$
