YNQ.pdb
     RDKit          3D

 30 30  0  0  1  0  0  0  0  0999 V2000
    9.0282  -11.8968   17.9985 O   0  0  0  0  0  0  0  0  0  0  0  0
    8.3958  -12.6590   18.9593 C   0  0  0  0  0  0  0  0  0  0  0  0
    8.4147  -12.2820   20.2856 C   0  0  0  0  0  0  0  0  0  0  0  0
    7.7743  -13.0618   21.2283 C   0  0  0  0  0  0  0  0  0  0  0  0
    7.1219  -14.2148   20.8174 C   0  0  0  0  0  0  0  0  0  0  0  0
    6.4509  -15.0211   21.8460 C   0  0  0  0  0  0  0  0  0  0  0  0
    7.3547  -16.1173   22.3699 C   0  0  2  0  0  0  0  0  0  0  0  0
    7.8008  -16.8837   21.2311 N   0  0  0  0  0  0  0  0  0  0  0  0
    6.5709  -16.9695   23.2707 C   0  0  0  0  0  0  0  0  0  0  0  0
    5.8150  -17.8579   22.7987 O   0  0  0  0  0  0  0  0  0  0  0  0
    7.0989  -14.5979   19.4929 C   0  0  0  0  0  0  0  0  0  0  0  0
    7.7446  -13.8090   18.5525 C   0  0  0  0  0  0  0  0  0  0  0  0
    7.6769  -21.6254   25.4278 N   0  0  0  0  0  0  0  0  0  0  0  0
    7.1378  -20.3834   25.8428 C   0  0  0  0  0  0  0  0  0  0  0  0
    6.6726  -20.3115   27.0141 O   0  0  0  0  0  0  0  0  0  0  0  0
    7.1511  -19.2613   24.8953 C   0  0  0  0  0  0  0  0  0  0  0  0
    7.0016  -17.9224   25.5526 C   0  0  2  0  0  0  0  0  0  0  0  0
    6.5964  -16.8704   24.6848 N   0  0  0  0  0  0  0  0  0  0  0  0
    8.2491  -17.5041   26.2425 C   0  0  0  0  0  0  0  0  0  0  0  0
    8.2479  -16.7006   27.2107 O   0  0  0  0  0  0  0  0  0  0  0  0
   10.0784  -20.0231   30.3629 N   0  0  0  0  0  0  0  0  0  0  0  0
   11.2276  -19.2101   30.2475 C   0  0  0  0  0  0  0  0  0  0  0  0
   12.0266  -19.0926   31.1871 O   0  0  0  0  0  0  0  0  0  0  0  0
   11.4777  -18.4871   28.9788 C   0  0  0  0  0  0  0  0  0  0  0  0
   10.3468  -18.6988   28.0140 C   0  0  0  0  0  0  0  0  0  0  0  0
   10.6726  -17.9942   26.7195 C   0  0  2  0  0  0  0  0  0  0  0  0
    9.5457  -17.9944   25.8447 N   0  0  0  0  0  0  0  0  0  0  0  0
   11.8706  -18.6369   26.1346 C   0  0  0  0  0  0  0  0  0  0  0  0
   11.8891  -19.7838   25.6469 O   0  0  0  0  0  0  0  0  0  0  0  0
   13.0495  -17.9060   26.1329 O   0  0  0  0  0  0  0  0  0  0  0  0
  2  1  1  0
  3  2  2  0
  4  3  1  0
  5  4  2  0
  5 11  1  0
  6  5  1  0
  7  9  1  0
  7  6  1  0
  7  8  1  6
  9 10  2  0
 11 12  2  0
 12  2  1  0
 13 14  1  0
 14 16  1  0
 14 15  2  0
 17 16  1  6
 18 17  1  0
 18  9  1  0
 19 17  1  0
 19 20  2  0
 21 22  1  0
 22 24  1  0
 22 23  2  0
 24 25  1  0
 26 25  1  1
 26 27  1  0
 26 28  1  0
 27 19  1  0
 28 29  2  0
 28 30  1  0
M  END
$$$$
