YNQ.pdb
     RDKit          3D

 30 30  0  0  1  0  0  0  0  0999 V2000
    8.6989  -11.9791   16.7961 O   0  0  0  0  0  0  0  0  0  0  0  0
    8.2936  -12.5444   17.9878 C   0  0  0  0  0  0  0  0  0  0  0  0
    9.0273  -12.3633   19.1414 C   0  0  0  0  0  0  0  0  0  0  0  0
    8.6006  -12.9394   20.3216 C   0  0  0  0  0  0  0  0  0  0  0  0
    7.4359  -13.6926   20.3206 C   0  0  0  0  0  0  0  0  0  0  0  0
    7.0107  -14.2913   21.5931 C   0  0  0  0  0  0  0  0  0  0  0  0
    8.0493  -15.2543   22.1285 C   0  0  2  0  0  0  0  0  0  0  0  0
    8.3654  -16.1767   21.0643 N   0  0  0  0  0  0  0  0  0  0  0  0
    7.4646  -15.9793   23.2620 C   0  0  0  0  0  0  0  0  0  0  0  0
    6.9708  -15.3438   24.2292 O   0  0  0  0  0  0  0  0  0  0  0  0
    6.6974  -13.8779   19.1709 C   0  0  0  0  0  0  0  0  0  0  0  0
    7.1328  -13.2958   17.9897 C   0  0  0  0  0  0  0  0  0  0  0  0
    4.8006  -18.1489   22.8881 N   0  0  0  0  0  0  0  0  0  0  0  0
    5.2396  -19.4055   23.3714 C   0  0  0  0  0  0  0  0  0  0  0  0
    4.6050  -20.4297   22.9944 O   0  0  0  0  0  0  0  0  0  0  0  0
    6.3968  -19.4442   24.2749 C   0  0  0  0  0  0  0  0  0  0  0  0
    7.0025  -18.0966   24.5283 C   0  0  2  0  0  0  0  0  0  0  0  0
    7.4082  -17.3926   23.3606 N   0  0  0  0  0  0  0  0  0  0  0  0
    8.1639  -18.1784   25.4512 C   0  0  0  0  0  0  0  0  0  0  0  0
    9.1585  -18.9137   25.2207 O   0  0  0  0  0  0  0  0  0  0  0  0
   11.9361  -14.9431   30.9076 N   0  0  0  0  0  0  0  0  0  0  0  0
   10.7793  -15.1000   30.1124 C   0  0  0  0  0  0  0  0  0  0  0  0
    9.9084  -14.2200   30.0670 O   0  0  0  0  0  0  0  0  0  0  0  0
   10.6088  -16.3405   29.3206 C   0  0  0  0  0  0  0  0  0  0  0  0
    9.4263  -16.2272   28.4023 C   0  0  0  0  0  0  0  0  0  0  0  0
    9.3341  -17.4828   27.5697 C   0  0  2  0  0  0  0  0  0  0  0  0
    8.2250  -17.4173   26.6746 N   0  0  0  0  0  0  0  0  0  0  0  0
    9.2797  -18.6415   28.4887 C   0  0  0  0  0  0  0  0  0  0  0  0
    8.2323  -19.1000   28.9852 O   0  0  0  0  0  0  0  0  0  0  0  0
   10.4810  -19.2536   28.8148 O   0  0  0  0  0  0  0  0  0  0  0  0
  2  1  1  0
  3  2  2  0
  4  3  1  0
  5  4  2  0
  5 11  1  0
  6  5  1  0
  7  9  1  0
  7  6  1  0
  7  8  1  6
  9 10  2  0
 11 12  2  0
 12  2  1  0
 13 14  1  0
 14 16  1  0
 14 15  2  0
 17 16  1  6
 18 17  1  0
 18  9  1  0
 19 17  1  0
 19 20  2  0
 21 22  1  0
 22 24  1  0
 22 23  2  0
 24 25  1  0
 26 25  1  1
 26 27  1  0
 26 28  1  0
 27 19  1  0
 28 29  2  0
 28 30  1  0
M  END
$$$$
