YNQ.pdb
     RDKit          3D

 30 30  0  0  1  0  0  0  0  0999 V2000
    7.2707  -11.6214   28.6468 O   0  0  0  0  0  0  0  0  0  0  0  0
    7.1104  -12.2602   27.4343 C   0  0  0  0  0  0  0  0  0  0  0  0
    8.2045  -12.6372   26.6842 C   0  0  0  0  0  0  0  0  0  0  0  0
    8.0178  -13.2753   25.4739 C   0  0  0  0  0  0  0  0  0  0  0  0
    6.7253  -13.5245   25.0365 C   0  0  0  0  0  0  0  0  0  0  0  0
    6.5626  -14.2050   23.7446 C   0  0  0  0  0  0  0  0  0  0  0  0
    6.8814  -15.6815   23.8505 C   0  0  2  0  0  0  0  0  0  0  0  0
    8.2460  -15.7922   24.3075 N   0  0  0  0  0  0  0  0  0  0  0  0
    6.7504  -16.2780   22.5166 C   0  0  0  0  0  0  0  0  0  0  0  0
    5.6124  -16.4194   21.9986 O   0  0  0  0  0  0  0  0  0  0  0  0
    5.6267  -13.1502   25.7813 C   0  0  0  0  0  0  0  0  0  0  0  0
    5.8230  -12.5098   26.9958 C   0  0  0  0  0  0  0  0  0  0  0  0
    8.8013  -12.6361   19.3797 N   0  0  0  0  0  0  0  0  0  0  0  0
    8.3214  -13.9598   19.2289 C   0  0  0  0  0  0  0  0  0  0  0  0
    8.3850  -14.4758   18.0784 O   0  0  0  0  0  0  0  0  0  0  0  0
    7.7826  -14.6493   20.4084 C   0  0  0  0  0  0  0  0  0  0  0  0
    8.4125  -15.9864   20.6586 C   0  0  2  0  0  0  0  0  0  0  0  0
    7.8437  -16.7256   21.7328 N   0  0  0  0  0  0  0  0  0  0  0  0
    9.8750  -15.8719   20.8937 C   0  0  0  0  0  0  0  0  0  0  0  0
   10.6467  -15.3009   20.0803 O   0  0  0  0  0  0  0  0  0  0  0  0
   11.5794  -18.6778   25.5818 N   0  0  0  0  0  0  0  0  0  0  0  0
   11.0244  -17.3853   25.7100 C   0  0  0  0  0  0  0  0  0  0  0  0
   10.2969  -17.0922   26.6690 O   0  0  0  0  0  0  0  0  0  0  0  0
   11.3205  -16.3654   24.6770 C   0  0  0  0  0  0  0  0  0  0  0  0
   12.2701  -16.9094   23.6489 C   0  0  0  0  0  0  0  0  0  0  0  0
   11.9118  -16.3322   22.3012 C   0  0  2  0  0  0  0  0  0  0  0  0
   10.5055  -16.4100   22.0739 N   0  0  0  0  0  0  0  0  0  0  0  0
   12.7128  -17.0330   21.2727 C   0  0  0  0  0  0  0  0  0  0  0  0
   12.2308  -17.6832   20.3247 O   0  0  0  0  0  0  0  0  0  0  0  0
   14.0937  -16.9560   21.3783 O   0  0  0  0  0  0  0  0  0  0  0  0
  2  1  1  0
  3  2  2  0
  4  3  1  0
  5  4  2  0
  5 11  1  0
  6  5  1  0
  7  9  1  0
  7  6  1  0
  7  8  1  6
  9 10  2  0
 11 12  2  0
 12  2  1  0
 13 14  1  0
 14 16  1  0
 14 15  2  0
 17 16  1  1
 18 17  1  0
 18  9  1  0
 19 17  1  0
 19 20  2  0
 21 22  1  0
 22 24  1  0
 22 23  2  0
 24 25  1  0
 26 25  1  1
 26 27  1  0
 26 28  1  0
 27 19  1  0
 28 29  2  0
 28 30  1  0
M  END
$$$$
