YNQ.pdb
     RDKit          3D

 30 30  0  0  1  0  0  0  0  0999 V2000
    8.2520  -12.2507   17.3882 O   0  0  0  0  0  0  0  0  0  0  0  0
    8.0697  -12.7878   18.6460 C   0  0  0  0  0  0  0  0  0  0  0  0
    9.1300  -12.9222   19.5175 C   0  0  0  0  0  0  0  0  0  0  0  0
    8.9217  -13.4627   20.7710 C   0  0  0  0  0  0  0  0  0  0  0  0
    7.6420  -13.8612   21.1282 C   0  0  0  0  0  0  0  0  0  0  0  0
    7.4557  -14.4320   22.4691 C   0  0  0  0  0  0  0  0  0  0  0  0
    8.4809  -15.5069   22.7627 C   0  0  2  0  0  0  0  0  0  0  0  0
    8.7586  -16.1836   21.5184 N   0  0  0  0  0  0  0  0  0  0  0  0
    7.8987  -16.4485   23.7253 C   0  0  0  0  0  0  0  0  0  0  0  0
    7.5017  -16.0382   24.8467 O   0  0  0  0  0  0  0  0  0  0  0  0
    6.5772  -13.7297   20.2619 C   0  0  0  0  0  0  0  0  0  0  0  0
    6.7950  -13.1859   19.0048 C   0  0  0  0  0  0  0  0  0  0  0  0
    5.7381  -20.1614   21.5213 N   0  0  0  0  0  0  0  0  0  0  0  0
    5.5529  -19.6875   22.8428 C   0  0  0  0  0  0  0  0  0  0  0  0
    4.5014  -19.0324   23.0856 O   0  0  0  0  0  0  0  0  0  0  0  0
    6.5850  -19.9828   23.8451 C   0  0  0  0  0  0  0  0  0  0  0  0
    7.2131  -18.7563   24.4352 C   0  0  2  0  0  0  0  0  0  0  0  0
    7.7405  -17.8370   23.4863 N   0  0  0  0  0  0  0  0  0  0  0  0
    8.2885  -19.0978   25.4018 C   0  0  0  0  0  0  0  0  0  0  0  0
    9.5010  -19.1530   25.0705 O   0  0  0  0  0  0  0  0  0  0  0  0
    9.9462  -15.0699   28.3154 N   0  0  0  0  0  0  0  0  0  0  0  0
   10.4712  -15.9883   29.2513 C   0  0  0  0  0  0  0  0  0  0  0  0
   11.1895  -15.6099   30.1871 O   0  0  0  0  0  0  0  0  0  0  0  0
   10.1544  -17.4284   29.1073 C   0  0  0  0  0  0  0  0  0  0  0  0
    9.2611  -17.6608   27.9230 C   0  0  0  0  0  0  0  0  0  0  0  0
    8.9460  -19.1341   27.8323 C   0  0  2  0  0  0  0  0  0  0  0  0
    8.0097  -19.3889   26.7865 N   0  0  0  0  0  0  0  0  0  0  0  0
    8.4798  -19.5878   29.1617 C   0  0  0  0  0  0  0  0  0  0  0  0
    9.2308  -19.9662   30.0817 O   0  0  0  0  0  0  0  0  0  0  0  0
    7.1119  -19.5888   29.3913 O   0  0  0  0  0  0  0  0  0  0  0  0
  2  1  1  0
  3  2  2  0
  4  3  1  0
  5  4  2  0
  5 11  1  0
  6  5  1  0
  7  9  1  0
  7  6  1  0
  7  8  1  6
  9 10  2  0
 11 12  2  0
 12  2  1  0
 13 14  1  0
 14 16  1  0
 14 15  2  0
 17 16  1  6
 18 17  1  0
 18  9  1  0
 19 17  1  0
 19 20  2  0
 21 22  1  0
 22 24  1  0
 22 23  2  0
 24 25  1  0
 26 25  1  1
 26 27  1  0
 26 28  1  0
 27 19  1  0
 28 29  2  0
 28 30  1  0
M  END
$$$$
