YNQ.pdb
     RDKit          3D

 30 30  0  0  1  0  0  0  0  0999 V2000
    9.0479  -12.6409   17.1032 O   0  0  0  0  0  0  0  0  0  0  0  0
    8.4768  -13.2803   18.1843 C   0  0  0  0  0  0  0  0  0  0  0  0
    7.1452  -13.6389   18.1706 C   0  0  0  0  0  0  0  0  0  0  0  0
    6.5970  -14.2779   19.2650 C   0  0  0  0  0  0  0  0  0  0  0  0
    7.4031  -14.5469   20.3613 C   0  0  0  0  0  0  0  0  0  0  0  0
    6.7879  -15.2279   21.5085 C   0  0  0  0  0  0  0  0  0  0  0  0
    6.8736  -16.7335   21.3722 C   0  0  2  0  0  0  0  0  0  0  0  0
    5.7326  -17.1578   20.5969 N   0  0  0  0  0  0  0  0  0  0  0  0
    6.8133  -17.3219   22.7147 C   0  0  0  0  0  0  0  0  0  0  0  0
    5.7364  -17.8163   23.1381 O   0  0  0  0  0  0  0  0  0  0  0  0
    8.7353  -14.1912   20.3819 C   0  0  0  0  0  0  0  0  0  0  0  0
    9.2781  -13.5496   19.2786 C   0  0  0  0  0  0  0  0  0  0  0  0
    7.0093  -19.9065   27.2474 N   0  0  0  0  0  0  0  0  0  0  0  0
    8.2370  -19.6506   26.5897 C   0  0  0  0  0  0  0  0  0  0  0  0
    9.2969  -19.7733   27.2644 O   0  0  0  0  0  0  0  0  0  0  0  0
    8.2065  -19.2610   25.1740 C   0  0  0  0  0  0  0  0  0  0  0  0
    7.8220  -17.8286   24.9566 C   0  0  2  0  0  0  0  0  0  0  0  0
    7.9119  -17.3816   23.6090 N   0  0  0  0  0  0  0  0  0  0  0  0
    8.6191  -16.9081   25.8078 C   0  0  0  0  0  0  0  0  0  0  0  0
    9.8597  -16.7579   25.6616 O   0  0  0  0  0  0  0  0  0  0  0  0
    5.4814  -12.0317   27.1251 N   0  0  0  0  0  0  0  0  0  0  0  0
    6.7307  -11.5769   27.6018 C   0  0  0  0  0  0  0  0  0  0  0  0
    6.9546  -10.3690   27.7621 O   0  0  0  0  0  0  0  0  0  0  0  0
    7.7889  -12.5656   27.9144 C   0  0  0  0  0  0  0  0  0  0  0  0
    7.2997  -13.9639   27.6695 C   0  0  0  0  0  0  0  0  0  0  0  0
    8.4546  -14.8060   27.1845 C   0  0  2  0  0  0  0  0  0  0  0  0
    8.0190  -16.1251   26.8598 N   0  0  0  0  0  0  0  0  0  0  0  0
    9.5132  -14.7746   28.2184 C   0  0  0  0  0  0  0  0  0  0  0  0
    9.7720  -15.7168   28.9922 O   0  0  0  0  0  0  0  0  0  0  0  0
   10.2640  -13.6134   28.3270 O   0  0  0  0  0  0  0  0  0  0  0  0
  2  1  1  0
  3  2  2  0
  4  3  1  0
  5  4  2  0
  5 11  1  0
  6  5  1  0
  7  9  1  0
  7  6  1  0
  7  8  1  6
  9 10  2  0
 11 12  2  0
 12  2  1  0
 13 14  1  0
 14 16  1  0
 14 15  2  0
 17 16  1  6
 18 17  1  0
 18  9  1  0
 19 17  1  0
 19 20  2  0
 21 22  1  0
 22 24  1  0
 22 23  2  0
 24 25  1  0
 26 25  1  1
 26 27  1  0
 26 28  1  0
 27 19  1  0
 28 29  2  0
 28 30  1  0
M  END
$$$$
