YNQ.pdb
     RDKit          3D

 30 30  0  0  1  0  0  0  0  0999 V2000
    6.1524  -10.3758   26.5206 O   0  0  0  0  0  0  0  0  0  0  0  0
    6.5386  -11.6833   26.3081 C   0  0  0  0  0  0  0  0  0  0  0  0
    7.3726  -12.0124   25.2602 C   0  0  0  0  0  0  0  0  0  0  0  0
    7.7447  -13.3283   25.0686 C   0  0  0  0  0  0  0  0  0  0  0  0
    7.2683  -14.2965   25.9401 C   0  0  0  0  0  0  0  0  0  0  0  0
    7.6838  -15.6863   25.7075 C   0  0  0  0  0  0  0  0  0  0  0  0
    7.2116  -16.1892   24.3596 C   0  0  2  0  0  0  0  0  0  0  0  0
    6.1456  -17.1309   24.6046 N   0  0  0  0  0  0  0  0  0  0  0  0
    8.3347  -16.8649   23.7006 C   0  0  0  0  0  0  0  0  0  0  0  0
    8.5412  -18.0891   23.9052 O   0  0  0  0  0  0  0  0  0  0  0  0
    6.4341  -13.9746   26.9900 C   0  0  0  0  0  0  0  0  0  0  0  0
    6.0651  -12.6506   27.1754 C   0  0  0  0  0  0  0  0  0  0  0  0
   12.9784  -16.2379   19.6703 N   0  0  0  0  0  0  0  0  0  0  0  0
   12.0094  -16.9840   20.3844 C   0  0  0  0  0  0  0  0  0  0  0  0
   12.1890  -18.2296   20.4835 O   0  0  0  0  0  0  0  0  0  0  0  0
   10.8624  -16.2721   20.9628 C   0  0  0  0  0  0  0  0  0  0  0  0
   10.3911  -16.8540   22.2614 C   0  0  2  0  0  0  0  0  0  0  0  0
    9.2418  -16.2265   22.8175 N   0  0  0  0  0  0  0  0  0  0  0  0
   11.4652  -16.8545   23.2879 C   0  0  0  0  0  0  0  0  0  0  0  0
   11.6735  -15.8732   24.0472 O   0  0  0  0  0  0  0  0  0  0  0  0
   10.6205  -19.5817   27.9435 N   0  0  0  0  0  0  0  0  0  0  0  0
   11.2476  -18.3228   28.0731 C   0  0  0  0  0  0  0  0  0  0  0  0
   11.1342  -17.6538   29.1097 O   0  0  0  0  0  0  0  0  0  0  0  0
   12.0541  -17.7972   26.9469 C   0  0  0  0  0  0  0  0  0  0  0  0
   11.9602  -18.7062   25.7555 C   0  0  0  0  0  0  0  0  0  0  0  0
   12.9736  -18.2672   24.7267 C   0  0  2  0  0  0  0  0  0  0  0  0
   12.3405  -17.9845   23.4799 N   0  0  0  0  0  0  0  0  0  0  0  0
   14.0164  -19.3132   24.6324 C   0  0  0  0  0  0  0  0  0  0  0  0
   14.9530  -19.4512   25.4431 O   0  0  0  0  0  0  0  0  0  0  0  0
   13.9388  -20.1963   23.5656 O   0  0  0  0  0  0  0  0  0  0  0  0
  2  1  1  0
  3  2  2  0
  4  3  1  0
  5  4  2  0
  5 11  1  0
  6  5  1  0
  7  9  1  0
  7  6  1  0
  7  8  1  1
  9 10  2  0
 11 12  2  0
 12  2  1  0
 13 14  1  0
 14 16  1  0
 14 15  2  0
 17 16  1  6
 18 17  1  0
 18  9  1  0
 19 17  1  0
 19 20  2  0
 21 22  1  0
 22 24  1  0
 22 23  2  0
 24 25  1  0
 26 25  1  1
 26 27  1  0
 26 28  1  0
 27 19  1  0
 28 29  2  0
 28 30  1  0
M  END
$$$$
