APW.pdb
     RDKit          3D

 27 29  0  0  1  0  0  0  0  0999 V2000
    6.6986  -18.8897   21.1162 C   0  0  0  0  0  0  0  0  0  0  0  0
    7.0622  -18.0284   19.9095 C   0  0  2  0  0  0  0  0  0  0  0  0
    7.3771  -18.9058   18.8422 N   0  0  0  0  0  0  0  0  0  0  0  0
    8.0671  -17.0443   20.2902 C   0  0  0  0  0  0  0  0  0  0  0  0
    9.2813  -17.4592   20.2098 O   0  0  0  0  0  0  0  0  0  0  0  0
    7.8693  -15.7197   20.7270 N   0  0  0  0  0  0  0  0  0  0  0  0
    6.6440  -15.0196   21.0411 C   0  0  0  0  0  0  0  0  0  0  0  0
    6.9354  -13.6409   20.4252 C   0  0  0  0  0  0  0  0  0  0  0  0
    8.3098  -13.3868   21.0055 C   0  0  0  0  0  0  0  0  0  0  0  0
    8.9341  -14.7369   20.9716 C   0  0  1  0  0  0  0  0  0  0  0  0
    9.6702  -15.0719   22.2166 C   0  0  0  0  0  0  0  0  0  0  0  0
   10.7121  -14.4191   22.4750 O   0  0  0  0  0  0  0  0  0  0  0  0
    9.2729  -16.0766   23.1271 N   0  0  0  0  0  0  0  0  0  0  0  0
    9.9781  -16.2886   24.4151 C   0  0  1  0  0  0  0  0  0  0  0  0
    9.7910  -15.0633   25.2362 C   0  0  0  0  0  0  0  0  0  0  0  0
    8.4048  -14.7101   25.5711 C   0  0  0  0  0  0  0  0  0  0  0  0
    7.3082  -15.5906   25.5145 C   0  0  0  0  0  0  0  0  0  0  0  0
    6.1925  -14.9305   25.8505 N   0  0  0  0  0  0  0  0  0  0  0  0
    6.4749  -13.6439   26.1341 C   0  0  0  0  0  0  0  0  0  0  0  0
    5.6701  -12.6007   26.5390 C   0  0  0  0  0  0  0  0  0  0  0  0
    6.2514  -11.3620   26.7867 C   0  0  0  0  0  0  0  0  0  0  0  0
    7.6151  -11.2050   26.6223 C   0  0  0  0  0  0  0  0  0  0  0  0
    8.4038  -12.2540   26.2174 C   0  0  0  0  0  0  0  0  0  0  0  0
    7.8406  -13.5104   25.9614 C   0  0  0  0  0  0  0  0  0  0  0  0
    9.4780  -17.4960   25.0595 C   0  0  0  0  0  0  0  0  0  0  0  0
   10.1386  -18.0023   26.1874 O   0  0  0  0  0  0  0  0  0  0  0  0
    8.4766  -18.1475   24.6860 O   0  0  0  0  0  0  0  0  0  0  0  0
  2  4  1  0
  2  1  1  1
  3  2  1  0
  4  6  1  0
  5  4  2  0
  6  7  1  0
  6 10  1  0
  7  8  1  0
  9  8  1  0
 10  9  1  0
 11 13  1  0
 10 11  1  1
 12 11  2  0
 14 15  1  1
 14 13  1  0
 15 16  1  0
 16 17  2  0
 18 17  1  0
 19 18  1  0
 20 19  2  0
 21 20  1  0
 22 21  2  0
 22 23  1  0
 23 24  2  0
 24 19  1  0
 24 16  1  0
 25 14  1  0
 25 26  1  0
 27 25  2  0
M  END
$$$$
