APW.pdb
     RDKit          3D

 27 29  0  0  1  0  0  0  0  0999 V2000
    8.0919  -12.6719   19.1524 C   0  0  0  0  0  0  0  0  0  0  0  0
    8.0882  -14.0715   18.5429 C   0  0  2  0  0  0  0  0  0  0  0  0
    6.7956  -14.2972   18.0078 N   0  0  0  0  0  0  0  0  0  0  0  0
    8.5918  -15.0341   19.5140 C   0  0  0  0  0  0  0  0  0  0  0  0
    7.7085  -15.4792   20.3353 O   0  0  0  0  0  0  0  0  0  0  0  0
    9.9048  -15.5243   19.6561 N   0  0  0  0  0  0  0  0  0  0  0  0
   11.0872  -15.2510   18.8703 C   0  0  0  0  0  0  0  0  0  0  0  0
   11.7136  -16.6537   18.7973 C   0  0  0  0  0  0  0  0  0  0  0  0
   11.6546  -17.0367   20.2602 C   0  0  0  0  0  0  0  0  0  0  0  0
   10.3563  -16.4567   20.6983 C   0  0  1  0  0  0  0  0  0  0  0  0
   10.4378  -15.7656   22.0097 C   0  0  0  0  0  0  0  0  0  0  0  0
   10.5932  -14.5188   22.0065 O   0  0  0  0  0  0  0  0  0  0  0  0
   10.3513  -16.4209   23.2584 N   0  0  0  0  0  0  0  0  0  0  0  0
    9.6545  -15.8091   24.4167 C   0  0  1  0  0  0  0  0  0  0  0  0
    8.2684  -15.4858   23.9867 C   0  0  0  0  0  0  0  0  0  0  0  0
    7.3762  -14.9448   25.0210 C   0  0  0  0  0  0  0  0  0  0  0  0
    6.2975  -15.6366   25.6030 C   0  0  0  0  0  0  0  0  0  0  0  0
    5.6795  -14.8356   26.4806 N   0  0  0  0  0  0  0  0  0  0  0  0
    6.2845  -13.6325   26.5257 C   0  0  0  0  0  0  0  0  0  0  0  0
    6.0239  -12.5076   27.2787 C   0  0  0  0  0  0  0  0  0  0  0  0
    6.8459  -11.3959   27.1304 C   0  0  0  0  0  0  0  0  0  0  0  0
    7.8997  -11.4429   26.2366 C   0  0  0  0  0  0  0  0  0  0  0  0
    8.1460  -12.5709   25.4927 C   0  0  0  0  0  0  0  0  0  0  0  0
    7.3313  -13.7023   25.6246 C   0  0  0  0  0  0  0  0  0  0  0  0
    9.7077  -16.7124   25.5588 C   0  0  0  0  0  0  0  0  0  0  0  0
    9.9369  -18.0794   25.3493 O   0  0  0  0  0  0  0  0  0  0  0  0
    9.5622  -16.3691   26.7536 O   0  0  0  0  0  0  0  0  0  0  0  0
  2  4  1  0
  2  1  1  1
  3  2  1  0
  4  6  1  0
  5  4  2  0
  6  7  1  0
  6 10  1  0
  7  8  1  0
  9  8  1  0
 10  9  1  0
 11 13  1  0
 10 11  1  1
 12 11  2  0
 14 15  1  6
 14 13  1  0
 15 16  1  0
 16 17  2  0
 18 17  1  0
 19 18  1  0
 20 19  2  0
 21 20  1  0
 22 21  2  0
 22 23  1  0
 23 24  2  0
 24 19  1  0
 24 16  1  0
 25 14  1  0
 25 26  1  0
 27 25  2  0
M  END
$$$$
