APW.pdb
     RDKit          3D

 27 29  0  0  1  0  0  0  0  0999 V2000
    7.4544  -19.6230   21.8725 C   0  0  0  0  0  0  0  0  0  0  0  0
    7.7045  -18.7718   20.6303 C   0  0  2  0  0  0  0  0  0  0  0  0
    8.2509  -19.6221   19.6370 N   0  0  0  0  0  0  0  0  0  0  0  0
    8.4661  -17.5832   20.9914 C   0  0  0  0  0  0  0  0  0  0  0  0
    9.7418  -17.7425   20.9887 O   0  0  0  0  0  0  0  0  0  0  0  0
    7.9796  -16.3069   21.3360 N   0  0  0  0  0  0  0  0  0  0  0  0
    6.6243  -15.8642   21.5756 C   0  0  0  0  0  0  0  0  0  0  0  0
    6.6426  -14.4938   20.8777 C   0  0  0  0  0  0  0  0  0  0  0  0
    7.9115  -13.9213   21.4715 C   0  0  0  0  0  0  0  0  0  0  0  0
    8.8054  -15.1087   21.5402 C   0  0  1  0  0  0  0  0  0  0  0  0
    9.5498  -15.2064   22.8210 C   0  0  0  0  0  0  0  0  0  0  0  0
   10.4398  -14.3492   23.0484 O   0  0  0  0  0  0  0  0  0  0  0  0
    9.3203  -16.2009   23.7980 N   0  0  0  0  0  0  0  0  0  0  0  0
    9.9908  -16.1675   25.1211 C   0  0  1  0  0  0  0  0  0  0  0  0
    8.9504  -16.4005   26.1574 C   0  0  0  0  0  0  0  0  0  0  0  0
    7.7983  -15.4890   26.1389 C   0  0  0  0  0  0  0  0  0  0  0  0
    6.4777  -15.8589   25.8225 C   0  0  0  0  0  0  0  0  0  0  0  0
    5.6913  -14.7759   25.8688 N   0  0  0  0  0  0  0  0  0  0  0  0
    6.4108  -13.6865   26.2020 C   0  0  0  0  0  0  0  0  0  0  0  0
    6.0424  -12.3713   26.3882 C   0  0  0  0  0  0  0  0  0  0  0  0
    7.0140  -11.4487   26.7603 C   0  0  0  0  0  0  0  0  0  0  0  0
    8.3198  -11.8682   26.9343 C   0  0  0  0  0  0  0  0  0  0  0  0
    8.6716  -13.1822   26.7442 C   0  0  0  0  0  0  0  0  0  0  0  0
    7.7105  -14.1290   26.3686 C   0  0  0  0  0  0  0  0  0  0  0  0
   11.0673  -17.1489   25.1545 C   0  0  0  0  0  0  0  0  0  0  0  0
   11.2571  -18.0047   24.0606 O   0  0  0  0  0  0  0  0  0  0  0  0
   11.8680  -17.3050   26.1038 O   0  0  0  0  0  0  0  0  0  0  0  0
  2  4  1  0
  2  1  1  1
  3  2  1  0
  4  6  1  0
  5  4  2  0
  6  7  1  0
  6 10  1  0
  7  8  1  0
  9  8  1  0
 10  9  1  0
 11 13  1  0
 10 11  1  1
 12 11  2  0
 14 15  1  1
 14 13  1  0
 15 16  1  0
 16 17  2  0
 18 17  1  0
 19 18  1  0
 20 19  2  0
 21 20  1  0
 22 21  2  0
 22 23  1  0
 23 24  2  0
 24 19  1  0
 24 16  1  0
 25 14  1  0
 25 26  1  0
 27 25  2  0
M  END
$$$$
