APW.pdb
     RDKit          3D

 27 29  0  0  1  0  0  0  0  0999 V2000
    6.3639  -18.9878   23.1867 C   0  0  0  0  0  0  0  0  0  0  0  0
    6.6243  -18.5584   21.7452 C   0  0  2  0  0  0  0  0  0  0  0  0
    6.7851  -19.7368   20.9746 N   0  0  0  0  0  0  0  0  0  0  0  0
    7.7023  -17.5787   21.7090 C   0  0  0  0  0  0  0  0  0  0  0  0
    8.8796  -18.0811   21.5890 O   0  0  0  0  0  0  0  0  0  0  0  0
    7.6087  -16.1754   21.7886 N   0  0  0  0  0  0  0  0  0  0  0  0
    6.4454  -15.3304   21.9400 C   0  0  0  0  0  0  0  0  0  0  0  0
    6.7966  -14.1837   20.9771 C   0  0  0  0  0  0  0  0  0  0  0  0
    8.2087  -13.8887   21.4349 C   0  0  0  0  0  0  0  0  0  0  0  0
    8.7436  -15.2432   21.7397 C   0  0  1  0  0  0  0  0  0  0  0  0
    9.5109  -15.2964   23.0095 C   0  0  0  0  0  0  0  0  0  0  0  0
   10.1963  -14.2910   23.3226 O   0  0  0  0  0  0  0  0  0  0  0  0
    9.5184  -16.4046   23.8860 N   0  0  0  0  0  0  0  0  0  0  0  0
   10.3661  -16.4337   25.1033 C   0  0  1  0  0  0  0  0  0  0  0  0
    9.9273  -15.3179   25.9825 C   0  0  0  0  0  0  0  0  0  0  0  0
    8.4864  -15.0317   26.0000 C   0  0  0  0  0  0  0  0  0  0  0  0
    7.4683  -15.9882   25.8285 C   0  0  0  0  0  0  0  0  0  0  0  0
    6.2766  -15.3781   25.8659 N   0  0  0  0  0  0  0  0  0  0  0  0
    6.4327  -14.0532   26.0552 C   0  0  0  0  0  0  0  0  0  0  0  0
    5.5125  -13.0342   26.1780 C   0  0  0  0  0  0  0  0  0  0  0  0
    5.9704  -11.7395   26.3959 C   0  0  0  0  0  0  0  0  0  0  0  0
    7.3300  -11.5042   26.4839 C   0  0  0  0  0  0  0  0  0  0  0  0
    8.2346  -12.5299   26.3586 C   0  0  0  0  0  0  0  0  0  0  0  0
    7.7969  -13.8418   26.1381 C   0  0  0  0  0  0  0  0  0  0  0  0
   10.2714  -17.7408   25.7403 C   0  0  0  0  0  0  0  0  0  0  0  0
    9.3617  -18.6863   25.2468 O   0  0  0  0  0  0  0  0  0  0  0  0
   10.9514  -18.1118   26.7234 O   0  0  0  0  0  0  0  0  0  0  0  0
  2  4  1  0
  2  1  1  1
  3  2  1  0
  4  6  1  0
  5  4  2  0
  6  7  1  0
  6 10  1  0
  7  8  1  0
  9  8  1  0
 10  9  1  0
 11 13  1  0
 10 11  1  1
 12 11  2  0
 14 15  1  1
 14 13  1  0
 15 16  1  0
 16 17  2  0
 18 17  1  0
 19 18  1  0
 20 19  2  0
 21 20  1  0
 22 21  2  0
 22 23  1  0
 23 24  2  0
 24 19  1  0
 24 16  1  0
 25 14  1  0
 25 26  1  0
 27 25  2  0
M  END
$$$$
