APW.pdb
     RDKit          3D

 27 29  0  0  1  0  0  0  0  0999 V2000
    9.8529  -12.9489   19.0105 C   0  0  0  0  0  0  0  0  0  0  0  0
    8.5041  -13.6352   18.8110 C   0  0  2  0  0  0  0  0  0  0  0  0
    7.5460  -12.6216   18.5602 N   0  0  0  0  0  0  0  0  0  0  0  0
    8.2453  -14.5464   19.9182 C   0  0  0  0  0  0  0  0  0  0  0  0
    7.6196  -14.0203   20.9105 O   0  0  0  0  0  0  0  0  0  0  0  0
    8.5927  -15.9072   20.0275 N   0  0  0  0  0  0  0  0  0  0  0  0
    9.3182  -16.7561   19.1093 C   0  0  0  0  0  0  0  0  0  0  0  0
    8.5050  -18.0570   19.2177 C   0  0  0  0  0  0  0  0  0  0  0  0
    8.4324  -18.1884   20.7237 C   0  0  0  0  0  0  0  0  0  0  0  0
    8.2741  -16.7773   21.1681 C   0  0  1  0  0  0  0  0  0  0  0  0
    9.1258  -16.4328   22.3343 C   0  0  0  0  0  0  0  0  0  0  0  0
   10.0573  -15.6085   22.1566 O   0  0  0  0  0  0  0  0  0  0  0  0
    8.9545  -16.9727   23.6287 N   0  0  0  0  0  0  0  0  0  0  0  0
    9.7984  -16.5466   24.7722 C   0  0  1  0  0  0  0  0  0  0  0  0
    9.5130  -15.1104   25.0298 C   0  0  0  0  0  0  0  0  0  0  0  0
    8.1504  -14.7876   25.4745 C   0  0  0  0  0  0  0  0  0  0  0  0
    7.0571  -15.6733   25.4438 C   0  0  0  0  0  0  0  0  0  0  0  0
    5.9629  -15.0417   25.8881 N   0  0  0  0  0  0  0  0  0  0  0  0
    6.2570  -13.7695   26.2207 C   0  0  0  0  0  0  0  0  0  0  0  0
    5.4756  -12.7563   26.7334 C   0  0  0  0  0  0  0  0  0  0  0  0
    6.0658  -11.5274   27.0078 C   0  0  0  0  0  0  0  0  0  0  0  0
    7.4147  -11.3501   26.7619 C   0  0  0  0  0  0  0  0  0  0  0  0
    8.1799  -12.3692   26.2499 C   0  0  0  0  0  0  0  0  0  0  0  0
    7.6074  -13.6151   25.9650 C   0  0  0  0  0  0  0  0  0  0  0  0
    9.5387  -17.4013   25.9234 C   0  0  0  0  0  0  0  0  0  0  0  0
   10.3785  -17.3268   27.0434 O   0  0  0  0  0  0  0  0  0  0  0  0
    8.6014  -18.2263   26.0089 O   0  0  0  0  0  0  0  0  0  0  0  0
  2  4  1  0
  2  1  1  1
  3  2  1  0
  4  6  1  0
  5  4  2  0
  6  7  1  0
  6 10  1  0
  7  8  1  0
  9  8  1  0
 10  9  1  0
 11 13  1  0
 10 11  1  1
 12 11  2  0
 14 15  1  1
 14 13  1  0
 15 16  1  0
 16 17  2  0
 18 17  1  0
 19 18  1  0
 20 19  2  0
 21 20  1  0
 22 21  2  0
 22 23  1  0
 23 24  2  0
 24 19  1  0
 24 16  1  0
 25 14  1  0
 25 26  1  0
 27 25  2  0
M  END
$$$$
