APW.pdb
     RDKit          3D

 27 29  0  0  1  0  0  0  0  0999 V2000
   10.6100  -17.1853   17.7085 C   0  0  0  0  0  0  0  0  0  0  0  0
   10.7824  -15.6694   17.6607 C   0  0  2  0  0  0  0  0  0  0  0  0
   12.0789  -15.4062   17.1528 N   0  0  0  0  0  0  0  0  0  0  0  0
   10.4363  -15.0921   18.9531 C   0  0  0  0  0  0  0  0  0  0  0  0
   11.4357  -14.8958   19.7375 O   0  0  0  0  0  0  0  0  0  0  0  0
    9.1624  -14.7316   19.4343 N   0  0  0  0  0  0  0  0  0  0  0  0
    7.8683  -14.8284   18.7970 C   0  0  0  0  0  0  0  0  0  0  0  0
    7.2330  -13.4979   19.2343 C   0  0  0  0  0  0  0  0  0  0  0  0
    7.5294  -13.5481   20.7175 C   0  0  0  0  0  0  0  0  0  0  0  0
    8.8841  -14.1618   20.7599 C   0  0  1  0  0  0  0  0  0  0  0  0
    9.0213  -15.2032   21.8091 C   0  0  0  0  0  0  0  0  0  0  0  0
    9.0795  -16.4028   21.4400 O   0  0  0  0  0  0  0  0  0  0  0  0
    9.0907  -14.9302   23.1936 N   0  0  0  0  0  0  0  0  0  0  0  0
    9.4143  -15.9862   24.1842 C   0  0  1  0  0  0  0  0  0  0  0  0
    9.3207  -15.3763   25.5370 C   0  0  0  0  0  0  0  0  0  0  0  0
    7.9941  -14.8915   25.9414 C   0  0  0  0  0  0  0  0  0  0  0  0
    6.8142  -15.6588   25.9342 C   0  0  0  0  0  0  0  0  0  0  0  0
    5.7870  -14.8951   26.3281 N   0  0  0  0  0  0  0  0  0  0  0  0
    6.2089  -13.6456   26.6042 C   0  0  0  0  0  0  0  0  0  0  0  0
    5.5320  -12.5321   27.0537 C   0  0  0  0  0  0  0  0  0  0  0  0
    6.2444  -11.3594   27.2789 C   0  0  0  0  0  0  0  0  0  0  0  0
    7.6075  -11.3362   27.0485 C   0  0  0  0  0  0  0  0  0  0  0  0
    8.2678  -12.4538   26.5998 C   0  0  0  0  0  0  0  0  0  0  0  0
    7.5711  -13.6458   26.3653 C   0  0  0  0  0  0  0  0  0  0  0  0
    8.5230  -17.1244   24.0023 C   0  0  0  0  0  0  0  0  0  0  0  0
    8.8873  -18.3771   24.5151 O   0  0  0  0  0  0  0  0  0  0  0  0
    7.4216  -17.0867   23.4087 O   0  0  0  0  0  0  0  0  0  0  0  0
  2  4  1  0
  2  1  1  1
  3  2  1  0
  4  6  1  0
  5  4  2  0
  6  7  1  0
  6 10  1  0
  7  8  1  0
  9  8  1  0
 10  9  1  0
 11 13  1  0
 10 11  1  1
 12 11  2  0
 14 15  1  1
 14 13  1  0
 15 16  1  0
 16 17  2  0
 18 17  1  0
 19 18  1  0
 20 19  2  0
 21 20  1  0
 22 21  2  0
 22 23  1  0
 23 24  2  0
 24 19  1  0
 24 16  1  0
 25 14  1  0
 25 26  1  0
 27 25  2  0
M  END
$$$$
