APW.pdb
     RDKit          3D

 27 29  0  0  1  0  0  0  0  0999 V2000
    6.4710  -19.4480   22.5145 C   0  0  0  0  0  0  0  0  0  0  0  0
    6.8384  -18.9371   21.1237 C   0  0  2  0  0  0  0  0  0  0  0  0
    7.1360  -20.0672   20.3222 N   0  0  0  0  0  0  0  0  0  0  0  0
    7.8578  -17.9016   21.2316 C   0  0  0  0  0  0  0  0  0  0  0  0
    9.0678  -18.3331   21.1814 O   0  0  0  0  0  0  0  0  0  0  0  0
    7.6777  -16.5125   21.3813 N   0  0  0  0  0  0  0  0  0  0  0  0
    6.4695  -15.7535   21.6144 C   0  0  0  0  0  0  0  0  0  0  0  0
    6.7089  -14.5438   20.6954 C   0  0  0  0  0  0  0  0  0  0  0  0
    8.1159  -14.1776   21.1158 C   0  0  0  0  0  0  0  0  0  0  0  0
    8.7478  -15.5065   21.3363 C   0  0  1  0  0  0  0  0  0  0  0  0
    9.5658  -15.5666   22.5738 C   0  0  0  0  0  0  0  0  0  0  0  0
   10.5906  -14.8423   22.6347 O   0  0  0  0  0  0  0  0  0  0  0  0
    9.2641  -16.3854   23.6851 N   0  0  0  0  0  0  0  0  0  0  0  0
   10.0379  -16.3060   24.9485 C   0  0  1  0  0  0  0  0  0  0  0  0
    9.8346  -14.9462   25.5145 C   0  0  0  0  0  0  0  0  0  0  0  0
    8.4494  -14.5751   25.8339 C   0  0  0  0  0  0  0  0  0  0  0  0
    7.3468  -15.4489   25.7937 C   0  0  0  0  0  0  0  0  0  0  0  0
    6.2343  -14.7727   26.1080 N   0  0  0  0  0  0  0  0  0  0  0  0
    6.5247  -13.4816   26.3612 C   0  0  0  0  0  0  0  0  0  0  0  0
    5.7255  -12.4230   26.7365 C   0  0  0  0  0  0  0  0  0  0  0  0
    6.3146  -11.1827   26.9564 C   0  0  0  0  0  0  0  0  0  0  0  0
    7.6802  -11.0396   26.7948 C   0  0  0  0  0  0  0  0  0  0  0  0
    8.4631  -12.1038   26.4196 C   0  0  0  0  0  0  0  0  0  0  0  0
    7.8921  -13.3621   26.1919 C   0  0  0  0  0  0  0  0  0  0  0  0
    9.6234  -17.3732   25.8498 C   0  0  0  0  0  0  0  0  0  0  0  0
   10.3616  -17.6196   27.0158 O   0  0  0  0  0  0  0  0  0  0  0  0
    8.6331  -18.1183   25.6736 O   0  0  0  0  0  0  0  0  0  0  0  0
  2  4  1  0
  2  1  1  1
  3  2  1  0
  4  6  1  0
  5  4  2  0
  6  7  1  0
  6 10  1  0
  7  8  1  0
  9  8  1  0
 10  9  1  0
 11 13  1  0
 10 11  1  1
 12 11  2  0
 14 15  1  1
 14 13  1  0
 15 16  1  0
 16 17  2  0
 18 17  1  0
 19 18  1  0
 20 19  2  0
 21 20  1  0
 22 21  2  0
 22 23  1  0
 23 24  2  0
 24 19  1  0
 24 16  1  0
 25 14  1  0
 25 26  1  0
 27 25  2  0
M  END
$$$$
