APW.pdb
     RDKit          3D

 27 29  0  0  1  0  0  0  0  0999 V2000
    6.8249  -18.6493   20.2863 C   0  0  0  0  0  0  0  0  0  0  0  0
    7.3990  -17.7639   19.1833 C   0  0  2  0  0  0  0  0  0  0  0  0
    7.9354  -18.6197   18.1893 N   0  0  0  0  0  0  0  0  0  0  0  0
    8.2886  -16.7666   19.7638 C   0  0  0  0  0  0  0  0  0  0  0  0
    9.5309  -17.0975   19.7741 O   0  0  0  0  0  0  0  0  0  0  0  0
    7.9551  -15.5089   20.3037 N   0  0  0  0  0  0  0  0  0  0  0  0
    6.6583  -14.9274   20.5685 C   0  0  0  0  0  0  0  0  0  0  0  0
    6.8963  -13.4772   20.1150 C   0  0  0  0  0  0  0  0  0  0  0  0
    8.1933  -13.1918   20.8408 C   0  0  0  0  0  0  0  0  0  0  0  0
    8.9181  -14.4871   20.7370 C   0  0  1  0  0  0  0  0  0  0  0  0
    9.5688  -14.8960   22.0073 C   0  0  0  0  0  0  0  0  0  0  0  0
   10.6205  -14.2979   22.3461 O   0  0  0  0  0  0  0  0  0  0  0  0
    9.0802  -15.9135   22.8572 N   0  0  0  0  0  0  0  0  0  0  0  0
    9.7295  -16.2293   24.1532 C   0  0  1  0  0  0  0  0  0  0  0  0
    9.6109  -15.0267   25.0194 C   0  0  0  0  0  0  0  0  0  0  0  0
    8.2608  -14.7007   25.4984 C   0  0  0  0  0  0  0  0  0  0  0  0
    7.1544  -15.5697   25.4560 C   0  0  0  0  0  0  0  0  0  0  0  0
    6.0770  -14.9388   25.9407 N   0  0  0  0  0  0  0  0  0  0  0  0
    6.3950  -13.6832   26.3120 C   0  0  0  0  0  0  0  0  0  0  0  0
    5.6371  -12.6777   26.8730 C   0  0  0  0  0  0  0  0  0  0  0  0
    6.2494  -11.4675   27.1796 C   0  0  0  0  0  0  0  0  0  0  0  0
    7.5965  -11.3004   26.9166 C   0  0  0  0  0  0  0  0  0  0  0  0
    8.3382  -12.3116   26.3565 C   0  0  0  0  0  0  0  0  0  0  0  0
    7.7430  -13.5387   26.0386 C   0  0  0  0  0  0  0  0  0  0  0  0
    9.1215  -17.4196   24.7335 C   0  0  0  0  0  0  0  0  0  0  0  0
    9.7128  -18.0229   25.8522 O   0  0  0  0  0  0  0  0  0  0  0  0
    8.0823  -17.9744   24.3106 O   0  0  0  0  0  0  0  0  0  0  0  0
  2  4  1  0
  2  1  1  1
  3  2  1  0
  4  6  1  0
  5  4  2  0
  6  7  1  0
  6 10  1  0
  7  8  1  0
  9  8  1  0
 10  9  1  0
 11 13  1  0
 10 11  1  1
 12 11  2  0
 14 15  1  1
 14 13  1  0
 15 16  1  0
 16 17  2  0
 18 17  1  0
 19 18  1  0
 20 19  2  0
 21 20  1  0
 22 21  2  0
 22 23  1  0
 23 24  2  0
 24 19  1  0
 24 16  1  0
 25 14  1  0
 25 26  1  0
 27 25  2  0
M  END
$$$$
