APW.pdb
     RDKit          3D

 27 29  0  0  1  0  0  0  0  0999 V2000
    7.4677  -18.1091   18.5049 C   0  0  0  0  0  0  0  0  0  0  0  0
    8.4109  -16.9925   18.0648 C   0  0  2  0  0  0  0  0  0  0  0  0
    9.3650  -17.5650   17.1873 N   0  0  0  0  0  0  0  0  0  0  0  0
    8.9131  -16.2813   19.2332 C   0  0  0  0  0  0  0  0  0  0  0  0
   10.0210  -16.7350   19.7017 O   0  0  0  0  0  0  0  0  0  0  0  0
    8.3398  -15.1784   19.8962 N   0  0  0  0  0  0  0  0  0  0  0  0
    7.1379  -14.4351   19.5915 C   0  0  0  0  0  0  0  0  0  0  0  0
    7.6101  -12.9986   19.8723 C   0  0  0  0  0  0  0  0  0  0  0  0
    8.2431  -13.1987   21.2324 C   0  0  0  0  0  0  0  0  0  0  0  0
    8.8793  -14.5375   21.1034 C   0  0  1  0  0  0  0  0  0  0  0  0
    8.6628  -15.4042   22.2892 C   0  0  0  0  0  0  0  0  0  0  0  0
    7.5143  -15.4244   22.7984 O   0  0  0  0  0  0  0  0  0  0  0  0
    9.6653  -16.2060   22.8794 N   0  0  0  0  0  0  0  0  0  0  0  0
    9.9525  -16.1551   24.3341 C   0  0  1  0  0  0  0  0  0  0  0  0
    9.6666  -14.7723   24.7997 C   0  0  0  0  0  0  0  0  0  0  0  0
    8.3044  -14.5191   25.2885 C   0  0  0  0  0  0  0  0  0  0  0  0
    7.2529  -15.4546   25.2777 C   0  0  0  0  0  0  0  0  0  0  0  0
    6.1443  -14.8804   25.7624 N   0  0  0  0  0  0  0  0  0  0  0  0
    6.3889  -13.6001   26.1037 C   0  0  0  0  0  0  0  0  0  0  0  0
    5.5770  -12.6310   26.6530 C   0  0  0  0  0  0  0  0  0  0  0  0
    6.1174  -11.3793   26.9269 C   0  0  0  0  0  0  0  0  0  0  0  0
    7.4487  -11.1360   26.6440 C   0  0  0  0  0  0  0  0  0  0  0  0
    8.2448  -12.1118   26.0959 C   0  0  0  0  0  0  0  0  0  0  0  0
    7.7224  -13.3795   25.8108 C   0  0  0  0  0  0  0  0  0  0  0  0
    9.1705  -17.1700   25.0281 C   0  0  0  0  0  0  0  0  0  0  0  0
    9.5198  -17.5386   26.3347 O   0  0  0  0  0  0  0  0  0  0  0  0
    8.1795  -17.7657   24.5487 O   0  0  0  0  0  0  0  0  0  0  0  0
  2  4  1  0
  2  1  1  1
  3  2  1  0
  4  6  1  0
  5  4  2  0
  6  7  1  0
  6 10  1  0
  7  8  1  0
  9  8  1  0
 10  9  1  0
 11 13  1  0
 10 11  1  1
 12 11  2  0
 14 15  1  1
 14 13  1  0
 15 16  1  0
 16 17  2  0
 18 17  1  0
 19 18  1  0
 20 19  2  0
 21 20  1  0
 22 21  2  0
 22 23  1  0
 23 24  2  0
 24 19  1  0
 24 16  1  0
 25 14  1  0
 25 26  1  0
 27 25  2  0
M  END
$$$$
