KRF.pdb
     RDKit          3D

 32 32  0  0  1  0  0  0  0  0999 V2000
   26.8268  -19.1056  -16.8369 N   0  0  0  0  0  0  0  0  0  0  0  0
   27.7194  -19.3620  -15.7529 C   0  0  1  0  0  0  0  0  0  0  0  0
   28.7922  -18.3512  -15.5953 C   0  0  0  0  0  0  0  0  0  0  0  0
   28.3391  -16.9775  -15.9323 C   0  0  0  0  0  0  0  0  0  0  0  0
   29.3246  -15.8759  -15.7357 C   0  0  0  0  0  0  0  0  0  0  0  0
   28.6912  -14.5225  -16.1526 C   0  0  0  0  0  0  0  0  0  0  0  0
   28.1148  -14.7845  -17.4737 N   0  0  0  0  0  0  0  0  0  0  0  0
   26.9062  -19.5218  -14.5009 C   0  0  0  0  0  0  0  0  0  0  0  0
   26.0076  -18.6534  -14.2972 O   0  0  0  0  0  0  0  0  0  0  0  0
   20.9279  -22.6015  -12.9898 N   0  0  0  0  0  0  0  0  0  0  0  0
   21.7033  -23.2436  -14.0038 C   0  0  0  0  0  0  0  0  0  0  0  0
   21.2615  -23.3489  -15.2182 N   0  0  0  0  0  0  0  0  0  0  0  0
   22.9844  -23.7898  -13.7214 N   0  0  0  0  0  0  0  0  0  0  0  0
   23.5717  -23.7143  -12.4156 C   0  0  0  0  0  0  0  0  0  0  0  0
   24.1783  -22.3552  -12.0973 C   0  0  0  0  0  0  0  0  0  0  0  0
   25.4530  -22.1491  -12.8505 C   0  0  0  0  0  0  0  0  0  0  0  0
   26.1686  -20.8740  -12.5705 C   0  0  2  0  0  0  0  0  0  0  0  0
   27.1429  -20.5870  -13.6099 N   0  0  0  0  0  0  0  0  0  0  0  0
   26.8032  -20.8828  -11.2371 C   0  0  0  0  0  0  0  0  0  0  0  0
   27.9592  -21.3387  -11.0807 O   0  0  0  0  0  0  0  0  0  0  0  0
   21.8485  -23.8788  -15.8932 N   0  0  0  0  0  0  0  0  0  0  0  0
   26.1577  -20.3884  -10.0855 C   0  0  1  0  0  0  0  0  0  0  0  0
   26.7473  -20.5630   -8.7744 C   0  0  0  0  0  0  0  0  0  0  0  0
   27.7231  -19.4928   -8.4436 C   0  0  0  0  0  0  0  0  0  0  0  0
   28.0799  -19.5260   -7.0158 C   0  0  0  0  0  0  0  0  0  0  0  0
   27.4395  -18.6264   -6.1833 C   0  0  0  0  0  0  0  0  0  0  0  0
   27.7340  -18.6602   -4.8413 C   0  0  0  0  0  0  0  0  0  0  0  0
   28.6391  -19.5579   -4.3211 C   0  0  0  0  0  0  0  0  0  0  0  0
   29.2965  -20.4724   -5.1348 C   0  0  0  0  0  0  0  0  0  0  0  0
   28.9831  -20.4177   -6.4759 C   0  0  0  0  0  0  0  0  0  0  0  0
   25.6367  -20.5679   -7.8088 O   0  0  0  0  0  0  0  0  0  0  0  0
   24.7908  -21.6535   -7.7083 O   0  0  0  0  0  0  0  0  0  0  0  0
  2  3  1  0
  2  1  1  6
  4  3  1  0
  5  6  1  0
  5  4  1  0
  7  6  1  0
  8  2  1  0
  9  8  2  0
 10 11  1  0
 11 13  1  0
 11 12  2  0
 13 14  1  0
 14 15  1  0
 15 16  1  0
 17 16  1  6
 17 19  1  0
 17 18  1  0
 18  8  1  0
 19 21  1  0
 20 19  2  0
 21 22  1  0
 22 23  1  1
 23 24  1  0
 24 29  2  0
 25 24  1  0
 25 26  2  0
 26 27  1  0
 27 28  2  0
 29 28  1  0
 30 31  1  0
 30 22  1  0
 32 30  2  0
M  END
$$$$
