KRF.pdb
     RDKit          3D

 32 32  0  0  1  0  0  0  0  0999 V2000
   21.9755  -27.0870  -13.2811 N   0  0  0  0  0  0  0  0  0  0  0  0
   21.3107  -26.1889  -14.1693 C   0  0  1  0  0  0  0  0  0  0  0  0
   19.8617  -26.0283  -13.9010 C   0  0  0  0  0  0  0  0  0  0  0  0
   19.0985  -27.2861  -14.1041 C   0  0  0  0  0  0  0  0  0  0  0  0
   18.8927  -28.1501  -12.9064 C   0  0  0  0  0  0  0  0  0  0  0  0
   17.9294  -29.3146  -13.2566 C   0  0  0  0  0  0  0  0  0  0  0  0
   17.8168  -30.0779  -12.0113 N   0  0  0  0  0  0  0  0  0  0  0  0
   22.0383  -24.8757  -14.1432 C   0  0  0  0  0  0  0  0  0  0  0  0
   22.3656  -24.4348  -13.0022 O   0  0  0  0  0  0  0  0  0  0  0  0
   28.5794  -21.9362  -15.3030 N   0  0  0  0  0  0  0  0  0  0  0  0
   28.0583  -22.3433  -16.5696 C   0  0  0  0  0  0  0  0  0  0  0  0
   28.8032  -22.9608  -17.4327 N   0  0  0  0  0  0  0  0  0  0  0  0
   26.7079  -22.0881  -16.9311 N   0  0  0  0  0  0  0  0  0  0  0  0
   25.8132  -21.3713  -16.0700 C   0  0  0  0  0  0  0  0  0  0  0  0
   24.3946  -21.2710  -16.6120 C   0  0  0  0  0  0  0  0  0  0  0  0
   23.7031  -22.5948  -16.5483 C   0  0  0  0  0  0  0  0  0  0  0  0
   23.0239  -22.9062  -15.2607 C   0  0  2  0  0  0  0  0  0  0  0  0
   22.3340  -24.1832  -15.3338 N   0  0  0  0  0  0  0  0  0  0  0  0
   22.1011  -21.8279  -14.8527 C   0  0  0  0  0  0  0  0  0  0  0  0
   20.9252  -21.7941  -15.2828 O   0  0  0  0  0  0  0  0  0  0  0  0
   28.3569  -23.2469  -18.3271 N   0  0  0  0  0  0  0  0  0  0  0  0
   22.4822  -20.7946  -13.9729 C   0  0  2  0  0  0  0  0  0  0  0  0
   21.5541  -19.7386  -13.6257 C   0  0  0  0  0  0  0  0  0  0  0  0
   22.0363  -18.9090  -12.4916 C   0  0  0  0  0  0  0  0  0  0  0  0
   22.1179  -19.7021  -11.2541 C   0  0  0  0  0  0  0  0  0  0  0  0
   20.9289  -19.9939  -10.6110 C   0  0  0  0  0  0  0  0  0  0  0  0
   20.9781  -20.7593   -9.4707 C   0  0  0  0  0  0  0  0  0  0  0  0
   22.1690  -21.2319   -8.9666 C   0  0  0  0  0  0  0  0  0  0  0  0
   23.3779  -20.9537   -9.5927 C   0  0  0  0  0  0  0  0  0  0  0  0
   23.3006  -20.1848  -10.7341 C   0  0  0  0  0  0  0  0  0  0  0  0
   21.3801  -18.9149  -14.8328 O   0  0  0  0  0  0  0  0  0  0  0  0
   20.2616  -18.1229  -14.9943 O   0  0  0  0  0  0  0  0  0  0  0  0
  2  3  1  0
  2  1  1  1
  4  3  1  0
  5  6  1  0
  5  4  1  0
  7  6  1  0
  8  2  1  0
  9  8  2  0
 10 11  1  0
 11 13  1  0
 11 12  2  0
 13 14  1  0
 14 15  1  0
 15 16  1  0
 17 16  1  6
 17 19  1  0
 17 18  1  0
 18  8  1  0
 19 21  1  0
 20 19  2  0
 21 22  1  0
 22 23  1  1
 23 24  1  0
 24 29  2  0
 25 24  1  0
 25 26  2  0
 26 27  1  0
 27 28  2  0
 29 28  1  0
 30 31  1  0
 30 22  1  0
 32 30  2  0
M  END
$$$$
