KRF.pdb
     RDKit          3D

 32 32  0  0  1  0  0  0  0  0999 V2000
   28.4209  -19.5191  -20.0997 N   0  0  0  0  0  0  0  0  0  0  0  0
   27.8248  -18.5706  -19.2153 C   0  0  1  0  0  0  0  0  0  0  0  0
   26.9453  -17.5827  -19.8847 C   0  0  0  0  0  0  0  0  0  0  0  0
   27.2506  -17.4307  -21.3302 C   0  0  0  0  0  0  0  0  0  0  0  0
   27.6774  -16.0779  -21.7898 C   0  0  0  0  0  0  0  0  0  0  0  0
   26.5845  -15.4633  -22.7033 C   0  0  0  0  0  0  0  0  0  0  0  0
   27.1924  -14.2336  -23.2175 N   0  0  0  0  0  0  0  0  0  0  0  0
   27.1065  -19.3230  -18.1324 C   0  0  0  0  0  0  0  0  0  0  0  0
   26.0669  -19.9567  -18.4801 O   0  0  0  0  0  0  0  0  0  0  0  0
   24.9968  -19.6618  -10.4198 N   0  0  0  0  0  0  0  0  0  0  0  0
   25.5959  -20.9470  -10.5952 C   0  0  0  0  0  0  0  0  0  0  0  0
   24.8976  -22.0330  -10.4758 N   0  0  0  0  0  0  0  0  0  0  0  0
   26.9756  -21.0845  -10.9063 N   0  0  0  0  0  0  0  0  0  0  0  0
   27.5727  -20.4149  -12.0247 C   0  0  0  0  0  0  0  0  0  0  0  0
   26.7651  -20.5341  -13.3092 C   0  0  0  0  0  0  0  0  0  0  0  0
   27.4902  -19.9080  -14.4567 C   0  0  0  0  0  0  0  0  0  0  0  0
   26.7761  -19.9347  -15.7627 C   0  0  2  0  0  0  0  0  0  0  0  0
   27.5770  -19.3143  -16.8046 N   0  0  0  0  0  0  0  0  0  0  0  0
   25.4438  -19.3040  -15.6722 C   0  0  0  0  0  0  0  0  0  0  0  0
   25.3278  -18.0587  -15.6054 O   0  0  0  0  0  0  0  0  0  0  0  0
   25.3978  -22.9358  -10.6007 N   0  0  0  0  0  0  0  0  0  0  0  0
   24.2491  -20.0519  -15.6561 C   0  0  2  0  0  0  0  0  0  0  0  0
   22.9672  -19.3953  -15.5051 C   0  0  0  0  0  0  0  0  0  0  0  0
   22.3829  -18.9845  -16.8077 C   0  0  0  0  0  0  0  0  0  0  0  0
   21.0278  -18.4374  -16.6299 C   0  0  0  0  0  0  0  0  0  0  0  0
   20.9247  -17.0945  -16.3159 C   0  0  0  0  0  0  0  0  0  0  0  0
   19.6685  -16.5549  -16.1757 C   0  0  0  0  0  0  0  0  0  0  0  0
   18.5319  -17.3145  -16.3392 C   0  0  0  0  0  0  0  0  0  0  0  0
   18.6068  -18.6656  -16.6548 C   0  0  0  0  0  0  0  0  0  0  0  0
   19.8777  -19.1816  -16.7901 C   0  0  0  0  0  0  0  0  0  0  0  0
   22.0819  -20.3492  -14.8180 O   0  0  0  0  0  0  0  0  0  0  0  0
   21.1338  -19.9116  -13.9158 O   0  0  0  0  0  0  0  0  0  0  0  0
  2  3  1  0
  2  1  1  6
  4  3  1  0
  5  6  1  0
  5  4  1  0
  7  6  1  0
  8  2  1  0
  9  8  2  0
 10 11  1  0
 11 13  1  0
 11 12  2  0
 13 14  1  0
 14 15  1  0
 15 16  1  0
 17 16  1  1
 17 19  1  0
 17 18  1  0
 18  8  1  0
 19 21  1  0
 20 19  2  0
 21 22  1  0
 22 23  1  6
 23 24  1  0
 24 29  2  0
 25 24  1  0
 25 26  2  0
 26 27  1  0
 27 28  2  0
 29 28  1  0
 30 31  1  0
 30 22  1  0
 32 30  2  0
M  END
$$$$
