KRF.pdb
     RDKit          3D

 32 32  0  0  1  0  0  0  0  0999 V2000
   25.7861  -21.9478  -16.4132 N   0  0  0  0  0  0  0  0  0  0  0  0
   26.9575  -22.0562  -15.6048 C   0  0  1  0  0  0  0  0  0  0  0  0
   28.2242  -21.7986  -16.3305 C   0  0  0  0  0  0  0  0  0  0  0  0
   28.8390  -23.0392  -16.8680 C   0  0  0  0  0  0  0  0  0  0  0  0
   28.1117  -23.7274  -17.9729 C   0  0  0  0  0  0  0  0  0  0  0  0
   28.8382  -25.0485  -18.3386 C   0  0  0  0  0  0  0  0  0  0  0  0
   27.9198  -25.7235  -19.2590 N   0  0  0  0  0  0  0  0  0  0  0  0
   26.7947  -21.1533  -14.4162 C   0  0  0  0  0  0  0  0  0  0  0  0
   27.3505  -20.0180  -14.4898 O   0  0  0  0  0  0  0  0  0  0  0  0
   20.5279  -19.1367  -15.1361 N   0  0  0  0  0  0  0  0  0  0  0  0
   20.3216  -20.3138  -14.3530 C   0  0  0  0  0  0  0  0  0  0  0  0
   19.4404  -21.2007  -14.6968 N   0  0  0  0  0  0  0  0  0  0  0  0
   21.0717  -20.5575  -13.1709 N   0  0  0  0  0  0  0  0  0  0  0  0
   22.2752  -19.8375  -12.8728 C   0  0  0  0  0  0  0  0  0  0  0  0
   23.4954  -20.7318  -12.7054 C   0  0  0  0  0  0  0  0  0  0  0  0
   24.6456  -19.9656  -12.1355 C   0  0  0  0  0  0  0  0  0  0  0  0
   25.9570  -20.6702  -12.1437 C   0  0  2  0  0  0  0  0  0  0  0  0
   26.0593  -21.5623  -13.2864 N   0  0  0  0  0  0  0  0  0  0  0  0
   26.1970  -21.3969  -10.8808 C   0  0  0  0  0  0  0  0  0  0  0  0
   25.3531  -22.2105  -10.4395 O   0  0  0  0  0  0  0  0  0  0  0  0
   19.3778  -22.0593  -14.1140 N   0  0  0  0  0  0  0  0  0  0  0  0
   27.3665  -21.2210  -10.1137 C   0  0  1  0  0  0  0  0  0  0  0  0
   27.2866  -20.9732   -8.6892 C   0  0  0  0  0  0  0  0  0  0  0  0
   28.1320  -19.8281   -8.2638 C   0  0  0  0  0  0  0  0  0  0  0  0
   28.1458  -19.6975   -6.7976 C   0  0  0  0  0  0  0  0  0  0  0  0
   27.7120  -18.4968   -6.2660 C   0  0  0  0  0  0  0  0  0  0  0  0
   27.6870  -18.3633   -4.8984 C   0  0  0  0  0  0  0  0  0  0  0  0
   28.0793  -19.3857   -4.0638 C   0  0  0  0  0  0  0  0  0  0  0  0
   28.5192  -20.6021   -4.5713 C   0  0  0  0  0  0  0  0  0  0  0  0
   28.5343  -20.7099   -5.9454 C   0  0  0  0  0  0  0  0  0  0  0  0
   25.8706  -20.7132   -8.3840 O   0  0  0  0  0  0  0  0  0  0  0  0
   25.1822  -21.5062   -7.4887 O   0  0  0  0  0  0  0  0  0  0  0  0
  2  3  1  0
  2  1  1  6
  4  3  1  0
  5  6  1  0
  5  4  1  0
  7  6  1  0
  8  2  1  0
  9  8  2  0
 10 11  1  0
 11 13  1  0
 11 12  2  0
 13 14  1  0
 14 15  1  0
 15 16  1  0
 17 16  1  1
 17 19  1  0
 17 18  1  0
 18  8  1  0
 19 21  1  0
 20 19  2  0
 21 22  1  0
 22 23  1  6
 23 24  1  0
 24 29  2  0
 25 24  1  0
 25 26  2  0
 26 27  1  0
 27 28  2  0
 29 28  1  0
 30 31  1  0
 30 22  1  0
 32 30  2  0
M  END
$$$$
