KRF.pdb
     RDKit          3D

 32 32  0  0  1  0  0  0  0  0999 V2000
   25.5417  -19.8066  -15.8051 N   0  0  0  0  0  0  0  0  0  0  0  0
   26.5398  -19.9080  -14.7898 C   0  0  1  0  0  0  0  0  0  0  0  0
   27.7389  -19.0699  -15.0289 C   0  0  0  0  0  0  0  0  0  0  0  0
   28.0188  -18.8689  -16.4736 C   0  0  0  0  0  0  0  0  0  0  0  0
   29.2722  -18.1402  -16.8219 C   0  0  0  0  0  0  0  0  0  0  0  0
   29.4015  -18.0225  -18.3634 C   0  0  0  0  0  0  0  0  0  0  0  0
   28.7378  -16.7571  -18.6865 N   0  0  0  0  0  0  0  0  0  0  0  0
   25.8973  -19.6091  -13.4661 C   0  0  0  0  0  0  0  0  0  0  0  0
   25.4820  -18.4253  -13.2951 O   0  0  0  0  0  0  0  0  0  0  0  0
   20.3239  -20.8870  -14.3644 N   0  0  0  0  0  0  0  0  0  0  0  0
   20.4513  -22.0689  -13.5715 C   0  0  0  0  0  0  0  0  0  0  0  0
   20.1949  -23.2389  -14.0680 N   0  0  0  0  0  0  0  0  0  0  0  0
   20.8627  -22.0079  -12.2127 N   0  0  0  0  0  0  0  0  0  0  0  0
   21.3621  -20.8000  -11.6235 C   0  0  0  0  0  0  0  0  0  0  0  0
   22.7649  -20.4311  -12.0846 C   0  0  0  0  0  0  0  0  0  0  0  0
   23.7920  -20.9173  -11.1133 C   0  0  0  0  0  0  0  0  0  0  0  0
   25.1308  -20.2741  -11.2145 C   0  0  2  0  0  0  0  0  0  0  0  0
   25.7707  -20.6042  -12.4769 N   0  0  0  0  0  0  0  0  0  0  0  0
   25.9973  -20.6286  -10.0725 C   0  0  0  0  0  0  0  0  0  0  0  0
   26.4495  -21.7900   -9.9477 O   0  0  0  0  0  0  0  0  0  0  0  0
   20.2544  -24.0522  -13.4231 N   0  0  0  0  0  0  0  0  0  0  0  0
   26.3589  -19.6993   -9.0763 C   0  0  2  0  0  0  0  0  0  0  0  0
   27.2119  -20.0910   -7.9736 C   0  0  0  0  0  0  0  0  0  0  0  0
   27.9128  -18.9341   -7.3592 C   0  0  0  0  0  0  0  0  0  0  0  0
   28.6795  -19.3500   -6.1733 C   0  0  0  0  0  0  0  0  0  0  0  0
   29.7700  -20.1742   -6.3829 C   0  0  0  0  0  0  0  0  0  0  0  0
   30.5190  -20.5499   -5.2935 C   0  0  0  0  0  0  0  0  0  0  0  0
   30.2078  -20.1277   -4.0205 C   0  0  0  0  0  0  0  0  0  0  0  0
   29.1180  -19.2994   -3.7818 C   0  0  0  0  0  0  0  0  0  0  0  0
   28.3841  -18.9372   -4.8909 C   0  0  0  0  0  0  0  0  0  0  0  0
   26.3474  -20.7569   -6.9861 O   0  0  0  0  0  0  0  0  0  0  0  0
   24.9789  -20.5814   -7.0109 O   0  0  0  0  0  0  0  0  0  0  0  0
  2  3  1  0
  2  1  1  6
  4  3  1  0
  5  6  1  0
  5  4  1  0
  7  6  1  0
  8  2  1  0
  9  8  2  0
 10 11  1  0
 11 13  1  0
 11 12  2  0
 13 14  1  0
 14 15  1  0
 15 16  1  0
 17 16  1  1
 17 19  1  0
 17 18  1  0
 18  8  1  0
 19 21  1  0
 20 19  2  0
 21 22  1  0
 22 23  1  1
 23 24  1  0
 24 29  2  0
 25 24  1  0
 25 26  2  0
 26 27  1  0
 27 28  2  0
 29 28  1  0
 30 31  1  0
 30 22  1  0
 32 30  2  0
M  END
$$$$
