KRF.pdb
     RDKit          3D

 32 32  0  0  1  0  0  0  0  0999 V2000
   18.4808  -32.4662   -5.9216 N   0  0  0  0  0  0  0  0  0  0  0  0
   19.1198  -32.4521   -4.6453 C   0  0  1  0  0  0  0  0  0  0  0  0
   20.2902  -33.3557   -4.5403 C   0  0  0  0  0  0  0  0  0  0  0  0
   19.9410  -34.7772   -4.7915 C   0  0  0  0  0  0  0  0  0  0  0  0
   20.0977  -35.7215   -3.6482 C   0  0  0  0  0  0  0  0  0  0  0  0
   19.7331  -37.1602   -4.1000 C   0  0  0  0  0  0  0  0  0  0  0  0
   20.0451  -37.9945   -2.9369 N   0  0  0  0  0  0  0  0  0  0  0  0
   19.4719  -31.0314   -4.3105 C   0  0  0  0  0  0  0  0  0  0  0  0
   20.6364  -30.8310   -3.8557 O   0  0  0  0  0  0  0  0  0  0  0  0
   19.1835  -24.1825   -7.3374 N   0  0  0  0  0  0  0  0  0  0  0  0
   18.1733  -25.1274   -7.6953 C   0  0  0  0  0  0  0  0  0  0  0  0
   18.0494  -25.5445   -8.9168 N   0  0  0  0  0  0  0  0  0  0  0  0
   17.2683  -25.6451   -6.7298 N   0  0  0  0  0  0  0  0  0  0  0  0
   17.3628  -25.3044   -5.3403 C   0  0  0  0  0  0  0  0  0  0  0  0
   18.3007  -26.2082   -4.5530 C   0  0  0  0  0  0  0  0  0  0  0  0
   18.0768  -27.6445   -4.9017 C   0  0  0  0  0  0  0  0  0  0  0  0
   18.9348  -28.6244   -4.1807 C   0  0  2  0  0  0  0  0  0  0  0  0
   18.5445  -29.9878   -4.4982 N   0  0  0  0  0  0  0  0  0  0  0  0
   18.9217  -28.3956   -2.7218 C   0  0  0  0  0  0  0  0  0  0  0  0
   17.9875  -28.8351   -2.0128 O   0  0  0  0  0  0  0  0  0  0  0  0
   17.3433  -26.2861   -9.0964 N   0  0  0  0  0  0  0  0  0  0  0  0
   19.9396  -27.6834   -2.0556 C   0  0  2  0  0  0  0  0  0  0  0  0
   19.8551  -27.4297   -0.6324 C   0  0  0  0  0  0  0  0  0  0  0  0
   21.1382  -26.9400   -0.0659 C   0  0  0  0  0  0  0  0  0  0  0  0
   20.9852  -26.5769    1.3524 C   0  0  0  0  0  0  0  0  0  0  0  0
   20.9222  -25.2294    1.6566 C   0  0  0  0  0  0  0  0  0  0  0  0
   20.7483  -24.8676    2.9710 C   0  0  0  0  0  0  0  0  0  0  0  0
   20.6379  -25.8066    3.9719 C   0  0  0  0  0  0  0  0  0  0  0  0
   20.6977  -27.1668    3.6942 C   0  0  0  0  0  0  0  0  0  0  0  0
   20.8722  -27.5025    2.3688 C   0  0  0  0  0  0  0  0  0  0  0  0
   18.7908  -26.4310   -0.4434 O   0  0  0  0  0  0  0  0  0  0  0  0
   18.0151  -26.4305    0.6979 O   0  0  0  0  0  0  0  0  0  0  0  0
  2  3  1  0
  2  1  1  6
  4  3  1  0
  5  6  1  0
  5  4  1  0
  7  6  1  0
  8  2  1  0
  9  8  2  0
 10 11  1  0
 11 13  1  0
 11 12  2  0
 13 14  1  0
 14 15  1  0
 15 16  1  0
 17 16  1  6
 17 19  1  0
 17 18  1  0
 18  8  1  0
 19 21  1  0
 20 19  2  0
 21 22  1  0
 22 23  1  6
 23 24  1  0
 24 29  2  0
 25 24  1  0
 25 26  2  0
 26 27  1  0
 27 28  2  0
 29 28  1  0
 30 31  1  0
 30 22  1  0
 32 30  2  0
M  END
$$$$
