KRF.pdb
     RDKit          3D

 32 32  0  0  1  0  0  0  0  0999 V2000
   27.5047  -28.8255  -20.1633 N   0  0  0  0  0  0  0  0  0  0  0  0
   27.6474  -28.9659  -18.7501 C   0  0  1  0  0  0  0  0  0  0  0  0
   27.9271  -27.6966  -18.0372 C   0  0  0  0  0  0  0  0  0  0  0  0
   29.1235  -26.9937  -18.5666 C   0  0  0  0  0  0  0  0  0  0  0  0
   29.4975  -25.7100  -17.9066 C   0  0  0  0  0  0  0  0  0  0  0  0
   30.8683  -25.8632  -17.1964 C   0  0  0  0  0  0  0  0  0  0  0  0
   31.0440  -24.6013  -16.4733 N   0  0  0  0  0  0  0  0  0  0  0  0
   26.4227  -29.6534  -18.2189 C   0  0  0  0  0  0  0  0  0  0  0  0
   25.3293  -29.3852  -18.7984 O   0  0  0  0  0  0  0  0  0  0  0  0
   27.2605  -35.9406  -17.5199 N   0  0  0  0  0  0  0  0  0  0  0  0
   28.3471  -35.8033  -16.6025 C   0  0  0  0  0  0  0  0  0  0  0  0
   29.4821  -36.3927  -16.8160 N   0  0  0  0  0  0  0  0  0  0  0  0
   28.2266  -35.0178  -15.4244 N   0  0  0  0  0  0  0  0  0  0  0  0
   27.0502  -34.2486  -15.1410 C   0  0  0  0  0  0  0  0  0  0  0  0
   26.8081  -33.1177  -16.1304 C   0  0  0  0  0  0  0  0  0  0  0  0
   25.6045  -32.3191  -15.7453 C   0  0  0  0  0  0  0  0  0  0  0  0
   25.2870  -31.1642  -16.6294 C   0  0  2  0  0  0  0  0  0  0  0  0
   26.5026  -30.5468  -17.1327 N   0  0  0  0  0  0  0  0  0  0  0  0
   24.4312  -30.1716  -15.9489 C   0  0  0  0  0  0  0  0  0  0  0  0
   24.9262  -29.1379  -15.4438 O   0  0  0  0  0  0  0  0  0  0  0  0
   30.2024  -36.3216  -16.0696 N   0  0  0  0  0  0  0  0  0  0  0  0
   23.0351  -30.3266  -15.8306 C   0  0  2  0  0  0  0  0  0  0  0  0
   22.1336  -29.2963  -16.3026 C   0  0  0  0  0  0  0  0  0  0  0  0
   22.4365  -28.8704  -17.6933 C   0  0  0  0  0  0  0  0  0  0  0  0
   21.4884  -27.8406  -18.1488 C   0  0  0  0  0  0  0  0  0  0  0  0
   20.3585  -28.2737  -18.8182 C   0  0  0  0  0  0  0  0  0  0  0  0
   19.4440  -27.3321  -19.2256 C   0  0  0  0  0  0  0  0  0  0  0  0
   19.6302  -25.9896  -18.9832 C   0  0  0  0  0  0  0  0  0  0  0  0
   20.7562  -25.5273  -18.3130 C   0  0  0  0  0  0  0  0  0  0  0  0
   21.6570  -26.4918  -17.9151 C   0  0  0  0  0  0  0  0  0  0  0  0
   20.7737  -29.8520  -16.2156 O   0  0  0  0  0  0  0  0  0  0  0  0
   19.7198  -29.0787  -15.7734 O   0  0  0  0  0  0  0  0  0  0  0  0
  2  3  1  0
  2  1  1  6
  4  3  1  0
  5  6  1  0
  5  4  1  0
  7  6  1  0
  8  2  1  0
  9  8  2  0
 10 11  1  0
 11 13  1  0
 11 12  2  0
 13 14  1  0
 14 15  1  0
 15 16  1  0
 17 16  1  1
 17 19  1  0
 17 18  1  0
 18  8  1  0
 19 21  1  0
 20 19  2  0
 21 22  1  0
 22 23  1  1
 23 24  1  0
 24 29  2  0
 25 24  1  0
 25 26  2  0
 26 27  1  0
 27 28  2  0
 29 28  1  0
 30 31  1  0
 30 22  1  0
 32 30  2  0
M  END
$$$$
