KRF.pdb
     RDKit          3D

 32 32  0  0  1  0  0  0  0  0999 V2000
   27.7796  -18.8334  -15.7025 N   0  0  0  0  0  0  0  0  0  0  0  0
   27.4450  -20.0956  -15.1261 C   0  0  1  0  0  0  0  0  0  0  0  0
   28.6060  -20.9896  -14.9019 C   0  0  0  0  0  0  0  0  0  0  0  0
   28.7434  -22.0258  -15.9570 C   0  0  0  0  0  0  0  0  0  0  0  0
   29.5008  -21.6426  -17.1830 C   0  0  0  0  0  0  0  0  0  0  0  0
   29.5473  -22.8397  -18.1686 C   0  0  0  0  0  0  0  0  0  0  0  0
   30.3757  -22.3623  -19.2786 N   0  0  0  0  0  0  0  0  0  0  0  0
   26.6724  -19.8466  -13.8629 C   0  0  0  0  0  0  0  0  0  0  0  0
   26.9573  -18.7897  -13.2265 O   0  0  0  0  0  0  0  0  0  0  0  0
   19.0361  -20.8611  -11.4668 N   0  0  0  0  0  0  0  0  0  0  0  0
   19.6171  -20.5634  -10.1958 C   0  0  0  0  0  0  0  0  0  0  0  0
   19.0771  -19.6936   -9.4002 N   0  0  0  0  0  0  0  0  0  0  0  0
   20.8052  -21.2071   -9.7559 N   0  0  0  0  0  0  0  0  0  0  0  0
   21.8444  -21.5891  -10.6668 C   0  0  0  0  0  0  0  0  0  0  0  0
   22.5978  -20.4084  -11.2625 C   0  0  0  0  0  0  0  0  0  0  0  0
   23.5114  -20.8550  -12.3582 C   0  0  0  0  0  0  0  0  0  0  0  0
   24.9372  -20.4521  -12.2133 C   0  0  2  0  0  0  0  0  0  0  0  0
   25.6860  -20.7507  -13.4225 N   0  0  0  0  0  0  0  0  0  0  0  0
   25.5663  -21.0771  -11.0325 C   0  0  0  0  0  0  0  0  0  0  0  0
   25.8965  -22.2853  -11.0466 O   0  0  0  0  0  0  0  0  0  0  0  0
   19.5775  -19.4863   -8.5127 N   0  0  0  0  0  0  0  0  0  0  0  0
   25.8269  -20.3647   -9.8444 C   0  0  2  0  0  0  0  0  0  0  0  0
   26.5115  -20.9983   -8.7367 C   0  0  0  0  0  0  0  0  0  0  0  0
   27.9212  -20.5475   -8.6080 C   0  0  0  0  0  0  0  0  0  0  0  0
   28.2113  -20.1062   -7.2339 C   0  0  0  0  0  0  0  0  0  0  0  0
   28.0463  -18.7621   -6.9537 C   0  0  0  0  0  0  0  0  0  0  0  0
   28.2815  -18.3326   -5.6696 C   0  0  0  0  0  0  0  0  0  0  0  0
   28.6716  -19.2017   -4.6755 C   0  0  0  0  0  0  0  0  0  0  0  0
   28.8448  -20.5568   -4.9296 C   0  0  0  0  0  0  0  0  0  0  0  0
   28.6022  -20.9612   -6.2247 C   0  0  0  0  0  0  0  0  0  0  0  0
   25.7486  -20.6666   -7.5227 O   0  0  0  0  0  0  0  0  0  0  0  0
   25.8322  -21.4585   -6.3957 O   0  0  0  0  0  0  0  0  0  0  0  0
  2  3  1  0
  2  1  1  1
  4  3  1  0
  5  6  1  0
  5  4  1  0
  7  6  1  0
  8  2  1  0
  9  8  2  0
 10 11  1  0
 11 13  1  0
 11 12  2  0
 13 14  1  0
 14 15  1  0
 15 16  1  0
 17 16  1  6
 17 19  1  0
 17 18  1  0
 18  8  1  0
 19 21  1  0
 20 19  2  0
 21 22  1  0
 22 23  1  1
 23 24  1  0
 24 29  2  0
 25 24  1  0
 25 26  2  0
 26 27  1  0
 27 28  2  0
 29 28  1  0
 30 31  1  0
 30 22  1  0
 32 30  2  0
M  END
$$$$
