KRF.pdb
     RDKit          3D

 32 32  0  0  1  0  0  0  0  0999 V2000
   26.1225  -35.6334  -14.7291 N   0  0  0  0  0  0  0  0  0  0  0  0
   25.9894  -36.8255  -13.9555 C   0  0  1  0  0  0  0  0  0  0  0  0
   26.7153  -37.9940  -14.5077 C   0  0  0  0  0  0  0  0  0  0  0  0
   25.8487  -39.1917  -14.6507 C   0  0  0  0  0  0  0  0  0  0  0  0
   24.4631  -39.0891  -14.1093 C   0  0  0  0  0  0  0  0  0  0  0  0
   23.7253  -40.4415  -14.2916 C   0  0  0  0  0  0  0  0  0  0  0  0
   22.3569  -40.1702  -13.8444 N   0  0  0  0  0  0  0  0  0  0  0  0
   26.4023  -36.5200  -12.5446 C   0  0  0  0  0  0  0  0  0  0  0  0
   27.6174  -36.2113  -12.3667 O   0  0  0  0  0  0  0  0  0  0  0  0
   23.6092  -31.4888   -6.0314 N   0  0  0  0  0  0  0  0  0  0  0  0
   24.3861  -31.3784   -7.2255 C   0  0  0  0  0  0  0  0  0  0  0  0
   24.7380  -30.2203   -7.6905 N   0  0  0  0  0  0  0  0  0  0  0  0
   24.8019  -32.5297   -7.9472 N   0  0  0  0  0  0  0  0  0  0  0  0
   24.4123  -33.8531   -7.5567 C   0  0  0  0  0  0  0  0  0  0  0  0
   25.3417  -34.9408   -8.0759 C   0  0  0  0  0  0  0  0  0  0  0  0
   25.1083  -35.1939   -9.5306 C   0  0  0  0  0  0  0  0  0  0  0  0
   25.9209  -36.2859  -10.1337 C   0  0  2  0  0  0  0  0  0  0  0  0
   25.4750  -36.5781  -11.4857 N   0  0  0  0  0  0  0  0  0  0  0  0
   25.9103  -37.5030   -9.2975 C   0  0  0  0  0  0  0  0  0  0  0  0
   24.9037  -38.2475   -9.2625 O   0  0  0  0  0  0  0  0  0  0  0  0
   25.3444  -30.2116   -8.5349 N   0  0  0  0  0  0  0  0  0  0  0  0
   27.0106  -37.8902   -8.5059 C   0  0  1  0  0  0  0  0  0  0  0  0
   26.9322  -39.0552   -7.6493 C   0  0  0  0  0  0  0  0  0  0  0  0
   28.0013  -40.0454   -7.9384 C   0  0  0  0  0  0  0  0  0  0  0  0
   27.6158  -40.9296   -9.0503 C   0  0  0  0  0  0  0  0  0  0  0  0
   28.3438  -40.8262  -10.2215 C   0  0  0  0  0  0  0  0  0  0  0  0
   28.0217  -41.6636  -11.2626 C   0  0  0  0  0  0  0  0  0  0  0  0
   27.0052  -42.5867  -11.1614 C   0  0  0  0  0  0  0  0  0  0  0  0
   26.2580  -42.7116   -9.9965 C   0  0  0  0  0  0  0  0  0  0  0  0
   26.6015  -41.8606   -8.9681 C   0  0  0  0  0  0  0  0  0  0  0  0
   27.0371  -38.5692   -6.2641 O   0  0  0  0  0  0  0  0  0  0  0  0
   26.9200  -39.4379   -5.1983 O   0  0  0  0  0  0  0  0  0  0  0  0
  2  3  1  0
  2  1  1  6
  4  3  1  0
  5  6  1  0
  5  4  1  0
  7  6  1  0
  8  2  1  0
  9  8  2  0
 10 11  1  0
 11 13  1  0
 11 12  2  0
 13 14  1  0
 14 15  1  0
 15 16  1  0
 17 16  1  1
 17 19  1  0
 17 18  1  0
 18  8  1  0
 19 21  1  0
 20 19  2  0
 21 22  1  0
 22 23  1  1
 23 24  1  0
 24 29  2  0
 25 24  1  0
 25 26  2  0
 26 27  1  0
 27 28  2  0
 29 28  1  0
 30 31  1  0
 30 22  1  0
 32 30  2  0
M  END
$$$$
