LYV.pdb
     RDKit          3D

 28 28  0  0  1  0  0  0  0  0999 V2000
   26.1629  -21.6941  -20.1062 C   0  0  0  0  0  0  0  0  0  0  0  0
   26.8761  -21.1086  -18.9083 C   0  0  1  0  0  0  0  0  0  0  0  0
   26.8871  -19.6159  -18.9379 C   0  0  0  0  0  0  0  0  0  0  0  0
   26.3654  -21.6324  -17.6103 C   0  0  0  0  0  0  0  0  0  0  0  0
   26.9655  -20.9706  -16.4040 C   0  0  2  0  0  0  0  0  0  0  0  0
   28.3364  -21.3965  -16.2055 N   0  0  0  0  0  0  0  0  0  0  0  0
   26.1925  -21.2963  -15.1833 C   0  0  0  0  0  0  0  0  0  0  0  0
   25.9461  -22.5056  -14.9503 O   0  0  0  0  0  0  0  0  0  0  0  0
   30.4040  -21.6233   -9.6353 O   0  0  0  0  0  0  0  0  0  0  0  0
   29.2519  -21.1537  -10.2536 C   0  0  0  0  0  0  0  0  0  0  0  0
   29.2875  -20.4625  -11.4636 C   0  0  0  0  0  0  0  0  0  0  0  0
   28.1082  -20.0187  -12.0323 C   0  0  0  0  0  0  0  0  0  0  0  0
   26.8856  -20.2362  -11.4416 C   0  0  0  0  0  0  0  0  0  0  0  0
   25.6271  -19.7850  -12.0098 C   0  0  0  0  0  0  0  0  0  0  0  0
   25.0026  -20.6149  -13.0728 C   0  0  2  0  0  0  0  0  0  0  0  0
   25.7487  -20.2700  -14.3111 N   0  0  0  0  0  0  0  0  0  0  0  0
   23.5869  -20.3212  -13.3569 C   0  0  0  0  0  0  0  0  0  0  0  0
   23.2541  -19.1499  -13.7593 O   0  0  0  0  0  0  0  0  0  0  0  0
   26.8913  -20.9261  -10.2409 C   0  0  0  0  0  0  0  0  0  0  0  0
   28.0444  -21.3847   -9.6420 C   0  0  0  0  0  0  0  0  0  0  0  0
   19.1469  -21.2883  -14.8588 C   0  0  0  0  0  0  0  0  0  0  0  0
   20.4655  -21.8575  -14.4167 C   0  0  1  0  0  0  0  0  0  0  0  0
   21.3466  -21.9424  -15.6698 C   0  0  0  0  0  0  0  0  0  0  0  0
   21.1377  -20.8244  -13.5193 C   0  0  2  0  0  0  0  0  0  0  0  0
   22.5094  -21.2335  -13.2327 N   0  0  0  0  0  0  0  0  0  0  0  0
   20.3465  -20.5321  -12.3260 C   0  0  0  0  0  0  0  0  0  0  0  0
   19.4888  -19.4523  -12.2153 O   0  0  0  0  0  0  0  0  0  0  0  0
   20.4282  -21.2850  -11.3273 O   0  0  0  0  0  0  0  0  0  0  0  0
  2  1  1  6
  2  4  1  0
  3  2  1  0
  5  4  1  0
  5  6  1  1
  7  8  2  0
  7  5  1  0
  9 10  1  0
 10 11  2  0
 11 12  1  0
 13 12  2  0
 13 14  1  0
 15 14  1  1
 15 16  1  0
 16  7  1  0
 17 18  2  0
 17 15  1  0
 19 13  1  0
 20 10  1  0
 20 19  2  0
 22 21  1  6
 23 22  1  0
 24 25  1  1
 24 22  1  0
 25 17  1  0
 26 24  1  0
 27 26  1  0
 28 26  2  0
M  END
$$$$
