LYV.pdb
     RDKit          3D

 28 28  0  0  1  0  0  0  0  0999 V2000
   29.1447  -18.2819  -15.5475 C   0  0  0  0  0  0  0  0  0  0  0  0
   28.2753  -19.4248  -15.0737 C   0  0  1  0  0  0  0  0  0  0  0  0
   29.0714  -20.6584  -14.8027 C   0  0  0  0  0  0  0  0  0  0  0  0
   27.4092  -19.0601  -13.9175 C   0  0  0  0  0  0  0  0  0  0  0  0
   26.6468  -20.2146  -13.3352 C   0  0  2  0  0  0  0  0  0  0  0  0
   25.5731  -20.6263  -14.2173 N   0  0  0  0  0  0  0  0  0  0  0  0
   26.0624  -19.8538  -12.0229 C   0  0  0  0  0  0  0  0  0  0  0  0
   25.4506  -18.7605  -11.9339 O   0  0  0  0  0  0  0  0  0  0  0  0
   19.5314  -19.6156  -11.8514 O   0  0  0  0  0  0  0  0  0  0  0  0
   20.7351  -20.0505  -11.3109 C   0  0  0  0  0  0  0  0  0  0  0  0
   21.5849  -20.9192  -11.9938 C   0  0  0  0  0  0  0  0  0  0  0  0
   22.7707  -21.3183  -11.4058 C   0  0  0  0  0  0  0  0  0  0  0  0
   23.1483  -20.8849  -10.1565 C   0  0  0  0  0  0  0  0  0  0  0  0
   24.3858  -21.2829   -9.5081 C   0  0  0  0  0  0  0  0  0  0  0  0
   25.5545  -20.3708   -9.6127 C   0  0  2  0  0  0  0  0  0  0  0  0
   26.1940  -20.7202  -10.9080 N   0  0  0  0  0  0  0  0  0  0  0  0
   26.5945  -20.5522   -8.5848 C   0  0  0  0  0  0  0  0  0  0  0  0
   27.2811  -21.6352   -8.5664 O   0  0  0  0  0  0  0  0  0  0  0  0
   22.2781  -20.0233   -9.5101 C   0  0  0  0  0  0  0  0  0  0  0  0
   21.0876  -19.6022  -10.0619 C   0  0  0  0  0  0  0  0  0  0  0  0
   27.8269  -17.7716   -5.4318 C   0  0  0  0  0  0  0  0  0  0  0  0
   28.7199  -18.7378   -6.1580 C   0  0  1  0  0  0  0  0  0  0  0  0
   29.7474  -19.2370   -5.1338 C   0  0  0  0  0  0  0  0  0  0  0  0
   27.8826  -19.9597   -6.5189 C   0  0  2  0  0  0  0  0  0  0  0  0
   26.9349  -19.6176   -7.5752 N   0  0  0  0  0  0  0  0  0  0  0  0
   27.2636  -20.5706   -5.3445 C   0  0  0  0  0  0  0  0  0  0  0  0
   27.9661  -21.2665   -4.3770 O   0  0  0  0  0  0  0  0  0  0  0  0
   26.0251  -20.4763   -5.1759 O   0  0  0  0  0  0  0  0  0  0  0  0
  2  1  1  1
  2  4  1  0
  3  2  1  0
  5  4  1  0
  5  6  1  6
  7  8  2  0
  7  5  1  0
  9 10  1  0
 10 11  2  0
 11 12  1  0
 13 12  2  0
 13 14  1  0
 15 14  1  1
 15 16  1  0
 16  7  1  0
 17 18  2  0
 17 15  1  0
 19 13  1  0
 20 10  1  0
 20 19  2  0
 22 21  1  1
 23 22  1  0
 24 25  1  6
 24 22  1  0
 25 17  1  0
 26 24  1  0
 27 26  1  0
 28 26  2  0
M  END
$$$$
