LYV.pdb
     RDKit          3D

 28 28  0  0  1  0  0  0  0  0999 V2000
   32.8135  -21.4438   -9.1684 C   0  0  0  0  0  0  0  0  0  0  0  0
   31.9139  -22.0394  -10.2278 C   0  0  1  0  0  0  0  0  0  0  0  0
   31.3590  -23.3617   -9.8121 C   0  0  0  0  0  0  0  0  0  0  0  0
   30.8424  -21.1065  -10.6771 C   0  0  0  0  0  0  0  0  0  0  0  0
   30.0211  -21.6230  -11.8224 C   0  0  2  0  0  0  0  0  0  0  0  0
   30.8537  -21.9006  -12.9756 N   0  0  0  0  0  0  0  0  0  0  0  0
   28.9872  -20.6388  -12.2173 C   0  0  0  0  0  0  0  0  0  0  0  0
   29.3380  -19.4399  -12.3479 O   0  0  0  0  0  0  0  0  0  0  0  0
   26.5688  -24.6857  -17.4415 O   0  0  0  0  0  0  0  0  0  0  0  0
   26.5876  -23.5265  -16.6759 C   0  0  0  0  0  0  0  0  0  0  0  0
   25.4373  -23.0114  -16.0802 C   0  0  0  0  0  0  0  0  0  0  0  0
   25.5166  -21.8536  -15.3289 C   0  0  0  0  0  0  0  0  0  0  0  0
   26.7026  -21.1825  -15.1448 C   0  0  0  0  0  0  0  0  0  0  0  0
   26.8234  -19.9644  -14.3624 C   0  0  0  0  0  0  0  0  0  0  0  0
   26.6332  -20.0567  -12.8914 C   0  0  2  0  0  0  0  0  0  0  0  0
   27.6467  -21.0451  -12.4388 N   0  0  0  0  0  0  0  0  0  0  0  0
   25.3288  -20.5831  -12.4524 C   0  0  0  0  0  0  0  0  0  0  0  0
   25.1856  -21.8448  -12.2737 O   0  0  0  0  0  0  0  0  0  0  0  0
   27.8226  -21.7250  -15.7520 C   0  0  0  0  0  0  0  0  0  0  0  0
   27.7853  -22.8763  -16.5083 C   0  0  0  0  0  0  0  0  0  0  0  0
   21.4691  -20.6309   -9.7332 C   0  0  0  0  0  0  0  0  0  0  0  0
   22.7476  -20.0037  -10.2130 C   0  0  1  0  0  0  0  0  0  0  0  0
   23.8833  -20.6705   -9.4261 C   0  0  0  0  0  0  0  0  0  0  0  0
   22.9560  -20.4293  -11.6621 C   0  0  2  0  0  0  0  0  0  0  0  0
   24.1686  -19.8121  -12.1911 N   0  0  0  0  0  0  0  0  0  0  0  0
   21.7686  -20.1968  -12.4816 C   0  0  0  0  0  0  0  0  0  0  0  0
   20.6473  -21.0067  -12.4611 O   0  0  0  0  0  0  0  0  0  0  0  0
   21.7338  -19.2143  -13.2592 O   0  0  0  0  0  0  0  0  0  0  0  0
  2  1  1  1
  2  4  1  0
  3  2  1  0
  5  4  1  0
  5  6  1  6
  7  8  2  0
  7  5  1  0
  9 10  1  0
 10 11  2  0
 11 12  1  0
 13 12  2  0
 13 14  1  0
 15 14  1  6
 15 16  1  0
 16  7  1  0
 17 18  2  0
 17 15  1  0
 19 13  1  0
 20 10  1  0
 20 19  2  0
 22 21  1  1
 23 22  1  0
 24 25  1  6
 24 22  1  0
 25 17  1  0
 26 24  1  0
 27 26  1  0
 28 26  2  0
M  END
$$$$
