LYV.pdb
     RDKit          3D

 28 28  0  0  1  0  0  0  0  0999 V2000
   30.2629  -19.1504  -19.1672 C   0  0  0  0  0  0  0  0  0  0  0  0
   28.9272  -18.6879  -18.6301 C   0  0  1  0  0  0  0  0  0  0  0  0
   27.8968  -18.5848  -19.7056 C   0  0  0  0  0  0  0  0  0  0  0  0
   28.4459  -19.5028  -17.4792 C   0  0  0  0  0  0  0  0  0  0  0  0
   27.0755  -19.1285  -16.9943 C   0  0  2  0  0  0  0  0  0  0  0  0
   27.0090  -17.7198  -16.6605 N   0  0  0  0  0  0  0  0  0  0  0  0
   26.7080  -19.9123  -15.7925 C   0  0  0  0  0  0  0  0  0  0  0  0
   26.7510  -21.1649  -15.8733 O   0  0  0  0  0  0  0  0  0  0  0  0
   25.8204  -21.0498   -6.9682 O   0  0  0  0  0  0  0  0  0  0  0  0
   26.0709  -20.7023   -8.2898 C   0  0  0  0  0  0  0  0  0  0  0  0
   26.4795  -21.6379   -9.2390 C   0  0  0  0  0  0  0  0  0  0  0  0
   26.7142  -21.2339  -10.5401 C   0  0  0  0  0  0  0  0  0  0  0  0
   26.5576  -19.9270  -10.9383 C   0  0  0  0  0  0  0  0  0  0  0  0
   26.7948  -19.4667  -12.2956 C   0  0  0  0  0  0  0  0  0  0  0  0
   25.9808  -20.0614  -13.3876 C   0  0  2  0  0  0  0  0  0  0  0  0
   26.3210  -19.2617  -14.5933 N   0  0  0  0  0  0  0  0  0  0  0  0
   24.5208  -19.9480  -13.2242 C   0  0  0  0  0  0  0  0  0  0  0  0
   23.9542  -18.8094  -13.3891 O   0  0  0  0  0  0  0  0  0  0  0  0
   26.1507  -19.0276   -9.9671 C   0  0  0  0  0  0  0  0  0  0  0  0
   25.9067  -19.3904   -8.6604 C   0  0  0  0  0  0  0  0  0  0  0  0
   22.0237  -21.3153  -15.1206 C   0  0  0  0  0  0  0  0  0  0  0  0
   21.4352  -21.6020  -13.7679 C   0  0  1  0  0  0  0  0  0  0  0  0
   21.7722  -23.0638  -13.4461 C   0  0  0  0  0  0  0  0  0  0  0  0
   22.2048  -20.7751  -12.7440 C   0  0  2  0  0  0  0  0  0  0  0  0
   23.6382  -21.0070  -12.8952 N   0  0  0  0  0  0  0  0  0  0  0  0
   21.7125  -20.9838  -11.3841 C   0  0  0  0  0  0  0  0  0  0  0  0
   20.4858  -20.5327  -10.9307 O   0  0  0  0  0  0  0  0  0  0  0  0
   22.4203  -21.6039  -10.5561 O   0  0  0  0  0  0  0  0  0  0  0  0
  2  1  1  6
  2  4  1  0
  3  2  1  0
  5  4  1  0
  5  6  1  1
  7  8  2  0
  7  5  1  0
  9 10  1  0
 10 11  2  0
 11 12  1  0
 13 12  2  0
 13 14  1  0
 15 14  1  1
 15 16  1  0
 16  7  1  0
 17 18  2  0
 17 15  1  0
 19 13  1  0
 20 10  1  0
 20 19  2  0
 22 21  1  6
 23 22  1  0
 24 25  1  1
 24 22  1  0
 25 17  1  0
 26 24  1  0
 27 26  1  0
 28 26  2  0
M  END
$$$$
