LYV.pdb
     RDKit          3D

 28 28  0  0  1  0  0  0  0  0999 V2000
   27.7397  -17.2958  -16.7073 C   0  0  0  0  0  0  0  0  0  0  0  0
   27.6683  -18.6050  -15.9541 C   0  0  1  0  0  0  0  0  0  0  0  0
   28.9768  -19.3240  -15.9562 C   0  0  0  0  0  0  0  0  0  0  0  0
   27.1203  -18.4577  -14.5764 C   0  0  0  0  0  0  0  0  0  0  0  0
   27.3206  -19.6637  -13.7054 C   0  0  2  0  0  0  0  0  0  0  0  0
   26.7444  -20.8460  -14.3140 N   0  0  0  0  0  0  0  0  0  0  0  0
   26.6931  -19.4670  -12.3783 C   0  0  0  0  0  0  0  0  0  0  0  0
   26.2524  -18.3240  -12.1013 O   0  0  0  0  0  0  0  0  0  0  0  0
   20.3579  -19.8225  -13.8287 O   0  0  0  0  0  0  0  0  0  0  0  0
   21.3931  -20.1741  -12.9714 C   0  0  0  0  0  0  0  0  0  0  0  0
   21.5368  -19.6039  -11.7075 C   0  0  0  0  0  0  0  0  0  0  0  0
   22.5873  -19.9930  -10.8975 C   0  0  0  0  0  0  0  0  0  0  0  0
   23.5076  -20.9335  -11.2968 C   0  0  0  0  0  0  0  0  0  0  0  0
   24.6230  -21.3665  -10.4729 C   0  0  0  0  0  0  0  0  0  0  0  0
   25.7390  -20.4109  -10.2491 C   0  0  2  0  0  0  0  0  0  0  0  0
   26.5970  -20.5399  -11.4559 N   0  0  0  0  0  0  0  0  0  0  0  0
   26.6094  -20.7107   -9.0986 C   0  0  0  0  0  0  0  0  0  0  0  0
   27.3989  -21.7199   -9.1509 O   0  0  0  0  0  0  0  0  0  0  0  0
   23.3313  -21.4767  -12.5583 C   0  0  0  0  0  0  0  0  0  0  0  0
   22.2980  -21.1158  -13.3954 C   0  0  0  0  0  0  0  0  0  0  0  0
   28.6879  -18.3907   -6.9277 C   0  0  0  0  0  0  0  0  0  0  0  0
   27.9979  -19.3007   -5.9509 C   0  0  1  0  0  0  0  0  0  0  0  0
   26.7854  -18.5280   -5.4157 C   0  0  0  0  0  0  0  0  0  0  0  0
   27.4167  -20.4693   -6.7388 C   0  0  2  0  0  0  0  0  0  0  0  0
   26.6739  -19.9698   -7.8921 N   0  0  0  0  0  0  0  0  0  0  0  0
   26.6496  -21.3792   -5.8907 C   0  0  0  0  0  0  0  0  0  0  0  0
   27.1994  -22.1188   -4.8589 O   0  0  0  0  0  0  0  0  0  0  0  0
   25.4194  -21.5199   -6.0849 O   0  0  0  0  0  0  0  0  0  0  0  0
  2  1  1  1
  2  4  1  0
  3  2  1  0
  5  4  1  0
  5  6  1  6
  7  8  2  0
  7  5  1  0
  9 10  1  0
 10 11  2  0
 11 12  1  0
 13 12  2  0
 13 14  1  0
 15 14  1  6
 15 16  1  0
 16  7  1  0
 17 18  2  0
 17 15  1  0
 19 13  1  0
 20 10  1  0
 20 19  2  0
 22 21  1  6
 23 22  1  0
 24 25  1  6
 24 22  1  0
 25 17  1  0
 26 24  1  0
 27 26  1  0
 28 26  2  0
M  END
$$$$
