LYV.pdb
     RDKit          3D

 28 28  0  0  1  0  0  0  0  0999 V2000
   29.9039  -23.3139  -18.7395 C   0  0  0  0  0  0  0  0  0  0  0  0
   29.1207  -22.1492  -18.1768 C   0  0  1  0  0  0  0  0  0  0  0  0
   28.2605  -21.5014  -19.2110 C   0  0  0  0  0  0  0  0  0  0  0  0
   28.3454  -22.5021  -16.9543 C   0  0  0  0  0  0  0  0  0  0  0  0
   27.5694  -21.3579  -16.3696 C   0  0  2  0  0  0  0  0  0  0  0  0
   28.4052  -20.1828  -16.2256 N   0  0  0  0  0  0  0  0  0  0  0  0
   27.0272  -21.7131  -15.0379 C   0  0  0  0  0  0  0  0  0  0  0  0
   26.2140  -22.6679  -14.9712 O   0  0  0  0  0  0  0  0  0  0  0  0
   25.8171  -20.3595   -6.2795 O   0  0  0  0  0  0  0  0  0  0  0  0
   26.3348  -20.4544   -7.5652 C   0  0  0  0  0  0  0  0  0  0  0  0
   27.6406  -20.0734   -7.8700 C   0  0  0  0  0  0  0  0  0  0  0  0
   28.1015  -20.1903   -9.1681 C   0  0  0  0  0  0  0  0  0  0  0  0
   27.3099  -20.6744  -10.1831 C   0  0  0  0  0  0  0  0  0  0  0  0
   27.7601  -20.8112  -11.5575 C   0  0  0  0  0  0  0  0  0  0  0  0
   26.7806  -21.2842  -12.5701 C   0  0  2  0  0  0  0  0  0  0  0  0
   27.4186  -20.9932  -13.8805 N   0  0  0  0  0  0  0  0  0  0  0  0
   25.4885  -20.5761  -12.5818 C   0  0  0  0  0  0  0  0  0  0  0  0
   25.4645  -19.3108  -12.7888 O   0  0  0  0  0  0  0  0  0  0  0  0
   26.0195  -21.0423   -9.8410 C   0  0  0  0  0  0  0  0  0  0  0  0
   25.5227  -20.9412   -8.5597 C   0  0  0  0  0  0  0  0  0  0  0  0
   23.7011  -19.8027  -14.7239 C   0  0  0  0  0  0  0  0  0  0  0  0
   22.5295  -20.2622  -13.9027 C   0  0  1  0  0  0  0  0  0  0  0  0
   22.2249  -21.7000  -14.3428 C   0  0  0  0  0  0  0  0  0  0  0  0
   22.9943  -20.3726  -12.4549 C   0  0  2  0  0  0  0  0  0  0  0  0
   24.2161  -21.1686  -12.3853 N   0  0  0  0  0  0  0  0  0  0  0  0
   21.9316  -20.8423  -11.5687 C   0  0  0  0  0  0  0  0  0  0  0  0
   21.9744  -22.0429  -10.8827 O   0  0  0  0  0  0  0  0  0  0  0  0
   20.9081  -20.1388  -11.3997 O   0  0  0  0  0  0  0  0  0  0  0  0
  2  1  1  6
  2  4  1  0
  3  2  1  0
  5  4  1  0
  5  6  1  1
  7  8  2  0
  7  5  1  0
  9 10  1  0
 10 11  2  0
 11 12  1  0
 13 12  2  0
 13 14  1  0
 15 14  1  1
 15 16  1  0
 16  7  1  0
 17 18  2  0
 17 15  1  0
 19 13  1  0
 20 10  1  0
 20 19  2  0
 22 21  1  6
 23 22  1  0
 24 25  1  6
 24 22  1  0
 25 17  1  0
 26 24  1  0
 27 26  1  0
 28 26  2  0
M  END
$$$$
