LYV.pdb
     RDKit          3D

 28 28  0  0  1  0  0  0  0  0999 V2000
   29.3647  -17.6699  -16.1301 C   0  0  0  0  0  0  0  0  0  0  0  0
   28.4875  -18.8637  -15.8268 C   0  0  1  0  0  0  0  0  0  0  0  0
   29.2795  -20.1234  -15.7041 C   0  0  0  0  0  0  0  0  0  0  0  0
   27.5988  -18.6523  -14.6498 C   0  0  0  0  0  0  0  0  0  0  0  0
   26.7960  -19.8603  -14.2635 C   0  0  2  0  0  0  0  0  0  0  0  0
   25.8204  -20.1845  -15.2851 N   0  0  0  0  0  0  0  0  0  0  0  0
   26.0796  -19.6328  -12.9873 C   0  0  0  0  0  0  0  0  0  0  0  0
   25.1573  -18.7803  -12.9763 O   0  0  0  0  0  0  0  0  0  0  0  0
   19.2212  -19.5726   -9.4772 O   0  0  0  0  0  0  0  0  0  0  0  0
   20.5005  -19.9486   -9.8674 C   0  0  0  0  0  0  0  0  0  0  0  0
   21.0951  -19.4622  -11.0306 C   0  0  0  0  0  0  0  0  0  0  0  0
   22.3715  -19.8719  -11.3686 C   0  0  0  0  0  0  0  0  0  0  0  0
   23.0857  -20.7525  -10.5905 C   0  0  0  0  0  0  0  0  0  0  0  0
   24.4278  -21.2046  -10.9141 C   0  0  0  0  0  0  0  0  0  0  0  0
   25.5634  -20.2940  -10.6144 C   0  0  2  0  0  0  0  0  0  0  0  0
   26.4299  -20.3581  -11.8202 N   0  0  0  0  0  0  0  0  0  0  0  0
   26.4153  -20.6945   -9.4808 C   0  0  0  0  0  0  0  0  0  0  0  0
   27.0097  -21.8304   -9.5089 O   0  0  0  0  0  0  0  0  0  0  0  0
   22.4614  -21.2133   -9.4435 C   0  0  0  0  0  0  0  0  0  0  0  0
   21.1913  -20.8292   -9.0720 C   0  0  0  0  0  0  0  0  0  0  0  0
   29.2408  -19.3021   -7.4565 C   0  0  0  0  0  0  0  0  0  0  0  0
   28.1899  -19.6282   -6.4331 C   0  0  1  0  0  0  0  0  0  0  0  0
   27.4384  -18.3215   -6.1472 C   0  0  0  0  0  0  0  0  0  0  0  0
   27.1680  -20.5454   -7.0955 C   0  0  2  0  0  0  0  0  0  0  0  0
   26.6622  -19.9251   -8.3164 N   0  0  0  0  0  0  0  0  0  0  0  0
   26.1199  -20.9647   -6.1676 C   0  0  0  0  0  0  0  0  0  0  0  0
   24.7803  -20.6587   -6.3286 O   0  0  0  0  0  0  0  0  0  0  0  0
   26.4204  -21.6421   -5.1567 O   0  0  0  0  0  0  0  0  0  0  0  0
  2  1  1  1
  2  4  1  0
  3  2  1  0
  5  4  1  0
  5  6  1  6
  7  8  2  0
  7  5  1  0
  9 10  1  0
 10 11  2  0
 11 12  1  0
 13 12  2  0
 13 14  1  0
 15 14  1  6
 15 16  1  0
 16  7  1  0
 17 18  2  0
 17 15  1  0
 19 13  1  0
 20 10  1  0
 20 19  2  0
 22 21  1  6
 23 22  1  0
 24 25  1  6
 24 22  1  0
 25 17  1  0
 26 24  1  0
 27 26  1  0
 28 26  2  0
M  END
$$$$
