LYV.pdb
     RDKit          3D

 28 28  0  0  1  0  0  0  0  0999 V2000
   28.5907  -17.6394  -16.2524 C   0  0  0  0  0  0  0  0  0  0  0  0
   28.1332  -18.9212  -15.5934 C   0  0  1  0  0  0  0  0  0  0  0  0
   29.2369  -19.9211  -15.4878 C   0  0  0  0  0  0  0  0  0  0  0  0
   27.4624  -18.6973  -14.2820 C   0  0  0  0  0  0  0  0  0  0  0  0
   27.1788  -19.9567  -13.5160 C   0  0  2  0  0  0  0  0  0  0  0  0
   26.2463  -20.8027  -14.2335 N   0  0  0  0  0  0  0  0  0  0  0  0
   26.6037  -19.6483  -12.1864 C   0  0  0  0  0  0  0  0  0  0  0  0
   26.0390  -18.5367  -12.0350 O   0  0  0  0  0  0  0  0  0  0  0  0
   20.4010  -20.2927  -13.2891 O   0  0  0  0  0  0  0  0  0  0  0  0
   21.5035  -20.5945  -12.4994 C   0  0  0  0  0  0  0  0  0  0  0  0
   22.4738  -21.5125  -12.8983 C   0  0  0  0  0  0  0  0  0  0  0  0
   23.5498  -21.7730  -12.0703 C   0  0  0  0  0  0  0  0  0  0  0  0
   23.7007  -21.1527  -10.8523 C   0  0  0  0  0  0  0  0  0  0  0  0
   24.8174  -21.4014   -9.9570 C   0  0  0  0  0  0  0  0  0  0  0  0
   25.8962  -20.3817   -9.8851 C   0  0  2  0  0  0  0  0  0  0  0  0
   26.6923  -20.5833  -11.1239 N   0  0  0  0  0  0  0  0  0  0  0  0
   26.8416  -20.5366   -8.7655 C   0  0  0  0  0  0  0  0  0  0  0  0
   27.5671  -21.5917   -8.6940 O   0  0  0  0  0  0  0  0  0  0  0  0
   22.7167  -20.2478  -10.4913 C   0  0  0  0  0  0  0  0  0  0  0  0
   21.6295  -19.9607  -11.2879 C   0  0  0  0  0  0  0  0  0  0  0  0
   28.9253  -19.2522   -4.5015 C   0  0  0  0  0  0  0  0  0  0  0  0
   28.2525  -18.7801   -5.7595 C   0  0  1  0  0  0  0  0  0  0  0  0
   29.3642  -18.2626   -6.6815 C   0  0  0  0  0  0  0  0  0  0  0  0
   27.6795  -20.0042   -6.4650 C   0  0  2  0  0  0  0  0  0  0  0  0
   27.0471  -19.6039   -7.7184 N   0  0  0  0  0  0  0  0  0  0  0  0
   26.8120  -20.7896   -5.5897 C   0  0  0  0  0  0  0  0  0  0  0  0
   27.2765  -21.7190   -4.6764 O   0  0  0  0  0  0  0  0  0  0  0  0
   25.5694  -20.6352   -5.6465 O   0  0  0  0  0  0  0  0  0  0  0  0
  2  1  1  1
  2  4  1  0
  3  2  1  0
  5  4  1  0
  5  6  1  6
  7  8  2  0
  7  5  1  0
  9 10  1  0
 10 11  2  0
 11 12  1  0
 13 12  2  0
 13 14  1  0
 15 14  1  1
 15 16  1  0
 16  7  1  0
 17 18  2  0
 17 15  1  0
 19 13  1  0
 20 10  1  0
 20 19  2  0
 22 21  1  1
 23 22  1  0
 24 25  1  6
 24 22  1  0
 25 17  1  0
 26 24  1  0
 27 26  1  0
 28 26  2  0
M  END
$$$$
