QIT.pdb
     RDKit          3D

 25 24  0  0  1  0  0  0  0  0999 V2000
    3.7215  -21.0033   23.3619 N   0  0  0  0  0  0  0  0  0  0  0  0
    4.8668  -20.2050   23.6318 C   0  0  0  0  0  0  0  0  0  0  0  0
    5.1928  -20.0488   24.8354 O   0  0  0  0  0  0  0  0  0  0  0  0
    5.6272  -19.5929   22.5109 C   0  0  0  0  0  0  0  0  0  0  0  0
    6.7150  -18.7381   23.1197 C   0  0  0  0  0  0  0  0  0  0  0  0
    6.5646  -17.2866   22.7541 C   0  0  2  0  0  0  0  0  0  0  0  0
    6.7316  -17.1761   21.3165 N   0  0  0  0  0  0  0  0  0  0  0  0
    7.5480  -16.4309   23.4806 C   0  0  0  0  0  0  0  0  0  0  0  0
    8.6638  -16.2708   22.9394 O   0  0  0  0  0  0  0  0  0  0  0  0
    5.9484  -12.2665   26.4735 C   0  0  0  0  0  0  0  0  0  0  0  0
    6.9152  -13.1624   25.6942 C   0  0  0  0  0  0  0  0  0  0  0  0
    7.5627  -14.2015   26.5845 C   0  0  2  0  0  0  0  0  0  0  0  0
    8.6807  -13.5681   27.4031 C   0  0  0  0  0  0  0  0  0  0  0  0
    8.1561  -15.2723   25.6834 C   0  0  2  0  0  0  0  0  0  0  0  0
    7.2538  -15.8227   24.7185 N   0  0  0  0  0  0  0  0  0  0  0  0
    8.9986  -16.2511   26.3443 C   0  0  0  0  0  0  0  0  0  0  0  0
    8.5850  -16.9444   27.2982 O   0  0  0  0  0  0  0  0  0  0  0  0
   11.4550  -18.5754   24.2614 C   0  0  0  0  0  0  0  0  0  0  0  0
   12.1790  -18.0626   25.4872 C   0  0  1  0  0  0  0  0  0  0  0  0
   12.9892  -16.9878   25.0933 O   0  0  0  0  0  0  0  0  0  0  0  0
   11.1692  -17.5316   26.4833 C   0  0  2  0  0  0  0  0  0  0  0  0
   10.3658  -16.4760   25.9319 N   0  0  0  0  0  0  0  0  0  0  0  0
   11.8768  -17.1278   27.7165 C   0  0  0  0  0  0  0  0  0  0  0  0
   12.6145  -18.0695   28.4171 O   0  0  0  0  0  0  0  0  0  0  0  0
   11.8212  -15.9401   28.1435 O   0  0  0  0  0  0  0  0  0  0  0  0
  2  1  1  0
  3  2  2  0
  4  2  1  0
  5  4  1  0
  6  5  1  0
  6  7  1  6
  8  6  1  0
  9  8  2  0
 10 11  1  0
 12 14  1  0
 12 11  1  0
 12 13  1  6
 14 15  1  1
 15  8  1  0
 16 17  2  0
 16 14  1  0
 19 18  1  6
 19 21  1  0
 19 20  1  0
 21 22  1  6
 22 16  1  0
 23 21  1  0
 24 23  1  0
 25 23  2  0
M  END
$$$$
