QIT.pdb
     RDKit          3D

 25 24  0  0  1  0  0  0  0  0999 V2000
    9.3130  -12.6564   18.0316 N   0  0  0  0  0  0  0  0  0  0  0  0
    8.0744  -13.2774   17.7120 C   0  0  0  0  0  0  0  0  0  0  0  0
    7.7385  -13.3096   16.5015 O   0  0  0  0  0  0  0  0  0  0  0  0
    7.2328  -13.8565   18.7917 C   0  0  0  0  0  0  0  0  0  0  0  0
    7.9593  -13.6306   20.0979 C   0  0  0  0  0  0  0  0  0  0  0  0
    7.9542  -14.8583   20.9673 C   0  0  2  0  0  0  0  0  0  0  0  0
    6.5988  -15.3771   20.9869 N   0  0  0  0  0  0  0  0  0  0  0  0
    8.4391  -14.5583   22.3464 C   0  0  0  0  0  0  0  0  0  0  0  0
    9.6340  -14.2079   22.4599 O   0  0  0  0  0  0  0  0  0  0  0  0
    6.0703  -11.3672   25.6996 C   0  0  0  0  0  0  0  0  0  0  0  0
    7.0252  -12.3353   24.9958 C   0  0  0  0  0  0  0  0  0  0  0  0
    7.1046  -13.6677   25.7102 C   0  0  2  0  0  0  0  0  0  0  0  0
    7.7586  -13.4933   27.0751 C   0  0  0  0  0  0  0  0  0  0  0  0
    7.9660  -14.5913   24.8642 C   0  0  2  0  0  0  0  0  0  0  0  0
    7.6069  -14.6587   23.4806 N   0  0  0  0  0  0  0  0  0  0  0  0
    8.2871  -15.8726   25.4642 C   0  0  0  0  0  0  0  0  0  0  0  0
    7.4004  -16.6585   25.8615 O   0  0  0  0  0  0  0  0  0  0  0  0
   11.4458  -19.5948   26.0067 C   0  0  0  0  0  0  0  0  0  0  0  0
   11.2211  -18.1875   25.4977 C   0  0  1  0  0  0  0  0  0  0  0  0
   10.9702  -18.2606   24.1198 O   0  0  0  0  0  0  0  0  0  0  0  0
    9.9876  -17.6049   26.1556 C   0  0  2  0  0  0  0  0  0  0  0  0
    9.6550  -16.3083   25.6341 N   0  0  0  0  0  0  0  0  0  0  0  0
   10.1808  -17.6002   27.6209 C   0  0  0  0  0  0  0  0  0  0  0  0
    9.9185  -18.7526   28.3455 O   0  0  0  0  0  0  0  0  0  0  0  0
   10.5806  -16.5650   28.2247 O   0  0  0  0  0  0  0  0  0  0  0  0
  2  1  1  0
  3  2  2  0
  4  2  1  0
  5  4  1  0
  6  5  1  0
  6  7  1  1
  8  6  1  0
  9  8  2  0
 10 11  1  0
 12 14  1  0
 12 11  1  0
 12 13  1  1
 14 15  1  6
 15  8  1  0
 16 17  2  0
 16 14  1  0
 19 18  1  1
 19 21  1  0
 19 20  1  0
 21 22  1  6
 22 16  1  0
 23 21  1  0
 24 23  1  0
 25 23  2  0
M  END
$$$$
