QIT.pdb
     RDKit          3D

 25 24  0  0  1  0  0  0  0  0999 V2000
   10.6325  -19.1286   20.4312 N   0  0  0  0  0  0  0  0  0  0  0  0
    9.6651  -18.8069   19.4399 C   0  0  0  0  0  0  0  0  0  0  0  0
    9.7441  -19.4063   18.3382 O   0  0  0  0  0  0  0  0  0  0  0  0
    8.6139  -17.7961   19.7274 C   0  0  0  0  0  0  0  0  0  0  0  0
    8.7824  -17.3698   21.1678 C   0  0  0  0  0  0  0  0  0  0  0  0
    8.8366  -15.8733   21.3117 C   0  0  2  0  0  0  0  0  0  0  0  0
    9.8535  -15.3808   20.4007 N   0  0  0  0  0  0  0  0  0  0  0  0
    9.1260  -15.4654   22.7178 C   0  0  0  0  0  0  0  0  0  0  0  0
   10.2965  -15.6344   23.1239 O   0  0  0  0  0  0  0  0  0  0  0  0
    7.0541  -11.7568   27.2859 C   0  0  0  0  0  0  0  0  0  0  0  0
    7.7649  -13.0215   26.7961 C   0  0  0  0  0  0  0  0  0  0  0  0
    7.4296  -13.3334   25.3531 C   0  0  2  0  0  0  0  0  0  0  0  0
    5.9498  -13.6699   25.2191 C   0  0  0  0  0  0  0  0  0  0  0  0
    8.2507  -14.5451   24.9429 C   0  0  2  0  0  0  0  0  0  0  0  0
    8.1421  -14.9140   23.5644 N   0  0  0  0  0  0  0  0  0  0  0  0
    8.2233  -15.6628   25.8674 C   0  0  0  0  0  0  0  0  0  0  0  0
    7.1529  -16.1191   26.3231 O   0  0  0  0  0  0  0  0  0  0  0  0
    8.9101  -18.9594   25.1808 C   0  0  0  0  0  0  0  0  0  0  0  0
    9.8676  -18.7212   26.3281 C   0  0  1  0  0  0  0  0  0  0  0  0
   11.1300  -18.4381   25.7865 O   0  0  0  0  0  0  0  0  0  0  0  0
    9.4233  -17.5029   27.1103 C   0  0  2  0  0  0  0  0  0  0  0  0
    9.4379  -16.3092   26.3112 N   0  0  0  0  0  0  0  0  0  0  0  0
   10.2510  -17.3858   28.3292 C   0  0  0  0  0  0  0  0  0  0  0  0
   10.9829  -16.2287   28.5462 O   0  0  0  0  0  0  0  0  0  0  0  0
   10.3036  -18.3214   29.1766 O   0  0  0  0  0  0  0  0  0  0  0  0
  2  1  1  0
  3  2  2  0
  4  2  1  0
  5  4  1  0
  6  5  1  0
  6  7  1  6
  8  6  1  0
  9  8  2  0
 10 11  1  0
 12 14  1  0
 12 11  1  0
 12 13  1  1
 14 15  1  6
 15  8  1  0
 16 17  2  0
 16 14  1  0
 19 18  1  6
 19 21  1  0
 19 20  1  0
 21 22  1  6
 22 16  1  0
 23 21  1  0
 24 23  1  0
 25 23  2  0
M  END
$$$$
