QIT.pdb
     RDKit          3D

 25 24  0  0  1  0  0  0  0  0999 V2000
    6.8794  -19.6237   21.1966 N   0  0  0  0  0  0  0  0  0  0  0  0
    6.6123  -18.9208   19.9897 C   0  0  0  0  0  0  0  0  0  0  0  0
    5.9497  -19.5198   19.1057 O   0  0  0  0  0  0  0  0  0  0  0  0
    7.1118  -17.5322   19.8122 C   0  0  0  0  0  0  0  0  0  0  0  0
    7.7561  -17.1163   21.1147 C   0  0  0  0  0  0  0  0  0  0  0  0
    8.1187  -15.6563   21.1253 C   0  0  2  0  0  0  0  0  0  0  0  0
    9.1024  -15.4404   20.0802 N   0  0  0  0  0  0  0  0  0  0  0  0
    8.6400  -15.2280   22.4564 C   0  0  0  0  0  0  0  0  0  0  0  0
    9.8714  -15.3405   22.6421 O   0  0  0  0  0  0  0  0  0  0  0  0
    7.3028  -11.6205   27.3672 C   0  0  0  0  0  0  0  0  0  0  0  0
    8.0119  -12.8033   26.7019 C   0  0  0  0  0  0  0  0  0  0  0  0
    7.4143  -13.1309   25.3501 C   0  0  2  0  0  0  0  0  0  0  0  0
    5.9334  -13.4578   25.4963 C   0  0  0  0  0  0  0  0  0  0  0  0
    8.1392  -14.3539   24.8121 C   0  0  2  0  0  0  0  0  0  0  0  0
    7.8022  -14.7181   23.4698 N   0  0  0  0  0  0  0  0  0  0  0  0
    8.2456  -15.4730   25.7291 C   0  0  0  0  0  0  0  0  0  0  0  0
    7.2377  -16.0658   26.1702 O   0  0  0  0  0  0  0  0  0  0  0  0
   11.8812  -17.6082   25.7293 C   0  0  0  0  0  0  0  0  0  0  0  0
   10.5054  -18.1975   25.9524 C   0  0  1  0  0  0  0  0  0  0  0  0
   10.6572  -19.3888   26.6767 O   0  0  0  0  0  0  0  0  0  0  0  0
    9.6829  -17.2498   26.8005 C   0  0  2  0  0  0  0  0  0  0  0  0
    9.5283  -15.9625   26.1819 N   0  0  0  0  0  0  0  0  0  0  0  0
   10.2818  -17.1686   28.1493 C   0  0  0  0  0  0  0  0  0  0  0  0
   10.3944  -18.3192   28.9142 O   0  0  0  0  0  0  0  0  0  0  0  0
   10.6926  -16.0695   28.6174 O   0  0  0  0  0  0  0  0  0  0  0  0
  2  1  1  0
  3  2  2  0
  4  2  1  0
  5  4  1  0
  6  5  1  0
  6  7  1  6
  8  6  1  0
  9  8  2  0
 10 11  1  0
 12 14  1  0
 12 11  1  0
 12 13  1  1
 14 15  1  6
 15  8  1  0
 16 17  2  0
 16 14  1  0
 19 18  1  1
 19 21  1  0
 19 20  1  0
 21 22  1  6
 22 16  1  0
 23 21  1  0
 24 23  1  0
 25 23  2  0
M  END
$$$$
