QIT.pdb
     RDKit          3D

 25 24  0  0  1  0  0  0  0  0999 V2000
    8.5274  -22.0435   19.6031 N   0  0  0  0  0  0  0  0  0  0  0  0
    9.5405  -21.3155   18.9210 C   0  0  0  0  0  0  0  0  0  0  0  0
   10.7300  -21.5039   19.2802 O   0  0  0  0  0  0  0  0  0  0  0  0
    9.1736  -20.3755   17.8295 C   0  0  0  0  0  0  0  0  0  0  0  0
    8.3236  -19.2858   18.4417 C   0  0  0  0  0  0  0  0  0  0  0  0
    8.7427  -17.9162   17.9815 C   0  0  2  0  0  0  0  0  0  0  0  0
    9.8122  -18.0857   17.0151 N   0  0  0  0  0  0  0  0  0  0  0  0
    9.1765  -17.0601   19.1244 C   0  0  0  0  0  0  0  0  0  0  0  0
   10.3822  -17.1230   19.4497 O   0  0  0  0  0  0  0  0  0  0  0  0
    7.0711  -12.0391   19.6607 C   0  0  0  0  0  0  0  0  0  0  0  0
    7.9684  -13.2770   19.7436 C   0  0  0  0  0  0  0  0  0  0  0  0
    7.6849  -14.0967   20.9843 C   0  0  2  0  0  0  0  0  0  0  0  0
    8.0489  -13.3026   22.2325 C   0  0  0  0  0  0  0  0  0  0  0  0
    8.5544  -15.3420   20.9202 C   0  0  2  0  0  0  0  0  0  0  0  0
    8.2864  -16.2138   19.8174 N   0  0  0  0  0  0  0  0  0  0  0  0
    8.7702  -16.0212   22.1838 C   0  0  0  0  0  0  0  0  0  0  0  0
    7.8222  -16.3561   22.9260 O   0  0  0  0  0  0  0  0  0  0  0  0
    9.9199  -19.2660   23.0968 C   0  0  0  0  0  0  0  0  0  0  0  0
   10.9223  -18.3606   23.7789 C   0  0  1  0  0  0  0  0  0  0  0  0
   12.0469  -18.2561   22.9476 O   0  0  0  0  0  0  0  0  0  0  0  0
   10.3315  -16.9736   23.9235 C   0  0  2  0  0  0  0  0  0  0  0  0
   10.0987  -16.3471   22.6518 N   0  0  0  0  0  0  0  0  0  0  0  0
   11.2021  -16.1697   24.8068 C   0  0  0  0  0  0  0  0  0  0  0  0
   11.3512  -16.5391   26.1346 O   0  0  0  0  0  0  0  0  0  0  0  0
   11.8126  -15.1521   24.3734 O   0  0  0  0  0  0  0  0  0  0  0  0
  2  1  1  0
  3  2  2  0
  4  2  1  0
  5  4  1  0
  6  5  1  0
  6  7  1  6
  8  6  1  0
  9  8  2  0
 10 11  1  0
 12 14  1  0
 12 11  1  0
 12 13  1  1
 14 15  1  6
 15  8  1  0
 16 17  2  0
 16 14  1  0
 19 18  1  6
 19 21  1  0
 19 20  1  0
 21 22  1  6
 22 16  1  0
 23 21  1  0
 24 23  1  0
 25 23  2  0
M  END
$$$$
