QIT.pdb
     RDKit          3D

 25 24  0  0  1  0  0  0  0  0999 V2000
   10.6062  -17.3975   13.5819 N   0  0  0  0  0  0  0  0  0  0  0  0
    9.2241  -17.7315   13.5904 C   0  0  0  0  0  0  0  0  0  0  0  0
    8.7378  -18.2100   12.5350 O   0  0  0  0  0  0  0  0  0  0  0  0
    8.4137  -17.5110   14.8168 C   0  0  0  0  0  0  0  0  0  0  0  0
    9.3416  -16.9615   15.8759 C   0  0  0  0  0  0  0  0  0  0  0  0
    9.1229  -17.6149   17.2132 C   0  0  2  0  0  0  0  0  0  0  0  0
    7.7215  -17.9826   17.2986 N   0  0  0  0  0  0  0  0  0  0  0  0
    9.5159  -16.7148   18.3368 C   0  0  0  0  0  0  0  0  0  0  0  0
   10.7292  -16.4270   18.4304 O   0  0  0  0  0  0  0  0  0  0  0  0
    6.9851  -12.1589   19.6985 C   0  0  0  0  0  0  0  0  0  0  0  0
    7.9964  -13.3030   19.5855 C   0  0  0  0  0  0  0  0  0  0  0  0
    7.8315  -14.3134   20.7007 C   0  0  2  0  0  0  0  0  0  0  0  0
    8.1496  -13.6690   22.0441 C   0  0  0  0  0  0  0  0  0  0  0  0
    8.8188  -15.4412   20.4478 C   0  0  2  0  0  0  0  0  0  0  0  0
    8.5805  -16.2020   19.2593 N   0  0  0  0  0  0  0  0  0  0  0  0
    9.1728  -16.2361   21.6085 C   0  0  0  0  0  0  0  0  0  0  0  0
    8.3072  -16.7756   22.3307 O   0  0  0  0  0  0  0  0  0  0  0  0
   10.6400  -19.3687   22.1236 C   0  0  0  0  0  0  0  0  0  0  0  0
   11.5936  -18.4749   22.8861 C   0  0  1  0  0  0  0  0  0  0  0  0
   12.6917  -18.2057   22.0562 O   0  0  0  0  0  0  0  0  0  0  0  0
   10.9150  -17.1548   23.1870 C   0  0  2  0  0  0  0  0  0  0  0  0
   10.5509  -16.4463   21.9915 N   0  0  0  0  0  0  0  0  0  0  0  0
   11.7834  -16.3604   24.0812 C   0  0  0  0  0  0  0  0  0  0  0  0
   11.9925  -16.7883   25.3830 O   0  0  0  0  0  0  0  0  0  0  0  0
   12.3382  -15.2986   23.6802 O   0  0  0  0  0  0  0  0  0  0  0  0
  2  1  1  0
  3  2  2  0
  4  2  1  0
  5  4  1  0
  6  5  1  0
  6  7  1  1
  8  6  1  0
  9  8  2  0
 10 11  1  0
 12 14  1  0
 12 11  1  0
 12 13  1  1
 14 15  1  6
 15  8  1  0
 16 17  2  0
 16 14  1  0
 19 18  1  6
 19 21  1  0
 19 20  1  0
 21 22  1  6
 22 16  1  0
 23 21  1  0
 24 23  1  0
 25 23  2  0
M  END
$$$$
