QIT.pdb
     RDKit          3D

 25 24  0  0  1  0  0  0  0  0999 V2000
    6.4644  -19.3668   18.3720 N   0  0  0  0  0  0  0  0  0  0  0  0
    7.1533  -18.7447   19.4492 C   0  0  0  0  0  0  0  0  0  0  0  0
    7.6400  -19.4928   20.3339 O   0  0  0  0  0  0  0  0  0  0  0  0
    7.2755  -17.2641   19.4972 C   0  0  0  0  0  0  0  0  0  0  0  0
    7.9132  -16.9086   20.8207 C   0  0  0  0  0  0  0  0  0  0  0  0
    8.1008  -15.4241   20.9772 C   0  0  2  0  0  0  0  0  0  0  0  0
    8.9925  -14.9804   19.9215 N   0  0  0  0  0  0  0  0  0  0  0  0
    8.6412  -15.0763   22.3241 C   0  0  0  0  0  0  0  0  0  0  0  0
    9.8792  -15.1663   22.4750 O   0  0  0  0  0  0  0  0  0  0  0  0
    7.3844  -11.7531   27.4350 C   0  0  0  0  0  0  0  0  0  0  0  0
    8.0440  -12.9396   26.7268 C   0  0  0  0  0  0  0  0  0  0  0  0
    7.4455  -13.1825   25.3576 C   0  0  2  0  0  0  0  0  0  0  0  0
    5.9665  -13.5256   25.4848 C   0  0  0  0  0  0  0  0  0  0  0  0
    8.1754  -14.3647   24.7409 C   0  0  2  0  0  0  0  0  0  0  0  0
    7.8136  -14.6638   23.3889 N   0  0  0  0  0  0  0  0  0  0  0  0
    8.3180  -15.5282   25.5956 C   0  0  0  0  0  0  0  0  0  0  0  0
    7.3287  -16.1264   26.0703 O   0  0  0  0  0  0  0  0  0  0  0  0
    9.9239  -18.6867   24.6856 C   0  0  0  0  0  0  0  0  0  0  0  0
   10.6130  -18.2965   25.9751 C   0  0  1  0  0  0  0  0  0  0  0  0
   11.8340  -17.6898   25.6469 O   0  0  0  0  0  0  0  0  0  0  0  0
    9.7736  -17.2674   26.7033 C   0  0  2  0  0  0  0  0  0  0  0  0
    9.6172  -16.0581   25.9438 N   0  0  0  0  0  0  0  0  0  0  0  0
   10.3557  -17.0317   28.0413 C   0  0  0  0  0  0  0  0  0  0  0  0
   10.4459  -18.0841   28.9391 O   0  0  0  0  0  0  0  0  0  0  0  0
   10.7722  -15.8885   28.3813 O   0  0  0  0  0  0  0  0  0  0  0  0
  2  1  1  0
  3  2  2  0
  4  2  1  0
  5  4  1  0
  6  5  1  0
  6  7  1  6
  8  6  1  0
  9  8  2  0
 10 11  1  0
 12 14  1  0
 12 11  1  0
 12 13  1  1
 14 15  1  6
 15  8  1  0
 16 17  2  0
 16 14  1  0
 19 18  1  6
 19 21  1  0
 19 20  1  0
 21 22  1  6
 22 16  1  0
 23 21  1  0
 24 23  1  0
 25 23  2  0
M  END
$$$$
