QIT.pdb
     RDKit          3D

 25 24  0  0  1  0  0  0  0  0999 V2000
    5.5764  -19.8256   21.9553 N   0  0  0  0  0  0  0  0  0  0  0  0
    5.1422  -19.1260   20.7960 C   0  0  0  0  0  0  0  0  0  0  0  0
    4.3850  -19.7373   20.0008 O   0  0  0  0  0  0  0  0  0  0  0  0
    5.5850  -17.7263   20.5631 C   0  0  0  0  0  0  0  0  0  0  0  0
    6.3868  -17.3016   21.7720 C   0  0  0  0  0  0  0  0  0  0  0  0
    6.7562  -15.8441   21.7218 C   0  0  2  0  0  0  0  0  0  0  0  0
    7.4811  -15.6170   20.4851 N   0  0  0  0  0  0  0  0  0  0  0  0
    7.5682  -15.4407   22.9072 C   0  0  0  0  0  0  0  0  0  0  0  0
    8.8030  -15.6229   22.8328 O   0  0  0  0  0  0  0  0  0  0  0  0
    6.0535  -11.2598   25.9671 C   0  0  0  0  0  0  0  0  0  0  0  0
    6.8438  -12.3866   25.2960 C   0  0  0  0  0  0  0  0  0  0  0  0
    6.9814  -13.5939   26.1989 C   0  0  2  0  0  0  0  0  0  0  0  0
    7.9321  -13.2839   27.3485 C   0  0  0  0  0  0  0  0  0  0  0  0
    7.5644  -14.7249   25.3673 C   0  0  2  0  0  0  0  0  0  0  0  0
    6.9912  -14.8792   24.0651 N   0  0  0  0  0  0  0  0  0  0  0  0
    7.7907  -15.9708   26.0750 C   0  0  0  0  0  0  0  0  0  0  0  0
    6.8536  -16.6240   26.5821 O   0  0  0  0  0  0  0  0  0  0  0  0
    9.0527  -19.1918   25.0165 C   0  0  0  0  0  0  0  0  0  0  0  0
    9.9988  -18.8076   26.1332 C   0  0  1  0  0  0  0  0  0  0  0  0
   11.1559  -18.2673   25.5535 O   0  0  0  0  0  0  0  0  0  0  0  0
    9.3645  -17.7242   26.9804 C   0  0  2  0  0  0  0  0  0  0  0  0
    9.1173  -16.5237   26.2310 N   0  0  0  0  0  0  0  0  0  0  0  0
   10.2063  -17.4915   28.1728 C   0  0  0  0  0  0  0  0  0  0  0  0
   10.3872  -18.5165   29.0885 O   0  0  0  0  0  0  0  0  0  0  0  0
   10.7636  -16.3754   28.3724 O   0  0  0  0  0  0  0  0  0  0  0  0
  2  1  1  0
  3  2  2  0
  4  2  1  0
  5  4  1  0
  6  5  1  0
  6  7  1  6
  8  6  1  0
  9  8  2  0
 10 11  1  0
 12 14  1  0
 12 11  1  0
 12 13  1  1
 14 15  1  6
 15  8  1  0
 16 17  2  0
 16 14  1  0
 19 18  1  6
 19 21  1  0
 19 20  1  0
 21 22  1  6
 22 16  1  0
 23 21  1  0
 24 23  1  0
 25 23  2  0
M  END
$$$$
