QIT.pdb
     RDKit          3D

 25 24  0  0  1  0  0  0  0  0999 V2000
    7.5369  -21.3986   17.5317 N   0  0  0  0  0  0  0  0  0  0  0  0
    8.8417  -21.3995   16.9667 C   0  0  0  0  0  0  0  0  0  0  0  0
    9.1732  -22.3967   16.2774 O   0  0  0  0  0  0  0  0  0  0  0  0
    9.7541  -20.2498   17.2012 C   0  0  0  0  0  0  0  0  0  0  0  0
    9.0044  -19.2463   18.0472 C   0  0  0  0  0  0  0  0  0  0  0  0
    9.3163  -17.8287   17.6522 C   0  0  2  0  0  0  0  0  0  0  0  0
   10.4147  -17.8683   16.7043 N   0  0  0  0  0  0  0  0  0  0  0  0
    9.6547  -16.9883   18.8382 C   0  0  0  0  0  0  0  0  0  0  0  0
   10.8422  -17.0170   19.2287 O   0  0  0  0  0  0  0  0  0  0  0  0
    7.0242  -12.2202   19.6627 C   0  0  0  0  0  0  0  0  0  0  0  0
    8.0518  -13.3553   19.6707 C   0  0  0  0  0  0  0  0  0  0  0  0
    7.8649  -14.2764   20.8575 C   0  0  2  0  0  0  0  0  0  0  0  0
    8.1749  -13.5346   22.1516 C   0  0  0  0  0  0  0  0  0  0  0  0
    8.8438  -15.4291   20.7024 C   0  0  2  0  0  0  0  0  0  0  0  0
    8.6972  -16.1929   19.5010 N   0  0  0  0  0  0  0  0  0  0  0  0
    9.0704  -16.2234   21.8949 C   0  0  0  0  0  0  0  0  0  0  0  0
    8.2524  -17.0854   22.2818 O   0  0  0  0  0  0  0  0  0  0  0  0
   10.0539  -18.9132   22.4783 C   0  0  0  0  0  0  0  0  0  0  0  0
   11.0557  -18.2645   23.4087 C   0  0  1  0  0  0  0  0  0  0  0  0
   12.2459  -18.0674   22.6935 O   0  0  0  0  0  0  0  0  0  0  0  0
   10.5447  -16.9019   23.8281 C   0  0  2  0  0  0  0  0  0  0  0  0
   10.2591  -16.0583   22.7009 N   0  0  0  0  0  0  0  0  0  0  0  0
   11.5104  -16.2944   24.7677 C   0  0  0  0  0  0  0  0  0  0  0  0
   11.6713  -16.8460   26.0293 O   0  0  0  0  0  0  0  0  0  0  0  0
   12.1916  -15.2817   24.4416 O   0  0  0  0  0  0  0  0  0  0  0  0
  2  1  1  0
  3  2  2  0
  4  2  1  0
  5  4  1  0
  6  5  1  0
  6  7  1  6
  8  6  1  0
  9  8  2  0
 10 11  1  0
 12 14  1  0
 12 11  1  0
 12 13  1  1
 14 15  1  6
 15  8  1  0
 16 17  2  0
 16 14  1  0
 19 18  1  6
 19 21  1  0
 19 20  1  0
 21 22  1  6
 22 16  1  0
 23 21  1  0
 24 23  1  0
 25 23  2  0
M  END
$$$$
