AMD.pdb
     RDKit          3D

 22 21  0  0  1  0  0  0  0  0999 V2000
   10.0009  -17.5258   28.0730 C   0  0  0  0  0  0  0  0  0  0  0  0
    8.5486  -17.6789   27.7728 C   0  0  2  0  0  0  0  0  0  0  0  0
    8.0510  -18.8852   28.3846 N   0  0  0  0  0  0  0  0  0  0  0  0
    8.2182  -17.6042   26.3235 C   0  0  0  0  0  0  0  0  0  0  0  0
    7.8763  -18.6243   25.6686 O   0  0  0  0  0  0  0  0  0  0  0  0
    6.9046  -11.8979   22.8191 C   0  0  0  0  0  0  0  0  0  0  0  0
    6.7284  -12.2154   24.5820 S   0  0  0  0  0  0  0  0  0  0  0  0
    6.6429  -14.0165   24.9200 C   0  0  0  0  0  0  0  0  0  0  0  0
    7.7541  -14.6422   24.0983 C   0  0  0  0  0  0  0  0  0  0  0  0
    7.8597  -16.1381   24.3337 C   0  0  2  0  0  0  0  0  0  0  0  0
    8.3057  -16.3264   25.7058 N   0  0  0  0  0  0  0  0  0  0  0  0
    8.8927  -16.6306   23.3690 C   0  0  0  0  0  0  0  0  0  0  0  0
    8.6295  -16.8127   22.1554 O   0  0  0  0  0  0  0  0  0  0  0  0
   10.1986  -16.8993   23.8259 N   0  0  0  0  0  0  0  0  0  0  0  0
   11.3030  -17.2994   22.9392 C   0  0  1  0  0  0  0  0  0  0  0  0
   11.7951  -16.1019   22.1637 C   0  0  0  0  0  0  0  0  0  0  0  0
   12.2379  -16.5111   20.8323 C   0  0  0  0  0  0  0  0  0  0  0  0
   12.0299  -17.7126   20.4649 O   0  0  0  0  0  0  0  0  0  0  0  0
   12.3466  -17.8311   23.8423 C   0  0  0  0  0  0  0  0  0  0  0  0
   13.3831  -18.3822   23.4363 O   0  0  0  0  0  0  0  0  0  0  0  0
   12.8665  -15.6408   19.9823 O   0  0  0  0  0  0  0  0  0  0  0  0
   12.2103  -17.7355   25.2419 O   0  0  0  0  0  0  0  0  0  0  0  0
  2  1  1  6
  3  2  1  0
  4 11  1  0
  4  2  1  0
  5  4  2  0
  6  7  1  0
  7  8  1  0
  8  9  1  0
 10  9  1  6
 10 11  1  0
 12 14  1  0
 12 10  1  0
 13 12  2  0
 15 14  1  0
 15 16  1  1
 17 16  1  0
 17 21  1  0
 18 17  2  0
 19 15  1  0
 20 19  2  0
 22 19  1  0
M  END
$$$$
