AMD.pdb
     RDKit          3D

 22 21  0  0  1  0  0  0  0  0999 V2000
    7.4757  -13.3944   19.4321 C   0  0  0  0  0  0  0  0  0  0  0  0
    7.7279  -14.7246   20.0565 C   0  0  2  0  0  0  0  0  0  0  0  0
    6.4867  -15.4467   20.1789 N   0  0  0  0  0  0  0  0  0  0  0  0
    8.4710  -14.6584   21.3445 C   0  0  0  0  0  0  0  0  0  0  0  0
    9.6913  -14.3498   21.3900 O   0  0  0  0  0  0  0  0  0  0  0  0
    6.1092  -11.1589   27.2695 C   0  0  0  0  0  0  0  0  0  0  0  0
    6.4082  -12.8720   26.8053 S   0  0  0  0  0  0  0  0  0  0  0  0
    7.0275  -12.9874   25.0823 C   0  0  0  0  0  0  0  0  0  0  0  0
    7.1977  -14.4692   24.8050 C   0  0  0  0  0  0  0  0  0  0  0  0
    8.3357  -14.7376   23.8369 C   0  0  2  0  0  0  0  0  0  0  0  0
    7.7420  -14.9602   22.5274 N   0  0  0  0  0  0  0  0  0  0  0  0
    9.0072  -15.9804   24.3319 C   0  0  0  0  0  0  0  0  0  0  0  0
    8.3687  -17.0432   24.5267 O   0  0  0  0  0  0  0  0  0  0  0  0
   10.3929  -15.9668   24.5883 N   0  0  0  0  0  0  0  0  0  0  0  0
   11.1357  -17.1300   25.0998 C   0  0  1  0  0  0  0  0  0  0  0  0
   12.6179  -16.8504   25.0531 C   0  0  0  0  0  0  0  0  0  0  0  0
   13.0848  -16.8367   23.6681 C   0  0  0  0  0  0  0  0  0  0  0  0
   12.3447  -17.3573   22.7719 O   0  0  0  0  0  0  0  0  0  0  0  0
   10.6577  -17.3101   26.4878 C   0  0  0  0  0  0  0  0  0  0  0  0
   10.5162  -18.4231   27.0208 O   0  0  0  0  0  0  0  0  0  0  0  0
   14.2879  -16.2845   23.3181 O   0  0  0  0  0  0  0  0  0  0  0  0
   10.3316  -16.1990   27.2913 O   0  0  0  0  0  0  0  0  0  0  0  0
  2  1  1  1
  3  2  1  0
  4 11  1  0
  4  2  1  0
  5  4  2  0
  6  7  1  0
  7  8  1  0
  8  9  1  0
 10  9  1  1
 10 11  1  0
 12 14  1  0
 12 10  1  0
 13 12  2  0
 15 14  1  0
 15 16  1  1
 17 16  1  0
 17 21  1  0
 18 17  2  0
 19 15  1  0
 20 19  2  0
 22 19  1  0
M  END
$$$$
