AMD.pdb
     RDKit          3D

 22 21  0  0  1  0  0  0  0  0999 V2000
    7.5984  -13.0382   19.6181 C   0  0  0  0  0  0  0  0  0  0  0  0
    7.8017  -14.3728   20.2507 C   0  0  2  0  0  0  0  0  0  0  0  0
    6.5327  -15.0409   20.3934 N   0  0  0  0  0  0  0  0  0  0  0  0
    8.5621  -14.3279   21.5294 C   0  0  0  0  0  0  0  0  0  0  0  0
    9.7517  -13.9170   21.5785 O   0  0  0  0  0  0  0  0  0  0  0  0
    5.5264  -11.0578   26.7958 C   0  0  0  0  0  0  0  0  0  0  0  0
    5.9105  -12.7857   26.4698 S   0  0  0  0  0  0  0  0  0  0  0  0
    7.1755  -12.9400   25.1501 C   0  0  0  0  0  0  0  0  0  0  0  0
    7.4640  -14.4244   25.0287 C   0  0  0  0  0  0  0  0  0  0  0  0
    8.5405  -14.7101   23.9973 C   0  0  2  0  0  0  0  0  0  0  0  0
    7.8861  -14.7710   22.6992 N   0  0  0  0  0  0  0  0  0  0  0  0
    9.1132  -16.0434   24.3645 C   0  0  0  0  0  0  0  0  0  0  0  0
    8.4710  -17.1079   24.1929 O   0  0  0  0  0  0  0  0  0  0  0  0
   10.4073  -16.1155   24.9179 N   0  0  0  0  0  0  0  0  0  0  0  0
   11.0553  -17.3786   25.3064 C   0  0  1  0  0  0  0  0  0  0  0  0
   12.5403  -17.2900   25.0531 C   0  0  0  0  0  0  0  0  0  0  0  0
   12.7958  -17.0436   23.6352 C   0  0  0  0  0  0  0  0  0  0  0  0
   12.1917  -17.7622   22.7747 O   0  0  0  0  0  0  0  0  0  0  0  0
   10.7556  -17.5364   26.7460 C   0  0  0  0  0  0  0  0  0  0  0  0
   10.3116  -16.6178   27.4545 O   0  0  0  0  0  0  0  0  0  0  0  0
   13.6625  -16.0694   23.2173 O   0  0  0  0  0  0  0  0  0  0  0  0
   10.9656  -18.7680   27.3986 O   0  0  0  0  0  0  0  0  0  0  0  0
  2  1  1  1
  3  2  1  0
  4 11  1  0
  4  2  1  0
  5  4  2  0
  6  7  1  0
  7  8  1  0
  8  9  1  0
 10  9  1  1
 10 11  1  0
 12 14  1  0
 12 10  1  0
 13 12  2  0
 15 14  1  0
 15 16  1  1
 17 16  1  0
 17 21  1  0
 18 17  2  0
 19 15  1  0
 20 19  2  0
 22 19  1  0
M  END
$$$$
