AMD.pdb
     RDKit          3D

 22 21  0  0  1  0  0  0  0  0999 V2000
    6.8113  -15.3170   19.7010 C   0  0  0  0  0  0  0  0  0  0  0  0
    7.2038  -13.9628   20.1858 C   0  0  2  0  0  0  0  0  0  0  0  0
    7.7765  -13.2060   19.1012 N   0  0  0  0  0  0  0  0  0  0  0  0
    8.0827  -13.9803   21.3868 C   0  0  0  0  0  0  0  0  0  0  0  0
    9.3363  -13.9042   21.2914 O   0  0  0  0  0  0  0  0  0  0  0  0
    5.9710  -12.8183   27.5028 C   0  0  0  0  0  0  0  0  0  0  0  0
    6.3863  -11.4588   26.3987 S   0  0  0  0  0  0  0  0  0  0  0  0
    6.9162  -12.0838   24.7573 C   0  0  0  0  0  0  0  0  0  0  0  0
    7.3100  -13.5324   24.9765 C   0  0  0  0  0  0  0  0  0  0  0  0
    8.2264  -14.0429   23.8793 C   0  0  2  0  0  0  0  0  0  0  0  0
    7.4447  -14.0876   22.6530 N   0  0  0  0  0  0  0  0  0  0  0  0
    8.6345  -15.4209   24.2975 C   0  0  0  0  0  0  0  0  0  0  0  0
    7.8653  -16.4045   24.1706 O   0  0  0  0  0  0  0  0  0  0  0  0
    9.9146  -15.6296   24.8490 N   0  0  0  0  0  0  0  0  0  0  0  0
   10.4264  -16.9544   25.2352 C   0  0  1  0  0  0  0  0  0  0  0  0
   11.9254  -16.9924   25.0652 C   0  0  0  0  0  0  0  0  0  0  0  0
   12.2676  -17.2532   23.6683 C   0  0  0  0  0  0  0  0  0  0  0  0
   11.3497  -17.6549   22.8822 O   0  0  0  0  0  0  0  0  0  0  0  0
   10.0335  -17.1194   26.6514 C   0  0  0  0  0  0  0  0  0  0  0  0
    9.6389  -16.1809   27.3631 O   0  0  0  0  0  0  0  0  0  0  0  0
   13.5399  -17.0790   23.1929 O   0  0  0  0  0  0  0  0  0  0  0  0
   10.0901  -18.3815   27.2763 O   0  0  0  0  0  0  0  0  0  0  0  0
  2  1  1  6
  3  2  1  0
  4 11  1  0
  4  2  1  0
  5  4  2  0
  6  7  1  0
  7  8  1  0
  8  9  1  0
 10  9  1  1
 10 11  1  0
 12 14  1  0
 12 10  1  0
 13 12  2  0
 15 14  1  0
 15 16  1  1
 17 16  1  0
 17 21  1  0
 18 17  2  0
 19 15  1  0
 20 19  2  0
 22 19  1  0
M  END
$$$$
