AMD.pdb
     RDKit          3D

 22 21  0  0  1  0  0  0  0  0999 V2000
    7.4504  -18.1114   20.1083 C   0  0  0  0  0  0  0  0  0  0  0  0
    7.7346  -16.6560   19.9540 C   0  0  2  0  0  0  0  0  0  0  0  0
    8.3837  -16.4194   18.6892 N   0  0  0  0  0  0  0  0  0  0  0  0
    8.4856  -16.0610   21.0930 C   0  0  0  0  0  0  0  0  0  0  0  0
    9.7400  -15.9489   21.0728 O   0  0  0  0  0  0  0  0  0  0  0  0
    6.9352  -11.5831   27.4041 C   0  0  0  0  0  0  0  0  0  0  0  0
    6.4077  -12.8231   26.2110 S   0  0  0  0  0  0  0  0  0  0  0  0
    7.8504  -13.5744   25.3626 C   0  0  0  0  0  0  0  0  0  0  0  0
    7.2859  -14.2985   24.1549 C   0  0  0  0  0  0  0  0  0  0  0  0
    8.3743  -14.9690   23.3362 C   0  0  2  0  0  0  0  0  0  0  0  0
    7.7239  -15.6229   22.2109 N   0  0  0  0  0  0  0  0  0  0  0  0
    9.0032  -15.9792   24.2442 C   0  0  0  0  0  0  0  0  0  0  0  0
    8.4080  -17.0348   24.5708 O   0  0  0  0  0  0  0  0  0  0  0  0
   10.2980  -15.7480   24.7504 N   0  0  0  0  0  0  0  0  0  0  0  0
   11.0655  -16.7510   25.5062 C   0  0  1  0  0  0  0  0  0  0  0  0
   12.5019  -16.3059   25.6330 C   0  0  0  0  0  0  0  0  0  0  0  0
   13.1527  -16.3250   24.3244 C   0  0  0  0  0  0  0  0  0  0  0  0
   12.6563  -17.0581   23.4091 O   0  0  0  0  0  0  0  0  0  0  0  0
   10.4001  -16.8295   26.8247 C   0  0  0  0  0  0  0  0  0  0  0  0
    9.8269  -15.8648   27.3574 O   0  0  0  0  0  0  0  0  0  0  0  0
   14.2732  -15.5818   24.0654 O   0  0  0  0  0  0  0  0  0  0  0  0
   10.3849  -18.0333   27.5577 O   0  0  0  0  0  0  0  0  0  0  0  0
  2  1  1  1
  3  2  1  0
  4 11  1  0
  4  2  1  0
  5  4  2  0
  6  7  1  0
  7  8  1  0
  8  9  1  0
 10  9  1  1
 10 11  1  0
 12 14  1  0
 12 10  1  0
 13 12  2  0
 15 14  1  0
 15 16  1  1
 17 16  1  0
 17 21  1  0
 18 17  2  0
 19 15  1  0
 20 19  2  0
 22 19  1  0
M  END
$$$$
