AMD.pdb
     RDKit          3D

 22 21  0  0  1  0  0  0  0  0999 V2000
    7.4908  -12.9572   19.5042 C   0  0  0  0  0  0  0  0  0  0  0  0
    7.7210  -14.2318   20.2427 C   0  0  2  0  0  0  0  0  0  0  0  0
    6.4819  -14.9595   20.3533 N   0  0  0  0  0  0  0  0  0  0  0  0
    8.3912  -14.0563   21.5601 C   0  0  0  0  0  0  0  0  0  0  0  0
    9.5704  -13.6231   21.6508 O   0  0  0  0  0  0  0  0  0  0  0  0
    7.1356  -11.8530   27.8543 C   0  0  0  0  0  0  0  0  0  0  0  0
    6.0196  -12.0468   26.4555 S   0  0  0  0  0  0  0  0  0  0  0  0
    6.9447  -12.4825   24.9324 C   0  0  0  0  0  0  0  0  0  0  0  0
    7.2286  -13.9692   25.0350 C   0  0  0  0  0  0  0  0  0  0  0  0
    8.2726  -14.4177   24.0283 C   0  0  2  0  0  0  0  0  0  0  0  0
    7.6408  -14.4004   22.7178 N   0  0  0  0  0  0  0  0  0  0  0  0
    8.6423  -15.8144   24.4195 C   0  0  0  0  0  0  0  0  0  0  0  0
    7.8145  -16.7562   24.3659 O   0  0  0  0  0  0  0  0  0  0  0  0
    9.9524  -16.0891   24.8603 N   0  0  0  0  0  0  0  0  0  0  0  0
   10.5118  -17.4477   24.9476 C   0  0  1  0  0  0  0  0  0  0  0  0
   11.8161  -17.5127   24.1914 C   0  0  0  0  0  0  0  0  0  0  0  0
   12.4097  -18.8418   24.3239 C   0  0  0  0  0  0  0  0  0  0  0  0
   11.6490  -19.8214   24.6126 O   0  0  0  0  0  0  0  0  0  0  0  0
   10.7066  -17.6901   26.3935 C   0  0  0  0  0  0  0  0  0  0  0  0
   11.0415  -18.7911   26.8610 O   0  0  0  0  0  0  0  0  0  0  0  0
   13.7512  -19.0532   24.1487 O   0  0  0  0  0  0  0  0  0  0  0  0
   10.5163  -16.6568   27.3331 O   0  0  0  0  0  0  0  0  0  0  0  0
  2  1  1  1
  3  2  1  0
  4 11  1  0
  4  2  1  0
  5  4  2  0
  6  7  1  0
  7  8  1  0
  8  9  1  0
 10  9  1  1
 10 11  1  0
 12 14  1  0
 12 10  1  0
 13 12  2  0
 15 14  1  0
 15 16  1  6
 17 16  1  0
 17 21  1  0
 18 17  2  0
 19 15  1  0
 20 19  2  0
 22 19  1  0
M  END
$$$$
