AMD.pdb
     RDKit          3D

 22 21  0  0  1  0  0  0  0  0999 V2000
    7.1350  -15.0851   20.0230 C   0  0  0  0  0  0  0  0  0  0  0  0
    7.8369  -15.8820   21.0695 C   0  0  2  0  0  0  0  0  0  0  0  0
    6.9227  -16.8324   21.6508 N   0  0  0  0  0  0  0  0  0  0  0  0
    8.5235  -15.0569   22.1006 C   0  0  0  0  0  0  0  0  0  0  0  0
    9.5034  -14.3192   21.8139 O   0  0  0  0  0  0  0  0  0  0  0  0
    7.1959  -11.4194   27.5057 C   0  0  0  0  0  0  0  0  0  0  0  0
    5.9251  -12.2737   26.5598 S   0  0  0  0  0  0  0  0  0  0  0  0
    6.6325  -13.0390   25.0501 C   0  0  0  0  0  0  0  0  0  0  0  0
    7.6076  -14.0922   25.5415 C   0  0  0  0  0  0  0  0  0  0  0  0
    8.6734  -14.4047   24.5067 C   0  0  2  0  0  0  0  0  0  0  0  0
    8.0247  -15.1370   23.4297 N   0  0  0  0  0  0  0  0  0  0  0  0
    9.6778  -15.2681   25.2040 C   0  0  0  0  0  0  0  0  0  0  0  0
   10.2723  -14.8842   26.2405 O   0  0  0  0  0  0  0  0  0  0  0  0
    9.9700  -16.5477   24.6908 N   0  0  0  0  0  0  0  0  0  0  0  0
   10.9497  -17.4623   25.2991 C   0  0  1  0  0  0  0  0  0  0  0  0
   10.2663  -18.7437   25.7093 C   0  0  0  0  0  0  0  0  0  0  0  0
   10.3426  -18.9137   27.1590 C   0  0  0  0  0  0  0  0  0  0  0  0
   10.9737  -18.0427   27.8409 O   0  0  0  0  0  0  0  0  0  0  0  0
   11.9613  -17.6963   24.2458 C   0  0  0  0  0  0  0  0  0  0  0  0
   11.6830  -17.7683   23.0374 O   0  0  0  0  0  0  0  0  0  0  0  0
    9.7589  -19.9784   27.7920 O   0  0  0  0  0  0  0  0  0  0  0  0
   13.3235  -17.8531   24.5722 O   0  0  0  0  0  0  0  0  0  0  0  0
  2  1  1  6
  3  2  1  0
  4 11  1  0
  4  2  1  0
  5  4  2  0
  6  7  1  0
  7  8  1  0
  8  9  1  0
 10  9  1  1
 10 11  1  0
 12 14  1  0
 12 10  1  0
 13 12  2  0
 15 14  1  0
 15 16  1  6
 17 16  1  0
 17 21  1  0
 18 17  2  0
 19 15  1  0
 20 19  2  0
 22 19  1  0
M  END
$$$$
