AMD.pdb
     RDKit          3D

 22 21  0  0  1  0  0  0  0  0999 V2000
    6.9131  -14.6925   19.1973 C   0  0  0  0  0  0  0  0  0  0  0  0
    7.4817  -13.4817   19.8558 C   0  0  2  0  0  0  0  0  0  0  0  0
    8.4203  -12.8421   18.9686 N   0  0  0  0  0  0  0  0  0  0  0  0
    8.0639  -13.7405   21.2009 C   0  0  0  0  0  0  0  0  0  0  0  0
    9.2912  -13.9766   21.3572 O   0  0  0  0  0  0  0  0  0  0  0  0
    8.1340  -11.9592   28.1799 C   0  0  0  0  0  0  0  0  0  0  0  0
    7.4236  -11.9920   26.5265 S   0  0  0  0  0  0  0  0  0  0  0  0
    6.9223  -13.6941   26.0604 C   0  0  0  0  0  0  0  0  0  0  0  0
    6.5053  -13.6155   24.6038 C   0  0  0  0  0  0  0  0  0  0  0  0
    7.6764  -13.8456   23.6658 C   0  0  2  0  0  0  0  0  0  0  0  0
    7.1719  -13.7105   22.3079 N   0  0  0  0  0  0  0  0  0  0  0  0
    8.1353  -15.2469   23.9231 C   0  0  0  0  0  0  0  0  0  0  0  0
    7.4158  -16.2382   23.6495 O   0  0  0  0  0  0  0  0  0  0  0  0
    9.4077  -15.4693   24.4869 N   0  0  0  0  0  0  0  0  0  0  0  0
   10.0166  -16.8029   24.6170 C   0  0  1  0  0  0  0  0  0  0  0  0
   11.4387  -16.7666   24.1134 C   0  0  0  0  0  0  0  0  0  0  0  0
   12.0964  -18.0467   24.3684 C   0  0  0  0  0  0  0  0  0  0  0  0
   11.4314  -19.1181   24.1903 O   0  0  0  0  0  0  0  0  0  0  0  0
    9.9571  -17.1123   26.0620 C   0  0  0  0  0  0  0  0  0  0  0  0
    9.7981  -16.2467   26.9385 O   0  0  0  0  0  0  0  0  0  0  0  0
   13.3966  -18.1177   24.7920 O   0  0  0  0  0  0  0  0  0  0  0  0
   10.0817  -18.4380   26.5244 O   0  0  0  0  0  0  0  0  0  0  0  0
  2  1  1  6
  3  2  1  0
  4 11  1  0
  4  2  1  0
  5  4  2  0
  6  7  1  0
  7  8  1  0
  8  9  1  0
 10  9  1  1
 10 11  1  0
 12 14  1  0
 12 10  1  0
 13 12  2  0
 15 14  1  0
 15 16  1  1
 17 16  1  0
 17 21  1  0
 18 17  2  0
 19 15  1  0
 20 19  2  0
 22 19  1  0
M  END
$$$$
