WPA.pdb
     RDKit          3D

 27 29  0  0  1  0  0  0  0  0999 V2000
   24.5753  -28.6399  -19.2471 N   0  0  0  0  0  0  0  0  0  0  0  0
   25.5814  -28.5229  -18.2519 C   0  0  1  0  0  0  0  0  0  0  0  0
   25.4103  -29.4620  -17.0863 C   0  0  0  0  0  0  0  0  0  0  0  0
   24.1262  -29.2863  -16.3844 C   0  0  0  0  0  0  0  0  0  0  0  0
   23.3070  -28.1846  -16.3580 C   0  0  0  0  0  0  0  0  0  0  0  0
   22.2499  -28.4753  -15.5952 N   0  0  0  0  0  0  0  0  0  0  0  0
   22.3481  -29.7134  -15.1277 C   0  0  0  0  0  0  0  0  0  0  0  0
   21.5495  -30.5049  -14.3075 C   0  0  0  0  0  0  0  0  0  0  0  0
   21.9161  -31.7916  -13.9811 C   0  0  0  0  0  0  0  0  0  0  0  0
   23.0873  -32.3300  -14.4600 C   0  0  0  0  0  0  0  0  0  0  0  0
   23.8764  -31.5498  -15.2696 C   0  0  0  0  0  0  0  0  0  0  0  0
   23.5107  -30.2393  -15.6068 C   0  0  0  0  0  0  0  0  0  0  0  0
   26.9353  -28.5975  -18.8393 C   0  0  0  0  0  0  0  0  0  0  0  0
   27.0666  -29.1744  -19.9803 O   0  0  0  0  0  0  0  0  0  0  0  0
   28.1229  -28.0836  -18.2511 N   0  0  0  0  0  0  0  0  0  0  0  0
   28.2103  -27.4435  -16.9615 C   0  0  0  0  0  0  0  0  0  0  0  0
   29.6289  -26.8696  -16.8789 C   0  0  0  0  0  0  0  0  0  0  0  0
   30.0808  -26.8656  -18.3511 C   0  0  0  0  0  0  0  0  0  0  0  0
   29.4160  -28.1270  -18.8324 C   0  0  1  0  0  0  0  0  0  0  0  0
   30.2522  -29.2606  -18.3510 C   0  0  0  0  0  0  0  0  0  0  0  0
   30.2179  -29.5763  -17.1368 O   0  0  0  0  0  0  0  0  0  0  0  0
   32.2280  -32.0223  -20.0532 C   0  0  0  0  0  0  0  0  0  0  0  0
   31.6884  -31.2753  -18.8777 C   0  0  2  0  0  0  0  0  0  0  0  0
   31.0919  -30.0011  -19.2218 N   0  0  0  0  0  0  0  0  0  0  0  0
   32.7844  -31.0015  -17.9049 C   0  0  0  0  0  0  0  0  0  0  0  0
   33.4573  -29.9412  -17.9468 O   0  0  0  0  0  0  0  0  0  0  0  0
   33.1084  -31.9232  -16.8991 O   0  0  0  0  0  0  0  0  0  0  0  0
  2  1  1  6
  2 13  1  0
  3  2  1  0
  4  3  1  0
  4  5  2  0
  6  5  1  0
  7  6  1  0
  8  7  2  0
  9  8  1  0
 10  9  2  0
 10 11  1  0
 11 12  2  0
 12  7  1  0
 12  4  1  0
 13 14  2  0
 15 13  1  0
 15 16  1  0
 17 16  1  0
 18 17  1  0
 19 18  1  0
 19 15  1  0
 19 20  1  1
 21 20  2  0
 23 22  1  6
 23 24  1  0
 24 20  1  0
 25 23  1  0
 25 27  1  0
 26 25  2  0
M  END
$$$$
