WPA.pdb
     RDKit          3D

 27 29  0  0  1  0  0  0  0  0999 V2000
   25.4307  -22.5642  -13.4713 N   0  0  0  0  0  0  0  0  0  0  0  0
   25.3605  -21.7369  -12.3193 C   0  0  1  0  0  0  0  0  0  0  0  0
   24.0432  -21.8011  -11.5913 C   0  0  0  0  0  0  0  0  0  0  0  0
   23.0801  -20.7818  -12.0453 C   0  0  0  0  0  0  0  0  0  0  0  0
   22.9823  -20.1826  -13.2769 C   0  0  0  0  0  0  0  0  0  0  0  0
   21.9622  -19.3215  -13.2363 N   0  0  0  0  0  0  0  0  0  0  0  0
   21.3966  -19.3365  -12.0360 C   0  0  0  0  0  0  0  0  0  0  0  0
   20.3274  -18.6560  -11.4608 C   0  0  0  0  0  0  0  0  0  0  0  0
   19.9569  -18.8829  -10.1539 C   0  0  0  0  0  0  0  0  0  0  0  0
   20.6379  -19.7928   -9.3798 C   0  0  0  0  0  0  0  0  0  0  0  0
   21.6933  -20.4651   -9.9464 C   0  0  0  0  0  0  0  0  0  0  0  0
   22.0770  -20.2402  -11.2757 C   0  0  0  0  0  0  0  0  0  0  0  0
   26.5110  -21.9626  -11.4198 C   0  0  0  0  0  0  0  0  0  0  0  0
   26.6191  -23.1124  -10.8559 O   0  0  0  0  0  0  0  0  0  0  0  0
   27.5234  -21.0123  -11.1156 N   0  0  0  0  0  0  0  0  0  0  0  0
   27.6993  -19.7375  -11.7669 C   0  0  0  0  0  0  0  0  0  0  0  0
   29.0373  -19.1921  -11.2561 C   0  0  0  0  0  0  0  0  0  0  0  0
   29.7178  -20.4467  -10.6778 C   0  0  0  0  0  0  0  0  0  0  0  0
   28.5179  -21.1595  -10.1149 C   0  0  1  0  0  0  0  0  0  0  0  0
   28.1825  -20.4827   -8.8321 C   0  0  0  0  0  0  0  0  0  0  0  0
   27.3315  -19.5603   -8.8289 O   0  0  0  0  0  0  0  0  0  0  0  0
   29.0573  -21.0420   -5.1642 C   0  0  0  0  0  0  0  0  0  0  0  0
   28.2864  -20.4623   -6.3047 C   0  0  2  0  0  0  0  0  0  0  0  0
   28.7950  -20.8459   -7.6054 N   0  0  0  0  0  0  0  0  0  0  0  0
   28.3243  -18.9736   -6.2372 C   0  0  0  0  0  0  0  0  0  0  0  0
   27.5898  -18.3276   -5.4486 O   0  0  0  0  0  0  0  0  0  0  0  0
   29.1872  -18.2322   -7.0569 O   0  0  0  0  0  0  0  0  0  0  0  0
  2  1  1  6
  2 13  1  0
  3  2  1  0
  4  3  1  0
  4  5  2  0
  6  5  1  0
  7  6  1  0
  8  7  2  0
  9  8  1  0
 10  9  2  0
 10 11  1  0
 11 12  2  0
 12  7  1  0
 12  4  1  0
 13 14  2  0
 15 13  1  0
 15 16  1  0
 17 16  1  0
 18 17  1  0
 19 18  1  0
 19 15  1  0
 19 20  1  1
 21 20  2  0
 23 22  1  1
 23 24  1  0
 24 20  1  0
 25 23  1  0
 25 27  1  0
 26 25  2  0
M  END
$$$$
