WPA.pdb
     RDKit          3D

 27 29  0  0  1  0  0  0  0  0999 V2000
   24.3570  -19.7527   -9.6123 N   0  0  0  0  0  0  0  0  0  0  0  0
   25.6965  -19.9497  -10.0404 C   0  0  1  0  0  0  0  0  0  0  0  0
   26.4586  -20.9710   -9.2368 C   0  0  0  0  0  0  0  0  0  0  0  0
   26.4408  -20.6990   -7.7882 C   0  0  0  0  0  0  0  0  0  0  0  0
   25.3785  -20.7471   -6.9196 C   0  0  0  0  0  0  0  0  0  0  0  0
   25.8262  -20.4261   -5.7029 N   0  0  0  0  0  0  0  0  0  0  0  0
   27.1282  -20.1729   -5.7452 C   0  0  0  0  0  0  0  0  0  0  0  0
   28.0739  -19.8019   -4.7939 C   0  0  0  0  0  0  0  0  0  0  0  0
   29.3923  -19.6023   -5.1381 C   0  0  0  0  0  0  0  0  0  0  0  0
   29.8102  -19.7655   -6.4379 C   0  0  0  0  0  0  0  0  0  0  0  0
   28.8778  -20.1316   -7.3778 C   0  0  0  0  0  0  0  0  0  0  0  0
   27.5339  -20.3368   -7.0360 C   0  0  0  0  0  0  0  0  0  0  0  0
   25.7678  -20.2110  -11.4931 C   0  0  0  0  0  0  0  0  0  0  0  0
   24.6837  -20.5389  -12.1007 O   0  0  0  0  0  0  0  0  0  0  0  0
   26.9408  -20.1328  -12.2922 N   0  0  0  0  0  0  0  0  0  0  0  0
   28.2927  -20.0767  -11.7930 C   0  0  0  0  0  0  0  0  0  0  0  0
   29.1720  -19.7724  -13.0107 C   0  0  0  0  0  0  0  0  0  0  0  0
   28.1567  -19.2408  -14.0394 C   0  0  0  0  0  0  0  0  0  0  0  0
   26.9718  -20.1081  -13.7101 C   0  0  1  0  0  0  0  0  0  0  0  0
   27.2314  -21.4377  -14.3274 C   0  0  0  0  0  0  0  0  0  0  0  0
   27.8380  -22.3141  -13.6649 O   0  0  0  0  0  0  0  0  0  0  0  0
   25.0374  -23.3757  -15.1298 C   0  0  0  0  0  0  0  0  0  0  0  0
   26.1777  -22.9975  -16.0173 C   0  0  2  0  0  0  0  0  0  0  0  0
   26.8148  -21.7507  -15.6466 N   0  0  0  0  0  0  0  0  0  0  0  0
   25.6993  -22.8486  -17.4213 C   0  0  0  0  0  0  0  0  0  0  0  0
   25.5830  -21.7219  -17.9652 O   0  0  0  0  0  0  0  0  0  0  0  0
   25.3585  -23.9680  -18.1939 O   0  0  0  0  0  0  0  0  0  0  0  0
  2  1  1  1
  2 13  1  0
  3  2  1  0
  4  3  1  0
  4  5  2  0
  6  5  1  0
  7  6  1  0
  8  7  2  0
  9  8  1  0
 10  9  2  0
 10 11  1  0
 11 12  2  0
 12  7  1  0
 12  4  1  0
 13 14  2  0
 15 13  1  0
 15 16  1  0
 17 16  1  0
 18 17  1  0
 19 18  1  0
 19 15  1  0
 19 20  1  6
 21 20  2  0
 23 22  1  1
 23 24  1  0
 24 20  1  0
 25 23  1  0
 25 27  1  0
 26 25  2  0
M  END
$$$$
