WPA.pdb
     RDKit          3D

 27 29  0  0  1  0  0  0  0  0999 V2000
   24.8323  -18.5172   -9.3585 N   0  0  0  0  0  0  0  0  0  0  0  0
   25.9010  -19.3673   -9.7478 C   0  0  1  0  0  0  0  0  0  0  0  0
   26.3540  -20.3223   -8.6743 C   0  0  0  0  0  0  0  0  0  0  0  0
   26.9741  -19.6457   -7.5210 C   0  0  0  0  0  0  0  0  0  0  0  0
   26.9107  -18.3200   -7.1686 C   0  0  0  0  0  0  0  0  0  0  0  0
   27.6227  -18.1563   -6.0505 N   0  0  0  0  0  0  0  0  0  0  0  0
   28.1431  -19.3144   -5.6644 C   0  0  0  0  0  0  0  0  0  0  0  0
   28.9467  -19.7074   -4.5982 C   0  0  0  0  0  0  0  0  0  0  0  0
   29.3436  -21.0175   -4.4485 C   0  0  0  0  0  0  0  0  0  0  0  0
   28.9537  -21.9763   -5.3538 C   0  0  0  0  0  0  0  0  0  0  0  0
   28.1605  -21.5897   -6.4066 C   0  0  0  0  0  0  0  0  0  0  0  0
   27.7520  -20.2584   -6.5665 C   0  0  0  0  0  0  0  0  0  0  0  0
   25.6097  -20.0535  -11.0237 C   0  0  0  0  0  0  0  0  0  0  0  0
   24.3791  -20.1863  -11.3698 O   0  0  0  0  0  0  0  0  0  0  0  0
   26.5780  -20.5884  -11.9164 N   0  0  0  0  0  0  0  0  0  0  0  0
   27.9219  -20.9740  -11.5622 C   0  0  0  0  0  0  0  0  0  0  0  0
   28.6321  -21.2675  -12.8881 C   0  0  0  0  0  0  0  0  0  0  0  0
   27.7203  -20.5810  -13.9219 C   0  0  0  0  0  0  0  0  0  0  0  0
   26.3756  -20.8396  -13.2977 C   0  0  1  0  0  0  0  0  0  0  0  0
   26.0273  -22.2539  -13.6052 C   0  0  0  0  0  0  0  0  0  0  0  0
   26.9281  -23.1274  -13.5795 O   0  0  0  0  0  0  0  0  0  0  0  0
   24.9072  -22.7374  -16.3818 C   0  0  0  0  0  0  0  0  0  0  0  0
   24.3477  -23.3558  -15.1427 C   0  0  2  0  0  0  0  0  0  0  0  0
   24.7047  -22.6515  -13.9285 N   0  0  0  0  0  0  0  0  0  0  0  0
   24.8461  -24.7541  -15.0048 C   0  0  0  0  0  0  0  0  0  0  0  0
   25.9260  -25.1267  -15.5279 O   0  0  0  0  0  0  0  0  0  0  0  0
   24.1236  -25.7134  -14.2810 O   0  0  0  0  0  0  0  0  0  0  0  0
  2  1  1  1
  2 13  1  0
  3  2  1  0
  4  3  1  0
  4  5  2  0
  6  5  1  0
  7  6  1  0
  8  7  2  0
  9  8  1  0
 10  9  2  0
 10 11  1  0
 11 12  2  0
 12  7  1  0
 12  4  1  0
 13 14  2  0
 15 13  1  0
 15 16  1  0
 17 16  1  0
 18 17  1  0
 19 18  1  0
 19 15  1  0
 19 20  1  1
 21 20  2  0
 23 22  1  6
 23 24  1  0
 24 20  1  0
 25 23  1  0
 25 27  1  0
 26 25  2  0
M  END
$$$$
