SFG.pdb
     RDKit          3D

 22 22  0  0  1  0  0  0  0  0999 V2000
   20.0933   -8.3274  -20.4534 O   0  0  0  0  0  0  0  0  0  0  0  0
   21.2472   -7.6051  -20.2380 C   0  0  0  0  0  0  0  0  0  0  0  0
   22.0407   -8.0900  -19.0341 C   0  0  2  0  0  0  0  0  0  0  0  0
   21.8585   -9.5264  -18.9806 N   0  0  0  0  0  0  0  0  0  0  0  0
   21.5417   -7.4993  -17.7799 C   0  0  0  0  0  0  0  0  0  0  0  0
   20.6227   -8.0468  -17.1513 O   0  0  0  0  0  0  0  0  0  0  0  0
   22.0815   -6.2866  -17.2329 N   0  0  0  0  0  0  0  0  0  0  0  0
   21.6802   -5.7172  -16.0028 C   0  0  1  0  0  0  0  0  0  0  0  0
   22.6655   -5.8177  -14.8498 C   0  0  0  0  0  0  0  0  0  0  0  0
   23.0324   -7.1937  -14.5018 C   0  0  0  0  0  0  0  0  0  0  0  0
   24.1128   -7.7831  -15.1221 C   0  0  0  0  0  0  0  0  0  0  0  0
   24.4985   -9.1013  -14.8322 C   0  0  0  0  0  0  0  0  0  0  0  0
   23.7855   -9.8261  -13.9087 C   0  0  0  0  0  0  0  0  0  0  0  0
   22.7157   -9.2203  -13.3050 C   0  0  0  0  0  0  0  0  0  0  0  0
   22.3263   -7.9136  -13.5868 C   0  0  0  0  0  0  0  0  0  0  0  0
   20.9962   -4.4112  -16.0770 C   0  0  0  0  0  0  0  0  0  0  0  0
   21.6150   -3.3166  -16.1469 O   0  0  0  0  0  0  0  0  0  0  0  0
   19.5636   -4.2929  -16.0748 N   0  0  0  0  0  0  0  0  0  0  0  0
   18.8841   -3.0379  -16.1757 C   0  0  0  0  0  0  0  0  0  0  0  0
   18.0723   -2.6931  -15.0137 C   0  0  0  0  0  0  0  0  0  0  0  0
   17.4430   -1.6131  -14.9647 O   0  0  0  0  0  0  0  0  0  0  0  0
   17.9822   -3.5562  -13.9403 O   0  0  0  0  0  0  0  0  0  0  0  0
  1  2  1  0
  2  3  1  0
  3  4  1  1
  3  5  1  0
  5  6  2  0
  7  5  1  0
  7  8  1  0
  8  9  1  1
 10  9  1  0
 11 10  2  0
 12 11  1  0
 13 14  1  0
 13 12  2  0
 14 15  2  0
 15 10  1  0
 16 18  1  0
 16  8  1  0
 17 16  2  0
 19 18  1  0
 19 20  1  0
 20 22  1  0
 21 20  2  0
M  END
$$$$
