SFG.pdb
     RDKit          3D

 22 22  0  0  1  0  0  0  0  0999 V2000
   27.0286  -18.7750  -15.3347 O   0  0  0  0  0  0  0  0  0  0  0  0
   27.9001  -18.7959  -14.2671 C   0  0  0  0  0  0  0  0  0  0  0  0
   28.1187  -20.1906  -13.7004 C   0  0  2  0  0  0  0  0  0  0  0  0
   28.4860  -21.0309  -14.8221 N   0  0  0  0  0  0  0  0  0  0  0  0
   26.8917  -20.7263  -13.0852 C   0  0  0  0  0  0  0  0  0  0  0  0
   26.2931  -21.6792  -13.6078 O   0  0  0  0  0  0  0  0  0  0  0  0
   26.3382  -20.1851  -11.8761 N   0  0  0  0  0  0  0  0  0  0  0  0
   25.1130  -20.5976  -11.3040 C   0  0  1  0  0  0  0  0  0  0  0  0
   24.9180  -20.3078   -9.8247 C   0  0  0  0  0  0  0  0  0  0  0  0
   26.1509  -20.3936   -9.0363 C   0  0  0  0  0  0  0  0  0  0  0  0
   26.4124  -19.4330   -8.0833 C   0  0  0  0  0  0  0  0  0  0  0  0
   27.5833  -19.4639   -7.3097 C   0  0  0  0  0  0  0  0  0  0  0  0
   28.4941  -20.4737   -7.5029 C   0  0  0  0  0  0  0  0  0  0  0  0
   28.2135  -21.4171   -8.4554 C   0  0  0  0  0  0  0  0  0  0  0  0
   27.0548  -21.3939   -9.2270 C   0  0  0  0  0  0  0  0  0  0  0  0
   23.9001  -20.3627  -12.1120 C   0  0  0  0  0  0  0  0  0  0  0  0
   23.8159  -19.4455  -12.9708 O   0  0  0  0  0  0  0  0  0  0  0  0
   22.7183  -21.1698  -11.9763 N   0  0  0  0  0  0  0  0  0  0  0  0
   21.5600  -21.0018  -12.7991 C   0  0  0  0  0  0  0  0  0  0  0  0
   20.4680  -21.9231  -12.5039 C   0  0  0  0  0  0  0  0  0  0  0  0
   19.3691  -21.8301  -13.0940 O   0  0  0  0  0  0  0  0  0  0  0  0
   20.6272  -22.9204  -11.5629 O   0  0  0  0  0  0  0  0  0  0  0  0
  1  2  1  0
  2  3  1  0
  3  4  1  6
  3  5  1  0
  5  6  2  0
  7  5  1  0
  7  8  1  0
  8  9  1  1
 10  9  1  0
 11 10  2  0
 12 11  1  0
 13 14  1  0
 13 12  2  0
 14 15  2  0
 15 10  1  0
 16 18  1  0
 16  8  1  0
 17 16  2  0
 19 18  1  0
 19 20  1  0
 20 22  1  0
 21 20  2  0
M  END
$$$$
