SFG.pdb
     RDKit          3D

 22 22  0  0  1  0  0  0  0  0999 V2000
   26.9795  -18.6963  -15.1801 O   0  0  0  0  0  0  0  0  0  0  0  0
   27.8691  -18.5943  -14.1324 C   0  0  0  0  0  0  0  0  0  0  0  0
   28.2343  -19.9400  -13.5244 C   0  0  2  0  0  0  0  0  0  0  0  0
   28.8046  -20.7284  -14.5980 N   0  0  0  0  0  0  0  0  0  0  0  0
   27.0487  -20.6388  -12.9979 C   0  0  0  0  0  0  0  0  0  0  0  0
   26.6021  -21.6401  -13.5786 O   0  0  0  0  0  0  0  0  0  0  0  0
   26.3649  -20.2063  -11.8119 N   0  0  0  0  0  0  0  0  0  0  0  0
   25.2286  -20.8468  -11.2668 C   0  0  1  0  0  0  0  0  0  0  0  0
   25.0944  -20.8279   -9.7528 C   0  0  0  0  0  0  0  0  0  0  0  0
   26.3766  -20.7665   -9.0448 C   0  0  0  0  0  0  0  0  0  0  0  0
   26.5578  -19.8254   -8.0543 C   0  0  0  0  0  0  0  0  0  0  0  0
   27.7698  -19.7184   -7.3542 C   0  0  0  0  0  0  0  0  0  0  0  0
   28.8036  -20.5695   -7.6595 C   0  0  0  0  0  0  0  0  0  0  0  0
   28.6011  -21.4966   -8.6472 C   0  0  0  0  0  0  0  0  0  0  0  0
   27.4025  -21.6094   -9.3465 C   0  0  0  0  0  0  0  0  0  0  0  0
   23.9503  -20.6256  -11.9711 C   0  0  0  0  0  0  0  0  0  0  0  0
   23.3367  -19.5261  -11.9483 O   0  0  0  0  0  0  0  0  0  0  0  0
   23.3083  -21.6566  -12.7400 N   0  0  0  0  0  0  0  0  0  0  0  0
   22.1086  -21.4392  -13.4886 C   0  0  0  0  0  0  0  0  0  0  0  0
   20.8776  -21.6233  -12.7276 C   0  0  0  0  0  0  0  0  0  0  0  0
   20.3052  -22.7347  -12.6870 O   0  0  0  0  0  0  0  0  0  0  0  0
   20.3179  -20.5692  -12.0342 O   0  0  0  0  0  0  0  0  0  0  0  0
  1  2  1  0
  2  3  1  0
  3  4  1  6
  3  5  1  0
  5  6  2  0
  7  5  1  0
  7  8  1  0
  8  9  1  1
 10  9  1  0
 11 10  2  0
 12 11  1  0
 13 14  1  0
 13 12  2  0
 14 15  2  0
 15 10  1  0
 16 18  1  0
 16  8  1  0
 17 16  2  0
 19 18  1  0
 19 20  1  0
 20 22  1  0
 21 20  2  0
M  END
$$$$
