SFG.pdb
     RDKit          3D

 22 22  0  0  1  0  0  0  0  0999 V2000
   24.0609  -18.8759  -20.0225 O   0  0  0  0  0  0  0  0  0  0  0  0
   23.8588  -19.6644  -18.9104 C   0  0  0  0  0  0  0  0  0  0  0  0
   25.1320  -20.3282  -18.4081 C   0  0  2  0  0  0  0  0  0  0  0  0
   25.3686  -21.4619  -19.2788 N   0  0  0  0  0  0  0  0  0  0  0  0
   24.9835  -20.8127  -17.0245 C   0  0  0  0  0  0  0  0  0  0  0  0
   24.7172  -22.0041  -16.8029 O   0  0  0  0  0  0  0  0  0  0  0  0
   25.1360  -19.9501  -15.8871 N   0  0  0  0  0  0  0  0  0  0  0  0
   24.9122  -20.3461  -14.5486 C   0  0  1  0  0  0  0  0  0  0  0  0
   25.8560  -19.7781  -13.5013 C   0  0  0  0  0  0  0  0  0  0  0  0
   25.6569  -20.3348  -12.1598 C   0  0  0  0  0  0  0  0  0  0  0  0
   24.6849  -19.7990  -11.3427 C   0  0  0  0  0  0  0  0  0  0  0  0
   24.4619  -20.2888  -10.0462 C   0  0  0  0  0  0  0  0  0  0  0  0
   25.2278  -21.3270   -9.5752 C   0  0  0  0  0  0  0  0  0  0  0  0
   26.1878  -21.8436  -10.4044 C   0  0  0  0  0  0  0  0  0  0  0  0
   26.4157  -21.3638  -11.6914 C   0  0  0  0  0  0  0  0  0  0  0  0
   23.5049  -20.3930  -14.1054 C   0  0  0  0  0  0  0  0  0  0  0  0
   22.7282  -19.4049  -14.1848 O   0  0  0  0  0  0  0  0  0  0  0  0
   22.9144  -21.5787  -13.5470 N   0  0  0  0  0  0  0  0  0  0  0  0
   21.6064  -21.6004  -12.9677 C   0  0  0  0  0  0  0  0  0  0  0  0
   20.5924  -22.2576  -13.7851 C   0  0  0  0  0  0  0  0  0  0  0  0
   20.8693  -22.7030  -14.9207 O   0  0  0  0  0  0  0  0  0  0  0  0
   19.3011  -22.4015  -13.3189 O   0  0  0  0  0  0  0  0  0  0  0  0
  1  2  1  0
  2  3  1  0
  3  4  1  6
  3  5  1  0
  5  6  2  0
  7  5  1  0
  7  8  1  0
  8  9  1  1
 10  9  1  0
 11 10  2  0
 12 11  1  0
 13 14  1  0
 13 12  2  0
 14 15  2  0
 15 10  1  0
 16 18  1  0
 16  8  1  0
 17 16  2  0
 19 18  1  0
 19 20  1  0
 20 22  1  0
 21 20  2  0
M  END
$$$$
