SFG.pdb
     RDKit          3D

 22 22  0  0  1  0  0  0  0  0999 V2000
   27.6648  -20.8440  -19.3854 O   0  0  0  0  0  0  0  0  0  0  0  0
   26.9819  -21.3496  -18.3003 C   0  0  0  0  0  0  0  0  0  0  0  0
   27.8984  -21.7923  -17.1697 C   0  0  2  0  0  0  0  0  0  0  0  0
   28.4329  -23.0805  -17.5623 N   0  0  0  0  0  0  0  0  0  0  0  0
   27.1631  -21.9475  -15.9024 C   0  0  0  0  0  0  0  0  0  0  0  0
   26.6688  -23.0431  -15.5947 O   0  0  0  0  0  0  0  0  0  0  0  0
   26.9849  -20.8628  -14.9789 N   0  0  0  0  0  0  0  0  0  0  0  0
   26.1866  -20.9286  -13.8140 C   0  0  1  0  0  0  0  0  0  0  0  0
   26.6614  -20.1252  -12.6142 C   0  0  0  0  0  0  0  0  0  0  0  0
   25.9250  -20.4123  -11.3796 C   0  0  0  0  0  0  0  0  0  0  0  0
   24.6999  -19.8171  -11.1690 C   0  0  0  0  0  0  0  0  0  0  0  0
   23.9601  -20.0506   -9.9990 C   0  0  0  0  0  0  0  0  0  0  0  0
   24.4646  -20.8916   -9.0374 C   0  0  0  0  0  0  0  0  0  0  0  0
   25.6837  -21.4718   -9.2680 C   0  0  0  0  0  0  0  0  0  0  0  0
   26.4240  -21.2456  -10.4253 C   0  0  0  0  0  0  0  0  0  0  0  0
   24.7255  -20.8714  -14.0164 C   0  0  0  0  0  0  0  0  0  0  0  0
   24.1584  -19.9490  -14.6594 O   0  0  0  0  0  0  0  0  0  0  0  0
   23.8372  -21.8718  -13.4905 N   0  0  0  0  0  0  0  0  0  0  0  0
   22.4410  -21.9158  -13.7996 C   0  0  0  0  0  0  0  0  0  0  0  0
   21.6011  -21.1025  -12.9269 C   0  0  0  0  0  0  0  0  0  0  0  0
   20.8883  -21.6296  -12.0445 O   0  0  0  0  0  0  0  0  0  0  0  0
   21.5767  -19.7287  -13.0587 O   0  0  0  0  0  0  0  0  0  0  0  0
  1  2  1  0
  2  3  1  0
  3  4  1  6
  3  5  1  0
  5  6  2  0
  7  5  1  0
  7  8  1  0
  8  9  1  1
 10  9  1  0
 11 10  2  0
 12 11  1  0
 13 14  1  0
 13 12  2  0
 14 15  2  0
 15 10  1  0
 16 18  1  0
 16  8  1  0
 17 16  2  0
 19 18  1  0
 19 20  1  0
 20 22  1  0
 21 20  2  0
M  END
$$$$
