SFG.pdb
     RDKit          3D

 22 22  0  0  1  0  0  0  0  0999 V2000
   27.1031  -22.5194  -18.2933 O   0  0  0  0  0  0  0  0  0  0  0  0
   27.0142  -23.2259  -17.1133 C   0  0  0  0  0  0  0  0  0  0  0  0
   28.3411  -23.8260  -16.6737 C   0  0  2  0  0  0  0  0  0  0  0  0
   29.3732  -23.0652  -17.3484 N   0  0  0  0  0  0  0  0  0  0  0  0
   28.4561  -25.2407  -17.0694 C   0  0  0  0  0  0  0  0  0  0  0  0
   28.7945  -25.5429  -18.2241 O   0  0  0  0  0  0  0  0  0  0  0  0
   28.1884  -26.3180  -16.1589 N   0  0  0  0  0  0  0  0  0  0  0  0
   28.2007  -27.6861  -16.5148 C   0  0  1  0  0  0  0  0  0  0  0  0
   29.4052  -28.4977  -16.0666 C   0  0  0  0  0  0  0  0  0  0  0  0
   30.6844  -27.9859  -16.5673 C   0  0  0  0  0  0  0  0  0  0  0  0
   31.4161  -27.1155  -15.7884 C   0  0  0  0  0  0  0  0  0  0  0  0
   32.6413  -26.5888  -16.2263 C   0  0  0  0  0  0  0  0  0  0  0  0
   33.1277  -26.9460  -17.4601 C   0  0  0  0  0  0  0  0  0  0  0  0
   32.3838  -27.8119  -18.2170 C   0  0  0  0  0  0  0  0  0  0  0  0
   31.1677  -28.3388  -17.7904 C   0  0  0  0  0  0  0  0  0  0  0  0
   26.9220  -28.4107  -16.3777 C   0  0  0  0  0  0  0  0  0  0  0  0
   26.1625  -28.2780  -15.3820 O   0  0  0  0  0  0  0  0  0  0  0  0
   26.4472  -29.3273  -17.3782 N   0  0  0  0  0  0  0  0  0  0  0  0
   25.2027  -30.0247  -17.2698 C   0  0  0  0  0  0  0  0  0  0  0  0
   24.0463  -29.2801  -17.7562 C   0  0  0  0  0  0  0  0  0  0  0  0
   23.7545  -29.2651  -18.9725 O   0  0  0  0  0  0  0  0  0  0  0  0
   23.2476  -28.5740  -16.8794 O   0  0  0  0  0  0  0  0  0  0  0  0
  1  2  1  0
  2  3  1  0
  3  4  1  6
  3  5  1  0
  5  6  2  0
  7  5  1  0
  7  8  1  0
  8  9  1  1
 10  9  1  0
 11 10  2  0
 12 11  1  0
 13 14  1  0
 13 12  2  0
 14 15  2  0
 15 10  1  0
 16 18  1  0
 16  8  1  0
 17 16  2  0
 19 18  1  0
 19 20  1  0
 20 22  1  0
 21 20  2  0
M  END
$$$$
