SFG.pdb
     RDKit          3D

 22 22  0  0  1  0  0  0  0  0999 V2000
   22.8471  -21.7688  -14.1683 O   0  0  0  0  0  0  0  0  0  0  0  0
   22.3670  -22.1450  -12.9323 C   0  0  0  0  0  0  0  0  0  0  0  0
   22.6130  -21.1024  -11.8522 C   0  0  2  0  0  0  0  0  0  0  0  0
   21.7220  -19.9979  -12.1447 N   0  0  0  0  0  0  0  0  0  0  0  0
   24.0025  -20.6128  -11.8752 C   0  0  0  0  0  0  0  0  0  0  0  0
   24.2530  -19.4547  -12.2434 O   0  0  0  0  0  0  0  0  0  0  0  0
   25.1133  -21.4326  -11.4812 N   0  0  0  0  0  0  0  0  0  0  0  0
   26.4630  -21.0124  -11.5016 C   0  0  1  0  0  0  0  0  0  0  0  0
   27.3741  -21.5886  -10.4301 C   0  0  0  0  0  0  0  0  0  0  0  0
   27.2385  -20.9374   -9.1237 C   0  0  0  0  0  0  0  0  0  0  0  0
   25.9806  -20.6563   -8.6356 C   0  0  0  0  0  0  0  0  0  0  0  0
   25.7971  -20.0245   -7.3956 C   0  0  0  0  0  0  0  0  0  0  0  0
   26.8941  -19.6757   -6.6463 C   0  0  0  0  0  0  0  0  0  0  0  0
   28.1341  -19.9646   -7.1511 C   0  0  0  0  0  0  0  0  0  0  0  0
   28.3250  -20.5908   -8.3799 C   0  0  0  0  0  0  0  0  0  0  0  0
   27.1023  -20.9245  -12.8293 C   0  0  0  0  0  0  0  0  0  0  0  0
   27.3202  -21.9319  -13.5528 O   0  0  0  0  0  0  0  0  0  0  0  0
   27.5256  -19.6736  -13.3969 N   0  0  0  0  0  0  0  0  0  0  0  0
   28.2292  -19.5787  -14.6391 C   0  0  0  0  0  0  0  0  0  0  0  0
   27.3719  -19.4772  -15.8151 C   0  0  0  0  0  0  0  0  0  0  0  0
   27.8598  -19.3329  -16.9577 O   0  0  0  0  0  0  0  0  0  0  0  0
   25.9987  -19.5389  -15.6890 O   0  0  0  0  0  0  0  0  0  0  0  0
  1  2  1  0
  2  3  1  0
  3  4  1  6
  3  5  1  0
  5  6  2  0
  7  5  1  0
  7  8  1  0
  8  9  1  1
 10  9  1  0
 11 10  2  0
 12 11  1  0
 13 14  1  0
 13 12  2  0
 14 15  2  0
 15 10  1  0
 16 18  1  0
 16  8  1  0
 17 16  2  0
 19 18  1  0
 19 20  1  0
 20 22  1  0
 21 20  2  0
M  END
$$$$
