SFG.pdb
     RDKit          3D

 22 22  0  0  1  0  0  0  0  0999 V2000
   21.2536  -21.4408  -14.0463 O   0  0  0  0  0  0  0  0  0  0  0  0
   21.6172  -22.1429  -12.9175 C   0  0  0  0  0  0  0  0  0  0  0  0
   22.0178  -21.2445  -11.7571 C   0  0  2  0  0  0  0  0  0  0  0  0
   21.0410  -20.1752  -11.7166 N   0  0  0  0  0  0  0  0  0  0  0  0
   23.3556  -20.6606  -11.9579 C   0  0  0  0  0  0  0  0  0  0  0  0
   23.4784  -19.4615  -12.2520 O   0  0  0  0  0  0  0  0  0  0  0  0
   24.5591  -21.4323  -11.8262 N   0  0  0  0  0  0  0  0  0  0  0  0
   25.8645  -20.9025  -11.9442 C   0  0  1  0  0  0  0  0  0  0  0  0
   26.8355  -21.2220  -10.8193 C   0  0  0  0  0  0  0  0  0  0  0  0
   26.3833  -20.7710   -9.4998 C   0  0  0  0  0  0  0  0  0  0  0  0
   26.6409  -19.4767   -9.1026 C   0  0  0  0  0  0  0  0  0  0  0  0
   26.2386  -18.9993   -7.8453 C   0  0  0  0  0  0  0  0  0  0  0  0
   25.5717  -19.8379   -6.9860 C   0  0  0  0  0  0  0  0  0  0  0  0
   25.3268  -21.1198   -7.4017 C   0  0  0  0  0  0  0  0  0  0  0  0
   25.7223  -21.6014   -8.6468 C   0  0  0  0  0  0  0  0  0  0  0  0
   26.4791  -20.9662  -13.2847 C   0  0  0  0  0  0  0  0  0  0  0  0
   27.3797  -21.7929  -13.5871 O   0  0  0  0  0  0  0  0  0  0  0  0
   26.0917  -20.0826  -14.3504 N   0  0  0  0  0  0  0  0  0  0  0  0
   26.6099  -20.1891  -15.6797 C   0  0  0  0  0  0  0  0  0  0  0  0
   26.0986  -19.1897  -16.6113 C   0  0  0  0  0  0  0  0  0  0  0  0
   26.5464  -19.1059  -17.7763 O   0  0  0  0  0  0  0  0  0  0  0  0
   25.1058  -18.3127  -16.2235 O   0  0  0  0  0  0  0  0  0  0  0  0
  1  2  1  0
  2  3  1  0
  3  4  1  6
  3  5  1  0
  5  6  2  0
  7  5  1  0
  7  8  1  0
  8  9  1  1
 10  9  1  0
 11 10  2  0
 12 11  1  0
 13 14  1  0
 13 12  2  0
 14 15  2  0
 15 10  1  0
 16 18  1  0
 16  8  1  0
 17 16  2  0
 19 18  1  0
 19 20  1  0
 20 22  1  0
 21 20  2  0
M  END
$$$$
