RWD.pdb
     RDKit          3D

 34 35  0  0  1  0  0  0  0  0999 V2000
   21.8832  -19.6728  -16.6193 N   0  0  0  0  0  0  0  0  0  0  0  0
   21.2830  -19.5271  -15.3493 C   0  0  0  0  0  0  0  0  0  0  0  0
   20.0060  -19.5908  -15.1582 N   0  0  0  0  0  0  0  0  0  0  0  0
   22.1739  -19.2962  -14.2393 N   0  0  0  0  0  0  0  0  0  0  0  0
   23.5773  -19.0264  -14.5077 C   0  0  0  0  0  0  0  0  0  0  0  0
   24.1537  -20.2510  -15.1898 C   0  0  0  0  0  0  0  0  0  0  0  0
   24.4252  -21.3600  -14.2003 C   0  0  0  0  0  0  0  0  0  0  0  0
   25.8241  -21.1707  -13.6418 C   0  0  2  0  0  0  0  0  0  0  0  0
   26.7377  -22.1608  -14.1995 N   0  0  0  0  0  0  0  0  0  0  0  0
   25.8481  -21.3307  -12.1697 C   0  0  0  0  0  0  0  0  0  0  0  0
   25.7630  -22.4685  -11.6735 O   0  0  0  0  0  0  0  0  0  0  0  0
   19.6254  -19.4553  -14.2129 N   0  0  0  0  0  0  0  0  0  0  0  0
   25.9649  -20.2263  -11.2556 C   0  0  2  0  0  0  0  0  0  0  0  0
   25.7915  -20.3543   -9.8497 C   0  0  0  0  0  0  0  0  0  0  0  0
   26.3249  -19.1602   -9.1072 C   0  0  0  0  0  0  0  0  0  0  0  0
   26.3841  -19.4449   -7.6548 C   0  0  0  0  0  0  0  0  0  0  0  0
   25.2622  -19.4753   -6.8109 N   0  0  0  0  0  0  0  0  0  0  0  0
   25.7196  -19.8022   -5.6029 C   0  0  0  0  0  0  0  0  0  0  0  0
   27.0493  -19.9776   -5.6331 C   0  0  0  0  0  0  0  0  0  0  0  0
   27.9231  -20.3138   -4.6201 C   0  0  0  0  0  0  0  0  0  0  0  0
   29.2573  -20.4254   -4.9153 C   0  0  0  0  0  0  0  0  0  0  0  0
   29.7247  -20.2087   -6.1901 C   0  0  0  0  0  0  0  0  0  0  0  0
   28.8640  -19.8744   -7.2031 C   0  0  0  0  0  0  0  0  0  0  0  0
   27.5205  -19.7576   -6.9328 C   0  0  0  0  0  0  0  0  0  0  0  0
   24.3703  -20.6669   -9.4781 O   0  0  0  0  0  0  0  0  0  0  0  0
   23.4205  -20.2227  -10.1693 N   0  0  0  0  0  0  0  0  0  0  0  0
   24.0741  -21.4656   -8.3436 C   0  0  1  0  0  0  0  0  0  0  0  0
   22.6867  -21.9280   -8.1285 C   0  0  0  0  0  0  0  0  0  0  0  0
   22.6256  -22.9089   -7.0121 C   0  0  0  0  0  0  0  0  0  0  0  0
   21.2319  -23.3362   -6.7772 O   0  0  0  0  0  0  0  0  0  0  0  0
   20.4868  -23.5033   -7.8057 C   0  0  0  0  0  0  0  0  0  0  0  0
   21.8939  -20.6952   -7.8804 O   0  0  0  0  0  0  0  0  0  0  0  0
   22.3555  -19.7829   -7.1747 O   0  0  0  0  0  0  0  0  0  0  0  0
   20.6457  -23.5718   -5.5612 O   0  0  0  0  0  0  0  0  0  0  0  0
  1  2  1  0
  2  4  1  0
  3  2  2  0
  4  5  1  0
  5  6  1  0
  7  6  1  0
  7  8  1  0
  8  9  1  6
 10 11  2  0
 10  8  1  0
 12 10  1  0
 13 12  1  0
 13 24  1  0
 13 14  1  6
 15 14  1  0
 16 15  2  0
 17 18  1  0
 17 16  1  0
 18 23  2  0
 19 20  2  0
 19 18  1  0
 20 21  1  0
 21 22  2  0
 23 15  1  0
 23 22  1  0
 24 26  1  0
 25 24  2  0
 26 27  1  0
 27 31  1  0
 28 29  1  0
 27 28  1  1
 29 30  2  0
 31 32  2  0
 31 34  1  0
 33 29  1  0
M  END
$$$$
