RWD.pdb
     RDKit          3D

 34 35  0  0  1  0  0  0  0  0999 V2000
   19.7182  -23.4171   -8.5437 N   0  0  0  0  0  0  0  0  0  0  0  0
   18.5171  -23.1537   -9.2384 C   0  0  0  0  0  0  0  0  0  0  0  0
   17.3520  -23.4912   -8.7912 N   0  0  0  0  0  0  0  0  0  0  0  0
   18.6416  -22.4748  -10.5043 N   0  0  0  0  0  0  0  0  0  0  0  0
   19.9657  -22.2881  -11.0755 C   0  0  0  0  0  0  0  0  0  0  0  0
   20.9262  -22.0468   -9.9281 C   0  0  0  0  0  0  0  0  0  0  0  0
   22.0435  -21.1119  -10.3282 C   0  0  0  0  0  0  0  0  0  0  0  0
   22.4015  -21.3870  -11.7775 C   0  0  2  0  0  0  0  0  0  0  0  0
   22.9911  -22.7131  -11.9179 N   0  0  0  0  0  0  0  0  0  0  0  0
   23.3907  -20.4102  -12.2882 C   0  0  0  0  0  0  0  0  0  0  0  0
   23.1409  -19.1929  -12.2263 O   0  0  0  0  0  0  0  0  0  0  0  0
   16.5089  -23.2253   -9.3159 N   0  0  0  0  0  0  0  0  0  0  0  0
   24.6517  -20.7899  -12.8667 C   0  0  1  0  0  0  0  0  0  0  0  0
   25.6424  -19.8507  -13.2659 C   0  0  0  0  0  0  0  0  0  0  0  0
   27.0333  -20.3459  -12.9798 C   0  0  0  0  0  0  0  0  0  0  0  0
   27.0920  -20.9571  -11.6318 C   0  0  0  0  0  0  0  0  0  0  0  0
   27.4255  -22.2993  -11.3885 N   0  0  0  0  0  0  0  0  0  0  0  0
   27.4078  -22.4482  -10.0646 C   0  0  0  0  0  0  0  0  0  0  0  0
   27.0859  -21.2927   -9.4638 C   0  0  0  0  0  0  0  0  0  0  0  0
   26.9487  -20.9979   -8.1233 C   0  0  0  0  0  0  0  0  0  0  0  0
   26.5996  -19.7213   -7.7651 C   0  0  0  0  0  0  0  0  0  0  0  0
   26.3883  -18.7487   -8.7137 C   0  0  0  0  0  0  0  0  0  0  0  0
   26.5225  -19.0322  -10.0480 C   0  0  0  0  0  0  0  0  0  0  0  0
   26.8733  -20.3052  -10.4328 C   0  0  0  0  0  0  0  0  0  0  0  0
   25.4747  -19.4200  -14.6950 O   0  0  0  0  0  0  0  0  0  0  0  0
   25.2970  -20.2735  -15.5990 N   0  0  0  0  0  0  0  0  0  0  0  0
   25.5145  -18.0471  -15.0502 C   0  0  1  0  0  0  0  0  0  0  0  0
   25.3047  -17.6601  -16.4613 C   0  0  0  0  0  0  0  0  0  0  0  0
   24.3620  -16.5136  -16.5583 C   0  0  0  0  0  0  0  0  0  0  0  0
   22.9919  -16.9424  -16.2133 O   0  0  0  0  0  0  0  0  0  0  0  0
   22.5946  -18.0694  -16.6749 C   0  0  0  0  0  0  0  0  0  0  0  0
   26.6599  -17.3619  -16.9943 O   0  0  0  0  0  0  0  0  0  0  0  0
   26.8067  -17.0113  -18.1772 O   0  0  0  0  0  0  0  0  0  0  0  0
   22.0908  -16.2519  -15.4458 O   0  0  0  0  0  0  0  0  0  0  0  0
  1  2  1  0
  2  4  1  0
  3  2  2  0
  4  5  1  0
  5  6  1  0
  7  6  1  0
  7  8  1  0
  8  9  1  1
 10 11  2  0
 10  8  1  0
 12 10  1  0
 13 12  1  0
 13 24  1  0
 13 14  1  1
 15 14  1  0
 16 15  2  0
 17 18  1  0
 17 16  1  0
 18 23  2  0
 19 20  2  0
 19 18  1  0
 20 21  1  0
 21 22  2  0
 23 15  1  0
 23 22  1  0
 24 26  1  0
 25 24  2  0
 26 27  1  0
 27 31  1  0
 28 29  1  0
 27 28  1  6
 29 30  2  0
 31 32  2  0
 31 34  1  0
 33 29  1  0
M  END
$$$$
