RWD.pdb
     RDKit          3D

 34 35  0  0  1  0  0  0  0  0999 V2000
   31.2015  -24.9822  -17.0436 N   0  0  0  0  0  0  0  0  0  0  0  0
   31.2970  -23.8012  -17.8121 C   0  0  0  0  0  0  0  0  0  0  0  0
   31.8350  -23.7627  -18.9871 N   0  0  0  0  0  0  0  0  0  0  0  0
   30.7572  -22.6026  -17.2198 N   0  0  0  0  0  0  0  0  0  0  0  0
   29.9903  -22.7097  -15.9890 C   0  0  0  0  0  0  0  0  0  0  0  0
   28.5368  -22.9009  -16.3738 C   0  0  0  0  0  0  0  0  0  0  0  0
   27.6588  -23.0688  -15.1559 C   0  0  0  0  0  0  0  0  0  0  0  0
   27.3180  -21.6907  -14.6182 C   0  0  2  0  0  0  0  0  0  0  0  0
   28.5261  -20.9898  -14.1996 N   0  0  0  0  0  0  0  0  0  0  0  0
   26.4265  -21.7724  -13.4385 C   0  0  0  0  0  0  0  0  0  0  0  0
   25.6673  -22.7495  -13.3081 O   0  0  0  0  0  0  0  0  0  0  0  0
   31.8876  -22.8697  -19.4937 N   0  0  0  0  0  0  0  0  0  0  0  0
   26.3808  -20.7678  -12.4100 C   0  0  1  0  0  0  0  0  0  0  0  0
   25.4101  -20.7575  -11.3705 C   0  0  0  0  0  0  0  0  0  0  0  0
   25.8777  -19.9768  -10.1733 C   0  0  0  0  0  0  0  0  0  0  0  0
   27.2084  -20.4582   -9.7358 C   0  0  0  0  0  0  0  0  0  0  0  0
   27.9835  -21.3883  -10.4472 N   0  0  0  0  0  0  0  0  0  0  0  0
   29.1147  -21.5283   -9.7573 C   0  0  0  0  0  0  0  0  0  0  0  0
   29.1002  -20.7508   -8.6640 C   0  0  0  0  0  0  0  0  0  0  0  0
   30.0510  -20.5890   -7.6779 C   0  0  0  0  0  0  0  0  0  0  0  0
   29.7856  -19.7250   -6.6469 C   0  0  0  0  0  0  0  0  0  0  0  0
   28.6007  -19.0303   -6.5876 C   0  0  0  0  0  0  0  0  0  0  0  0
   27.6500  -19.1845   -7.5630 C   0  0  0  0  0  0  0  0  0  0  0  0
   27.8930  -20.0444   -8.6086 C   0  0  0  0  0  0  0  0  0  0  0  0
   24.0629  -20.3035  -11.8550 O   0  0  0  0  0  0  0  0  0  0  0  0
   23.9427  -19.2153  -12.4701 N   0  0  0  0  0  0  0  0  0  0  0  0
   22.9050  -21.0909  -11.6273 C   0  0  1  0  0  0  0  0  0  0  0  0
   21.6112  -20.6522  -12.1919 C   0  0  0  0  0  0  0  0  0  0  0  0
   21.3795  -21.2742  -13.5230 C   0  0  0  0  0  0  0  0  0  0  0  0
   20.0360  -20.9265  -14.0274 O   0  0  0  0  0  0  0  0  0  0  0  0
   19.7588  -19.6820  -14.1526 C   0  0  0  0  0  0  0  0  0  0  0  0
   20.5912  -21.0242  -11.1765 O   0  0  0  0  0  0  0  0  0  0  0  0
   20.7203  -22.0633  -10.5077 O   0  0  0  0  0  0  0  0  0  0  0  0
   19.0438  -21.8049  -14.3761 O   0  0  0  0  0  0  0  0  0  0  0  0
  1  2  1  0
  2  4  1  0
  3  2  2  0
  4  5  1  0
  5  6  1  0
  7  6  1  0
  7  8  1  0
  8  9  1  1
 10 11  2  0
 10  8  1  0
 12 10  1  0
 13 12  1  0
 13 24  1  0
 13 14  1  1
 15 14  1  0
 16 15  2  0
 17 18  1  0
 17 16  1  0
 18 23  2  0
 19 20  2  0
 19 18  1  0
 20 21  1  0
 21 22  2  0
 23 15  1  0
 23 22  1  0
 24 26  1  0
 25 24  2  0
 26 27  1  0
 27 31  1  0
 28 29  1  0
 27 28  1  1
 29 30  2  0
 31 32  2  0
 31 34  1  0
 33 29  1  0
M  END
$$$$
