PHT.pdb
     RDKit          3D

 25 26  0  0  1  0  0  0  0  0999 V2000
    7.6209  -15.0953   19.8710 N   0  0  0  0  0  0  0  0  0  0  0  0
    7.3381  -14.3834   18.6618 C   0  0  0  0  0  0  0  0  0  0  0  0
    7.5467  -12.9232   18.9488 C   0  0  0  0  0  0  0  0  0  0  0  0
    8.1456  -12.8939   20.3268 C   0  0  0  0  0  0  0  0  0  0  0  0
    8.5702  -14.3013   20.6281 C   0  0  1  0  0  0  0  0  0  0  0  0
    8.4506  -14.6394   22.0643 C   0  0  0  0  0  0  0  0  0  0  0  0
    9.1180  -14.0393   22.9252 O   0  0  0  0  0  0  0  0  0  0  0  0
    7.5640  -15.6584   22.4500 N   0  0  0  0  0  0  0  0  0  0  0  0
    7.2541  -15.9916   23.8242 C   0  0  1  0  0  0  0  0  0  0  0  0
    5.8168  -16.4688   23.8447 C   0  0  0  0  0  0  0  0  0  0  0  0
    5.4734  -17.2612   22.6510 C   0  0  0  0  0  0  0  0  0  0  0  0
    6.3519  -17.4758   21.6100 C   0  0  0  0  0  0  0  0  0  0  0  0
    5.7545  -18.2218   20.6886 N   0  0  0  0  0  0  0  0  0  0  0  0
    4.5127  -18.4972   21.1030 C   0  0  0  0  0  0  0  0  0  0  0  0
    4.3469  -17.9051   22.3072 N   0  0  0  0  0  0  0  0  0  0  0  0
    8.0906  -17.1478   24.2165 C   0  0  0  0  0  0  0  0  0  0  0  0
    8.3451  -18.0298   23.3647 O   0  0  0  0  0  0  0  0  0  0  0  0
   11.4642  -17.5189   24.5813 C   0  0  0  0  0  0  0  0  0  0  0  0
   10.9516  -18.0289   25.8939 C   0  0  1  0  0  0  0  0  0  0  0  0
   11.0729  -17.0378   26.8572 O   0  0  0  0  0  0  0  0  0  0  0  0
    9.5138  -18.4514   25.8491 C   0  0  2  0  0  0  0  0  0  0  0  0
    8.6325  -17.3253   25.5180 N   0  0  0  0  0  0  0  0  0  0  0  0
    9.0679  -19.0347   27.1502 C   0  0  0  0  0  0  0  0  0  0  0  0
    9.5689  -20.2523   27.5878 O   0  0  0  0  0  0  0  0  0  0  0  0
    8.2334  -18.4416   27.8765 O   0  0  0  0  0  0  0  0  0  0  0  0
  2  1  1  0
  3  2  1  0
  4  3  1  0
  4  5  1  0
  5  1  1  0
  5  6  1  1
  6  7  2  0
  8  6  1  0
  8  9  1  0
  9 16  1  0
  9 10  1  6
 10 11  1  0
 11 12  2  0
 12 13  1  0
 14 13  1  0
 15 11  1  0
 15 14  2  0
 16 17  2  0
 19 18  1  6
 19 21  1  0
 20 19  1  0
 21 23  1  0
 21 22  1  1
 22 16  1  0
 23 25  2  0
 23 24  1  0
M  END
$$$$
