PHT.pdb
     RDKit          3D

 25 26  0  0  1  0  0  0  0  0999 V2000
    9.1651  -14.5668   19.4246 N   0  0  0  0  0  0  0  0  0  0  0  0
    9.0705  -14.2198   18.0392 C   0  0  0  0  0  0  0  0  0  0  0  0
    7.8370  -13.3770   17.8773 C   0  0  0  0  0  0  0  0  0  0  0  0
    7.3698  -13.1226   19.2828 C   0  0  0  0  0  0  0  0  0  0  0  0
    8.5068  -13.5170   20.1792 C   0  0  1  0  0  0  0  0  0  0  0  0
    8.0490  -14.0643   21.4761 C   0  0  0  0  0  0  0  0  0  0  0  0
    7.1747  -13.4872   22.1463 O   0  0  0  0  0  0  0  0  0  0  0  0
    8.6195  -15.2578   21.9484 N   0  0  0  0  0  0  0  0  0  0  0  0
    8.2294  -15.9170   23.1767 C   0  0  1  0  0  0  0  0  0  0  0  0
    9.0322  -17.1988   23.2587 C   0  0  0  0  0  0  0  0  0  0  0  0
    8.5653  -18.2136   22.2983 C   0  0  0  0  0  0  0  0  0  0  0  0
    7.3805  -18.1038   21.6014 C   0  0  0  0  0  0  0  0  0  0  0  0
    7.2395  -19.1679   20.8202 N   0  0  0  0  0  0  0  0  0  0  0  0
    8.3001  -19.9652   20.9910 C   0  0  0  0  0  0  0  0  0  0  0  0
    9.1092  -19.3740   21.8987 N   0  0  0  0  0  0  0  0  0  0  0  0
    8.6643  -15.0709   24.3104 C   0  0  0  0  0  0  0  0  0  0  0  0
    9.8211  -14.5912   24.3012 O   0  0  0  0  0  0  0  0  0  0  0  0
    6.7576  -11.9172   25.7373 C   0  0  0  0  0  0  0  0  0  0  0  0
    7.1254  -12.8794   26.8257 C   0  0  1  0  0  0  0  0  0  0  0  0
    6.0258  -13.6632   27.1445 O   0  0  0  0  0  0  0  0  0  0  0  0
    8.2509  -13.7976   26.4548 C   0  0  2  0  0  0  0  0  0  0  0  0
    7.8415  -14.7623   25.4270 N   0  0  0  0  0  0  0  0  0  0  0  0
    8.7604  -14.5543   27.6380 C   0  0  0  0  0  0  0  0  0  0  0  0
    9.2621  -13.8832   28.7438 O   0  0  0  0  0  0  0  0  0  0  0  0
    8.7476  -15.8092   27.6616 O   0  0  0  0  0  0  0  0  0  0  0  0
  2  1  1  0
  3  2  1  0
  4  3  1  0
  4  5  1  0
  5  1  1  0
  5  6  1  1
  6  7  2  0
  8  6  1  0
  8  9  1  0
  9 16  1  0
  9 10  1  1
 10 11  1  0
 11 12  2  0
 12 13  1  0
 14 13  1  0
 15 11  1  0
 15 14  2  0
 16 17  2  0
 19 18  1  6
 19 21  1  0
 20 19  1  0
 21 23  1  0
 21 22  1  6
 22 16  1  0
 23 25  2  0
 23 24  1  0
M  END
$$$$
