PHT.pdb
     RDKit          3D

 25 26  0  0  1  0  0  0  0  0999 V2000
    9.2618  -14.6146   19.9510 N   0  0  0  0  0  0  0  0  0  0  0  0
    9.0947  -14.1087   18.6224 C   0  0  0  0  0  0  0  0  0  0  0  0
    7.9292  -13.1606   18.6532 C   0  0  0  0  0  0  0  0  0  0  0  0
    7.5910  -13.0298   20.1116 C   0  0  0  0  0  0  0  0  0  0  0  0
    8.7535  -13.6082   20.8640 C   0  0  1  0  0  0  0  0  0  0  0  0
    8.3479  -14.2602   22.1295 C   0  0  0  0  0  0  0  0  0  0  0  0
    7.6060  -13.6820   22.9431 O   0  0  0  0  0  0  0  0  0  0  0  0
    8.8156  -15.5556   22.4057 N   0  0  0  0  0  0  0  0  0  0  0  0
    8.5552  -16.2702   23.6374 C   0  0  1  0  0  0  0  0  0  0  0  0
    8.9163  -17.7196   23.3863 C   0  0  0  0  0  0  0  0  0  0  0  0
    7.9366  -18.3982   22.5202 C   0  0  0  0  0  0  0  0  0  0  0  0
    6.7872  -17.7901   22.0610 C   0  0  0  0  0  0  0  0  0  0  0  0
    6.1141  -18.6524   21.3089 N   0  0  0  0  0  0  0  0  0  0  0  0
    6.7950  -19.8033   21.2673 C   0  0  0  0  0  0  0  0  0  0  0  0
    7.9115  -19.6404   22.0122 N   0  0  0  0  0  0  0  0  0  0  0  0
    9.4951  -15.7710   24.6658 C   0  0  0  0  0  0  0  0  0  0  0  0
   10.6620  -15.4685   24.3263 O   0  0  0  0  0  0  0  0  0  0  0  0
    9.3337  -12.6720   26.8565 C   0  0  0  0  0  0  0  0  0  0  0  0
    9.5117  -13.8750   27.7320 C   0  0  1  0  0  0  0  0  0  0  0  0
    8.2829  -14.2601   28.2485 O   0  0  0  0  0  0  0  0  0  0  0  0
   10.0970  -15.0538   27.0140 C   0  0  2  0  0  0  0  0  0  0  0  0
    9.1543  -15.6100   26.0359 N   0  0  0  0  0  0  0  0  0  0  0  0
   10.4907  -16.1393   27.9620 C   0  0  0  0  0  0  0  0  0  0  0  0
   11.4384  -15.9072   28.9484 O   0  0  0  0  0  0  0  0  0  0  0  0
    9.9771  -17.2825   27.8906 O   0  0  0  0  0  0  0  0  0  0  0  0
  2  1  1  0
  3  2  1  0
  4  3  1  0
  4  5  1  0
  5  1  1  0
  5  6  1  1
  6  7  2  0
  8  6  1  0
  8  9  1  0
  9 16  1  0
  9 10  1  6
 10 11  1  0
 11 12  2  0
 12 13  1  0
 14 13  1  0
 15 11  1  0
 15 14  2  0
 16 17  2  0
 19 18  1  6
 19 21  1  0
 20 19  1  0
 21 23  1  0
 21 22  1  6
 22 16  1  0
 23 25  2  0
 23 24  1  0
M  END
$$$$
