PHT.pdb
     RDKit          3D

 25 26  0  0  1  0  0  0  0  0999 V2000
    9.2117  -14.4248   19.4391 N   0  0  0  0  0  0  0  0  0  0  0  0
    9.1059  -14.0155   18.0716 C   0  0  0  0  0  0  0  0  0  0  0  0
    7.7651  -13.3567   17.9093 C   0  0  0  0  0  0  0  0  0  0  0  0
    7.2249  -13.2567   19.3079 C   0  0  0  0  0  0  0  0  0  0  0  0
    8.3820  -13.5298   20.2237 C   0  0  1  0  0  0  0  0  0  0  0  0
    7.9742  -14.2136   21.4717 C   0  0  0  0  0  0  0  0  0  0  0  0
    6.9500  -13.8715   22.0886 O   0  0  0  0  0  0  0  0  0  0  0  0
    8.7664  -15.2665   21.9584 N   0  0  0  0  0  0  0  0  0  0  0  0
    8.5371  -15.9438   23.2171 C   0  0  1  0  0  0  0  0  0  0  0  0
    9.5682  -17.0492   23.3126 C   0  0  0  0  0  0  0  0  0  0  0  0
    9.2947  -18.1517   22.3745 C   0  0  0  0  0  0  0  0  0  0  0  0
    8.2028  -18.1722   21.5325 C   0  0  0  0  0  0  0  0  0  0  0  0
    8.2324  -19.2888   20.8151 N   0  0  0  0  0  0  0  0  0  0  0  0
    9.3134  -19.9935   21.1684 C   0  0  0  0  0  0  0  0  0  0  0  0
    9.9603  -19.2904   22.1250 N   0  0  0  0  0  0  0  0  0  0  0  0
    8.8329  -14.9923   24.3114 C   0  0  0  0  0  0  0  0  0  0  0  0
    9.8573  -14.2762   24.2330 O   0  0  0  0  0  0  0  0  0  0  0  0
    6.6276  -12.0913   25.6008 C   0  0  0  0  0  0  0  0  0  0  0  0
    7.0253  -12.9870   26.7345 C   0  0  1  0  0  0  0  0  0  0  0  0
    5.9978  -13.8795   27.0043 O   0  0  0  0  0  0  0  0  0  0  0  0
    8.2645  -13.7843   26.4581 C   0  0  2  0  0  0  0  0  0  0  0  0
    8.0169  -14.8357   25.4641 N   0  0  0  0  0  0  0  0  0  0  0  0
    8.7999  -14.4223   27.6984 C   0  0  0  0  0  0  0  0  0  0  0  0
    9.2420  -13.6448   28.7590 O   0  0  0  0  0  0  0  0  0  0  0  0
    8.8630  -15.6708   27.8119 O   0  0  0  0  0  0  0  0  0  0  0  0
  2  1  1  0
  3  2  1  0
  4  3  1  0
  4  5  1  0
  5  1  1  0
  5  6  1  1
  6  7  2  0
  8  6  1  0
  8  9  1  0
  9 16  1  0
  9 10  1  1
 10 11  1  0
 11 12  2  0
 12 13  1  0
 14 13  1  0
 15 11  1  0
 15 14  2  0
 16 17  2  0
 19 18  1  6
 19 21  1  0
 20 19  1  0
 21 23  1  0
 21 22  1  6
 22 16  1  0
 23 25  2  0
 23 24  1  0
M  END
$$$$
