PHT.pdb
     RDKit          3D

 25 26  0  0  1  0  0  0  0  0999 V2000
    9.2396  -14.4275   19.5075 N   0  0  0  0  0  0  0  0  0  0  0  0
    9.1188  -14.1632   18.1059 C   0  0  0  0  0  0  0  0  0  0  0  0
    7.7366  -13.6204   17.8756 C   0  0  0  0  0  0  0  0  0  0  0  0
    7.1770  -13.4218   19.2560 C   0  0  0  0  0  0  0  0  0  0  0  0
    8.3415  -13.5208   20.1975 C   0  0  1  0  0  0  0  0  0  0  0  0
    7.9706  -14.1057   21.5058 C   0  0  0  0  0  0  0  0  0  0  0  0
    6.9727  -13.7055   22.1307 O   0  0  0  0  0  0  0  0  0  0  0  0
    8.7679  -15.1307   22.0412 N   0  0  0  0  0  0  0  0  0  0  0  0
    8.4696  -15.8378   23.2687 C   0  0  1  0  0  0  0  0  0  0  0  0
    9.4387  -16.9989   23.3506 C   0  0  0  0  0  0  0  0  0  0  0  0
    9.1306  -18.0548   22.3705 C   0  0  0  0  0  0  0  0  0  0  0  0
    7.8443  -18.4345   22.0502 C   0  0  0  0  0  0  0  0  0  0  0  0
    7.8936  -19.4022   21.1428 N   0  0  0  0  0  0  0  0  0  0  0  0
    9.1765  -19.6610   20.8654 C   0  0  0  0  0  0  0  0  0  0  0  0
    9.9297  -18.8311   21.6217 N   0  0  0  0  0  0  0  0  0  0  0  0
    8.7848  -14.9415   24.4035 C   0  0  0  0  0  0  0  0  0  0  0  0
    9.8549  -14.2913   24.3846 O   0  0  0  0  0  0  0  0  0  0  0  0
    6.8134  -11.9150   25.6933 C   0  0  0  0  0  0  0  0  0  0  0  0
    7.0615  -12.8732   26.8185 C   0  0  1  0  0  0  0  0  0  0  0  0
    5.9386  -13.6651   27.0109 O   0  0  0  0  0  0  0  0  0  0  0  0
    8.2291  -13.7830   26.5805 C   0  0  2  0  0  0  0  0  0  0  0  0
    7.9384  -14.7678   25.5316 N   0  0  0  0  0  0  0  0  0  0  0  0
    8.6213  -14.5158   27.8220 C   0  0  0  0  0  0  0  0  0  0  0  0
    9.0691  -13.8252   28.9389 O   0  0  0  0  0  0  0  0  0  0  0  0
    8.5562  -15.7677   27.8859 O   0  0  0  0  0  0  0  0  0  0  0  0
  2  1  1  0
  3  2  1  0
  4  3  1  0
  4  5  1  0
  5  1  1  0
  5  6  1  1
  6  7  2  0
  8  6  1  0
  8  9  1  0
  9 16  1  0
  9 10  1  1
 10 11  1  0
 11 12  2  0
 12 13  1  0
 14 13  1  0
 15 11  1  0
 15 14  2  0
 16 17  2  0
 19 18  1  6
 19 21  1  0
 20 19  1  0
 21 23  1  0
 21 22  1  6
 22 16  1  0
 23 25  2  0
 23 24  1  0
M  END
$$$$
