PHT.pdb
     RDKit          3D

 25 26  0  0  1  0  0  0  0  0999 V2000
    9.2512  -14.3758   19.4937 N   0  0  0  0  0  0  0  0  0  0  0  0
    9.1234  -14.0689   18.1014 C   0  0  0  0  0  0  0  0  0  0  0  0
    7.7342  -13.5357   17.8916 C   0  0  0  0  0  0  0  0  0  0  0  0
    7.1760  -13.3876   19.2789 C   0  0  0  0  0  0  0  0  0  0  0  0
    8.3441  -13.5022   20.2140 C   0  0  1  0  0  0  0  0  0  0  0  0
    7.9839  -14.1325   21.5041 C   0  0  0  0  0  0  0  0  0  0  0  0
    6.9704  -13.7797   22.1326 O   0  0  0  0  0  0  0  0  0  0  0  0
    8.8092  -15.1464   22.0178 N   0  0  0  0  0  0  0  0  0  0  0  0
    8.5577  -15.8520   23.2564 C   0  0  1  0  0  0  0  0  0  0  0  0
    9.5648  -16.9811   23.3284 C   0  0  0  0  0  0  0  0  0  0  0  0
    9.2128  -18.1021   22.4396 C   0  0  0  0  0  0  0  0  0  0  0  0
    7.9682  -18.2455   21.8633 C   0  0  0  0  0  0  0  0  0  0  0  0
    7.9610  -19.3462   21.1212 N   0  0  0  0  0  0  0  0  0  0  0  0
    9.1665  -19.9210   21.2001 C   0  0  0  0  0  0  0  0  0  0  0  0
    9.9292  -19.1529   22.0102 N   0  0  0  0  0  0  0  0  0  0  0  0
    8.8661  -14.9365   24.3777 C   0  0  0  0  0  0  0  0  0  0  0  0
    9.9336  -14.2821   24.3511 O   0  0  0  0  0  0  0  0  0  0  0  0
    6.8927  -11.8704   25.6130 C   0  0  0  0  0  0  0  0  0  0  0  0
    7.1153  -12.8332   26.7394 C   0  0  1  0  0  0  0  0  0  0  0  0
    5.9912  -13.6309   26.8983 O   0  0  0  0  0  0  0  0  0  0  0  0
    8.2927  -13.7369   26.5276 C   0  0  2  0  0  0  0  0  0  0  0  0
    8.0162  -14.7486   25.5007 N   0  0  0  0  0  0  0  0  0  0  0  0
    8.6866  -14.4366   27.7874 C   0  0  0  0  0  0  0  0  0  0  0  0
    9.0746  -13.7135   28.9062 O   0  0  0  0  0  0  0  0  0  0  0  0
    8.6767  -15.6894   27.8655 O   0  0  0  0  0  0  0  0  0  0  0  0
  2  1  1  0
  3  2  1  0
  4  3  1  0
  4  5  1  0
  5  1  1  0
  5  6  1  1
  6  7  2  0
  8  6  1  0
  8  9  1  0
  9 16  1  0
  9 10  1  1
 10 11  1  0
 11 12  2  0
 12 13  1  0
 14 13  1  0
 15 11  1  0
 15 14  2  0
 16 17  2  0
 19 18  1  6
 19 21  1  0
 20 19  1  0
 21 23  1  0
 21 22  1  6
 22 16  1  0
 23 25  2  0
 23 24  1  0
M  END
$$$$
