PHT.pdb
     RDKit          3D

 25 26  0  0  1  0  0  0  0  0999 V2000
    7.2210  -14.9570   19.7362 N   0  0  0  0  0  0  0  0  0  0  0  0
    6.7834  -14.4462   18.4727 C   0  0  0  0  0  0  0  0  0  0  0  0
    7.6167  -13.2320   18.1737 C   0  0  0  0  0  0  0  0  0  0  0  0
    8.6635  -13.2210   19.2519 C   0  0  0  0  0  0  0  0  0  0  0  0
    8.6107  -14.5736   19.8997 C   0  0  1  0  0  0  0  0  0  0  0  0
    8.9363  -14.5293   21.3431 C   0  0  0  0  0  0  0  0  0  0  0  0
   10.1048  -14.3635   21.7351 O   0  0  0  0  0  0  0  0  0  0  0  0
    7.8983  -14.6782   22.2777 N   0  0  0  0  0  0  0  0  0  0  0  0
    8.0484  -14.4682   23.7020 C   0  0  1  0  0  0  0  0  0  0  0  0
    6.6990  -14.0176   24.2219 C   0  0  0  0  0  0  0  0  0  0  0  0
    6.7759  -13.4925   25.5962 C   0  0  0  0  0  0  0  0  0  0  0  0
    7.9362  -13.4968   26.3413 C   0  0  0  0  0  0  0  0  0  0  0  0
    7.6871  -12.9611   27.5302 N   0  0  0  0  0  0  0  0  0  0  0  0
    6.3972  -12.6093   27.5770 C   0  0  0  0  0  0  0  0  0  0  0  0
    5.8443  -12.9380   26.3878 N   0  0  0  0  0  0  0  0  0  0  0  0
    8.3301  -15.7773   24.3324 C   0  0  0  0  0  0  0  0  0  0  0  0
    7.4608  -16.6771   24.2778 O   0  0  0  0  0  0  0  0  0  0  0  0
   10.7705  -18.3973   23.5052 C   0  0  0  0  0  0  0  0  0  0  0  0
   10.9790  -18.0718   24.9530 C   0  0  1  0  0  0  0  0  0  0  0  0
   12.0669  -17.2211   25.0863 O   0  0  0  0  0  0  0  0  0  0  0  0
    9.7963  -17.4071   25.5911 C   0  0  2  0  0  0  0  0  0  0  0  0
    9.5425  -16.0848   25.0067 N   0  0  0  0  0  0  0  0  0  0  0  0
    9.9809  -17.2457   27.0648 C   0  0  0  0  0  0  0  0  0  0  0  0
   10.0861  -18.3561   27.8900 O   0  0  0  0  0  0  0  0  0  0  0  0
   10.0452  -16.1079   27.5910 O   0  0  0  0  0  0  0  0  0  0  0  0
  2  1  1  0
  3  2  1  0
  4  3  1  0
  4  5  1  0
  5  1  1  0
  5  6  1  1
  6  7  2  0
  8  6  1  0
  8  9  1  0
  9 16  1  0
  9 10  1  1
 10 11  1  0
 11 12  2  0
 12 13  1  0
 14 13  1  0
 15 11  1  0
 15 14  2  0
 16 17  2  0
 19 18  1  6
 19 21  1  0
 20 19  1  0
 21 23  1  0
 21 22  1  6
 22 16  1  0
 23 25  2  0
 23 24  1  0
M  END
$$$$
