PHT.pdb
     RDKit          3D

 25 26  0  0  1  0  0  0  0  0999 V2000
    9.1221  -14.4686   19.4068 N   0  0  0  0  0  0  0  0  0  0  0  0
    9.0161  -14.0198   18.0517 C   0  0  0  0  0  0  0  0  0  0  0  0
    7.7465  -13.2226   17.9476 C   0  0  0  0  0  0  0  0  0  0  0  0
    7.2642  -13.0990   19.3654 C   0  0  0  0  0  0  0  0  0  0  0  0
    8.4151  -13.5107   20.2360 C   0  0  1  0  0  0  0  0  0  0  0  0
    7.9784  -14.1767   21.4838 C   0  0  0  0  0  0  0  0  0  0  0  0
    6.9517  -13.8119   22.0834 O   0  0  0  0  0  0  0  0  0  0  0  0
    8.7454  -15.2389   21.9903 N   0  0  0  0  0  0  0  0  0  0  0  0
    8.4593  -15.9324   23.2283 C   0  0  1  0  0  0  0  0  0  0  0  0
    9.4281  -17.0935   23.3128 C   0  0  0  0  0  0  0  0  0  0  0  0
    9.0785  -18.1824   22.3841 C   0  0  0  0  0  0  0  0  0  0  0  0
    9.5285  -18.2366   21.0818 C   0  0  0  0  0  0  0  0  0  0  0  0
    9.0456  -19.3298   20.5038 N   0  0  0  0  0  0  0  0  0  0  0  0
    8.2945  -19.9865   21.3951 C   0  0  0  0  0  0  0  0  0  0  0  0
    8.3190  -19.2774   22.5460 N   0  0  0  0  0  0  0  0  0  0  0  0
    8.7869  -15.0242   24.3501 C   0  0  0  0  0  0  0  0  0  0  0  0
    9.8810  -14.4150   24.3383 O   0  0  0  0  0  0  0  0  0  0  0  0
    6.6306  -12.0098   25.7488 C   0  0  0  0  0  0  0  0  0  0  0  0
    7.0223  -12.9730   26.8279 C   0  0  1  0  0  0  0  0  0  0  0  0
    5.9729  -13.8465   27.0748 O   0  0  0  0  0  0  0  0  0  0  0  0
    8.2303  -13.7924   26.4862 C   0  0  2  0  0  0  0  0  0  0  0  0
    7.9269  -14.7947   25.4577 N   0  0  0  0  0  0  0  0  0  0  0  0
    8.7790  -14.4954   27.6849 C   0  0  0  0  0  0  0  0  0  0  0  0
    9.2350  -13.7754   28.7797 O   0  0  0  0  0  0  0  0  0  0  0  0
    8.8410  -15.7482   27.7318 O   0  0  0  0  0  0  0  0  0  0  0  0
  2  1  1  0
  3  2  1  0
  4  3  1  0
  4  5  1  0
  5  1  1  0
  5  6  1  1
  6  7  2  0
  8  6  1  0
  8  9  1  0
  9 16  1  0
  9 10  1  1
 10 11  1  0
 11 12  2  0
 12 13  1  0
 14 13  1  0
 15 11  1  0
 15 14  2  0
 16 17  2  0
 19 18  1  6
 19 21  1  0
 20 19  1  0
 21 23  1  0
 21 22  1  6
 22 16  1  0
 23 25  2  0
 23 24  1  0
M  END
$$$$
