PHT.pdb
     RDKit          3D

 25 26  0  0  1  0  0  0  0  0999 V2000
    9.0481  -13.0213   19.3373 N   0  0  0  0  0  0  0  0  0  0  0  0
    8.2751  -12.2344   18.4250 C   0  0  0  0  0  0  0  0  0  0  0  0
    7.7772  -13.1619   17.3526 C   0  0  0  0  0  0  0  0  0  0  0  0
    8.1602  -14.5326   17.8350 C   0  0  0  0  0  0  0  0  0  0  0  0
    8.5362  -14.3776   19.2795 C   0  0  1  0  0  0  0  0  0  0  0  0
    9.6009  -15.3174   19.6971 C   0  0  0  0  0  0  0  0  0  0  0  0
    9.4175  -16.5473   19.6804 O   0  0  0  0  0  0  0  0  0  0  0  0
   10.8368  -14.7991   20.1178 N   0  0  0  0  0  0  0  0  0  0  0  0
   11.9974  -15.6080   20.4249 C   0  0  1  0  0  0  0  0  0  0  0  0
   13.2132  -14.7391   20.1782 C   0  0  0  0  0  0  0  0  0  0  0  0
   13.9099  -15.0935   18.9294 C   0  0  0  0  0  0  0  0  0  0  0  0
   14.2713  -14.1637   17.9774 C   0  0  0  0  0  0  0  0  0  0  0  0
   14.8785  -14.7868   16.9747 N   0  0  0  0  0  0  0  0  0  0  0  0
   14.9211  -16.0954   17.2498 C   0  0  0  0  0  0  0  0  0  0  0  0
   14.3253  -16.2765   18.4499 N   0  0  0  0  0  0  0  0  0  0  0  0
   11.9778  -15.9084   21.8739 C   0  0  0  0  0  0  0  0  0  0  0  0
   11.9708  -14.9591   22.6908 O   0  0  0  0  0  0  0  0  0  0  0  0
    9.3365  -17.6598   23.9891 C   0  0  0  0  0  0  0  0  0  0  0  0
   10.6527  -18.3602   24.1401 C   0  0  1  0  0  0  0  0  0  0  0  0
   10.7044  -19.4441   23.2755 O   0  0  0  0  0  0  0  0  0  0  0  0
   11.8323  -17.4827   23.8464 C   0  0  2  0  0  0  0  0  0  0  0  0
   11.9661  -17.2253   22.4075 N   0  0  0  0  0  0  0  0  0  0  0  0
   13.1069  -18.0860   24.3398 C   0  0  0  0  0  0  0  0  0  0  0  0
   13.3274  -18.2600   25.6985 O   0  0  0  0  0  0  0  0  0  0  0  0
   14.0058  -18.4488   23.5422 O   0  0  0  0  0  0  0  0  0  0  0  0
  2  1  1  0
  3  2  1  0
  4  3  1  0
  4  5  1  0
  5  1  1  0
  5  6  1  6
  6  7  2  0
  8  6  1  0
  8  9  1  0
  9 16  1  0
  9 10  1  1
 10 11  1  0
 11 12  2  0
 12 13  1  0
 14 13  1  0
 15 11  1  0
 15 14  2  0
 16 17  2  0
 19 18  1  6
 19 21  1  0
 20 19  1  0
 21 23  1  0
 21 22  1  6
 22 16  1  0
 23 25  2  0
 23 24  1  0
M  END
$$$$
