ADR.pdb
     RDKit          3D

 25 24  0  0  1  0  0  0  0  0999 V2000
   25.9200  -20.8138  -12.4083 C   0  0  0  0  0  0  0  0  0  0  0  0
   24.7807  -21.7826  -12.7543 C   0  0  2  0  0  0  0  0  0  0  0  0
   25.1942  -22.5483  -13.9147 N   0  0  0  0  0  0  0  0  0  0  0  0
   23.5223  -21.0429  -12.9996 C   0  0  0  0  0  0  0  0  0  0  0  0
   23.0007  -20.3873  -12.0668 O   0  0  0  0  0  0  0  0  0  0  0  0
   22.8522  -21.0314  -14.2639 N   0  0  0  0  0  0  0  0  0  0  0  0
   21.5954  -20.3342  -14.4540 C   0  0  1  0  0  0  0  0  0  0  0  0
   21.5714  -19.7591  -15.8269 C   0  0  0  0  0  0  0  0  0  0  0  0
   22.3061  -18.4797  -15.9451 C   0  0  0  0  0  0  0  0  0  0  0  0
   22.1801  -17.5614  -15.1223 O   0  0  0  0  0  0  0  0  0  0  0  0
   20.4916  -21.2594  -14.1729 C   0  0  0  0  0  0  0  0  0  0  0  0
   20.7143  -22.5163  -14.2174 O   0  0  0  0  0  0  0  0  0  0  0  0
   23.1783  -18.2814  -17.0175 O   0  0  0  0  0  0  0  0  0  0  0  0
   19.2969  -24.6831   -7.6474 N   0  0  0  0  0  0  0  0  0  0  0  0
   17.9922  -25.0314   -8.1092 C   0  0  0  0  0  0  0  0  0  0  0  0
   17.3039  -25.8415   -7.3888 N   0  0  0  0  0  0  0  0  0  0  0  0
   17.5103  -24.4788   -9.3227 N   0  0  0  0  0  0  0  0  0  0  0  0
   18.3473  -23.6485  -10.1203 C   0  0  0  0  0  0  0  0  0  0  0  0
   17.6659  -23.1102  -11.3744 C   0  0  0  0  0  0  0  0  0  0  0  0
   18.6700  -22.2477  -12.0614 C   0  0  0  0  0  0  0  0  0  0  0  0
   18.1810  -21.6525  -13.3366 C   0  0  2  0  0  0  0  0  0  0  0  0
   19.2219  -20.7365  -13.8632 N   0  0  0  0  0  0  0  0  0  0  0  0
   16.9639  -20.8345  -13.1300 C   0  0  0  0  0  0  0  0  0  0  0  0
   17.0646  -19.5978  -13.0097 O   0  0  0  0  0  0  0  0  0  0  0  0
   15.6904  -21.3759  -13.0611 O   0  0  0  0  0  0  0  0  0  0  0  0
  2  1  1  6
  3  2  1  0
  4  2  1  0
  4  5  2  0
  6  4  1  0
  7  6  1  0
  7 11  1  0
  7  8  1  6
  9  8  1  0
 10  9  2  0
 11 12  2  0
 13  9  1  0
 15 14  1  0
 16 15  2  0
 17 15  1  0
 18 17  1  0
 19 18  1  0
 20 19  1  0
 21 20  1  1
 22 11  1  0
 22 21  1  0
 23 25  1  0
 23 21  1  0
 24 23  2  0
M  END
$$$$
