ADR.pdb
     RDKit          3D

 25 24  0  0  1  0  0  0  0  0999 V2000
   19.1613  -11.2069  -15.9610 C   0  0  0  0  0  0  0  0  0  0  0  0
   18.1516  -10.2762  -15.2750 C   0  0  2  0  0  0  0  0  0  0  0  0
   17.6699   -9.3406  -16.2732 N   0  0  0  0  0  0  0  0  0  0  0  0
   18.7761   -9.5847  -14.1248 C   0  0  0  0  0  0  0  0  0  0  0  0
   19.0857  -10.2431  -13.1038 O   0  0  0  0  0  0  0  0  0  0  0  0
   19.0531   -8.1810  -14.1089 N   0  0  0  0  0  0  0  0  0  0  0  0
   19.5731   -7.5200  -12.9280 C   0  0  1  0  0  0  0  0  0  0  0  0
   20.6701   -6.6014  -13.3391 C   0  0  0  0  0  0  0  0  0  0  0  0
   21.2606   -5.8442  -12.2129 C   0  0  0  0  0  0  0  0  0  0  0  0
   20.9080   -6.0168  -11.0372 O   0  0  0  0  0  0  0  0  0  0  0  0
   18.4666   -6.8564  -12.2290 C   0  0  0  0  0  0  0  0  0  0  0  0
   17.7011   -6.0751  -12.8883 O   0  0  0  0  0  0  0  0  0  0  0  0
   22.2534   -4.8950  -12.4648 O   0  0  0  0  0  0  0  0  0  0  0  0
   12.1467   -9.8428   -7.8341 N   0  0  0  0  0  0  0  0  0  0  0  0
   11.8847   -8.4525   -7.6459 C   0  0  0  0  0  0  0  0  0  0  0  0
   10.7543   -8.1255   -7.1319 N   0  0  0  0  0  0  0  0  0  0  0  0
   12.8647   -7.4999   -8.0234 N   0  0  0  0  0  0  0  0  0  0  0  0
   14.0800   -7.9182   -8.6350 C   0  0  0  0  0  0  0  0  0  0  0  0
   15.0395   -6.7736   -8.9449 C   0  0  0  0  0  0  0  0  0  0  0  0
   16.1934   -7.3770   -9.6719 C   0  0  0  0  0  0  0  0  0  0  0  0
   17.1964   -6.3810  -10.1425 C   0  0  2  0  0  0  0  0  0  0  0  0
   18.2811   -7.0993  -10.8548 N   0  0  0  0  0  0  0  0  0  0  0  0
   17.8339   -5.6672   -9.0123 C   0  0  0  0  0  0  0  0  0  0  0  0
   18.9245   -6.0714   -8.5635 O   0  0  0  0  0  0  0  0  0  0  0  0
   17.2763   -4.5506   -8.4107 O   0  0  0  0  0  0  0  0  0  0  0  0
  2  1  1  6
  3  2  1  0
  4  2  1  0
  4  5  2  0
  6  4  1  0
  7  6  1  0
  7 11  1  0
  7  8  1  6
  9  8  1  0
 10  9  2  0
 11 12  2  0
 13  9  1  0
 15 14  1  0
 16 15  2  0
 17 15  1  0
 18 17  1  0
 19 18  1  0
 20 19  1  0
 21 20  1  1
 22 11  1  0
 22 21  1  0
 23 25  1  0
 23 21  1  0
 24 23  2  0
M  END
$$$$
