ADR.pdb
     RDKit          3D

 25 24  0  0  1  0  0  0  0  0999 V2000
   27.0092  -15.8504  -17.1953 C   0  0  0  0  0  0  0  0  0  0  0  0
   26.1183  -17.0423  -17.5722 C   0  0  2  0  0  0  0  0  0  0  0  0
   25.7976  -16.9209  -18.9815 N   0  0  0  0  0  0  0  0  0  0  0  0
   24.9021  -17.0727  -16.7289 C   0  0  0  0  0  0  0  0  0  0  0  0
   25.0143  -17.2362  -15.4910 O   0  0  0  0  0  0  0  0  0  0  0  0
   23.5793  -16.9236  -17.2536 N   0  0  0  0  0  0  0  0  0  0  0  0
   22.4196  -16.8479  -16.3868 C   0  0  1  0  0  0  0  0  0  0  0  0
   21.3404  -16.1079  -17.0967 C   0  0  0  0  0  0  0  0  0  0  0  0
   20.1454  -15.8584  -16.2601 C   0  0  0  0  0  0  0  0  0  0  0  0
   20.0603  -16.2503  -15.0873 O   0  0  0  0  0  0  0  0  0  0  0  0
   22.0443  -18.2057  -15.9758 C   0  0  0  0  0  0  0  0  0  0  0  0
   21.8552  -19.0921  -16.8756 O   0  0  0  0  0  0  0  0  0  0  0  0
   19.0628  -15.1570  -16.7950 O   0  0  0  0  0  0  0  0  0  0  0  0
   26.2207  -20.5032   -9.9295 N   0  0  0  0  0  0  0  0  0  0  0  0
   24.9681  -20.8374   -9.3326 C   0  0  0  0  0  0  0  0  0  0  0  0
   24.8118  -20.5640   -8.0877 N   0  0  0  0  0  0  0  0  0  0  0  0
   23.9589  -21.4455  -10.1213 N   0  0  0  0  0  0  0  0  0  0  0  0
   23.9308  -21.2532  -11.5313 C   0  0  0  0  0  0  0  0  0  0  0  0
   22.6234  -20.6595  -12.0462 C   0  0  0  0  0  0  0  0  0  0  0  0
   22.8058  -20.4476  -13.5111 C   0  0  0  0  0  0  0  0  0  0  0  0
   21.6062  -19.8850  -14.1923 C   0  0  2  0  0  0  0  0  0  0  0  0
   21.9037  -18.4917  -14.6046 N   0  0  0  0  0  0  0  0  0  0  0  0
   20.4396  -19.8162  -13.2827 C   0  0  0  0  0  0  0  0  0  0  0  0
   20.0786  -18.7146  -12.8241 O   0  0  0  0  0  0  0  0  0  0  0  0
   19.7088  -20.9304  -12.9028 O   0  0  0  0  0  0  0  0  0  0  0  0
  2  1  1  1
  3  2  1  0
  4  2  1  0
  4  5  2  0
  6  4  1  0
  7  6  1  0
  7 11  1  0
  7  8  1  6
  9  8  1  0
 10  9  2  0
 11 12  2  0
 13  9  1  0
 15 14  1  0
 16 15  2  0
 17 15  1  0
 18 17  1  0
 19 18  1  0
 20 19  1  0
 21 20  1  1
 22 11  1  0
 22 21  1  0
 23 25  1  0
 23 21  1  0
 24 23  2  0
M  END
$$$$
