ADR.pdb
     RDKit          3D

 25 24  0  0  1  0  0  0  0  0999 V2000
   18.3694  -14.6257  -15.7080 C   0  0  0  0  0  0  0  0  0  0  0  0
   17.4988  -13.3748  -15.8923 C   0  0  2  0  0  0  0  0  0  0  0  0
   17.4763  -13.0617  -17.3083 N   0  0  0  0  0  0  0  0  0  0  0  0
   18.0231  -12.2500  -15.0855 C   0  0  0  0  0  0  0  0  0  0  0  0
   17.9948  -12.3232  -13.8342 O   0  0  0  0  0  0  0  0  0  0  0  0
   18.5713  -11.0600  -15.6606 N   0  0  0  0  0  0  0  0  0  0  0  0
   19.0354   -9.9599  -14.8383 C   0  0  1  0  0  0  0  0  0  0  0  0
   20.1264   -9.2505  -15.5613 C   0  0  0  0  0  0  0  0  0  0  0  0
   20.6849   -8.1035  -14.8110 C   0  0  0  0  0  0  0  0  0  0  0  0
   20.7309   -6.9584  -15.2831 O   0  0  0  0  0  0  0  0  0  0  0  0
   17.8913   -9.1074  -14.4954 C   0  0  0  0  0  0  0  0  0  0  0  0
   17.0425   -8.8194  -15.4052 O   0  0  0  0  0  0  0  0  0  0  0  0
   21.1837   -8.2995  -13.5215 O   0  0  0  0  0  0  0  0  0  0  0  0
   12.6184   -8.8093   -7.5702 N   0  0  0  0  0  0  0  0  0  0  0  0
   12.0409   -8.1459   -8.6942 C   0  0  0  0  0  0  0  0  0  0  0  0
   10.7610   -8.1563   -8.7968 N   0  0  0  0  0  0  0  0  0  0  0  0
   12.8851   -7.5084   -9.6383 N   0  0  0  0  0  0  0  0  0  0  0  0
   14.0066   -8.1949  -10.1830 C   0  0  0  0  0  0  0  0  0  0  0  0
   14.7129   -7.4325  -11.2996 C   0  0  0  0  0  0  0  0  0  0  0  0
   15.8640   -8.2799  -11.7249 C   0  0  0  0  0  0  0  0  0  0  0  0
   16.6475   -7.7083  -12.8558 C   0  0  2  0  0  0  0  0  0  0  0  0
   17.7623   -8.6325  -13.1765 N   0  0  0  0  0  0  0  0  0  0  0  0
   17.2646   -6.4110  -12.4963 C   0  0  0  0  0  0  0  0  0  0  0  0
   18.4592   -6.3730  -12.1417 O   0  0  0  0  0  0  0  0  0  0  0  0
   16.5762   -5.2091  -12.5321 O   0  0  0  0  0  0  0  0  0  0  0  0
  2  1  1  6
  3  2  1  0
  4  2  1  0
  4  5  2  0
  6  4  1  0
  7  6  1  0
  7 11  1  0
  7  8  1  6
  9  8  1  0
 10  9  2  0
 11 12  2  0
 13  9  1  0
 15 14  1  0
 16 15  2  0
 17 15  1  0
 18 17  1  0
 19 18  1  0
 20 19  1  0
 21 20  1  1
 22 11  1  0
 22 21  1  0
 23 25  1  0
 23 21  1  0
 24 23  2  0
M  END
$$$$
