ADR.pdb
     RDKit          3D

 25 24  0  0  1  0  0  0  0  0999 V2000
   33.0141   -8.6296  -19.0921 C   0  0  0  0  0  0  0  0  0  0  0  0
   31.7097   -7.9506  -18.6517 C   0  0  2  0  0  0  0  0  0  0  0  0
   31.8765   -7.5347  -17.2723 N   0  0  0  0  0  0  0  0  0  0  0  0
   30.5608   -8.8692  -18.8173 C   0  0  0  0  0  0  0  0  0  0  0  0
   30.1551   -9.1473  -19.9705 O   0  0  0  0  0  0  0  0  0  0  0  0
   29.8719   -9.4707  -17.7168 N   0  0  0  0  0  0  0  0  0  0  0  0
   28.7217  -10.3306  -17.9159 C   0  0  1  0  0  0  0  0  0  0  0  0
   29.0957  -11.7223  -17.5425 C   0  0  0  0  0  0  0  0  0  0  0  0
   28.0239  -12.7109  -17.7959 C   0  0  0  0  0  0  0  0  0  0  0  0
   27.7194  -13.0845  -18.9378 O   0  0  0  0  0  0  0  0  0  0  0  0
   27.5880   -9.7909  -17.1564 C   0  0  0  0  0  0  0  0  0  0  0  0
   27.8211   -9.1095  -16.1016 O   0  0  0  0  0  0  0  0  0  0  0  0
   27.3179  -13.2542  -16.7205 O   0  0  0  0  0  0  0  0  0  0  0  0
   23.4199   -3.4862  -16.1150 N   0  0  0  0  0  0  0  0  0  0  0  0
   22.5954   -4.3437  -15.3264 C   0  0  0  0  0  0  0  0  0  0  0  0
   21.8846   -3.8012  -14.4048 N   0  0  0  0  0  0  0  0  0  0  0  0
   22.5885   -5.7376  -15.5857 N   0  0  0  0  0  0  0  0  0  0  0  0
   23.6344   -6.3361  -16.3432 C   0  0  0  0  0  0  0  0  0  0  0  0
   23.3845   -7.8007  -16.6888 C   0  0  0  0  0  0  0  0  0  0  0  0
   24.6280   -8.2959  -17.3464 C   0  0  0  0  0  0  0  0  0  0  0  0
   25.1365   -9.5787  -16.7848 C   0  0  2  0  0  0  0  0  0  0  0  0
   26.2790  -10.0392  -17.6109 N   0  0  0  0  0  0  0  0  0  0  0  0
   24.1141  -10.6483  -16.8446 C   0  0  0  0  0  0  0  0  0  0  0  0
   24.0505  -11.3859  -17.8476 O   0  0  0  0  0  0  0  0  0  0  0  0
   23.2031  -10.8827  -15.8274 O   0  0  0  0  0  0  0  0  0  0  0  0
  2  1  1  1
  3  2  1  0
  4  2  1  0
  4  5  2  0
  6  4  1  0
  7  6  1  0
  7 11  1  0
  7  8  1  1
  9  8  1  0
 10  9  2  0
 11 12  2  0
 13  9  1  0
 15 14  1  0
 16 15  2  0
 17 15  1  0
 18 17  1  0
 19 18  1  0
 20 19  1  0
 21 20  1  6
 22 11  1  0
 22 21  1  0
 23 25  1  0
 23 21  1  0
 24 23  2  0
M  END
$$$$
