QEC.pdb
     RDKit          3D

 25 24  0  0  1  0  0  0  0  0999 V2000
   27.6269  -24.3883  -16.2323 N   0  0  0  0  0  0  0  0  0  0  0  0
   28.9705  -23.9917  -16.4013 C   0  0  0  0  0  0  0  0  0  0  0  0
   29.8309  -24.8568  -16.6463 O   0  0  0  0  0  0  0  0  0  0  0  0
   29.3803  -22.5710  -16.2939 C   0  0  0  0  0  0  0  0  0  0  0  0
   28.1694  -21.6818  -16.0359 C   0  0  0  0  0  0  0  0  0  0  0  0
   27.6272  -21.2753  -17.3855 C   0  0  2  0  0  0  0  0  0  0  0  0
   28.5086  -20.3456  -18.0598 N   0  0  0  0  0  0  0  0  0  0  0  0
   26.2906  -20.6460  -17.2858 C   0  0  0  0  0  0  0  0  0  0  0  0
   26.1745  -19.5134  -16.7676 O   0  0  0  0  0  0  0  0  0  0  0  0
   25.1243  -21.3025  -17.7686 N   0  0  0  0  0  0  0  0  0  0  0  0
   23.7793  -20.7611  -17.5727 C   0  0  1  0  0  0  0  0  0  0  0  0
   22.9247  -21.1545  -18.7497 C   0  0  0  0  0  0  0  0  0  0  0  0
   21.4876  -20.8449  -18.6613 C   0  0  0  0  0  0  0  0  0  0  0  0
   20.7641  -21.3292  -19.8520 C   0  0  0  0  0  0  0  0  0  0  0  0
   21.2124  -22.2794  -20.5104 O   0  0  0  0  0  0  0  0  0  0  0  0
   23.2352  -21.4064  -16.3541 C   0  0  0  0  0  0  0  0  0  0  0  0
   23.4792  -22.6111  -16.1066 O   0  0  0  0  0  0  0  0  0  0  0  0
   19.5663  -20.6904  -20.2148 O   0  0  0  0  0  0  0  0  0  0  0  0
   22.4172  -20.7190  -15.4028 N   0  0  0  0  0  0  0  0  0  0  0  0
   21.9199  -21.3631  -14.1981 C   0  0  1  0  0  0  0  0  0  0  0  0
   22.1346  -20.3851  -13.0416 C   0  0  0  0  0  0  0  0  0  0  0  0
   21.3774  -20.9661  -11.5205 S   0  0  0  0  0  0  0  0  0  0  0  0
   20.5077  -21.7530  -14.3183 C   0  0  0  0  0  0  0  0  0  0  0  0
   19.6912  -21.0845  -15.0307 O   0  0  0  0  0  0  0  0  0  0  0  0
   19.9799  -22.8595  -13.6727 O   0  0  0  0  0  0  0  0  0  0  0  0
  1  2  1  0
  2  3  2  0
  4  5  1  0
  4  2  1  0
  5  6  1  0
  6  8  1  0
  6  7  1  1
  8  9  2  0
 10 11  1  0
 10  8  1  0
 12 13  1  0
 11 12  1  6
 13 14  1  0
 14 18  1  0
 14 15  2  0
 16 11  1  0
 17 16  2  0
 19 16  1  0
 20 19  1  0
 20 21  1  1
 22 21  1  0
 23 20  1  0
 24 23  2  0
 25 23  1  0
M  END
$$$$
