QEC.pdb
     RDKit          3D

 25 24  0  0  1  0  0  0  0  0999 V2000
   15.8501  -11.9528  -13.7021 N   0  0  0  0  0  0  0  0  0  0  0  0
   15.4952  -12.5871  -14.9116 C   0  0  0  0  0  0  0  0  0  0  0  0
   14.4429  -13.2497  -14.9617 O   0  0  0  0  0  0  0  0  0  0  0  0
   16.3451  -12.4830  -16.1218 C   0  0  0  0  0  0  0  0  0  0  0  0
   17.5237  -11.5495  -15.8704 C   0  0  0  0  0  0  0  0  0  0  0  0
   18.3848  -11.5854  -17.1105 C   0  0  2  0  0  0  0  0  0  0  0  0
   19.1141  -12.8310  -17.2212 N   0  0  0  0  0  0  0  0  0  0  0  0
   19.3668  -10.4776  -17.1428 C   0  0  0  0  0  0  0  0  0  0  0  0
   20.5024  -10.6395  -16.6439 O   0  0  0  0  0  0  0  0  0  0  0  0
   19.0490   -9.2221  -17.7320 N   0  0  0  0  0  0  0  0  0  0  0  0
   20.0317   -8.1472  -17.8704 C   0  0  1  0  0  0  0  0  0  0  0  0
   19.6948   -7.3406  -19.0977 C   0  0  0  0  0  0  0  0  0  0  0  0
   20.5915   -6.2185  -19.4231 C   0  0  0  0  0  0  0  0  0  0  0  0
   20.1618   -5.5336  -20.6568 C   0  0  0  0  0  0  0  0  0  0  0  0
   20.7921   -5.6960  -21.7121 O   0  0  0  0  0  0  0  0  0  0  0  0
   19.8835   -7.2803  -16.6771 C   0  0  0  0  0  0  0  0  0  0  0  0
   18.7459   -6.9737  -16.2481 O   0  0  0  0  0  0  0  0  0  0  0  0
   19.0307   -4.7015  -20.6027 O   0  0  0  0  0  0  0  0  0  0  0  0
   20.9965   -6.7483  -15.9526 N   0  0  0  0  0  0  0  0  0  0  0  0
   20.8279   -5.8806  -14.7984 C   0  0  1  0  0  0  0  0  0  0  0  0
   22.0119   -6.1366  -13.8642 C   0  0  0  0  0  0  0  0  0  0  0  0
   21.9535   -7.7784  -13.1393 S   0  0  0  0  0  0  0  0  0  0  0  0
   20.7373   -4.4631  -15.1768 C   0  0  0  0  0  0  0  0  0  0  0  0
   21.2178   -4.0357  -16.2757 O   0  0  0  0  0  0  0  0  0  0  0  0
   20.1308   -3.5118  -14.3725 O   0  0  0  0  0  0  0  0  0  0  0  0
  1  2  1  0
  2  3  2  0
  4  5  1  0
  4  2  1  0
  5  6  1  0
  6  8  1  0
  6  7  1  1
  8  9  2  0
 10 11  1  0
 10  8  1  0
 12 13  1  0
 11 12  1  6
 13 14  1  0
 14 18  1  0
 14 15  2  0
 16 11  1  0
 17 16  2  0
 19 16  1  0
 20 19  1  0
 20 21  1  1
 22 21  1  0
 23 20  1  0
 24 23  2  0
 25 23  1  0
M  END
$$$$
