QEC.pdb
     RDKit          3D

 25 24  0  0  1  0  0  0  0  0999 V2000
   15.4725  -15.5746  -16.9701 N   0  0  0  0  0  0  0  0  0  0  0  0
   16.1057  -15.3650  -18.2135 C   0  0  0  0  0  0  0  0  0  0  0  0
   15.6309  -15.8987  -19.2325 O   0  0  0  0  0  0  0  0  0  0  0  0
   17.3214  -14.5250  -18.3342 C   0  0  0  0  0  0  0  0  0  0  0  0
   17.6410  -13.8504  -17.0051 C   0  0  0  0  0  0  0  0  0  0  0  0
   18.9374  -13.0993  -17.1942 C   0  0  2  0  0  0  0  0  0  0  0  0
   20.0870  -13.9631  -17.0268 N   0  0  0  0  0  0  0  0  0  0  0  0
   19.0737  -11.9699  -16.2464 C   0  0  0  0  0  0  0  0  0  0  0  0
   19.6602  -12.1422  -15.1551 O   0  0  0  0  0  0  0  0  0  0  0  0
   18.5500  -10.6818  -16.5479 N   0  0  0  0  0  0  0  0  0  0  0  0
   18.6055   -9.5688  -15.6000 C   0  0  1  0  0  0  0  0  0  0  0  0
   18.6140   -8.2760  -16.3738 C   0  0  0  0  0  0  0  0  0  0  0  0
   18.5801   -7.0305  -15.5886 C   0  0  0  0  0  0  0  0  0  0  0  0
   18.5552   -5.8467  -16.4682 C   0  0  0  0  0  0  0  0  0  0  0  0
   19.5358   -5.5756  -17.1770 O   0  0  0  0  0  0  0  0  0  0  0  0
   17.3614   -9.6331  -14.7966 C   0  0  0  0  0  0  0  0  0  0  0  0
   16.2687   -9.9306  -15.3346 O   0  0  0  0  0  0  0  0  0  0  0  0
   17.4018   -5.0441  -16.4800 O   0  0  0  0  0  0  0  0  0  0  0  0
   17.3222   -9.3677  -13.3913 N   0  0  0  0  0  0  0  0  0  0  0  0
   16.0753   -9.3187  -12.6453 C   0  0  1  0  0  0  0  0  0  0  0  0
   15.7807  -10.7406  -12.1643 C   0  0  0  0  0  0  0  0  0  0  0  0
   14.4236  -10.7850  -10.9892 S   0  0  0  0  0  0  0  0  0  0  0  0
   16.1360   -8.3722  -11.5223 C   0  0  0  0  0  0  0  0  0  0  0  0
   15.0834   -7.9908  -10.9160 O   0  0  0  0  0  0  0  0  0  0  0  0
   17.3275   -7.8403  -11.0562 O   0  0  0  0  0  0  0  0  0  0  0  0
  1  2  1  0
  2  3  2  0
  4  5  1  0
  4  2  1  0
  5  6  1  0
  6  8  1  0
  6  7  1  1
  8  9  2  0
 10 11  1  0
 10  8  1  0
 12 13  1  0
 11 12  1  6
 13 14  1  0
 14 18  1  0
 14 15  2  0
 16 11  1  0
 17 16  2  0
 19 16  1  0
 20 19  1  0
 20 21  1  1
 22 21  1  0
 23 20  1  0
 24 23  2  0
 25 23  1  0
M  END
$$$$
