QEC.pdb
     RDKit          3D

 25 24  0  0  1  0  0  0  0  0999 V2000
   25.7921  -24.2691  -16.1392 N   0  0  0  0  0  0  0  0  0  0  0  0
   27.1460  -24.4684  -16.4833 C   0  0  0  0  0  0  0  0  0  0  0  0
   27.8028  -25.3357  -15.8792 O   0  0  0  0  0  0  0  0  0  0  0  0
   27.8030  -23.6702  -17.5459 C   0  0  0  0  0  0  0  0  0  0  0  0
   26.8012  -22.7309  -18.2076 C   0  0  0  0  0  0  0  0  0  0  0  0
   27.4145  -21.3510  -18.1895 C   0  0  2  0  0  0  0  0  0  0  0  0
   28.8523  -21.4051  -18.0294 N   0  0  0  0  0  0  0  0  0  0  0  0
   26.8660  -20.5084  -17.1025 C   0  0  0  0  0  0  0  0  0  0  0  0
   27.6444  -19.9196  -16.3201 O   0  0  0  0  0  0  0  0  0  0  0  0
   25.4634  -20.3499  -16.9234 N   0  0  0  0  0  0  0  0  0  0  0  0
   24.8957  -19.4748  -15.8975 C   0  0  1  0  0  0  0  0  0  0  0  0
   23.7150  -18.7458  -16.4847 C   0  0  0  0  0  0  0  0  0  0  0  0
   23.9804  -17.4314  -17.0936 C   0  0  0  0  0  0  0  0  0  0  0  0
   22.7547  -16.8595  -17.6820 C   0  0  0  0  0  0  0  0  0  0  0  0
   22.2170  -15.8699  -17.1633 O   0  0  0  0  0  0  0  0  0  0  0  0
   24.4151  -20.3559  -14.8066 C   0  0  0  0  0  0  0  0  0  0  0  0
   23.6501  -21.3182  -15.0533 O   0  0  0  0  0  0  0  0  0  0  0  0
   22.2197  -17.4611  -18.8336 O   0  0  0  0  0  0  0  0  0  0  0  0
   24.7804  -20.1746  -13.4353 N   0  0  0  0  0  0  0  0  0  0  0  0
   24.2097  -20.9792  -12.3674 C   0  0  1  0  0  0  0  0  0  0  0  0
   24.9290  -20.5896  -11.0747 C   0  0  0  0  0  0  0  0  0  0  0  0
   24.3227  -21.5179   -9.6622 S   0  0  0  0  0  0  0  0  0  0  0  0
   22.7557  -20.7972  -12.2502 C   0  0  0  0  0  0  0  0  0  0  0  0
   22.2157  -19.6519  -12.3828 O   0  0  0  0  0  0  0  0  0  0  0  0
   21.8893  -21.8470  -11.9913 O   0  0  0  0  0  0  0  0  0  0  0  0
  1  2  1  0
  2  3  2  0
  4  5  1  0
  4  2  1  0
  5  6  1  0
  6  8  1  0
  6  7  1  1
  8  9  2  0
 10 11  1  0
 10  8  1  0
 12 13  1  0
 11 12  1  6
 13 14  1  0
 14 18  1  0
 14 15  2  0
 16 11  1  0
 17 16  2  0
 19 16  1  0
 20 19  1  0
 20 21  1  1
 22 21  1  0
 23 20  1  0
 24 23  2  0
 25 23  1  0
M  END
$$$$
