QEC.pdb
     RDKit          3D

 25 24  0  0  1  0  0  0  0  0999 V2000
   26.6488  -19.7447  -17.1321 N   0  0  0  0  0  0  0  0  0  0  0  0
   28.0544  -19.8119  -17.0278 C   0  0  0  0  0  0  0  0  0  0  0  0
   28.7087  -20.2987  -17.9678 O   0  0  0  0  0  0  0  0  0  0  0  0
   28.7686  -19.3170  -15.8266 C   0  0  0  0  0  0  0  0  0  0  0  0
   27.7873  -18.7047  -14.8337 C   0  0  0  0  0  0  0  0  0  0  0  0
   26.6336  -19.6705  -14.7039 C   0  0  2  0  0  0  0  0  0  0  0  0
   25.7458  -19.6020  -15.8454 N   0  0  0  0  0  0  0  0  0  0  0  0
   25.8298  -19.4224  -13.4854 C   0  0  0  0  0  0  0  0  0  0  0  0
   25.2326  -18.3321  -13.3467 O   0  0  0  0  0  0  0  0  0  0  0  0
   25.7182  -20.4013  -12.4589 N   0  0  0  0  0  0  0  0  0  0  0  0
   24.9368  -20.1791  -11.2422 C   0  0  1  0  0  0  0  0  0  0  0  0
   23.6868  -21.0177  -11.3117 C   0  0  0  0  0  0  0  0  0  0  0  0
   22.7869  -20.9682  -10.1470 C   0  0  0  0  0  0  0  0  0  0  0  0
   21.4711  -20.4114  -10.5137 C   0  0  0  0  0  0  0  0  0  0  0  0
   20.9655  -20.6787  -11.6138 O   0  0  0  0  0  0  0  0  0  0  0  0
   25.7670  -20.6574  -10.1111 C   0  0  0  0  0  0  0  0  0  0  0  0
   26.2375  -21.8196  -10.1113 O   0  0  0  0  0  0  0  0  0  0  0  0
   20.8145  -19.5790   -9.5914 O   0  0  0  0  0  0  0  0  0  0  0  0
   26.0803  -19.8491   -8.9731 N   0  0  0  0  0  0  0  0  0  0  0  0
   26.7616  -20.3839   -7.8054 C   0  0  1  0  0  0  0  0  0  0  0  0
   27.4499  -19.2097   -7.1070 C   0  0  0  0  0  0  0  0  0  0  0  0
   28.1522  -19.6867   -5.5248 S   0  0  0  0  0  0  0  0  0  0  0  0
   25.8424  -21.0859   -6.8982 C   0  0  0  0  0  0  0  0  0  0  0  0
   24.5931  -20.8406   -6.8960 O   0  0  0  0  0  0  0  0  0  0  0  0
   26.2703  -22.0483   -5.9979 O   0  0  0  0  0  0  0  0  0  0  0  0
  1  2  1  0
  2  3  2  0
  4  5  1  0
  4  2  1  0
  5  6  1  0
  6  8  1  0
  6  7  1  6
  8  9  2  0
 10 11  1  0
 10  8  1  0
 12 13  1  0
 11 12  1  6
 13 14  1  0
 14 18  1  0
 14 15  2  0
 16 11  1  0
 17 16  2  0
 19 16  1  0
 20 19  1  0
 20 21  1  1
 22 21  1  0
 23 20  1  0
 24 23  2  0
 25 23  1  0
M  END
$$$$
