QEC.pdb
     RDKit          3D

 25 24  0  0  1  0  0  0  0  0999 V2000
   10.9291  -12.1390  -11.7980 N   0  0  0  0  0  0  0  0  0  0  0  0
   11.4270  -13.3893  -11.3738 C   0  0  0  0  0  0  0  0  0  0  0  0
   10.7241  -14.4047  -11.5275 O   0  0  0  0  0  0  0  0  0  0  0  0
   12.7656  -13.5213  -10.7504 C   0  0  0  0  0  0  0  0  0  0  0  0
   13.3972  -12.1498  -10.5413 C   0  0  0  0  0  0  0  0  0  0  0  0
   14.6724  -12.1254  -11.3501 C   0  0  2  0  0  0  0  0  0  0  0  0
   15.4003  -13.3720  -11.2413 N   0  0  0  0  0  0  0  0  0  0  0  0
   15.5783  -11.0304  -10.9345 C   0  0  0  0  0  0  0  0  0  0  0  0
   16.3222  -11.1833   -9.9406 O   0  0  0  0  0  0  0  0  0  0  0  0
   15.6249   -9.7975  -11.6432 N   0  0  0  0  0  0  0  0  0  0  0  0
   16.5208   -8.7053  -11.2628 C   0  0  1  0  0  0  0  0  0  0  0  0
   17.2301   -8.2111  -12.4970 C   0  0  0  0  0  0  0  0  0  0  0  0
   18.1977   -7.1158  -12.3145 C   0  0  0  0  0  0  0  0  0  0  0  0
   18.8373   -6.7516  -13.5927 C   0  0  0  0  0  0  0  0  0  0  0  0
   19.0912   -7.6259  -14.4344 O   0  0  0  0  0  0  0  0  0  0  0  0
   15.6632   -7.6153  -10.7396 C   0  0  0  0  0  0  0  0  0  0  0  0
   14.5947   -7.3093  -11.3199 O   0  0  0  0  0  0  0  0  0  0  0  0
   19.1470   -5.4011  -13.8267 O   0  0  0  0  0  0  0  0  0  0  0  0
   15.9858   -6.8584   -9.5693 N   0  0  0  0  0  0  0  0  0  0  0  0
   15.1889   -5.7223   -9.1359 C   0  0  1  0  0  0  0  0  0  0  0  0
   15.0417   -5.8271   -7.6169 C   0  0  0  0  0  0  0  0  0  0  0  0
   14.1272   -4.4414   -6.9329 S   0  0  0  0  0  0  0  0  0  0  0  0
   15.7880   -4.4395   -9.5315 C   0  0  0  0  0  0  0  0  0  0  0  0
   17.0499   -4.2918   -9.6140 O   0  0  0  0  0  0  0  0  0  0  0  0
   15.0281   -3.3219   -9.8365 O   0  0  0  0  0  0  0  0  0  0  0  0
  1  2  1  0
  2  3  2  0
  4  5  1  0
  4  2  1  0
  5  6  1  0
  6  8  1  0
  6  7  1  1
  8  9  2  0
 10 11  1  0
 10  8  1  0
 12 13  1  0
 11 12  1  6
 13 14  1  0
 14 18  1  0
 14 15  2  0
 16 11  1  0
 17 16  2  0
 19 16  1  0
 20 19  1  0
 20 21  1  1
 22 21  1  0
 23 20  1  0
 24 23  2  0
 25 23  1  0
M  END
$$$$
