QEC.pdb
     RDKit          3D

 25 24  0  0  1  0  0  0  0  0999 V2000
   17.3753  -14.8665  -15.9645 N   0  0  0  0  0  0  0  0  0  0  0  0
   18.2520  -15.8072  -16.5456 C   0  0  0  0  0  0  0  0  0  0  0  0
   17.8211  -16.9382  -16.8352 O   0  0  0  0  0  0  0  0  0  0  0  0
   19.6720  -15.4802  -16.8186 C   0  0  0  0  0  0  0  0  0  0  0  0
   19.9765  -14.0403  -16.4217 C   0  0  0  0  0  0  0  0  0  0  0  0
   21.4077  -13.7682  -16.8192 C   0  0  2  0  0  0  0  0  0  0  0  0
   22.3272  -14.6778  -16.1690 N   0  0  0  0  0  0  0  0  0  0  0  0
   21.8265  -12.3858  -16.4931 C   0  0  0  0  0  0  0  0  0  0  0  0
   22.0015  -12.0552  -15.2995 O   0  0  0  0  0  0  0  0  0  0  0  0
   22.0369  -11.4151  -17.5118 N   0  0  0  0  0  0  0  0  0  0  0  0
   22.4951  -10.0566  -17.2208 C   0  0  1  0  0  0  0  0  0  0  0  0
   23.0459   -9.4517  -18.4862 C   0  0  0  0  0  0  0  0  0  0  0  0
   23.5306   -8.0634  -18.4038 C   0  0  0  0  0  0  0  0  0  0  0  0
   23.9978   -7.5834  -19.7179 C   0  0  0  0  0  0  0  0  0  0  0  0
   23.2187   -6.9893  -20.4779 O   0  0  0  0  0  0  0  0  0  0  0  0
   21.2992   -9.2846  -16.8071 C   0  0  0  0  0  0  0  0  0  0  0  0
   20.2196   -9.3945  -17.4352 O   0  0  0  0  0  0  0  0  0  0  0  0
   25.3355   -7.8158  -20.0799 O   0  0  0  0  0  0  0  0  0  0  0  0
   21.2938   -8.3861  -15.6938 N   0  0  0  0  0  0  0  0  0  0  0  0
   20.1341   -7.5775  -15.3549 C   0  0  1  0  0  0  0  0  0  0  0  0
   19.5367   -8.1596  -14.0726 C   0  0  0  0  0  0  0  0  0  0  0  0
   18.3394   -7.0499  -13.3247 S   0  0  0  0  0  0  0  0  0  0  0  0
   20.4749   -6.1567  -15.1934 C   0  0  0  0  0  0  0  0  0  0  0  0
   19.5907   -5.2454  -15.2879 O   0  0  0  0  0  0  0  0  0  0  0  0
   21.7641   -5.7222  -14.9309 O   0  0  0  0  0  0  0  0  0  0  0  0
  1  2  1  0
  2  3  2  0
  4  5  1  0
  4  2  1  0
  5  6  1  0
  6  8  1  0
  6  7  1  1
  8  9  2  0
 10 11  1  0
 10  8  1  0
 12 13  1  0
 11 12  1  6
 13 14  1  0
 14 18  1  0
 14 15  2  0
 16 11  1  0
 17 16  2  0
 19 16  1  0
 20 19  1  0
 20 21  1  1
 22 21  1  0
 23 20  1  0
 24 23  2  0
 25 23  1  0
M  END
$$$$
