QEC.pdb
     RDKit          3D

 25 24  0  0  1  0  0  0  0  0999 V2000
   27.5068  -12.8001  -15.1812 N   0  0  0  0  0  0  0  0  0  0  0  0
   27.2803  -13.9683  -15.9395 C   0  0  0  0  0  0  0  0  0  0  0  0
   28.1572  -14.8507  -15.9688 O   0  0  0  0  0  0  0  0  0  0  0  0
   26.0240  -14.1686  -16.7009 C   0  0  0  0  0  0  0  0  0  0  0  0
   25.0698  -13.0010  -16.4775 C   0  0  0  0  0  0  0  0  0  0  0  0
   23.6682  -13.5572  -16.5599 C   0  0  2  0  0  0  0  0  0  0  0  0
   23.5740  -14.6335  -17.5235 N   0  0  0  0  0  0  0  0  0  0  0  0
   22.6762  -12.5230  -16.9327 C   0  0  0  0  0  0  0  0  0  0  0  0
   22.7157  -12.0065  -18.0713 O   0  0  0  0  0  0  0  0  0  0  0  0
   21.6702  -12.0978  -16.0209 N   0  0  0  0  0  0  0  0  0  0  0  0
   20.6592  -11.1011  -16.3743 C   0  0  1  0  0  0  0  0  0  0  0  0
   19.3149  -11.5878  -15.8986 C   0  0  0  0  0  0  0  0  0  0  0  0
   18.7732  -12.7908  -16.5531 C   0  0  0  0  0  0  0  0  0  0  0  0
   18.2261  -13.7360  -15.5617 C   0  0  0  0  0  0  0  0  0  0  0  0
   18.1994  -13.4330  -14.3597 O   0  0  0  0  0  0  0  0  0  0  0  0
   21.0055   -9.8644  -15.6340 C   0  0  0  0  0  0  0  0  0  0  0  0
   21.5095   -9.9265  -14.4876 O   0  0  0  0  0  0  0  0  0  0  0  0
   17.7416  -14.9754  -16.0130 O   0  0  0  0  0  0  0  0  0  0  0  0
   20.7948   -8.5512  -16.1613 N   0  0  0  0  0  0  0  0  0  0  0  0
   21.0966   -7.3511  -15.3983 C   0  0  1  0  0  0  0  0  0  0  0  0
   22.0594   -6.5113  -16.2397 C   0  0  0  0  0  0  0  0  0  0  0  0
   22.3668   -4.9022  -15.5042 S   0  0  0  0  0  0  0  0  0  0  0  0
   19.8855   -6.5942  -15.0500 C   0  0  0  0  0  0  0  0  0  0  0  0
   19.8099   -5.9181  -13.9739 O   0  0  0  0  0  0  0  0  0  0  0  0
   18.7617   -6.5677  -15.8601 O   0  0  0  0  0  0  0  0  0  0  0  0
  1  2  1  0
  2  3  2  0
  4  5  1  0
  4  2  1  0
  5  6  1  0
  6  8  1  0
  6  7  1  6
  8  9  2  0
 10 11  1  0
 10  8  1  0
 12 13  1  0
 11 12  1  1
 13 14  1  0
 14 18  1  0
 14 15  2  0
 16 11  1  0
 17 16  2  0
 19 16  1  0
 20 19  1  0
 20 21  1  6
 22 21  1  0
 23 20  1  0
 24 23  2  0
 25 23  1  0
M  END
$$$$
