QEC.pdb
     RDKit          3D

 25 24  0  0  1  0  0  0  0  0999 V2000
   17.7830  -22.8510  -13.3782 N   0  0  0  0  0  0  0  0  0  0  0  0
   17.2987  -21.7685  -14.1429 C   0  0  0  0  0  0  0  0  0  0  0  0
   16.1649  -21.3160  -13.9014 O   0  0  0  0  0  0  0  0  0  0  0  0
   18.1076  -21.1588  -15.2253 C   0  0  0  0  0  0  0  0  0  0  0  0
   19.2576  -20.3456  -14.6422 C   0  0  0  0  0  0  0  0  0  0  0  0
   20.3274  -20.2724  -15.7055 C   0  0  2  0  0  0  0  0  0  0  0  0
   19.9813  -21.0601  -16.8698 N   0  0  0  0  0  0  0  0  0  0  0  0
   21.6416  -20.7425  -15.2111 C   0  0  0  0  0  0  0  0  0  0  0  0
   21.7132  -21.8005  -14.5476 O   0  0  0  0  0  0  0  0  0  0  0  0
   22.8358  -20.0151  -15.4736 N   0  0  0  0  0  0  0  0  0  0  0  0
   24.1616  -20.5296  -15.1299 C   0  0  1  0  0  0  0  0  0  0  0  0
   25.1921  -19.7885  -15.9417 C   0  0  0  0  0  0  0  0  0  0  0  0
   25.2038  -20.0415  -17.3926 C   0  0  0  0  0  0  0  0  0  0  0  0
   26.2913  -19.2967  -18.0545 C   0  0  0  0  0  0  0  0  0  0  0  0
   27.4385  -19.7661  -18.0875 O   0  0  0  0  0  0  0  0  0  0  0  0
   24.3771  -20.2234  -13.6956 C   0  0  0  0  0  0  0  0  0  0  0  0
   23.9282  -19.1654  -13.1943 O   0  0  0  0  0  0  0  0  0  0  0  0
   25.9938  -18.0544  -18.6398 O   0  0  0  0  0  0  0  0  0  0  0  0
   25.0918  -21.0892  -12.8089 N   0  0  0  0  0  0  0  0  0  0  0  0
   25.9468  -20.5800  -11.7490 C   0  0  1  0  0  0  0  0  0  0  0  0
   25.5653  -21.3208  -10.4661 C   0  0  0  0  0  0  0  0  0  0  0  0
   26.4642  -20.7020   -9.0400 S   0  0  0  0  0  0  0  0  0  0  0  0
   27.3743  -20.7419  -12.0600 C   0  0  0  0  0  0  0  0  0  0  0  0
   28.2679  -20.0663  -11.4548 O   0  0  0  0  0  0  0  0  0  0  0  0
   27.8346  -21.6290  -13.0196 O   0  0  0  0  0  0  0  0  0  0  0  0
  1  2  1  0
  2  3  2  0
  4  5  1  0
  4  2  1  0
  5  6  1  0
  6  8  1  0
  6  7  1  6
  8  9  2  0
 10 11  1  0
 10  8  1  0
 12 13  1  0
 11 12  1  6
 13 14  1  0
 14 18  1  0
 14 15  2  0
 16 11  1  0
 17 16  2  0
 19 16  1  0
 20 19  1  0
 20 21  1  1
 22 21  1  0
 23 20  1  0
 24 23  2  0
 25 23  1  0
M  END
$$$$
