QEC.pdb
     RDKit          3D

 25 24  0  0  1  0  0  0  0  0999 V2000
   15.6038   -7.4490   -7.2512 N   0  0  0  0  0  0  0  0  0  0  0  0
   14.2828   -7.4613   -7.7472 C   0  0  0  0  0  0  0  0  0  0  0  0
   13.3629   -7.0272   -7.0304 O   0  0  0  0  0  0  0  0  0  0  0  0
   13.9659   -7.9786   -9.1000 C   0  0  0  0  0  0  0  0  0  0  0  0
   15.2267   -8.4903   -9.7872 C   0  0  0  0  0  0  0  0  0  0  0  0
   14.8057   -9.0262  -11.1349 C   0  0  2  0  0  0  0  0  0  0  0  0
   14.7456  -10.4726  -11.1419 N   0  0  0  0  0  0  0  0  0  0  0  0
   15.7228   -8.6025  -12.2174 C   0  0  0  0  0  0  0  0  0  0  0  0
   16.3073   -9.4652  -12.9094 O   0  0  0  0  0  0  0  0  0  0  0  0
   15.9585   -7.2268  -12.4934 N   0  0  0  0  0  0  0  0  0  0  0  0
   16.8713   -6.7811  -13.5463 C   0  0  1  0  0  0  0  0  0  0  0  0
   16.5493   -5.3499  -13.8900 C   0  0  0  0  0  0  0  0  0  0  0  0
   17.3947   -4.7039  -14.9083 C   0  0  0  0  0  0  0  0  0  0  0  0
   16.9443   -3.3255  -15.1783 C   0  0  0  0  0  0  0  0  0  0  0  0
   17.5468   -2.6229  -16.0035 O   0  0  0  0  0  0  0  0  0  0  0  0
   18.2379   -6.8362  -12.9747 C   0  0  0  0  0  0  0  0  0  0  0  0
   18.4312   -6.6000  -11.7585 O   0  0  0  0  0  0  0  0  0  0  0  0
   15.8260   -2.8368  -14.4819 O   0  0  0  0  0  0  0  0  0  0  0  0
   19.3982   -7.1537  -13.7489 N   0  0  0  0  0  0  0  0  0  0  0  0
   20.7321   -7.1831  -13.1715 C   0  0  1  0  0  0  0  0  0  0  0  0
   21.4357   -8.4245  -13.7229 C   0  0  0  0  0  0  0  0  0  0  0  0
   23.1200   -8.5673  -13.1170 S   0  0  0  0  0  0  0  0  0  0  0  0
   21.4919   -5.9591  -13.4642 C   0  0  0  0  0  0  0  0  0  0  0  0
   21.4363   -5.3985  -14.6060 O   0  0  0  0  0  0  0  0  0  0  0  0
   22.3075   -5.3436  -12.5284 O   0  0  0  0  0  0  0  0  0  0  0  0
  1  2  1  0
  2  3  2  0
  4  5  1  0
  4  2  1  0
  5  6  1  0
  6  8  1  0
  6  7  1  1
  8  9  2  0
 10 11  1  0
 10  8  1  0
 12 13  1  0
 11 12  1  1
 13 14  1  0
 14 18  1  0
 14 15  2  0
 16 11  1  0
 17 16  2  0
 19 16  1  0
 20 19  1  0
 20 21  1  6
 22 21  1  0
 23 20  1  0
 24 23  2  0
 25 23  1  0
M  END
$$$$
