QEC.pdb
     RDKit          3D

 25 24  0  0  1  0  0  0  0  0999 V2000
   29.4734  -18.2400  -17.8782 N   0  0  0  0  0  0  0  0  0  0  0  0
   28.5145  -18.8444  -18.7187 C   0  0  0  0  0  0  0  0  0  0  0  0
   28.6770  -18.8011  -19.9517 O   0  0  0  0  0  0  0  0  0  0  0  0
   27.3201  -19.5286  -18.1681 C   0  0  0  0  0  0  0  0  0  0  0  0
   27.2206  -19.3055  -16.6634 C   0  0  0  0  0  0  0  0  0  0  0  0
   27.5656  -20.6180  -16.0009 C   0  0  2  0  0  0  0  0  0  0  0  0
   27.9136  -21.6338  -16.9719 N   0  0  0  0  0  0  0  0  0  0  0  0
   26.4520  -21.1385  -15.1754 C   0  0  0  0  0  0  0  0  0  0  0  0
   25.7086  -22.0359  -15.6301 O   0  0  0  0  0  0  0  0  0  0  0  0
   26.2035  -20.6397  -13.8663 N   0  0  0  0  0  0  0  0  0  0  0  0
   25.1387  -21.1672  -13.0128 C   0  0  1  0  0  0  0  0  0  0  0  0
   25.4468  -20.8113  -11.5815 C   0  0  0  0  0  0  0  0  0  0  0  0
   24.4607  -21.2207  -10.5671 C   0  0  0  0  0  0  0  0  0  0  0  0
   24.8999  -20.8378   -9.2121 C   0  0  0  0  0  0  0  0  0  0  0  0
   24.1523  -21.0191   -8.2396 O   0  0  0  0  0  0  0  0  0  0  0  0
   23.8904  -20.4767  -13.4156 C   0  0  0  0  0  0  0  0  0  0  0  0
   23.8664  -19.2308  -13.5545 O   0  0  0  0  0  0  0  0  0  0  0  0
   26.1750  -20.2683   -9.0563 O   0  0  0  0  0  0  0  0  0  0  0  0
   22.6612  -21.1643  -13.6667 N   0  0  0  0  0  0  0  0  0  0  0  0
   21.4422  -20.4642  -14.0375 C   0  0  1  0  0  0  0  0  0  0  0  0
   20.8820  -21.1598  -15.2794 C   0  0  0  0  0  0  0  0  0  0  0  0
   22.1159  -21.3200  -16.5742 S   0  0  0  0  0  0  0  0  0  0  0  0
   20.4598  -20.4410  -12.9442 C   0  0  0  0  0  0  0  0  0  0  0  0
   20.5522  -21.2306  -11.9498 O   0  0  0  0  0  0  0  0  0  0  0  0
   19.3830  -19.5692  -12.9251 O   0  0  0  0  0  0  0  0  0  0  0  0
  1  2  1  0
  2  3  2  0
  4  5  1  0
  4  2  1  0
  5  6  1  0
  6  8  1  0
  6  7  1  6
  8  9  2  0
 10 11  1  0
 10  8  1  0
 12 13  1  0
 11 12  1  1
 13 14  1  0
 14 18  1  0
 14 15  2  0
 16 11  1  0
 17 16  2  0
 19 16  1  0
 20 19  1  0
 20 21  1  6
 22 21  1  0
 23 20  1  0
 24 23  2  0
 25 23  1  0
M  END
$$$$
