QEC.pdb
     RDKit          3D

 25 24  0  0  1  0  0  0  0  0999 V2000
   15.6445  -12.0353  -15.9567 N   0  0  0  0  0  0  0  0  0  0  0  0
   16.6515  -12.6296  -16.7467 C   0  0  0  0  0  0  0  0  0  0  0  0
   16.3547  -13.5830  -17.4893 O   0  0  0  0  0  0  0  0  0  0  0  0
   18.0523  -12.1455  -16.7125 C   0  0  0  0  0  0  0  0  0  0  0  0
   18.1685  -10.9015  -15.8392 C   0  0  0  0  0  0  0  0  0  0  0  0
   19.5990  -10.4276  -15.9378 C   0  0  2  0  0  0  0  0  0  0  0  0
   20.5234  -11.3929  -15.3815 N   0  0  0  0  0  0  0  0  0  0  0  0
   19.8113   -9.1386  -15.2408 C   0  0  0  0  0  0  0  0  0  0  0  0
   19.6114   -9.0586  -14.0085 O   0  0  0  0  0  0  0  0  0  0  0  0
   20.2407   -7.9780  -15.9429 N   0  0  0  0  0  0  0  0  0  0  0  0
   20.4502   -6.6906  -15.2802 C   0  0  1  0  0  0  0  0  0  0  0  0
   21.8601   -6.2328  -15.5502 C   0  0  0  0  0  0  0  0  0  0  0  0
   22.2518   -4.9244  -14.9991 C   0  0  0  0  0  0  0  0  0  0  0  0
   22.3469   -4.9729  -13.5280 C   0  0  0  0  0  0  0  0  0  0  0  0
   22.5060   -6.0576  -12.9487 O   0  0  0  0  0  0  0  0  0  0  0  0
   19.5110   -5.7316  -15.9091 C   0  0  0  0  0  0  0  0  0  0  0  0
   19.4167   -5.6556  -17.1571 O   0  0  0  0  0  0  0  0  0  0  0  0
   22.2531   -3.7687  -12.8099 O   0  0  0  0  0  0  0  0  0  0  0  0
   18.6707   -4.8511  -15.1572 N   0  0  0  0  0  0  0  0  0  0  0  0
   17.8075   -3.8700  -15.7943 C   0  0  1  0  0  0  0  0  0  0  0  0
   16.3747   -4.1757  -15.3542 C   0  0  0  0  0  0  0  0  0  0  0  0
   15.2415   -2.8518  -15.7873 S   0  0  0  0  0  0  0  0  0  0  0  0
   18.1910   -2.4910  -15.4592 C   0  0  0  0  0  0  0  0  0  0  0  0
   18.2456   -1.5810  -16.3480 O   0  0  0  0  0  0  0  0  0  0  0  0
   18.5137   -2.0968  -14.1707 O   0  0  0  0  0  0  0  0  0  0  0  0
  1  2  1  0
  2  3  2  0
  4  5  1  0
  4  2  1  0
  5  6  1  0
  6  8  1  0
  6  7  1  1
  8  9  2  0
 10 11  1  0
 10  8  1  0
 12 13  1  0
 11 12  1  6
 13 14  1  0
 14 18  1  0
 14 15  2  0
 16 11  1  0
 17 16  2  0
 19 16  1  0
 20 19  1  0
 20 21  1  1
 22 21  1  0
 23 20  1  0
 24 23  2  0
 25 23  1  0
M  END
$$$$
