ELW.pdb
     RDKit          3D

 32 33  0  0  1  0  0  0  0  0999 V2000
   15.2006  -22.1976    2.0521 N   0  0  0  0  0  0  0  0  0  0  0  0
   14.6655  -22.3980    3.4033 C   0  0  1  0  0  0  0  0  0  0  0  0
   13.7850  -23.5946    3.4791 C   0  0  0  0  0  0  0  0  0  0  0  0
   12.7262  -23.6686    2.4260 C   0  0  0  0  0  0  0  0  0  0  0  0
   11.4123  -23.8284    3.0957 C   0  0  0  0  0  0  0  0  0  0  0  0
   10.3775  -24.1756    2.4740 O   0  0  0  0  0  0  0  0  0  0  0  0
   15.7674  -22.3732    4.3668 C   0  0  0  0  0  0  0  0  0  0  0  0
   15.5245  -22.5557    5.5821 O   0  0  0  0  0  0  0  0  0  0  0  0
   11.3153  -23.5877    4.4526 O   0  0  0  0  0  0  0  0  0  0  0  0
   19.6106  -24.8802    4.7767 C   0  0  0  0  0  0  0  0  0  0  0  0
   19.5693  -23.8375    3.6338 C   0  0  2  0  0  0  0  0  0  0  0  0
   20.7673  -24.0851    2.7835 C   0  0  0  0  0  0  0  0  0  0  0  0
   19.4848  -22.5144    4.2841 C   0  0  0  0  0  0  0  0  0  0  0  0
   18.2129  -22.1571    4.9788 C   0  0  2  0  0  0  0  0  0  0  0  0
   17.1113  -22.1486    3.9823 N   0  0  0  0  0  0  0  0  0  0  0  0
   18.1845  -20.8681    5.6690 C   0  0  0  0  0  0  0  0  0  0  0  0
   18.9698  -20.7073    6.6701 O   0  0  0  0  0  0  0  0  0  0  0  0
   17.3877  -19.7536    5.3646 N   0  0  0  0  0  0  0  0  0  0  0  0
   17.3330  -18.5202    6.1504 C   0  0  1  0  0  0  0  0  0  0  0  0
   18.4250  -17.6013    5.7953 C   0  0  0  0  0  0  0  0  0  0  0  0
   18.2255  -16.9104    4.5144 C   0  0  0  0  0  0  0  0  0  0  0  0
   17.7664  -17.4870    3.3179 C   0  0  0  0  0  0  0  0  0  0  0  0
   17.7491  -16.5440    2.3659 N   0  0  0  0  0  0  0  0  0  0  0  0
   18.1682  -15.3585    2.8436 C   0  0  0  0  0  0  0  0  0  0  0  0
   18.3084  -14.0978    2.2665 C   0  0  0  0  0  0  0  0  0  0  0  0
   18.7481  -13.0296    3.0133 C   0  0  0  0  0  0  0  0  0  0  0  0
   19.0415  -13.2508    4.3415 C   0  0  0  0  0  0  0  0  0  0  0  0
   18.9043  -14.4970    4.9146 C   0  0  0  0  0  0  0  0  0  0  0  0
   18.4641  -15.5787    4.1722 C   0  0  0  0  0  0  0  0  0  0  0  0
   16.0197  -17.9207    6.1686 C   0  0  0  0  0  0  0  0  0  0  0  0
   15.8629  -16.8915    6.9147 O   0  0  0  0  0  0  0  0  0  0  0  0
   14.9057  -18.3245    5.4676 O   0  0  0  0  0  0  0  0  0  0  0  0
  2  3  1  0
  2  1  1  6
  4  3  1  0
  5  6  2  0
  5  4  1  0
  7 15  1  0
  7  2  1  0
  8  7  2  0
  9  5  1  0
 11 10  1  1
 11 12  1  0
 13 11  1  0
 14 16  1  0
 14 13  1  6
 14 15  1  0
 16 17  2  0
 18 19  1  0
 18 16  1  0
 19 30  1  0
 19 20  1  6
 21 20  1  0
 22 21  2  0
 23 24  1  0
 23 22  1  0
 24 29  2  0
 25 26  2  0
 25 24  1  0
 26 27  1  0
 27 28  2  0
 29 21  1  0
 29 28  1  0
 30 31  2  0
 30 32  1  0
M  END
$$$$
