ELW.pdb
     RDKit          3D

 32 33  0  0  1  0  0  0  0  0999 V2000
   24.5629  -20.3493  -16.2752 N   0  0  0  0  0  0  0  0  0  0  0  0
   24.5280  -19.9581  -14.8617 C   0  0  1  0  0  0  0  0  0  0  0  0
   23.1350  -19.8351  -14.3547 C   0  0  0  0  0  0  0  0  0  0  0  0
   22.2821  -18.8457  -15.0820 C   0  0  0  0  0  0  0  0  0  0  0  0
   22.5005  -17.5084  -14.4784 C   0  0  0  0  0  0  0  0  0  0  0  0
   22.2513  -17.2656  -13.2714 O   0  0  0  0  0  0  0  0  0  0  0  0
   25.3944  -20.8530  -14.0924 C   0  0  0  0  0  0  0  0  0  0  0  0
   25.4576  -22.0645  -14.4046 O   0  0  0  0  0  0  0  0  0  0  0  0
   22.9954  -16.4874  -15.2666 O   0  0  0  0  0  0  0  0  0  0  0  0
   30.5273  -20.1759  -12.8305 C   0  0  0  0  0  0  0  0  0  0  0  0
   29.0928  -20.5568  -13.2690 C   0  0  2  0  0  0  0  0  0  0  0  0
   28.5846  -19.4298  -14.1004 C   0  0  0  0  0  0  0  0  0  0  0  0
   28.3459  -20.8503  -12.0295 C   0  0  0  0  0  0  0  0  0  0  0  0
   26.9474  -21.3558  -12.1593 C   0  0  2  0  0  0  0  0  0  0  0  0
   26.1726  -20.4054  -12.9977 N   0  0  0  0  0  0  0  0  0  0  0  0
   26.2024  -21.5451  -10.9152 C   0  0  0  0  0  0  0  0  0  0  0  0
   26.5338  -22.5289  -10.1623 O   0  0  0  0  0  0  0  0  0  0  0  0
   25.1442  -20.7637  -10.4261 N   0  0  0  0  0  0  0  0  0  0  0  0
   24.3948  -21.0375   -9.1991 C   0  0  1  0  0  0  0  0  0  0  0  0
   24.6375  -20.0112   -8.1742 C   0  0  0  0  0  0  0  0  0  0  0  0
   26.0601  -19.7852   -7.8865 C   0  0  0  0  0  0  0  0  0  0  0  0
   27.0734  -19.5404   -8.8289 C   0  0  0  0  0  0  0  0  0  0  0  0
   28.2408  -19.4187   -8.1822 N   0  0  0  0  0  0  0  0  0  0  0  0
   28.0824  -19.5648   -6.8545 C   0  0  0  0  0  0  0  0  0  0  0  0
   28.9682  -19.5071   -5.7802 C   0  0  0  0  0  0  0  0  0  0  0  0
   28.5187  -19.6745   -4.4909 C   0  0  0  0  0  0  0  0  0  0  0  0
   27.1721  -19.8991   -4.3034 C   0  0  0  0  0  0  0  0  0  0  0  0
   26.2940  -19.9573   -5.3644 C   0  0  0  0  0  0  0  0  0  0  0  0
   26.7356  -19.7916   -6.6654 C   0  0  0  0  0  0  0  0  0  0  0  0
   23.0026  -21.3325   -9.4424 C   0  0  0  0  0  0  0  0  0  0  0  0
   22.6067  -21.2956  -10.6600 O   0  0  0  0  0  0  0  0  0  0  0  0
   22.0412  -21.6578   -8.5123 O   0  0  0  0  0  0  0  0  0  0  0  0
  2  3  1  0
  2  1  1  6
  4  3  1  0
  5  6  2  0
  5  4  1  0
  7 15  1  0
  7  2  1  0
  8  7  2  0
  9  5  1  0
 11 10  1  1
 11 12  1  0
 13 11  1  0
 14 16  1  0
 14 13  1  1
 14 15  1  0
 16 17  2  0
 18 19  1  0
 18 16  1  0
 19 30  1  0
 19 20  1  1
 21 20  1  0
 22 21  2  0
 23 24  1  0
 23 22  1  0
 24 29  2  0
 25 26  2  0
 25 24  1  0
 26 27  1  0
 27 28  2  0
 29 21  1  0
 29 28  1  0
 30 31  2  0
 30 32  1  0
M  END
$$$$
