ELW.pdb
     RDKit          3D

 32 33  0  0  1  0  0  0  0  0999 V2000
   27.4927  -22.5156  -16.1932 N   0  0  0  0  0  0  0  0  0  0  0  0
   26.6961  -21.3841  -15.7059 C   0  0  1  0  0  0  0  0  0  0  0  0
   25.6200  -21.0108  -16.6627 C   0  0  0  0  0  0  0  0  0  0  0  0
   26.0974  -20.4605  -17.9683 C   0  0  0  0  0  0  0  0  0  0  0  0
   26.6194  -19.0917  -17.7351 C   0  0  0  0  0  0  0  0  0  0  0  0
   27.8477  -18.8293  -17.7422 O   0  0  0  0  0  0  0  0  0  0  0  0
   26.2469  -21.6634  -14.3408 C   0  0  0  0  0  0  0  0  0  0  0  0
   25.8388  -22.8119  -14.0517 O   0  0  0  0  0  0  0  0  0  0  0  0
   25.7278  -18.0629  -17.5003 O   0  0  0  0  0  0  0  0  0  0  0  0
   28.3672  -22.3564  -11.1695 C   0  0  0  0  0  0  0  0  0  0  0  0
   28.2039  -20.8202  -11.2623 C   0  0  2  0  0  0  0  0  0  0  0  0
   29.2095  -20.2251  -10.3382 C   0  0  0  0  0  0  0  0  0  0  0  0
   26.7858  -20.5365  -10.9644 C   0  0  0  0  0  0  0  0  0  0  0  0
   25.7607  -20.9853  -11.9522 C   0  0  2  0  0  0  0  0  0  0  0  0
   26.2520  -20.6817  -13.3208 N   0  0  0  0  0  0  0  0  0  0  0  0
   24.4291  -20.3937  -11.8273 C   0  0  0  0  0  0  0  0  0  0  0  0
   24.3495  -19.1743  -11.4386 O   0  0  0  0  0  0  0  0  0  0  0  0
   23.1941  -21.0070  -12.0890 N   0  0  0  0  0  0  0  0  0  0  0  0
   22.1423  -20.4485  -12.9396 C   0  0  1  0  0  0  0  0  0  0  0  0
   22.6943  -19.8559  -14.1672 C   0  0  0  0  0  0  0  0  0  0  0  0
   21.6839  -19.2273  -15.0284 C   0  0  0  0  0  0  0  0  0  0  0  0
   20.8433  -18.1553  -14.6830 C   0  0  0  0  0  0  0  0  0  0  0  0
   20.0391  -17.8886  -15.7213 N   0  0  0  0  0  0  0  0  0  0  0  0
   20.2831  -18.7149  -16.7542 C   0  0  0  0  0  0  0  0  0  0  0  0
   19.7388  -18.8239  -18.0325 C   0  0  0  0  0  0  0  0  0  0  0  0
   20.2061  -19.7697  -18.9153 C   0  0  0  0  0  0  0  0  0  0  0  0
   21.2234  -20.5974  -18.4924 C   0  0  0  0  0  0  0  0  0  0  0  0
   21.7631  -20.4920  -17.2283 C   0  0  0  0  0  0  0  0  0  0  0  0
   21.2997  -19.5451  -16.3318 C   0  0  0  0  0  0  0  0  0  0  0  0
   21.0428  -21.3605  -13.1494 C   0  0  0  0  0  0  0  0  0  0  0  0
   21.3414  -22.5635  -13.4720 O   0  0  0  0  0  0  0  0  0  0  0  0
   19.6977  -21.0895  -13.0370 O   0  0  0  0  0  0  0  0  0  0  0  0
  2  3  1  0
  2  1  1  6
  4  3  1  0
  5  6  2  0
  5  4  1  0
  7 15  1  0
  7  2  1  0
  8  7  2  0
  9  5  1  0
 11 10  1  1
 11 12  1  0
 13 11  1  0
 14 16  1  0
 14 13  1  1
 14 15  1  0
 16 17  2  0
 18 19  1  0
 18 16  1  0
 19 30  1  0
 19 20  1  6
 21 20  1  0
 22 21  2  0
 23 24  1  0
 23 22  1  0
 24 29  2  0
 25 26  2  0
 25 24  1  0
 26 27  1  0
 27 28  2  0
 29 21  1  0
 29 28  1  0
 30 31  2  0
 30 32  1  0
M  END
$$$$
