ELW.pdb
     RDKit          3D

 32 33  0  0  1  0  0  0  0  0999 V2000
   28.4697  -22.2297  -17.9003 N   0  0  0  0  0  0  0  0  0  0  0  0
   28.3571  -21.0482  -17.0379 C   0  0  1  0  0  0  0  0  0  0  0  0
   27.3717  -20.0675  -17.5670 C   0  0  0  0  0  0  0  0  0  0  0  0
   27.7365  -19.4489  -18.8784 C   0  0  0  0  0  0  0  0  0  0  0  0
   28.6736  -18.3281  -18.6212 C   0  0  0  0  0  0  0  0  0  0  0  0
   28.3173  -17.2720  -18.0419 O   0  0  0  0  0  0  0  0  0  0  0  0
   28.1279  -21.4790  -15.6576 C   0  0  0  0  0  0  0  0  0  0  0  0
   27.3058  -22.3962  -15.4293 O   0  0  0  0  0  0  0  0  0  0  0  0
   29.9878  -18.4427  -19.0314 O   0  0  0  0  0  0  0  0  0  0  0  0
   30.5554  -20.3253  -10.1104 C   0  0  0  0  0  0  0  0  0  0  0  0
   29.2868  -20.8946  -10.7900 C   0  0  2  0  0  0  0  0  0  0  0  0
   29.0919  -22.2699  -10.2515 C   0  0  0  0  0  0  0  0  0  0  0  0
   29.5117  -20.7823  -12.2451 C   0  0  0  0  0  0  0  0  0  0  0  0
   28.4117  -21.2132  -13.1575 C   0  0  2  0  0  0  0  0  0  0  0  0
   28.8009  -20.8978  -14.5560 N   0  0  0  0  0  0  0  0  0  0  0  0
   27.0978  -20.6141  -12.9264 C   0  0  0  0  0  0  0  0  0  0  0  0
   26.8973  -19.4243  -13.3607 O   0  0  0  0  0  0  0  0  0  0  0  0
   25.9979  -21.1930  -12.2747 N   0  0  0  0  0  0  0  0  0  0  0  0
   24.6914  -20.5558  -12.1045 C   0  0  1  0  0  0  0  0  0  0  0  0
   23.9889  -20.4063  -13.3878 C   0  0  0  0  0  0  0  0  0  0  0  0
   22.5250  -20.4143  -13.2668 C   0  0  0  0  0  0  0  0  0  0  0  0
   21.7096  -19.3206  -12.9295 C   0  0  0  0  0  0  0  0  0  0  0  0
   20.4348  -19.7317  -12.8893 N   0  0  0  0  0  0  0  0  0  0  0  0
   20.3334  -21.0410  -13.1806 C   0  0  0  0  0  0  0  0  0  0  0  0
   19.2486  -21.9095  -13.2852 C   0  0  0  0  0  0  0  0  0  0  0  0
   19.4365  -23.2279  -13.6299 C   0  0  0  0  0  0  0  0  0  0  0  0
   20.7258  -23.6534  -13.8661 C   0  0  0  0  0  0  0  0  0  0  0  0
   21.8005  -22.7964  -13.7626 C   0  0  0  0  0  0  0  0  0  0  0  0
   21.6230  -21.4687  -13.4153 C   0  0  0  0  0  0  0  0  0  0  0  0
   23.9057  -21.1527  -11.0505 C   0  0  0  0  0  0  0  0  0  0  0  0
   22.8974  -20.4841  -10.6300 O   0  0  0  0  0  0  0  0  0  0  0  0
   24.1099  -22.3703  -10.4415 O   0  0  0  0  0  0  0  0  0  0  0  0
  2  3  1  0
  2  1  1  6
  4  3  1  0
  5  6  2  0
  5  4  1  0
  7 15  1  0
  7  2  1  0
  8  7  2  0
  9  5  1  0
 11 10  1  1
 11 12  1  0
 13 11  1  0
 14 16  1  0
 14 13  1  1
 14 15  1  0
 16 17  2  0
 18 19  1  0
 18 16  1  0
 19 30  1  0
 19 20  1  6
 21 20  1  0
 22 21  2  0
 23 24  1  0
 23 22  1  0
 24 29  2  0
 25 26  2  0
 25 24  1  0
 26 27  1  0
 27 28  2  0
 29 21  1  0
 29 28  1  0
 30 31  2  0
 30 32  1  0
M  END
$$$$
