FWM.pdb
     RDKit          3D

 34 36  0  0  1  0  0  0  0  0999 V2000
   27.6200  -23.0851  -17.3422 N   0  0  0  0  0  0  0  0  0  0  0  0
   26.7537  -22.0110  -16.9472 C   0  0  1  0  0  0  0  0  0  0  0  0
   25.6055  -21.9446  -17.9519 C   0  0  0  0  0  0  0  0  0  0  0  0
   26.1457  -21.2516  -19.1534 C   0  0  0  0  0  0  0  0  0  0  0  0
   26.5776  -21.9515  -20.2587 C   0  0  0  0  0  0  0  0  0  0  0  0
   27.0835  -21.2948  -21.3789 C   0  0  0  0  0  0  0  0  0  0  0  0
   27.1734  -19.9221  -21.4286 C   0  0  0  0  0  0  0  0  0  0  0  0
   26.7404  -19.2165  -20.3196 C   0  0  0  0  0  0  0  0  0  0  0  0
   26.2418  -19.8778  -19.2182 C   0  0  0  0  0  0  0  0  0  0  0  0
   26.2356  -22.1604  -15.5496 C   0  0  0  0  0  0  0  0  0  0  0  0
   25.5250  -23.1488  -15.2342 O   0  0  0  0  0  0  0  0  0  0  0  0
   26.5751  -21.1567  -14.6137 N   0  0  0  0  0  0  0  0  0  0  0  0
   26.1302  -21.1126  -13.2326 C   0  0  1  0  0  0  0  0  0  0  0  0
   27.0165  -20.3137  -12.3552 C   0  0  0  0  0  0  0  0  0  0  0  0
   26.5548  -20.1803  -10.9750 C   0  0  0  0  0  0  0  0  0  0  0  0
   25.3128  -19.7041  -10.5515 C   0  0  0  0  0  0  0  0  0  0  0  0
   25.2477  -19.6916   -9.2267 N   0  0  0  0  0  0  0  0  0  0  0  0
   26.4183  -20.1499   -8.7489 C   0  0  0  0  0  0  0  0  0  0  0  0
   26.7807  -20.3183   -7.4328 C   0  0  0  0  0  0  0  0  0  0  0  0
   28.0539  -20.8308   -7.1599 C   0  0  0  0  0  0  0  0  0  0  0  0
   28.8926  -21.1468   -8.2000 C   0  0  0  0  0  0  0  0  0  0  0  0
   28.4977  -20.9654   -9.5072 C   0  0  0  0  0  0  0  0  0  0  0  0
   27.2472  -20.4607   -9.8010 C   0  0  0  0  0  0  0  0  0  0  0  0
   24.6892  -20.8779  -13.1111 C   0  0  0  0  0  0  0  0  0  0  0  0
   24.1192  -19.8053  -13.4411 O   0  0  0  0  0  0  0  0  0  0  0  0
   20.2559  -25.5027  -13.5190 C   0  0  0  0  0  0  0  0  0  0  0  0
   19.4039  -24.4585  -12.3058 S   0  0  0  0  0  0  0  0  0  0  0  0
   20.1974  -22.8342  -12.1652 C   0  0  0  0  0  0  0  0  0  0  0  0
   21.6718  -23.0052  -12.3417 C   0  0  0  0  0  0  0  0  0  0  0  0
   22.3839  -21.7019  -12.4529 C   0  0  2  0  0  0  0  0  0  0  0  0
   23.8194  -21.8884  -12.5944 N   0  0  0  0  0  0  0  0  0  0  0  0
   22.1172  -20.7422  -11.3779 C   0  0  0  0  0  0  0  0  0  0  0  0
   22.7320  -20.7622  -10.2628 O   0  0  0  0  0  0  0  0  0  0  0  0
   21.1724  -19.7538  -11.5303 O   0  0  0  0  0  0  0  0  0  0  0  0
  2  1  1  6
  3  2  1  0
  4  3  1  0
  4  5  2  0
  6  5  1  0
  7  6  2  0
  8  9  2  0
  8  7  1  0
  9  4  1  0
 10 11  2  0
 10  2  1  0
 12 10  1  0
 13 12  1  0
 13 14  1  1
 15 23  1  0
 15 14  1  0
 16 15  2  0
 17 16  1  0
 17 18  1  0
 18 23  2  0
 19 18  1  0
 19 20  2  0
 20 21  1  0
 21 22  2  0
 23 22  1  0
 24 25  2  0
 24 13  1  0
 26 27  1  0
 28 27  1  0
 28 29  1  0
 30 29  1  1
 30 31  1  0
 31 24  1  0
 32 30  1  0
 33 32  2  0
 34 32  1  0
M  END
$$$$
