FWM.pdb
     RDKit          3D

 34 36  0  0  1  0  0  0  0  0999 V2000
   26.4238  -19.1220  -10.4036 N   0  0  0  0  0  0  0  0  0  0  0  0
   26.2187  -20.5341  -10.5590 C   0  0  1  0  0  0  0  0  0  0  0  0
   25.6608  -21.0718   -9.2431 C   0  0  0  0  0  0  0  0  0  0  0  0
   26.6588  -20.7214   -8.1958 C   0  0  0  0  0  0  0  0  0  0  0  0
   27.9344  -21.2415   -8.2098 C   0  0  0  0  0  0  0  0  0  0  0  0
   28.8622  -20.9094   -7.2244 C   0  0  0  0  0  0  0  0  0  0  0  0
   28.5442  -20.0500   -6.1972 C   0  0  0  0  0  0  0  0  0  0  0  0
   27.2633  -19.5261   -6.1806 C   0  0  0  0  0  0  0  0  0  0  0  0
   26.3553  -19.8622   -7.1611 C   0  0  0  0  0  0  0  0  0  0  0  0
   25.3132  -20.8718  -11.7036 C   0  0  0  0  0  0  0  0  0  0  0  0
   24.2483  -20.2284  -11.8867 O   0  0  0  0  0  0  0  0  0  0  0  0
   25.7017  -21.9298  -12.5570 N   0  0  0  0  0  0  0  0  0  0  0  0
   24.9701  -22.3732  -13.7298 C   0  0  1  0  0  0  0  0  0  0  0  0
   25.7399  -23.3066  -14.5841 C   0  0  0  0  0  0  0  0  0  0  0  0
   25.0611  -23.7157  -15.8120 C   0  0  0  0  0  0  0  0  0  0  0  0
   24.9404  -22.9726  -16.9876 C   0  0  0  0  0  0  0  0  0  0  0  0
   24.2333  -23.6414  -17.8889 N   0  0  0  0  0  0  0  0  0  0  0  0
   23.8761  -24.8188  -17.3462 C   0  0  0  0  0  0  0  0  0  0  0  0
   23.1485  -25.8282  -17.9325 C   0  0  0  0  0  0  0  0  0  0  0  0
   22.9049  -26.9856  -17.1847 C   0  0  0  0  0  0  0  0  0  0  0  0
   23.3934  -27.0787  -15.9050 C   0  0  0  0  0  0  0  0  0  0  0  0
   24.1187  -26.0485  -15.3479 C   0  0  0  0  0  0  0  0  0  0  0  0
   24.3709  -24.8970  -16.0657 C   0  0  0  0  0  0  0  0  0  0  0  0
   23.5850  -22.7407  -13.4255 C   0  0  0  0  0  0  0  0  0  0  0  0
   23.2381  -23.4075  -12.4159 O   0  0  0  0  0  0  0  0  0  0  0  0
   20.3650  -27.3932  -13.1087 C   0  0  0  0  0  0  0  0  0  0  0  0
   19.6793  -26.0272  -12.1329 S   0  0  0  0  0  0  0  0  0  0  0  0
   19.6520  -24.4866  -13.0887 C   0  0  0  0  0  0  0  0  0  0  0  0
   21.0549  -23.9941  -13.2426 C   0  0  0  0  0  0  0  0  0  0  0  0
   21.1344  -22.7611  -14.0740 C   0  0  2  0  0  0  0  0  0  0  0  0
   22.5129  -22.3486  -14.2865 N   0  0  0  0  0  0  0  0  0  0  0  0
   20.3498  -21.6214  -13.5910 C   0  0  0  0  0  0  0  0  0  0  0  0
   20.8637  -20.4840  -13.3374 O   0  0  0  0  0  0  0  0  0  0  0  0
   18.9934  -21.7312  -13.3886 O   0  0  0  0  0  0  0  0  0  0  0  0
  2  1  1  1
  3  2  1  0
  4  3  1  0
  4  5  2  0
  6  5  1  0
  7  6  2  0
  8  9  2  0
  8  7  1  0
  9  4  1  0
 10 11  2  0
 10  2  1  0
 12 10  1  0
 13 12  1  0
 13 14  1  1
 15 23  1  0
 15 14  1  0
 16 15  2  0
 17 16  1  0
 17 18  1  0
 18 23  2  0
 19 18  1  0
 19 20  2  0
 20 21  1  0
 21 22  2  0
 23 22  1  0
 24 25  2  0
 24 13  1  0
 26 27  1  0
 28 27  1  0
 28 29  1  0
 30 29  1  1
 30 31  1  0
 31 24  1  0
 32 30  1  0
 33 32  2  0
 34 32  1  0
M  END
$$$$
