FWM.pdb
     RDKit          3D

 34 36  0  0  1  0  0  0  0  0999 V2000
   25.6192  -24.1940  -15.9056 N   0  0  0  0  0  0  0  0  0  0  0  0
   24.7610  -23.0520  -16.0450 C   0  0  1  0  0  0  0  0  0  0  0  0
   24.1901  -23.0680  -17.4613 C   0  0  0  0  0  0  0  0  0  0  0  0
   25.2928  -22.6247  -18.3577 C   0  0  0  0  0  0  0  0  0  0  0  0
   25.9501  -23.5075  -19.1863 C   0  0  0  0  0  0  0  0  0  0  0  0
   26.9825  -23.0844  -20.0212 C   0  0  0  0  0  0  0  0  0  0  0  0
   27.3889  -21.7696  -20.0533 C   0  0  0  0  0  0  0  0  0  0  0  0
   26.7304  -20.8806  -19.2218 C   0  0  0  0  0  0  0  0  0  0  0  0
   25.7108  -21.3116  -18.4011 C   0  0  0  0  0  0  0  0  0  0  0  0
   23.6645  -23.0156  -15.0250 C   0  0  0  0  0  0  0  0  0  0  0  0
   23.0647  -24.0702  -14.6942 O   0  0  0  0  0  0  0  0  0  0  0  0
   23.3377  -21.7624  -14.4582 N   0  0  0  0  0  0  0  0  0  0  0  0
   22.2595  -21.5235  -13.5160 C   0  0  1  0  0  0  0  0  0  0  0  0
   22.4109  -20.2601  -12.7579 C   0  0  0  0  0  0  0  0  0  0  0  0
   21.3305  -19.9773  -11.8153 C   0  0  0  0  0  0  0  0  0  0  0  0
   21.1556  -20.5418  -10.5506 C   0  0  0  0  0  0  0  0  0  0  0  0
   20.0501  -20.0770   -9.9837 N   0  0  0  0  0  0  0  0  0  0  0  0
   19.4773  -19.2112  -10.8387 C   0  0  0  0  0  0  0  0  0  0  0  0
   18.3234  -18.4860  -10.6531 C   0  0  0  0  0  0  0  0  0  0  0  0
   17.9152  -17.6232  -11.6764 C   0  0  0  0  0  0  0  0  0  0  0  0
   18.6687  -17.5268  -12.8200 C   0  0  0  0  0  0  0  0  0  0  0  0
   19.8197  -18.2679  -12.9733 C   0  0  0  0  0  0  0  0  0  0  0  0
   20.2418  -19.1261  -11.9784 C   0  0  0  0  0  0  0  0  0  0  0  0
   20.9391  -21.8007  -14.0871 C   0  0  0  0  0  0  0  0  0  0  0  0
   20.5492  -21.3696  -15.2034 O   0  0  0  0  0  0  0  0  0  0  0  0
   17.8209  -27.2831  -14.0937 C   0  0  0  0  0  0  0  0  0  0  0  0
   17.2572  -26.3246  -15.5261 S   0  0  0  0  0  0  0  0  0  0  0  0
   17.3928  -24.5428  -15.2183 C   0  0  0  0  0  0  0  0  0  0  0  0
   18.4534  -24.3144  -14.1900 C   0  0  0  0  0  0  0  0  0  0  0  0
   18.6486  -22.8690  -13.8892 C   0  0  2  0  0  0  0  0  0  0  0  0
   19.9873  -22.6047  -13.3854 N   0  0  0  0  0  0  0  0  0  0  0  0
   17.6585  -22.2713  -12.9890 C   0  0  0  0  0  0  0  0  0  0  0  0
   17.8913  -22.0396  -11.7586 O   0  0  0  0  0  0  0  0  0  0  0  0
   16.4076  -21.9237  -13.4440 O   0  0  0  0  0  0  0  0  0  0  0  0
  2  1  1  1
  3  2  1  0
  4  3  1  0
  4  5  2  0
  6  5  1  0
  7  6  2  0
  8  9  2  0
  8  7  1  0
  9  4  1  0
 10 11  2  0
 10  2  1  0
 12 10  1  0
 13 12  1  0
 13 14  1  6
 15 23  1  0
 15 14  1  0
 16 15  2  0
 17 16  1  0
 17 18  1  0
 18 23  2  0
 19 18  1  0
 19 20  2  0
 20 21  1  0
 21 22  2  0
 23 22  1  0
 24 25  2  0
 24 13  1  0
 26 27  1  0
 28 27  1  0
 28 29  1  0
 30 29  1  1
 30 31  1  0
 31 24  1  0
 32 30  1  0
 33 32  2  0
 34 32  1  0
M  END
$$$$
