FWM.pdb
     RDKit          3D

 34 36  0  0  1  0  0  0  0  0999 V2000
   17.0067  -19.8768    1.8757 N   0  0  0  0  0  0  0  0  0  0  0  0
   16.7626  -19.8713    3.2901 C   0  0  1  0  0  0  0  0  0  0  0  0
   17.0269  -21.2811    3.8143 C   0  0  0  0  0  0  0  0  0  0  0  0
   15.9473  -22.1402    3.2557 C   0  0  0  0  0  0  0  0  0  0  0  0
   16.2011  -23.0747    2.2757 C   0  0  0  0  0  0  0  0  0  0  0  0
   15.1841  -23.8739    1.7570 C   0  0  0  0  0  0  0  0  0  0  0  0
   13.8856  -23.7638    2.2004 C   0  0  0  0  0  0  0  0  0  0  0  0
   13.6278  -22.8257    3.1848 C   0  0  0  0  0  0  0  0  0  0  0  0
   14.6424  -22.0417    3.6896 C   0  0  0  0  0  0  0  0  0  0  0  0
   17.5917  -18.8620    4.0234 C   0  0  0  0  0  0  0  0  0  0  0  0
   18.8170  -18.7363    3.7696 O   0  0  0  0  0  0  0  0  0  0  0  0
   16.9468  -18.0681    4.9993 N   0  0  0  0  0  0  0  0  0  0  0  0
   17.5667  -16.9885    5.7458 C   0  0  1  0  0  0  0  0  0  0  0  0
   16.6856  -15.8102    5.9159 C   0  0  0  0  0  0  0  0  0  0  0  0
   17.0943  -14.6251    5.1647 C   0  0  0  0  0  0  0  0  0  0  0  0
   16.5728  -14.1869    3.9462 C   0  0  0  0  0  0  0  0  0  0  0  0
   17.2016  -13.0923    3.5389 N   0  0  0  0  0  0  0  0  0  0  0  0
   18.1346  -12.7834    4.4569 C   0  0  0  0  0  0  0  0  0  0  0  0
   19.0055  -11.7189    4.4448 C   0  0  0  0  0  0  0  0  0  0  0  0
   19.8891  -11.5775    5.5206 C   0  0  0  0  0  0  0  0  0  0  0  0
   19.8607  -12.4929    6.5434 C   0  0  0  0  0  0  0  0  0  0  0  0
   18.9752  -13.5480    6.5240 C   0  0  0  0  0  0  0  0  0  0  0  0
   18.0949  -13.7087    5.4733 C   0  0  0  0  0  0  0  0  0  0  0  0
   18.2797  -17.4613    6.9351 C   0  0  0  0  0  0  0  0  0  0  0  0
   17.8241  -18.3192    7.7356 O   0  0  0  0  0  0  0  0  0  0  0  0
   25.3209  -17.6247   10.6356 C   0  0  0  0  0  0  0  0  0  0  0  0
   24.2689  -16.9586    9.3173 S   0  0  0  0  0  0  0  0  0  0  0  0
   22.5444  -17.4775    9.5283 C   0  0  0  0  0  0  0  0  0  0  0  0
   21.7612  -17.0312    8.3360 C   0  0  0  0  0  0  0  0  0  0  0  0
   20.3193  -17.3895    8.4388 C   0  0  2  0  0  0  0  0  0  0  0  0
   19.5773  -16.9589    7.2643 N   0  0  0  0  0  0  0  0  0  0  0  0
   19.6368  -16.9229    9.6489 C   0  0  0  0  0  0  0  0  0  0  0  0
   19.2244  -15.7269    9.7944 O   0  0  0  0  0  0  0  0  0  0  0  0
   19.4036  -17.7759   10.7029 O   0  0  0  0  0  0  0  0  0  0  0  0
  2  1  1  6
  3  2  1  0
  4  3  1  0
  4  5  2  0
  6  5  1  0
  7  6  2  0
  8  9  2  0
  8  7  1  0
  9  4  1  0
 10 11  2  0
 10  2  1  0
 12 10  1  0
 13 12  1  0
 13 14  1  1
 15 23  1  0
 15 14  1  0
 16 15  2  0
 17 16  1  0
 17 18  1  0
 18 23  2  0
 19 18  1  0
 19 20  2  0
 20 21  1  0
 21 22  2  0
 23 22  1  0
 24 25  2  0
 24 13  1  0
 26 27  1  0
 28 27  1  0
 28 29  1  0
 30 29  1  6
 30 31  1  0
 31 24  1  0
 32 30  1  0
 33 32  2  0
 34 32  1  0
M  END
$$$$
