FWM.pdb
     RDKit          3D

 34 36  0  0  1  0  0  0  0  0999 V2000
   27.6012  -19.3278  -11.6039 N   0  0  0  0  0  0  0  0  0  0  0  0
   26.7424  -20.4636  -11.7847 C   0  0  1  0  0  0  0  0  0  0  0  0
   26.5964  -21.1577  -10.4322 C   0  0  0  0  0  0  0  0  0  0  0  0
   27.9785  -21.3509   -9.9142 C   0  0  0  0  0  0  0  0  0  0  0  0
   28.3372  -20.9527   -8.6451 C   0  0  0  0  0  0  0  0  0  0  0  0
   29.6339  -21.1358   -8.1685 C   0  0  0  0  0  0  0  0  0  0  0  0
   30.6094  -21.7207   -8.9439 C   0  0  0  0  0  0  0  0  0  0  0  0
   30.2519  -22.1216  -10.2193 C   0  0  0  0  0  0  0  0  0  0  0  0
   28.9661  -21.9351  -10.6786 C   0  0  0  0  0  0  0  0  0  0  0  0
   25.4028  -20.1010  -12.3489 C   0  0  0  0  0  0  0  0  0  0  0  0
   24.6864  -19.2341  -11.7862 O   0  0  0  0  0  0  0  0  0  0  0  0
   24.9849  -20.7656  -13.5245 N   0  0  0  0  0  0  0  0  0  0  0  0
   23.7854  -20.4564  -14.2814 C   0  0  1  0  0  0  0  0  0  0  0  0
   24.0659  -19.9162  -15.6317 C   0  0  0  0  0  0  0  0  0  0  0  0
   24.9225  -18.7323  -15.6529 C   0  0  0  0  0  0  0  0  0  0  0  0
   24.5188  -17.4056  -15.4923 C   0  0  0  0  0  0  0  0  0  0  0  0
   25.5579  -16.5881  -15.5994 N   0  0  0  0  0  0  0  0  0  0  0  0
   26.6525  -17.3353  -15.8277 C   0  0  0  0  0  0  0  0  0  0  0  0
   27.9477  -16.9013  -15.9887 C   0  0  0  0  0  0  0  0  0  0  0  0
   28.9432  -17.8615  -16.2010 C   0  0  0  0  0  0  0  0  0  0  0  0
   28.6026  -19.1909  -16.2411 C   0  0  0  0  0  0  0  0  0  0  0  0
   27.2949  -19.5913  -16.0760 C   0  0  0  0  0  0  0  0  0  0  0  0
   26.2957  -18.6627  -15.8663 C   0  0  0  0  0  0  0  0  0  0  0  0
   22.7703  -21.5083  -14.1850 C   0  0  0  0  0  0  0  0  0  0  0  0
   23.0323  -22.7272  -14.0126 O   0  0  0  0  0  0  0  0  0  0  0  0
   19.1071  -23.4596   -8.4046 C   0  0  0  0  0  0  0  0  0  0  0  0
   20.2632  -22.5641   -9.4767 S   0  0  0  0  0  0  0  0  0  0  0  0
   19.7304  -22.6206  -11.2090 C   0  0  0  0  0  0  0  0  0  0  0  0
   20.7101  -21.8525  -12.0362 C   0  0  0  0  0  0  0  0  0  0  0  0
   20.3601  -21.8626  -13.4837 C   0  0  2  0  0  0  0  0  0  0  0  0
   21.3777  -21.1991  -14.2836 N   0  0  0  0  0  0  0  0  0  0  0  0
   19.0409  -21.3193  -13.8188 C   0  0  0  0  0  0  0  0  0  0  0  0
   18.7910  -20.0707  -13.8418 O   0  0  0  0  0  0  0  0  0  0  0  0
   17.9920  -22.1522  -14.1333 O   0  0  0  0  0  0  0  0  0  0  0  0
  2  1  1  1
  3  2  1  0
  4  3  1  0
  4  5  2  0
  6  5  1  0
  7  6  2  0
  8  9  2  0
  8  7  1  0
  9  4  1  0
 10 11  2  0
 10  2  1  0
 12 10  1  0
 13 12  1  0
 13 14  1  6
 15 23  1  0
 15 14  1  0
 16 15  2  0
 17 16  1  0
 17 18  1  0
 18 23  2  0
 19 18  1  0
 19 20  2  0
 20 21  1  0
 21 22  2  0
 23 22  1  0
 24 25  2  0
 24 13  1  0
 26 27  1  0
 28 27  1  0
 28 29  1  0
 30 29  1  1
 30 31  1  0
 31 24  1  0
 32 30  1  0
 33 32  2  0
 34 32  1  0
M  END
$$$$
