FWM.pdb
     RDKit          3D

 34 36  0  0  1  0  0  0  0  0999 V2000
   29.5183  -18.9859  -13.9922 N   0  0  0  0  0  0  0  0  0  0  0  0
   28.1602  -19.0697  -13.5355 C   0  0  1  0  0  0  0  0  0  0  0  0
   27.2486  -18.8528  -14.7414 C   0  0  0  0  0  0  0  0  0  0  0  0
   27.4264  -17.4311  -15.1450 C   0  0  0  0  0  0  0  0  0  0  0  0
   27.6560  -17.0749  -16.4559 C   0  0  0  0  0  0  0  0  0  0  0  0
   27.8229  -15.7415  -16.8250 C   0  0  0  0  0  0  0  0  0  0  0  0
   27.7662  -14.7259  -15.8976 C   0  0  0  0  0  0  0  0  0  0  0  0
   27.5358  -15.0808  -14.5799 C   0  0  0  0  0  0  0  0  0  0  0  0
   27.3721  -16.4030  -14.2280 C   0  0  0  0  0  0  0  0  0  0  0  0
   27.8502  -20.3678  -12.8552 C   0  0  0  0  0  0  0  0  0  0  0  0
   27.9857  -21.4579  -13.4675 O   0  0  0  0  0  0  0  0  0  0  0  0
   27.4052  -20.3155  -11.5145 N   0  0  0  0  0  0  0  0  0  0  0  0
   26.6413  -21.3515  -10.8432 C   0  0  1  0  0  0  0  0  0  0  0  0
   27.1891  -21.7193   -9.5171 C   0  0  0  0  0  0  0  0  0  0  0  0
   27.1609  -20.6481   -8.5234 C   0  0  0  0  0  0  0  0  0  0  0  0
   26.4966  -19.4251   -8.6314 C   0  0  0  0  0  0  0  0  0  0  0  0
   26.7134  -18.6824   -7.5539 N   0  0  0  0  0  0  0  0  0  0  0  0
   27.5084  -19.3790   -6.7224 C   0  0  0  0  0  0  0  0  0  0  0  0
   27.9717  -18.9959   -5.4853 C   0  0  0  0  0  0  0  0  0  0  0  0
   28.7797  -19.8925   -4.7772 C   0  0  0  0  0  0  0  0  0  0  0  0
   29.0817  -21.1122   -5.3304 C   0  0  0  0  0  0  0  0  0  0  0  0
   28.6007  -21.4642   -6.5723 C   0  0  0  0  0  0  0  0  0  0  0  0
   27.8029  -20.5963   -7.2899 C   0  0  0  0  0  0  0  0  0  0  0  0
   25.1955  -21.1300  -10.9259 C   0  0  0  0  0  0  0  0  0  0  0  0
   24.6533  -19.9946  -10.8934 O   0  0  0  0  0  0  0  0  0  0  0  0
   21.3429  -25.8747  -15.8328 C   0  0  0  0  0  0  0  0  0  0  0  0
   22.4018  -25.6303  -14.3812 S   0  0  0  0  0  0  0  0  0  0  0  0
   22.3579  -23.9069  -13.8193 C   0  0  0  0  0  0  0  0  0  0  0  0
   23.3612  -23.7349  -12.7247 C   0  0  0  0  0  0  0  0  0  0  0  0
   23.3517  -22.3574  -12.1589 C   0  0  2  0  0  0  0  0  0  0  0  0
   24.2883  -22.2278  -11.0537 N   0  0  0  0  0  0  0  0  0  0  0  0
   22.0384  -21.8505  -11.7512 C   0  0  0  0  0  0  0  0  0  0  0  0
   21.0587  -21.7371  -12.5569 O   0  0  0  0  0  0  0  0  0  0  0  0
   21.7998  -21.4693  -10.4510 O   0  0  0  0  0  0  0  0  0  0  0  0
  2  1  1  6
  3  2  1  0
  4  3  1  0
  4  5  2  0
  6  5  1  0
  7  6  2  0
  8  9  2  0
  8  7  1  0
  9  4  1  0
 10 11  2  0
 10  2  1  0
 12 10  1  0
 13 12  1  0
 13 14  1  1
 15 23  1  0
 15 14  1  0
 16 15  2  0
 17 16  1  0
 17 18  1  0
 18 23  2  0
 19 18  1  0
 19 20  2  0
 20 21  1  0
 21 22  2  0
 23 22  1  0
 24 25  2  0
 24 13  1  0
 26 27  1  0
 28 27  1  0
 28 29  1  0
 30 29  1  1
 30 31  1  0
 31 24  1  0
 32 30  1  0
 33 32  2  0
 34 32  1  0
M  END
$$$$
