FWM.pdb
     RDKit          3D

 34 36  0  0  1  0  0  0  0  0999 V2000
   25.6858  -18.7279  -19.1934 N   0  0  0  0  0  0  0  0  0  0  0  0
   25.3415  -18.1431  -17.9286 C   0  0  1  0  0  0  0  0  0  0  0  0
   24.0986  -17.2806  -18.1366 C   0  0  0  0  0  0  0  0  0  0  0  0
   24.5369  -16.1102  -18.9452 C   0  0  0  0  0  0  0  0  0  0  0  0
   25.2881  -15.0935  -18.3974 C   0  0  0  0  0  0  0  0  0  0  0  0
   25.6930  -14.0005  -19.1612 C   0  0  0  0  0  0  0  0  0  0  0  0
   25.3599  -13.8900  -20.4923 C   0  0  0  0  0  0  0  0  0  0  0  0
   24.6052  -14.9099  -21.0452 C   0  0  0  0  0  0  0  0  0  0  0  0
   24.2115  -15.9856  -20.2791 C   0  0  0  0  0  0  0  0  0  0  0  0
   25.1136  -19.1626  -16.8549 C   0  0  0  0  0  0  0  0  0  0  0  0
   24.5504  -20.2551  -17.1207 O   0  0  0  0  0  0  0  0  0  0  0  0
   25.5527  -18.8481  -15.5484 N   0  0  0  0  0  0  0  0  0  0  0  0
   25.3586  -19.6807  -14.3752 C   0  0  1  0  0  0  0  0  0  0  0  0
   26.3906  -19.4764  -13.3326 C   0  0  0  0  0  0  0  0  0  0  0  0
   26.3238  -20.4120  -12.2119 C   0  0  0  0  0  0  0  0  0  0  0  0
   26.4338  -21.8021  -12.2759 C   0  0  0  0  0  0  0  0  0  0  0  0
   26.2950  -22.3348  -11.0690 N   0  0  0  0  0  0  0  0  0  0  0  0
   26.0948  -21.3337  -10.1937 C   0  0  0  0  0  0  0  0  0  0  0  0
   25.9166  -21.4299   -8.8332 C   0  0  0  0  0  0  0  0  0  0  0  0
   25.7405  -20.2475   -8.1060 C   0  0  0  0  0  0  0  0  0  0  0  0
   25.7514  -19.0420   -8.7629 C   0  0  0  0  0  0  0  0  0  0  0  0
   25.9323  -18.9814  -10.1272 C   0  0  0  0  0  0  0  0  0  0  0  0
   26.1070  -20.1341  -10.8657 C   0  0  0  0  0  0  0  0  0  0  0  0
   23.9630  -19.7128  -13.9305 C   0  0  0  0  0  0  0  0  0  0  0  0
   23.2699  -18.6858  -13.7091 O   0  0  0  0  0  0  0  0  0  0  0  0
   18.5874  -23.4034  -15.6549 C   0  0  0  0  0  0  0  0  0  0  0  0
   18.7033  -22.0283  -14.4785 S   0  0  0  0  0  0  0  0  0  0  0  0
   19.8598  -22.4094  -13.1350 C   0  0  0  0  0  0  0  0  0  0  0  0
   21.2554  -22.2937  -13.6579 C   0  0  0  0  0  0  0  0  0  0  0  0
   21.9234  -21.0381  -13.2163 C   0  0  2  0  0  0  0  0  0  0  0  0
   23.2865  -20.9542  -13.7167 N   0  0  0  0  0  0  0  0  0  0  0  0
   21.9149  -20.7919  -11.7716 C   0  0  0  0  0  0  0  0  0  0  0  0
   22.9205  -21.0189  -11.0239 O   0  0  0  0  0  0  0  0  0  0  0  0
   20.7966  -20.2908  -11.1460 O   0  0  0  0  0  0  0  0  0  0  0  0
  2  1  1  6
  3  2  1  0
  4  3  1  0
  4  5  2  0
  6  5  1  0
  7  6  2  0
  8  9  2  0
  8  7  1  0
  9  4  1  0
 10 11  2  0
 10  2  1  0
 12 10  1  0
 13 12  1  0
 13 14  1  1
 15 23  1  0
 15 14  1  0
 16 15  2  0
 17 16  1  0
 17 18  1  0
 18 23  2  0
 19 18  1  0
 19 20  2  0
 20 21  1  0
 21 22  2  0
 23 22  1  0
 24 25  2  0
 24 13  1  0
 26 27  1  0
 28 27  1  0
 28 29  1  0
 30 29  1  1
 30 31  1  0
 31 24  1  0
 32 30  1  0
 33 32  2  0
 34 32  1  0
M  END
$$$$
