FWM.pdb
     RDKit          3D

 34 36  0  0  1  0  0  0  0  0999 V2000
   15.2508  -22.6659    2.0262 N   0  0  0  0  0  0  0  0  0  0  0  0
   14.9425  -21.4423    2.7104 C   0  0  1  0  0  0  0  0  0  0  0  0
   14.3015  -21.8050    4.0481 C   0  0  0  0  0  0  0  0  0  0  0  0
   12.9354  -22.3042    3.7313 C   0  0  0  0  0  0  0  0  0  0  0  0
   11.9240  -21.4503    3.3494 C   0  0  0  0  0  0  0  0  0  0  0  0
   10.6474  -21.9259    3.0560 C   0  0  0  0  0  0  0  0  0  0  0  0
   10.3431  -23.2660    3.1356 C   0  0  0  0  0  0  0  0  0  0  0  0
   11.3571  -24.1261    3.5192 C   0  0  0  0  0  0  0  0  0  0  0  0
   12.6154  -23.6432    3.8063 C   0  0  0  0  0  0  0  0  0  0  0  0
   16.1404  -20.5652    2.9097 C   0  0  0  0  0  0  0  0  0  0  0  0
   17.2548  -21.0646    3.2098 O   0  0  0  0  0  0  0  0  0  0  0  0
   15.9667  -19.1715    2.7482 N   0  0  0  0  0  0  0  0  0  0  0  0
   16.9853  -18.1658    2.9892 C   0  0  1  0  0  0  0  0  0  0  0  0
   16.6964  -16.8686    2.3354 C   0  0  0  0  0  0  0  0  0  0  0  0
   17.7453  -15.8614    2.4807 C   0  0  0  0  0  0  0  0  0  0  0  0
   19.0296  -15.9075    1.9355 C   0  0  0  0  0  0  0  0  0  0  0  0
   19.7260  -14.8380    2.2971 N   0  0  0  0  0  0  0  0  0  0  0  0
   18.9385  -14.0724    3.0730 C   0  0  0  0  0  0  0  0  0  0  0  0
   19.2497  -12.8653    3.6544 C   0  0  0  0  0  0  0  0  0  0  0  0
   18.2643  -12.2262    4.4151 C   0  0  0  0  0  0  0  0  0  0  0  0
   17.0319  -12.8147    4.5564 C   0  0  0  0  0  0  0  0  0  0  0  0
   16.7535  -14.0250    3.9604 C   0  0  0  0  0  0  0  0  0  0  0  0
   17.7095  -14.6745    3.2062 C   0  0  0  0  0  0  0  0  0  0  0  0
   17.4156  -18.1223    4.3889 C   0  0  0  0  0  0  0  0  0  0  0  0
   16.6658  -18.3840    5.3654 O   0  0  0  0  0  0  0  0  0  0  0  0
   22.9531  -20.3949    9.2391 C   0  0  0  0  0  0  0  0  0  0  0  0
   22.3219  -20.1207    7.5614 S   0  0  0  0  0  0  0  0  0  0  0  0
   21.0067  -18.8725    7.5507 C   0  0  0  0  0  0  0  0  0  0  0  0
   20.4420  -18.7844    6.1695 C   0  0  0  0  0  0  0  0  0  0  0  0
   19.2750  -17.8625    6.0924 C   0  0  2  0  0  0  0  0  0  0  0  0
   18.7570  -17.7694    4.7364 N   0  0  0  0  0  0  0  0  0  0  0  0
   19.4967  -16.5159    6.6267 C   0  0  0  0  0  0  0  0  0  0  0  0
   19.7793  -15.5161    5.8903 O   0  0  0  0  0  0  0  0  0  0  0  0
   19.4045  -16.2665    7.9765 O   0  0  0  0  0  0  0  0  0  0  0  0
  2  1  1  1
  3  2  1  0
  4  3  1  0
  4  5  2  0
  6  5  1  0
  7  6  2  0
  8  9  2  0
  8  7  1  0
  9  4  1  0
 10 11  2  0
 10  2  1  0
 12 10  1  0
 13 12  1  0
 13 14  1  1
 15 23  1  0
 15 14  1  0
 16 15  2  0
 17 16  1  0
 17 18  1  0
 18 23  2  0
 19 18  1  0
 19 20  2  0
 20 21  1  0
 21 22  2  0
 23 22  1  0
 24 25  2  0
 24 13  1  0
 26 27  1  0
 28 27  1  0
 28 29  1  0
 30 29  1  6
 30 31  1  0
 31 24  1  0
 32 30  1  0
 33 32  2  0
 34 32  1  0
M  END
$$$$
