FWM.pdb
     RDKit          3D

 34 36  0  0  1  0  0  0  0  0999 V2000
   16.4885  -19.3990    2.5380 N   0  0  0  0  0  0  0  0  0  0  0  0
   16.1117  -18.7490    3.7610 C   0  0  1  0  0  0  0  0  0  0  0  0
   15.7150  -19.8322    4.7616 C   0  0  0  0  0  0  0  0  0  0  0  0
   14.4028  -20.3621    4.3003 C   0  0  0  0  0  0  0  0  0  0  0  0
   13.2373  -19.6447    4.4584 C   0  0  0  0  0  0  0  0  0  0  0  0
   12.0126  -20.1488    4.0250 C   0  0  0  0  0  0  0  0  0  0  0  0
   11.9152  -21.3826    3.4223 C   0  0  0  0  0  0  0  0  0  0  0  0
   13.0844  -22.1056    3.2622 C   0  0  0  0  0  0  0  0  0  0  0  0
   14.2892  -21.5956    3.6949 C   0  0  0  0  0  0  0  0  0  0  0  0
   17.1940  -17.8752    4.3172 C   0  0  0  0  0  0  0  0  0  0  0  0
   18.3969  -18.2381    4.2666 O   0  0  0  0  0  0  0  0  0  0  0  0
   16.8102  -16.6425    4.8930 N   0  0  0  0  0  0  0  0  0  0  0  0
   17.7226  -15.6305    5.3939 C   0  0  1  0  0  0  0  0  0  0  0  0
   17.2105  -14.2494    5.2388 C   0  0  0  0  0  0  0  0  0  0  0  0
   18.1925  -13.1985    5.4978 C   0  0  0  0  0  0  0  0  0  0  0  0
   18.9714  -12.5308    4.5512 C   0  0  0  0  0  0  0  0  0  0  0  0
   19.7770  -11.6595    5.1441 N   0  0  0  0  0  0  0  0  0  0  0  0
   19.5568  -11.7254    6.4691 C   0  0  0  0  0  0  0  0  0  0  0  0
   20.1623  -10.9873    7.4593 C   0  0  0  0  0  0  0  0  0  0  0  0
   19.7650  -11.2082    8.7828 C   0  0  0  0  0  0  0  0  0  0  0  0
   18.7950  -12.1422    9.0504 C   0  0  0  0  0  0  0  0  0  0  0  0
   18.2090  -12.8645    8.0342 C   0  0  0  0  0  0  0  0  0  0  0  0
   18.5850  -12.6648    6.7214 C   0  0  0  0  0  0  0  0  0  0  0  0
   18.2979  -15.9831    6.6943 C   0  0  0  0  0  0  0  0  0  0  0  0
   17.6294  -16.4275    7.6637 O   0  0  0  0  0  0  0  0  0  0  0  0
   23.5301  -20.4107    9.8730 C   0  0  0  0  0  0  0  0  0  0  0  0
   23.0717  -19.3058    8.5103 S   0  0  0  0  0  0  0  0  0  0  0  0
   21.7555  -18.1618    9.0070 C   0  0  0  0  0  0  0  0  0  0  0  0
   21.4555  -17.2509    7.8604 C   0  0  0  0  0  0  0  0  0  0  0  0
   20.3397  -16.3113    8.1605 C   0  0  2  0  0  0  0  0  0  0  0  0
   19.6984  -15.8384    6.9436 N   0  0  0  0  0  0  0  0  0  0  0  0
   20.6871  -15.1677    9.0086 C   0  0  0  0  0  0  0  0  0  0  0  0
   21.1279  -15.2945   10.1966 O   0  0  0  0  0  0  0  0  0  0  0  0
   20.5522  -13.8784    8.5476 O   0  0  0  0  0  0  0  0  0  0  0  0
  2  1  1  6
  3  2  1  0
  4  3  1  0
  4  5  2  0
  6  5  1  0
  7  6  2  0
  8  9  2  0
  8  7  1  0
  9  4  1  0
 10 11  2  0
 10  2  1  0
 12 10  1  0
 13 12  1  0
 13 14  1  1
 15 23  1  0
 15 14  1  0
 16 15  2  0
 17 16  1  0
 17 18  1  0
 18 23  2  0
 19 18  1  0
 19 20  2  0
 20 21  1  0
 21 22  2  0
 23 22  1  0
 24 25  2  0
 24 13  1  0
 26 27  1  0
 28 27  1  0
 28 29  1  0
 30 29  1  6
 30 31  1  0
 31 24  1  0
 32 30  1  0
 33 32  2  0
 34 32  1  0
M  END
$$$$
