LQE.pdb
     RDKit          3D

 27 26  0  0  1  0  0  0  0  0999 V2000
   29.4027  -20.4357   -8.8808 C   0  0  0  0  0  0  0  0  0  0  0  0
   27.9066  -20.3660   -9.0076 C   0  0  1  0  0  0  0  0  0  0  0  0
   27.3859  -19.2886   -8.0890 C   0  0  0  0  0  0  0  0  0  0  0  0
   27.4461  -20.1658  -10.4250 C   0  0  0  0  0  0  0  0  0  0  0  0
   25.9651  -20.1175  -10.5704 C   0  0  2  0  0  0  0  0  0  0  0  0
   25.3309  -21.1855   -9.8247 N   0  0  0  0  0  0  0  0  0  0  0  0
   25.6128  -20.2103  -12.0075 C   0  0  0  0  0  0  0  0  0  0  0  0
   26.1271  -19.3654  -12.8055 O   0  0  0  0  0  0  0  0  0  0  0  0
   24.5306  -25.3538  -15.2117 N   0  0  0  0  0  0  0  0  0  0  0  0
   24.1444  -24.3600  -16.1370 C   0  0  0  0  0  0  0  0  0  0  0  0
   23.8489  -24.7065  -17.3024 O   0  0  0  0  0  0  0  0  0  0  0  0
   24.0799  -22.9006  -15.7572 C   0  0  0  0  0  0  0  0  0  0  0  0
   24.4521  -22.7009  -14.3359 C   0  0  0  0  0  0  0  0  0  0  0  0
   24.4087  -21.2913  -13.8590 C   0  0  2  0  0  0  0  0  0  0  0  0
   24.7272  -21.2223  -12.4399 N   0  0  0  0  0  0  0  0  0  0  0  0
   23.0946  -20.6645  -14.1327 C   0  0  0  0  0  0  0  0  0  0  0  0
   22.1434  -20.9680  -13.3736 O   0  0  0  0  0  0  0  0  0  0  0  0
   22.9019  -19.7521  -15.2102 N   0  0  0  0  0  0  0  0  0  0  0  0
   21.6144  -19.1071  -15.3417 C   0  0  1  0  0  0  0  0  0  0  0  0
   21.6785  -17.8366  -16.0981 C   0  0  0  0  0  0  0  0  0  0  0  0
   20.4554  -17.0507  -16.3125 C   0  0  0  0  0  0  0  0  0  0  0  0
   20.5166  -15.7723  -16.9858 C   0  0  0  0  0  0  0  0  0  0  0  0
   21.5424  -15.2779  -17.4640 O   0  0  0  0  0  0  0  0  0  0  0  0
   20.6039  -20.0649  -15.7638 C   0  0  0  0  0  0  0  0  0  0  0  0
   19.4749  -20.0606  -15.1714 O   0  0  0  0  0  0  0  0  0  0  0  0
   19.3570  -14.9702  -17.1482 O   0  0  0  0  0  0  0  0  0  0  0  0
   20.7908  -20.9882  -16.7746 O   0  0  0  0  0  0  0  0  0  0  0  0
  2  4  1  0
  2  1  1  6
  3  2  1  0
  5  4  1  0
  5  6  1  1
  7  5  1  0
  8  7  2  0
 10  9  1  0
 10 12  1  0
 11 10  2  0
 14 13  1  1
 13 12  1  0
 14 15  1  0
 15  7  1  0
 16 18  1  0
 16 14  1  0
 17 16  2  0
 19 24  1  0
 19 18  1  0
 19 20  1  6
 21 20  1  0
 22 26  1  0
 22 21  1  0
 23 22  2  0
 24 27  1  0
 25 24  2  0
M  END
$$$$
