LQE.pdb
     RDKit          3D

 27 26  0  0  1  0  0  0  0  0999 V2000
   16.9803  -11.4108  -18.7594 C   0  0  0  0  0  0  0  0  0  0  0  0
   18.3353  -12.0381  -18.5871 C   0  0  1  0  0  0  0  0  0  0  0  0
   19.1357  -11.8319  -19.8490 C   0  0  0  0  0  0  0  0  0  0  0  0
   19.0645  -11.5358  -17.3716 C   0  0  0  0  0  0  0  0  0  0  0  0
   20.4386  -12.0909  -17.2280 C   0  0  2  0  0  0  0  0  0  0  0  0
   20.4014  -13.4978  -16.8843 N   0  0  0  0  0  0  0  0  0  0  0  0
   21.1684  -11.3242  -16.1901 C   0  0  0  0  0  0  0  0  0  0  0  0
   20.8465  -11.5064  -14.9742 O   0  0  0  0  0  0  0  0  0  0  0  0
   26.9851  -10.6173  -15.2152 N   0  0  0  0  0  0  0  0  0  0  0  0
   26.2082  -11.3337  -16.1512 C   0  0  0  0  0  0  0  0  0  0  0  0
   26.7627  -12.2186  -16.8404 O   0  0  0  0  0  0  0  0  0  0  0  0
   24.7357  -11.0600  -16.3392 C   0  0  0  0  0  0  0  0  0  0  0  0
   24.2871   -9.9360  -15.4825 C   0  0  0  0  0  0  0  0  0  0  0  0
   22.8310   -9.6317  -15.5435 C   0  0  2  0  0  0  0  0  0  0  0  0
   22.1864  -10.4257  -16.5799 N   0  0  0  0  0  0  0  0  0  0  0  0
   22.5857   -8.1871  -15.7608 C   0  0  0  0  0  0  0  0  0  0  0  0
   22.3769   -7.8100  -16.9386 O   0  0  0  0  0  0  0  0  0  0  0  0
   22.5836   -7.2506  -14.6867 N   0  0  0  0  0  0  0  0  0  0  0  0
   22.1627   -5.8942  -14.9593 C   0  0  1  0  0  0  0  0  0  0  0  0
   20.8648   -5.8226  -15.6669 C   0  0  0  0  0  0  0  0  0  0  0  0
   20.2555   -4.5147  -15.9463 C   0  0  0  0  0  0  0  0  0  0  0  0
   18.9683   -4.4328  -16.6003 C   0  0  0  0  0  0  0  0  0  0  0  0
   18.3019   -5.4064  -16.9655 O   0  0  0  0  0  0  0  0  0  0  0  0
   22.3015   -5.0675  -13.7702 C   0  0  0  0  0  0  0  0  0  0  0  0
   22.3979   -5.6423  -12.6362 O   0  0  0  0  0  0  0  0  0  0  0  0
   18.3620   -3.1795  -16.8764 O   0  0  0  0  0  0  0  0  0  0  0  0
   22.3352   -3.6864  -13.7906 O   0  0  0  0  0  0  0  0  0  0  0  0
  2  4  1  0
  2  1  1  6
  3  2  1  0
  5  4  1  0
  5  6  1  1
  7  5  1  0
  8  7  2  0
 10  9  1  0
 10 12  1  0
 11 10  2  0
 14 13  1  6
 13 12  1  0
 14 15  1  0
 15  7  1  0
 16 18  1  0
 16 14  1  0
 17 16  2  0
 19 24  1  0
 19 18  1  0
 19 20  1  1
 21 20  1  0
 22 26  1  0
 22 21  1  0
 23 22  2  0
 24 27  1  0
 25 24  2  0
M  END
$$$$
