LQE.pdb
     RDKit          3D

 27 26  0  0  1  0  0  0  0  0999 V2000
   35.9922  -24.4533  -17.4909 C   0  0  0  0  0  0  0  0  0  0  0  0
   35.6708  -25.7332  -16.7713 C   0  0  1  0  0  0  0  0  0  0  0  0
   35.6091  -25.4606  -15.2889 C   0  0  0  0  0  0  0  0  0  0  0  0
   34.4149  -26.3899  -17.2740 C   0  0  0  0  0  0  0  0  0  0  0  0
   34.0562  -27.6339  -16.5385 C   0  0  2  0  0  0  0  0  0  0  0  0
   35.2396  -28.3857  -16.1736 N   0  0  0  0  0  0  0  0  0  0  0  0
   33.1597  -28.4586  -17.3834 C   0  0  0  0  0  0  0  0  0  0  0  0
   32.1012  -27.9201  -17.8360 O   0  0  0  0  0  0  0  0  0  0  0  0
   34.9245  -33.3679  -20.8269 N   0  0  0  0  0  0  0  0  0  0  0  0
   33.5242  -33.3559  -21.0055 C   0  0  0  0  0  0  0  0  0  0  0  0
   33.0147  -34.1636  -21.8139 O   0  0  0  0  0  0  0  0  0  0  0  0
   32.6335  -32.3995  -20.2503 C   0  0  0  0  0  0  0  0  0  0  0  0
   33.4218  -31.5562  -19.3197 C   0  0  0  0  0  0  0  0  0  0  0  0
   32.6333  -30.5663  -18.5355 C   0  0  2  0  0  0  0  0  0  0  0  0
   33.5052  -29.8010  -17.6556 N   0  0  0  0  0  0  0  0  0  0  0  0
   31.5523  -31.2211  -17.7628 C   0  0  0  0  0  0  0  0  0  0  0  0
   31.8572  -31.7119  -16.6497 O   0  0  0  0  0  0  0  0  0  0  0  0
   30.2153  -31.2988  -18.2498 N   0  0  0  0  0  0  0  0  0  0  0  0
   29.2254  -31.9667  -17.4342 C   0  0  1  0  0  0  0  0  0  0  0  0
   28.4547  -31.0348  -16.5811 C   0  0  0  0  0  0  0  0  0  0  0  0
   27.4210  -31.5569  -15.6761 C   0  0  0  0  0  0  0  0  0  0  0  0
   27.7890  -32.1389  -14.4044 C   0  0  0  0  0  0  0  0  0  0  0  0
   28.6291  -31.6668  -13.6319 O   0  0  0  0  0  0  0  0  0  0  0  0
   28.4536  -32.9055  -18.2341 C   0  0  0  0  0  0  0  0  0  0  0  0
   28.4599  -32.7746  -19.5023 O   0  0  0  0  0  0  0  0  0  0  0  0
   27.1857  -33.3375  -13.9419 O   0  0  0  0  0  0  0  0  0  0  0  0
   27.7063  -33.9391  -17.7028 O   0  0  0  0  0  0  0  0  0  0  0  0
  2  4  1  0
  2  1  1  6
  3  2  1  0
  5  4  1  0
  5  6  1  6
  7  5  1  0
  8  7  2  0
 10  9  1  0
 10 12  1  0
 11 10  2  0
 14 13  1  1
 13 12  1  0
 14 15  1  0
 15  7  1  0
 16 18  1  0
 16 14  1  0
 17 16  2  0
 19 24  1  0
 19 18  1  0
 19 20  1  6
 21 20  1  0
 22 26  1  0
 22 21  1  0
 23 22  2  0
 24 27  1  0
 25 24  2  0
M  END
$$$$
