LQE.pdb
     RDKit          3D

 27 26  0  0  1  0  0  0  0  0999 V2000
   27.5317  -24.9021  -16.6127 C   0  0  0  0  0  0  0  0  0  0  0  0
   27.7263  -23.4902  -17.0902 C   0  0  1  0  0  0  0  0  0  0  0  0
   27.8019  -23.4877  -18.5968 C   0  0  0  0  0  0  0  0  0  0  0  0
   26.6721  -22.5472  -16.5796 C   0  0  0  0  0  0  0  0  0  0  0  0
   26.8502  -21.1442  -17.0451 C   0  0  2  0  0  0  0  0  0  0  0  0
   28.0401  -20.5494  -16.4714 N   0  0  0  0  0  0  0  0  0  0  0  0
   25.6500  -20.3536  -16.6814 C   0  0  0  0  0  0  0  0  0  0  0  0
   25.4069  -20.1677  -15.4479 O   0  0  0  0  0  0  0  0  0  0  0  0
   25.1956  -16.3677  -15.1386 N   0  0  0  0  0  0  0  0  0  0  0  0
   24.4148  -16.1324  -16.2909 C   0  0  0  0  0  0  0  0  0  0  0  0
   23.3842  -15.4309  -16.1853 O   0  0  0  0  0  0  0  0  0  0  0  0
   24.7905  -16.7022  -17.6372 C   0  0  0  0  0  0  0  0  0  0  0  0
   23.7845  -17.6883  -18.1001 C   0  0  0  0  0  0  0  0  0  0  0  0
   23.7307  -18.9557  -17.3208 C   0  0  2  0  0  0  0  0  0  0  0  0
   24.8237  -19.8378  -17.7045 N   0  0  0  0  0  0  0  0  0  0  0  0
   22.4254  -19.6378  -17.4807 C   0  0  0  0  0  0  0  0  0  0  0  0
   22.3453  -20.5270  -18.3616 O   0  0  0  0  0  0  0  0  0  0  0  0
   21.2969  -19.3091  -16.6750 N   0  0  0  0  0  0  0  0  0  0  0  0
   20.1133  -20.1329  -16.7825 C   0  0  1  0  0  0  0  0  0  0  0  0
   19.3493  -20.2155  -15.5176 C   0  0  0  0  0  0  0  0  0  0  0  0
   18.0800  -20.9550  -15.4770 C   0  0  0  0  0  0  0  0  0  0  0  0
   17.2660  -20.9447  -14.2817 C   0  0  0  0  0  0  0  0  0  0  0  0
   16.1590  -21.4830  -14.1802 O   0  0  0  0  0  0  0  0  0  0  0  0
   19.3579  -19.7884  -17.9771 C   0  0  0  0  0  0  0  0  0  0  0  0
   19.3468  -18.5729  -18.3618 O   0  0  0  0  0  0  0  0  0  0  0  0
   17.7023  -20.2902  -13.1002 O   0  0  0  0  0  0  0  0  0  0  0  0
   18.6441  -20.7021  -18.7286 O   0  0  0  0  0  0  0  0  0  0  0  0
  2  4  1  0
  2  1  1  6
  3  2  1  0
  5  4  1  0
  5  6  1  1
  7  5  1  0
  8  7  2  0
 10  9  1  0
 10 12  1  0
 11 10  2  0
 14 13  1  6
 13 12  1  0
 14 15  1  0
 15  7  1  0
 16 18  1  0
 16 14  1  0
 17 16  2  0
 19 24  1  0
 19 18  1  0
 19 20  1  1
 21 20  1  0
 22 26  1  0
 22 21  1  0
 23 22  2  0
 24 27  1  0
 25 24  2  0
M  END
$$$$
