LQE.pdb
     RDKit          3D

 27 26  0  0  1  0  0  0  0  0999 V2000
   26.2925  -13.6034  -15.4887 C   0  0  0  0  0  0  0  0  0  0  0  0
   25.2366  -12.9845  -16.3612 C   0  0  1  0  0  0  0  0  0  0  0  0
   24.5982  -14.0639  -17.1998 C   0  0  0  0  0  0  0  0  0  0  0  0
   24.2159  -12.2017  -15.5822 C   0  0  0  0  0  0  0  0  0  0  0  0
   23.1330  -11.6265  -16.4268 C   0  0  2  0  0  0  0  0  0  0  0  0
   23.6782  -10.9289  -17.5735 N   0  0  0  0  0  0  0  0  0  0  0  0
   22.3101  -10.7069  -15.6052 C   0  0  0  0  0  0  0  0  0  0  0  0
   21.7685  -11.1677  -14.5518 O   0  0  0  0  0  0  0  0  0  0  0  0
   23.3426   -4.6754  -14.8125 N   0  0  0  0  0  0  0  0  0  0  0  0
   22.1943   -4.9038  -14.0237 C   0  0  0  0  0  0  0  0  0  0  0  0
   21.8260   -4.0125  -13.2266 O   0  0  0  0  0  0  0  0  0  0  0  0
   21.4061   -6.1876  -14.1181 C   0  0  0  0  0  0  0  0  0  0  0  0
   22.0700   -7.1576  -15.0220 C   0  0  0  0  0  0  0  0  0  0  0  0
   21.3857   -8.4729  -15.1565 C   0  0  2  0  0  0  0  0  0  0  0  0
   22.1553   -9.3636  -16.0136 N   0  0  0  0  0  0  0  0  0  0  0  0
   20.0039   -8.3176  -15.6675 C   0  0  0  0  0  0  0  0  0  0  0  0
   19.8620   -8.1631  -16.9040 O   0  0  0  0  0  0  0  0  0  0  0  0
   18.8712   -8.3405  -14.8031 N   0  0  0  0  0  0  0  0  0  0  0  0
   17.5549   -8.2426  -15.3937 C   0  0  1  0  0  0  0  0  0  0  0  0
   16.6305   -9.2990  -14.9246 C   0  0  0  0  0  0  0  0  0  0  0  0
   15.2426   -9.3233  -15.4072 C   0  0  0  0  0  0  0  0  0  0  0  0
   14.4484  -10.5261  -15.2884 C   0  0  0  0  0  0  0  0  0  0  0  0
   14.6862  -11.4512  -14.5056 O   0  0  0  0  0  0  0  0  0  0  0  0
   17.0656   -6.8741  -15.3275 C   0  0  0  0  0  0  0  0  0  0  0  0
   17.3649   -6.1686  -14.3085 O   0  0  0  0  0  0  0  0  0  0  0  0
   13.2985  -10.7308  -16.0948 O   0  0  0  0  0  0  0  0  0  0  0  0
   16.2895   -6.2841  -16.3066 O   0  0  0  0  0  0  0  0  0  0  0  0
  2  4  1  0
  2  1  1  1
  3  2  1  0
  5  4  1  0
  5  6  1  6
  7  5  1  0
  8  7  2  0
 10  9  1  0
 10 12  1  0
 11 10  2  0
 14 13  1  6
 13 12  1  0
 14 15  1  0
 15  7  1  0
 16 18  1  0
 16 14  1  0
 17 16  2  0
 19 24  1  0
 19 18  1  0
 19 20  1  1
 21 20  1  0
 22 26  1  0
 22 21  1  0
 23 22  2  0
 24 27  1  0
 25 24  2  0
M  END
$$$$
