LQE.pdb
     RDKit          3D

 27 26  0  0  1  0  0  0  0  0999 V2000
   14.3577   -5.5900   -6.8703 C   0  0  0  0  0  0  0  0  0  0  0  0
   13.8331   -6.6193   -7.8319 C   0  0  1  0  0  0  0  0  0  0  0  0
   12.7565   -5.9925   -8.6826 C   0  0  0  0  0  0  0  0  0  0  0  0
   14.9143   -7.2471   -8.6675 C   0  0  0  0  0  0  0  0  0  0  0  0
   14.4179   -8.3077   -9.5871 C   0  0  2  0  0  0  0  0  0  0  0  0
   14.1079   -9.5243   -8.8640 N   0  0  0  0  0  0  0  0  0  0  0  0
   15.4419   -8.5706  -10.6264 C   0  0  0  0  0  0  0  0  0  0  0  0
   16.5036   -9.1776  -10.2806 O   0  0  0  0  0  0  0  0  0  0  0  0
   14.3347  -10.5871  -16.2027 N   0  0  0  0  0  0  0  0  0  0  0  0
   15.7160  -10.3120  -16.2996 C   0  0  0  0  0  0  0  0  0  0  0  0
   16.3392  -10.7132  -17.3077 O   0  0  0  0  0  0  0  0  0  0  0  0
   16.4536   -9.5513  -15.2246 C   0  0  0  0  0  0  0  0  0  0  0  0
   15.5541   -9.2141  -14.0952 C   0  0  0  0  0  0  0  0  0  0  0  0
   16.1966   -8.4881  -12.9653 C   0  0  2  0  0  0  0  0  0  0  0  0
   15.2089   -8.1432  -11.9525 N   0  0  0  0  0  0  0  0  0  0  0  0
   16.9127   -7.2785  -13.4328 C   0  0  0  0  0  0  0  0  0  0  0  0
   16.2644   -6.2056  -13.4725 O   0  0  0  0  0  0  0  0  0  0  0  0
   18.2822   -7.3151  -13.8250 N   0  0  0  0  0  0  0  0  0  0  0  0
   18.9333   -6.0686  -14.1621 C   0  0  1  0  0  0  0  0  0  0  0  0
   20.2834   -5.9425  -13.5689 C   0  0  0  0  0  0  0  0  0  0  0  0
   21.0975   -4.7518  -13.8506 C   0  0  0  0  0  0  0  0  0  0  0  0
   22.4228   -4.6223  -13.2864 C   0  0  0  0  0  0  0  0  0  0  0  0
   23.2466   -3.7634  -13.6165 O   0  0  0  0  0  0  0  0  0  0  0  0
   18.8224   -5.8037  -15.5883 C   0  0  0  0  0  0  0  0  0  0  0  0
   18.8307   -6.7917  -16.3942 O   0  0  0  0  0  0  0  0  0  0  0  0
   22.8822   -5.5079  -12.2769 O   0  0  0  0  0  0  0  0  0  0  0  0
   18.7083   -4.5383  -16.1312 O   0  0  0  0  0  0  0  0  0  0  0  0
  2  4  1  0
  2  1  1  1
  3  2  1  0
  5  4  1  0
  5  6  1  1
  7  5  1  0
  8  7  2  0
 10  9  1  0
 10 12  1  0
 11 10  2  0
 14 13  1  6
 13 12  1  0
 14 15  1  0
 15  7  1  0
 16 18  1  0
 16 14  1  0
 17 16  2  0
 19 24  1  0
 19 18  1  0
 19 20  1  6
 21 20  1  0
 22 26  1  0
 22 21  1  0
 23 22  2  0
 24 27  1  0
 25 24  2  0
M  END
$$$$
