LQE.pdb
     RDKit          3D

 27 26  0  0  1  0  0  0  0  0999 V2000
   12.0606  -13.4687  -11.6834 C   0  0  0  0  0  0  0  0  0  0  0  0
   13.4928  -13.3046  -11.2577 C   0  0  1  0  0  0  0  0  0  0  0  0
   14.0787  -14.6650  -10.9717 C   0  0  0  0  0  0  0  0  0  0  0  0
   14.3170  -12.5368  -12.2539 C   0  0  0  0  0  0  0  0  0  0  0  0
   15.4964  -11.8546  -11.6534 C   0  0  2  0  0  0  0  0  0  0  0  0
   15.7754  -12.3633  -10.3259 N   0  0  0  0  0  0  0  0  0  0  0  0
   15.2431  -10.3947  -11.6050 C   0  0  0  0  0  0  0  0  0  0  0  0
   14.8960   -9.8115  -12.6796 O   0  0  0  0  0  0  0  0  0  0  0  0
   14.5569   -5.1507   -6.6488 N   0  0  0  0  0  0  0  0  0  0  0  0
   13.8991   -6.0180   -7.5477 C   0  0  0  0  0  0  0  0  0  0  0  0
   12.8017   -6.5146   -7.2090 O   0  0  0  0  0  0  0  0  0  0  0  0
   14.4832   -6.3582   -8.8973 C   0  0  0  0  0  0  0  0  0  0  0  0
   14.6556   -7.8228   -9.0517 C   0  0  0  0  0  0  0  0  0  0  0  0
   15.1724   -8.2663  -10.3755 C   0  0  2  0  0  0  0  0  0  0  0  0
   15.3936   -9.7055  -10.3812 N   0  0  0  0  0  0  0  0  0  0  0  0
   16.4115   -7.5438  -10.7457 C   0  0  0  0  0  0  0  0  0  0  0  0
   17.5022   -8.0595  -10.4030 O   0  0  0  0  0  0  0  0  0  0  0  0
   16.3832   -6.3121  -11.4618 N   0  0  0  0  0  0  0  0  0  0  0  0
   17.5773   -5.8993  -12.1653 C   0  0  1  0  0  0  0  0  0  0  0  0
   18.2350   -7.0100  -12.8892 C   0  0  0  0  0  0  0  0  0  0  0  0
   19.3998   -6.7381  -13.7432 C   0  0  0  0  0  0  0  0  0  0  0  0
   20.0683   -7.8188  -14.4335 C   0  0  0  0  0  0  0  0  0  0  0  0
   21.0812   -7.6893  -15.1283 O   0  0  0  0  0  0  0  0  0  0  0  0
   17.3278   -4.6847  -12.9263 C   0  0  0  0  0  0  0  0  0  0  0  0
   16.1202   -4.3264  -13.1237 O   0  0  0  0  0  0  0  0  0  0  0  0
   19.5861   -9.1514  -14.3551 O   0  0  0  0  0  0  0  0  0  0  0  0
   18.3246   -3.8872  -13.4547 O   0  0  0  0  0  0  0  0  0  0  0  0
  2  4  1  0
  2  1  1  6
  3  2  1  0
  5  4  1  0
  5  6  1  1
  7  5  1  0
  8  7  2  0
 10  9  1  0
 10 12  1  0
 11 10  2  0
 14 13  1  1
 13 12  1  0
 14 15  1  0
 15  7  1  0
 16 18  1  0
 16 14  1  0
 17 16  2  0
 19 24  1  0
 19 18  1  0
 19 20  1  6
 21 20  1  0
 22 26  1  0
 22 21  1  0
 23 22  2  0
 24 27  1  0
 25 24  2  0
M  END
$$$$
