DSF.pdb
     RDKit          3D

 26 26  0  0  1  0  0  0  0  0999 V2000
    7.7199  -17.8906   17.9923 N   0  0  0  0  0  0  0  0  0  0  0  0
    8.6979  -18.1379   19.0536 C   0  0  1  0  0  0  0  0  0  0  0  0
   10.0607  -17.6352   18.6277 C   0  0  0  0  0  0  0  0  0  0  0  0
   10.6436  -18.5136   17.6122 C   0  0  0  0  0  0  0  0  0  0  0  0
   10.0790  -19.6051   17.3475 O   0  0  0  0  0  0  0  0  0  0  0  0
    8.2996  -17.3490   20.2478 C   0  0  0  0  0  0  0  0  0  0  0  0
    8.3059  -16.0934   20.2069 O   0  0  0  0  0  0  0  0  0  0  0  0
   11.7984  -18.1502   16.9524 O   0  0  0  0  0  0  0  0  0  0  0  0
    7.1331  -19.2967   23.7472 O   0  0  0  0  0  0  0  0  0  0  0  0
    6.4053  -18.1522   23.3856 C   0  0  0  0  0  0  0  0  0  0  0  0
    7.3486  -17.2483   22.5789 C   0  0  2  0  0  0  0  0  0  0  0  0
    7.9020  -17.9910   21.4644 N   0  0  0  0  0  0  0  0  0  0  0  0
    8.4536  -16.8924   23.4936 C   0  0  0  0  0  0  0  0  0  0  0  0
    9.4939  -17.5829   23.4877 O   0  0  0  0  0  0  0  0  0  0  0  0
    8.3661  -15.7900   24.3768 N   0  0  0  0  0  0  0  0  0  0  0  0
    9.5474  -15.4917   25.2128 C   0  0  1  0  0  0  0  0  0  0  0  0
    9.6806  -13.9857   25.2202 C   0  0  0  0  0  0  0  0  0  0  0  0
    8.4366  -13.3786   25.7044 C   0  0  0  0  0  0  0  0  0  0  0  0
    8.3839  -12.8803   26.9862 C   0  0  0  0  0  0  0  0  0  0  0  0
    7.2386  -12.2755   27.4795 C   0  0  0  0  0  0  0  0  0  0  0  0
    6.1434  -12.1836   26.6494 C   0  0  0  0  0  0  0  0  0  0  0  0
    6.1543  -12.6674   25.3648 C   0  0  0  0  0  0  0  0  0  0  0  0
    7.3301  -13.2718   24.9023 C   0  0  0  0  0  0  0  0  0  0  0  0
    9.3027  -15.9641   26.5796 C   0  0  0  0  0  0  0  0  0  0  0  0
    8.0948  -16.5446   26.8924 O   0  0  0  0  0  0  0  0  0  0  0  0
   10.1718  -15.8469   27.4581 O   0  0  0  0  0  0  0  0  0  0  0  0
  2  1  1  6
  2  3  1  0
  3  4  1  0
  4  8  1  0
  5  4  2  0
  6  2  1  0
  7  6  2  0
  9 10  1  0
 11 10  1  1
 11 13  1  0
 11 12  1  0
 12  6  1  0
 13 14  2  0
 15 16  1  0
 15 13  1  0
 16 17  1  1
 16 24  1  0
 17 18  1  0
 18 23  2  0
 19 20  2  0
 19 18  1  0
 20 21  1  0
 21 22  2  0
 23 22  1  0
 24 26  2  0
 24 25  1  0
M  END
$$$$
