DSF.pdb
     RDKit          3D

 26 26  0  0  1  0  0  0  0  0999 V2000
   10.6731  -16.6526   18.1158 N   0  0  0  0  0  0  0  0  0  0  0  0
   10.4486  -17.4463   19.3255 C   0  0  1  0  0  0  0  0  0  0  0  0
   11.7675  -17.9708   19.8515 C   0  0  0  0  0  0  0  0  0  0  0  0
   12.1401  -19.2126   19.1720 C   0  0  0  0  0  0  0  0  0  0  0  0
   11.2753  -19.8261   18.4968 O   0  0  0  0  0  0  0  0  0  0  0  0
    9.8899  -16.5527   20.3726 C   0  0  0  0  0  0  0  0  0  0  0  0
   10.4320  -15.4455   20.6139 O   0  0  0  0  0  0  0  0  0  0  0  0
   13.4240  -19.7055   19.2699 O   0  0  0  0  0  0  0  0  0  0  0  0
    6.4007  -17.6675   22.1196 O   0  0  0  0  0  0  0  0  0  0  0  0
    6.5797  -16.2760   22.0796 C   0  0  0  0  0  0  0  0  0  0  0  0
    8.0919  -16.0115   22.0528 C   0  0  2  0  0  0  0  0  0  0  0  0
    8.7311  -16.9249   21.1270 N   0  0  0  0  0  0  0  0  0  0  0  0
    8.5827  -16.3120   23.4142 C   0  0  0  0  0  0  0  0  0  0  0  0
    9.0459  -17.4459   23.6569 O   0  0  0  0  0  0  0  0  0  0  0  0
    8.5424  -15.3502   24.4516 N   0  0  0  0  0  0  0  0  0  0  0  0
    9.0408  -15.7607   25.7806 C   0  0  1  0  0  0  0  0  0  0  0  0
    9.2826  -14.4798   26.5466 C   0  0  0  0  0  0  0  0  0  0  0  0
    8.1904  -13.5348   26.2932 C   0  0  0  0  0  0  0  0  0  0  0  0
    8.2295  -12.7457   25.1663 C   0  0  0  0  0  0  0  0  0  0  0  0
    7.2084  -11.8559   24.8718 C   0  0  0  0  0  0  0  0  0  0  0  0
    6.1431  -11.7787   25.7413 C   0  0  0  0  0  0  0  0  0  0  0  0
    6.0653  -12.5477   26.8757 C   0  0  0  0  0  0  0  0  0  0  0  0
    7.1164  -13.4350   27.1391 C   0  0  0  0  0  0  0  0  0  0  0  0
    8.0065  -16.5460   26.4622 C   0  0  0  0  0  0  0  0  0  0  0  0
    8.2975  -17.1615   27.6581 O   0  0  0  0  0  0  0  0  0  0  0  0
    6.8713  -16.6626   25.9736 O   0  0  0  0  0  0  0  0  0  0  0  0
  2  1  1  6
  2  3  1  0
  3  4  1  0
  4  8  1  0
  5  4  2  0
  6  2  1  0
  7  6  2  0
  9 10  1  0
 11 10  1  1
 11 13  1  0
 11 12  1  0
 12  6  1  0
 13 14  2  0
 15 16  1  0
 15 13  1  0
 16 17  1  1
 16 24  1  0
 17 18  1  0
 18 23  2  0
 19 20  2  0
 19 18  1  0
 20 21  1  0
 21 22  2  0
 23 22  1  0
 24 26  2  0
 24 25  1  0
M  END
$$$$
