DSF.pdb
     RDKit          3D

 26 26  0  0  1  0  0  0  0  0999 V2000
    7.4244  -17.7134   18.3738 N   0  0  0  0  0  0  0  0  0  0  0  0
    8.3249  -16.9400   19.2310 C   0  0  1  0  0  0  0  0  0  0  0  0
    8.4095  -15.5120   18.7360 C   0  0  0  0  0  0  0  0  0  0  0  0
    9.1805  -15.4383   17.4939 C   0  0  0  0  0  0  0  0  0  0  0  0
   10.1997  -16.1618   17.3602 O   0  0  0  0  0  0  0  0  0  0  0  0
    7.7412  -16.8907   20.5962 C   0  0  0  0  0  0  0  0  0  0  0  0
    6.5626  -16.4903   20.7659 O   0  0  0  0  0  0  0  0  0  0  0  0
    8.7952  -14.5860   16.4810 O   0  0  0  0  0  0  0  0  0  0  0  0
    9.2342  -19.4809   23.0383 O   0  0  0  0  0  0  0  0  0  0  0  0
    7.9374  -19.0436   23.3500 C   0  0  0  0  0  0  0  0  0  0  0  0
    7.8719  -17.5441   23.0262 C   0  0  2  0  0  0  0  0  0  0  0  0
    8.4976  -17.2938   21.7433 N   0  0  0  0  0  0  0  0  0  0  0  0
    8.6679  -16.8661   24.0708 C   0  0  0  0  0  0  0  0  0  0  0  0
    9.8705  -16.6128   23.8501 O   0  0  0  0  0  0  0  0  0  0  0  0
    8.1052  -16.4956   25.3154 N   0  0  0  0  0  0  0  0  0  0  0  0
    9.0016  -15.8672   26.3079 C   0  0  1  0  0  0  0  0  0  0  0  0
    8.1001  -15.1355   27.2763 C   0  0  0  0  0  0  0  0  0  0  0  0
    7.6079  -13.8990   26.6606 C   0  0  0  0  0  0  0  0  0  0  0  0
    6.2541  -13.7269   26.4825 C   0  0  0  0  0  0  0  0  0  0  0  0
    5.7404  -12.5652   25.9280 C   0  0  0  0  0  0  0  0  0  0  0  0
    6.6245  -11.5770   25.5556 C   0  0  0  0  0  0  0  0  0  0  0  0
    7.9814  -11.7085   25.7160 C   0  0  0  0  0  0  0  0  0  0  0  0
    8.4623  -12.8969   26.2800 C   0  0  0  0  0  0  0  0  0  0  0  0
    9.7364  -16.9144   27.0253 C   0  0  0  0  0  0  0  0  0  0  0  0
   10.8578  -16.5829   27.7509 O   0  0  0  0  0  0  0  0  0  0  0  0
    9.3594  -18.0965   26.9863 O   0  0  0  0  0  0  0  0  0  0  0  0
  2  1  1  6
  2  3  1  0
  3  4  1  0
  4  8  1  0
  5  4  2  0
  6  2  1  0
  7  6  2  0
  9 10  1  0
 11 10  1  1
 11 13  1  0
 11 12  1  0
 12  6  1  0
 13 14  2  0
 15 16  1  0
 15 13  1  0
 16 17  1  1
 16 24  1  0
 17 18  1  0
 18 23  2  0
 19 20  2  0
 19 18  1  0
 20 21  1  0
 21 22  2  0
 23 22  1  0
 24 26  2  0
 24 25  1  0
M  END
$$$$
