DSF.pdb
     RDKit          3D

 26 26  0  0  1  0  0  0  0  0999 V2000
    7.1334  -18.0362   19.0233 N   0  0  0  0  0  0  0  0  0  0  0  0
    8.1248  -17.3216   19.8298 C   0  0  1  0  0  0  0  0  0  0  0  0
    8.4870  -16.0122   19.1623 C   0  0  0  0  0  0  0  0  0  0  0  0
    9.5021  -16.2203   18.1283 C   0  0  0  0  0  0  0  0  0  0  0  0
   10.0521  -17.3460   18.0259 O   0  0  0  0  0  0  0  0  0  0  0  0
    7.5063  -16.9839   21.1376 C   0  0  0  0  0  0  0  0  0  0  0  0
    6.4477  -16.3089   21.1809 O   0  0  0  0  0  0  0  0  0  0  0  0
    9.8525  -15.1951   17.2757 O   0  0  0  0  0  0  0  0  0  0  0  0
    8.1858  -19.3876   24.3695 O   0  0  0  0  0  0  0  0  0  0  0  0
    7.0027  -18.6611   24.1631 C   0  0  0  0  0  0  0  0  0  0  0  0
    7.4045  -17.2753   23.6383 C   0  0  2  0  0  0  0  0  0  0  0  0
    8.0934  -17.4139   22.3709 N   0  0  0  0  0  0  0  0  0  0  0  0
    8.3567  -16.7255   24.6261 C   0  0  0  0  0  0  0  0  0  0  0  0
    9.5824  -16.8533   24.4253 O   0  0  0  0  0  0  0  0  0  0  0  0
    7.9181  -16.0577   25.7943 N   0  0  0  0  0  0  0  0  0  0  0  0
    8.9536  -15.5573   26.7220 C   0  0  1  0  0  0  0  0  0  0  0  0
    8.2374  -14.6403   27.6873 C   0  0  0  0  0  0  0  0  0  0  0  0
    7.5865  -13.5524   26.9502 C   0  0  0  0  0  0  0  0  0  0  0  0
    6.2143  -13.5354   26.8456 C   0  0  0  0  0  0  0  0  0  0  0  0
    5.5532  -12.5149   26.1805 C   0  0  0  0  0  0  0  0  0  0  0  0
    6.3084  -11.5082   25.6209 C   0  0  0  0  0  0  0  0  0  0  0  0
    7.6784  -11.4873   25.7025 C   0  0  0  0  0  0  0  0  0  0  0  0
    8.3103  -12.5359   26.3829 C   0  0  0  0  0  0  0  0  0  0  0  0
    9.5264  -16.6877   27.4605 C   0  0  0  0  0  0  0  0  0  0  0  0
   10.6239  -16.4875   28.2662 O   0  0  0  0  0  0  0  0  0  0  0  0
    9.0334  -17.8232   27.3679 O   0  0  0  0  0  0  0  0  0  0  0  0
  2  1  1  6
  2  3  1  0
  3  4  1  0
  4  8  1  0
  5  4  2  0
  6  2  1  0
  7  6  2  0
  9 10  1  0
 11 10  1  1
 11 13  1  0
 11 12  1  0
 12  6  1  0
 13 14  2  0
 15 16  1  0
 15 13  1  0
 16 17  1  1
 16 24  1  0
 17 18  1  0
 18 23  2  0
 19 20  2  0
 19 18  1  0
 20 21  1  0
 21 22  2  0
 23 22  1  0
 24 26  2  0
 24 25  1  0
M  END
$$$$
