DSF.pdb
     RDKit          3D

 26 26  0  0  1  0  0  0  0  0999 V2000
    9.6126  -16.3667   18.5741 N   0  0  0  0  0  0  0  0  0  0  0  0
   10.3901  -16.2738   19.8113 C   0  0  1  0  0  0  0  0  0  0  0  0
   11.1917  -14.9898   19.8225 C   0  0  0  0  0  0  0  0  0  0  0  0
   12.3221  -15.0758   18.8965 C   0  0  0  0  0  0  0  0  0  0  0  0
   12.7510  -14.0268   18.3525 O   0  0  0  0  0  0  0  0  0  0  0  0
    9.4425  -16.2021   20.9532 C   0  0  0  0  0  0  0  0  0  0  0  0
    8.6627  -15.2238   21.0673 O   0  0  0  0  0  0  0  0  0  0  0  0
   12.9110  -16.2919   18.6225 O   0  0  0  0  0  0  0  0  0  0  0  0
    9.0475  -19.5554   23.1900 O   0  0  0  0  0  0  0  0  0  0  0  0
    7.8803  -18.7853   23.0691 C   0  0  0  0  0  0  0  0  0  0  0  0
    8.3147  -17.3214   22.9088 C   0  0  2  0  0  0  0  0  0  0  0  0
    9.3926  -17.2348   21.9440 N   0  0  0  0  0  0  0  0  0  0  0  0
    8.8373  -16.9044   24.2269 C   0  0  0  0  0  0  0  0  0  0  0  0
   10.0714  -16.8961   24.4166 O   0  0  0  0  0  0  0  0  0  0  0  0
    7.9778  -16.5137   25.2812 N   0  0  0  0  0  0  0  0  0  0  0  0
    8.5977  -16.2061   26.5868 C   0  0  1  0  0  0  0  0  0  0  0  0
    7.5423  -15.4747   27.3850 C   0  0  0  0  0  0  0  0  0  0  0  0
    7.3160  -14.1450   26.8097 C   0  0  0  0  0  0  0  0  0  0  0  0
    8.3029  -13.1908   26.9082 C   0  0  0  0  0  0  0  0  0  0  0  0
    8.1446  -11.9285   26.3585 C   0  0  0  0  0  0  0  0  0  0  0  0
    6.9652  -11.6478   25.7048 C   0  0  0  0  0  0  0  0  0  0  0  0
    5.9562  -12.5705   25.5841 C   0  0  0  0  0  0  0  0  0  0  0  0
    6.1535  -13.8353   26.1527 C   0  0  0  0  0  0  0  0  0  0  0  0
    8.9382  -17.4603   27.2666 C   0  0  0  0  0  0  0  0  0  0  0  0
    8.4348  -18.6497   26.7914 O   0  0  0  0  0  0  0  0  0  0  0  0
    9.6749  -17.4626   28.2656 O   0  0  0  0  0  0  0  0  0  0  0  0
  2  1  1  6
  2  3  1  0
  3  4  1  0
  4  8  1  0
  5  4  2  0
  6  2  1  0
  7  6  2  0
  9 10  1  0
 11 10  1  1
 11 13  1  0
 11 12  1  0
 12  6  1  0
 13 14  2  0
 15 16  1  0
 15 13  1  0
 16 17  1  1
 16 24  1  0
 17 18  1  0
 18 23  2  0
 19 20  2  0
 19 18  1  0
 20 21  1  0
 21 22  2  0
 23 22  1  0
 24 26  2  0
 24 25  1  0
M  END
$$$$
