DSF.pdb
     RDKit          3D

 26 26  0  0  1  0  0  0  0  0999 V2000
    5.7560  -20.0374   21.3482 N   0  0  0  0  0  0  0  0  0  0  0  0
    6.0861  -19.2573   22.5425 C   0  0  1  0  0  0  0  0  0  0  0  0
    6.6942  -20.1580   23.5961 C   0  0  0  0  0  0  0  0  0  0  0  0
    5.6882  -21.0701   24.1425 C   0  0  0  0  0  0  0  0  0  0  0  0
    4.8475  -21.5921   23.3673 O   0  0  0  0  0  0  0  0  0  0  0  0
    7.1234  -18.2591   22.1756 C   0  0  0  0  0  0  0  0  0  0  0  0
    8.2871  -18.6337   21.8867 O   0  0  0  0  0  0  0  0  0  0  0  0
    5.6610  -21.3549   25.4912 O   0  0  0  0  0  0  0  0  0  0  0  0
    5.9331  -14.5095   21.5517 O   0  0  0  0  0  0  0  0  0  0  0  0
    7.2386  -14.7023   21.0736 C   0  0  0  0  0  0  0  0  0  0  0  0
    7.8482  -15.8654   21.8692 C   0  0  2  0  0  0  0  0  0  0  0  0
    6.8283  -16.8583   22.1414 N   0  0  0  0  0  0  0  0  0  0  0  0
    8.2916  -15.2909   23.1566 C   0  0  0  0  0  0  0  0  0  0  0  0
    8.3474  -14.0497   23.2814 O   0  0  0  0  0  0  0  0  0  0  0  0
    8.6553  -16.1083   24.2532 N   0  0  0  0  0  0  0  0  0  0  0  0
    9.4218  -15.4778   25.3479 C   0  0  1  0  0  0  0  0  0  0  0  0
    8.4632  -15.3601   26.5111 C   0  0  0  0  0  0  0  0  0  0  0  0
    7.6530  -14.1463   26.3674 C   0  0  0  0  0  0  0  0  0  0  0  0
    8.2805  -12.9318   26.2078 C   0  0  0  0  0  0  0  0  0  0  0  0
    7.5572  -11.7611   26.0433 C   0  0  0  0  0  0  0  0  0  0  0  0
    6.1822  -11.8416   26.0431 C   0  0  0  0  0  0  0  0  0  0  0  0
    5.5174  -13.0324   26.1990 C   0  0  0  0  0  0  0  0  0  0  0  0
    6.2831  -14.1937   26.3625 C   0  0  0  0  0  0  0  0  0  0  0  0
   10.5359  -16.3545   25.7238 C   0  0  0  0  0  0  0  0  0  0  0  0
   11.5254  -15.8789   26.5535 O   0  0  0  0  0  0  0  0  0  0  0  0
   10.5975  -17.5207   25.3028 O   0  0  0  0  0  0  0  0  0  0  0  0
  2  1  1  6
  2  3  1  0
  3  4  1  0
  4  8  1  0
  5  4  2  0
  6  2  1  0
  7  6  2  0
  9 10  1  0
 11 10  1  6
 11 13  1  0
 11 12  1  0
 12  6  1  0
 13 14  2  0
 15 16  1  0
 15 13  1  0
 16 17  1  1
 16 24  1  0
 17 18  1  0
 18 23  2  0
 19 20  2  0
 19 18  1  0
 20 21  1  0
 21 22  2  0
 23 22  1  0
 24 26  2  0
 24 25  1  0
M  END
$$$$
