DSF.pdb
     RDKit          3D

 26 26  0  0  1  0  0  0  0  0999 V2000
    8.4965  -16.5901   18.4131 N   0  0  0  0  0  0  0  0  0  0  0  0
    8.3021  -15.3260   19.1260 C   0  0  1  0  0  0  0  0  0  0  0  0
    7.3636  -14.4314   18.3449 C   0  0  0  0  0  0  0  0  0  0  0  0
    7.8917  -14.1693   17.0051 C   0  0  0  0  0  0  0  0  0  0  0  0
    7.7637  -15.0454   16.1127 O   0  0  0  0  0  0  0  0  0  0  0  0
    7.6404  -15.6194   20.4233 C   0  0  0  0  0  0  0  0  0  0  0  0
    6.7237  -14.8731   20.8485 O   0  0  0  0  0  0  0  0  0  0  0  0
    8.5224  -12.9763   16.7228 O   0  0  0  0  0  0  0  0  0  0  0  0
    8.3022  -19.2243   22.1267 O   0  0  0  0  0  0  0  0  0  0  0  0
    7.1129  -18.5946   22.5257 C   0  0  0  0  0  0  0  0  0  0  0  0
    7.3538  -17.0798   22.4565 C   0  0  2  0  0  0  0  0  0  0  0  0
    8.0252  -16.7483   21.2158 N   0  0  0  0  0  0  0  0  0  0  0  0
    8.2639  -16.7600   23.5763 C   0  0  0  0  0  0  0  0  0  0  0  0
    9.4965  -16.7608   23.3770 O   0  0  0  0  0  0  0  0  0  0  0  0
    7.7775  -16.4526   24.8693 N   0  0  0  0  0  0  0  0  0  0  0  0
    8.7740  -16.1508   25.9178 C   0  0  1  0  0  0  0  0  0  0  0  0
    8.0108  -15.4707   27.0317 C   0  0  0  0  0  0  0  0  0  0  0  0
    7.6083  -14.1252   26.6097 C   0  0  0  0  0  0  0  0  0  0  0  0
    8.3309  -13.4810   25.6314 C   0  0  0  0  0  0  0  0  0  0  0  0
    7.9741  -12.2193   25.1825 C   0  0  0  0  0  0  0  0  0  0  0  0
    6.8687  -11.6188   25.7434 C   0  0  0  0  0  0  0  0  0  0  0  0
    6.1209  -12.2265   26.7209 C   0  0  0  0  0  0  0  0  0  0  0  0
    6.5130  -13.5014   27.1482 C   0  0  0  0  0  0  0  0  0  0  0  0
    9.3446  -17.4065   26.4166 C   0  0  0  0  0  0  0  0  0  0  0  0
   10.5248  -17.3835   27.1240 O   0  0  0  0  0  0  0  0  0  0  0  0
    8.7762  -18.4903   26.2086 O   0  0  0  0  0  0  0  0  0  0  0  0
  2  1  1  6
  2  3  1  0
  3  4  1  0
  4  8  1  0
  5  4  2  0
  6  2  1  0
  7  6  2  0
  9 10  1  0
 11 10  1  6
 11 13  1  0
 11 12  1  0
 12  6  1  0
 13 14  2  0
 15 16  1  0
 15 13  1  0
 16 17  1  1
 16 24  1  0
 17 18  1  0
 18 23  2  0
 19 20  2  0
 19 18  1  0
 20 21  1  0
 21 22  2  0
 23 22  1  0
 24 26  2  0
 24 25  1  0
M  END
$$$$
