SAD.pdb
     RDKit          3D

 20 19  0  0  1  0  0  0  0  0999 V2000
   18.9124  -10.3366  -19.6426 O   0  0  0  0  0  0  0  0  0  0  0  0
   18.7715   -9.4153  -18.6315 C   0  0  0  0  0  0  0  0  0  0  0  0
   19.1595  -10.1088  -17.3213 C   0  0  2  0  0  0  0  0  0  0  0  0
   18.1372  -11.0295  -16.9208 N   0  0  0  0  0  0  0  0  0  0  0  0
   19.3930   -9.1331  -16.2430 C   0  0  0  0  0  0  0  0  0  0  0  0
   18.4467   -8.4253  -15.8311 O   0  0  0  0  0  0  0  0  0  0  0  0
   22.2023   -8.4472  -13.9040 C   0  0  0  0  0  0  0  0  0  0  0  0
   20.9370   -8.0484  -14.5946 C   0  0  2  0  0  0  0  0  0  0  0  0
   20.6664   -8.9882  -15.6720 N   0  0  0  0  0  0  0  0  0  0  0  0
   20.9968   -6.6530  -15.1191 C   0  0  0  0  0  0  0  0  0  0  0  0
   21.4974   -6.4697  -16.2403 O   0  0  0  0  0  0  0  0  0  0  0  0
   20.5138   -5.5406  -14.4026 N   0  0  0  0  0  0  0  0  0  0  0  0
   20.5578   -4.1632  -14.8993 C   0  0  1  0  0  0  0  0  0  0  0  0
   19.3113   -3.4191  -14.5523 C   0  0  0  0  0  0  0  0  0  0  0  0
   18.1670   -3.8838  -15.3363 C   0  0  0  0  0  0  0  0  0  0  0  0
   18.3160   -4.1749  -16.5447 O   0  0  0  0  0  0  0  0  0  0  0  0
   21.7876   -3.4939  -14.3687 C   0  0  0  0  0  0  0  0  0  0  0  0
   22.5176   -4.1760  -13.4000 O   0  0  0  0  0  0  0  0  0  0  0  0
   16.9210   -4.0074  -14.7741 O   0  0  0  0  0  0  0  0  0  0  0  0
   22.2143   -2.3795  -14.7189 O   0  0  0  0  0  0  0  0  0  0  0  0
  2  1  1  0
  3  5  1  0
  3  2  1  0
  3  4  1  1
  5  6  2  0
  8  7  1  6
  9  8  1  0
  9  5  1  0
 10 11  2  0
 10  8  1  0
 12 10  1  0
 13 12  1  0
 13 17  1  0
 13 14  1  1
 15 16  2  0
 15 14  1  0
 17 18  1  0
 19 15  1  0
 20 17  2  0
M  END
$$$$
