SAD.pdb
     RDKit          3D

 20 19  0  0  1  0  0  0  0  0999 V2000
   18.4583   -9.8838  -20.8771 O   0  0  0  0  0  0  0  0  0  0  0  0
   18.8082   -9.2368  -19.7152 C   0  0  0  0  0  0  0  0  0  0  0  0
   18.9115  -10.2964  -18.6131 C   0  0  2  0  0  0  0  0  0  0  0  0
   17.6159  -10.8242  -18.3035 N   0  0  0  0  0  0  0  0  0  0  0  0
   19.5235   -9.7463  -17.3915 C   0  0  0  0  0  0  0  0  0  0  0  0
   18.8178   -9.1127  -16.5751 O   0  0  0  0  0  0  0  0  0  0  0  0
   22.8922   -9.9944  -15.8036 C   0  0  0  0  0  0  0  0  0  0  0  0
   21.5430   -9.3676  -15.9578 C   0  0  2  0  0  0  0  0  0  0  0  0
   20.8910   -9.9250  -17.1331 N   0  0  0  0  0  0  0  0  0  0  0  0
   21.6202   -7.8810  -16.0567 C   0  0  0  0  0  0  0  0  0  0  0  0
   21.4046   -7.3556  -17.1607 O   0  0  0  0  0  0  0  0  0  0  0  0
   21.9252   -7.0518  -14.9597 N   0  0  0  0  0  0  0  0  0  0  0  0
   21.9831   -5.5897  -15.0279 C   0  0  1  0  0  0  0  0  0  0  0  0
   20.6672   -5.0107  -15.4290 C   0  0  0  0  0  0  0  0  0  0  0  0
   20.6545   -4.6197  -16.8386 C   0  0  0  0  0  0  0  0  0  0  0  0
   21.4583   -3.7540  -17.2528 O   0  0  0  0  0  0  0  0  0  0  0  0
   22.4616   -5.0600  -13.7118 C   0  0  0  0  0  0  0  0  0  0  0  0
   22.7152   -3.6943  -13.6278 O   0  0  0  0  0  0  0  0  0  0  0  0
   19.7721   -5.1828  -17.7264 O   0  0  0  0  0  0  0  0  0  0  0  0
   22.6526   -5.7355  -12.6852 O   0  0  0  0  0  0  0  0  0  0  0  0
  2  1  1  0
  3  5  1  0
  3  2  1  0
  3  4  1  1
  5  6  2  0
  8  7  1  6
  9  8  1  0
  9  5  1  0
 10 11  2  0
 10  8  1  0
 12 10  1  0
 13 12  1  0
 13 17  1  0
 13 14  1  1
 15 16  2  0
 15 14  1  0
 17 18  1  0
 19 15  1  0
 20 17  2  0
M  END
$$$$
