SAD.pdb
     RDKit          3D

 20 19  0  0  1  0  0  0  0  0999 V2000
   19.0691   -9.5779  -19.1079 O   0  0  0  0  0  0  0  0  0  0  0  0
   18.1550  -10.4526  -18.5693 C   0  0  0  0  0  0  0  0  0  0  0  0
   18.9204  -11.4036  -17.6431 C   0  0  2  0  0  0  0  0  0  0  0  0
   18.0544  -12.4394  -17.1632 N   0  0  0  0  0  0  0  0  0  0  0  0
   19.5093  -10.6856  -16.4999 C   0  0  0  0  0  0  0  0  0  0  0  0
   18.7647  -10.2288  -15.6038 O   0  0  0  0  0  0  0  0  0  0  0  0
   22.9538  -10.0593  -15.2431 C   0  0  0  0  0  0  0  0  0  0  0  0
   21.5110   -9.6868  -15.3715 C   0  0  2  0  0  0  0  0  0  0  0  0
   20.8978  -10.5078  -16.4046 N   0  0  0  0  0  0  0  0  0  0  0  0
   21.3280   -8.2378  -15.6762 C   0  0  0  0  0  0  0  0  0  0  0  0
   21.3572   -7.8811  -16.8649 O   0  0  0  0  0  0  0  0  0  0  0  0
   21.1250   -7.2622  -14.6807 N   0  0  0  0  0  0  0  0  0  0  0  0
   21.0060   -5.8273  -14.9509 C   0  0  1  0  0  0  0  0  0  0  0  0
   19.5963   -5.3602  -14.8016 C   0  0  0  0  0  0  0  0  0  0  0  0
   19.4841   -3.9122  -14.9766 C   0  0  0  0  0  0  0  0  0  0  0  0
   19.3595   -3.1710  -13.9755 O   0  0  0  0  0  0  0  0  0  0  0  0
   21.9504   -5.0843  -14.0576 C   0  0  0  0  0  0  0  0  0  0  0  0
   22.2229   -3.7582  -14.3795 O   0  0  0  0  0  0  0  0  0  0  0  0
   19.5098   -3.3411  -16.2244 O   0  0  0  0  0  0  0  0  0  0  0  0
   22.5136   -5.5500  -13.0514 O   0  0  0  0  0  0  0  0  0  0  0  0
  2  1  1  0
  3  5  1  0
  3  2  1  0
  3  4  1  1
  5  6  2  0
  8  7  1  6
  9  8  1  0
  9  5  1  0
 10 11  2  0
 10  8  1  0
 12 10  1  0
 13 12  1  0
 13 17  1  0
 13 14  1  1
 15 16  2  0
 15 14  1  0
 17 18  1  0
 19 15  1  0
 20 17  2  0
M  END
$$$$
