SAD.pdb
     RDKit          3D

 20 19  0  0  1  0  0  0  0  0999 V2000
   16.8998  -10.1353  -17.6416 O   0  0  0  0  0  0  0  0  0  0  0  0
   17.6464   -9.4296  -16.7276 C   0  0  0  0  0  0  0  0  0  0  0  0
   18.4009  -10.4484  -15.8669 C   0  0  2  0  0  0  0  0  0  0  0  0
   17.4803  -11.2394  -15.1054 N   0  0  0  0  0  0  0  0  0  0  0  0
   19.3514   -9.7870  -14.9567 C   0  0  0  0  0  0  0  0  0  0  0  0
   18.9320   -9.2396  -13.9124 O   0  0  0  0  0  0  0  0  0  0  0  0
   23.0557   -9.6459  -14.6781 C   0  0  0  0  0  0  0  0  0  0  0  0
   21.6933   -9.1003  -14.3898 C   0  0  2  0  0  0  0  0  0  0  0  0
   20.7236   -9.7638  -15.2482 N   0  0  0  0  0  0  0  0  0  0  0  0
   21.6286   -7.6209  -14.5717 C   0  0  0  0  0  0  0  0  0  0  0  0
   21.1226   -7.1809  -15.6165 O   0  0  0  0  0  0  0  0  0  0  0  0
   22.1135   -6.7065  -13.6164 N   0  0  0  0  0  0  0  0  0  0  0  0
   22.0962   -5.2521  -13.7905 C   0  0  1  0  0  0  0  0  0  0  0  0
   22.6233   -4.8577  -15.1301 C   0  0  0  0  0  0  0  0  0  0  0  0
   22.5725   -3.4091  -15.3271 C   0  0  0  0  0  0  0  0  0  0  0  0
   22.2332   -2.9424  -16.4380 O   0  0  0  0  0  0  0  0  0  0  0  0
   20.7051   -4.7507  -13.5551 C   0  0  0  0  0  0  0  0  0  0  0  0
   20.4913   -3.3812  -13.6776 O   0  0  0  0  0  0  0  0  0  0  0  0
   22.8937   -2.5405  -14.3140 O   0  0  0  0  0  0  0  0  0  0  0  0
   19.7224   -5.4530  -13.2589 O   0  0  0  0  0  0  0  0  0  0  0  0
  2  1  1  0
  3  5  1  0
  3  2  1  0
  3  4  1  1
  5  6  2  0
  8  7  1  6
  9  8  1  0
  9  5  1  0
 10 11  2  0
 10  8  1  0
 12 10  1  0
 13 12  1  0
 13 17  1  0
 13 14  1  6
 15 16  2  0
 15 14  1  0
 17 18  1  0
 19 15  1  0
 20 17  2  0
M  END
$$$$
