SAD.pdb
     RDKit          3D

 20 19  0  0  1  0  0  0  0  0999 V2000
   17.4575  -12.7383  -16.7067 O   0  0  0  0  0  0  0  0  0  0  0  0
   17.8862  -11.8029  -15.7945 C   0  0  0  0  0  0  0  0  0  0  0  0
   18.8098  -10.8297  -16.5347 C   0  0  2  0  0  0  0  0  0  0  0  0
   19.6743  -11.5420  -17.4283 N   0  0  0  0  0  0  0  0  0  0  0  0
   19.6197  -10.0347  -15.5958 C   0  0  0  0  0  0  0  0  0  0  0  0
   19.0538   -9.3460  -14.7175 O   0  0  0  0  0  0  0  0  0  0  0  0
   23.2660   -9.6993  -14.8896 C   0  0  0  0  0  0  0  0  0  0  0  0
   21.8552   -9.2072  -14.8243 C   0  0  2  0  0  0  0  0  0  0  0  0
   21.0205  -10.0411  -15.6758 N   0  0  0  0  0  0  0  0  0  0  0  0
   21.7396   -7.7732  -15.2196 C   0  0  0  0  0  0  0  0  0  0  0  0
   21.4628   -7.5120  -16.4013 O   0  0  0  0  0  0  0  0  0  0  0  0
   21.9297   -6.7087  -14.3170 N   0  0  0  0  0  0  0  0  0  0  0  0
   21.7874   -5.2952  -14.6743 C   0  0  1  0  0  0  0  0  0  0  0  0
   20.4261   -5.0039  -15.2124 C   0  0  0  0  0  0  0  0  0  0  0  0
   20.2623   -3.5860  -15.5328 C   0  0  0  0  0  0  0  0  0  0  0  0
   21.2677   -2.8441  -15.6102 O   0  0  0  0  0  0  0  0  0  0  0  0
   22.1199   -4.4558  -13.4798 C   0  0  0  0  0  0  0  0  0  0  0  0
   22.5193   -5.1204  -12.3243 O   0  0  0  0  0  0  0  0  0  0  0  0
   19.0205   -3.0433  -15.7504 O   0  0  0  0  0  0  0  0  0  0  0  0
   22.0699   -3.2142  -13.4304 O   0  0  0  0  0  0  0  0  0  0  0  0
  2  1  1  0
  3  5  1  0
  3  2  1  0
  3  4  1  6
  5  6  2  0
  8  7  1  6
  9  8  1  0
  9  5  1  0
 10 11  2  0
 10  8  1  0
 12 10  1  0
 13 12  1  0
 13 17  1  0
 13 14  1  1
 15 16  2  0
 15 14  1  0
 17 18  1  0
 19 15  1  0
 20 17  2  0
M  END
$$$$
