QNW.pdb
     RDKit          3D

 32 33  0  0  1  0  0  0  0  0999 V2000
    7.5766  -20.0823   24.6762 N   0  0  0  0  0  0  0  0  0  0  0  0
    6.6062  -20.7705   23.9260 C   0  0  0  0  0  0  0  0  0  0  0  0
    5.6861  -21.3807   24.5300 O   0  0  0  0  0  0  0  0  0  0  0  0
    6.6702  -20.7740   22.4608 C   0  0  0  0  0  0  0  0  0  0  0  0
    7.8524  -19.9592   21.9506 C   0  0  0  0  0  0  0  0  0  0  0  0
    7.2815  -18.7212   21.2570 C   0  0  2  0  0  0  0  0  0  0  0  0
    6.8829  -19.1403   19.9348 N   0  0  0  0  0  0  0  0  0  0  0  0
    8.3542  -17.7167   21.1316 C   0  0  0  0  0  0  0  0  0  0  0  0
    9.4728  -18.1373   20.6795 O   0  0  0  0  0  0  0  0  0  0  0  0
    6.6397  -13.5136   19.7952 N   0  0  0  0  0  0  0  0  0  0  0  0
    7.9524  -14.0325   19.7632 C   0  0  0  0  0  0  0  0  0  0  0  0
    8.3524  -14.4963   18.6655 O   0  0  0  0  0  0  0  0  0  0  0  0
    8.8455  -14.0489   20.9395 C   0  0  0  0  0  0  0  0  0  0  0  0
    9.2778  -15.4304   21.3508 C   0  0  2  0  0  0  0  0  0  0  0  0
    8.1728  -16.3605   21.4872 N   0  0  0  0  0  0  0  0  0  0  0  0
    9.9893  -15.3460   22.6510 C   0  0  0  0  0  0  0  0  0  0  0  0
   10.9477  -14.5836   22.8376 O   0  0  0  0  0  0  0  0  0  0  0  0
    9.6005  -16.1527   23.7755 N   0  0  0  0  0  0  0  0  0  0  0  0
   10.3031  -16.1474   25.0279 C   0  0  1  0  0  0  0  0  0  0  0  0
    9.8202  -15.1232   25.9993 C   0  0  0  0  0  0  0  0  0  0  0  0
    8.3868  -14.8426   25.9449 C   0  0  0  0  0  0  0  0  0  0  0  0
    7.3963  -15.7925   25.7315 C   0  0  0  0  0  0  0  0  0  0  0  0
    6.1799  -15.2225   25.7392 N   0  0  0  0  0  0  0  0  0  0  0  0
    6.3544  -13.8933   25.9572 C   0  0  0  0  0  0  0  0  0  0  0  0
    5.4980  -12.8201   26.0668 C   0  0  0  0  0  0  0  0  0  0  0  0
    5.9462  -11.5210   26.2982 C   0  0  0  0  0  0  0  0  0  0  0  0
    7.3057  -11.3353   26.4175 C   0  0  0  0  0  0  0  0  0  0  0  0
    8.1994  -12.3723   26.3160 C   0  0  0  0  0  0  0  0  0  0  0  0
    7.7057  -13.6472   26.0853 C   0  0  0  0  0  0  0  0  0  0  0  0
   10.0928  -17.5105   25.6084 C   0  0  0  0  0  0  0  0  0  0  0  0
   10.6639  -17.7861   26.6971 O   0  0  0  0  0  0  0  0  0  0  0  0
    9.3116  -18.4860   25.0252 O   0  0  0  0  0  0  0  0  0  0  0  0
  1  2  1  0
  2  3  2  0
  2  4  1  0
  4  5  1  0
  6  5  1  0
  6  7  1  6
  8  9  2  0
  8  6  1  0
 11 10  1  0
 11 13  1  0
 12 11  2  0
 14 13  1  1
 14 15  1  0
 15  8  1  0
 16 14  1  0
 16 18  1  0
 17 16  2  0
 19 18  1  0
 19 30  1  0
 19 20  1  1
 21 20  1  0
 21 29  1  0
 22 21  2  0
 23 22  1  0
 23 24  1  0
 24 25  1  0
 24 29  2  0
 25 26  2  0
 26 27  1  0
 28 27  2  0
 29 28  1  0
 30 31  2  0
 30 32  1  0
M  END
$$$$
