QNW.pdb
     RDKit          3D

 32 33  0  0  1  0  0  0  0  0999 V2000
    7.0784  -21.0876   18.3158 N   0  0  0  0  0  0  0  0  0  0  0  0
    6.0973  -20.0986   18.5087 C   0  0  0  0  0  0  0  0  0  0  0  0
    4.9834  -20.2228   17.9362 O   0  0  0  0  0  0  0  0  0  0  0  0
    6.3732  -18.9408   19.3657 C   0  0  0  0  0  0  0  0  0  0  0  0
    7.7820  -18.9959   19.9435 C   0  0  0  0  0  0  0  0  0  0  0  0
    7.7383  -18.3024   21.3063 C   0  0  2  0  0  0  0  0  0  0  0  0
    7.1854  -16.9889   21.0794 N   0  0  0  0  0  0  0  0  0  0  0  0
    9.1194  -18.1552   21.8026 C   0  0  0  0  0  0  0  0  0  0  0  0
    9.7766  -19.2372   21.9755 O   0  0  0  0  0  0  0  0  0  0  0  0
   14.0975  -17.2570   22.4163 N   0  0  0  0  0  0  0  0  0  0  0  0
   13.3867  -16.0527   22.2206 C   0  0  0  0  0  0  0  0  0  0  0  0
   14.0069  -14.9841   22.4520 O   0  0  0  0  0  0  0  0  0  0  0  0
   11.9819  -16.0062   21.7671 C   0  0  0  0  0  0  0  0  0  0  0  0
   11.0468  -16.8288   22.6116 C   0  0  2  0  0  0  0  0  0  0  0  0
    9.6997  -16.8956   22.0772 N   0  0  0  0  0  0  0  0  0  0  0  0
   10.9872  -16.2440   23.9748 C   0  0  0  0  0  0  0  0  0  0  0  0
   11.5377  -15.1727   24.2647 O   0  0  0  0  0  0  0  0  0  0  0  0
   10.2802  -16.8959   25.0433 N   0  0  0  0  0  0  0  0  0  0  0  0
   10.4577  -16.5552   26.4270 C   0  0  1  0  0  0  0  0  0  0  0  0
    9.9035  -15.2236   26.8082 C   0  0  0  0  0  0  0  0  0  0  0  0
    8.5557  -14.9473   26.3148 C   0  0  0  0  0  0  0  0  0  0  0  0
    7.6937  -15.8947   25.7780 C   0  0  0  0  0  0  0  0  0  0  0  0
    6.5290  -15.3300   25.4188 N   0  0  0  0  0  0  0  0  0  0  0  0
    6.6098  -14.0068   25.7141 C   0  0  0  0  0  0  0  0  0  0  0  0
    5.7488  -12.9404   25.5771 C   0  0  0  0  0  0  0  0  0  0  0  0
    6.0858  -11.6465   25.9700 C   0  0  0  0  0  0  0  0  0  0  0  0
    7.3373  -11.4588   26.5136 C   0  0  0  0  0  0  0  0  0  0  0  0
    8.2308  -12.4891   26.6709 C   0  0  0  0  0  0  0  0  0  0  0  0
    7.8500  -13.7589   26.2650 C   0  0  0  0  0  0  0  0  0  0  0  0
    9.7418  -17.6217   27.1947 C   0  0  0  0  0  0  0  0  0  0  0  0
    9.7184  -17.5336   28.4514 O   0  0  0  0  0  0  0  0  0  0  0  0
    9.1047  -18.6970   26.6118 O   0  0  0  0  0  0  0  0  0  0  0  0
  1  2  1  0
  2  3  2  0
  2  4  1  0
  4  5  1  0
  6  5  1  0
  6  7  1  6
  8  9  2  0
  8  6  1  0
 11 10  1  0
 11 13  1  0
 12 11  2  0
 14 13  1  6
 14 15  1  0
 15  8  1  0
 16 14  1  0
 16 18  1  0
 17 16  2  0
 19 18  1  0
 19 30  1  0
 19 20  1  6
 21 20  1  0
 21 29  1  0
 22 21  2  0
 23 22  1  0
 23 24  1  0
 24 25  1  0
 24 29  2  0
 25 26  2  0
 26 27  1  0
 28 27  2  0
 29 28  1  0
 30 31  2  0
 30 32  1  0
M  END
$$$$
