QNW.pdb
     RDKit          3D

 32 33  0  0  1  0  0  0  0  0999 V2000
   13.6213  -17.2631   16.9885 N   0  0  0  0  0  0  0  0  0  0  0  0
   13.1271  -18.5775   17.0668 C   0  0  0  0  0  0  0  0  0  0  0  0
   13.7554  -19.5022   16.4889 O   0  0  0  0  0  0  0  0  0  0  0  0
   11.8965  -18.8612   17.8126 C   0  0  0  0  0  0  0  0  0  0  0  0
   11.2744  -17.5872   18.3707 C   0  0  0  0  0  0  0  0  0  0  0  0
   11.0719  -17.8036   19.8714 C   0  0  2  0  0  0  0  0  0  0  0  0
   10.4935  -19.1173   20.0209 N   0  0  0  0  0  0  0  0  0  0  0  0
   10.1069  -16.8028   20.3640 C   0  0  0  0  0  0  0  0  0  0  0  0
   10.3856  -15.5801   20.1194 O   0  0  0  0  0  0  0  0  0  0  0  0
    5.5430  -18.2639   23.2177 N   0  0  0  0  0  0  0  0  0  0  0  0
    6.4641  -17.9545   22.1932 C   0  0  0  0  0  0  0  0  0  0  0  0
    7.2049  -18.8888   21.7954 O   0  0  0  0  0  0  0  0  0  0  0  0
    6.5839  -16.6114   21.5906 C   0  0  0  0  0  0  0  0  0  0  0  0
    8.0031  -16.1239   21.4782 C   0  0  2  0  0  0  0  0  0  0  0  0
    8.9343  -17.1584   21.0692 N   0  0  0  0  0  0  0  0  0  0  0  0
    8.4355  -15.5905   22.7944 C   0  0  0  0  0  0  0  0  0  0  0  0
    7.9933  -14.5320   23.2621 O   0  0  0  0  0  0  0  0  0  0  0  0
    9.4008  -16.2806   23.6058 N   0  0  0  0  0  0  0  0  0  0  0  0
    9.9448  -15.7339   24.8173 C   0  0  1  0  0  0  0  0  0  0  0  0
    9.0854  -15.9309   26.0207 C   0  0  0  0  0  0  0  0  0  0  0  0
    7.8626  -15.1308   26.0486 C   0  0  0  0  0  0  0  0  0  0  0  0
    6.5734  -15.6429   25.9811 C   0  0  0  0  0  0  0  0  0  0  0  0
    5.6649  -14.6548   26.0326 N   0  0  0  0  0  0  0  0  0  0  0  0
    6.3433  -13.4827   26.1345 C   0  0  0  0  0  0  0  0  0  0  0  0
    5.9647  -12.1612   26.2226 C   0  0  0  0  0  0  0  0  0  0  0  0
    6.8858  -11.1200   26.3203 C   0  0  0  0  0  0  0  0  0  0  0  0
    8.2210  -11.4583   26.3264 C   0  0  0  0  0  0  0  0  0  0  0  0
    8.6483  -12.7600   26.2408 C   0  0  0  0  0  0  0  0  0  0  0  0
    7.6943  -13.7615   26.1453 C   0  0  0  0  0  0  0  0  0  0  0  0
   11.2469  -16.4417   25.0240 C   0  0  0  0  0  0  0  0  0  0  0  0
   11.9469  -16.1169   26.0200 O   0  0  0  0  0  0  0  0  0  0  0  0
   11.7298  -17.4293   24.1912 O   0  0  0  0  0  0  0  0  0  0  0  0
  1  2  1  0
  2  3  2  0
  2  4  1  0
  4  5  1  0
  6  5  1  0
  6  7  1  6
  8  9  2  0
  8  6  1  0
 11 10  1  0
 11 13  1  0
 12 11  2  0
 14 13  1  1
 14 15  1  0
 15  8  1  0
 16 14  1  0
 16 18  1  0
 17 16  2  0
 19 18  1  0
 19 30  1  0
 19 20  1  1
 21 20  1  0
 21 29  1  0
 22 21  2  0
 23 22  1  0
 23 24  1  0
 24 25  1  0
 24 29  2  0
 25 26  2  0
 26 27  1  0
 28 27  2  0
 29 28  1  0
 30 31  2  0
 30 32  1  0
M  END
$$$$
