QNW.pdb
     RDKit          3D

 32 33  0  0  1  0  0  0  0  0999 V2000
    8.0985  -12.1828   20.0521 N   0  0  0  0  0  0  0  0  0  0  0  0
    7.2788  -13.1087   19.3823 C   0  0  0  0  0  0  0  0  0  0  0  0
    6.1703  -12.7256   18.9260 O   0  0  0  0  0  0  0  0  0  0  0  0
    7.7142  -14.4999   19.2206 C   0  0  0  0  0  0  0  0  0  0  0  0
    9.0799  -14.7356   19.8536 C   0  0  0  0  0  0  0  0  0  0  0  0
    9.3788  -16.2313   19.7382 C   0  0  2  0  0  0  0  0  0  0  0  0
    8.4377  -16.7640   18.7825 N   0  0  0  0  0  0  0  0  0  0  0  0
    9.1310  -16.8620   21.0483 C   0  0  0  0  0  0  0  0  0  0  0  0
    8.3144  -17.8447   21.0575 O   0  0  0  0  0  0  0  0  0  0  0  0
   13.1806  -15.3679   23.1428 N   0  0  0  0  0  0  0  0  0  0  0  0
   13.1546  -16.2012   22.0032 C   0  0  0  0  0  0  0  0  0  0  0  0
   14.1299  -16.1147   21.2149 O   0  0  0  0  0  0  0  0  0  0  0  0
   12.0543  -17.1430   21.7137 C   0  0  0  0  0  0  0  0  0  0  0  0
   10.9389  -17.0977   22.7229 C   0  0  2  0  0  0  0  0  0  0  0  0
    9.7531  -16.4173   22.2373 N   0  0  0  0  0  0  0  0  0  0  0  0
   11.4196  -16.4001   23.9420 C   0  0  0  0  0  0  0  0  0  0  0  0
   12.5410  -16.6035   24.4275 O   0  0  0  0  0  0  0  0  0  0  0  0
   10.6012  -15.4408   24.6323 N   0  0  0  0  0  0  0  0  0  0  0  0
    9.9655  -15.7104   25.8915 C   0  0  1  0  0  0  0  0  0  0  0  0
    8.5717  -16.2300   25.7776 C   0  0  0  0  0  0  0  0  0  0  0  0
    7.5717  -15.2430   25.3751 C   0  0  0  0  0  0  0  0  0  0  0  0
    6.6297  -15.4265   24.3712 C   0  0  0  0  0  0  0  0  0  0  0  0
    5.8524  -14.3386   24.2424 N   0  0  0  0  0  0  0  0  0  0  0  0
    6.2721  -13.4275   25.1581 C   0  0  0  0  0  0  0  0  0  0  0  0
    5.8717  -12.1532   25.4945 C   0  0  0  0  0  0  0  0  0  0  0  0
    6.4880  -11.4126   26.5015 C   0  0  0  0  0  0  0  0  0  0  0  0
    7.5366  -12.0064   27.1686 C   0  0  0  0  0  0  0  0  0  0  0  0
    7.9725  -13.2734   26.8701 C   0  0  0  0  0  0  0  0  0  0  0  0
    7.3278  -13.9710   25.8602 C   0  0  0  0  0  0  0  0  0  0  0  0
   10.8205  -16.7431   26.5562 C   0  0  0  0  0  0  0  0  0  0  0  0
   10.4544  -17.1832   27.6786 O   0  0  0  0  0  0  0  0  0  0  0  0
   11.9863  -17.2443   26.0162 O   0  0  0  0  0  0  0  0  0  0  0  0
  1  2  1  0
  2  3  2  0
  2  4  1  0
  4  5  1  0
  6  5  1  0
  6  7  1  6
  8  9  2  0
  8  6  1  0
 11 10  1  0
 11 13  1  0
 12 11  2  0
 14 13  1  6
 14 15  1  0
 15  8  1  0
 16 14  1  0
 16 18  1  0
 17 16  2  0
 19 18  1  0
 19 30  1  0
 19 20  1  6
 21 20  1  0
 21 29  1  0
 22 21  2  0
 23 22  1  0
 23 24  1  0
 24 25  1  0
 24 29  2  0
 25 26  2  0
 26 27  1  0
 28 27  2  0
 29 28  1  0
 30 31  2  0
 30 32  1  0
M  END
$$$$
