QNW.pdb
     RDKit          3D

 32 33  0  0  1  0  0  0  0  0999 V2000
    6.6784  -12.7447   18.0817 N   0  0  0  0  0  0  0  0  0  0  0  0
    7.6671  -13.2612   17.2252 C   0  0  0  0  0  0  0  0  0  0  0  0
    7.5199  -13.1437   15.9809 O   0  0  0  0  0  0  0  0  0  0  0  0
    8.8509  -13.9265   17.7791 C   0  0  0  0  0  0  0  0  0  0  0  0
    8.6861  -14.2143   19.2663 C   0  0  0  0  0  0  0  0  0  0  0  0
   10.0477  -14.6735   19.7907 C   0  0  2  0  0  0  0  0  0  0  0  0
   10.6560  -15.4423   18.7317 N   0  0  0  0  0  0  0  0  0  0  0  0
    9.8300  -15.5567   20.9518 C   0  0  0  0  0  0  0  0  0  0  0  0
    9.0587  -15.1087   21.8666 O   0  0  0  0  0  0  0  0  0  0  0  0
   11.2124  -20.2671   19.8769 N   0  0  0  0  0  0  0  0  0  0  0  0
   10.2702  -19.7640   20.8004 C   0  0  0  0  0  0  0  0  0  0  0  0
    9.0562  -19.9196   20.5137 O   0  0  0  0  0  0  0  0  0  0  0  0
   10.6499  -19.0816   22.0540 C   0  0  0  0  0  0  0  0  0  0  0  0
   10.0884  -17.6911   22.1791 C   0  0  2  0  0  0  0  0  0  0  0  0
   10.4330  -16.8306   21.0631 N   0  0  0  0  0  0  0  0  0  0  0  0
   10.6009  -17.0746   23.4286 C   0  0  0  0  0  0  0  0  0  0  0  0
   11.7193  -16.5469   23.5010 O   0  0  0  0  0  0  0  0  0  0  0  0
    9.8187  -17.0564   24.6346 N   0  0  0  0  0  0  0  0  0  0  0  0
   10.2669  -16.4436   25.8537 C   0  0  1  0  0  0  0  0  0  0  0  0
    9.9913  -14.9802   25.9435 C   0  0  0  0  0  0  0  0  0  0  0  0
    8.5908  -14.5999   25.7699 C   0  0  0  0  0  0  0  0  0  0  0  0
    7.5690  -15.4667   25.4047 C   0  0  0  0  0  0  0  0  0  0  0  0
    6.3959  -14.8164   25.3313 N   0  0  0  0  0  0  0  0  0  0  0  0
    6.6305  -13.5163   25.6466 C   0  0  0  0  0  0  0  0  0  0  0  0
    5.8362  -12.3949   25.7399 C   0  0  0  0  0  0  0  0  0  0  0  0
    6.3395  -11.1441   26.0928 C   0  0  0  0  0  0  0  0  0  0  0  0
    7.6894  -11.0585   26.3526 C   0  0  0  0  0  0  0  0  0  0  0  0
    8.5222  -12.1469   26.2731 C   0  0  0  0  0  0  0  0  0  0  0  0
    7.9751  -13.3704   25.9181 C   0  0  0  0  0  0  0  0  0  0  0  0
    9.5297  -17.1489   26.9484 C   0  0  0  0  0  0  0  0  0  0  0  0
    8.6336  -17.9734   26.6245 O   0  0  0  0  0  0  0  0  0  0  0  0
    9.7700  -16.9527   28.2921 O   0  0  0  0  0  0  0  0  0  0  0  0
  1  2  1  0
  2  3  2  0
  2  4  1  0
  4  5  1  0
  6  5  1  0
  6  7  1  6
  8  9  2  0
  8  6  1  0
 11 10  1  0
 11 13  1  0
 12 11  2  0
 14 13  1  6
 14 15  1  0
 15  8  1  0
 16 14  1  0
 16 18  1  0
 17 16  2  0
 19 18  1  0
 19 30  1  0
 19 20  1  6
 21 20  1  0
 21 29  1  0
 22 21  2  0
 23 22  1  0
 23 24  1  0
 24 25  1  0
 24 29  2  0
 25 26  2  0
 26 27  1  0
 28 27  2  0
 29 28  1  0
 30 31  2  0
 30 32  1  0
M  END
$$$$
