SEF.pdb
     RDKit          3D

 27 27  0  0  1  0  0  0  0  0999 V2000
    8.4136  -12.1535   21.2265 O   0  0  0  0  0  0  0  0  0  0  0  0
    8.6671  -13.1314   20.2782 C   0  0  0  0  0  0  0  0  0  0  0  0
    7.5528  -14.1820   20.2490 C   0  0  2  0  0  0  0  0  0  0  0  0
    6.2734  -13.5453   20.2389 N   0  0  0  0  0  0  0  0  0  0  0  0
    7.7564  -15.0033   21.4970 C   0  0  0  0  0  0  0  0  0  0  0  0
    6.9210  -14.9260   22.4320 O   0  0  0  0  0  0  0  0  0  0  0  0
    8.9146  -15.8190   21.5038 N   0  0  0  0  0  0  0  0  0  0  0  0
    9.0773  -16.7763   22.6028 C   0  0  1  0  0  0  0  0  0  0  0  0
    9.9598  -17.8694   22.0927 C   0  0  0  0  0  0  0  0  0  0  0  0
   10.2182  -19.0073   23.0101 C   0  0  0  0  0  0  0  0  0  0  0  0
   11.1929  -19.9522   22.3317 C   0  0  0  0  0  0  0  0  0  0  0  0
   10.7190  -21.0033   21.8684 O   0  0  0  0  0  0  0  0  0  0  0  0
    9.5178  -16.0937   23.8191 C   0  0  0  0  0  0  0  0  0  0  0  0
   10.4804  -15.2450   23.8176 O   0  0  0  0  0  0  0  0  0  0  0  0
   12.5306  -19.6703   22.2296 O   0  0  0  0  0  0  0  0  0  0  0  0
    8.8710  -16.3571   25.0556 N   0  0  0  0  0  0  0  0  0  0  0  0
    9.4603  -15.7579   26.2669 C   0  0  1  0  0  0  0  0  0  0  0  0
    8.2660  -15.2618   27.0630 C   0  0  0  0  0  0  0  0  0  0  0  0
    7.8185  -13.9423   26.5643 C   0  0  0  0  0  0  0  0  0  0  0  0
    8.6182  -12.8200   26.6137 C   0  0  0  0  0  0  0  0  0  0  0  0
    8.1740  -11.5905   26.1300 C   0  0  0  0  0  0  0  0  0  0  0  0
    6.9180  -11.4439   25.5825 C   0  0  0  0  0  0  0  0  0  0  0  0
    6.1081  -12.5578   25.5271 C   0  0  0  0  0  0  0  0  0  0  0  0
    6.5475  -13.7725   26.0051 C   0  0  0  0  0  0  0  0  0  0  0  0
   10.2216  -16.7837   26.9936 C   0  0  0  0  0  0  0  0  0  0  0  0
   10.8399  -16.4942   28.0283 O   0  0  0  0  0  0  0  0  0  0  0  0
   10.2602  -18.0856   26.5366 O   0  0  0  0  0  0  0  0  0  0  0  0
  2  1  1  0
  3  2  1  0
  3  4  1  1
  5  3  1  0
  5  6  2  0
  7  5  1  0
  8  7  1  0
  8  9  1  6
 10  9  1  0
 10 11  1  0
 11 15  1  0
 12 11  2  0
 13  8  1  0
 14 13  2  0
 16 13  1  0
 17 16  1  0
 17 18  1  1
 18 19  1  0
 19 20  2  0
 20 21  1  0
 22 21  2  0
 23 22  1  0
 24 19  1  0
 24 23  2  0
 25 27  1  0
 25 17  1  0
 26 25  2  0
M  END
$$$$
