SEF.pdb
     RDKit          3D

 27 27  0  0  1  0  0  0  0  0999 V2000
    6.5314  -13.4199   21.8729 O   0  0  0  0  0  0  0  0  0  0  0  0
    7.3393  -13.5555   20.7555 C   0  0  0  0  0  0  0  0  0  0  0  0
    7.3279  -14.9943   20.2303 C   0  0  2  0  0  0  0  0  0  0  0  0
    6.0017  -15.3732   19.8559 N   0  0  0  0  0  0  0  0  0  0  0  0
    7.8450  -15.8320   21.3724 C   0  0  0  0  0  0  0  0  0  0  0  0
    7.0476  -16.5542   22.0209 O   0  0  0  0  0  0  0  0  0  0  0  0
    9.2356  -15.7256   21.6212 N   0  0  0  0  0  0  0  0  0  0  0  0
    9.8449  -16.6829   22.5502 C   0  0  1  0  0  0  0  0  0  0  0  0
   11.2112  -16.9820   22.0233 C   0  0  0  0  0  0  0  0  0  0  0  0
   12.0311  -17.9502   22.7936 C   0  0  0  0  0  0  0  0  0  0  0  0
   13.3341  -18.1687   22.0470 C   0  0  0  0  0  0  0  0  0  0  0  0
   13.3595  -19.1078   21.2336 O   0  0  0  0  0  0  0  0  0  0  0  0
    9.7676  -16.1873   23.9242 C   0  0  0  0  0  0  0  0  0  0  0  0
   10.3125  -15.0830   24.2854 O   0  0  0  0  0  0  0  0  0  0  0  0
   14.4338  -17.3761   22.2516 O   0  0  0  0  0  0  0  0  0  0  0  0
    9.0667  -16.9318   24.9097 N   0  0  0  0  0  0  0  0  0  0  0  0
    9.0899  -16.4143   26.2899 C   0  0  1  0  0  0  0  0  0  0  0  0
    7.6399  -16.0793   26.5928 C   0  0  0  0  0  0  0  0  0  0  0  0
    7.3740  -14.6444   26.3477 C   0  0  0  0  0  0  0  0  0  0  0  0
    6.5163  -14.2064   25.3608 C   0  0  0  0  0  0  0  0  0  0  0  0
    6.2784  -12.8483   25.1562 C   0  0  0  0  0  0  0  0  0  0  0  0
    6.8898  -11.8861   25.9302 C   0  0  0  0  0  0  0  0  0  0  0  0
    7.7500  -12.3101   26.9202 C   0  0  0  0  0  0  0  0  0  0  0  0
    7.9846  -13.6521   27.1221 C   0  0  0  0  0  0  0  0  0  0  0  0
    9.6167  -17.4519   27.1875 C   0  0  0  0  0  0  0  0  0  0  0  0
    9.6384  -18.6397   26.8331 O   0  0  0  0  0  0  0  0  0  0  0  0
   10.0961  -17.1213   28.4389 O   0  0  0  0  0  0  0  0  0  0  0  0
  2  1  1  0
  3  2  1  0
  3  4  1  1
  5  3  1  0
  5  6  2  0
  7  5  1  0
  8  7  1  0
  8  9  1  6
 10  9  1  0
 10 11  1  0
 11 15  1  0
 12 11  2  0
 13  8  1  0
 14 13  2  0
 16 13  1  0
 17 16  1  0
 17 18  1  1
 18 19  1  0
 19 20  2  0
 20 21  1  0
 22 21  2  0
 23 22  1  0
 24 19  1  0
 24 23  2  0
 25 27  1  0
 25 17  1  0
 26 25  2  0
M  END
$$$$
