SEF.pdb
     RDKit          3D

 27 27  0  0  1  0  0  0  0  0999 V2000
    7.5481  -14.5810   19.4165 O   0  0  0  0  0  0  0  0  0  0  0  0
    8.4553  -15.2689   18.6267 C   0  0  0  0  0  0  0  0  0  0  0  0
    8.2696  -16.7839   18.7547 C   0  0  2  0  0  0  0  0  0  0  0  0
    6.9319  -17.1489   18.4085 N   0  0  0  0  0  0  0  0  0  0  0  0
    8.5762  -17.0954   20.1978 C   0  0  0  0  0  0  0  0  0  0  0  0
    7.6323  -17.3025   21.0003 O   0  0  0  0  0  0  0  0  0  0  0  0
    9.9525  -17.1277   20.5318 N   0  0  0  0  0  0  0  0  0  0  0  0
   10.3184  -17.4347   21.9184 C   0  0  1  0  0  0  0  0  0  0  0  0
   11.7407  -17.8933   21.8955 C   0  0  0  0  0  0  0  0  0  0  0  0
   12.3776  -18.1728   23.2068 C   0  0  0  0  0  0  0  0  0  0  0  0
   13.8130  -18.5971   22.9566 C   0  0  0  0  0  0  0  0  0  0  0  0
   14.6843  -17.7212   23.0899 O   0  0  0  0  0  0  0  0  0  0  0  0
   10.0092  -16.3050   22.7946 C   0  0  0  0  0  0  0  0  0  0  0  0
   10.3247  -15.0983   22.4929 O   0  0  0  0  0  0  0  0  0  0  0  0
   14.1431  -19.8793   22.6011 O   0  0  0  0  0  0  0  0  0  0  0  0
    9.3324  -16.5236   24.0238 N   0  0  0  0  0  0  0  0  0  0  0  0
    9.0995  -15.3493   24.8842 C   0  0  1  0  0  0  0  0  0  0  0  0
    7.7782  -14.7800   24.3979 C   0  0  0  0  0  0  0  0  0  0  0  0
    7.3369  -13.6687   25.2696 C   0  0  0  0  0  0  0  0  0  0  0  0
    6.2760  -13.7864   26.1426 C   0  0  0  0  0  0  0  0  0  0  0  0
    5.8858  -12.7252   26.9579 C   0  0  0  0  0  0  0  0  0  0  0  0
    6.5425  -11.5143   26.9263 C   0  0  0  0  0  0  0  0  0  0  0  0
    7.6047  -11.3829   26.0579 C   0  0  0  0  0  0  0  0  0  0  0  0
    7.9900  -12.4316   25.2526 C   0  0  0  0  0  0  0  0  0  0  0  0
    9.0321  -15.7824   26.2870 C   0  0  0  0  0  0  0  0  0  0  0  0
    9.2607  -14.9815   27.2052 O   0  0  0  0  0  0  0  0  0  0  0  0
    8.7127  -17.0870   26.6051 O   0  0  0  0  0  0  0  0  0  0  0  0
  2  1  1  0
  3  2  1  0
  3  4  1  1
  5  3  1  0
  5  6  2  0
  7  5  1  0
  8  7  1  0
  8  9  1  6
 10  9  1  0
 10 11  1  0
 11 15  1  0
 12 11  2  0
 13  8  1  0
 14 13  2  0
 16 13  1  0
 17 16  1  0
 17 18  1  6
 18 19  1  0
 19 20  2  0
 20 21  1  0
 22 21  2  0
 23 22  1  0
 24 19  1  0
 24 23  2  0
 25 27  1  0
 25 17  1  0
 26 25  2  0
M  END
$$$$
