SEF.pdb
     RDKit          3D

 27 27  0  0  1  0  0  0  0  0999 V2000
    9.8960  -12.4134   19.7769 O   0  0  0  0  0  0  0  0  0  0  0  0
    9.8627  -13.4293   18.8353 C   0  0  0  0  0  0  0  0  0  0  0  0
    8.4632  -14.0422   18.7256 C   0  0  2  0  0  0  0  0  0  0  0  0
    7.4965  -13.0228   18.4628 N   0  0  0  0  0  0  0  0  0  0  0  0
    8.2222  -14.7086   20.0564 C   0  0  0  0  0  0  0  0  0  0  0  0
    7.4766  -14.1529   20.9009 O   0  0  0  0  0  0  0  0  0  0  0  0
    8.8828  -15.9479   20.2423 N   0  0  0  0  0  0  0  0  0  0  0  0
    8.6657  -16.6625   21.5045 C   0  0  1  0  0  0  0  0  0  0  0  0
    8.9252  -18.1084   21.2292 C   0  0  0  0  0  0  0  0  0  0  0  0
   10.2528  -18.4568   20.6639 C   0  0  0  0  0  0  0  0  0  0  0  0
   10.2448  -19.9319   20.3077 C   0  0  0  0  0  0  0  0  0  0  0  0
   11.2834  -20.3882   19.8004 O   0  0  0  0  0  0  0  0  0  0  0  0
    9.4433  -16.0517   22.5822 C   0  0  0  0  0  0  0  0  0  0  0  0
   10.6183  -15.5722   22.3918 O   0  0  0  0  0  0  0  0  0  0  0  0
    9.1526  -20.7301   20.5298 O   0  0  0  0  0  0  0  0  0  0  0  0
    8.9001  -15.9691   23.8917 N   0  0  0  0  0  0  0  0  0  0  0  0
    9.7893  -15.4820   24.9620 C   0  0  1  0  0  0  0  0  0  0  0  0
    9.6250  -13.9725   24.9327 C   0  0  0  0  0  0  0  0  0  0  0  0
    8.3358  -13.5764   25.5418 C   0  0  0  0  0  0  0  0  0  0  0  0
    7.1543  -14.2345   25.2725 C   0  0  0  0  0  0  0  0  0  0  0  0
    5.9548  -13.8447   25.8659 C   0  0  0  0  0  0  0  0  0  0  0  0
    5.8982  -12.7860   26.7461 C   0  0  0  0  0  0  0  0  0  0  0  0
    7.0719  -12.1192   27.0241 C   0  0  0  0  0  0  0  0  0  0  0  0
    8.2569  -12.5047   26.4376 C   0  0  0  0  0  0  0  0  0  0  0  0
    9.3646  -16.0596   26.2449 C   0  0  0  0  0  0  0  0  0  0  0  0
    9.9427  -15.7503   27.2970 O   0  0  0  0  0  0  0  0  0  0  0  0
    8.3155  -16.9549   26.2996 O   0  0  0  0  0  0  0  0  0  0  0  0
  2  1  1  0
  3  2  1  0
  3  4  1  1
  5  3  1  0
  5  6  2  0
  7  5  1  0
  8  7  1  0
  8  9  1  6
 10  9  1  0
 10 11  1  0
 11 15  1  0
 12 11  2  0
 13  8  1  0
 14 13  2  0
 16 13  1  0
 17 16  1  0
 17 18  1  1
 18 19  1  0
 19 20  2  0
 20 21  1  0
 22 21  2  0
 23 22  1  0
 24 19  1  0
 24 23  2  0
 25 27  1  0
 25 17  1  0
 26 25  2  0
M  END
$$$$
