SEF.pdb
     RDKit          3D

 27 27  0  0  1  0  0  0  0  0999 V2000
    9.8609  -12.3832   20.5204 O   0  0  0  0  0  0  0  0  0  0  0  0
    9.6521  -13.2918   19.4954 C   0  0  0  0  0  0  0  0  0  0  0  0
    8.1778  -13.6964   19.4007 C   0  0  2  0  0  0  0  0  0  0  0  0
    7.3530  -12.5351   19.2842 N   0  0  0  0  0  0  0  0  0  0  0  0
    7.8971  -14.4536   20.6740 C   0  0  0  0  0  0  0  0  0  0  0  0
    7.2249  -13.9070   21.5837 O   0  0  0  0  0  0  0  0  0  0  0  0
    8.4365  -15.7622   20.7327 N   0  0  0  0  0  0  0  0  0  0  0  0
    8.0351  -16.6239   21.8495 C   0  0  1  0  0  0  0  0  0  0  0  0
    8.2346  -18.0341   21.3966 C   0  0  0  0  0  0  0  0  0  0  0  0
    7.9339  -19.1044   22.3801 C   0  0  0  0  0  0  0  0  0  0  0  0
    8.1685  -20.4453   21.7092 C   0  0  0  0  0  0  0  0  0  0  0  0
    9.2821  -20.6193   21.1859 O   0  0  0  0  0  0  0  0  0  0  0  0
    8.7226  -16.2279   23.0782 C   0  0  0  0  0  0  0  0  0  0  0  0
    9.9133  -15.7492   23.0727 O   0  0  0  0  0  0  0  0  0  0  0  0
    7.2075  -21.4224   21.6761 O   0  0  0  0  0  0  0  0  0  0  0  0
    8.0702  -16.3621   24.3324 N   0  0  0  0  0  0  0  0  0  0  0  0
    8.8340  -15.9823   25.5348 C   0  0  1  0  0  0  0  0  0  0  0  0
    7.7720  -15.6509   26.5686 C   0  0  0  0  0  0  0  0  0  0  0  0
    7.3272  -14.2466   26.4275 C   0  0  0  0  0  0  0  0  0  0  0  0
    6.0015  -13.8998   26.2729 C   0  0  0  0  0  0  0  0  0  0  0  0
    5.6093  -12.5680   26.1492 C   0  0  0  0  0  0  0  0  0  0  0  0
    6.5285  -11.5418   26.1758 C   0  0  0  0  0  0  0  0  0  0  0  0
    7.8572  -11.8744   26.3295 C   0  0  0  0  0  0  0  0  0  0  0  0
    8.2442  -13.1904   26.4518 C   0  0  0  0  0  0  0  0  0  0  0  0
    9.6765  -17.1124   25.9506 C   0  0  0  0  0  0  0  0  0  0  0  0
    9.5243  -18.2323   25.4413 O   0  0  0  0  0  0  0  0  0  0  0  0
   10.6509  -16.9455   26.9139 O   0  0  0  0  0  0  0  0  0  0  0  0
  2  1  1  0
  3  2  1  0
  3  4  1  1
  5  3  1  0
  5  6  2  0
  7  5  1  0
  8  7  1  0
  8  9  1  6
 10  9  1  0
 10 11  1  0
 11 15  1  0
 12 11  2  0
 13  8  1  0
 14 13  2  0
 16 13  1  0
 17 16  1  0
 17 18  1  1
 18 19  1  0
 19 20  2  0
 20 21  1  0
 22 21  2  0
 23 22  1  0
 24 19  1  0
 24 23  2  0
 25 27  1  0
 25 17  1  0
 26 25  2  0
M  END
$$$$
