SEF.pdb
     RDKit          3D

 27 27  0  0  1  0  0  0  0  0999 V2000
   10.1239  -12.8208   19.8960 O   0  0  0  0  0  0  0  0  0  0  0  0
    9.8334  -13.8071   18.9673 C   0  0  0  0  0  0  0  0  0  0  0  0
    8.3516  -14.1929   19.0085 C   0  0  2  0  0  0  0  0  0  0  0  0
    7.5339  -13.0307   18.8565 N   0  0  0  0  0  0  0  0  0  0  0  0
    8.1533  -14.8413   20.3553 C   0  0  0  0  0  0  0  0  0  0  0  0
    7.6147  -14.1881   21.2834 O   0  0  0  0  0  0  0  0  0  0  0  0
    8.6091  -16.1786   20.4574 N   0  0  0  0  0  0  0  0  0  0  0  0
    8.4794  -16.8543   21.7526 C   0  0  1  0  0  0  0  0  0  0  0  0
    8.6863  -18.3125   21.4985 C   0  0  0  0  0  0  0  0  0  0  0  0
    8.6994  -19.2057   22.6840 C   0  0  0  0  0  0  0  0  0  0  0  0
    8.9898  -20.6181   22.2111 C   0  0  0  0  0  0  0  0  0  0  0  0
    8.0369  -21.4157   22.2202 O   0  0  0  0  0  0  0  0  0  0  0  0
    9.3535  -16.2330   22.7471 C   0  0  0  0  0  0  0  0  0  0  0  0
   10.5680  -15.9111   22.4856 O   0  0  0  0  0  0  0  0  0  0  0  0
   10.2365  -21.0055   21.7929 O   0  0  0  0  0  0  0  0  0  0  0  0
    8.8642  -15.9608   24.0522 N   0  0  0  0  0  0  0  0  0  0  0  0
    9.8423  -15.5131   25.0602 C   0  0  1  0  0  0  0  0  0  0  0  0
    9.7584  -13.9972   25.0217 C   0  0  0  0  0  0  0  0  0  0  0  0
    8.4886  -13.5298   25.6208 C   0  0  0  0  0  0  0  0  0  0  0  0
    7.2611  -13.7716   25.0410 C   0  0  0  0  0  0  0  0  0  0  0  0
    6.0794  -13.3258   25.6308 C   0  0  0  0  0  0  0  0  0  0  0  0
    6.0872  -12.6250   26.8172 C   0  0  0  0  0  0  0  0  0  0  0  0
    7.3076  -12.3762   27.4075 C   0  0  0  0  0  0  0  0  0  0  0  0
    8.4748  -12.8169   26.8244 C   0  0  0  0  0  0  0  0  0  0  0  0
    9.4665  -16.0543   26.3739 C   0  0  0  0  0  0  0  0  0  0  0  0
   10.1095  -15.7482   27.3886 O   0  0  0  0  0  0  0  0  0  0  0  0
    8.3918  -16.9114   26.4995 O   0  0  0  0  0  0  0  0  0  0  0  0
  2  1  1  0
  3  2  1  0
  3  4  1  1
  5  3  1  0
  5  6  2  0
  7  5  1  0
  8  7  1  0
  8  9  1  6
 10  9  1  0
 10 11  1  0
 11 15  1  0
 12 11  2  0
 13  8  1  0
 14 13  2  0
 16 13  1  0
 17 16  1  0
 17 18  1  1
 18 19  1  0
 19 20  2  0
 20 21  1  0
 22 21  2  0
 23 22  1  0
 24 19  1  0
 24 23  2  0
 25 27  1  0
 25 17  1  0
 26 25  2  0
M  END
$$$$
