MMT.pdb
     RDKit          3D

 24 23  0  0  1  0  0  0  0  0999 V2000
    8.6781  -11.3602   19.9825 C   0  0  0  0  0  0  0  0  0  0  0  0
    8.0087  -12.2348   18.5624 S   0  0  0  0  0  0  0  0  0  0  0  0
    8.2413  -14.0283   18.8106 C   0  0  0  0  0  0  0  0  0  0  0  0
    7.9266  -14.3372   20.2486 C   0  0  0  0  0  0  0  0  0  0  0  0
    8.4555  -15.6670   20.7215 C   0  0  2  0  0  0  0  0  0  0  0  0
    7.2941  -16.5677   20.7147 N   0  0  0  0  0  0  0  0  0  0  0  0
    8.8323  -15.5350   22.1569 C   0  0  0  0  0  0  0  0  0  0  0  0
   10.0725  -15.3464   22.3922 O   0  0  0  0  0  0  0  0  0  0  0  0
    6.3386  -11.3632   26.2889 C   0  0  0  0  0  0  0  0  0  0  0  0
    6.7519  -12.6985   27.3996 S   0  0  0  0  0  0  0  0  0  0  0  0
    7.7018  -14.0059   26.6682 C   0  0  0  0  0  0  0  0  0  0  0  0
    7.4727  -14.3468   25.2535 C   0  0  0  0  0  0  0  0  0  0  0  0
    8.2909  -15.3705   24.5736 C   0  0  2  0  0  0  0  0  0  0  0  0
    7.8926  -15.6103   23.2161 N   0  0  0  0  0  0  0  0  0  0  0  0
    8.6202  -16.5786   25.3335 C   0  0  0  0  0  0  0  0  0  0  0  0
    7.7774  -17.4636   25.6487 O   0  0  0  0  0  0  0  0  0  0  0  0
   12.0422  -19.8432   26.4472 C   0  0  0  0  0  0  0  0  0  0  0  0
   11.4952  -18.6202   25.7494 C   0  0  1  0  0  0  0  0  0  0  0  0
   11.2331  -18.9564   24.4323 O   0  0  0  0  0  0  0  0  0  0  0  0
   10.2925  -18.0519   26.4673 C   0  0  2  0  0  0  0  0  0  0  0  0
    9.9480  -16.8115   25.7605 N   0  0  0  0  0  0  0  0  0  0  0  0
   10.6194  -17.7888   27.8752 C   0  0  0  0  0  0  0  0  0  0  0  0
   10.6648  -18.7920   28.8417 O   0  0  0  0  0  0  0  0  0  0  0  0
   10.8656  -16.5965   28.1978 O   0  0  0  0  0  0  0  0  0  0  0  0
  1  2  1  0
  3  2  1  0
  4  3  1  0
  5  4  1  0
  5  6  1  1
  7  8  2  0
  7  5  1  0
  9 10  1  0
 10 11  1  0
 11 12  1  0
 13 12  1  1
 13 14  1  0
 14  7  1  0
 15 21  1  0
 15 13  1  0
 16 15  2  0
 18 17  1  1
 18 20  1  0
 19 18  1  0
 20 21  1  6
 20 22  1  0
 22 23  1  0
 24 22  2  0
M  END
$$$$
