MMT.pdb
     RDKit          3D

 24 23  0  0  1  0  0  0  0  0999 V2000
    8.1677  -11.7014   19.3103 C   0  0  0  0  0  0  0  0  0  0  0  0
    7.6909  -12.9198   18.0783 S   0  0  0  0  0  0  0  0  0  0  0  0
    7.8312  -14.5859   18.8109 C   0  0  0  0  0  0  0  0  0  0  0  0
    8.7594  -14.4918   19.9906 C   0  0  0  0  0  0  0  0  0  0  0  0
    8.9685  -15.7976   20.7139 C   0  0  2  0  0  0  0  0  0  0  0  0
    7.6964  -16.5210   20.5777 N   0  0  0  0  0  0  0  0  0  0  0  0
    9.0936  -15.5090   22.1702 C   0  0  0  0  0  0  0  0  0  0  0  0
   10.2516  -15.1504   22.5696 O   0  0  0  0  0  0  0  0  0  0  0  0
    6.9600  -11.5479   28.2818 C   0  0  0  0  0  0  0  0  0  0  0  0
    6.3289  -12.4605   26.8830 S   0  0  0  0  0  0  0  0  0  0  0  0
    7.3320  -13.8338   26.3784 C   0  0  0  0  0  0  0  0  0  0  0  0
    7.2932  -14.2641   24.9700 C   0  0  0  0  0  0  0  0  0  0  0  0
    8.1862  -15.3298   24.4735 C   0  0  2  0  0  0  0  0  0  0  0  0
    8.0105  -15.6178   23.0788 N   0  0  0  0  0  0  0  0  0  0  0  0
    8.3560  -16.5115   25.3221 C   0  0  0  0  0  0  0  0  0  0  0  0
    7.4030  -17.2420   25.7107 O   0  0  0  0  0  0  0  0  0  0  0  0
   10.0938  -19.4855   24.5563 C   0  0  0  0  0  0  0  0  0  0  0  0
   10.7247  -19.0166   25.8463 C   0  0  1  0  0  0  0  0  0  0  0  0
   11.9547  -18.4570   25.5462 O   0  0  0  0  0  0  0  0  0  0  0  0
    9.8170  -18.0797   26.6100 C   0  0  2  0  0  0  0  0  0  0  0  0
    9.6453  -16.8971   25.7564 N   0  0  0  0  0  0  0  0  0  0  0  0
   10.4254  -17.7220   27.8986 C   0  0  0  0  0  0  0  0  0  0  0  0
   10.6184  -18.6439   28.9261 O   0  0  0  0  0  0  0  0  0  0  0  0
   10.7796  -16.5239   28.0572 O   0  0  0  0  0  0  0  0  0  0  0  0
  1  2  1  0
  3  2  1  0
  4  3  1  0
  5  4  1  0
  5  6  1  1
  7  8  2  0
  7  5  1  0
  9 10  1  0
 10 11  1  0
 11 12  1  0
 13 12  1  1
 13 14  1  0
 14  7  1  0
 15 21  1  0
 15 13  1  0
 16 15  2  0
 18 17  1  6
 18 20  1  0
 19 18  1  0
 20 21  1  6
 20 22  1  0
 22 23  1  0
 24 22  2  0
M  END
$$$$
