MMT.pdb
     RDKit          3D

 24 23  0  0  1  0  0  0  0  0999 V2000
    8.5464  -11.3082   20.4866 C   0  0  0  0  0  0  0  0  0  0  0  0
    7.7572  -12.3031   19.2149 S   0  0  0  0  0  0  0  0  0  0  0  0
    7.5241  -13.9980   19.8516 C   0  0  0  0  0  0  0  0  0  0  0  0
    8.6834  -14.3115   20.7572 C   0  0  0  0  0  0  0  0  0  0  0  0
    8.6915  -15.7259   21.2780 C   0  0  2  0  0  0  0  0  0  0  0  0
    7.3084  -16.1996   21.1270 N   0  0  0  0  0  0  0  0  0  0  0  0
    8.9246  -15.6798   22.7487 C   0  0  0  0  0  0  0  0  0  0  0  0
   10.0954  -15.3288   23.1165 O   0  0  0  0  0  0  0  0  0  0  0  0
    6.5040  -10.8130   26.2104 C   0  0  0  0  0  0  0  0  0  0  0  0
    6.3942  -12.5459   26.6261 S   0  0  0  0  0  0  0  0  0  0  0  0
    7.3438  -13.6215   25.5830 C   0  0  0  0  0  0  0  0  0  0  0  0
    7.3630  -15.0647   25.8781 C   0  0  0  0  0  0  0  0  0  0  0  0
    8.2185  -15.9891   25.1080 C   0  0  2  0  0  0  0  0  0  0  0  0
    7.9264  -16.0007   23.7032 N   0  0  0  0  0  0  0  0  0  0  0  0
    8.4695  -17.3105   25.6881 C   0  0  0  0  0  0  0  0  0  0  0  0
    7.5583  -18.1176   26.0216 O   0  0  0  0  0  0  0  0  0  0  0  0
   10.1672  -20.1265   24.2419 C   0  0  0  0  0  0  0  0  0  0  0  0
   10.9108  -19.8196   25.5205 C   0  0  1  0  0  0  0  0  0  0  0  0
   12.0740  -19.1450   25.1914 O   0  0  0  0  0  0  0  0  0  0  0  0
   10.0481  -19.0679   26.5081 C   0  0  2  0  0  0  0  0  0  0  0  0
    9.7950  -17.7527   25.9056 N   0  0  0  0  0  0  0  0  0  0  0  0
   10.7451  -18.9382   27.7949 C   0  0  0  0  0  0  0  0  0  0  0  0
   11.0485  -20.0314   28.6046 O   0  0  0  0  0  0  0  0  0  0  0  0
   11.0722  -17.7781   28.1602 O   0  0  0  0  0  0  0  0  0  0  0  0
  1  2  1  0
  3  2  1  0
  4  3  1  0
  5  4  1  0
  5  6  1  1
  7  8  2  0
  7  5  1  0
  9 10  1  0
 10 11  1  0
 11 12  1  0
 13 12  1  1
 13 14  1  0
 14  7  1  0
 15 21  1  0
 15 13  1  0
 16 15  2  0
 18 17  1  6
 18 20  1  0
 19 18  1  0
 20 21  1  6
 20 22  1  0
 22 23  1  0
 24 22  2  0
M  END
$$$$
