MMT.pdb
     RDKit          3D

 24 23  0  0  1  0  0  0  0  0999 V2000
    7.5633  -19.9940   20.9605 C   0  0  0  0  0  0  0  0  0  0  0  0
    7.9293  -19.5296   19.2634 S   0  0  0  0  0  0  0  0  0  0  0  0
    8.6187  -17.8393   19.2498 C   0  0  0  0  0  0  0  0  0  0  0  0
    8.3569  -17.2261   20.5980 C   0  0  0  0  0  0  0  0  0  0  0  0
    8.8001  -15.7903   20.7167 C   0  0  2  0  0  0  0  0  0  0  0  0
   10.1020  -15.7320   20.0371 N   0  0  0  0  0  0  0  0  0  0  0  0
    9.1004  -15.5120   22.1491 C   0  0  0  0  0  0  0  0  0  0  0  0
   10.2856  -15.7886   22.5338 O   0  0  0  0  0  0  0  0  0  0  0  0
    5.3720  -11.7700   26.7591 C   0  0  0  0  0  0  0  0  0  0  0  0
    7.1243  -11.8326   27.0957 S   0  0  0  0  0  0  0  0  0  0  0  0
    7.9540  -13.2614   26.4501 C   0  0  0  0  0  0  0  0  0  0  0  0
    7.8095  -13.5828   25.0197 C   0  0  0  0  0  0  0  0  0  0  0  0
    8.4785  -14.7600   24.4313 C   0  0  2  0  0  0  0  0  0  0  0  0
    8.1482  -14.9738   23.0514 N   0  0  0  0  0  0  0  0  0  0  0  0
    8.5248  -15.9793   25.2417 C   0  0  0  0  0  0  0  0  0  0  0  0
    7.5037  -16.6411   25.5769 O   0  0  0  0  0  0  0  0  0  0  0  0
    9.9338  -19.0997   24.4949 C   0  0  0  0  0  0  0  0  0  0  0  0
   10.6089  -18.7077   25.7881 C   0  0  1  0  0  0  0  0  0  0  0  0
   11.8945  -18.2875   25.4932 O   0  0  0  0  0  0  0  0  0  0  0  0
    9.8088  -17.6781   26.5526 C   0  0  2  0  0  0  0  0  0  0  0  0
    9.7642  -16.4843   25.6984 N   0  0  0  0  0  0  0  0  0  0  0  0
   10.4543  -17.3873   27.8399 C   0  0  0  0  0  0  0  0  0  0  0  0
   10.5582  -18.3275   28.8637 O   0  0  0  0  0  0  0  0  0  0  0  0
   10.9264  -16.2309   28.0011 O   0  0  0  0  0  0  0  0  0  0  0  0
  1  2  1  0
  3  2  1  0
  4  3  1  0
  5  4  1  0
  5  6  1  6
  7  8  2  0
  7  5  1  0
  9 10  1  0
 10 11  1  0
 11 12  1  0
 13 12  1  1
 13 14  1  0
 14  7  1  0
 15 21  1  0
 15 13  1  0
 16 15  2  0
 18 17  1  6
 18 20  1  0
 19 18  1  0
 20 21  1  6
 20 22  1  0
 22 23  1  0
 24 22  2  0
M  END
$$$$
