MMT.pdb
     RDKit          3D

 24 23  0  0  1  0  0  0  0  0999 V2000
    8.7125  -11.4837   20.0242 C   0  0  0  0  0  0  0  0  0  0  0  0
    7.5364  -12.5452   19.1758 S   0  0  0  0  0  0  0  0  0  0  0  0
    8.2190  -14.2363   19.0955 C   0  0  0  0  0  0  0  0  0  0  0  0
    9.0302  -14.4635   20.3415 C   0  0  0  0  0  0  0  0  0  0  0  0
    8.7694  -15.7882   21.0117 C   0  0  2  0  0  0  0  0  0  0  0  0
    7.3391  -16.0516   20.8000 N   0  0  0  0  0  0  0  0  0  0  0  0
    8.9134  -15.6026   22.4829 C   0  0  0  0  0  0  0  0  0  0  0  0
   10.1091  -15.4947   22.9164 O   0  0  0  0  0  0  0  0  0  0  0  0
    6.5609  -11.1135   26.5175 C   0  0  0  0  0  0  0  0  0  0  0  0
    6.3031  -12.6257   27.4310 S   0  0  0  0  0  0  0  0  0  0  0  0
    7.1940  -14.0288   26.8112 C   0  0  0  0  0  0  0  0  0  0  0  0
    7.1949  -14.2877   25.3609 C   0  0  0  0  0  0  0  0  0  0  0  0
    8.0041  -15.3780   24.7814 C   0  0  2  0  0  0  0  0  0  0  0  0
    7.8087  -15.5457   23.3698 N   0  0  0  0  0  0  0  0  0  0  0  0
    8.0817  -16.6300   25.5378 C   0  0  0  0  0  0  0  0  0  0  0  0
    7.0738  -17.2580   25.9652 O   0  0  0  0  0  0  0  0  0  0  0  0
    9.2210  -19.8239   24.5340 C   0  0  0  0  0  0  0  0  0  0  0  0
   10.0854  -19.4659   25.7200 C   0  0  1  0  0  0  0  0  0  0  0  0
   11.3175  -19.0497   25.2456 O   0  0  0  0  0  0  0  0  0  0  0  0
    9.4195  -18.4467   26.6160 C   0  0  2  0  0  0  0  0  0  0  0  0
    9.3384  -17.2086   25.8303 N   0  0  0  0  0  0  0  0  0  0  0  0
   10.2116  -18.2506   27.8377 C   0  0  0  0  0  0  0  0  0  0  0  0
   10.3524  -19.2351   28.8144 O   0  0  0  0  0  0  0  0  0  0  0  0
   10.7785  -17.1357   27.9857 O   0  0  0  0  0  0  0  0  0  0  0  0
  1  2  1  0
  3  2  1  0
  4  3  1  0
  5  4  1  0
  5  6  1  1
  7  8  2  0
  7  5  1  0
  9 10  1  0
 10 11  1  0
 11 12  1  0
 13 12  1  1
 13 14  1  0
 14  7  1  0
 15 21  1  0
 15 13  1  0
 16 15  2  0
 18 17  1  6
 18 20  1  0
 19 18  1  0
 20 21  1  6
 20 22  1  0
 22 23  1  0
 24 22  2  0
M  END
$$$$
