MMT.pdb
     RDKit          3D

 24 23  0  0  1  0  0  0  0  0999 V2000
    6.8657  -11.7489   19.3363 C   0  0  0  0  0  0  0  0  0  0  0  0
    8.4153  -12.6559   19.4138 S   0  0  0  0  0  0  0  0  0  0  0  0
    8.1885  -14.1213   20.4784 C   0  0  0  0  0  0  0  0  0  0  0  0
    9.4744  -14.9015   20.4653 C   0  0  0  0  0  0  0  0  0  0  0  0
    9.4706  -16.1078   21.3690 C   0  0  2  0  0  0  0  0  0  0  0  0
    8.2676  -16.8650   20.9952 N   0  0  0  0  0  0  0  0  0  0  0  0
    9.2175  -15.6456   22.7624 C   0  0  0  0  0  0  0  0  0  0  0  0
   10.2071  -15.1017   23.3574 O   0  0  0  0  0  0  0  0  0  0  0  0
    7.8180  -11.4752   27.7456 C   0  0  0  0  0  0  0  0  0  0  0  0
    6.6375  -12.0152   26.5198 S   0  0  0  0  0  0  0  0  0  0  0  0
    6.5333  -13.7739   26.3132 C   0  0  0  0  0  0  0  0  0  0  0  0
    6.7840  -14.3503   24.9808 C   0  0  0  0  0  0  0  0  0  0  0  0
    7.7986  -15.4046   24.7847 C   0  0  2  0  0  0  0  0  0  0  0  0
    7.9652  -15.7881   23.4120 N   0  0  0  0  0  0  0  0  0  0  0  0
    7.7965  -16.5214   25.7324 C   0  0  0  0  0  0  0  0  0  0  0  0
    6.8495  -16.7662   26.5300 O   0  0  0  0  0  0  0  0  0  0  0  0
    7.8965  -20.0463   24.9648 C   0  0  0  0  0  0  0  0  0  0  0  0
    9.0852  -19.7776   25.8574 C   0  0  1  0  0  0  0  0  0  0  0  0
   10.2145  -19.7021   25.0603 O   0  0  0  0  0  0  0  0  0  0  0  0
    8.8807  -18.5495   26.7145 C   0  0  2  0  0  0  0  0  0  0  0  0
    8.8984  -17.4056   25.7936 N   0  0  0  0  0  0  0  0  0  0  0  0
    9.9521  -18.4442   27.7142 C   0  0  0  0  0  0  0  0  0  0  0  0
   10.1310  -19.3788   28.7328 O   0  0  0  0  0  0  0  0  0  0  0  0
   10.7297  -17.4575   27.6257 O   0  0  0  0  0  0  0  0  0  0  0  0
  1  2  1  0
  3  2  1  0
  4  3  1  0
  5  4  1  0
  5  6  1  6
  7  8  2  0
  7  5  1  0
  9 10  1  0
 10 11  1  0
 11 12  1  0
 13 12  1  6
 13 14  1  0
 14  7  1  0
 15 21  1  0
 15 13  1  0
 16 15  2  0
 18 17  1  6
 18 20  1  0
 19 18  1  0
 20 21  1  6
 20 22  1  0
 22 23  1  0
 24 22  2  0
M  END
$$$$
