MMT.pdb
     RDKit          3D

 24 23  0  0  1  0  0  0  0  0999 V2000
    8.2791  -11.2934   20.4417 C   0  0  0  0  0  0  0  0  0  0  0  0
    7.6352  -12.3841   19.1668 S   0  0  0  0  0  0  0  0  0  0  0  0
    7.7503  -14.1091   19.7527 C   0  0  0  0  0  0  0  0  0  0  0  0
    8.9516  -14.2091   20.6523 C   0  0  0  0  0  0  0  0  0  0  0  0
    9.1723  -15.5825   21.2327 C   0  0  2  0  0  0  0  0  0  0  0  0
    7.9218  -16.3125   20.9802 N   0  0  0  0  0  0  0  0  0  0  0  0
    9.2514  -15.4550   22.7149 C   0  0  0  0  0  0  0  0  0  0  0  0
   10.3036  -14.8940   23.1704 O   0  0  0  0  0  0  0  0  0  0  0  0
    6.7393  -10.8459   26.6609 C   0  0  0  0  0  0  0  0  0  0  0  0
    6.9955  -12.5916   26.9338 S   0  0  0  0  0  0  0  0  0  0  0  0
    6.9779  -13.5836   25.4634 C   0  0  0  0  0  0  0  0  0  0  0  0
    7.1560  -15.0409   25.5857 C   0  0  0  0  0  0  0  0  0  0  0  0
    8.3340  -15.7164   25.0064 C   0  0  2  0  0  0  0  0  0  0  0  0
    8.2361  -15.9190   23.5892 N   0  0  0  0  0  0  0  0  0  0  0  0
    8.8862  -16.8533   25.7467 C   0  0  0  0  0  0  0  0  0  0  0  0
    8.9023  -16.9324   27.0062 O   0  0  0  0  0  0  0  0  0  0  0  0
    8.7561  -20.6915   24.3081 C   0  0  0  0  0  0  0  0  0  0  0  0
   10.1082  -20.2223   24.7913 C   0  0  1  0  0  0  0  0  0  0  0  0
   10.8691  -19.8869   23.6846 O   0  0  0  0  0  0  0  0  0  0  0  0
    9.9897  -19.0967   25.7932 C   0  0  2  0  0  0  0  0  0  0  0  0
    9.4448  -17.9515   25.0527 N   0  0  0  0  0  0  0  0  0  0  0  0
   11.3071  -18.7837   26.3630 C   0  0  0  0  0  0  0  0  0  0  0  0
   12.0041  -19.6657   27.1871 O   0  0  0  0  0  0  0  0  0  0  0  0
   11.8074  -17.6631   26.0797 O   0  0  0  0  0  0  0  0  0  0  0  0
  1  2  1  0
  3  2  1  0
  4  3  1  0
  5  4  1  0
  5  6  1  1
  7  8  2  0
  7  5  1  0
  9 10  1  0
 10 11  1  0
 11 12  1  0
 13 12  1  1
 13 14  1  0
 14  7  1  0
 15 21  1  0
 15 13  1  0
 16 15  2  0
 18 17  1  6
 18 20  1  0
 19 18  1  0
 20 21  1  6
 20 22  1  0
 22 23  1  0
 24 22  2  0
M  END
$$$$
