MMT.pdb
     RDKit          3D

 24 23  0  0  1  0  0  0  0  0999 V2000
    8.0251  -12.3685   21.3063 C   0  0  0  0  0  0  0  0  0  0  0  0
    7.0158  -13.2749   20.1275 S   0  0  0  0  0  0  0  0  0  0  0  0
    7.6759  -14.9692   19.9656 C   0  0  0  0  0  0  0  0  0  0  0  0
    8.1876  -15.3932   21.3149 C   0  0  0  0  0  0  0  0  0  0  0  0
    9.6909  -15.4333   21.4173 C   0  0  2  0  0  0  0  0  0  0  0  0
   10.1122  -16.4888   20.4853 N   0  0  0  0  0  0  0  0  0  0  0  0
   10.0526  -15.9457   22.7687 C   0  0  0  0  0  0  0  0  0  0  0  0
   10.9373  -16.8653   22.7974 O   0  0  0  0  0  0  0  0  0  0  0  0
   10.1007  -11.9867   28.1446 C   0  0  0  0  0  0  0  0  0  0  0  0
   10.0365  -13.6357   28.8259 S   0  0  0  0  0  0  0  0  0  0  0  0
   10.2975  -14.9364   27.6483 C   0  0  0  0  0  0  0  0  0  0  0  0
    9.8167  -14.7539   26.2678 C   0  0  0  0  0  0  0  0  0  0  0  0
   10.0160  -15.8010   25.2463 C   0  0  2  0  0  0  0  0  0  0  0  0
    9.4666  -15.4604   23.9652 N   0  0  0  0  0  0  0  0  0  0  0  0
    9.7893  -17.1889   25.6560 C   0  0  0  0  0  0  0  0  0  0  0  0
    8.6475  -17.6824   25.8693 O   0  0  0  0  0  0  0  0  0  0  0  0
   10.8715  -20.3141   23.9496 C   0  0  0  0  0  0  0  0  0  0  0  0
   11.4485  -20.3261   25.3456 C   0  0  1  0  0  0  0  0  0  0  0  0
   12.7852  -19.9756   25.2627 O   0  0  0  0  0  0  0  0  0  0  0  0
   10.6615  -19.4453   26.2888 C   0  0  2  0  0  0  0  0  0  0  0  0
   10.8837  -18.0663   25.8351 N   0  0  0  0  0  0  0  0  0  0  0  0
   11.1298  -19.6334   27.6685 C   0  0  0  0  0  0  0  0  0  0  0  0
   11.8259  -18.6517   28.3718 O   0  0  0  0  0  0  0  0  0  0  0  0
   10.8791  -20.7386   28.2180 O   0  0  0  0  0  0  0  0  0  0  0  0
  1  2  1  0
  3  2  1  0
  4  3  1  0
  5  4  1  0
  5  6  1  6
  7  8  2  0
  7  5  1  0
  9 10  1  0
 10 11  1  0
 11 12  1  0
 13 12  1  1
 13 14  1  0
 14  7  1  0
 15 21  1  0
 15 13  1  0
 16 15  2  0
 18 17  1  6
 18 20  1  0
 19 18  1  0
 20 21  1  6
 20 22  1  0
 22 23  1  0
 24 22  2  0
M  END
$$$$
