GYQ.pdb
     RDKit          3D

 26 26  0  0  1  0  0  0  0  0999 V2000
   23.4488  -29.5591  -15.5818 N   0  0  0  0  0  0  0  0  0  0  0  0
   22.3362  -28.7406  -16.0221 C   0  0  0  0  0  0  0  0  0  0  0  0
   22.3969  -27.4119  -15.3518 C   0  0  0  0  0  0  0  0  0  0  0  0
   22.9749  -27.3020  -14.2400 O   0  0  0  0  0  0  0  0  0  0  0  0
   27.9874  -25.2881  -17.1148 O   0  0  0  0  0  0  0  0  0  0  0  0
   26.6504  -24.9576  -16.8674 C   0  0  0  0  0  0  0  0  0  0  0  0
   26.3776  -24.0482  -15.8700 C   0  0  0  0  0  0  0  0  0  0  0  0
   25.0457  -23.7457  -15.6538 C   0  0  0  0  0  0  0  0  0  0  0  0
   24.0252  -24.3109  -16.3843 C   0  0  0  0  0  0  0  0  0  0  0  0
   22.6246  -23.9717  -16.1332 C   0  0  0  0  0  0  0  0  0  0  0  0
   21.9110  -24.9575  -15.2498 C   0  0  2  0  0  0  0  0  0  0  0  0
   21.8259  -26.2431  -15.9133 N   0  0  0  0  0  0  0  0  0  0  0  0
   20.6028  -24.4794  -14.7721 C   0  0  0  0  0  0  0  0  0  0  0  0
   19.5977  -24.7065  -15.4927 O   0  0  0  0  0  0  0  0  0  0  0  0
   24.3355  -25.2164  -17.3738 C   0  0  0  0  0  0  0  0  0  0  0  0
   25.6665  -25.5442  -17.6187 C   0  0  0  0  0  0  0  0  0  0  0  0
   16.7751  -24.1459   -9.8667 N   0  0  0  0  0  0  0  0  0  0  0  0
   17.6143  -25.2112  -10.3264 C   0  0  0  0  0  0  0  0  0  0  0  0
   17.3715  -26.4342  -10.0210 O   0  0  0  0  0  0  0  0  0  0  0  0
   18.7972  -24.9710  -11.1798 C   0  0  0  0  0  0  0  0  0  0  0  0
   19.0169  -23.5632  -11.5992 C   0  0  0  0  0  0  0  0  0  0  0  0
   19.0742  -23.3596  -13.0645 C   0  0  2  0  0  0  0  0  0  0  0  0
   20.4003  -23.7846  -13.5625 N   0  0  0  0  0  0  0  0  0  0  0  0
   18.8374  -22.0358  -13.5731 C   0  0  0  0  0  0  0  0  0  0  0  0
   17.5666  -21.5061  -13.6962 O   0  0  0  0  0  0  0  0  0  0  0  0
   19.7834  -21.2958  -13.9424 O   0  0  0  0  0  0  0  0  0  0  0  0
  1  2  1  0
  2  3  1  0
  3  4  2  0
  6  7  2  0
  6  5  1  0
  8  7  1  0
  9  8  2  0
 11 10  1  6
 10  9  1  0
 12 11  1  0
 12  3  1  0
 13 11  1  0
 14 13  2  0
 15  9  1  0
 15 16  2  0
 16  6  1  0
 18 19  2  0
 18 17  1  0
 20 18  1  0
 21 20  1  0
 22 21  1  1
 22 23  1  0
 23 13  1  0
 24 25  1  0
 24 22  1  0
 26 24  2  0
M  END
$$$$
