GYQ.pdb
     RDKit          3D

 26 26  0  0  1  0  0  0  0  0999 V2000
   24.6373  -24.6246  -14.7534 N   0  0  0  0  0  0  0  0  0  0  0  0
   25.1609  -23.3005  -14.4802 C   0  0  0  0  0  0  0  0  0  0  0  0
   24.0340  -22.3574  -14.2378 C   0  0  0  0  0  0  0  0  0  0  0  0
   22.8497  -22.7486  -14.4002 O   0  0  0  0  0  0  0  0  0  0  0  0
   22.9761  -21.7144   -7.5104 O   0  0  0  0  0  0  0  0  0  0  0  0
   23.0740  -21.0823   -8.7550 C   0  0  0  0  0  0  0  0  0  0  0  0
   21.9185  -20.6180   -9.3429 C   0  0  0  0  0  0  0  0  0  0  0  0
   22.0533  -19.9990  -10.5720 C   0  0  0  0  0  0  0  0  0  0  0  0
   23.2692  -19.8421  -11.1977 C   0  0  0  0  0  0  0  0  0  0  0  0
   23.3816  -19.1827  -12.4987 C   0  0  0  0  0  0  0  0  0  0  0  0
   23.1239  -20.0958  -13.6655 C   0  0  2  0  0  0  0  0  0  0  0  0
   24.2317  -21.0163  -13.8256 N   0  0  0  0  0  0  0  0  0  0  0  0
   22.7976  -19.3808  -14.9107 C   0  0  0  0  0  0  0  0  0  0  0  0
   23.7514  -18.9212  -15.5890 O   0  0  0  0  0  0  0  0  0  0  0  0
   24.4035  -20.3188  -10.5803 C   0  0  0  0  0  0  0  0  0  0  0  0
   24.3044  -20.9476   -9.3418 C   0  0  0  0  0  0  0  0  0  0  0  0
   22.7475  -21.2886  -19.8667 N   0  0  0  0  0  0  0  0  0  0  0  0
   22.0514  -20.0820  -20.1983 C   0  0  0  0  0  0  0  0  0  0  0  0
   21.8785  -19.7226  -21.4185 O   0  0  0  0  0  0  0  0  0  0  0  0
   21.4876  -19.1876  -19.1652 C   0  0  0  0  0  0  0  0  0  0  0  0
   21.7796  -19.5607  -17.7575 C   0  0  0  0  0  0  0  0  0  0  0  0
   21.1775  -18.6633  -16.7456 C   0  0  2  0  0  0  0  0  0  0  0  0
   21.4894  -19.1765  -15.3941 N   0  0  0  0  0  0  0  0  0  0  0  0
   19.7574  -18.4438  -16.7958 C   0  0  0  0  0  0  0  0  0  0  0  0
   18.8683  -19.1693  -16.0252 O   0  0  0  0  0  0  0  0  0  0  0  0
   19.2533  -17.5810  -17.5575 O   0  0  0  0  0  0  0  0  0  0  0  0
  1  2  1  0
  2  3  1  0
  3  4  2  0
  6  7  2  0
  6  5  1  0
  8  7  1  0
  9  8  2  0
 11 10  1  1
 10  9  1  0
 12 11  1  0
 12  3  1  0
 13 11  1  0
 14 13  2  0
 15  9  1  0
 15 16  2  0
 16  6  1  0
 18 19  2  0
 18 17  1  0
 20 18  1  0
 21 20  1  0
 22 21  1  6
 22 23  1  0
 23 13  1  0
 24 25  1  0
 24 22  1  0
 26 24  2  0
M  END
$$$$
