GYQ.pdb
     RDKit          3D

 26 26  0  0  1  0  0  0  0  0999 V2000
   19.9974  -14.2557  -20.6005 N   0  0  0  0  0  0  0  0  0  0  0  0
   19.7203  -12.8771  -20.2473 C   0  0  0  0  0  0  0  0  0  0  0  0
   20.7487  -12.3909  -19.2859 C   0  0  0  0  0  0  0  0  0  0  0  0
   20.7277  -12.7956  -18.0952 O   0  0  0  0  0  0  0  0  0  0  0  0
   27.9828  -11.1218  -15.1668 O   0  0  0  0  0  0  0  0  0  0  0  0
   27.0097  -11.0742  -16.1712 C   0  0  0  0  0  0  0  0  0  0  0  0
   26.5780   -9.8397  -16.6026 C   0  0  0  0  0  0  0  0  0  0  0  0
   25.6161   -9.8313  -17.5959 C   0  0  0  0  0  0  0  0  0  0  0  0
   25.0997  -10.9840  -18.1426 C   0  0  0  0  0  0  0  0  0  0  0  0
   24.0822  -10.9445  -19.1929 C   0  0  0  0  0  0  0  0  0  0  0  0
   22.6725  -10.9107  -18.6705 C   0  0  2  0  0  0  0  0  0  0  0  0
   21.7691  -11.4783  -19.6513 N   0  0  0  0  0  0  0  0  0  0  0  0
   22.2467   -9.5772  -18.2136 C   0  0  0  0  0  0  0  0  0  0  0  0
   21.9351   -8.7302  -19.0892 O   0  0  0  0  0  0  0  0  0  0  0  0
   25.5549  -12.2006  -17.6867 C   0  0  0  0  0  0  0  0  0  0  0  0
   26.5233  -12.2462  -16.6871 C   0  0  0  0  0  0  0  0  0  0  0  0
   17.3879   -7.6105  -15.9872 N   0  0  0  0  0  0  0  0  0  0  0  0
   18.2232   -6.4942  -15.6606 C   0  0  0  0  0  0  0  0  0  0  0  0
   17.7264   -5.3825  -15.2544 O   0  0  0  0  0  0  0  0  0  0  0  0
   19.6967   -6.5553  -15.7629 C   0  0  0  0  0  0  0  0  0  0  0  0
   20.2557   -7.8237  -16.2964 C   0  0  0  0  0  0  0  0  0  0  0  0
   21.7313   -7.8441  -16.4144 C   0  0  2  0  0  0  0  0  0  0  0  0
   22.1644   -9.1854  -16.8621 N   0  0  0  0  0  0  0  0  0  0  0  0
   22.5075   -7.5179  -15.2489 C   0  0  0  0  0  0  0  0  0  0  0  0
   22.6653   -6.2187  -14.8041 O   0  0  0  0  0  0  0  0  0  0  0  0
   23.0924   -8.4065  -14.5802 O   0  0  0  0  0  0  0  0  0  0  0  0
  1  2  1  0
  2  3  1  0
  3  4  2  0
  6  7  2  0
  6  5  1  0
  8  7  1  0
  9  8  2  0
 11 10  1  6
 10  9  1  0
 12 11  1  0
 12  3  1  0
 13 11  1  0
 14 13  2  0
 15  9  1  0
 15 16  2  0
 16  6  1  0
 18 19  2  0
 18 17  1  0
 20 18  1  0
 21 20  1  0
 22 21  1  1
 22 23  1  0
 23 13  1  0
 24 25  1  0
 24 22  1  0
 26 24  2  0
M  END
$$$$
