GYQ.pdb
     RDKit          3D

 26 26  0  0  1  0  0  0  0  0999 V2000
   21.1932  -20.4662  -10.3170 N   0  0  0  0  0  0  0  0  0  0  0  0
   22.2388  -21.4623  -10.4454 C   0  0  0  0  0  0  0  0  0  0  0  0
   23.4337  -20.8524  -11.0924 C   0  0  0  0  0  0  0  0  0  0  0  0
   23.3071  -19.7940  -11.7602 O   0  0  0  0  0  0  0  0  0  0  0  0
   26.4450  -18.9949   -5.6698 O   0  0  0  0  0  0  0  0  0  0  0  0
   26.6083  -19.4869   -6.9696 C   0  0  0  0  0  0  0  0  0  0  0  0
   26.4985  -20.8447   -7.1711 C   0  0  0  0  0  0  0  0  0  0  0  0
   26.6657  -21.2947   -8.4679 C   0  0  0  0  0  0  0  0  0  0  0  0
   26.9292  -20.4495   -9.5217 C   0  0  0  0  0  0  0  0  0  0  0  0
   27.1015  -20.9543  -10.8838 C   0  0  0  0  0  0  0  0  0  0  0  0
   25.8568  -20.8700  -11.7236 C   0  0  2  0  0  0  0  0  0  0  0  0
   24.7304  -21.4144  -10.9922 N   0  0  0  0  0  0  0  0  0  0  0  0
   26.0074  -21.4699  -13.0599 C   0  0  0  0  0  0  0  0  0  0  0  0
   26.0699  -22.7235  -13.1352 O   0  0  0  0  0  0  0  0  0  0  0  0
   27.0322  -19.0977   -9.2828 C   0  0  0  0  0  0  0  0  0  0  0  0
   26.8694  -18.6097   -7.9888 C   0  0  0  0  0  0  0  0  0  0  0  0
   25.2940  -24.9387  -15.8597 N   0  0  0  0  0  0  0  0  0  0  0  0
   24.7535  -24.2252  -16.9774 C   0  0  0  0  0  0  0  0  0  0  0  0
   24.5933  -24.7908  -18.1186 O   0  0  0  0  0  0  0  0  0  0  0  0
   24.3435  -22.8080  -16.8848 C   0  0  0  0  0  0  0  0  0  0  0  0
   24.6437  -22.1309  -15.5974 C   0  0  0  0  0  0  0  0  0  0  0  0
   25.8822  -21.3198  -15.6032 C   0  0  2  0  0  0  0  0  0  0  0  0
   26.0862  -20.7350  -14.2602 N   0  0  0  0  0  0  0  0  0  0  0  0
   25.9812  -20.2432  -16.5510 C   0  0  0  0  0  0  0  0  0  0  0  0
   26.7075  -20.3520  -17.7221 O   0  0  0  0  0  0  0  0  0  0  0  0
   25.4149  -19.1393  -16.3517 O   0  0  0  0  0  0  0  0  0  0  0  0
  1  2  1  0
  2  3  1  0
  3  4  2  0
  6  7  2  0
  6  5  1  0
  8  7  1  0
  9  8  2  0
 11 10  1  1
 10  9  1  0
 12 11  1  0
 12  3  1  0
 13 11  1  0
 14 13  2  0
 15  9  1  0
 15 16  2  0
 16  6  1  0
 18 19  2  0
 18 17  1  0
 20 18  1  0
 21 20  1  0
 22 21  1  1
 22 23  1  0
 23 13  1  0
 24 25  1  0
 24 22  1  0
 26 24  2  0
M  END
$$$$
