GYQ.pdb
     RDKit          3D

 26 26  0  0  1  0  0  0  0  0999 V2000
   28.6455  -20.9436  -14.6337 N   0  0  0  0  0  0  0  0  0  0  0  0
   28.0067  -20.0239  -13.7129 C   0  0  0  0  0  0  0  0  0  0  0  0
   26.8668  -20.7039  -13.0371 C   0  0  0  0  0  0  0  0  0  0  0  0
   26.5586  -21.8778  -13.3676 O   0  0  0  0  0  0  0  0  0  0  0  0
   29.3541  -20.3857   -6.9505 O   0  0  0  0  0  0  0  0  0  0  0  0
   28.1913  -20.3598   -7.7285 C   0  0  0  0  0  0  0  0  0  0  0  0
   27.9105  -21.4530   -8.5174 C   0  0  0  0  0  0  0  0  0  0  0  0
   26.7536  -21.3922   -9.2724 C   0  0  0  0  0  0  0  0  0  0  0  0
   25.9084  -20.3061   -9.2544 C   0  0  0  0  0  0  0  0  0  0  0  0
   24.6906  -20.2698  -10.0641 C   0  0  0  0  0  0  0  0  0  0  0  0
   24.8977  -20.6995  -11.4902 C   0  0  2  0  0  0  0  0  0  0  0  0
   26.0973  -20.0842  -12.0217 N   0  0  0  0  0  0  0  0  0  0  0  0
   23.7210  -20.4789  -12.3475 C   0  0  0  0  0  0  0  0  0  0  0  0
   23.8570  -19.7273  -13.3464 O   0  0  0  0  0  0  0  0  0  0  0  0
   26.2210  -19.2309   -8.4535 C   0  0  0  0  0  0  0  0  0  0  0  0
   27.3785  -19.2582   -7.6799 C   0  0  0  0  0  0  0  0  0  0  0  0
   23.1898  -25.6042  -14.9219 N   0  0  0  0  0  0  0  0  0  0  0  0
   22.4153  -24.5661  -15.5325 C   0  0  0  0  0  0  0  0  0  0  0  0
   21.6021  -24.8150  -16.4940 O   0  0  0  0  0  0  0  0  0  0  0  0
   22.4982  -23.1574  -15.0919 C   0  0  0  0  0  0  0  0  0  0  0  0
   22.5408  -22.9407  -13.6232 C   0  0  0  0  0  0  0  0  0  0  0  0
   21.7018  -21.8198  -13.1422 C   0  0  2  0  0  0  0  0  0  0  0  0
   22.4528  -21.0525  -12.1250 N   0  0  0  0  0  0  0  0  0  0  0  0
   20.4189  -22.1313  -12.5727 C   0  0  0  0  0  0  0  0  0  0  0  0
   20.2805  -22.6543  -11.3007 O   0  0  0  0  0  0  0  0  0  0  0  0
   19.3543  -21.9503  -13.2153 O   0  0  0  0  0  0  0  0  0  0  0  0
  1  2  1  0
  2  3  1  0
  3  4  2  0
  6  7  2  0
  6  5  1  0
  8  7  1  0
  9  8  2  0
 11 10  1  1
 10  9  1  0
 12 11  1  0
 12  3  1  0
 13 11  1  0
 14 13  2  0
 15  9  1  0
 15 16  2  0
 16  6  1  0
 18 19  2  0
 18 17  1  0
 20 18  1  0
 21 20  1  0
 22 21  1  1
 22 23  1  0
 23 13  1  0
 24 25  1  0
 24 22  1  0
 26 24  2  0
M  END
$$$$
