GYQ.pdb
     RDKit          3D

 26 26  0  0  1  0  0  0  0  0999 V2000
   27.0173  -11.2980  -16.6775 N   0  0  0  0  0  0  0  0  0  0  0  0
   26.5418  -10.5950  -15.5021 C   0  0  0  0  0  0  0  0  0  0  0  0
   25.0581  -10.4761  -15.5567 C   0  0  0  0  0  0  0  0  0  0  0  0
   24.4669  -10.5708  -16.6628 O   0  0  0  0  0  0  0  0  0  0  0  0
   22.4241  -16.4304  -15.7191 O   0  0  0  0  0  0  0  0  0  0  0  0
   22.3760  -15.1385  -15.1835 C   0  0  0  0  0  0  0  0  0  0  0  0
   23.4292  -14.7170  -14.4027 C   0  0  0  0  0  0  0  0  0  0  0  0
   23.3474  -13.4351  -13.8906 C   0  0  0  0  0  0  0  0  0  0  0  0
   22.2789  -12.6024  -14.1338 C   0  0  0  0  0  0  0  0  0  0  0  0
   22.2196  -11.2504  -13.5784 C   0  0  0  0  0  0  0  0  0  0  0  0
   22.8172  -10.2004  -14.4738 C   0  0  2  0  0  0  0  0  0  0  0  0
   24.2636  -10.2575  -14.4042 N   0  0  0  0  0  0  0  0  0  0  0  0
   22.2915   -8.8475  -14.2256 C   0  0  0  0  0  0  0  0  0  0  0  0
   22.7422   -8.2169  -13.2354 O   0  0  0  0  0  0  0  0  0  0  0  0
   21.2438  -13.0576  -14.9190 C   0  0  0  0  0  0  0  0  0  0  0  0
   21.2931  -14.3434  -15.4512 C   0  0  0  0  0  0  0  0  0  0  0  0
   22.3324   -4.2404  -18.0662 N   0  0  0  0  0  0  0  0  0  0  0  0
   21.4801   -3.7247  -17.0375 C   0  0  0  0  0  0  0  0  0  0  0  0
   21.0826   -2.5041  -17.0469 O   0  0  0  0  0  0  0  0  0  0  0  0
   21.0036   -4.5608  -15.9154 C   0  0  0  0  0  0  0  0  0  0  0  0
   21.4056   -5.9900  -15.9578 C   0  0  0  0  0  0  0  0  0  0  0  0
   20.8869   -6.8084  -14.8384 C   0  0  2  0  0  0  0  0  0  0  0  0
   21.3180   -8.2111  -15.0218 N   0  0  0  0  0  0  0  0  0  0  0  0
   19.4664   -6.8294  -14.6176 C   0  0  0  0  0  0  0  0  0  0  0  0
   18.6580   -7.8450  -15.0927 O   0  0  0  0  0  0  0  0  0  0  0  0
   18.8870   -5.9112  -13.9850 O   0  0  0  0  0  0  0  0  0  0  0  0
  1  2  1  0
  2  3  1  0
  3  4  2  0
  6  7  2  0
  6  5  1  0
  8  7  1  0
  9  8  2  0
 11 10  1  1
 10  9  1  0
 12 11  1  0
 12  3  1  0
 13 11  1  0
 14 13  2  0
 15  9  1  0
 15 16  2  0
 16  6  1  0
 18 19  2  0
 18 17  1  0
 20 18  1  0
 21 20  1  0
 22 21  1  6
 22 23  1  0
 23 13  1  0
 24 25  1  0
 24 22  1  0
 26 24  2  0
M  END
$$$$
