GYQ.pdb
     RDKit          3D

 26 26  0  0  1  0  0  0  0  0999 V2000
   29.5306  -23.5541  -17.4669 N   0  0  0  0  0  0  0  0  0  0  0  0
   28.7866  -22.3303  -17.2413 C   0  0  0  0  0  0  0  0  0  0  0  0
   27.9741  -22.4607  -15.9999 C   0  0  0  0  0  0  0  0  0  0  0  0
   27.6532  -23.6035  -15.5838 O   0  0  0  0  0  0  0  0  0  0  0  0
   23.7000  -20.7054   -8.5259 O   0  0  0  0  0  0  0  0  0  0  0  0
   24.4913  -20.6213   -9.6769 C   0  0  0  0  0  0  0  0  0  0  0  0
   23.9345  -20.0762  -10.8122 C   0  0  0  0  0  0  0  0  0  0  0  0
   24.7457  -20.0092  -11.9301 C   0  0  0  0  0  0  0  0  0  0  0  0
   26.0470  -20.4576  -11.9343 C   0  0  0  0  0  0  0  0  0  0  0  0
   26.8821  -20.3739  -13.1325 C   0  0  0  0  0  0  0  0  0  0  0  0
   26.6420  -21.4844  -14.1176 C   0  0  2  0  0  0  0  0  0  0  0  0
   27.5358  -21.3418  -15.2494 N   0  0  0  0  0  0  0  0  0  0  0  0
   25.2325  -21.6167  -14.5226 C   0  0  0  0  0  0  0  0  0  0  0  0
   24.8141  -20.8655  -15.4400 O   0  0  0  0  0  0  0  0  0  0  0  0
   26.5704  -20.9968  -10.7808 C   0  0  0  0  0  0  0  0  0  0  0  0
   25.7815  -21.0798   -9.6363 C   0  0  0  0  0  0  0  0  0  0  0  0
   22.2630  -27.0402  -15.1590 N   0  0  0  0  0  0  0  0  0  0  0  0
   21.1934  -26.0927  -15.2525 C   0  0  0  0  0  0  0  0  0  0  0  0
   19.9938  -26.4618  -15.5221 O   0  0  0  0  0  0  0  0  0  0  0  0
   21.4016  -24.6448  -15.0389 C   0  0  0  0  0  0  0  0  0  0  0  0
   22.7870  -24.2346  -14.6950 C   0  0  0  0  0  0  0  0  0  0  0  0
   22.9629  -22.7802  -14.4817 C   0  0  2  0  0  0  0  0  0  0  0  0
   24.3204  -22.5275  -13.9522 N   0  0  0  0  0  0  0  0  0  0  0  0
   22.0384  -22.1079  -13.6095 C   0  0  0  0  0  0  0  0  0  0  0  0
   20.8222  -21.6225  -14.0520 O   0  0  0  0  0  0  0  0  0  0  0  0
   22.3006  -21.9196  -12.3951 O   0  0  0  0  0  0  0  0  0  0  0  0
  1  2  1  0
  2  3  1  0
  3  4  2  0
  6  7  2  0
  6  5  1  0
  8  7  1  0
  9  8  2  0
 11 10  1  1
 10  9  1  0
 12 11  1  0
 12  3  1  0
 13 11  1  0
 14 13  2  0
 15  9  1  0
 15 16  2  0
 16  6  1  0
 18 19  2  0
 18 17  1  0
 20 18  1  0
 21 20  1  0
 22 21  1  1
 22 23  1  0
 23 13  1  0
 24 25  1  0
 24 22  1  0
 26 24  2  0
M  END
$$$$
