GYQ.pdb
     RDKit          3D

 26 26  0  0  1  0  0  0  0  0999 V2000
   16.5101  -10.9639  -13.1261 N   0  0  0  0  0  0  0  0  0  0  0  0
   17.1441  -10.3277  -11.9880 C   0  0  0  0  0  0  0  0  0  0  0  0
   16.2551   -9.2590  -11.4532 C   0  0  0  0  0  0  0  0  0  0  0  0
   15.2494   -8.8970  -12.1162 O   0  0  0  0  0  0  0  0  0  0  0  0
   10.0049   -9.6496   -7.9505 O   0  0  0  0  0  0  0  0  0  0  0  0
   11.3123   -9.1618   -8.0542 C   0  0  0  0  0  0  0  0  0  0  0  0
   12.3325  -10.0671   -8.2441 C   0  0  0  0  0  0  0  0  0  0  0  0
   13.6110   -9.5492   -8.3420 C   0  0  0  0  0  0  0  0  0  0  0  0
   13.8774   -8.2015   -8.2573 C   0  0  0  0  0  0  0  0  0  0  0  0
   15.2407   -7.6821   -8.3646 C   0  0  0  0  0  0  0  0  0  0  0  0
   15.7023   -7.4787   -9.7812 C   0  0  2  0  0  0  0  0  0  0  0  0
   16.4890   -8.6170  -10.2120 N   0  0  0  0  0  0  0  0  0  0  0  0
   16.3960   -6.1976   -9.9954 C   0  0  0  0  0  0  0  0  0  0  0  0
   17.5235   -6.0458   -9.4599 O   0  0  0  0  0  0  0  0  0  0  0  0
   12.8324   -7.3257   -8.0672 C   0  0  0  0  0  0  0  0  0  0  0  0
   11.5319   -7.8127   -7.9642 C   0  0  0  0  0  0  0  0  0  0  0  0
   17.7694   -3.5159  -15.2199 N   0  0  0  0  0  0  0  0  0  0  0  0
   18.0289   -2.4574  -14.2912 C   0  0  0  0  0  0  0  0  0  0  0  0
   18.6244   -1.3796  -14.6539 O   0  0  0  0  0  0  0  0  0  0  0  0
   17.6238   -2.5368  -12.8717 C   0  0  0  0  0  0  0  0  0  0  0  0
   16.9425   -3.7916  -12.4630 C   0  0  0  0  0  0  0  0  0  0  0  0
   16.6155   -3.8726  -11.0213 C   0  0  2  0  0  0  0  0  0  0  0  0
   15.8825   -5.1301  -10.7593 N   0  0  0  0  0  0  0  0  0  0  0  0
   15.8440   -2.8066  -10.4419 C   0  0  0  0  0  0  0  0  0  0  0  0
   16.4180   -1.6229  -10.0178 O   0  0  0  0  0  0  0  0  0  0  0  0
   14.6015   -2.9069  -10.2835 O   0  0  0  0  0  0  0  0  0  0  0  0
  1  2  1  0
  2  3  1  0
  3  4  2  0
  6  7  2  0
  6  5  1  0
  8  7  1  0
  9  8  2  0
 11 10  1  1
 10  9  1  0
 12 11  1  0
 12  3  1  0
 13 11  1  0
 14 13  2  0
 15  9  1  0
 15 16  2  0
 16  6  1  0
 18 19  2  0
 18 17  1  0
 20 18  1  0
 21 20  1  0
 22 21  1  6
 22 23  1  0
 23 13  1  0
 24 25  1  0
 24 22  1  0
 26 24  2  0
M  END
$$$$
