PTN.pdb
     RDKit          3D

 23 23  0  0  1  0  0  0  0  0999 V2000
    8.9345  -15.3910   14.9606 N   0  0  0  0  0  0  0  0  0  0  0  0
    8.5672  -16.3544   13.9570 C   0  0  0  0  0  0  0  0  0  0  0  0
    8.7492  -17.6676   14.6498 C   0  0  0  0  0  0  0  0  0  0  0  0
    8.3341  -17.3917   16.0723 C   0  0  0  0  0  0  0  0  0  0  0  0
    8.2614  -15.8810   16.1432 C   0  0  1  0  0  0  0  0  0  0  0  0
    8.9251  -15.3426   17.3369 C   0  0  0  0  0  0  0  0  0  0  0  0
   10.1639  -15.1387   17.3194 O   0  0  0  0  0  0  0  0  0  0  0  0
    7.2713  -12.6456   19.7146 C   0  0  0  0  0  0  0  0  0  0  0  0
    7.8893  -13.7369   20.5589 C   0  0  1  0  0  0  0  0  0  0  0  0
    6.9205  -14.6296   21.0097 O   0  0  0  0  0  0  0  0  0  0  0  0
    8.9275  -14.4630   19.6961 C   0  0  2  0  0  0  0  0  0  0  0  0
    8.2474  -15.0260   18.5476 N   0  0  0  0  0  0  0  0  0  0  0  0
    9.6014  -15.5189   20.4979 C   0  0  0  0  0  0  0  0  0  0  0  0
    9.2649  -16.7172   20.3215 O   0  0  0  0  0  0  0  0  0  0  0  0
   13.7599  -18.0683   22.7002 N   0  0  0  0  0  0  0  0  0  0  0  0
   13.5834  -16.7086   23.0610 C   0  0  0  0  0  0  0  0  0  0  0  0
   14.1522  -16.2661   24.0874 O   0  0  0  0  0  0  0  0  0  0  0  0
   12.7503  -15.8227   22.2538 C   0  0  0  0  0  0  0  0  0  0  0  0
   11.2768  -16.1716   22.2534 C   0  0  2  0  0  0  0  0  0  0  0  0
   10.6058  -15.1992   21.4472 N   0  0  0  0  0  0  0  0  0  0  0  0
   10.6834  -16.2561   23.5902 C   0  0  0  0  0  0  0  0  0  0  0  0
    9.7264  -15.3768   24.0728 O   0  0  0  0  0  0  0  0  0  0  0  0
   11.0535  -17.1775   24.3611 O   0  0  0  0  0  0  0  0  0  0  0  0
  1  5  1  0
  1  2  1  0
  2  3  1  0
  4  3  1  0
  5  4  1  0
  6 12  1  0
  5  6  1  1
  7  6  2  0
  9  8  1  6
  9 11  1  0
 10  9  1  0
 11 12  1  6
 11 13  1  0
 13 20  1  0
 14 13  2  0
 16 15  1  0
 16 17  2  0
 18 16  1  0
 19 18  1  1
 20 19  1  0
 21 19  1  0
 21 22  1  0
 23 21  2  0
M  END
$$$$
