PTN.pdb
     RDKit          3D

 23 23  0  0  1  0  0  0  0  0999 V2000
    8.3987  -15.3965   16.6821 N   0  0  0  0  0  0  0  0  0  0  0  0
    7.6597  -15.1711   15.4682 C   0  0  0  0  0  0  0  0  0  0  0  0
    7.3422  -13.7103   15.5184 C   0  0  0  0  0  0  0  0  0  0  0  0
    8.5573  -13.0934   16.1627 C   0  0  0  0  0  0  0  0  0  0  0  0
    9.3180  -14.2804   16.7149 C   0  0  1  0  0  0  0  0  0  0  0  0
    9.7697  -14.0648   18.0950 C   0  0  0  0  0  0  0  0  0  0  0  0
   10.7661  -13.3330   18.3148 O   0  0  0  0  0  0  0  0  0  0  0  0
    7.5037  -13.6851   21.3139 C   0  0  0  0  0  0  0  0  0  0  0  0
    8.5574  -14.7370   21.5767 C   0  0  1  0  0  0  0  0  0  0  0  0
    8.0280  -16.0183   21.4475 O   0  0  0  0  0  0  0  0  0  0  0  0
    9.6928  -14.5219   20.5698 C   0  0  2  0  0  0  0  0  0  0  0  0
    9.1428  -14.6416   19.2350 N   0  0  0  0  0  0  0  0  0  0  0  0
   10.7707  -15.5198   20.8029 C   0  0  0  0  0  0  0  0  0  0  0  0
   11.1164  -16.2673   19.8531 O   0  0  0  0  0  0  0  0  0  0  0  0
   15.4423  -16.9228   22.1792 N   0  0  0  0  0  0  0  0  0  0  0  0
   15.0408  -15.8427   21.3533 C   0  0  0  0  0  0  0  0  0  0  0  0
   15.8997  -15.2453   20.6618 O   0  0  0  0  0  0  0  0  0  0  0  0
   13.6445  -15.4209   21.2999 C   0  0  0  0  0  0  0  0  0  0  0  0
   12.7251  -16.1667   22.2441 C   0  0  2  0  0  0  0  0  0  0  0  0
   11.4073  -15.6401   22.0649 N   0  0  0  0  0  0  0  0  0  0  0  0
   13.1362  -16.1065   23.6489 C   0  0  0  0  0  0  0  0  0  0  0  0
   14.0860  -16.9412   24.2173 O   0  0  0  0  0  0  0  0  0  0  0  0
   12.6047  -15.2503   24.4005 O   0  0  0  0  0  0  0  0  0  0  0  0
  1  5  1  0
  1  2  1  0
  2  3  1  0
  4  3  1  0
  5  4  1  0
  6 12  1  0
  5  6  1  1
  7  6  2  0
  9  8  1  6
  9 11  1  0
 10  9  1  0
 11 12  1  6
 11 13  1  0
 13 20  1  0
 14 13  2  0
 16 15  1  0
 16 17  2  0
 18 16  1  0
 19 18  1  6
 20 19  1  0
 21 19  1  0
 21 22  1  0
 23 21  2  0
M  END
$$$$
