PTN.pdb
     RDKit          3D

 23 23  0  0  1  0  0  0  0  0999 V2000
    7.5041  -15.3257   19.8951 N   0  0  0  0  0  0  0  0  0  0  0  0
    6.8662  -14.8828   18.6838 C   0  0  0  0  0  0  0  0  0  0  0  0
    6.9407  -13.3916   18.7747 C   0  0  0  0  0  0  0  0  0  0  0  0
    8.2659  -13.1313   19.4441 C   0  0  0  0  0  0  0  0  0  0  0  0
    8.6826  -14.4902   19.9660 C   0  0  1  0  0  0  0  0  0  0  0  0
    9.1562  -14.4370   21.3546 C   0  0  0  0  0  0  0  0  0  0  0  0
   10.2067  -13.8060   21.6282 O   0  0  0  0  0  0  0  0  0  0  0  0
    6.7115  -15.6284   24.5493 C   0  0  0  0  0  0  0  0  0  0  0  0
    7.7637  -14.5518   24.6893 C   0  0  1  0  0  0  0  0  0  0  0  0
    8.1609  -14.4103   26.0163 O   0  0  0  0  0  0  0  0  0  0  0  0
    8.9564  -14.9479   23.8119 C   0  0  2  0  0  0  0  0  0  0  0  0
    8.4927  -15.0668   22.4446 N   0  0  0  0  0  0  0  0  0  0  0  0
    9.5396  -16.2264   24.2992 C   0  0  0  0  0  0  0  0  0  0  0  0
    8.9347  -17.2995   24.0487 O   0  0  0  0  0  0  0  0  0  0  0  0
   12.8520  -16.9598   23.1782 N   0  0  0  0  0  0  0  0  0  0  0  0
   13.5474  -16.9475   24.4136 C   0  0  0  0  0  0  0  0  0  0  0  0
   14.7828  -16.7316   24.4216 O   0  0  0  0  0  0  0  0  0  0  0  0
   12.8435  -17.1826   25.6705 C   0  0  0  0  0  0  0  0  0  0  0  0
   11.3611  -17.4531   25.5207 C   0  0  2  0  0  0  0  0  0  0  0  0
   10.7531  -16.2537   25.0333 N   0  0  0  0  0  0  0  0  0  0  0  0
   10.7124  -17.9180   26.7492 C   0  0  0  0  0  0  0  0  0  0  0  0
   10.7264  -19.2337   27.1856 O   0  0  0  0  0  0  0  0  0  0  0  0
   10.1000  -17.0850   27.4645 O   0  0  0  0  0  0  0  0  0  0  0  0
  1  5  1  0
  1  2  1  0
  2  3  1  0
  4  3  1  0
  5  4  1  0
  6 12  1  0
  5  6  1  1
  7  6  2  0
  9  8  1  1
  9 11  1  0
 10  9  1  0
 11 12  1  6
 11 13  1  0
 13 20  1  0
 14 13  2  0
 16 15  1  0
 16 17  2  0
 18 16  1  0
 19 18  1  1
 20 19  1  0
 21 19  1  0
 21 22  1  0
 23 21  2  0
M  END
$$$$
