PTN.pdb
     RDKit          3D

 23 23  0  0  1  0  0  0  0  0999 V2000
    7.4967  -15.2071   19.4430 N   0  0  0  0  0  0  0  0  0  0  0  0
    6.9712  -14.6035   18.2472 C   0  0  0  0  0  0  0  0  0  0  0  0
    7.2156  -13.1427   18.4565 C   0  0  0  0  0  0  0  0  0  0  0  0
    8.5301  -13.0932   19.1925 C   0  0  0  0  0  0  0  0  0  0  0  0
    8.7604  -14.5268   19.6220 C   0  0  1  0  0  0  0  0  0  0  0  0
    9.1729  -14.6322   21.0270 C   0  0  0  0  0  0  0  0  0  0  0  0
   10.3100  -14.2267   21.3721 O   0  0  0  0  0  0  0  0  0  0  0  0
    7.5026  -13.3973   24.1104 C   0  0  0  0  0  0  0  0  0  0  0  0
    7.7247  -14.8704   24.3681 C   0  0  1  0  0  0  0  0  0  0  0  0
    6.5538  -15.5958   24.1644 O   0  0  0  0  0  0  0  0  0  0  0  0
    8.8253  -15.3501   23.4152 C   0  0  2  0  0  0  0  0  0  0  0  0
    8.3545  -15.1766   22.0562 N   0  0  0  0  0  0  0  0  0  0  0  0
    9.1532  -16.7731   23.6974 C   0  0  0  0  0  0  0  0  0  0  0  0
    8.7697  -17.6529   22.8854 O   0  0  0  0  0  0  0  0  0  0  0  0
   12.9260  -20.6229   23.7040 N   0  0  0  0  0  0  0  0  0  0  0  0
   11.5752  -20.3437   24.0321 C   0  0  0  0  0  0  0  0  0  0  0  0
   10.8364  -21.2726   24.4372 O   0  0  0  0  0  0  0  0  0  0  0  0
   11.0383  -18.9926   23.9038 C   0  0  0  0  0  0  0  0  0  0  0  0
   10.3050  -18.4876   25.1286 C   0  0  2  0  0  0  0  0  0  0  0  0
    9.8829  -17.1488   24.8544 N   0  0  0  0  0  0  0  0  0  0  0  0
   11.0893  -18.5562   26.3641 C   0  0  0  0  0  0  0  0  0  0  0  0
   12.1699  -17.7347   26.6454 O   0  0  0  0  0  0  0  0  0  0  0  0
   10.7767  -19.4077   27.2346 O   0  0  0  0  0  0  0  0  0  0  0  0
  1  5  1  0
  1  2  1  0
  2  3  1  0
  4  3  1  0
  5  4  1  0
  6 12  1  0
  5  6  1  1
  7  6  2  0
  9  8  1  6
  9 11  1  0
 10  9  1  0
 11 12  1  6
 11 13  1  0
 13 20  1  0
 14 13  2  0
 16 15  1  0
 16 17  2  0
 18 16  1  0
 19 18  1  6
 20 19  1  0
 21 19  1  0
 21 22  1  0
 23 21  2  0
M  END
$$$$
