PTN.pdb
     RDKit          3D

 23 23  0  0  1  0  0  0  0  0999 V2000
    8.6120  -14.7444   17.6094 N   0  0  0  0  0  0  0  0  0  0  0  0
    8.1006  -14.1199   16.4183 C   0  0  0  0  0  0  0  0  0  0  0  0
    7.5419  -12.8244   16.9152 C   0  0  0  0  0  0  0  0  0  0  0  0
    8.4863  -12.4169   18.0170 C   0  0  0  0  0  0  0  0  0  0  0  0
    9.3089  -13.6627   18.2699 C   0  0  1  0  0  0  0  0  0  0  0  0
    9.4368  -13.9700   19.6997 C   0  0  0  0  0  0  0  0  0  0  0  0
    9.9516  -13.1249   20.4726 O   0  0  0  0  0  0  0  0  0  0  0  0
    6.6278  -15.0085   21.8479 C   0  0  0  0  0  0  0  0  0  0  0  0
    7.7062  -16.0251   22.1472 C   0  0  1  0  0  0  0  0  0  0  0  0
    7.4714  -17.2178   21.4683 O   0  0  0  0  0  0  0  0  0  0  0  0
    9.0486  -15.4206   21.7208 C   0  0  2  0  0  0  0  0  0  0  0  0
    9.0079  -15.1914   20.2909 N   0  0  0  0  0  0  0  0  0  0  0  0
   10.1572  -16.3404   22.0907 C   0  0  0  0  0  0  0  0  0  0  0  0
   10.4497  -17.2785   21.3066 O   0  0  0  0  0  0  0  0  0  0  0  0
   14.4152  -17.0391   21.6474 N   0  0  0  0  0  0  0  0  0  0  0  0
   13.7261  -16.0458   22.3881 C   0  0  0  0  0  0  0  0  0  0  0  0
   13.5583  -14.9095   21.8847 O   0  0  0  0  0  0  0  0  0  0  0  0
   13.2124  -16.3310   23.7241 C   0  0  0  0  0  0  0  0  0  0  0  0
   11.8969  -17.0807   23.7460 C   0  0  2  0  0  0  0  0  0  0  0  0
   10.8811  -16.1780   23.2997 N   0  0  0  0  0  0  0  0  0  0  0  0
   11.5609  -17.6581   25.0498 C   0  0  0  0  0  0  0  0  0  0  0  0
   12.2619  -18.6961   25.6441 O   0  0  0  0  0  0  0  0  0  0  0  0
   10.5784  -17.1956   25.6832 O   0  0  0  0  0  0  0  0  0  0  0  0
  1  5  1  0
  1  2  1  0
  2  3  1  0
  4  3  1  0
  5  4  1  0
  6 12  1  0
  5  6  1  1
  7  6  2  0
  9  8  1  6
  9 11  1  0
 10  9  1  0
 11 12  1  6
 11 13  1  0
 13 20  1  0
 14 13  2  0
 16 15  1  0
 16 17  2  0
 18 16  1  0
 19 18  1  1
 20 19  1  0
 21 19  1  0
 21 22  1  0
 23 21  2  0
M  END
$$$$
