PTN.pdb
     RDKit          3D

 23 23  0  0  1  0  0  0  0  0999 V2000
    8.6303  -14.6640   19.0794 N   0  0  0  0  0  0  0  0  0  0  0  0
    8.4574  -13.6566   18.0667 C   0  0  0  0  0  0  0  0  0  0  0  0
    7.5175  -12.6810   18.7010 C   0  0  0  0  0  0  0  0  0  0  0  0
    7.9161  -12.6809   20.1546 C   0  0  0  0  0  0  0  0  0  0  0  0
    8.8248  -13.8852   20.2826 C   0  0  1  0  0  0  0  0  0  0  0  0
    8.5007  -14.7111   21.4522 C   0  0  0  0  0  0  0  0  0  0  0  0
    7.4040  -14.5489   22.0418 O   0  0  0  0  0  0  0  0  0  0  0  0
    8.3513  -18.3746   21.8120 C   0  0  0  0  0  0  0  0  0  0  0  0
    9.3005  -17.9418   22.9064 C   0  0  1  0  0  0  0  0  0  0  0  0
   10.6251  -18.1478   22.5298 O   0  0  0  0  0  0  0  0  0  0  0  0
    9.0467  -16.4559   23.1835 C   0  0  2  0  0  0  0  0  0  0  0  0
    9.3638  -15.7108   21.9822 N   0  0  0  0  0  0  0  0  0  0  0  0
    9.8762  -16.0075   24.3337 C   0  0  0  0  0  0  0  0  0  0  0  0
   10.9798  -15.4522   24.1013 O   0  0  0  0  0  0  0  0  0  0  0  0
   11.3657  -14.3522   28.9830 N   0  0  0  0  0  0  0  0  0  0  0  0
   10.0214  -14.0536   28.6454 C   0  0  0  0  0  0  0  0  0  0  0  0
    9.3534  -13.2987   29.3915 O   0  0  0  0  0  0  0  0  0  0  0  0
    9.4100  -14.6133   27.4441 C   0  0  0  0  0  0  0  0  0  0  0  0
   10.1861  -15.7508   26.8142 C   0  0  2  0  0  0  0  0  0  0  0  0
    9.4470  -16.1943   25.6728 N   0  0  0  0  0  0  0  0  0  0  0  0
   10.4684  -16.8593   27.7295 C   0  0  0  0  0  0  0  0  0  0  0  0
    9.9470  -18.1361   27.5881 O   0  0  0  0  0  0  0  0  0  0  0  0
   11.2290  -16.6578   28.7100 O   0  0  0  0  0  0  0  0  0  0  0  0
  1  5  1  0
  1  2  1  0
  2  3  1  0
  4  3  1  0
  5  4  1  0
  6 12  1  0
  5  6  1  1
  7  6  2  0
  9  8  1  6
  9 11  1  0
 10  9  1  0
 11 12  1  6
 11 13  1  0
 13 20  1  0
 14 13  2  0
 16 15  1  0
 16 17  2  0
 18 16  1  0
 19 18  1  1
 20 19  1  0
 21 19  1  0
 21 22  1  0
 23 21  2  0
M  END
$$$$
