PTN.pdb
     RDKit          3D

 23 23  0  0  1  0  0  0  0  0999 V2000
    9.0060  -14.6589   19.2400 N   0  0  0  0  0  0  0  0  0  0  0  0
    8.8351  -14.0327   17.9558 C   0  0  0  0  0  0  0  0  0  0  0  0
    7.5724  -13.2470   18.1153 C   0  0  0  0  0  0  0  0  0  0  0  0
    7.6178  -12.7668   19.5434 C   0  0  0  0  0  0  0  0  0  0  0  0
    8.7317  -13.5820   20.1657 C   0  0  1  0  0  0  0  0  0  0  0  0
    8.3545  -14.1462   21.4675 C   0  0  0  0  0  0  0  0  0  0  0  0
    8.0157  -13.3787   22.4018 O   0  0  0  0  0  0  0  0  0  0  0  0
    6.5386  -17.6229   22.0871 C   0  0  0  0  0  0  0  0  0  0  0  0
    7.7522  -17.5337   22.9843 C   0  0  1  0  0  0  0  0  0  0  0  0
    8.8095  -18.2802   22.4711 O   0  0  0  0  0  0  0  0  0  0  0  0
    8.1431  -16.0558   23.0949 C   0  0  2  0  0  0  0  0  0  0  0  0
    8.3447  -15.5396   21.7563 N   0  0  0  0  0  0  0  0  0  0  0  0
    9.3734  -15.9188   23.9192 C   0  0  0  0  0  0  0  0  0  0  0  0
   10.2729  -15.1296   23.5339 O   0  0  0  0  0  0  0  0  0  0  0  0
   10.7168  -14.7750   28.7295 N   0  0  0  0  0  0  0  0  0  0  0  0
    9.6594  -14.2540   27.9417 C   0  0  0  0  0  0  0  0  0  0  0  0
    9.0821  -13.2019   28.3060 O   0  0  0  0  0  0  0  0  0  0  0  0
    9.2378  -14.9266   26.7169 C   0  0  0  0  0  0  0  0  0  0  0  0
   10.0998  -16.1058   26.3176 C   0  0  2  0  0  0  0  0  0  0  0  0
    9.5460  -16.6557   25.1190 N   0  0  0  0  0  0  0  0  0  0  0  0
   10.2340  -17.1268   27.3596 C   0  0  0  0  0  0  0  0  0  0  0  0
    9.7079  -18.4061   27.2667 O   0  0  0  0  0  0  0  0  0  0  0  0
   10.8623  -16.8421   28.4106 O   0  0  0  0  0  0  0  0  0  0  0  0
  1  5  1  0
  1  2  1  0
  2  3  1  0
  4  3  1  0
  5  4  1  0
  6 12  1  0
  5  6  1  1
  7  6  2  0
  9  8  1  6
  9 11  1  0
 10  9  1  0
 11 12  1  6
 11 13  1  0
 13 20  1  0
 14 13  2  0
 16 15  1  0
 16 17  2  0
 18 16  1  0
 19 18  1  1
 20 19  1  0
 21 19  1  0
 21 22  1  0
 23 21  2  0
M  END
$$$$
