PTN.pdb
     RDKit          3D

 23 23  0  0  1  0  0  0  0  0999 V2000
    7.7947  -15.9412   15.4646 N   0  0  0  0  0  0  0  0  0  0  0  0
    7.0508  -15.9744   14.2334 C   0  0  0  0  0  0  0  0  0  0  0  0
    7.0141  -14.5407   13.8084 C   0  0  0  0  0  0  0  0  0  0  0  0
    8.3537  -13.9977   14.2359 C   0  0  0  0  0  0  0  0  0  0  0  0
    8.9065  -15.0716   15.1491 C   0  0  1  0  0  0  0  0  0  0  0  0
    9.4592  -14.5208   16.3927 C   0  0  0  0  0  0  0  0  0  0  0  0
   10.5089  -13.8330   16.3542 O   0  0  0  0  0  0  0  0  0  0  0  0
    7.3435  -12.9066   19.1916 C   0  0  0  0  0  0  0  0  0  0  0  0
    8.2980  -13.8679   19.8629 C   0  0  1  0  0  0  0  0  0  0  0  0
    7.6527  -15.0513   20.2120 O   0  0  0  0  0  0  0  0  0  0  0  0
    9.4423  -14.1500   18.8830 C   0  0  2  0  0  0  0  0  0  0  0  0
    8.8753  -14.7156   17.6758 N   0  0  0  0  0  0  0  0  0  0  0  0
   10.4243  -15.0770   19.5062 C   0  0  0  0  0  0  0  0  0  0  0  0
   10.4308  -16.2810   19.1445 O   0  0  0  0  0  0  0  0  0  0  0  0
   14.5142  -16.7844   22.2903 N   0  0  0  0  0  0  0  0  0  0  0  0
   14.6983  -15.4555   21.8320 C   0  0  0  0  0  0  0  0  0  0  0  0
   15.8327  -14.9274   21.9171 O   0  0  0  0  0  0  0  0  0  0  0  0
   13.5863  -14.6992   21.2648 C   0  0  0  0  0  0  0  0  0  0  0  0
   12.2955  -15.4801   21.1344 C   0  0  2  0  0  0  0  0  0  0  0  0
   11.3426  -14.6297   20.4904 N   0  0  0  0  0  0  0  0  0  0  0  0
   11.7779  -15.9937   22.4050 C   0  0  0  0  0  0  0  0  0  0  0  0
   10.5976  -15.5662   22.9932 O   0  0  0  0  0  0  0  0  0  0  0  0
   12.4323  -16.8778   23.0137 O   0  0  0  0  0  0  0  0  0  0  0  0
  1  5  1  0
  1  2  1  0
  2  3  1  0
  4  3  1  0
  5  4  1  0
  6 12  1  0
  5  6  1  1
  7  6  2  0
  9  8  1  6
  9 11  1  0
 10  9  1  0
 11 12  1  6
 11 13  1  0
 13 20  1  0
 14 13  2  0
 16 15  1  0
 16 17  2  0
 18 16  1  0
 19 18  1  1
 20 19  1  0
 21 19  1  0
 21 22  1  0
 23 21  2  0
M  END
$$$$
