PTN.pdb
     RDKit          3D

 23 23  0  0  1  0  0  0  0  0999 V2000
    8.1287  -15.3734   18.1399 N   0  0  0  0  0  0  0  0  0  0  0  0
    7.4416  -15.0706   16.9124 C   0  0  0  0  0  0  0  0  0  0  0  0
    6.9085  -13.6919   17.1411 C   0  0  0  0  0  0  0  0  0  0  0  0
    7.9760  -13.0185   17.9650 C   0  0  0  0  0  0  0  0  0  0  0  0
    8.8685  -14.1594   18.4061 C   0  0  1  0  0  0  0  0  0  0  0  0
    9.1962  -14.0951   19.8356 C   0  0  0  0  0  0  0  0  0  0  0  0
    9.2980  -12.9778   20.3994 O   0  0  0  0  0  0  0  0  0  0  0  0
    7.9263  -13.3581   21.9764 C   0  0  0  0  0  0  0  0  0  0  0  0
    8.3130  -14.6210   22.7121 C   0  0  1  0  0  0  0  0  0  0  0  0
    7.3056  -15.5784   22.6258 O   0  0  0  0  0  0  0  0  0  0  0  0
    9.6087  -15.1480   22.0853 C   0  0  2  0  0  0  0  0  0  0  0  0
    9.4138  -15.2398   20.6527 N   0  0  0  0  0  0  0  0  0  0  0  0
    9.9517  -16.4713   22.6711 C   0  0  0  0  0  0  0  0  0  0  0  0
    9.4050  -17.5000   22.1988 O   0  0  0  0  0  0  0  0  0  0  0  0
   13.6915  -18.6554   22.3970 N   0  0  0  0  0  0  0  0  0  0  0  0
   13.5834  -17.6018   23.3395 C   0  0  0  0  0  0  0  0  0  0  0  0
   14.1889  -16.5239   23.1287 O   0  0  0  0  0  0  0  0  0  0  0  0
   12.7786  -17.7581   24.5470 C   0  0  0  0  0  0  0  0  0  0  0  0
   11.2863  -17.8393   24.3027 C   0  0  2  0  0  0  0  0  0  0  0  0
   10.8748  -16.5896   23.7417 N   0  0  0  0  0  0  0  0  0  0  0  0
   10.5036  -18.1710   25.4959 C   0  0  0  0  0  0  0  0  0  0  0  0
   10.4803  -19.4251   26.0862 O   0  0  0  0  0  0  0  0  0  0  0  0
    9.8035  -17.2743   26.0308 O   0  0  0  0  0  0  0  0  0  0  0  0
  1  5  1  0
  1  2  1  0
  2  3  1  0
  4  3  1  0
  5  4  1  0
  6 12  1  0
  5  6  1  1
  7  6  2  0
  9  8  1  6
  9 11  1  0
 10  9  1  0
 11 12  1  6
 11 13  1  0
 13 20  1  0
 14 13  2  0
 16 15  1  0
 16 17  2  0
 18 16  1  0
 19 18  1  1
 20 19  1  0
 21 19  1  0
 21 22  1  0
 23 21  2  0
M  END
$$$$
