PTN.pdb
     RDKit          3D

 23 23  0  0  1  0  0  0  0  0999 V2000
    8.1963  -15.6299   17.5932 N   0  0  0  0  0  0  0  0  0  0  0  0
    7.6796  -15.4039   16.2694 C   0  0  0  0  0  0  0  0  0  0  0  0
    7.5788  -13.9140   16.1832 C   0  0  0  0  0  0  0  0  0  0  0  0
    8.7677  -13.4206   16.9674 C   0  0  0  0  0  0  0  0  0  0  0  0
    9.2571  -14.6525   17.6992 C   0  0  1  0  0  0  0  0  0  0  0  0
    9.5346  -14.3900   19.1167 C   0  0  0  0  0  0  0  0  0  0  0  0
   10.5315  -13.6966   19.4360 O   0  0  0  0  0  0  0  0  0  0  0  0
    7.1681  -13.0687   21.7510 C   0  0  0  0  0  0  0  0  0  0  0  0
    7.7538  -14.3378   22.3275 C   0  0  1  0  0  0  0  0  0  0  0  0
    6.8654  -15.4022   22.1984 O   0  0  0  0  0  0  0  0  0  0  0  0
    9.0571  -14.6331   21.5769 C   0  0  2  0  0  0  0  0  0  0  0  0
    8.7331  -14.8785   20.1864 N   0  0  0  0  0  0  0  0  0  0  0  0
    9.7385  -15.8048   22.1892 C   0  0  0  0  0  0  0  0  0  0  0  0
    9.5129  -16.9481   21.7176 O   0  0  0  0  0  0  0  0  0  0  0  0
   13.8580  -15.1336   22.2390 N   0  0  0  0  0  0  0  0  0  0  0  0
   13.3902  -16.3779   22.7322 C   0  0  0  0  0  0  0  0  0  0  0  0
   13.5476  -17.4118   22.0400 O   0  0  0  0  0  0  0  0  0  0  0  0
   12.7305  -16.4673   24.0310 C   0  0  0  0  0  0  0  0  0  0  0  0
   11.2446  -16.7515   23.9641 C   0  0  2  0  0  0  0  0  0  0  0  0
   10.6282  -15.6547   23.2838 N   0  0  0  0  0  0  0  0  0  0  0  0
   10.6226  -16.9859   25.2696 C   0  0  0  0  0  0  0  0  0  0  0  0
   10.9005  -18.0771   26.0783 O   0  0  0  0  0  0  0  0  0  0  0  0
    9.7819  -16.1557   25.6989 O   0  0  0  0  0  0  0  0  0  0  0  0
  1  5  1  0
  1  2  1  0
  2  3  1  0
  4  3  1  0
  5  4  1  0
  6 12  1  0
  5  6  1  1
  7  6  2  0
  9  8  1  6
  9 11  1  0
 10  9  1  0
 11 12  1  6
 11 13  1  0
 13 20  1  0
 14 13  2  0
 16 15  1  0
 16 17  2  0
 18 16  1  0
 19 18  1  1
 20 19  1  0
 21 19  1  0
 21 22  1  0
 23 21  2  0
M  END
$$$$
