NGM.pdb
     RDKit          3D

 21 20  0  0  1  0  0  0  0  0999 V2000
   27.6433  -17.7725  -16.7193 N   0  0  0  0  0  0  0  0  0  0  0  0
   28.5927  -17.9407  -15.6738 C   0  0  0  0  0  0  0  0  0  0  0  0
   29.7155  -17.3994  -15.8317 O   0  0  0  0  0  0  0  0  0  0  0  0
   28.2037  -18.7246  -14.4961 C   0  0  0  0  0  0  0  0  0  0  0  0
   26.8277  -19.3198  -14.6043 C   0  0  2  0  0  0  0  0  0  0  0  0
   25.8769  -18.2382  -14.7544 N   0  0  0  0  0  0  0  0  0  0  0  0
   26.4427  -20.1373  -13.4559 C   0  0  0  0  0  0  0  0  0  0  0  0
   27.1368  -21.1493  -13.1433 O   0  0  0  0  0  0  0  0  0  0  0  0
   25.3055  -19.8664  -12.6378 N   0  0  0  0  0  0  0  0  0  0  0  0
   25.0054  -20.7390  -11.5402 C   0  0  0  0  0  0  0  0  0  0  0  0
   26.0042  -20.7933  -10.4720 C   0  0  0  0  0  0  0  0  0  0  0  0
   26.9529  -21.6200  -10.6629 O   0  0  0  0  0  0  0  0  0  0  0  0
   29.9764  -19.3140   -5.5912 C   0  0  0  0  0  0  0  0  0  0  0  0
   28.3322  -19.0853   -4.8686 S   0  0  0  0  0  0  0  0  0  0  0  0
   27.0975  -20.1849   -5.6642 C   0  0  0  0  0  0  0  0  0  0  0  0
   27.0059  -19.7793   -7.0955 C   0  0  0  0  0  0  0  0  0  0  0  0
   26.1720  -20.6419   -7.9698 C   0  0  2  0  0  0  0  0  0  0  0  0
   26.0240  -20.0414   -9.2804 N   0  0  0  0  0  0  0  0  0  0  0  0
   24.8527  -21.0303   -7.3864 C   0  0  0  0  0  0  0  0  0  0  0  0
   24.7522  -21.7159   -6.3422 O   0  0  0  0  0  0  0  0  0  0  0  0
   23.6543  -20.6489   -7.9750 O   0  0  0  0  0  0  0  0  0  0  0  0
  2  1  1  0
  2  3  2  0
  4  2  1  0
  5  4  1  0
  5  6  1  1
  7  5  1  0
  7  8  2  0
  9  7  1  0
 10  9  1  0
 10 11  1  0
 11 18  1  0
 12 11  2  0
 14 13  1  0
 14 15  1  0
 15 16  1  0
 17 16  1  1
 17 19  1  0
 18 17  1  0
 19 21  1  0
 20 19  2  0
M  END
$$$$
