NGM.pdb
     RDKit          3D

 21 20  0  0  1  0  0  0  0  0999 V2000
   30.1044  -18.4952  -17.6517 N   0  0  0  0  0  0  0  0  0  0  0  0
   28.8530  -17.8220  -17.5914 C   0  0  0  0  0  0  0  0  0  0  0  0
   28.3528  -17.4509  -18.6826 O   0  0  0  0  0  0  0  0  0  0  0  0
   28.2373  -17.6082  -16.2769 C   0  0  0  0  0  0  0  0  0  0  0  0
   27.6452  -18.8569  -15.6859 C   0  0  2  0  0  0  0  0  0  0  0  0
   26.5143  -19.2511  -16.4995 N   0  0  0  0  0  0  0  0  0  0  0  0
   27.2066  -18.7075  -14.3000 C   0  0  0  0  0  0  0  0  0  0  0  0
   28.0181  -18.2817  -13.4260 O   0  0  0  0  0  0  0  0  0  0  0  0
   25.8885  -19.0167  -13.8497 N   0  0  0  0  0  0  0  0  0  0  0  0
   25.5279  -18.7418  -12.4893 C   0  0  0  0  0  0  0  0  0  0  0  0
   25.9959  -19.7072  -11.4939 C   0  0  0  0  0  0  0  0  0  0  0  0
   26.0424  -20.9144  -11.8944 O   0  0  0  0  0  0  0  0  0  0  0  0
   29.2979  -19.2535   -5.9214 C   0  0  0  0  0  0  0  0  0  0  0  0
   27.7446  -19.9544   -5.3099 S   0  0  0  0  0  0  0  0  0  0  0  0
   26.8112  -20.7789   -6.6574 C   0  0  0  0  0  0  0  0  0  0  0  0
   26.8917  -19.8930   -7.8533 C   0  0  0  0  0  0  0  0  0  0  0  0
   26.3029  -20.4277   -9.1067 C   0  0  2  0  0  0  0  0  0  0  0  0
   26.3917  -19.4441  -10.1674 N   0  0  0  0  0  0  0  0  0  0  0  0
   24.9163  -20.9649   -8.9643 C   0  0  0  0  0  0  0  0  0  0  0  0
   23.8996  -20.2973   -9.2665 O   0  0  0  0  0  0  0  0  0  0  0  0
   24.6760  -22.2458   -8.4851 O   0  0  0  0  0  0  0  0  0  0  0  0
  2  1  1  0
  2  3  2  0
  4  2  1  0
  5  4  1  0
  5  6  1  6
  7  5  1  0
  7  8  2  0
  9  7  1  0
 10  9  1  0
 10 11  1  0
 11 18  1  0
 12 11  2  0
 14 13  1  0
 14 15  1  0
 15 16  1  0
 17 16  1  1
 17 19  1  0
 18 17  1  0
 19 21  1  0
 20 19  2  0
M  END
$$$$
