NGM.pdb
     RDKit          3D

 21 20  0  0  1  0  0  0  0  0999 V2000
   13.7977  -23.7938    0.7984 N   0  0  0  0  0  0  0  0  0  0  0  0
   15.0610  -23.4313    1.3421 C   0  0  0  0  0  0  0  0  0  0  0  0
   15.4643  -24.0896    2.3334 O   0  0  0  0  0  0  0  0  0  0  0  0
   15.7996  -22.3278    0.7182 C   0  0  0  0  0  0  0  0  0  0  0  0
   15.6847  -21.0324    1.4719 C   0  0  2  0  0  0  0  0  0  0  0  0
   16.0050  -19.9505    0.5646 N   0  0  0  0  0  0  0  0  0  0  0  0
   16.5560  -20.9473    2.6419 C   0  0  0  0  0  0  0  0  0  0  0  0
   17.7426  -20.5242    2.5131 O   0  0  0  0  0  0  0  0  0  0  0  0
   16.1506  -21.3183    3.9587 N   0  0  0  0  0  0  0  0  0  0  0  0
   17.0776  -21.1817    5.0442 C   0  0  0  0  0  0  0  0  0  0  0  0
   17.3583  -19.8130    5.4797 C   0  0  0  0  0  0  0  0  0  0  0  0
   18.1410  -19.7153    6.4787 O   0  0  0  0  0  0  0  0  0  0  0  0
   19.1117  -12.5328    3.3415 C   0  0  0  0  0  0  0  0  0  0  0  0
   18.4674  -14.1965    3.0337 S   0  0  0  0  0  0  0  0  0  0  0  0
   18.0016  -15.0296    4.6007 C   0  0  0  0  0  0  0  0  0  0  0  0
   17.6297  -16.4319    4.2589 C   0  0  0  0  0  0  0  0  0  0  0  0
   17.2452  -17.3045    5.3966 C   0  0  2  0  0  0  0  0  0  0  0  0
   16.8629  -18.6186    4.9198 N   0  0  0  0  0  0  0  0  0  0  0  0
   16.2125  -16.7236    6.3064 C   0  0  0  0  0  0  0  0  0  0  0  0
   16.4940  -15.8993    7.2076 O   0  0  0  0  0  0  0  0  0  0  0  0
   14.8715  -17.0682    6.2020 O   0  0  0  0  0  0  0  0  0  0  0  0
  2  1  1  0
  2  3  2  0
  4  2  1  0
  5  4  1  0
  5  6  1  6
  7  5  1  0
  7  8  2  0
  9  7  1  0
 10  9  1  0
 10 11  1  0
 11 18  1  0
 12 11  2  0
 14 13  1  0
 14 15  1  0
 15 16  1  0
 17 16  1  6
 17 19  1  0
 18 17  1  0
 19 21  1  0
 20 19  2  0
M  END
$$$$
