NGM.pdb
     RDKit          3D

 21 20  0  0  1  0  0  0  0  0999 V2000
   25.6240  -19.4254  -16.8843 N   0  0  0  0  0  0  0  0  0  0  0  0
   24.9060  -20.6529  -16.9087 C   0  0  0  0  0  0  0  0  0  0  0  0
   23.6530  -20.5786  -16.9642 O   0  0  0  0  0  0  0  0  0  0  0  0
   25.6655  -21.9075  -16.8680 C   0  0  0  0  0  0  0  0  0  0  0  0
   25.6518  -22.5690  -15.5183 C   0  0  2  0  0  0  0  0  0  0  0  0
   24.2735  -22.8090  -15.1455 N   0  0  0  0  0  0  0  0  0  0  0  0
   26.3009  -21.7876  -14.4679 C   0  0  0  0  0  0  0  0  0  0  0  0
   27.5639  -21.7011  -14.4377 O   0  0  0  0  0  0  0  0  0  0  0  0
   25.5894  -21.0944  -13.4435 N   0  0  0  0  0  0  0  0  0  0  0  0
   26.3200  -20.3358  -12.4704 C   0  0  0  0  0  0  0  0  0  0  0  0
   26.2903  -20.8510  -11.1010 C   0  0  0  0  0  0  0  0  0  0  0  0
   26.0407  -22.0949  -10.9986 O   0  0  0  0  0  0  0  0  0  0  0  0
   29.0772  -18.8565   -6.0607 C   0  0  0  0  0  0  0  0  0  0  0  0
   27.8480  -19.7975   -5.1221 S   0  0  0  0  0  0  0  0  0  0  0  0
   26.3558  -20.1372   -6.1344 C   0  0  0  0  0  0  0  0  0  0  0  0
   26.6792  -19.7503   -7.5370 C   0  0  0  0  0  0  0  0  0  0  0  0
   26.1496  -20.6392   -8.6015 C   0  0  2  0  0  0  0  0  0  0  0  0
   26.5049  -20.1285   -9.9104 N   0  0  0  0  0  0  0  0  0  0  0  0
   24.6883  -20.9319   -8.4992 C   0  0  0  0  0  0  0  0  0  0  0  0
   23.8389  -20.3981   -9.2504 O   0  0  0  0  0  0  0  0  0  0  0  0
   24.1865  -21.8202   -7.5573 O   0  0  0  0  0  0  0  0  0  0  0  0
  2  1  1  0
  2  3  2  0
  4  2  1  0
  5  4  1  0
  5  6  1  1
  7  5  1  0
  7  8  2  0
  9  7  1  0
 10  9  1  0
 10 11  1  0
 11 18  1  0
 12 11  2  0
 14 13  1  0
 14 15  1  0
 15 16  1  0
 17 16  1  1
 17 19  1  0
 18 17  1  0
 19 21  1  0
 20 19  2  0
M  END
$$$$
