NGM.pdb
     RDKit          3D

 21 20  0  0  1  0  0  0  0  0999 V2000
   18.0519  -13.9277  -17.0521 N   0  0  0  0  0  0  0  0  0  0  0  0
   17.6931  -12.7808  -16.2913 C   0  0  0  0  0  0  0  0  0  0  0  0
   16.4718  -12.6215  -16.0428 O   0  0  0  0  0  0  0  0  0  0  0  0
   18.7582  -11.8720  -15.8529 C   0  0  0  0  0  0  0  0  0  0  0  0
   18.2628  -10.4951  -15.5092 C   0  0  2  0  0  0  0  0  0  0  0  0
   17.9117   -9.8195  -16.7407 N   0  0  0  0  0  0  0  0  0  0  0  0
   19.2314   -9.6812  -14.7780 C   0  0  0  0  0  0  0  0  0  0  0  0
   19.6660  -10.0768  -13.6563 O   0  0  0  0  0  0  0  0  0  0  0  0
   19.7368   -8.4347  -15.2543 N   0  0  0  0  0  0  0  0  0  0  0  0
   20.6720   -7.7024  -14.4510 C   0  0  0  0  0  0  0  0  0  0  0  0
   22.0266   -7.5825  -14.9919 C   0  0  0  0  0  0  0  0  0  0  0  0
   22.4263   -6.3895  -15.1842 O   0  0  0  0  0  0  0  0  0  0  0  0
   26.5883  -12.2573  -14.9551 C   0  0  0  0  0  0  0  0  0  0  0  0
   27.1115  -11.2645  -16.3758 S   0  0  0  0  0  0  0  0  0  0  0  0
   26.4482   -9.5568  -16.2741 C   0  0  0  0  0  0  0  0  0  0  0  0
   25.0235   -9.6636  -15.8493 C   0  0  0  0  0  0  0  0  0  0  0  0
   24.2438   -8.4003  -15.8447 C   0  0  2  0  0  0  0  0  0  0  0  0
   22.9144   -8.6281  -15.3146 N   0  0  0  0  0  0  0  0  0  0  0  0
   24.2021   -7.6889  -17.1576 C   0  0  0  0  0  0  0  0  0  0  0  0
   23.4841   -8.0725  -18.1105 O   0  0  0  0  0  0  0  0  0  0  0  0
   24.9637   -6.5525  -17.3959 O   0  0  0  0  0  0  0  0  0  0  0  0
  2  1  1  0
  2  3  2  0
  4  2  1  0
  5  4  1  0
  5  6  1  6
  7  5  1  0
  7  8  2  0
  9  7  1  0
 10  9  1  0
 10 11  1  0
 11 18  1  0
 12 11  2  0
 14 13  1  0
 14 15  1  0
 15 16  1  0
 17 16  1  6
 17 19  1  0
 18 17  1  0
 19 21  1  0
 20 19  2  0
M  END
$$$$
