NGM.pdb
     RDKit          3D

 21 20  0  0  1  0  0  0  0  0999 V2000
   14.2605  -15.1283  -18.2456 N   0  0  0  0  0  0  0  0  0  0  0  0
   15.1864  -14.4827  -17.3803 C   0  0  0  0  0  0  0  0  0  0  0  0
   14.9955  -14.6102  -16.1450 O   0  0  0  0  0  0  0  0  0  0  0  0
   16.2880  -13.7208  -17.9791 C   0  0  0  0  0  0  0  0  0  0  0  0
   17.1892  -13.0773  -16.9626 C   0  0  2  0  0  0  0  0  0  0  0  0
   16.4574  -12.0036  -16.3239 N   0  0  0  0  0  0  0  0  0  0  0  0
   18.4287  -12.5427  -17.5222 C   0  0  0  0  0  0  0  0  0  0  0  0
   18.6129  -12.5620  -18.7749 O   0  0  0  0  0  0  0  0  0  0  0  0
   19.4768  -11.9836  -16.7319 N   0  0  0  0  0  0  0  0  0  0  0  0
   20.6115  -11.3964  -17.3832 C   0  0  0  0  0  0  0  0  0  0  0  0
   21.5689  -10.7134  -16.5122 C   0  0  0  0  0  0  0  0  0  0  0  0
   21.1753  -10.5339  -15.3151 O   0  0  0  0  0  0  0  0  0  0  0  0
   27.9963  -11.7069  -14.8270 C   0  0  0  0  0  0  0  0  0  0  0  0
   27.7423  -10.0726  -15.5633 S   0  0  0  0  0  0  0  0  0  0  0  0
   26.0957   -9.3934  -15.1225 C   0  0  0  0  0  0  0  0  0  0  0  0
   25.1271   -9.8965  -16.1375 C   0  0  0  0  0  0  0  0  0  0  0  0
   23.7048   -9.5272  -15.9268 C   0  0  2  0  0  0  0  0  0  0  0  0
   22.8529  -10.2445  -16.8541 N   0  0  0  0  0  0  0  0  0  0  0  0
   23.4327   -8.0585  -15.9474 C   0  0  0  0  0  0  0  0  0  0  0  0
   23.4642   -7.3810  -17.0013 O   0  0  0  0  0  0  0  0  0  0  0  0
   23.1266   -7.3571  -14.7887 O   0  0  0  0  0  0  0  0  0  0  0  0
  2  1  1  0
  2  3  2  0
  4  2  1  0
  5  4  1  0
  5  6  1  6
  7  5  1  0
  7  8  2  0
  9  7  1  0
 10  9  1  0
 10 11  1  0
 11 18  1  0
 12 11  2  0
 14 13  1  0
 14 15  1  0
 15 16  1  0
 17 16  1  6
 17 19  1  0
 18 17  1  0
 19 21  1  0
 20 19  2  0
M  END
$$$$
