NGM.pdb
     RDKit          3D

 21 20  0  0  1  0  0  0  0  0999 V2000
   29.4032  -21.0227  -17.2000 N   0  0  0  0  0  0  0  0  0  0  0  0
   28.1748  -20.5189  -16.6901 C   0  0  0  0  0  0  0  0  0  0  0  0
   27.6853  -19.5177  -17.2704 O   0  0  0  0  0  0  0  0  0  0  0  0
   27.5686  -21.1922  -15.5361 C   0  0  0  0  0  0  0  0  0  0  0  0
   26.8342  -20.2559  -14.6178 C   0  0  2  0  0  0  0  0  0  0  0  0
   27.8128  -19.4865  -13.8783 N   0  0  0  0  0  0  0  0  0  0  0  0
   25.9433  -20.9273  -13.6741 C   0  0  0  0  0  0  0  0  0  0  0  0
   25.0342  -21.6962  -14.1055 O   0  0  0  0  0  0  0  0  0  0  0  0
   26.0291  -20.7727  -12.2582 N   0  0  0  0  0  0  0  0  0  0  0  0
   25.0815  -21.4465  -11.4189 C   0  0  0  0  0  0  0  0  0  0  0  0
   23.6929  -20.9983  -11.5306 C   0  0  0  0  0  0  0  0  0  0  0  0
   23.3111  -20.1949  -10.6202 O   0  0  0  0  0  0  0  0  0  0  0  0
   18.5590  -16.8785  -12.0739 C   0  0  0  0  0  0  0  0  0  0  0  0
   20.0558  -17.8962  -12.1142 S   0  0  0  0  0  0  0  0  0  0  0  0
   20.1565  -18.8696  -13.6663 C   0  0  0  0  0  0  0  0  0  0  0  0
   21.4094  -19.6741  -13.5997 C   0  0  0  0  0  0  0  0  0  0  0  0
   21.4314  -20.7728  -12.6016 C   0  0  2  0  0  0  0  0  0  0  0  0
   22.7556  -21.3561  -12.5201 N   0  0  0  0  0  0  0  0  0  0  0  0
   20.3787  -21.8144  -12.7980 C   0  0  0  0  0  0  0  0  0  0  0  0
   20.5166  -22.7713  -13.5954 O   0  0  0  0  0  0  0  0  0  0  0  0
   19.1784  -21.7788  -12.1008 O   0  0  0  0  0  0  0  0  0  0  0  0
  2  1  1  0
  2  3  2  0
  4  2  1  0
  5  4  1  0
  5  6  1  1
  7  5  1  0
  7  8  2  0
  9  7  1  0
 10  9  1  0
 10 11  1  0
 11 18  1  0
 12 11  2  0
 14 13  1  0
 14 15  1  0
 15 16  1  0
 17 16  1  6
 17 19  1  0
 18 17  1  0
 19 21  1  0
 20 19  2  0
M  END
$$$$
