NGM.pdb
     RDKit          3D

 21 20  0  0  1  0  0  0  0  0999 V2000
   25.8844  -16.2083  -16.4342 N   0  0  0  0  0  0  0  0  0  0  0  0
   25.7145  -17.2447  -17.3934 C   0  0  0  0  0  0  0  0  0  0  0  0
   25.4290  -16.8943  -18.5657 O   0  0  0  0  0  0  0  0  0  0  0  0
   25.8814  -18.6353  -16.9565 C   0  0  0  0  0  0  0  0  0  0  0  0
   26.1383  -18.7699  -15.4816 C   0  0  2  0  0  0  0  0  0  0  0  0
   27.4576  -18.2432  -15.2018 N   0  0  0  0  0  0  0  0  0  0  0  0
   26.0584  -20.1430  -14.9882 C   0  0  0  0  0  0  0  0  0  0  0  0
   24.9316  -20.7133  -14.8949 O   0  0  0  0  0  0  0  0  0  0  0  0
   27.1955  -20.9088  -14.5927 N   0  0  0  0  0  0  0  0  0  0  0  0
   27.0024  -22.2081  -14.0174 C   0  0  0  0  0  0  0  0  0  0  0  0
   26.4140  -22.2355  -12.6777 C   0  0  0  0  0  0  0  0  0  0  0  0
   25.5826  -23.1774  -12.4736 O   0  0  0  0  0  0  0  0  0  0  0  0
   28.8903  -20.2637   -7.1882 C   0  0  0  0  0  0  0  0  0  0  0  0
   27.1841  -19.7820   -6.8212 S   0  0  0  0  0  0  0  0  0  0  0  0
   26.0037  -20.5864   -7.9728 C   0  0  0  0  0  0  0  0  0  0  0  0
   26.6894  -20.7078   -9.2906 C   0  0  0  0  0  0  0  0  0  0  0  0
   25.9158  -21.3634  -10.3749 C   0  0  2  0  0  0  0  0  0  0  0  0
   26.6672  -21.3468  -11.6140 N   0  0  0  0  0  0  0  0  0  0  0  0
   24.5310  -20.8345  -10.5599 C   0  0  0  0  0  0  0  0  0  0  0  0
   24.2254  -20.0547  -11.4922 O   0  0  0  0  0  0  0  0  0  0  0  0
   23.4968  -21.1817   -9.7008 O   0  0  0  0  0  0  0  0  0  0  0  0
  2  1  1  0
  2  3  2  0
  4  2  1  0
  5  4  1  0
  5  6  1  6
  7  5  1  0
  7  8  2  0
  9  7  1  0
 10  9  1  0
 10 11  1  0
 11 18  1  0
 12 11  2  0
 14 13  1  0
 14 15  1  0
 15 16  1  0
 17 16  1  1
 17 19  1  0
 18 17  1  0
 19 21  1  0
 20 19  2  0
M  END
$$$$
