SSE.pdb
     RDKit          3D

 22 21  0  0  1  0  0  0  0  0999 V2000
   16.8472  -14.4962  -12.4174 O   0  0  0  0  0  0  0  0  0  0  0  0
   16.7678  -13.0915  -12.4705 C   0  0  0  0  0  0  0  0  0  0  0  0
   15.4192  -12.6223  -11.9595 C   0  0  2  0  0  0  0  0  0  0  0  0
   14.4303  -13.0490  -12.9097 N   0  0  0  0  0  0  0  0  0  0  0  0
   15.3923  -11.1855  -11.6770 C   0  0  0  0  0  0  0  0  0  0  0  0
   15.3633  -10.3561  -12.6259 O   0  0  0  0  0  0  0  0  0  0  0  0
   14.1662   -7.5952   -8.7666 O   0  0  0  0  0  0  0  0  0  0  0  0
   14.3147   -8.9643   -8.9085 C   0  0  0  0  0  0  0  0  0  0  0  0
   15.2327   -9.2186  -10.0942 C   0  0  2  0  0  0  0  0  0  0  0  0
   15.3956  -10.6177  -10.3600 N   0  0  0  0  0  0  0  0  0  0  0  0
   16.5157   -8.5081   -9.9173 C   0  0  0  0  0  0  0  0  0  0  0  0
   17.4446   -8.9389   -9.1896 O   0  0  0  0  0  0  0  0  0  0  0  0
   16.7177   -7.2833  -10.5970 N   0  0  0  0  0  0  0  0  0  0  0  0
   17.9466   -6.4668  -10.3682 C   0  0  1  0  0  0  0  0  0  0  0  0
   18.9192   -6.7767  -11.4494 C   0  0  0  0  0  0  0  0  0  0  0  0
   20.1614   -5.9964  -11.4242 C   0  0  0  0  0  0  0  0  0  0  0  0
   21.1828   -6.3156  -12.4342 C   0  0  0  0  0  0  0  0  0  0  0  0
   22.2347   -5.6362  -12.5441 O   0  0  0  0  0  0  0  0  0  0  0  0
   17.6135   -5.1025  -10.1239 C   0  0  0  0  0  0  0  0  0  0  0  0
   18.4720   -4.2662   -9.3885 O   0  0  0  0  0  0  0  0  0  0  0  0
   20.9927   -7.3853  -13.2884 O   0  0  0  0  0  0  0  0  0  0  0  0
   16.5442   -4.5405  -10.5363 O   0  0  0  0  0  0  0  0  0  0  0  0
  1  2  1  0
  3  2  1  0
  3  5  1  0
  3  4  1  6
  5  6  2  0
  5 10  1  0
  8  7  1  0
  9  8  1  1
 10  9  1  0
 11  9  1  0
 11 13  1  0
 12 11  2  0
 14 19  1  0
 14 13  1  0
 14 15  1  6
 16 15  1  0
 17 16  1  0
 18 17  2  0
 19 20  1  0
 21 17  1  0
 22 19  2  0
M  END
$$$$
