SSE.pdb
     RDKit          3D

 22 21  0  0  1  0  0  0  0  0999 V2000
   18.6264  -10.2656  -20.5993 O   0  0  0  0  0  0  0  0  0  0  0  0
   18.7936   -9.5697  -19.3869 C   0  0  0  0  0  0  0  0  0  0  0  0
   18.8014  -10.5402  -18.2214 C   0  0  2  0  0  0  0  0  0  0  0  0
   17.4485  -10.9797  -18.0226 N   0  0  0  0  0  0  0  0  0  0  0  0
   19.4263   -9.9767  -17.0229 C   0  0  0  0  0  0  0  0  0  0  0  0
   18.7517   -9.2563  -16.2385 O   0  0  0  0  0  0  0  0  0  0  0  0
   23.1493   -9.6542  -13.9392 O   0  0  0  0  0  0  0  0  0  0  0  0
   22.7036  -10.2413  -15.1111 C   0  0  0  0  0  0  0  0  0  0  0  0
   21.4239   -9.5365  -15.5344 C   0  0  2  0  0  0  0  0  0  0  0  0
   20.7956  -10.1827  -16.6490 N   0  0  0  0  0  0  0  0  0  0  0  0
   21.6759   -8.0991  -15.7633 C   0  0  0  0  0  0  0  0  0  0  0  0
   22.1807   -7.6505  -16.8224 O   0  0  0  0  0  0  0  0  0  0  0  0
   21.3346   -7.1753  -14.7468 N   0  0  0  0  0  0  0  0  0  0  0  0
   21.5374   -5.7084  -14.9366 C   0  0  1  0  0  0  0  0  0  0  0  0
   20.2411   -5.1091  -15.3505 C   0  0  0  0  0  0  0  0  0  0  0  0
   20.2395   -3.6498  -15.5019 C   0  0  0  0  0  0  0  0  0  0  0  0
   18.9619   -3.0053  -15.8449 C   0  0  0  0  0  0  0  0  0  0  0  0
   18.8598   -1.7561  -15.9413 O   0  0  0  0  0  0  0  0  0  0  0  0
   22.2244   -5.1409  -13.8240 C   0  0  0  0  0  0  0  0  0  0  0  0
   22.4090   -5.8703  -12.6361 O   0  0  0  0  0  0  0  0  0  0  0  0
   17.8401   -3.7810  -16.0685 O   0  0  0  0  0  0  0  0  0  0  0  0
   22.7146   -3.9624  -13.8091 O   0  0  0  0  0  0  0  0  0  0  0  0
  1  2  1  0
  3  2  1  0
  3  5  1  0
  3  4  1  1
  5  6  2  0
  5 10  1  0
  8  7  1  0
  9  8  1  6
 10  9  1  0
 11  9  1  0
 11 13  1  0
 12 11  2  0
 14 19  1  0
 14 13  1  0
 14 15  1  1
 16 15  1  0
 17 16  1  0
 18 17  2  0
 19 20  1  0
 21 17  1  0
 22 19  2  0
M  END
$$$$
