SSE.pdb
     RDKit          3D

 22 21  0  0  1  0  0  0  0  0999 V2000
   18.8570  -16.3541  -16.2580 O   0  0  0  0  0  0  0  0  0  0  0  0
   19.6018  -15.1627  -16.1689 C   0  0  0  0  0  0  0  0  0  0  0  0
   19.6588  -14.4768  -17.5203 C   0  0  2  0  0  0  0  0  0  0  0  0
   20.8787  -14.8882  -18.1570 N   0  0  0  0  0  0  0  0  0  0  0  0
   19.4989  -13.0244  -17.4225 C   0  0  0  0  0  0  0  0  0  0  0  0
   20.4690  -12.2634  -17.6853 O   0  0  0  0  0  0  0  0  0  0  0  0
   16.2734  -10.9875  -18.4334 O   0  0  0  0  0  0  0  0  0  0  0  0
   16.6850  -10.5151  -17.1988 C   0  0  0  0  0  0  0  0  0  0  0  0
   18.1296  -10.9420  -16.9885 C   0  0  2  0  0  0  0  0  0  0  0  0
   18.2839  -12.3662  -17.0382 N   0  0  0  0  0  0  0  0  0  0  0  0
   18.6719  -10.3422  -15.7523 C   0  0  0  0  0  0  0  0  0  0  0  0
   18.5363  -10.8653  -14.6183 O   0  0  0  0  0  0  0  0  0  0  0  0
   19.3807   -9.1203  -15.8398 N   0  0  0  0  0  0  0  0  0  0  0  0
   19.9425   -8.4645  -14.6218 C   0  0  1  0  0  0  0  0  0  0  0  0
   20.8432   -7.3651  -15.0587 C   0  0  0  0  0  0  0  0  0  0  0  0
   21.4808   -6.6040  -13.9786 C   0  0  0  0  0  0  0  0  0  0  0  0
   22.2299   -5.3940  -14.3528 C   0  0  0  0  0  0  0  0  0  0  0  0
   22.6623   -4.5930  -13.4858 O   0  0  0  0  0  0  0  0  0  0  0  0
   18.9124   -8.1670  -13.6825 C   0  0  0  0  0  0  0  0  0  0  0  0
   19.1303   -8.3004  -12.2998 O   0  0  0  0  0  0  0  0  0  0  0  0
   22.4700   -5.1202  -15.6860 O   0  0  0  0  0  0  0  0  0  0  0  0
   17.7431   -7.7678  -14.0031 O   0  0  0  0  0  0  0  0  0  0  0  0
  1  2  1  0
  3  2  1  0
  3  5  1  0
  3  4  1  1
  5  6  2  0
  5 10  1  0
  8  7  1  0
  9  8  1  1
 10  9  1  0
 11  9  1  0
 11 13  1  0
 12 11  2  0
 14 19  1  0
 14 13  1  0
 14 15  1  6
 16 15  1  0
 17 16  1  0
 18 17  2  0
 19 20  1  0
 21 17  1  0
 22 19  2  0
M  END
$$$$
