SSE.pdb
     RDKit          3D

 22 21  0  0  1  0  0  0  0  0999 V2000
   16.4766  -11.0248  -13.8459 O   0  0  0  0  0  0  0  0  0  0  0  0
   16.3071  -11.5203  -15.1529 C   0  0  0  0  0  0  0  0  0  0  0  0
   17.5499  -11.2542  -15.9804 C   0  0  2  0  0  0  0  0  0  0  0  0
   18.6629  -11.8261  -15.2754 N   0  0  0  0  0  0  0  0  0  0  0  0
   17.7171   -9.8364  -16.3066 C   0  0  0  0  0  0  0  0  0  0  0  0
   18.8730   -9.3416  -16.3975 O   0  0  0  0  0  0  0  0  0  0  0  0
   14.5814   -7.1413  -16.3175 O   0  0  0  0  0  0  0  0  0  0  0  0
   15.5009   -6.8973  -17.3233 C   0  0  0  0  0  0  0  0  0  0  0  0
   16.8140   -7.5576  -16.9320 C   0  0  2  0  0  0  0  0  0  0  0  0
   16.6347   -8.9251  -16.5416 N   0  0  0  0  0  0  0  0  0  0  0  0
   17.5159   -6.7504  -15.9132 C   0  0  0  0  0  0  0  0  0  0  0  0
   17.4877   -7.0176  -14.6862 O   0  0  0  0  0  0  0  0  0  0  0  0
   18.2594   -5.6205  -16.3301 N   0  0  0  0  0  0  0  0  0  0  0  0
   18.9458   -4.7394  -15.3394 C   0  0  1  0  0  0  0  0  0  0  0  0
   20.3325   -5.2422  -15.1516 C   0  0  0  0  0  0  0  0  0  0  0  0
   21.1700   -4.4588  -14.2367 C   0  0  0  0  0  0  0  0  0  0  0  0
   22.5508   -4.9188  -14.0200 C   0  0  0  0  0  0  0  0  0  0  0  0
   22.8423   -5.7103  -13.0878 O   0  0  0  0  0  0  0  0  0  0  0  0
   18.7596   -3.3643  -15.6657 C   0  0  0  0  0  0  0  0  0  0  0  0
   18.9549   -2.3573  -14.7040 O   0  0  0  0  0  0  0  0  0  0  0  0
   23.5603   -4.4771  -14.8541 O   0  0  0  0  0  0  0  0  0  0  0  0
   18.4111   -2.9418  -16.8187 O   0  0  0  0  0  0  0  0  0  0  0  0
  1  2  1  0
  3  2  1  0
  3  5  1  0
  3  4  1  1
  5  6  2  0
  5 10  1  0
  8  7  1  0
  9  8  1  1
 10  9  1  0
 11  9  1  0
 11 13  1  0
 12 11  2  0
 14 19  1  0
 14 13  1  0
 14 15  1  6
 16 15  1  0
 17 16  1  0
 18 17  2  0
 19 20  1  0
 21 17  1  0
 22 19  2  0
M  END
$$$$
