SSE.pdb
     RDKit          3D

 22 21  0  0  1  0  0  0  0  0999 V2000
   29.5358  -24.5759  -18.3442 O   0  0  0  0  0  0  0  0  0  0  0  0
   28.4888  -23.7082  -17.9793 C   0  0  0  0  0  0  0  0  0  0  0  0
   28.0907  -23.9441  -16.5350 C   0  0  2  0  0  0  0  0  0  0  0  0
   27.4981  -25.2505  -16.4633 N   0  0  0  0  0  0  0  0  0  0  0  0
   27.2425  -22.8757  -16.0023 C   0  0  0  0  0  0  0  0  0  0  0  0
   26.2702  -23.1570  -15.2508 O   0  0  0  0  0  0  0  0  0  0  0  0
   28.4377  -19.0527  -15.2880 O   0  0  0  0  0  0  0  0  0  0  0  0
   27.2071  -19.0640  -15.9223 C   0  0  0  0  0  0  0  0  0  0  0  0
   26.5952  -20.4444  -15.7393 C   0  0  2  0  0  0  0  0  0  0  0  0
   27.4307  -21.4798  -16.2727 N   0  0  0  0  0  0  0  0  0  0  0  0
   25.2188  -20.4756  -16.2748 C   0  0  0  0  0  0  0  0  0  0  0  0
   24.9464  -20.8307  -17.4485 O   0  0  0  0  0  0  0  0  0  0  0  0
   24.1491  -20.0899  -15.4321 N   0  0  0  0  0  0  0  0  0  0  0  0
   22.7374  -20.1108  -15.9177 C   0  0  1  0  0  0  0  0  0  0  0  0
   21.8405  -20.2174  -14.7366 C   0  0  0  0  0  0  0  0  0  0  0  0
   21.6149  -21.5777  -14.2355 C   0  0  0  0  0  0  0  0  0  0  0  0
   20.7799  -21.7273  -13.0332 C   0  0  0  0  0  0  0  0  0  0  0  0
   20.3796  -20.7297  -12.3814 O   0  0  0  0  0  0  0  0  0  0  0  0
   22.5056  -19.0621  -16.8551 C   0  0  0  0  0  0  0  0  0  0  0  0
   21.5253  -19.1865  -17.8555 O   0  0  0  0  0  0  0  0  0  0  0  0
   20.4206  -22.9895  -12.5998 O   0  0  0  0  0  0  0  0  0  0  0  0
   23.1452  -17.9576  -16.8680 O   0  0  0  0  0  0  0  0  0  0  0  0
  1  2  1  0
  3  2  1  0
  3  5  1  0
  3  4  1  6
  5  6  2  0
  5 10  1  0
  8  7  1  0
  9  8  1  6
 10  9  1  0
 11  9  1  0
 11 13  1  0
 12 11  2  0
 14 19  1  0
 14 13  1  0
 14 15  1  1
 16 15  1  0
 17 16  1  0
 18 17  2  0
 19 20  1  0
 21 17  1  0
 22 19  2  0
M  END
$$$$
