SSE.pdb
     RDKit          3D

 22 21  0  0  1  0  0  0  0  0999 V2000
   16.3882  -12.5498  -18.2820 O   0  0  0  0  0  0  0  0  0  0  0  0
   16.8208  -11.4974  -17.4528 C   0  0  0  0  0  0  0  0  0  0  0  0
   17.6954  -12.0344  -16.3362 C   0  0  2  0  0  0  0  0  0  0  0  0
   16.8284  -12.6643  -15.3798 N   0  0  0  0  0  0  0  0  0  0  0  0
   18.5696  -11.0092  -15.7622 C   0  0  0  0  0  0  0  0  0  0  0  0
   18.0972  -10.1455  -14.9748 O   0  0  0  0  0  0  0  0  0  0  0  0
   22.9032   -9.2583  -14.6498 O   0  0  0  0  0  0  0  0  0  0  0  0
   22.2188  -10.3059  -15.2420 C   0  0  0  0  0  0  0  0  0  0  0  0
   20.8004   -9.8389  -15.5309 C   0  0  2  0  0  0  0  0  0  0  0  0
   19.9745  -10.8991  -16.0294 N   0  0  0  0  0  0  0  0  0  0  0  0
   20.8151   -8.6520  -16.4103 C   0  0  0  0  0  0  0  0  0  0  0  0
   20.9477   -8.7229  -17.6574 O   0  0  0  0  0  0  0  0  0  0  0  0
   20.6726   -7.3694  -15.8292 N   0  0  0  0  0  0  0  0  0  0  0  0
   20.6294   -6.1393  -16.6742 C   0  0  1  0  0  0  0  0  0  0  0  0
   19.7077   -5.1654  -16.0317 C   0  0  0  0  0  0  0  0  0  0  0  0
   19.4703   -3.9289  -16.7847 C   0  0  0  0  0  0  0  0  0  0  0  0
   18.5857   -2.9233  -16.1751 C   0  0  0  0  0  0  0  0  0  0  0  0
   17.4932   -3.2441  -15.6423 O   0  0  0  0  0  0  0  0  0  0  0  0
   21.9450   -5.7082  -17.0140 C   0  0  0  0  0  0  0  0  0  0  0  0
   22.2220   -5.1455  -18.2725 O   0  0  0  0  0  0  0  0  0  0  0  0
   18.9533   -1.5911  -16.1824 O   0  0  0  0  0  0  0  0  0  0  0  0
   22.9512   -5.7926  -16.2331 O   0  0  0  0  0  0  0  0  0  0  0  0
  1  2  1  0
  3  2  1  0
  3  5  1  0
  3  4  1  1
  5  6  2  0
  5 10  1  0
  8  7  1  0
  9  8  1  6
 10  9  1  0
 11  9  1  0
 11 13  1  0
 12 11  2  0
 14 19  1  0
 14 13  1  0
 14 15  1  1
 16 15  1  0
 17 16  1  0
 18 17  2  0
 19 20  1  0
 21 17  1  0
 22 19  2  0
M  END
$$$$
