SSE.pdb
     RDKit          3D

 22 21  0  0  1  0  0  0  0  0999 V2000
   16.7184  -10.8281  -18.2297 O   0  0  0  0  0  0  0  0  0  0  0  0
   17.4790   -9.9485  -17.4359 C   0  0  0  0  0  0  0  0  0  0  0  0
   17.8240  -10.6018  -16.1114 C   0  0  2  0  0  0  0  0  0  0  0  0
   16.5958  -10.7716  -15.3863 N   0  0  0  0  0  0  0  0  0  0  0  0
   18.8547   -9.8690  -15.3730 C   0  0  0  0  0  0  0  0  0  0  0  0
   18.5251   -9.0580  -14.4658 O   0  0  0  0  0  0  0  0  0  0  0  0
   22.8687   -9.9306  -16.5123 O   0  0  0  0  0  0  0  0  0  0  0  0
   22.6596   -9.7251  -15.1592 C   0  0  0  0  0  0  0  0  0  0  0  0
   21.2543   -9.1724  -14.9779 C   0  0  2  0  0  0  0  0  0  0  0  0
   20.2644  -10.0002  -15.6020 N   0  0  0  0  0  0  0  0  0  0  0  0
   21.1919   -7.7628  -15.4156 C   0  0  0  0  0  0  0  0  0  0  0  0
   20.6747   -7.4034  -16.5024 O   0  0  0  0  0  0  0  0  0  0  0  0
   21.7373   -6.7622  -14.5763 N   0  0  0  0  0  0  0  0  0  0  0  0
   21.5778   -5.3131  -14.8982 C   0  0  1  0  0  0  0  0  0  0  0  0
   20.1249   -5.0198  -15.0165 C   0  0  0  0  0  0  0  0  0  0  0  0
   19.7782   -3.6051  -15.1913 C   0  0  0  0  0  0  0  0  0  0  0  0
   18.3496   -3.2521  -15.1901 C   0  0  0  0  0  0  0  0  0  0  0  0
   17.4540   -4.1332  -15.1479 O   0  0  0  0  0  0  0  0  0  0  0  0
   22.3651   -4.5075  -14.0247 C   0  0  0  0  0  0  0  0  0  0  0  0
   22.8715   -3.2643  -14.4433 O   0  0  0  0  0  0  0  0  0  0  0  0
   17.9708   -1.9239  -15.2365 O   0  0  0  0  0  0  0  0  0  0  0  0
   22.6689   -4.8328  -12.8284 O   0  0  0  0  0  0  0  0  0  0  0  0
  1  2  1  0
  3  2  1  0
  3  5  1  0
  3  4  1  1
  5  6  2  0
  5 10  1  0
  8  7  1  0
  9  8  1  6
 10  9  1  0
 11  9  1  0
 11 13  1  0
 12 11  2  0
 14 19  1  0
 14 13  1  0
 14 15  1  1
 16 15  1  0
 17 16  1  0
 18 17  2  0
 19 20  1  0
 21 17  1  0
 22 19  2  0
M  END
$$$$
