SSE.pdb
     RDKit          3D

 22 21  0  0  1  0  0  0  0  0999 V2000
   25.9942  -22.7382  -18.7781 O   0  0  0  0  0  0  0  0  0  0  0  0
   27.0374  -21.7999  -18.8951 C   0  0  0  0  0  0  0  0  0  0  0  0
   27.4378  -21.2864  -17.5254 C   0  0  2  0  0  0  0  0  0  0  0  0
   28.0785  -22.3698  -16.8337 N   0  0  0  0  0  0  0  0  0  0  0  0
   26.3148  -20.6950  -16.7948 C   0  0  0  0  0  0  0  0  0  0  0  0
   25.8716  -21.2561  -15.7565 O   0  0  0  0  0  0  0  0  0  0  0  0
   23.5347  -16.9250  -15.7261 O   0  0  0  0  0  0  0  0  0  0  0  0
   24.4301  -17.4189  -16.6595 C   0  0  0  0  0  0  0  0  0  0  0  0
   24.5427  -18.9219  -16.4553 C   0  0  2  0  0  0  0  0  0  0  0  0
   25.6491  -19.4824  -17.1738 N   0  0  0  0  0  0  0  0  0  0  0  0
   23.2575  -19.5835  -16.7601 C   0  0  0  0  0  0  0  0  0  0  0  0
   22.9255  -19.9382  -17.9185 O   0  0  0  0  0  0  0  0  0  0  0  0
   22.3510  -19.8350  -15.7028 N   0  0  0  0  0  0  0  0  0  0  0  0
   21.0501  -20.5252  -15.9487 C   0  0  1  0  0  0  0  0  0  0  0  0
   20.6839  -21.2792  -14.7206 C   0  0  0  0  0  0  0  0  0  0  0  0
   19.5084  -22.1488  -14.8402 C   0  0  0  0  0  0  0  0  0  0  0  0
   19.0643  -22.8584  -13.6301 C   0  0  0  0  0  0  0  0  0  0  0  0
   18.0613  -23.6161  -13.6421 O   0  0  0  0  0  0  0  0  0  0  0  0
   20.0939  -19.6266  -16.5055 C   0  0  0  0  0  0  0  0  0  0  0  0
   19.0506  -20.0931  -17.3248 O   0  0  0  0  0  0  0  0  0  0  0  0
   19.7578  -22.6960  -12.4457 O   0  0  0  0  0  0  0  0  0  0  0  0
   20.1009  -18.3643  -16.3160 O   0  0  0  0  0  0  0  0  0  0  0  0
  1  2  1  0
  3  2  1  0
  3  5  1  0
  3  4  1  1
  5  6  2  0
  5 10  1  0
  8  7  1  0
  9  8  1  6
 10  9  1  0
 11  9  1  0
 11 13  1  0
 12 11  2  0
 14 19  1  0
 14 13  1  0
 14 15  1  1
 16 15  1  0
 17 16  1  0
 18 17  2  0
 19 20  1  0
 21 17  1  0
 22 19  2  0
M  END
$$$$
