SSE.pdb
     RDKit          3D

 22 21  0  0  1  0  0  0  0  0999 V2000
   18.6612   -8.1768  -18.5816 O   0  0  0  0  0  0  0  0  0  0  0  0
   18.3410   -9.1522  -19.5450 C   0  0  0  0  0  0  0  0  0  0  0  0
   17.5987  -10.3056  -18.8978 C   0  0  2  0  0  0  0  0  0  0  0  0
   16.2148  -10.1805  -19.2613 N   0  0  0  0  0  0  0  0  0  0  0  0
   17.8299  -10.3853  -17.4539 C   0  0  0  0  0  0  0  0  0  0  0  0
   16.8633  -10.2722  -16.6526 O   0  0  0  0  0  0  0  0  0  0  0  0
   21.6661  -10.5422  -15.6522 O   0  0  0  0  0  0  0  0  0  0  0  0
   20.6581  -11.3011  -15.0823 C   0  0  0  0  0  0  0  0  0  0  0  0
   19.3264  -10.6549  -15.4321 C   0  0  2  0  0  0  0  0  0  0  0  0
   19.1138  -10.5900  -16.8482 N   0  0  0  0  0  0  0  0  0  0  0  0
   19.1962   -9.3434  -14.7649 C   0  0  0  0  0  0  0  0  0  0  0  0
   19.2291   -9.2014  -13.5172 O   0  0  0  0  0  0  0  0  0  0  0  0
   19.0273   -8.1856  -15.5611 N   0  0  0  0  0  0  0  0  0  0  0  0
   19.0351   -6.8222  -14.9528 C   0  0  1  0  0  0  0  0  0  0  0  0
   20.4477   -6.4354  -14.6957 C   0  0  0  0  0  0  0  0  0  0  0  0
   20.6485   -5.0684  -14.2025 C   0  0  0  0  0  0  0  0  0  0  0  0
   22.0344   -4.6196  -13.9948 C   0  0  0  0  0  0  0  0  0  0  0  0
   22.7901   -5.1805  -13.1613 O   0  0  0  0  0  0  0  0  0  0  0  0
   18.2098   -5.9282  -15.6955 C   0  0  0  0  0  0  0  0  0  0  0  0
   18.0420   -6.0789  -17.0834 O   0  0  0  0  0  0  0  0  0  0  0  0
   22.5288   -3.5569  -14.7271 O   0  0  0  0  0  0  0  0  0  0  0  0
   17.5737   -4.9470  -15.1837 O   0  0  0  0  0  0  0  0  0  0  0  0
  1  2  1  0
  3  2  1  0
  3  5  1  0
  3  4  1  1
  5  6  2  0
  5 10  1  0
  8  7  1  0
  9  8  1  6
 10  9  1  0
 11  9  1  0
 11 13  1  0
 12 11  2  0
 14 19  1  0
 14 13  1  0
 14 15  1  6
 16 15  1  0
 17 16  1  0
 18 17  2  0
 19 20  1  0
 21 17  1  0
 22 19  2  0
M  END
$$$$
