SSE.pdb
     RDKit          3D

 22 21  0  0  1  0  0  0  0  0999 V2000
   17.2377  -11.4274  -17.6410 O   0  0  0  0  0  0  0  0  0  0  0  0
   18.3121  -12.2791  -17.9612 C   0  0  0  0  0  0  0  0  0  0  0  0
   19.0417  -12.7007  -16.7002 C   0  0  2  0  0  0  0  0  0  0  0  0
   18.1690  -13.5825  -15.9764 N   0  0  0  0  0  0  0  0  0  0  0  0
   19.5180  -11.5591  -15.9161 C   0  0  0  0  0  0  0  0  0  0  0  0
   18.7645  -11.0236  -15.0590 O   0  0  0  0  0  0  0  0  0  0  0  0
   23.2468   -9.7040  -16.5815 O   0  0  0  0  0  0  0  0  0  0  0  0
   22.7347   -9.6368  -15.2970 C   0  0  0  0  0  0  0  0  0  0  0  0
   21.2218   -9.7662  -15.3853 C   0  0  2  0  0  0  0  0  0  0  0  0
   20.8213  -10.9744  -16.0444 N   0  0  0  0  0  0  0  0  0  0  0  0
   20.6329   -8.5532  -15.9886 C   0  0  0  0  0  0  0  0  0  0  0  0
   20.3060   -8.4776  -17.1991 O   0  0  0  0  0  0  0  0  0  0  0  0
   20.4219   -7.4171  -15.1713 N   0  0  0  0  0  0  0  0  0  0  0  0
   19.8663   -6.1518  -15.7363 C   0  0  1  0  0  0  0  0  0  0  0  0
   18.4880   -5.9720  -15.2082 C   0  0  0  0  0  0  0  0  0  0  0  0
   17.8142   -4.7325  -15.6103 C   0  0  0  0  0  0  0  0  0  0  0  0
   16.3430   -4.7200  -15.5793 C   0  0  0  0  0  0  0  0  0  0  0  0
   15.6864   -5.6831  -15.1087 O   0  0  0  0  0  0  0  0  0  0  0  0
   20.7945   -5.0793  -15.5934 C   0  0  0  0  0  0  0  0  0  0  0  0
   20.7424   -3.9570  -16.4389 O   0  0  0  0  0  0  0  0  0  0  0  0
   15.6553   -3.6294  -16.0768 O   0  0  0  0  0  0  0  0  0  0  0  0
   21.7215   -5.0454  -14.7167 O   0  0  0  0  0  0  0  0  0  0  0  0
  1  2  1  0
  3  2  1  0
  3  5  1  0
  3  4  1  1
  5  6  2  0
  5 10  1  0
  8  7  1  0
  9  8  1  6
 10  9  1  0
 11  9  1  0
 11 13  1  0
 12 11  2  0
 14 19  1  0
 14 13  1  0
 14 15  1  1
 16 15  1  0
 17 16  1  0
 18 17  2  0
 19 20  1  0
 21 17  1  0
 22 19  2  0
M  END
$$$$
