VPG.pdb
     RDKit          3D

 19 19  0  0  1  0  0  0  0  0999 V2000
    7.0620  -15.4725   21.3497 C   0  0  0  0  0  0  0  0  0  0  0  0
    7.3284  -14.0229   21.6948 C   0  0  2  0  0  0  0  0  0  0  0  0
    7.3234  -13.1919   20.4218 C   0  0  0  0  0  0  0  0  0  0  0  0
    8.7178  -13.9858   22.3438 C   0  0  2  0  0  0  0  0  0  0  0  0
    9.6340  -14.5405   21.4014 N   0  0  0  0  0  0  0  0  0  0  0  0
    8.7220  -14.6064   23.6644 C   0  0  0  0  0  0  0  0  0  0  0  0
    9.5378  -15.5277   23.9104 O   0  0  0  0  0  0  0  0  0  0  0  0
    7.8368  -14.2122   24.6940 N   0  0  0  0  0  0  0  0  0  0  0  0
    6.8059  -13.2078   24.5231 C   0  0  0  0  0  0  0  0  0  0  0  0
    6.1657  -13.0457   25.9029 C   0  0  0  0  0  0  0  0  0  0  0  0
    7.3272  -13.4413   26.7913 C   0  0  0  0  0  0  0  0  0  0  0  0
    7.7860  -14.7082   26.0567 C   0  0  1  0  0  0  0  0  0  0  0  0
    6.7472  -15.7578   26.1552 C   0  0  0  0  0  0  0  0  0  0  0  0
    5.6971  -15.6960   25.4316 O   0  0  0  0  0  0  0  0  0  0  0  0
    6.8636  -16.8537   27.0337 N   0  0  0  0  0  0  0  0  0  0  0  0
    8.0339  -17.0621   27.8412 C   0  0  0  0  0  0  0  0  0  0  0  0
    8.7025  -18.3237   27.4758 C   0  0  0  0  0  0  0  0  0  0  0  0
    8.3059  -18.9899   26.4956 O   0  0  0  0  0  0  0  0  0  0  0  0
    9.7800  -18.7786   28.2227 O   0  0  0  0  0  0  0  0  0  0  0  0
  2  3  1  6
  2  1  1  0
  4  2  1  0
  4  5  1  6
  6  4  1  0
  6  7  2  0
  8  6  1  0
  9  8  1  0
 10 11  1  0
 10  9  1  0
 11 12  1  0
 12  8  1  0
 12 13  1  6
 13 15  1  0
 14 13  2  0
 15 16  1  0
 17 16  1  0
 17 19  1  0
 18 17  2  0
M  END
$$$$
