VPG.pdb
     RDKit          3D

 19 19  0  0  1  0  0  0  0  0999 V2000
    8.0558  -13.2117   27.2513 C   0  0  0  0  0  0  0  0  0  0  0  0
    7.3247  -12.5653   26.0940 C   0  0  2  0  0  0  0  0  0  0  0  0
    6.5901  -11.3296   26.5882 C   0  0  0  0  0  0  0  0  0  0  0  0
    6.3210  -13.6080   25.5859 C   0  0  2  0  0  0  0  0  0  0  0  0
    5.4456  -13.9089   26.6714 N   0  0  0  0  0  0  0  0  0  0  0  0
    6.9849  -14.7560   24.9773 C   0  0  0  0  0  0  0  0  0  0  0  0
    7.0119  -15.8501   25.5914 O   0  0  0  0  0  0  0  0  0  0  0  0
    7.6080  -14.6917   23.7097 N   0  0  0  0  0  0  0  0  0  0  0  0
    7.6450  -13.4934   22.8951 C   0  0  0  0  0  0  0  0  0  0  0  0
    8.3298  -13.9102   21.5924 C   0  0  0  0  0  0  0  0  0  0  0  0
    7.9735  -15.3821   21.5551 C   0  0  0  0  0  0  0  0  0  0  0  0
    8.2991  -15.7569   23.0072 C   0  0  1  0  0  0  0  0  0  0  0  0
    9.7542  -15.6370   23.2497 C   0  0  0  0  0  0  0  0  0  0  0  0
   10.2628  -14.5133   23.5791 O   0  0  0  0  0  0  0  0  0  0  0  0
   10.6311  -16.7341   23.1315 N   0  0  0  0  0  0  0  0  0  0  0  0
   11.8015  -16.8663   23.9547 C   0  0  0  0  0  0  0  0  0  0  0  0
   12.9838  -16.3081   23.2746 C   0  0  0  0  0  0  0  0  0  0  0  0
   12.9108  -15.9293   22.0859 O   0  0  0  0  0  0  0  0  0  0  0  0
   14.1884  -16.2006   23.9552 O   0  0  0  0  0  0  0  0  0  0  0  0
  2  3  1  1
  2  1  1  0
  4  2  1  0
  4  5  1  1
  6  4  1  0
  6  7  2  0
  8  6  1  0
  9  8  1  0
 10 11  1  0
 10  9  1  0
 11 12  1  0
 12  8  1  0
 12 13  1  6
 13 15  1  0
 14 13  2  0
 15 16  1  0
 17 16  1  0
 17 19  1  0
 18 17  2  0
M  END
$$$$
