VPG.pdb
     RDKit          3D

 19 19  0  0  1  0  0  0  0  0999 V2000
    8.1235  -13.0901   27.0846 C   0  0  0  0  0  0  0  0  0  0  0  0
    7.2357  -12.5017   26.0090 C   0  0  2  0  0  0  0  0  0  0  0  0
    6.4678  -11.3200   26.5789 C   0  0  0  0  0  0  0  0  0  0  0  0
    6.2633  -13.6153   25.6001 C   0  0  2  0  0  0  0  0  0  0  0  0
    5.5232  -13.9726   26.7662 N   0  0  0  0  0  0  0  0  0  0  0  0
    6.9436  -14.7160   24.9258 C   0  0  0  0  0  0  0  0  0  0  0  0
    7.0177  -15.8341   25.4908 O   0  0  0  0  0  0  0  0  0  0  0  0
    7.5314  -14.5791   23.6472 N   0  0  0  0  0  0  0  0  0  0  0  0
    7.6655  -13.3105   22.9589 C   0  0  0  0  0  0  0  0  0  0  0  0
    8.2647  -13.6520   21.5935 C   0  0  0  0  0  0  0  0  0  0  0  0
    7.7596  -15.0696   21.4202 C   0  0  0  0  0  0  0  0  0  0  0  0
    8.0890  -15.6263   22.8117 C   0  0  1  0  0  0  0  0  0  0  0  0
    9.5554  -15.6760   23.0059 C   0  0  0  0  0  0  0  0  0  0  0  0
   10.2161  -14.6024   23.2082 O   0  0  0  0  0  0  0  0  0  0  0  0
   10.2791  -16.8851   22.9775 N   0  0  0  0  0  0  0  0  0  0  0  0
   11.7154  -16.9146   23.0135 C   0  0  0  0  0  0  0  0  0  0  0  0
   12.1952  -17.3770   24.3280 C   0  0  0  0  0  0  0  0  0  0  0  0
   13.3679  -17.7863   24.4662 O   0  0  0  0  0  0  0  0  0  0  0  0
   11.3423  -17.3593   25.4226 O   0  0  0  0  0  0  0  0  0  0  0  0
  2  3  1  1
  2  1  1  0
  4  2  1  0
  4  5  1  1
  6  4  1  0
  6  7  2  0
  8  6  1  0
  9  8  1  0
 10 11  1  0
 10  9  1  0
 11 12  1  0
 12  8  1  0
 12 13  1  6
 13 15  1  0
 14 13  2  0
 15 16  1  0
 17 16  1  0
 17 19  1  0
 18 17  2  0
M  END
$$$$
