VPG.pdb
     RDKit          3D

 19 19  0  0  1  0  0  0  0  0999 V2000
    6.3137  -11.7397   27.1081 C   0  0  0  0  0  0  0  0  0  0  0  0
    7.1667  -12.8529   26.5383 C   0  0  2  0  0  0  0  0  0  0  0  0
    8.2757  -12.2544   25.6881 C   0  0  0  0  0  0  0  0  0  0  0  0
    6.2340  -13.7033   25.6666 C   0  0  2  0  0  0  0  0  0  0  0  0
    5.1680  -14.1467   26.5047 N   0  0  0  0  0  0  0  0  0  0  0  0
    6.9551  -14.7551   24.9576 C   0  0  0  0  0  0  0  0  0  0  0  0
    7.1168  -15.8712   25.5082 O   0  0  0  0  0  0  0  0  0  0  0  0
    7.4875  -14.5724   23.6606 N   0  0  0  0  0  0  0  0  0  0  0  0
    7.4428  -13.3118   22.9466 C   0  0  0  0  0  0  0  0  0  0  0  0
    8.0445  -13.6039   21.5709 C   0  0  0  0  0  0  0  0  0  0  0  0
    7.7176  -15.0770   21.4369 C   0  0  0  0  0  0  0  0  0  0  0  0
    8.1506  -15.5587   22.8281 C   0  0  1  0  0  0  0  0  0  0  0  0
    9.6161  -15.4201   22.9813 C   0  0  0  0  0  0  0  0  0  0  0  0
   10.1354  -14.2765   23.2108 O   0  0  0  0  0  0  0  0  0  0  0  0
   10.4918  -16.5201   22.8834 N   0  0  0  0  0  0  0  0  0  0  0  0
   11.7019  -16.6018   23.6542 C   0  0  0  0  0  0  0  0  0  0  0  0
   12.3675  -17.9000   23.4448 C   0  0  0  0  0  0  0  0  0  0  0  0
   11.8342  -18.9572   23.8447 O   0  0  0  0  0  0  0  0  0  0  0  0
   13.5950  -17.9533   22.7996 O   0  0  0  0  0  0  0  0  0  0  0  0
  2  3  1  6
  2  1  1  0
  4  2  1  0
  4  5  1  1
  6  4  1  0
  6  7  2  0
  8  6  1  0
  9  8  1  0
 10 11  1  0
 10  9  1  0
 11 12  1  0
 12  8  1  0
 12 13  1  6
 13 15  1  0
 14 13  2  0
 15 16  1  0
 17 16  1  0
 17 19  1  0
 18 17  2  0
M  END
$$$$
