VPG.pdb
     RDKit          3D

 19 19  0  0  1  0  0  0  0  0999 V2000
    6.3733  -11.8187   27.0197 C   0  0  0  0  0  0  0  0  0  0  0  0
    7.2487  -12.9401   26.5024 C   0  0  2  0  0  0  0  0  0  0  0  0
    8.4059  -12.3529   25.7105 C   0  0  0  0  0  0  0  0  0  0  0  0
    6.3591  -13.7894   25.5858 C   0  0  2  0  0  0  0  0  0  0  0  0
    5.2574  -14.2392   26.3727 N   0  0  0  0  0  0  0  0  0  0  0  0
    7.1148  -14.8365   24.9062 C   0  0  0  0  0  0  0  0  0  0  0  0
    7.2894  -15.9405   25.4767 O   0  0  0  0  0  0  0  0  0  0  0  0
    7.6671  -14.6620   23.6164 N   0  0  0  0  0  0  0  0  0  0  0  0
    7.6180  -13.4107   22.8865 C   0  0  0  0  0  0  0  0  0  0  0  0
    8.2472  -13.7111   21.5250 C   0  0  0  0  0  0  0  0  0  0  0  0
    7.9421  -15.1899   21.4032 C   0  0  0  0  0  0  0  0  0  0  0  0
    8.3574  -15.6492   22.8074 C   0  0  1  0  0  0  0  0  0  0  0  0
    9.8181  -15.4891   22.9839 C   0  0  0  0  0  0  0  0  0  0  0  0
   10.2797  -14.5650   23.7343 O   0  0  0  0  0  0  0  0  0  0  0  0
   10.7514  -16.3308   22.3460 N   0  0  0  0  0  0  0  0  0  0  0  0
   11.2676  -17.5136   22.9782 C   0  0  0  0  0  0  0  0  0  0  0  0
   12.3377  -17.1709   23.9320 C   0  0  0  0  0  0  0  0  0  0  0  0
   13.5326  -17.4134   23.6573 O   0  0  0  0  0  0  0  0  0  0  0  0
   12.0207  -16.5749   25.1444 O   0  0  0  0  0  0  0  0  0  0  0  0
  2  3  1  6
  2  1  1  0
  4  2  1  0
  4  5  1  1
  6  4  1  0
  6  7  2  0
  8  6  1  0
  9  8  1  0
 10 11  1  0
 10  9  1  0
 11 12  1  0
 12  8  1  0
 12 13  1  6
 13 15  1  0
 14 13  2  0
 15 16  1  0
 17 16  1  0
 17 19  1  0
 18 17  2  0
M  END
$$$$
