VPG.pdb
     RDKit          3D

 19 19  0  0  1  0  0  0  0  0999 V2000
    7.5227  -16.7838   22.7474 C   0  0  0  0  0  0  0  0  0  0  0  0
    6.7701  -15.4806   22.5835 C   0  0  2  0  0  0  0  0  0  0  0  0
    5.9828  -15.5125   21.2834 C   0  0  0  0  0  0  0  0  0  0  0  0
    7.8333  -14.3763   22.5297 C   0  0  2  0  0  0  0  0  0  0  0  0
    8.5895  -14.5821   21.3376 N   0  0  0  0  0  0  0  0  0  0  0  0
    8.6107  -14.3041   23.7624 C   0  0  0  0  0  0  0  0  0  0  0  0
    9.8039  -14.6927   23.7628 O   0  0  0  0  0  0  0  0  0  0  0  0
    8.0740  -13.8097   24.9734 N   0  0  0  0  0  0  0  0  0  0  0  0
    6.7082  -13.3452   25.1138 C   0  0  0  0  0  0  0  0  0  0  0  0
    6.6026  -12.8254   26.5485 C   0  0  0  0  0  0  0  0  0  0  0  0
    8.0424  -12.4286   26.8021 C   0  0  0  0  0  0  0  0  0  0  0  0
    8.7479  -13.6752   26.2515 C   0  0  1  0  0  0  0  0  0  0  0  0
    8.4348  -14.8510   27.0940 C   0  0  0  0  0  0  0  0  0  0  0  0
    7.2216  -15.1631   27.3405 O   0  0  0  0  0  0  0  0  0  0  0  0
    9.4389  -15.6665   27.6535 N   0  0  0  0  0  0  0  0  0  0  0  0
    9.3961  -17.0999   27.5609 C   0  0  0  0  0  0  0  0  0  0  0  0
   10.6189  -17.6964   28.1274 C   0  0  0  0  0  0  0  0  0  0  0  0
   11.7458  -17.2906   27.7704 O   0  0  0  0  0  0  0  0  0  0  0  0
   10.5229  -18.7158   29.0641 O   0  0  0  0  0  0  0  0  0  0  0  0
  2  3  1  6
  2  1  1  0
  4  2  1  0
  4  5  1  6
  6  4  1  0
  6  7  2  0
  8  6  1  0
  9  8  1  0
 10 11  1  0
 10  9  1  0
 11 12  1  0
 12  8  1  0
 12 13  1  1
 13 15  1  0
 14 13  2  0
 15 16  1  0
 17 16  1  0
 17 19  1  0
 18 17  2  0
M  END
$$$$
