SWW.pdb
     RDKit          3D

 35 38  0  0  1  0  0  0  0  0999 V2000
    9.3796  -18.2504   17.6981 O   0  0  0  0  0  0  0  0  0  0  0  0
    8.0391  -18.2821   18.0076 C   0  0  0  0  0  0  0  0  0  0  0  0
    7.5248  -16.9320   18.4624 C   0  0  2  0  0  0  0  0  0  0  0  0
    7.6569  -15.9229   17.4597 N   0  0  0  0  0  0  0  0  0  0  0  0
    8.1663  -16.5109   19.7361 C   0  0  0  0  0  0  0  0  0  0  0  0
    9.1532  -15.7131   19.7159 O   0  0  0  0  0  0  0  0  0  0  0  0
    7.7011  -16.9815   20.9886 N   0  0  0  0  0  0  0  0  0  0  0  0
    8.3382  -16.6418   22.2191 C   0  0  1  0  0  0  0  0  0  0  0  0
    7.4659  -17.0510   23.3917 C   0  0  0  0  0  0  0  0  0  0  0  0
    7.0868  -15.9272   24.2474 C   0  0  0  0  0  0  0  0  0  0  0  0
    6.4189  -16.0573   25.4651 C   0  0  0  0  0  0  0  0  0  0  0  0
    6.2447  -14.8309   25.9573 N   0  0  0  0  0  0  0  0  0  0  0  0
    6.7573  -13.9098   25.1363 C   0  0  0  0  0  0  0  0  0  0  0  0
    6.8350  -12.5233   25.1867 C   0  0  0  0  0  0  0  0  0  0  0  0
    7.4460  -11.8400   24.1532 C   0  0  0  0  0  0  0  0  0  0  0  0
    7.9857  -12.5029   23.0630 C   0  0  0  0  0  0  0  0  0  0  0  0
    7.8992  -13.8710   23.0316 C   0  0  0  0  0  0  0  0  0  0  0  0
    7.2908  -14.5804   24.0567 C   0  0  0  0  0  0  0  0  0  0  0  0
    9.6339  -17.3586   22.4060 C   0  0  0  0  0  0  0  0  0  0  0  0
    9.6411  -18.5773   22.1115 O   0  0  0  0  0  0  0  0  0  0  0  0
   10.7962  -16.7324   22.8824 N   0  0  0  0  0  0  0  0  0  0  0  0
   10.8532  -16.1452   24.2003 C   0  0  1  0  0  0  0  0  0  0  0  0
    9.7299  -16.6288   25.0565 C   0  0  0  0  0  0  0  0  0  0  0  0
   10.0100  -16.4609   26.5076 C   0  0  0  0  0  0  0  0  0  0  0  0
   10.3879  -17.4297   27.4130 C   0  0  0  0  0  0  0  0  0  0  0  0
   10.5401  -16.8688   28.6118 N   0  0  0  0  0  0  0  0  0  0  0  0
   10.2766  -15.5380   28.5568 C   0  0  0  0  0  0  0  0  0  0  0  0
   10.2908  -14.5338   29.5037 C   0  0  0  0  0  0  0  0  0  0  0  0
    9.9681  -13.2458   29.1336 C   0  0  0  0  0  0  0  0  0  0  0  0
    9.6338  -12.9885   27.8063 C   0  0  0  0  0  0  0  0  0  0  0  0
    9.6227  -14.0049   26.8648 C   0  0  0  0  0  0  0  0  0  0  0  0
    9.9451  -15.2823   27.2411 C   0  0  0  0  0  0  0  0  0  0  0  0
   12.1903  -16.4638   24.7874 C   0  0  0  0  0  0  0  0  0  0  0  0
   13.1338  -15.6693   24.7185 O   0  0  0  0  0  0  0  0  0  0  0  0
   12.4237  -17.6771   25.4384 O   0  0  0  0  0  0  0  0  0  0  0  0
  2  1  1  0
  3  2  1  0
  3  4  1  6
  5  6  2  0
  5  3  1  0
  7  5  1  0
  8  7  1  0
  8  9  1  1
 10 18  1  0
 10  9  1  0
 11 10  2  0
 12 11  1  0
 12 13  1  0
 13 18  2  0
 14 13  1  0
 14 15  2  0
 15 16  1  0
 16 17  2  0
 18 17  1  0
 19 21  1  0
 19  8  1  0
 20 19  2  0
 22 21  1  0
 22 33  1  0
 22 23  1  1
 24 32  1  0
 24 23  1  0
 25 24  2  0
 26 25  1  0
 26 27  1  0
 27 32  2  0
 28 27  1  0
 28 29  2  0
 29 30  1  0
 30 31  2  0
 32 31  1  0
 33 35  1  0
 34 33  2  0
M  END
$$$$
