SWW.pdb
     RDKit          3D

 35 38  0  0  1  0  0  0  0  0999 V2000
   12.2196  -18.8478   19.0378 O   0  0  0  0  0  0  0  0  0  0  0  0
   10.9994  -18.3983   18.5873 C   0  0  0  0  0  0  0  0  0  0  0  0
   10.8690  -16.8931   18.6947 C   0  0  2  0  0  0  0  0  0  0  0  0
   11.9263  -16.1972   18.0321 N   0  0  0  0  0  0  0  0  0  0  0  0
   10.7475  -16.4615   20.1124 C   0  0  0  0  0  0  0  0  0  0  0  0
   11.7263  -15.8960   20.6895 O   0  0  0  0  0  0  0  0  0  0  0  0
    9.5540  -16.6662   20.8475 N   0  0  0  0  0  0  0  0  0  0  0  0
    9.4352  -16.3218   22.2268 C   0  0  1  0  0  0  0  0  0  0  0  0
    7.9804  -16.3715   22.6564 C   0  0  0  0  0  0  0  0  0  0  0  0
    7.4379  -15.0592   23.0060 C   0  0  0  0  0  0  0  0  0  0  0  0
    6.9629  -14.1327   22.0777 C   0  0  0  0  0  0  0  0  0  0  0  0
    6.5508  -13.0627   22.7575 N   0  0  0  0  0  0  0  0  0  0  0  0
    6.7277  -13.2340   24.0706 C   0  0  0  0  0  0  0  0  0  0  0  0
    6.4679  -12.4396   25.1806 C   0  0  0  0  0  0  0  0  0  0  0  0
    6.7716  -12.9152   26.4415 C   0  0  0  0  0  0  0  0  0  0  0  0
    7.3310  -14.1686   26.6298 C   0  0  0  0  0  0  0  0  0  0  0  0
    7.5799  -14.9375   25.5222 C   0  0  0  0  0  0  0  0  0  0  0  0
    7.2841  -14.4830   24.2455 C   0  0  0  0  0  0  0  0  0  0  0  0
   10.1553  -17.2795   23.1166 C   0  0  0  0  0  0  0  0  0  0  0  0
   10.2508  -18.4584   22.7008 O   0  0  0  0  0  0  0  0  0  0  0  0
   10.7058  -16.9123   24.3544 N   0  0  0  0  0  0  0  0  0  0  0  0
   11.5664  -17.8049   25.0943 C   0  0  1  0  0  0  0  0  0  0  0  0
   12.1947  -17.1101   26.2566 C   0  0  0  0  0  0  0  0  0  0  0  0
   11.2266  -16.8576   27.3573 C   0  0  0  0  0  0  0  0  0  0  0  0
   10.6734  -17.7766   28.2236 C   0  0  0  0  0  0  0  0  0  0  0  0
    9.8541  -17.1448   29.0628 N   0  0  0  0  0  0  0  0  0  0  0  0
    9.8277  -15.8134   28.7977 C   0  0  0  0  0  0  0  0  0  0  0  0
    9.1542  -14.7515   29.3669 C   0  0  0  0  0  0  0  0  0  0  0  0
    9.3386  -13.4813   28.8641 C   0  0  0  0  0  0  0  0  0  0  0  0
   10.2043  -13.3002   27.7884 C   0  0  0  0  0  0  0  0  0  0  0  0
   10.8747  -14.3741   27.2250 C   0  0  0  0  0  0  0  0  0  0  0  0
   10.6859  -15.6332   27.7312 C   0  0  0  0  0  0  0  0  0  0  0  0
   10.7516  -18.9858   25.5134 C   0  0  0  0  0  0  0  0  0  0  0  0
   11.2707  -19.9797   26.0317 O   0  0  0  0  0  0  0  0  0  0  0  0
    9.3669  -19.0095   25.3334 O   0  0  0  0  0  0  0  0  0  0  0  0
  2  1  1  0
  3  2  1  0
  3  4  1  1
  5  6  2  0
  5  3  1  0
  7  5  1  0
  8  7  1  0
  8  9  1  1
 10 18  1  0
 10  9  1  0
 11 10  2  0
 12 11  1  0
 12 13  1  0
 13 18  2  0
 14 13  1  0
 14 15  2  0
 15 16  1  0
 16 17  2  0
 18 17  1  0
 19 21  1  0
 19  8  1  0
 20 19  2  0
 22 21  1  0
 22 33  1  0
 22 23  1  1
 24 32  1  0
 24 23  1  0
 25 24  2  0
 26 25  1  0
 26 27  1  0
 27 32  2  0
 28 27  1  0
 28 29  2  0
 29 30  1  0
 30 31  2  0
 32 31  1  0
 33 35  1  0
 34 33  2  0
M  END
$$$$
