SWW.pdb
     RDKit          3D

 35 38  0  0  1  0  0  0  0  0999 V2000
   10.9796  -19.0601   18.9501 O   0  0  0  0  0  0  0  0  0  0  0  0
    9.9666  -18.4507   18.2457 C   0  0  0  0  0  0  0  0  0  0  0  0
   10.0020  -16.9426   18.3817 C   0  0  2  0  0  0  0  0  0  0  0  0
   11.1283  -16.3541   17.7288 N   0  0  0  0  0  0  0  0  0  0  0  0
    9.9302  -16.5272   19.8077 C   0  0  0  0  0  0  0  0  0  0  0  0
   10.9566  -16.0500   20.3819 O   0  0  0  0  0  0  0  0  0  0  0  0
    8.7325  -16.6508   20.5539 N   0  0  0  0  0  0  0  0  0  0  0  0
    8.6358  -16.2488   21.9193 C   0  0  1  0  0  0  0  0  0  0  0  0
    7.1989  -16.3541   22.3965 C   0  0  0  0  0  0  0  0  0  0  0  0
    6.9912  -15.7867   23.7282 C   0  0  0  0  0  0  0  0  0  0  0  0
    6.6763  -16.5367   24.8614 C   0  0  0  0  0  0  0  0  0  0  0  0
    6.5640  -15.6877   25.8829 N   0  0  0  0  0  0  0  0  0  0  0  0
    6.7858  -14.4314   25.4861 C   0  0  0  0  0  0  0  0  0  0  0  0
    6.7900  -13.2085   26.1458 C   0  0  0  0  0  0  0  0  0  0  0  0
    7.0651  -12.0556   25.4362 C   0  0  0  0  0  0  0  0  0  0  0  0
    7.3380  -12.0862   24.0783 C   0  0  0  0  0  0  0  0  0  0  0  0
    7.3291  -13.3024   23.4452 C   0  0  0  0  0  0  0  0  0  0  0  0
    7.0560  -14.4744   24.1350 C   0  0  0  0  0  0  0  0  0  0  0  0
    9.4318  -17.1250   22.8283 C   0  0  0  0  0  0  0  0  0  0  0  0
    9.5314  -18.3286   22.4916 O   0  0  0  0  0  0  0  0  0  0  0  0
   10.0466  -16.6584   24.0006 N   0  0  0  0  0  0  0  0  0  0  0  0
   11.0797  -17.4163   24.6661 C   0  0  1  0  0  0  0  0  0  0  0  0
   11.8083  -16.5774   25.6631 C   0  0  0  0  0  0  0  0  0  0  0  0
   11.0920  -16.4919   26.9639 C   0  0  0  0  0  0  0  0  0  0  0  0
   10.9422  -17.4809   27.9128 C   0  0  0  0  0  0  0  0  0  0  0  0
   10.2342  -17.0002   28.9338 N   0  0  0  0  0  0  0  0  0  0  0  0
    9.8915  -15.7050   28.7136 C   0  0  0  0  0  0  0  0  0  0  0  0
    9.1771  -14.7804   29.4484 C   0  0  0  0  0  0  0  0  0  0  0  0
    8.9920  -13.5099   28.9468 C   0  0  0  0  0  0  0  0  0  0  0  0
    9.5331  -13.1892   27.7043 C   0  0  0  0  0  0  0  0  0  0  0  0
   10.2482  -14.1261   26.9756 C   0  0  0  0  0  0  0  0  0  0  0  0
   10.4277  -15.3865   27.4818 C   0  0  0  0  0  0  0  0  0  0  0  0
   10.4398  -18.6129   25.2929 C   0  0  0  0  0  0  0  0  0  0  0  0
    9.2123  -18.7171   25.3851 O   0  0  0  0  0  0  0  0  0  0  0  0
   11.2094  -19.6620   25.8002 O   0  0  0  0  0  0  0  0  0  0  0  0
  2  1  1  0
  3  2  1  0
  3  4  1  1
  5  6  2  0
  5  3  1  0
  7  5  1  0
  8  7  1  0
  8  9  1  1
 10 18  1  0
 10  9  1  0
 11 10  2  0
 12 11  1  0
 12 13  1  0
 13 18  2  0
 14 13  1  0
 14 15  2  0
 15 16  1  0
 16 17  2  0
 18 17  1  0
 19 21  1  0
 19  8  1  0
 20 19  2  0
 22 21  1  0
 22 33  1  0
 22 23  1  1
 24 32  1  0
 24 23  1  0
 25 24  2  0
 26 25  1  0
 26 27  1  0
 27 32  2  0
 28 27  1  0
 28 29  2  0
 29 30  1  0
 30 31  2  0
 32 31  1  0
 33 35  1  0
 34 33  2  0
M  END
$$$$
