SWW.pdb
     RDKit          3D

 35 38  0  0  1  0  0  0  0  0999 V2000
   11.1771  -19.7668   22.2514 O   0  0  0  0  0  0  0  0  0  0  0  0
   10.1114  -19.6857   21.3846 C   0  0  0  0  0  0  0  0  0  0  0  0
   10.1848  -18.4579   20.5007 C   0  0  2  0  0  0  0  0  0  0  0  0
   11.3247  -18.4631   19.6395 N   0  0  0  0  0  0  0  0  0  0  0  0
   10.1254  -17.2090   21.3056 C   0  0  0  0  0  0  0  0  0  0  0  0
   11.1685  -16.5022   21.4579 O   0  0  0  0  0  0  0  0  0  0  0  0
    8.9212  -16.7796   21.9156 N   0  0  0  0  0  0  0  0  0  0  0  0
    8.8706  -15.6750   22.8170 C   0  0  1  0  0  0  0  0  0  0  0  0
    7.6460  -14.8239   22.5354 C   0  0  0  0  0  0  0  0  0  0  0  0
    7.3798  -14.6521   21.1077 C   0  0  0  0  0  0  0  0  0  0  0  0
    6.5876  -15.5122   20.3471 C   0  0  0  0  0  0  0  0  0  0  0  0
    6.5729  -15.0422   19.0999 N   0  0  0  0  0  0  0  0  0  0  0  0
    7.3060  -13.9297   19.0002 C   0  0  0  0  0  0  0  0  0  0  0  0
    7.6052  -13.0748   17.9465 C   0  0  0  0  0  0  0  0  0  0  0  0
    8.4138  -11.9776   18.1716 C   0  0  0  0  0  0  0  0  0  0  0  0
    8.9369  -11.7057   19.4253 C   0  0  0  0  0  0  0  0  0  0  0  0
    8.6302  -12.5610   20.4522 C   0  0  0  0  0  0  0  0  0  0  0  0
    7.8206  -13.6695   20.2522 C   0  0  0  0  0  0  0  0  0  0  0  0
    8.7475  -16.1071   24.2403 C   0  0  0  0  0  0  0  0  0  0  0  0
    7.6563  -15.8551   24.8040 O   0  0  0  0  0  0  0  0  0  0  0  0
    9.7765  -16.7604   24.9362 N   0  0  0  0  0  0  0  0  0  0  0  0
   10.3417  -16.2082   26.1447 C   0  0  1  0  0  0  0  0  0  0  0  0
    9.3189  -16.1200   27.2285 C   0  0  0  0  0  0  0  0  0  0  0  0
    8.1023  -15.3785   26.8014 C   0  0  0  0  0  0  0  0  0  0  0  0
    6.9222  -15.8998   26.3148 C   0  0  0  0  0  0  0  0  0  0  0  0
    6.0823  -14.9004   26.0490 N   0  0  0  0  0  0  0  0  0  0  0  0
    6.6527  -13.7030   26.3395 C   0  0  0  0  0  0  0  0  0  0  0  0
    6.2092  -12.3993   26.2448 C   0  0  0  0  0  0  0  0  0  0  0  0
    7.0411  -11.3688   26.6271 C   0  0  0  0  0  0  0  0  0  0  0  0
    8.3152  -11.6704   27.1017 C   0  0  0  0  0  0  0  0  0  0  0  0
    8.7494  -12.9831   27.1919 C   0  0  0  0  0  0  0  0  0  0  0  0
    7.9159  -14.0014   26.8101 C   0  0  0  0  0  0  0  0  0  0  0  0
   11.5087  -17.0565   26.5352 C   0  0  0  0  0  0  0  0  0  0  0  0
   12.1774  -16.8128   27.5449 O   0  0  0  0  0  0  0  0  0  0  0  0
   11.8883  -18.1609   25.7694 O   0  0  0  0  0  0  0  0  0  0  0  0
  2  1  1  0
  3  2  1  0
  3  4  1  1
  5  6  2  0
  5  3  1  0
  7  5  1  0
  8  7  1  0
  8  9  1  6
 10 18  1  0
 10  9  1  0
 11 10  2  0
 12 11  1  0
 12 13  1  0
 13 18  2  0
 14 13  1  0
 14 15  2  0
 15 16  1  0
 16 17  2  0
 18 17  1  0
 19 21  1  0
 19  8  1  0
 20 19  2  0
 22 21  1  0
 22 33  1  0
 22 23  1  1
 24 32  1  0
 24 23  1  0
 25 24  2  0
 26 25  1  0
 26 27  1  0
 27 32  2  0
 28 27  1  0
 28 29  2  0
 29 30  1  0
 30 31  2  0
 32 31  1  0
 33 35  1  0
 34 33  2  0
M  END
$$$$
