SWW.pdb
     RDKit          3D

 35 38  0  0  1  0  0  0  0  0999 V2000
   10.4580  -17.9418   18.6521 O   0  0  0  0  0  0  0  0  0  0  0  0
    9.0921  -17.7757   18.6342 C   0  0  0  0  0  0  0  0  0  0  0  0
    8.6872  -16.3378   18.8846 C   0  0  2  0  0  0  0  0  0  0  0  0
    9.2717  -15.4276   17.9512 N   0  0  0  0  0  0  0  0  0  0  0  0
    8.9776  -15.9312   20.2851 C   0  0  0  0  0  0  0  0  0  0  0  0
    9.9496  -15.1530   20.5313 O   0  0  0  0  0  0  0  0  0  0  0  0
    8.1896  -16.3941   21.3674 N   0  0  0  0  0  0  0  0  0  0  0  0
    8.5603  -16.1855   22.7291 C   0  0  1  0  0  0  0  0  0  0  0  0
    7.5896  -16.8989   23.6522 C   0  0  0  0  0  0  0  0  0  0  0  0
    6.9015  -15.9957   24.5739 C   0  0  0  0  0  0  0  0  0  0  0  0
    5.8547  -16.3774   25.4131 C   0  0  0  0  0  0  0  0  0  0  0  0
    5.4823  -15.2987   26.1019 N   0  0  0  0  0  0  0  0  0  0  0  0
    6.2209  -14.2379   25.7638 C   0  0  0  0  0  0  0  0  0  0  0  0
    6.2338  -12.9120   26.1792 C   0  0  0  0  0  0  0  0  0  0  0  0
    7.1460  -12.0358   25.6240 C   0  0  0  0  0  0  0  0  0  0  0  0
    8.0524  -12.4454   24.6596 C   0  0  0  0  0  0  0  0  0  0  0  0
    8.0240  -13.7576   24.2628 C   0  0  0  0  0  0  0  0  0  0  0  0
    7.1180  -14.6572   24.8049 C   0  0  0  0  0  0  0  0  0  0  0  0
    9.9076  -16.7450   23.0443 C   0  0  0  0  0  0  0  0  0  0  0  0
   10.8530  -16.3571   22.3179 O   0  0  0  0  0  0  0  0  0  0  0  0
   10.1362  -17.6552   24.0879 N   0  0  0  0  0  0  0  0  0  0  0  0
   11.4575  -17.8687   24.6297 C   0  0  1  0  0  0  0  0  0  0  0  0
   12.0218  -16.6060   25.1915 C   0  0  0  0  0  0  0  0  0  0  0  0
   11.5367  -16.3323   26.5707 C   0  0  0  0  0  0  0  0  0  0  0  0
   11.6057  -17.1607   27.6708 C   0  0  0  0  0  0  0  0  0  0  0  0
   11.0594  -16.5415   28.7162 N   0  0  0  0  0  0  0  0  0  0  0  0
   10.6151  -15.3074   28.3656 C   0  0  0  0  0  0  0  0  0  0  0  0
    9.9895  -14.2960   29.0663 C   0  0  0  0  0  0  0  0  0  0  0  0
    9.6530  -13.1270   28.4179 C   0  0  0  0  0  0  0  0  0  0  0  0
    9.9541  -12.9950   27.0646 C   0  0  0  0  0  0  0  0  0  0  0  0
   10.5821  -14.0175   26.3717 C   0  0  0  0  0  0  0  0  0  0  0  0
   10.9133  -15.1759   27.0240 C   0  0  0  0  0  0  0  0  0  0  0  0
   11.3638  -18.9524   25.6549 C   0  0  0  0  0  0  0  0  0  0  0  0
   10.2734  -19.3686   26.0594 O   0  0  0  0  0  0  0  0  0  0  0  0
   12.5108  -19.5368   26.1962 O   0  0  0  0  0  0  0  0  0  0  0  0
  2  1  1  0
  3  2  1  0
  3  4  1  6
  5  6  2  0
  5  3  1  0
  7  5  1  0
  8  7  1  0
  8  9  1  1
 10 18  1  0
 10  9  1  0
 11 10  2  0
 12 11  1  0
 12 13  1  0
 13 18  2  0
 14 13  1  0
 14 15  2  0
 15 16  1  0
 16 17  2  0
 18 17  1  0
 19 21  1  0
 19  8  1  0
 20 19  2  0
 22 21  1  0
 22 33  1  0
 22 23  1  1
 24 32  1  0
 24 23  1  0
 25 24  2  0
 26 25  1  0
 26 27  1  0
 27 32  2  0
 28 27  1  0
 28 29  2  0
 29 30  1  0
 30 31  2  0
 32 31  1  0
 33 35  1  0
 34 33  2  0
M  END
$$$$
