SWW.pdb
     RDKit          3D

 35 38  0  0  1  0  0  0  0  0999 V2000
   10.2489  -20.2251   19.2918 O   0  0  0  0  0  0  0  0  0  0  0  0
   10.8036  -19.4767   18.2790 C   0  0  0  0  0  0  0  0  0  0  0  0
   10.1116  -18.1399   18.1103 C   0  0  2  0  0  0  0  0  0  0  0  0
   10.6259  -17.3850   17.0118 N   0  0  0  0  0  0  0  0  0  0  0  0
   10.1490  -17.3499   19.3695 C   0  0  0  0  0  0  0  0  0  0  0  0
   11.2531  -16.8972   19.8018 O   0  0  0  0  0  0  0  0  0  0  0  0
    8.9713  -17.0843   20.1105 N   0  0  0  0  0  0  0  0  0  0  0  0
    8.9814  -16.3269   21.3194 C   0  0  1  0  0  0  0  0  0  0  0  0
    7.5820  -15.8367   21.6428 C   0  0  0  0  0  0  0  0  0  0  0  0
    7.5597  -14.7914   22.6654 C   0  0  0  0  0  0  0  0  0  0  0  0
    8.0539  -13.5002   22.4799 C   0  0  0  0  0  0  0  0  0  0  0  0
    7.8641  -12.8333   23.6183 N   0  0  0  0  0  0  0  0  0  0  0  0
    7.2772  -13.6093   24.5340 C   0  0  0  0  0  0  0  0  0  0  0  0
    6.8727  -13.3984   25.8465 C   0  0  0  0  0  0  0  0  0  0  0  0
    6.2775  -14.4294   26.5472 C   0  0  0  0  0  0  0  0  0  0  0  0
    6.0724  -15.6738   25.9738 C   0  0  0  0  0  0  0  0  0  0  0  0
    6.4784  -15.8624   24.6778 C   0  0  0  0  0  0  0  0  0  0  0  0
    7.0783  -14.8433   23.9528 C   0  0  0  0  0  0  0  0  0  0  0  0
    9.4104  -17.1387   22.4960 C   0  0  0  0  0  0  0  0  0  0  0  0
    9.0813  -18.3485   22.4849 O   0  0  0  0  0  0  0  0  0  0  0  0
   10.1417  -16.6076   23.5699 N   0  0  0  0  0  0  0  0  0  0  0  0
   10.8575  -17.4578   24.4916 C   0  0  1  0  0  0  0  0  0  0  0  0
   11.5899  -16.6520   25.5128 C   0  0  0  0  0  0  0  0  0  0  0  0
   10.7947  -16.4511   26.7536 C   0  0  0  0  0  0  0  0  0  0  0  0
   10.1729  -17.4111   27.5237 C   0  0  0  0  0  0  0  0  0  0  0  0
    9.5658  -16.8185   28.5508 N   0  0  0  0  0  0  0  0  0  0  0  0
    9.7527  -15.4743   28.5092 C   0  0  0  0  0  0  0  0  0  0  0  0
    9.3390  -14.4389   29.3229 C   0  0  0  0  0  0  0  0  0  0  0  0
    9.6981  -13.1448   29.0121 C   0  0  0  0  0  0  0  0  0  0  0  0
   10.4732  -12.9131   27.8785 C   0  0  0  0  0  0  0  0  0  0  0  0
   10.8822  -13.9607   27.0691 C   0  0  0  0  0  0  0  0  0  0  0  0
   10.5211  -15.2439   27.3855 C   0  0  0  0  0  0  0  0  0  0  0  0
    9.8722  -18.3959   25.1108 C   0  0  0  0  0  0  0  0  0  0  0  0
    8.6563  -18.1839   25.0602 O   0  0  0  0  0  0  0  0  0  0  0  0
   10.2918  -19.5518   25.7727 O   0  0  0  0  0  0  0  0  0  0  0  0
  2  1  1  0
  3  2  1  0
  3  4  1  6
  5  6  2  0
  5  3  1  0
  7  5  1  0
  8  7  1  0
  8  9  1  1
 10 18  1  0
 10  9  1  0
 11 10  2  0
 12 11  1  0
 12 13  1  0
 13 18  2  0
 14 13  1  0
 14 15  2  0
 15 16  1  0
 16 17  2  0
 18 17  1  0
 19 21  1  0
 19  8  1  0
 20 19  2  0
 22 21  1  0
 22 33  1  0
 22 23  1  1
 24 32  1  0
 24 23  1  0
 25 24  2  0
 26 25  1  0
 26 27  1  0
 27 32  2  0
 28 27  1  0
 28 29  2  0
 29 30  1  0
 30 31  2  0
 32 31  1  0
 33 35  1  0
 34 33  2  0
M  END
$$$$
