SWW.pdb
     RDKit          3D

 35 38  0  0  1  0  0  0  0  0999 V2000
    9.9356  -20.7200   22.6065 O   0  0  0  0  0  0  0  0  0  0  0  0
   10.8459  -20.0744   21.8012 C   0  0  0  0  0  0  0  0  0  0  0  0
   10.1840  -19.0711   20.8796 C   0  0  2  0  0  0  0  0  0  0  0  0
   10.6602  -19.1562   19.5352 N   0  0  0  0  0  0  0  0  0  0  0  0
   10.3112  -17.6869   21.4078 C   0  0  0  0  0  0  0  0  0  0  0  0
   11.2776  -16.9526   21.0369 O   0  0  0  0  0  0  0  0  0  0  0  0
    9.3715  -17.1573   22.3260 N   0  0  0  0  0  0  0  0  0  0  0  0
    9.4586  -15.8248   22.8283 C   0  0  1  0  0  0  0  0  0  0  0  0
    8.0903  -15.1685   22.8141 C   0  0  0  0  0  0  0  0  0  0  0  0
    7.5468  -14.9986   21.4671 C   0  0  0  0  0  0  0  0  0  0  0  0
    6.5078  -15.7636   20.9369 C   0  0  0  0  0  0  0  0  0  0  0  0
    6.2841  -15.3276   19.6973 N   0  0  0  0  0  0  0  0  0  0  0  0
    7.1125  -14.3265   19.3865 C   0  0  0  0  0  0  0  0  0  0  0  0
    7.2830  -13.5464   18.2494 C   0  0  0  0  0  0  0  0  0  0  0  0
    8.2524  -12.5623   18.2407 C   0  0  0  0  0  0  0  0  0  0  0  0
    9.0629  -12.3314   19.3402 C   0  0  0  0  0  0  0  0  0  0  0  0
    8.8795  -13.1116   20.4528 C   0  0  0  0  0  0  0  0  0  0  0  0
    7.9131  -14.1060   20.4868 C   0  0  0  0  0  0  0  0  0  0  0  0
    9.9166  -15.7806   24.2481 C   0  0  0  0  0  0  0  0  0  0  0  0
   10.2321  -14.6521   24.6942 O   0  0  0  0  0  0  0  0  0  0  0  0
   10.0003  -16.9197   25.0639 N   0  0  0  0  0  0  0  0  0  0  0  0
   10.3980  -16.8305   26.4490 C   0  0  1  0  0  0  0  0  0  0  0  0
    9.2159  -16.9111   27.3571 C   0  0  0  0  0  0  0  0  0  0  0  0
    8.1337  -15.9693   26.9641 C   0  0  0  0  0  0  0  0  0  0  0  0
    6.9212  -16.2711   26.3812 C   0  0  0  0  0  0  0  0  0  0  0  0
    6.2380  -15.1435   26.1899 N   0  0  0  0  0  0  0  0  0  0  0  0
    6.9481  -14.0715   26.6258 C   0  0  0  0  0  0  0  0  0  0  0  0
    6.6892  -12.7159   26.6515 C   0  0  0  0  0  0  0  0  0  0  0  0
    7.6309  -11.8537   27.1710 C   0  0  0  0  0  0  0  0  0  0  0  0
    8.8266  -12.3745   27.6594 C   0  0  0  0  0  0  0  0  0  0  0  0
    9.0753  -13.7373   27.6279 C   0  0  0  0  0  0  0  0  0  0  0  0
    8.1337  -14.5873   27.1101 C   0  0  0  0  0  0  0  0  0  0  0  0
   11.3897  -17.9174   26.7128 C   0  0  0  0  0  0  0  0  0  0  0  0
   11.6573  -18.7707   25.8606 O   0  0  0  0  0  0  0  0  0  0  0  0
   12.0530  -18.0091   27.9383 O   0  0  0  0  0  0  0  0  0  0  0  0
  2  1  1  0
  3  2  1  0
  3  4  1  6
  5  6  2  0
  5  3  1  0
  7  5  1  0
  8  7  1  0
  8  9  1  1
 10 18  1  0
 10  9  1  0
 11 10  2  0
 12 11  1  0
 12 13  1  0
 13 18  2  0
 14 13  1  0
 14 15  2  0
 15 16  1  0
 16 17  2  0
 18 17  1  0
 19 21  1  0
 19  8  1  0
 20 19  2  0
 22 21  1  0
 22 33  1  0
 22 23  1  1
 24 32  1  0
 24 23  1  0
 25 24  2  0
 26 25  1  0
 26 27  1  0
 27 32  2  0
 28 27  1  0
 28 29  2  0
 29 30  1  0
 30 31  2  0
 32 31  1  0
 33 35  1  0
 34 33  2  0
M  END
$$$$
