QIQ.pdb
     RDKit          3D

 27 26  0  0  1  0  0  0  0  0999 V2000
    8.9913  -12.2703   18.4355 N   0  0  0  0  0  0  0  0  0  0  0  0
    7.9104  -13.1356   18.1528 C   0  0  0  0  0  0  0  0  0  0  0  0
    7.5661  -13.3036   16.9627 O   0  0  0  0  0  0  0  0  0  0  0  0
    7.1783  -13.8449   19.2203 C   0  0  0  0  0  0  0  0  0  0  0  0
    7.8244  -13.6057   20.5563 C   0  0  0  0  0  0  0  0  0  0  0  0
    8.0072  -14.9019   21.3190 C   0  0  2  0  0  0  0  0  0  0  0  0
    6.6891  -15.4917   21.4952 N   0  0  0  0  0  0  0  0  0  0  0  0
    8.5357  -14.6350   22.6831 C   0  0  0  0  0  0  0  0  0  0  0  0
    9.7059  -14.1361   22.7417 O   0  0  0  0  0  0  0  0  0  0  0  0
    5.8021  -12.0505   26.1445 C   0  0  0  0  0  0  0  0  0  0  0  0
    6.9490  -12.6461   25.3450 C   0  0  0  0  0  0  0  0  0  0  0  0
    7.4978  -13.8752   25.9812 C   0  0  2  0  0  0  0  0  0  0  0  0
    8.1196  -13.6181   27.3332 C   0  0  0  0  0  0  0  0  0  0  0  0
    8.5081  -14.6358   25.1652 C   0  0  2  0  0  0  0  0  0  0  0  0
    7.8322  -14.8966   23.8737 N   0  0  0  0  0  0  0  0  0  0  0  0
    8.8260  -15.9093   25.8182 C   0  0  0  0  0  0  0  0  0  0  0  0
    7.9452  -16.7383   26.1398 O   0  0  0  0  0  0  0  0  0  0  0  0
   14.0618  -17.8252   23.8720 N   0  0  0  0  0  0  0  0  0  0  0  0
   12.9100  -18.6436   23.9916 C   0  0  0  0  0  0  0  0  0  0  0  0
   12.9330  -19.8155   23.5290 O   0  0  0  0  0  0  0  0  0  0  0  0
   11.7139  -18.1341   24.6494 C   0  0  0  0  0  0  0  0  0  0  0  0
   11.7294  -18.0188   26.1169 C   0  0  0  0  0  0  0  0  0  0  0  0
   10.5282  -17.5149   26.8218 C   0  0  2  0  0  0  0  0  0  0  0  0
   10.1697  -16.2618   26.1183 N   0  0  0  0  0  0  0  0  0  0  0  0
   10.5600  -17.3195   28.2504 C   0  0  0  0  0  0  0  0  0  0  0  0
   10.7199  -16.1595   28.7364 O   0  0  0  0  0  0  0  0  0  0  0  0
   10.4157  -18.3525   29.1612 O   0  0  0  0  0  0  0  0  0  0  0  0
  2  1  1  0
  3  2  2  0
  4  2  1  0
  5  4  1  0
  6  7  1  1
  6  5  1  0
  8  6  1  0
  9  8  2  0
 10 11  1  0
 11 12  1  0
 12 14  1  0
 12 13  1  1
 14 15  1  6
 15  8  1  0
 16 14  1  0
 16 17  2  0
 18 19  1  0
 19 21  1  0
 20 19  2  0
 21 22  1  0
 23 22  1  6
 23 24  1  0
 24 16  1  0
 25 23  1  0
 26 25  2  0
 27 25  1  0
M  END
$$$$
