QIQ.pdb
     RDKit          3D

 27 26  0  0  1  0  0  0  0  0999 V2000
    8.2272  -20.1071   18.9397 N   0  0  0  0  0  0  0  0  0  0  0  0
    7.2715  -19.1154   19.2560 C   0  0  0  0  0  0  0  0  0  0  0  0
    6.8549  -18.3655   18.3465 O   0  0  0  0  0  0  0  0  0  0  0  0
    6.7523  -18.9403   20.6266 C   0  0  0  0  0  0  0  0  0  0  0  0
    7.6653  -18.0581   21.4314 C   0  0  0  0  0  0  0  0  0  0  0  0
    7.3623  -16.5925   21.1964 C   0  0  2  0  0  0  0  0  0  0  0  0
    7.9062  -16.2401   19.8939 N   0  0  0  0  0  0  0  0  0  0  0  0
    8.0715  -15.7464   22.1926 C   0  0  0  0  0  0  0  0  0  0  0  0
    9.2638  -15.4126   21.8949 O   0  0  0  0  0  0  0  0  0  0  0  0
    6.8293  -11.6416   26.5119 C   0  0  0  0  0  0  0  0  0  0  0  0
    7.8986  -12.4090   25.7522 C   0  0  0  0  0  0  0  0  0  0  0  0
    7.3221  -13.5026   24.9226 C   0  0  2  0  0  0  0  0  0  0  0  0
    6.3339  -14.3618   25.6747 C   0  0  0  0  0  0  0  0  0  0  0  0
    8.3197  -14.4300   24.2824 C   0  0  2  0  0  0  0  0  0  0  0  0
    7.5111  -15.3097   23.4076 N   0  0  0  0  0  0  0  0  0  0  0  0
    8.9862  -15.2376   25.3084 C   0  0  0  0  0  0  0  0  0  0  0  0
    8.4576  -16.2538   25.8127 O   0  0  0  0  0  0  0  0  0  0  0  0
   11.4342  -16.1406   30.2177 N   0  0  0  0  0  0  0  0  0  0  0  0
   10.3190  -15.2972   29.9817 C   0  0  0  0  0  0  0  0  0  0  0  0
    9.9370  -14.5088   30.8876 O   0  0  0  0  0  0  0  0  0  0  0  0
    9.6264  -15.3389   28.7005 C   0  0  0  0  0  0  0  0  0  0  0  0
   10.1237  -16.2732   27.6774 C   0  0  0  0  0  0  0  0  0  0  0  0
   11.0772  -15.7916   26.6514 C   0  0  2  0  0  0  0  0  0  0  0  0
   10.2819  -14.8950   25.7812 N   0  0  0  0  0  0  0  0  0  0  0  0
   11.8343  -16.7386   25.8702 C   0  0  0  0  0  0  0  0  0  0  0  0
   11.5325  -16.9584   24.6588 O   0  0  0  0  0  0  0  0  0  0  0  0
   12.9138  -17.4457   26.3724 O   0  0  0  0  0  0  0  0  0  0  0  0
  2  1  1  0
  3  2  2  0
  4  2  1  0
  5  4  1  0
  6  7  1  6
  6  5  1  0
  8  6  1  0
  9  8  2  0
 10 11  1  0
 11 12  1  0
 12 14  1  0
 12 13  1  1
 14 15  1  6
 15  8  1  0
 16 14  1  0
 16 17  2  0
 18 19  1  0
 19 21  1  0
 20 19  2  0
 21 22  1  0
 23 22  1  1
 23 24  1  0
 24 16  1  0
 25 23  1  0
 26 25  2  0
 27 25  1  0
M  END
$$$$
