QIQ.pdb
     RDKit          3D

 27 26  0  0  1  0  0  0  0  0999 V2000
    9.7654  -21.8023   18.1787 N   0  0  0  0  0  0  0  0  0  0  0  0
   10.2048  -21.3345   16.9197 C   0  0  0  0  0  0  0  0  0  0  0  0
   10.7408  -22.1409   16.1288 O   0  0  0  0  0  0  0  0  0  0  0  0
   10.0491  -19.9241   16.5130 C   0  0  0  0  0  0  0  0  0  0  0  0
    9.3666  -19.1325   17.5933 C   0  0  0  0  0  0  0  0  0  0  0  0
    9.3425  -17.6546   17.2607 C   0  0  2  0  0  0  0  0  0  0  0  0
   10.4320  -17.4010   16.3306 N   0  0  0  0  0  0  0  0  0  0  0  0
    9.6253  -16.8418   18.4734 C   0  0  0  0  0  0  0  0  0  0  0  0
   10.8445  -16.7851   18.8367 O   0  0  0  0  0  0  0  0  0  0  0  0
    6.6203  -12.4999   19.7258 C   0  0  0  0  0  0  0  0  0  0  0  0
    7.7846  -13.4456   19.4824 C   0  0  0  0  0  0  0  0  0  0  0  0
    8.0073  -14.3685   20.6293 C   0  0  2  0  0  0  0  0  0  0  0  0
    8.3296  -13.6492   21.9174 C   0  0  0  0  0  0  0  0  0  0  0  0
    9.0700  -15.4148   20.4271 C   0  0  2  0  0  0  0  0  0  0  0  0
    8.6470  -16.1544   19.2159 N   0  0  0  0  0  0  0  0  0  0  0  0
    9.1011  -16.3282   21.5734 C   0  0  0  0  0  0  0  0  0  0  0  0
    8.5200  -17.4366   21.5659 O   0  0  0  0  0  0  0  0  0  0  0  0
   13.1187  -18.6892   20.3351 N   0  0  0  0  0  0  0  0  0  0  0  0
   12.8704  -19.4505   21.5052 C   0  0  0  0  0  0  0  0  0  0  0  0
   13.3742  -20.6004   21.6137 O   0  0  0  0  0  0  0  0  0  0  0  0
   12.0448  -18.9037   22.5740 C   0  0  0  0  0  0  0  0  0  0  0  0
   11.5488  -17.5256   22.4266 C   0  0  0  0  0  0  0  0  0  0  0  0
   10.6764  -16.9482   23.4751 C   0  0  2  0  0  0  0  0  0  0  0  0
    9.8042  -15.9878   22.7607 N   0  0  0  0  0  0  0  0  0  0  0  0
   11.2613  -16.3473   24.6487 C   0  0  0  0  0  0  0  0  0  0  0  0
   11.4774  -15.0988   24.6908 O   0  0  0  0  0  0  0  0  0  0  0  0
   11.6097  -17.0695   25.7777 O   0  0  0  0  0  0  0  0  0  0  0  0
  2  1  1  0
  3  2  2  0
  4  2  1  0
  5  4  1  0
  6  7  1  6
  6  5  1  0
  8  6  1  0
  9  8  2  0
 10 11  1  0
 11 12  1  0
 12 14  1  0
 12 13  1  1
 14 15  1  6
 15  8  1  0
 16 14  1  0
 16 17  2  0
 18 19  1  0
 19 21  1  0
 20 19  2  0
 21 22  1  0
 23 22  1  6
 23 24  1  0
 24 16  1  0
 25 23  1  0
 26 25  2  0
 27 25  1  0
M  END
$$$$
