QIQ.pdb
     RDKit          3D

 27 26  0  0  1  0  0  0  0  0999 V2000
   12.4178  -16.3430   14.5528 N   0  0  0  0  0  0  0  0  0  0  0  0
   11.6272  -17.4897   14.3139 C   0  0  0  0  0  0  0  0  0  0  0  0
   11.9034  -18.2217   13.3387 O   0  0  0  0  0  0  0  0  0  0  0  0
   10.4873  -17.8466   15.1811 C   0  0  0  0  0  0  0  0  0  0  0  0
   10.3198  -16.8354   16.2806 C   0  0  0  0  0  0  0  0  0  0  0  0
   10.0024  -17.5062   17.6014 C   0  0  2  0  0  0  0  0  0  0  0  0
    8.6032  -17.9026   17.5619 N   0  0  0  0  0  0  0  0  0  0  0  0
   10.1354  -16.5393   18.7233 C   0  0  0  0  0  0  0  0  0  0  0  0
   11.3235  -16.2869   19.1061 O   0  0  0  0  0  0  0  0  0  0  0  0
    6.7904  -12.3507   19.2246 C   0  0  0  0  0  0  0  0  0  0  0  0
    8.0706  -13.1693   19.2387 C   0  0  0  0  0  0  0  0  0  0  0  0
    8.1907  -14.0022   20.4669 C   0  0  2  0  0  0  0  0  0  0  0  0
    8.2881  -13.1846   21.7328 C   0  0  0  0  0  0  0  0  0  0  0  0
    9.3340  -14.9810   20.4815 C   0  0  2  0  0  0  0  0  0  0  0  0
    9.0514  -15.9093   19.3629 N   0  0  0  0  0  0  0  0  0  0  0  0
    9.3437  -15.7242   21.7450 C   0  0  0  0  0  0  0  0  0  0  0  0
    8.3978  -16.4644   22.0970 O   0  0  0  0  0  0  0  0  0  0  0  0
   10.9503  -20.2500   20.9720 N   0  0  0  0  0  0  0  0  0  0  0  0
   11.2322  -20.4070   22.3527 C   0  0  0  0  0  0  0  0  0  0  0  0
   11.4728  -21.5570   22.8082 O   0  0  0  0  0  0  0  0  0  0  0  0
   11.2493  -19.2468   23.2339 C   0  0  0  0  0  0  0  0  0  0  0  0
   10.9333  -17.9325   22.6507 C   0  0  0  0  0  0  0  0  0  0  0  0
   10.8411  -16.7462   23.5327 C   0  0  2  0  0  0  0  0  0  0  0  0
   10.4458  -15.6343   22.6378 N   0  0  0  0  0  0  0  0  0  0  0  0
   11.9622  -16.3751   24.3607 C   0  0  0  0  0  0  0  0  0  0  0  0
   12.0404  -16.7859   25.5575 O   0  0  0  0  0  0  0  0  0  0  0  0
   13.0015  -15.5747   23.9169 O   0  0  0  0  0  0  0  0  0  0  0  0
  2  1  1  0
  3  2  2  0
  4  2  1  0
  5  4  1  0
  6  7  1  6
  6  5  1  0
  8  6  1  0
  9  8  2  0
 10 11  1  0
 11 12  1  0
 12 14  1  0
 12 13  1  1
 14 15  1  6
 15  8  1  0
 16 14  1  0
 16 17  2  0
 18 19  1  0
 19 21  1  0
 20 19  2  0
 21 22  1  0
 23 22  1  6
 23 24  1  0
 24 16  1  0
 25 23  1  0
 26 25  2  0
 27 25  1  0
M  END
$$$$
