QIQ.pdb
     RDKit          3D

 27 26  0  0  1  0  0  0  0  0999 V2000
    5.2108  -18.5218   21.9746 N   0  0  0  0  0  0  0  0  0  0  0  0
    5.2509  -18.1579   20.6097 C   0  0  0  0  0  0  0  0  0  0  0  0
    4.3327  -18.5438   19.8541 O   0  0  0  0  0  0  0  0  0  0  0  0
    6.3436  -17.3369   20.0523 C   0  0  0  0  0  0  0  0  0  0  0  0
    7.2637  -16.8662   21.1438 C   0  0  0  0  0  0  0  0  0  0  0  0
    7.1587  -15.3682   21.3442 C   0  0  2  0  0  0  0  0  0  0  0  0
    7.8306  -14.7318   20.2218 N   0  0  0  0  0  0  0  0  0  0  0  0
    7.8948  -14.9522   22.5675 C   0  0  0  0  0  0  0  0  0  0  0  0
    9.1655  -15.0002   22.4989 O   0  0  0  0  0  0  0  0  0  0  0  0
    5.7901  -11.4074   26.0797 C   0  0  0  0  0  0  0  0  0  0  0  0
    6.8236  -12.1102   25.2152 C   0  0  0  0  0  0  0  0  0  0  0  0
    7.2994  -13.3801   25.8298 C   0  0  2  0  0  0  0  0  0  0  0  0
    8.0805  -13.1677   27.1046 C   0  0  0  0  0  0  0  0  0  0  0  0
    8.1330  -14.2624   24.9401 C   0  0  2  0  0  0  0  0  0  0  0  0
    7.2796  -14.5221   23.7581 N   0  0  0  0  0  0  0  0  0  0  0  0
    8.4274  -15.5276   25.6197 C   0  0  0  0  0  0  0  0  0  0  0  0
    7.5283  -16.3014   26.0189 O   0  0  0  0  0  0  0  0  0  0  0  0
   13.6751  -18.4874   24.2585 N   0  0  0  0  0  0  0  0  0  0  0  0
   13.2525  -19.2601   25.3697 C   0  0  0  0  0  0  0  0  0  0  0  0
   13.9387  -20.2540   25.7291 O   0  0  0  0  0  0  0  0  0  0  0  0
   12.0387  -18.9025   26.0920 C   0  0  0  0  0  0  0  0  0  0  0  0
   11.3117  -17.6958   25.6650 C   0  0  0  0  0  0  0  0  0  0  0  0
   10.1112  -17.2630   26.4168 C   0  0  2  0  0  0  0  0  0  0  0  0
    9.7678  -15.9352   25.8577 N   0  0  0  0  0  0  0  0  0  0  0  0
   10.1369  -17.2303   27.8585 C   0  0  0  0  0  0  0  0  0  0  0  0
   10.2796  -16.1308   28.4733 O   0  0  0  0  0  0  0  0  0  0  0  0
   10.0048  -18.3617   28.6459 O   0  0  0  0  0  0  0  0  0  0  0  0
  2  1  1  0
  3  2  2  0
  4  2  1  0
  5  4  1  0
  6  7  1  6
  6  5  1  0
  8  6  1  0
  9  8  2  0
 10 11  1  0
 11 12  1  0
 12 14  1  0
 12 13  1  1
 14 15  1  6
 15  8  1  0
 16 14  1  0
 16 17  2  0
 18 19  1  0
 19 21  1  0
 20 19  2  0
 21 22  1  0
 23 22  1  6
 23 24  1  0
 24 16  1  0
 25 23  1  0
 26 25  2  0
 27 25  1  0
M  END
$$$$
