DDK.pdb
     RDKit          3D

 26 25  0  0  1  0  0  0  0  0999 V2000
   10.8573  -17.0634   19.3877 N   0  0  0  0  0  0  0  0  0  0  0  0
    9.5987  -17.3158   20.0554 C   0  0  1  0  0  0  0  0  0  0  0  0
    8.9410  -18.5107   19.4520 C   0  0  0  0  0  0  0  0  0  0  0  0
    8.6150  -18.2274   18.0439 C   0  0  0  0  0  0  0  0  0  0  0  0
    7.4852  -17.7933   17.7451 O   0  0  0  0  0  0  0  0  0  0  0  0
    9.8810  -17.4880   21.5084 C   0  0  0  0  0  0  0  0  0  0  0  0
    8.9259  -17.5467   22.2898 O   0  0  0  0  0  0  0  0  0  0  0  0
    9.5404  -18.4338   17.0405 O   0  0  0  0  0  0  0  0  0  0  0  0
   11.2015  -17.5850   22.0114 N   0  0  0  0  0  0  0  0  0  0  0  0
   11.6221  -17.6622   23.3644 C   0  0  1  0  0  0  0  0  0  0  0  0
   13.0056  -18.1746   23.4821 C   0  0  0  0  0  0  0  0  0  0  0  0
   13.0548  -19.5910   23.0363 C   0  0  0  0  0  0  0  0  0  0  0  0
   13.9987  -20.0849   22.3726 O   0  0  0  0  0  0  0  0  0  0  0  0
   11.3225  -16.4640   24.1994 C   0  0  0  0  0  0  0  0  0  0  0  0
   12.1935  -15.5710   24.2666 O   0  0  0  0  0  0  0  0  0  0  0  0
   12.0127  -20.4864   23.3431 O   0  0  0  0  0  0  0  0  0  0  0  0
   10.0842  -16.3369   24.8998 N   0  0  0  0  0  0  0  0  0  0  0  0
    9.8155  -15.2371   25.8031 C   0  0  1  0  0  0  0  0  0  0  0  0
    8.4645  -14.6653   25.4770 C   0  0  0  0  0  0  0  0  0  0  0  0
    8.0421  -13.5149   26.3235 C   0  0  0  0  0  0  0  0  0  0  0  0
    6.6334  -13.0629   26.0398 C   0  0  0  0  0  0  0  0  0  0  0  0
    6.2935  -11.9006   26.9514 C   0  0  0  0  0  0  0  0  0  0  0  0
    4.9085  -11.4813   26.7874 N   0  0  0  0  0  0  0  0  0  0  0  0
    9.9281  -15.6567   27.2221 C   0  0  0  0  0  0  0  0  0  0  0  0
    9.7126  -16.9908   27.6034 O   0  0  0  0  0  0  0  0  0  0  0  0
   10.2164  -14.8659   28.1520 O   0  0  0  0  0  0  0  0  0  0  0  0
  2  1  1  6
  2  3  1  0
  4  3  1  0
  5  4  2  0
  6  7  2  0
  6  2  1  0
  8  4  1  0
  9  6  1  0
 10  9  1  0
 10 11  1  6
 12 11  1  0
 13 12  2  0
 14 10  1  0
 14 15  2  0
 16 12  1  0
 17 14  1  0
 18 17  1  0
 18 19  1  1
 19 20  1  0
 20 21  1  0
 21 22  1  0
 23 22  1  0
 24 18  1  0
 25 24  1  0
 26 24  2  0
M  END
$$$$
