DDK.pdb
     RDKit          3D

 26 25  0  0  1  0  0  0  0  0999 V2000
   12.1906  -15.8112   18.1515 N   0  0  0  0  0  0  0  0  0  0  0  0
   11.2686  -16.8572   18.5379 C   0  0  1  0  0  0  0  0  0  0  0  0
   10.9681  -17.7218   17.3604 C   0  0  0  0  0  0  0  0  0  0  0  0
   10.2355  -16.9354   16.3536 C   0  0  0  0  0  0  0  0  0  0  0  0
   10.1905  -15.6932   16.4508 O   0  0  0  0  0  0  0  0  0  0  0  0
   11.8850  -17.6139   19.6640 C   0  0  0  0  0  0  0  0  0  0  0  0
   11.2612  -18.5667   20.1428 O   0  0  0  0  0  0  0  0  0  0  0  0
    9.5926  -17.5485   15.2969 O   0  0  0  0  0  0  0  0  0  0  0  0
   13.1534  -17.2728   20.1938 N   0  0  0  0  0  0  0  0  0  0  0  0
   13.8084  -17.8223   21.3262 C   0  0  1  0  0  0  0  0  0  0  0  0
   15.1949  -17.3213   21.4567 C   0  0  0  0  0  0  0  0  0  0  0  0
   15.9912  -17.7373   20.2733 C   0  0  0  0  0  0  0  0  0  0  0  0
   15.9169  -18.8718   19.7416 O   0  0  0  0  0  0  0  0  0  0  0  0
   13.0174  -17.8191   22.5900 C   0  0  0  0  0  0  0  0  0  0  0  0
   12.8096  -16.7176   23.1416 O   0  0  0  0  0  0  0  0  0  0  0  0
   16.9021  -16.8543   19.6631 O   0  0  0  0  0  0  0  0  0  0  0  0
   12.5128  -19.0303   23.1541 N   0  0  0  0  0  0  0  0  0  0  0  0
   11.7059  -19.0465   24.3567 C   0  0  1  0  0  0  0  0  0  0  0  0
   10.8223  -20.2618   24.3274 C   0  0  0  0  0  0  0  0  0  0  0  0
    9.9493  -20.4397   25.5208 C   0  0  0  0  0  0  0  0  0  0  0  0
    9.0413  -21.6366   25.4114 C   0  0  0  0  0  0  0  0  0  0  0  0
    8.1758  -21.7164   26.6531 C   0  0  0  0  0  0  0  0  0  0  0  0
    7.1831  -22.7766   26.5442 N   0  0  0  0  0  0  0  0  0  0  0  0
   12.5460  -18.9834   25.5784 C   0  0  0  0  0  0  0  0  0  0  0  0
   12.1033  -18.3118   26.7294 O   0  0  0  0  0  0  0  0  0  0  0  0
   13.6798  -19.5133   25.6611 O   0  0  0  0  0  0  0  0  0  0  0  0
  2  1  1  6
  2  3  1  0
  4  3  1  0
  5  4  2  0
  6  7  2  0
  6  2  1  0
  8  4  1  0
  9  6  1  0
 10  9  1  0
 10 11  1  1
 12 11  1  0
 13 12  2  0
 14 10  1  0
 14 15  2  0
 16 12  1  0
 17 14  1  0
 18 17  1  0
 18 19  1  1
 19 20  1  0
 20 21  1  0
 21 22  1  0
 23 22  1  0
 24 18  1  0
 25 24  1  0
 26 24  2  0
M  END
$$$$
