DDK.pdb
     RDKit          3D

 26 25  0  0  1  0  0  0  0  0999 V2000
   14.9002  -15.5676   16.8674 N   0  0  0  0  0  0  0  0  0  0  0  0
   15.5244  -14.5812   17.7225 C   0  0  1  0  0  0  0  0  0  0  0  0
   16.1256  -13.5014   16.8876 C   0  0  0  0  0  0  0  0  0  0  0  0
   17.1852  -14.0745   16.0403 C   0  0  0  0  0  0  0  0  0  0  0  0
   17.8199  -13.3381   15.2598 O   0  0  0  0  0  0  0  0  0  0  0  0
   14.4860  -14.0706   18.6614 C   0  0  0  0  0  0  0  0  0  0  0  0
   14.7839  -13.1402   19.4176 O   0  0  0  0  0  0  0  0  0  0  0  0
   17.4928  -15.4193   16.0921 O   0  0  0  0  0  0  0  0  0  0  0  0
   13.1807  -14.6184   18.7089 N   0  0  0  0  0  0  0  0  0  0  0  0
   12.1242  -14.2936   19.5986 C   0  0  1  0  0  0  0  0  0  0  0  0
   10.7974  -14.5078   18.9788 C   0  0  0  0  0  0  0  0  0  0  0  0
   10.6311  -15.9436   18.6351 C   0  0  0  0  0  0  0  0  0  0  0  0
   11.4880  -16.8273   18.8807 O   0  0  0  0  0  0  0  0  0  0  0  0
   12.2643  -14.8270   20.9837 C   0  0  0  0  0  0  0  0  0  0  0  0
   11.4340  -14.4498   21.8375 O   0  0  0  0  0  0  0  0  0  0  0  0
    9.4666  -16.4078   17.9946 O   0  0  0  0  0  0  0  0  0  0  0  0
   13.3095  -15.7376   21.3274 N   0  0  0  0  0  0  0  0  0  0  0  0
   13.5204  -16.1972   22.6846 C   0  0  1  0  0  0  0  0  0  0  0  0
   13.5672  -17.6992   22.6826 C   0  0  0  0  0  0  0  0  0  0  0  0
   12.3086  -18.3721   22.2568 C   0  0  0  0  0  0  0  0  0  0  0  0
   12.4171  -19.8745   22.2551 C   0  0  0  0  0  0  0  0  0  0  0  0
   11.1062  -20.4649   21.7752 C   0  0  0  0  0  0  0  0  0  0  0  0
   11.1896  -21.9130   21.6442 N   0  0  0  0  0  0  0  0  0  0  0  0
   14.7355  -15.5910   23.2833 C   0  0  0  0  0  0  0  0  0  0  0  0
   15.6417  -14.8581   22.5002 O   0  0  0  0  0  0  0  0  0  0  0  0
   15.0258  -15.6911   24.4994 O   0  0  0  0  0  0  0  0  0  0  0  0
  2  1  1  6
  2  3  1  0
  4  3  1  0
  5  4  2  0
  6  7  2  0
  6  2  1  0
  8  4  1  0
  9  6  1  0
 10  9  1  0
 10 11  1  6
 12 11  1  0
 13 12  2  0
 14 10  1  0
 14 15  2  0
 16 12  1  0
 17 14  1  0
 18 17  1  0
 18 19  1  6
 19 20  1  0
 20 21  1  0
 21 22  1  0
 23 22  1  0
 24 18  1  0
 25 24  1  0
 26 24  2  0
M  END
$$$$
