DDK.pdb
     RDKit          3D

 26 25  0  0  1  0  0  0  0  0999 V2000
   12.1245  -17.6349   19.5180 N   0  0  0  0  0  0  0  0  0  0  0  0
   10.7027  -17.3743   19.4520 C   0  0  1  0  0  0  0  0  0  0  0  0
   10.0659  -18.3078   18.4786 C   0  0  0  0  0  0  0  0  0  0  0  0
   10.6382  -18.0806   17.1408 C   0  0  0  0  0  0  0  0  0  0  0  0
   11.8689  -17.9295   17.0113 O   0  0  0  0  0  0  0  0  0  0  0  0
   10.1500  -17.5149   20.8287 C   0  0  0  0  0  0  0  0  0  0  0  0
    8.9514  -17.2752   21.0080 O   0  0  0  0  0  0  0  0  0  0  0  0
    9.8352  -18.0309   16.0189 O   0  0  0  0  0  0  0  0  0  0  0  0
   10.9543  -17.9116   21.9249 N   0  0  0  0  0  0  0  0  0  0  0  0
   10.5693  -18.0820   23.2799 C   0  0  1  0  0  0  0  0  0  0  0  0
   11.1975  -19.2781   23.8841 C   0  0  0  0  0  0  0  0  0  0  0  0
   10.7076  -19.4522   25.2759 C   0  0  0  0  0  0  0  0  0  0  0  0
   11.1877  -18.8524   26.2685 O   0  0  0  0  0  0  0  0  0  0  0  0
   10.6204  -16.8524   24.1215 C   0  0  0  0  0  0  0  0  0  0  0  0
   11.7460  -16.4060   24.4289 O   0  0  0  0  0  0  0  0  0  0  0  0
    9.6441  -20.3270   25.5684 O   0  0  0  0  0  0  0  0  0  0  0  0
    9.4270  -16.2040   24.5634 N   0  0  0  0  0  0  0  0  0  0  0  0
    9.4480  -15.0969   25.4969 C   0  0  1  0  0  0  0  0  0  0  0  0
    8.0764  -14.4852   25.5494 C   0  0  0  0  0  0  0  0  0  0  0  0
    7.9113  -13.3828   26.5372 C   0  0  0  0  0  0  0  0  0  0  0  0
    6.5275  -12.7876   26.5276 C   0  0  0  0  0  0  0  0  0  0  0  0
    6.4418  -11.7170   27.5971 C   0  0  0  0  0  0  0  0  0  0  0  0
    5.1243  -11.0970   27.6268 N   0  0  0  0  0  0  0  0  0  0  0  0
    9.9337  -15.5198   26.8340 C   0  0  0  0  0  0  0  0  0  0  0  0
    9.6184  -16.7858   27.3532 O   0  0  0  0  0  0  0  0  0  0  0  0
   10.6409  -14.7914   27.5704 O   0  0  0  0  0  0  0  0  0  0  0  0
  2  1  1  1
  2  3  1  0
  4  3  1  0
  5  4  2  0
  6  7  2  0
  6  2  1  0
  8  4  1  0
  9  6  1  0
 10  9  1  0
 10 11  1  1
 12 11  1  0
 13 12  2  0
 14 10  1  0
 14 15  2  0
 16 12  1  0
 17 14  1  0
 18 17  1  0
 18 19  1  1
 19 20  1  0
 20 21  1  0
 21 22  1  0
 23 22  1  0
 24 18  1  0
 25 24  1  0
 26 24  2  0
M  END
$$$$
