DDK.pdb
     RDKit          3D

 26 25  0  0  1  0  0  0  0  0999 V2000
   10.5607  -14.9130   17.7178 N   0  0  0  0  0  0  0  0  0  0  0  0
   11.7015  -15.3750   18.4784 C   0  0  1  0  0  0  0  0  0  0  0  0
   12.6691  -14.2550   18.6625 C   0  0  0  0  0  0  0  0  0  0  0  0
   13.9465  -14.7925   19.1610 C   0  0  0  0  0  0  0  0  0  0  0  0
   14.0410  -16.0033   19.4425 O   0  0  0  0  0  0  0  0  0  0  0  0
   11.1970  -15.9167   19.7717 C   0  0  0  0  0  0  0  0  0  0  0  0
   10.5538  -15.1658   20.5124 O   0  0  0  0  0  0  0  0  0  0  0  0
   15.0493  -13.9783   19.3246 O   0  0  0  0  0  0  0  0  0  0  0  0
   11.4334  -17.2553   20.1695 N   0  0  0  0  0  0  0  0  0  0  0  0
   11.0480  -17.8934   21.3768 C   0  0  1  0  0  0  0  0  0  0  0  0
   11.1011  -19.3679   21.2610 C   0  0  0  0  0  0  0  0  0  0  0  0
    9.7270  -19.9067   21.0902 C   0  0  0  0  0  0  0  0  0  0  0  0
    8.6843  -19.2773   21.3936 O   0  0  0  0  0  0  0  0  0  0  0  0
   11.6570  -17.3383   22.6193 C   0  0  0  0  0  0  0  0  0  0  0  0
   12.9018  -17.2430   22.6629 O   0  0  0  0  0  0  0  0  0  0  0  0
    9.5110  -21.1936   20.5621 O   0  0  0  0  0  0  0  0  0  0  0  0
   10.8494  -16.9284   23.7238 N   0  0  0  0  0  0  0  0  0  0  0  0
   11.4196  -16.3910   24.9419 C   0  0  1  0  0  0  0  0  0  0  0  0
   10.3411  -15.6711   25.7016 C   0  0  0  0  0  0  0  0  0  0  0  0
   10.7930  -14.9773   26.9396 C   0  0  0  0  0  0  0  0  0  0  0  0
    9.6632  -14.3269   27.6944 C   0  0  0  0  0  0  0  0  0  0  0  0
   10.2280  -13.5898   28.8923 C   0  0  0  0  0  0  0  0  0  0  0  0
    9.1703  -13.0149   29.7121 N   0  0  0  0  0  0  0  0  0  0  0  0
   12.0755  -17.4486   25.7502 C   0  0  0  0  0  0  0  0  0  0  0  0
   11.6627  -18.7880   25.6646 O   0  0  0  0  0  0  0  0  0  0  0  0
   13.0195  -17.2210   26.5441 O   0  0  0  0  0  0  0  0  0  0  0  0
  2  1  1  6
  2  3  1  0
  4  3  1  0
  5  4  2  0
  6  7  2  0
  6  2  1  0
  8  4  1  0
  9  6  1  0
 10  9  1  0
 10 11  1  6
 12 11  1  0
 13 12  2  0
 14 10  1  0
 14 15  2  0
 16 12  1  0
 17 14  1  0
 18 17  1  0
 18 19  1  1
 19 20  1  0
 20 21  1  0
 21 22  1  0
 23 22  1  0
 24 18  1  0
 25 24  1  0
 26 24  2  0
M  END
$$$$
