AGR.pdb
     RDKit          3D

 21 20  0  0  1  0  0  0  0  0999 V2000
   26.0362  -13.6533  -17.9977 C   0  0  0  0  0  0  0  0  0  0  0  0
   26.1848  -13.6886  -16.4711 C   0  0  2  0  0  0  0  0  0  0  0  0
   25.1805  -14.5579  -15.8942 N   0  0  0  0  0  0  0  0  0  0  0  0
   25.9997  -12.3266  -15.9439 C   0  0  0  0  0  0  0  0  0  0  0  0
   26.8808  -11.4511  -16.2639 O   0  0  0  0  0  0  0  0  0  0  0  0
   24.9174  -11.9417  -15.1168 N   0  0  0  0  0  0  0  0  0  0  0  0
   24.8172  -10.5891  -14.6697 C   0  0  0  0  0  0  0  0  0  0  0  0
   23.6708   -9.8605  -15.2455 C   0  0  0  0  0  0  0  0  0  0  0  0
   23.5081   -9.8568  -16.5074 O   0  0  0  0  0  0  0  0  0  0  0  0
   15.0038   -9.9299  -14.4261 N   0  0  0  0  0  0  0  0  0  0  0  0
   15.3984   -9.0064  -15.4268 C   0  0  0  0  0  0  0  0  0  0  0  0
   14.5181   -8.5850  -16.2570 N   0  0  0  0  0  0  0  0  0  0  0  0
   16.7259   -8.5452  -15.5284 N   0  0  0  0  0  0  0  0  0  0  0  0
   17.7677   -9.1738  -14.7686 C   0  0  0  0  0  0  0  0  0  0  0  0
   19.0731   -8.4831  -15.1751 C   0  0  0  0  0  0  0  0  0  0  0  0
   20.2859   -9.1316  -14.5924 C   0  0  0  0  0  0  0  0  0  0  0  0
   21.5408   -8.4886  -15.0502 C   0  0  2  0  0  0  0  0  0  0  0  0
   22.7205   -9.1522  -14.4809 N   0  0  0  0  0  0  0  0  0  0  0  0
   21.5679   -7.0577  -14.8573 C   0  0  0  0  0  0  0  0  0  0  0  0
   20.8133   -6.3221  -15.5816 O   0  0  0  0  0  0  0  0  0  0  0  0
   22.3547   -6.4241  -13.9384 O   0  0  0  0  0  0  0  0  0  0  0  0
  2  1  1  6
  2  4  1  0
  2  3  1  0
  4  5  2  0
  6  4  1  0
  6  7  1  0
  7  8  1  0
  8  9  2  0
 10 11  1  0
 11 13  1  0
 11 12  2  0
 13 14  1  0
 14 15  1  0
 15 16  1  0
 17 16  1  1
 17 19  1  0
 18  8  1  0
 18 17  1  0
 19 21  1  0
 20 19  2  0
M  END
$$$$
