AGR.pdb
     RDKit          3D

 21 20  0  0  1  0  0  0  0  0999 V2000
   28.9999  -18.5020  -17.7302 C   0  0  0  0  0  0  0  0  0  0  0  0
   27.6483  -19.1463  -17.3956 C   0  0  2  0  0  0  0  0  0  0  0  0
   26.5753  -18.2050  -17.6392 N   0  0  0  0  0  0  0  0  0  0  0  0
   27.6410  -19.5236  -15.9726 C   0  0  0  0  0  0  0  0  0  0  0  0
   28.3767  -20.5160  -15.6271 O   0  0  0  0  0  0  0  0  0  0  0  0
   26.8768  -18.8581  -14.9845 N   0  0  0  0  0  0  0  0  0  0  0  0
   26.9448  -19.2951  -13.6266 C   0  0  0  0  0  0  0  0  0  0  0  0
   25.6501  -19.7549  -13.0889 C   0  0  0  0  0  0  0  0  0  0  0  0
   24.5737  -19.3638  -13.6431 O   0  0  0  0  0  0  0  0  0  0  0  0
   21.0493  -24.0054   -7.5581 N   0  0  0  0  0  0  0  0  0  0  0  0
   20.8115  -22.6530   -7.2056 C   0  0  0  0  0  0  0  0  0  0  0  0
   20.0360  -22.4018   -6.2170 N   0  0  0  0  0  0  0  0  0  0  0  0
   21.4034  -21.5872   -7.9121 N   0  0  0  0  0  0  0  0  0  0  0  0
   22.7827  -21.6575   -8.3002 C   0  0  0  0  0  0  0  0  0  0  0  0
   23.0579  -20.4050   -9.1380 C   0  0  0  0  0  0  0  0  0  0  0  0
   24.3807  -20.4418   -9.8308 C   0  0  0  0  0  0  0  0  0  0  0  0
   24.2572  -20.8307  -11.2561 C   0  0  2  0  0  0  0  0  0  0  0  0
   25.5165  -20.6164  -11.9802 N   0  0  0  0  0  0  0  0  0  0  0  0
   23.1274  -20.2334  -11.9285 C   0  0  0  0  0  0  0  0  0  0  0  0
   23.0775  -18.9605  -12.0413 O   0  0  0  0  0  0  0  0  0  0  0  0
   22.0918  -20.9446  -12.4638 O   0  0  0  0  0  0  0  0  0  0  0  0
  2  1  1  1
  2  4  1  0
  2  3  1  0
  4  5  2  0
  6  4  1  0
  6  7  1  0
  7  8  1  0
  8  9  2  0
 10 11  1  0
 11 13  1  0
 11 12  2  0
 13 14  1  0
 14 15  1  0
 15 16  1  0
 17 16  1  1
 17 19  1  0
 18  8  1  0
 18 17  1  0
 19 21  1  0
 20 19  2  0
M  END
$$$$
