AGR.pdb
     RDKit          3D

 21 20  0  0  1  0  0  0  0  0999 V2000
   28.6009  -12.2297  -16.1076 C   0  0  0  0  0  0  0  0  0  0  0  0
   27.8515  -11.4789  -17.2161 C   0  0  2  0  0  0  0  0  0  0  0  0
   28.1228  -10.0594  -17.1256 N   0  0  0  0  0  0  0  0  0  0  0  0
   26.4061  -11.7022  -17.0480 C   0  0  0  0  0  0  0  0  0  0  0  0
   25.9879  -12.9120  -17.1309 O   0  0  0  0  0  0  0  0  0  0  0  0
   25.4718  -10.6675  -16.8036 N   0  0  0  0  0  0  0  0  0  0  0  0
   24.1002  -10.9943  -16.5768 C   0  0  0  0  0  0  0  0  0  0  0  0
   23.2768   -9.8383  -16.1735 C   0  0  0  0  0  0  0  0  0  0  0  0
   23.8407   -8.7166  -15.9666 O   0  0  0  0  0  0  0  0  0  0  0  0
   14.3929   -7.8982  -15.9384 N   0  0  0  0  0  0  0  0  0  0  0  0
   15.1968   -6.7313  -15.8929 C   0  0  0  0  0  0  0  0  0  0  0  0
   14.6228   -5.5865  -15.9319 N   0  0  0  0  0  0  0  0  0  0  0  0
   16.6014   -6.8014  -15.8067 N   0  0  0  0  0  0  0  0  0  0  0  0
   17.2628   -8.0741  -15.8332 C   0  0  0  0  0  0  0  0  0  0  0  0
   18.7632   -7.7811  -15.7364 C   0  0  0  0  0  0  0  0  0  0  0  0
   19.6106   -9.0001  -15.9004 C   0  0  0  0  0  0  0  0  0  0  0  0
   21.0497   -8.7163  -15.6858 C   0  0  2  0  0  0  0  0  0  0  0  0
   21.8783   -9.8878  -15.9971 N   0  0  0  0  0  0  0  0  0  0  0  0
   21.3480   -8.1611  -14.3865 C   0  0  0  0  0  0  0  0  0  0  0  0
   21.5667   -8.9570  -13.4097 O   0  0  0  0  0  0  0  0  0  0  0  0
   21.4164   -6.8228  -14.1235 O   0  0  0  0  0  0  0  0  0  0  0  0
  2  1  1  1
  2  4  1  0
  2  3  1  0
  4  5  2  0
  6  4  1  0
  6  7  1  0
  7  8  1  0
  8  9  2  0
 10 11  1  0
 11 13  1  0
 11 12  2  0
 13 14  1  0
 14 15  1  0
 15 16  1  0
 17 16  1  1
 17 19  1  0
 18  8  1  0
 18 17  1  0
 19 21  1  0
 20 19  2  0
M  END
$$$$
