AGR.pdb
     RDKit          3D

 21 20  0  0  1  0  0  0  0  0999 V2000
   22.7542  -18.6421  -20.9359 C   0  0  0  0  0  0  0  0  0  0  0  0
   23.6292  -17.8032  -19.9955 C   0  0  2  0  0  0  0  0  0  0  0  0
   24.9120  -18.4472  -19.8041 N   0  0  0  0  0  0  0  0  0  0  0  0
   22.9521  -17.6874  -18.6934 C   0  0  0  0  0  0  0  0  0  0  0  0
   21.8256  -17.0745  -18.6727 O   0  0  0  0  0  0  0  0  0  0  0  0
   23.4726  -18.2094  -17.4850 N   0  0  0  0  0  0  0  0  0  0  0  0
   22.7706  -17.9893  -16.2610 C   0  0  0  0  0  0  0  0  0  0  0  0
   22.0019  -19.1620  -15.8023 C   0  0  0  0  0  0  0  0  0  0  0  0
   21.4338  -19.9073  -16.6630 O   0  0  0  0  0  0  0  0  0  0  0  0
   27.0157  -21.2231  -11.2053 N   0  0  0  0  0  0  0  0  0  0  0  0
   25.7422  -20.6961  -10.8728 C   0  0  0  0  0  0  0  0  0  0  0  0
   25.2230  -21.0073   -9.7435 N   0  0  0  0  0  0  0  0  0  0  0  0
   25.0400  -19.8450  -11.7490 N   0  0  0  0  0  0  0  0  0  0  0  0
   23.6057  -19.8235  -11.7379 C   0  0  0  0  0  0  0  0  0  0  0  0
   23.1509  -21.0650  -12.5114 C   0  0  0  0  0  0  0  0  0  0  0  0
   21.6666  -21.1593  -12.6490 C   0  0  0  0  0  0  0  0  0  0  0  0
   21.2020  -20.7654  -14.0006 C   0  0  2  0  0  0  0  0  0  0  0  0
   21.8480  -19.5252  -14.4481 N   0  0  0  0  0  0  0  0  0  0  0  0
   19.7648  -20.7157  -14.1326 C   0  0  0  0  0  0  0  0  0  0  0  0
   19.1770  -19.5820  -14.0669 O   0  0  0  0  0  0  0  0  0  0  0  0
   18.9759  -21.8131  -14.3282 O   0  0  0  0  0  0  0  0  0  0  0  0
  2  1  1  6
  2  4  1  0
  2  3  1  0
  4  5  2  0
  6  4  1  0
  6  7  1  0
  7  8  1  0
  8  9  2  0
 10 11  1  0
 11 13  1  0
 11 12  2  0
 13 14  1  0
 14 15  1  0
 15 16  1  0
 17 16  1  1
 17 19  1  0
 18  8  1  0
 18 17  1  0
 19 21  1  0
 20 19  2  0
M  END
$$$$
