AGR.pdb
     RDKit          3D

 21 20  0  0  1  0  0  0  0  0999 V2000
   23.9857  -15.0876  -20.9730 C   0  0  0  0  0  0  0  0  0  0  0  0
   24.0322  -16.4844  -20.3400 C   0  0  2  0  0  0  0  0  0  0  0  0
   23.1572  -17.3856  -21.0604 N   0  0  0  0  0  0  0  0  0  0  0  0
   23.5766  -16.3887  -18.9433 C   0  0  0  0  0  0  0  0  0  0  0  0
   24.4049  -15.9084  -18.0898 O   0  0  0  0  0  0  0  0  0  0  0  0
   22.2934  -16.7926  -18.5032 N   0  0  0  0  0  0  0  0  0  0  0  0
   21.9419  -16.6488  -17.1265 C   0  0  0  0  0  0  0  0  0  0  0  0
   21.6219  -17.9268  -16.4624 C   0  0  0  0  0  0  0  0  0  0  0  0
   21.1723  -18.8924  -17.1583 O   0  0  0  0  0  0  0  0  0  0  0  0
   26.3131  -21.4096  -11.9816 N   0  0  0  0  0  0  0  0  0  0  0  0
   25.3257  -20.9623  -11.0679 C   0  0  0  0  0  0  0  0  0  0  0  0
   25.6233  -20.8964   -9.8234 N   0  0  0  0  0  0  0  0  0  0  0  0
   24.0347  -20.5916  -11.4937 N   0  0  0  0  0  0  0  0  0  0  0  0
   23.1490  -21.5739  -12.0490 C   0  0  0  0  0  0  0  0  0  0  0  0
   21.8607  -20.8317  -12.4178 C   0  0  0  0  0  0  0  0  0  0  0  0
   22.1105  -19.5181  -13.0833 C   0  0  0  0  0  0  0  0  0  0  0  0
   21.4899  -19.4428  -14.4275 C   0  0  2  0  0  0  0  0  0  0  0  0
   21.7824  -18.1608  -15.0808 N   0  0  0  0  0  0  0  0  0  0  0  0
   20.0804  -19.7568  -14.4383 C   0  0  0  0  0  0  0  0  0  0  0  0
   19.2415  -18.8441  -14.1248 O   0  0  0  0  0  0  0  0  0  0  0  0
   19.5715  -20.9805  -14.7677 O   0  0  0  0  0  0  0  0  0  0  0  0
  2  1  1  6
  2  4  1  0
  2  3  1  0
  4  5  2  0
  6  4  1  0
  6  7  1  0
  7  8  1  0
  8  9  2  0
 10 11  1  0
 11 13  1  0
 11 12  2  0
 13 14  1  0
 14 15  1  0
 15 16  1  0
 17 16  1  1
 17 19  1  0
 18  8  1  0
 18 17  1  0
 19 21  1  0
 20 19  2  0
M  END
$$$$
