AGR.pdb
     RDKit          3D

 21 20  0  0  1  0  0  0  0  0999 V2000
   21.5358   -8.1920  -17.2267 C   0  0  0  0  0  0  0  0  0  0  0  0
   22.3243   -8.9114  -16.1245 C   0  0  2  0  0  0  0  0  0  0  0  0
   21.9750  -10.3164  -16.1002 N   0  0  0  0  0  0  0  0  0  0  0  0
   21.9816   -8.3098  -14.8252 C   0  0  0  0  0  0  0  0  0  0  0  0
   22.3472   -7.0962  -14.6283 O   0  0  0  0  0  0  0  0  0  0  0  0
   21.2815   -8.9913  -13.8011 N   0  0  0  0  0  0  0  0  0  0  0  0
   20.9591   -8.3061  -12.5903 C   0  0  0  0  0  0  0  0  0  0  0  0
   19.5342   -7.9392  -12.4811 C   0  0  0  0  0  0  0  0  0  0  0  0
   18.9150   -7.5393  -13.5182 O   0  0  0  0  0  0  0  0  0  0  0  0
   12.4567  -10.2881   -7.3409 N   0  0  0  0  0  0  0  0  0  0  0  0
   12.1192   -9.5726   -8.5173 C   0  0  0  0  0  0  0  0  0  0  0  0
   10.9028   -9.5884   -8.9197 N   0  0  0  0  0  0  0  0  0  0  0  0
   13.0831   -8.8506   -9.2485 N   0  0  0  0  0  0  0  0  0  0  0  0
   14.4621   -9.2440   -9.2084 C   0  0  0  0  0  0  0  0  0  0  0  0
   15.1952   -8.3447  -10.2084 C   0  0  0  0  0  0  0  0  0  0  0  0
   16.6736   -8.5571  -10.2141 C   0  0  0  0  0  0  0  0  0  0  0  0
   17.3636   -7.6762  -11.1866 C   0  0  2  0  0  0  0  0  0  0  0  0
   18.7921   -8.0014  -11.2833 N   0  0  0  0  0  0  0  0  0  0  0  0
   17.1338   -6.2680  -10.9641 C   0  0  0  0  0  0  0  0  0  0  0  0
   17.9571   -5.6150  -10.2354 O   0  0  0  0  0  0  0  0  0  0  0  0
   16.0822   -5.5720  -11.4881 O   0  0  0  0  0  0  0  0  0  0  0  0
  2  1  1  6
  2  4  1  0
  2  3  1  0
  4  5  2  0
  6  4  1  0
  6  7  1  0
  7  8  1  0
  8  9  2  0
 10 11  1  0
 11 13  1  0
 11 12  2  0
 13 14  1  0
 14 15  1  0
 15 16  1  0
 17 16  1  1
 17 19  1  0
 18  8  1  0
 18 17  1  0
 19 21  1  0
 20 19  2  0
M  END
$$$$
