AGR.pdb
     RDKit          3D

 21 20  0  0  1  0  0  0  0  0999 V2000
   16.1055  -24.9126   -9.7347 C   0  0  0  0  0  0  0  0  0  0  0  0
   16.3572  -26.1785  -10.5642 C   0  0  2  0  0  0  0  0  0  0  0  0
   15.8295  -27.3373   -9.8746 N   0  0  0  0  0  0  0  0  0  0  0  0
   17.8085  -26.3479  -10.7445 C   0  0  0  0  0  0  0  0  0  0  0  0
   18.3859  -27.2427  -10.0295 O   0  0  0  0  0  0  0  0  0  0  0  0
   18.5844  -25.5867  -11.6511 N   0  0  0  0  0  0  0  0  0  0  0  0
   19.9557  -25.9246  -11.8629 C   0  0  0  0  0  0  0  0  0  0  0  0
   20.6000  -25.1357  -12.9303 C   0  0  0  0  0  0  0  0  0  0  0  0
   19.8821  -24.3911  -13.6713 O   0  0  0  0  0  0  0  0  0  0  0  0
   27.6572  -24.6780  -17.9031 N   0  0  0  0  0  0  0  0  0  0  0  0
   27.9306  -23.8831  -16.7615 C   0  0  0  0  0  0  0  0  0  0  0  0
   29.1344  -23.4958  -16.5551 N   0  0  0  0  0  0  0  0  0  0  0  0
   26.9169  -23.5124  -15.8558 N   0  0  0  0  0  0  0  0  0  0  0  0
   25.5761  -23.9880  -16.0402 C   0  0  0  0  0  0  0  0  0  0  0  0
   24.7185  -23.2745  -14.9905 C   0  0  0  0  0  0  0  0  0  0  0  0
   24.0795  -24.2122  -14.0193 C   0  0  0  0  0  0  0  0  0  0  0  0
   22.6237  -24.3602  -14.2569 C   0  0  2  0  0  0  0  0  0  0  0  0
   21.9854  -25.1472  -13.1943 N   0  0  0  0  0  0  0  0  0  0  0  0
   22.2938  -24.8471  -15.5758 C   0  0  0  0  0  0  0  0  0  0  0  0
   21.9923  -24.0037  -16.4885 O   0  0  0  0  0  0  0  0  0  0  0  0
   22.2832  -26.1677  -15.9235 O   0  0  0  0  0  0  0  0  0  0  0  0
  2  1  1  1
  2  4  1  0
  2  3  1  0
  4  5  2  0
  6  4  1  0
  6  7  1  0
  7  8  1  0
  8  9  2  0
 10 11  1  0
 11 13  1  0
 11 12  2  0
 13 14  1  0
 14 15  1  0
 15 16  1  0
 17 16  1  1
 17 19  1  0
 18  8  1  0
 18 17  1  0
 19 21  1  0
 20 19  2  0
M  END
$$$$
