CKV.pdb
     RDKit          3D

 23 22  0  0  1  0  0  0  0  0999 V2000
    7.3051  -15.3044   18.4139 N   0  0  0  0  0  0  0  0  0  0  0  0
    8.0962  -14.7447   19.4676 C   0  0  1  0  0  0  0  0  0  0  0  0
    8.1078  -13.2160   19.4010 C   0  0  0  0  0  0  0  0  0  0  0  0
    9.0755  -12.6208   18.0079 S   0  0  0  0  0  0  0  0  0  0  0  0
    7.5676  -15.1821   20.7855 C   0  0  0  0  0  0  0  0  0  0  0  0
    6.3128  -15.0836   20.9864 O   0  0  0  0  0  0  0  0  0  0  0  0
    8.3930  -15.6998   21.8192 N   0  0  0  0  0  0  0  0  0  0  0  0
    7.8205  -16.1363   23.0680 C   0  0  1  0  0  0  0  0  0  0  0  0
    8.1083  -17.5924   23.3530 C   0  0  0  0  0  0  0  0  0  0  0  0
    7.5904  -18.0243   24.7042 C   0  0  0  0  0  0  0  0  0  0  0  0
    7.9859  -19.4738   24.8936 C   0  0  0  0  0  0  0  0  0  0  0  0
    7.4187  -20.0407   26.1775 C   0  0  0  0  0  0  0  0  0  0  0  0
    7.8514  -21.4145   26.3289 N   0  0  0  0  0  0  0  0  0  0  0  0
    8.2334  -15.2621   24.1921 C   0  0  0  0  0  0  0  0  0  0  0  0
    9.4631  -15.0703   24.3547 O   0  0  0  0  0  0  0  0  0  0  0  0
    7.0687  -12.1054   27.8496 C   0  0  0  0  0  0  0  0  0  0  0  0
    6.5789  -13.0376   26.7709 C   0  0  1  0  0  0  0  0  0  0  0  0
    5.8488  -12.2267   25.7486 C   0  0  0  0  0  0  0  0  0  0  0  0
    7.7446  -13.8046   26.1965 C   0  0  2  0  0  0  0  0  0  0  0  0
    7.3426  -14.6405   25.0786 N   0  0  0  0  0  0  0  0  0  0  0  0
    8.3798  -14.6002   27.2693 C   0  0  0  0  0  0  0  0  0  0  0  0
    7.9661  -15.7606   27.4865 O   0  0  0  0  0  0  0  0  0  0  0  0
    9.4124  -14.1197   28.0453 O   0  0  0  0  0  0  0  0  0  0  0  0
  2  1  1  6
  2  5  1  0
  3  2  1  0
  4  3  1  0
  5  6  2  0
  5  7  1  0
  7  8  1  0
  8  9  1  1
  9 10  1  0
 10 11  1  0
 11 12  1  0
 13 12  1  0
 14 15  2  0
 14  8  1  0
 17 16  1  1
 17 18  1  0
 19 17  1  0
 19 20  1  6
 20 14  1  0
 21 19  1  0
 22 21  2  0
 23 21  1  0
M  END
$$$$
