CKV.pdb
     RDKit          3D

 23 22  0  0  1  0  0  0  0  0999 V2000
    6.9959  -15.4518   18.8752 N   0  0  0  0  0  0  0  0  0  0  0  0
    7.8002  -14.7870   19.8552 C   0  0  1  0  0  0  0  0  0  0  0  0
    7.7061  -13.2665   19.7120 C   0  0  0  0  0  0  0  0  0  0  0  0
    8.7772  -12.6566   18.4034 S   0  0  0  0  0  0  0  0  0  0  0  0
    7.3696  -15.1867   21.2199 C   0  0  0  0  0  0  0  0  0  0  0  0
    6.1379  -15.0524   21.5191 O   0  0  0  0  0  0  0  0  0  0  0  0
    8.2633  -15.7063   22.1942 N   0  0  0  0  0  0  0  0  0  0  0  0
    7.8016  -16.0177   23.5237 C   0  0  1  0  0  0  0  0  0  0  0  0
    8.0417  -17.4642   23.8902 C   0  0  0  0  0  0  0  0  0  0  0  0
    7.6353  -17.7694   25.3122 C   0  0  0  0  0  0  0  0  0  0  0  0
    7.9849  -19.2188   25.5772 C   0  0  0  0  0  0  0  0  0  0  0  0
    7.4176  -19.6941   26.8977 C   0  0  0  0  0  0  0  0  0  0  0  0
    7.7268  -21.0976   27.0764 N   0  0  0  0  0  0  0  0  0  0  0  0
    8.3733  -15.0913   24.5303 C   0  0  0  0  0  0  0  0  0  0  0  0
    9.6220  -14.9686   24.5606 O   0  0  0  0  0  0  0  0  0  0  0  0
    7.3128  -11.4154   25.5217 C   0  0  0  0  0  0  0  0  0  0  0  0
    7.3219  -12.2920   26.7482 C   0  0  1  0  0  0  0  0  0  0  0  0
    5.9061  -12.6240   27.0958 C   0  0  0  0  0  0  0  0  0  0  0  0
    8.1709  -13.5129   26.4920 C   0  0  2  0  0  0  0  0  0  0  0  0
    7.6117  -14.3490   25.4441 N   0  0  0  0  0  0  0  0  0  0  0  0
    8.3377  -14.2636   27.7553 C   0  0  0  0  0  0  0  0  0  0  0  0
    7.7734  -15.3732   27.8777 O   0  0  0  0  0  0  0  0  0  0  0  0
    9.0905  -13.7945   28.8102 O   0  0  0  0  0  0  0  0  0  0  0  0
  2  1  1  6
  2  5  1  0
  3  2  1  0
  4  3  1  0
  5  6  2  0
  5  7  1  0
  7  8  1  0
  8  9  1  1
  9 10  1  0
 10 11  1  0
 11 12  1  0
 13 12  1  0
 14 15  2  0
 14  8  1  0
 17 16  1  6
 17 18  1  0
 19 17  1  0
 19 20  1  6
 20 14  1  0
 21 19  1  0
 22 21  2  0
 23 21  1  0
M  END
$$$$
