CKV.pdb
     RDKit          3D

 23 22  0  0  1  0  0  0  0  0999 V2000
    7.0412  -15.4831   18.6394 N   0  0  0  0  0  0  0  0  0  0  0  0
    7.9480  -14.9861   19.6294 C   0  0  1  0  0  0  0  0  0  0  0  0
    8.1424  -13.4743   19.4953 C   0  0  0  0  0  0  0  0  0  0  0  0
    9.0502  -13.0528   18.0020 S   0  0  0  0  0  0  0  0  0  0  0  0
    7.4389  -15.3045   20.9885 C   0  0  0  0  0  0  0  0  0  0  0  0
    6.2071  -15.0834   21.2300 O   0  0  0  0  0  0  0  0  0  0  0  0
    8.2585  -15.8390   22.0183 N   0  0  0  0  0  0  0  0  0  0  0  0
    7.7043  -16.1503   23.3120 C   0  0  1  0  0  0  0  0  0  0  0  0
    7.9228  -17.5954   23.6970 C   0  0  0  0  0  0  0  0  0  0  0  0
    7.4928  -17.8808   25.1162 C   0  0  0  0  0  0  0  0  0  0  0  0
    7.8278  -19.3294   25.4035 C   0  0  0  0  0  0  0  0  0  0  0  0
    7.3519  -19.7471   26.7784 C   0  0  0  0  0  0  0  0  0  0  0  0
    7.7732  -21.1077   27.0402 N   0  0  0  0  0  0  0  0  0  0  0  0
    8.1997  -15.2204   24.3552 C   0  0  0  0  0  0  0  0  0  0  0  0
    9.4427  -15.0970   24.4776 O   0  0  0  0  0  0  0  0  0  0  0  0
    7.3712  -11.7217   27.7758 C   0  0  0  0  0  0  0  0  0  0  0  0
    6.7879  -12.6612   26.7513 C   0  0  1  0  0  0  0  0  0  0  0  0
    6.2025  -11.8421   25.6458 C   0  0  0  0  0  0  0  0  0  0  0  0
    7.8531  -13.6196   26.2783 C   0  0  2  0  0  0  0  0  0  0  0  0
    7.3723  -14.4756   25.2077 N   0  0  0  0  0  0  0  0  0  0  0  0
    8.3417  -14.4105   27.4286 C   0  0  0  0  0  0  0  0  0  0  0  0
    7.7546  -15.4752   27.7227 O   0  0  0  0  0  0  0  0  0  0  0  0
    9.4203  -14.0266   28.1959 O   0  0  0  0  0  0  0  0  0  0  0  0
  2  1  1  6
  2  5  1  0
  3  2  1  0
  4  3  1  0
  5  6  2  0
  5  7  1  0
  7  8  1  0
  8  9  1  1
  9 10  1  0
 10 11  1  0
 11 12  1  0
 13 12  1  0
 14 15  2  0
 14  8  1  0
 17 16  1  1
 17 18  1  0
 19 17  1  0
 19 20  1  6
 20 14  1  0
 21 19  1  0
 22 21  2  0
 23 21  1  0
M  END
$$$$
