CKV.pdb
     RDKit          3D

 23 22  0  0  1  0  0  0  0  0999 V2000
    6.9237  -15.3409   18.7415 N   0  0  0  0  0  0  0  0  0  0  0  0
    7.7922  -14.8333   19.7599 C   0  0  1  0  0  0  0  0  0  0  0  0
    7.9771  -13.3200   19.6284 C   0  0  0  0  0  0  0  0  0  0  0  0
    8.9326  -12.8937   18.1666 S   0  0  0  0  0  0  0  0  0  0  0  0
    7.2409  -15.1532   21.1020 C   0  0  0  0  0  0  0  0  0  0  0  0
    6.0948  -14.6835   21.4025 O   0  0  0  0  0  0  0  0  0  0  0  0
    7.9300  -15.9518   22.0535 N   0  0  0  0  0  0  0  0  0  0  0  0
    7.3757  -16.1754   23.3651 C   0  0  1  0  0  0  0  0  0  0  0  0
    7.4474  -17.6274   23.7783 C   0  0  0  0  0  0  0  0  0  0  0  0
    6.5740  -18.5106   22.9195 C   0  0  0  0  0  0  0  0  0  0  0  0
    6.8348  -19.9424   23.3384 C   0  0  0  0  0  0  0  0  0  0  0  0
    5.9415  -20.9104   22.5924 C   0  0  0  0  0  0  0  0  0  0  0  0
    6.7481  -21.7236   21.7062 N   0  0  0  0  0  0  0  0  0  0  0  0
    7.9912  -15.2829   24.3765 C   0  0  0  0  0  0  0  0  0  0  0  0
    9.2332  -15.1113   24.3176 O   0  0  0  0  0  0  0  0  0  0  0  0
    7.5865  -11.8705   27.9402 C   0  0  0  0  0  0  0  0  0  0  0  0
    6.8955  -12.7671   26.9445 C   0  0  1  0  0  0  0  0  0  0  0  0
    6.2835  -11.9059   25.8864 C   0  0  0  0  0  0  0  0  0  0  0  0
    7.8812  -13.7693   26.3958 C   0  0  2  0  0  0  0  0  0  0  0  0
    7.2779  -14.6233   25.3874 N   0  0  0  0  0  0  0  0  0  0  0  0
    8.4435  -14.5600   27.5120 C   0  0  0  0  0  0  0  0  0  0  0  0
    7.8962  -15.6412   27.8223 O   0  0  0  0  0  0  0  0  0  0  0  0
    9.5492  -14.1586   28.2302 O   0  0  0  0  0  0  0  0  0  0  0  0
  2  1  1  6
  2  5  1  0
  3  2  1  0
  4  3  1  0
  5  6  2  0
  5  7  1  0
  7  8  1  0
  8  9  1  1
  9 10  1  0
 10 11  1  0
 11 12  1  0
 13 12  1  0
 14 15  2  0
 14  8  1  0
 17 16  1  1
 17 18  1  0
 19 17  1  0
 19 20  1  6
 20 14  1  0
 21 19  1  0
 22 21  2  0
 23 21  1  0
M  END
$$$$
