CKV.pdb
     RDKit          3D

 23 22  0  0  1  0  0  0  0  0999 V2000
    6.9902  -15.5739   18.6765 N   0  0  0  0  0  0  0  0  0  0  0  0
    7.8797  -15.0347   19.6601 C   0  0  1  0  0  0  0  0  0  0  0  0
    7.9883  -13.5135   19.5360 C   0  0  0  0  0  0  0  0  0  0  0  0
    8.7258  -13.0274   17.9703 S   0  0  0  0  0  0  0  0  0  0  0  0
    7.4050  -15.3910   21.0222 C   0  0  0  0  0  0  0  0  0  0  0  0
    6.1808  -15.1735   21.3022 O   0  0  0  0  0  0  0  0  0  0  0  0
    8.2493  -15.9575   22.0143 N   0  0  0  0  0  0  0  0  0  0  0  0
    7.7344  -16.2791   23.3217 C   0  0  1  0  0  0  0  0  0  0  0  0
    8.0667  -17.6938   23.7370 C   0  0  0  0  0  0  0  0  0  0  0  0
    7.6158  -17.9975   25.1459 C   0  0  0  0  0  0  0  0  0  0  0  0
    7.9496  -19.4488   25.4205 C   0  0  0  0  0  0  0  0  0  0  0  0
    7.3969  -19.9027   26.7546 C   0  0  0  0  0  0  0  0  0  0  0  0
    7.5530  -21.3373   26.8767 N   0  0  0  0  0  0  0  0  0  0  0  0
    8.1683  -15.2896   24.3370 C   0  0  0  0  0  0  0  0  0  0  0  0
    9.3772  -14.9519   24.3364 O   0  0  0  0  0  0  0  0  0  0  0  0
    7.0802  -11.9463   27.8384 C   0  0  0  0  0  0  0  0  0  0  0  0
    6.5831  -12.9394   26.8189 C   0  0  1  0  0  0  0  0  0  0  0  0
    5.8592  -12.1875   25.7483 C   0  0  0  0  0  0  0  0  0  0  0  0
    7.7427  -13.7494   26.2934 C   0  0  2  0  0  0  0  0  0  0  0  0
    7.3189  -14.7116   25.2911 N   0  0  0  0  0  0  0  0  0  0  0  0
    8.4278  -14.4100   27.4256 C   0  0  0  0  0  0  0  0  0  0  0  0
    8.1258  -15.5903   27.7088 O   0  0  0  0  0  0  0  0  0  0  0  0
    9.3891  -13.7816   28.1874 O   0  0  0  0  0  0  0  0  0  0  0  0
  2  1  1  6
  2  5  1  0
  3  2  1  0
  4  3  1  0
  5  6  2  0
  5  7  1  0
  7  8  1  0
  8  9  1  1
  9 10  1  0
 10 11  1  0
 11 12  1  0
 13 12  1  0
 14 15  2  0
 14  8  1  0
 17 16  1  1
 17 18  1  0
 19 17  1  0
 19 20  1  6
 20 14  1  0
 21 19  1  0
 22 21  2  0
 23 21  1  0
M  END
$$$$
