CKV.pdb
     RDKit          3D

 23 22  0  0  1  0  0  0  0  0999 V2000
    7.3319  -15.7181   18.3769 N   0  0  0  0  0  0  0  0  0  0  0  0
    8.0197  -14.9069   19.3351 C   0  0  1  0  0  0  0  0  0  0  0  0
    7.5854  -13.4429   19.2368 C   0  0  0  0  0  0  0  0  0  0  0  0
    8.6277  -12.3740   20.2381 S   0  0  0  0  0  0  0  0  0  0  0  0
    7.7593  -15.4129   20.7076 C   0  0  0  0  0  0  0  0  0  0  0  0
    6.5457  -15.5709   21.0639 O   0  0  0  0  0  0  0  0  0  0  0  0
    8.7947  -15.7244   21.6289 N   0  0  0  0  0  0  0  0  0  0  0  0
    8.4818  -16.1790   22.9605 C   0  0  1  0  0  0  0  0  0  0  0  0
    9.2124  -17.4528   23.3183 C   0  0  0  0  0  0  0  0  0  0  0  0
    8.8889  -17.9249   24.7157 C   0  0  0  0  0  0  0  0  0  0  0  0
    9.7425  -19.1464   24.9852 C   0  0  0  0  0  0  0  0  0  0  0  0
    9.5244  -19.6779   26.3857 C   0  0  0  0  0  0  0  0  0  0  0  0
   10.4900  -20.7220   26.6594 N   0  0  0  0  0  0  0  0  0  0  0  0
    8.7055  -15.1134   23.9669 C   0  0  0  0  0  0  0  0  0  0  0  0
    9.7457  -14.4201   23.8543 O   0  0  0  0  0  0  0  0  0  0  0  0
    6.9103  -11.9865   27.3149 C   0  0  0  0  0  0  0  0  0  0  0  0
    6.6921  -13.0566   26.2757 C   0  0  1  0  0  0  0  0  0  0  0  0
    6.0592  -12.4230   25.0783 C   0  0  0  0  0  0  0  0  0  0  0  0
    8.0035  -13.7347   25.9637 C   0  0  2  0  0  0  0  0  0  0  0  0
    7.8340  -14.8337   25.0290 N   0  0  0  0  0  0  0  0  0  0  0  0
    8.6304  -14.1858   27.2250 C   0  0  0  0  0  0  0  0  0  0  0  0
    8.4846  -15.3763   27.5800 O   0  0  0  0  0  0  0  0  0  0  0  0
    9.3722  -13.3503   28.0320 O   0  0  0  0  0  0  0  0  0  0  0  0
  2  1  1  6
  2  5  1  0
  3  2  1  0
  4  3  1  0
  5  6  2  0
  5  7  1  0
  7  8  1  0
  8  9  1  1
  9 10  1  0
 10 11  1  0
 11 12  1  0
 13 12  1  0
 14 15  2  0
 14  8  1  0
 17 16  1  1
 17 18  1  0
 19 17  1  0
 19 20  1  6
 20 14  1  0
 21 19  1  0
 22 21  2  0
 23 21  1  0
M  END
$$$$
