CKV.pdb
     RDKit          3D

 23 22  0  0  1  0  0  0  0  0999 V2000
    6.9191  -15.6461   18.7388 N   0  0  0  0  0  0  0  0  0  0  0  0
    7.8064  -15.1189   19.7308 C   0  0  1  0  0  0  0  0  0  0  0  0
    7.8997  -13.5944   19.6384 C   0  0  0  0  0  0  0  0  0  0  0  0
    8.7272  -13.0714   18.1306 S   0  0  0  0  0  0  0  0  0  0  0  0
    7.3396  -15.5084   21.0866 C   0  0  0  0  0  0  0  0  0  0  0  0
    6.1253  -15.2681   21.3903 O   0  0  0  0  0  0  0  0  0  0  0  0
    8.1809  -16.1302   22.0476 N   0  0  0  0  0  0  0  0  0  0  0  0
    7.6978  -16.4093   23.3767 C   0  0  1  0  0  0  0  0  0  0  0  0
    8.0161  -17.8192   23.8185 C   0  0  0  0  0  0  0  0  0  0  0  0
    7.6235  -18.0713   25.2547 C   0  0  0  0  0  0  0  0  0  0  0  0
    7.9757  -19.5100   25.5699 C   0  0  0  0  0  0  0  0  0  0  0  0
    7.6059  -19.8731   26.9922 C   0  0  0  0  0  0  0  0  0  0  0  0
    7.9390  -21.2613   27.2360 N   0  0  0  0  0  0  0  0  0  0  0  0
    8.1787  -15.4032   24.3538 C   0  0  0  0  0  0  0  0  0  0  0  0
    9.3930  -15.0887   24.3107 O   0  0  0  0  0  0  0  0  0  0  0  0
    7.2470  -11.8213   27.6384 C   0  0  0  0  0  0  0  0  0  0  0  0
    6.7227  -12.8277   26.6460 C   0  0  1  0  0  0  0  0  0  0  0  0
    6.1501  -12.0825   25.4830 C   0  0  0  0  0  0  0  0  0  0  0  0
    7.8285  -13.7770   26.2548 C   0  0  2  0  0  0  0  0  0  0  0  0
    7.3676  -14.7853   25.3163 N   0  0  0  0  0  0  0  0  0  0  0  0
    8.3980  -14.3898   27.4745 C   0  0  0  0  0  0  0  0  0  0  0  0
    8.0128  -15.5305   27.8139 O   0  0  0  0  0  0  0  0  0  0  0  0
    9.3390  -13.7586   28.2590 O   0  0  0  0  0  0  0  0  0  0  0  0
  2  1  1  6
  2  5  1  0
  3  2  1  0
  4  3  1  0
  5  6  2  0
  5  7  1  0
  7  8  1  0
  8  9  1  1
  9 10  1  0
 10 11  1  0
 11 12  1  0
 13 12  1  0
 14 15  2  0
 14  8  1  0
 17 16  1  1
 17 18  1  0
 19 17  1  0
 19 20  1  6
 20 14  1  0
 21 19  1  0
 22 21  2  0
 23 21  1  0
M  END
$$$$
