CKV.pdb
     RDKit          3D

 23 22  0  0  1  0  0  0  0  0999 V2000
    7.5541  -14.6309   18.1559 N   0  0  0  0  0  0  0  0  0  0  0  0
    8.5440  -14.7393   19.1843 C   0  0  1  0  0  0  0  0  0  0  0  0
    9.3042  -13.4236   19.3641 C   0  0  0  0  0  0  0  0  0  0  0  0
    8.1888  -12.0543   19.6992 S   0  0  0  0  0  0  0  0  0  0  0  0
    7.9014  -15.1230   20.4678 C   0  0  0  0  0  0  0  0  0  0  0  0
    6.6630  -14.8604   20.6158 O   0  0  0  0  0  0  0  0  0  0  0  0
    8.6017  -15.7630   21.5251 N   0  0  0  0  0  0  0  0  0  0  0  0
    7.9203  -16.1340   22.7399 C   0  0  1  0  0  0  0  0  0  0  0  0
    8.0900  -17.5994   23.0683 C   0  0  0  0  0  0  0  0  0  0  0  0
    7.4569  -17.9670   24.3891 C   0  0  0  0  0  0  0  0  0  0  0  0
    7.6648  -19.4538   24.5876 C   0  0  0  0  0  0  0  0  0  0  0  0
    6.8969  -19.9664   25.7872 C   0  0  0  0  0  0  0  0  0  0  0  0
    7.0860  -21.3975   25.9034 N   0  0  0  0  0  0  0  0  0  0  0  0
    8.3162  -15.2650   23.8741 C   0  0  0  0  0  0  0  0  0  0  0  0
    9.5332  -14.9798   23.9874 O   0  0  0  0  0  0  0  0  0  0  0  0
    7.1021  -12.0800   27.4642 C   0  0  0  0  0  0  0  0  0  0  0  0
    6.6490  -12.9937   26.3540 C   0  0  1  0  0  0  0  0  0  0  0  0
    6.0910  -12.1500   25.2529 C   0  0  0  0  0  0  0  0  0  0  0  0
    7.8009  -13.8614   25.9100 C   0  0  2  0  0  0  0  0  0  0  0  0
    7.4225  -14.7454   24.8213 N   0  0  0  0  0  0  0  0  0  0  0  0
    8.3156  -14.6188   27.0714 C   0  0  0  0  0  0  0  0  0  0  0  0
    7.8276  -15.7426   27.3240 O   0  0  0  0  0  0  0  0  0  0  0  0
    9.3137  -14.1412   27.8929 O   0  0  0  0  0  0  0  0  0  0  0  0
  2  1  1  6
  2  5  1  0
  3  2  1  0
  4  3  1  0
  5  6  2  0
  5  7  1  0
  7  8  1  0
  8  9  1  1
  9 10  1  0
 10 11  1  0
 11 12  1  0
 13 12  1  0
 14 15  2  0
 14  8  1  0
 17 16  1  1
 17 18  1  0
 19 17  1  0
 19 20  1  6
 20 14  1  0
 21 19  1  0
 22 21  2  0
 23 21  1  0
M  END
$$$$
