CKV.pdb
     RDKit          3D

 23 22  0  0  1  0  0  0  0  0999 V2000
    7.4255  -15.4978   18.3913 N   0  0  0  0  0  0  0  0  0  0  0  0
    8.1525  -14.8682   19.4516 C   0  0  1  0  0  0  0  0  0  0  0  0
    7.9948  -13.3468   19.4060 C   0  0  0  0  0  0  0  0  0  0  0  0
    8.8007  -12.6400   17.9629 S   0  0  0  0  0  0  0  0  0  0  0  0
    7.6790  -15.3792   20.7640 C   0  0  0  0  0  0  0  0  0  0  0  0
    6.4213  -15.4756   20.9470 O   0  0  0  0  0  0  0  0  0  0  0  0
    8.5596  -15.7605   21.8114 N   0  0  0  0  0  0  0  0  0  0  0  0
    8.0427  -16.1952   23.0848 C   0  0  1  0  0  0  0  0  0  0  0  0
    8.4264  -17.6221   23.4028 C   0  0  0  0  0  0  0  0  0  0  0  0
    7.9844  -18.0390   24.7853 C   0  0  0  0  0  0  0  0  0  0  0  0
    8.3763  -19.4910   24.9625 C   0  0  0  0  0  0  0  0  0  0  0  0
    7.9906  -20.0068   26.3324 C   0  0  0  0  0  0  0  0  0  0  0  0
    8.3981  -21.3909   26.4571 N   0  0  0  0  0  0  0  0  0  0  0  0
    8.4251  -15.2652   24.1745 C   0  0  0  0  0  0  0  0  0  0  0  0
    9.6465  -15.0168   24.3214 O   0  0  0  0  0  0  0  0  0  0  0  0
    7.1559  -11.7204   27.3846 C   0  0  0  0  0  0  0  0  0  0  0  0
    6.7084  -12.7732   26.4028 C   0  0  1  0  0  0  0  0  0  0  0  0
    6.1148  -12.0834   25.2164 C   0  0  0  0  0  0  0  0  0  0  0  0
    7.8739  -13.6637   26.0485 C   0  0  2  0  0  0  0  0  0  0  0  0
    7.5140  -14.6502   25.0449 N   0  0  0  0  0  0  0  0  0  0  0  0
    8.3894  -14.3030   27.2786 C   0  0  0  0  0  0  0  0  0  0  0  0
    7.8785  -15.3793   27.6597 O   0  0  0  0  0  0  0  0  0  0  0  0
    9.4127  -13.7647   28.0286 O   0  0  0  0  0  0  0  0  0  0  0  0
  2  1  1  6
  2  5  1  0
  3  2  1  0
  4  3  1  0
  5  6  2  0
  5  7  1  0
  7  8  1  0
  8  9  1  1
  9 10  1  0
 10 11  1  0
 11 12  1  0
 13 12  1  0
 14 15  2  0
 14  8  1  0
 17 16  1  1
 17 18  1  0
 19 17  1  0
 19 20  1  6
 20 14  1  0
 21 19  1  0
 22 21  2  0
 23 21  1  0
M  END
$$$$
