CKV.pdb
     RDKit          3D

 23 22  0  0  1  0  0  0  0  0999 V2000
    8.1608  -15.9143   18.2064 N   0  0  0  0  0  0  0  0  0  0  0  0
    8.8323  -15.3153   19.3197 C   0  0  1  0  0  0  0  0  0  0  0  0
    9.3621  -13.9241   18.9655 C   0  0  0  0  0  0  0  0  0  0  0  0
    8.0249  -12.7777   18.6056 S   0  0  0  0  0  0  0  0  0  0  0  0
    7.9056  -15.2159   20.4768 C   0  0  0  0  0  0  0  0  0  0  0  0
    6.6685  -15.4431   20.2705 O   0  0  0  0  0  0  0  0  0  0  0  0
    8.3360  -14.8820   21.7888 N   0  0  0  0  0  0  0  0  0  0  0  0
    7.7100  -15.4784   22.9421 C   0  0  1  0  0  0  0  0  0  0  0  0
    7.8009  -16.9870   22.9282 C   0  0  0  0  0  0  0  0  0  0  0  0
    7.2500  -17.6052   24.1911 C   0  0  0  0  0  0  0  0  0  0  0  0
    7.4693  -19.1003   24.0911 C   0  0  0  0  0  0  0  0  0  0  0  0
    7.0104  -19.8136   25.3449 C   0  0  0  0  0  0  0  0  0  0  0  0
    7.2855  -21.2300   25.2201 N   0  0  0  0  0  0  0  0  0  0  0  0
    8.2352  -14.9056   24.2047 C   0  0  0  0  0  0  0  0  0  0  0  0
    9.4329  -15.1445   24.4945 O   0  0  0  0  0  0  0  0  0  0  0  0
    6.9560  -11.3599   25.8740 C   0  0  0  0  0  0  0  0  0  0  0  0
    7.0813  -12.4831   26.8717 C   0  0  1  0  0  0  0  0  0  0  0  0
    5.7087  -12.9902   27.1792 C   0  0  0  0  0  0  0  0  0  0  0  0
    7.9973  -13.5490   26.3222 C   0  0  2  0  0  0  0  0  0  0  0  0
    7.4832  -14.1194   25.0892 N   0  0  0  0  0  0  0  0  0  0  0  0
    8.2101  -14.5870   27.3540 C   0  0  0  0  0  0  0  0  0  0  0  0
    7.6311  -15.6890   27.2307 O   0  0  0  0  0  0  0  0  0  0  0  0
    9.0216  -14.3954   28.4513 O   0  0  0  0  0  0  0  0  0  0  0  0
  2  1  1  6
  2  5  1  0
  3  2  1  0
  4  3  1  0
  5  6  2  0
  5  7  1  0
  7  8  1  0
  8  9  1  1
  9 10  1  0
 10 11  1  0
 11 12  1  0
 13 12  1  0
 14 15  2  0
 14  8  1  0
 17 16  1  6
 17 18  1  0
 19 17  1  0
 19 20  1  6
 20 14  1  0
 21 19  1  0
 22 21  2  0
 23 21  1  0
M  END
$$$$
