CKV.pdb
     RDKit          3D

 23 22  0  0  1  0  0  0  0  0999 V2000
    4.5686  -13.1411   26.3820 N   0  0  0  0  0  0  0  0  0  0  0  0
    5.7137  -12.6719   25.6623 C   0  0  1  0  0  0  0  0  0  0  0  0
    6.4008  -11.5215   26.4010 C   0  0  0  0  0  0  0  0  0  0  0  0
    7.9628  -11.0778   25.6298 S   0  0  0  0  0  0  0  0  0  0  0  0
    6.6787  -13.7842   25.4645 C   0  0  0  0  0  0  0  0  0  0  0  0
    6.9511  -14.5218   26.4677 O   0  0  0  0  0  0  0  0  0  0  0  0
    7.3035  -14.0568   24.2182 N   0  0  0  0  0  0  0  0  0  0  0  0
    8.1899  -15.1839   24.0710 C   0  0  1  0  0  0  0  0  0  0  0  0
    8.4978  -15.4861   22.6225 C   0  0  0  0  0  0  0  0  0  0  0  0
    9.3124  -16.7475   22.4617 C   0  0  0  0  0  0  0  0  0  0  0  0
    9.5301  -16.9546   20.9775 C   0  0  0  0  0  0  0  0  0  0  0  0
   10.2443  -18.2596   20.6979 C   0  0  0  0  0  0  0  0  0  0  0  0
   10.2931  -18.4843   19.2681 N   0  0  0  0  0  0  0  0  0  0  0  0
    9.4248  -15.0147   24.8739 C   0  0  0  0  0  0  0  0  0  0  0  0
   10.2097  -14.0934   24.5414 O   0  0  0  0  0  0  0  0  0  0  0  0
   10.3095  -13.7825   27.9944 C   0  0  0  0  0  0  0  0  0  0  0  0
   10.8678  -15.1806   28.0728 C   0  0  1  0  0  0  0  0  0  0  0  0
    9.9558  -16.0007   28.9280 C   0  0  0  0  0  0  0  0  0  0  0  0
   11.0350  -15.7382   26.6807 C   0  0  2  0  0  0  0  0  0  0  0  0
    9.7683  -15.8137   25.9736 N   0  0  0  0  0  0  0  0  0  0  0  0
   11.6918  -17.0609   26.7618 C   0  0  0  0  0  0  0  0  0  0  0  0
   11.0298  -18.0827   26.4749 O   0  0  0  0  0  0  0  0  0  0  0  0
   13.0071  -17.2207   27.1410 O   0  0  0  0  0  0  0  0  0  0  0  0
  2  1  1  1
  2  5  1  0
  3  2  1  0
  4  3  1  0
  5  6  2  0
  5  7  1  0
  7  8  1  0
  8  9  1  6
  9 10  1  0
 10 11  1  0
 11 12  1  0
 13 12  1  0
 14 15  2  0
 14  8  1  0
 17 16  1  6
 17 18  1  0
 19 17  1  0
 19 20  1  1
 20 14  1  0
 21 19  1  0
 22 21  2  0
 23 21  1  0
M  END
$$$$
