CKV.pdb
     RDKit          3D

 23 22  0  0  1  0  0  0  0  0999 V2000
    7.4197  -15.9122   18.1431 N   0  0  0  0  0  0  0  0  0  0  0  0
    8.3088  -15.5047   19.1884 C   0  0  1  0  0  0  0  0  0  0  0  0
    8.7980  -14.0709   18.9737 C   0  0  0  0  0  0  0  0  0  0  0  0
    7.5330  -12.8679   19.4029 S   0  0  0  0  0  0  0  0  0  0  0  0
    7.6250  -15.6063   20.5036 C   0  0  0  0  0  0  0  0  0  0  0  0
    6.3835  -15.8947   20.5087 O   0  0  0  0  0  0  0  0  0  0  0  0
    8.2897  -15.3978   21.7416 N   0  0  0  0  0  0  0  0  0  0  0  0
    7.8051  -16.0169   22.9498 C   0  0  1  0  0  0  0  0  0  0  0  0
    8.0653  -17.5055   22.9757 C   0  0  0  0  0  0  0  0  0  0  0  0
    7.6246  -18.1410   24.2728 C   0  0  0  0  0  0  0  0  0  0  0  0
    7.8809  -19.6287   24.1531 C   0  0  0  0  0  0  0  0  0  0  0  0
    7.4954  -20.3620   25.4199 C   0  0  0  0  0  0  0  0  0  0  0  0
    7.6514  -21.7874   25.2167 N   0  0  0  0  0  0  0  0  0  0  0  0
    8.3364  -15.3428   24.1587 C   0  0  0  0  0  0  0  0  0  0  0  0
    9.5824  -15.3209   24.3087 O   0  0  0  0  0  0  0  0  0  0  0  0
    7.6088  -12.1666   27.8925 C   0  0  0  0  0  0  0  0  0  0  0  0
    6.9925  -13.0572   26.8438 C   0  0  1  0  0  0  0  0  0  0  0  0
    6.3119  -12.1888   25.8346 C   0  0  0  0  0  0  0  0  0  0  0  0
    8.0560  -13.9426   26.2424 C   0  0  2  0  0  0  0  0  0  0  0  0
    7.5399  -14.7324   25.1379 N   0  0  0  0  0  0  0  0  0  0  0  0
    8.6316  -14.7999   27.3012 C   0  0  0  0  0  0  0  0  0  0  0  0
    8.0887  -15.8991   27.5502 O   0  0  0  0  0  0  0  0  0  0  0  0
    9.7448  -14.4419   28.0306 O   0  0  0  0  0  0  0  0  0  0  0  0
  2  1  1  6
  2  5  1  0
  3  2  1  0
  4  3  1  0
  5  6  2  0
  5  7  1  0
  7  8  1  0
  8  9  1  6
  9 10  1  0
 10 11  1  0
 11 12  1  0
 13 12  1  0
 14 15  2  0
 14  8  1  0
 17 16  1  1
 17 18  1  0
 19 17  1  0
 19 20  1  6
 20 14  1  0
 21 19  1  0
 22 21  2  0
 23 21  1  0
M  END
$$$$
