CKV.pdb
     RDKit          3D

 23 22  0  0  1  0  0  0  0  0999 V2000
    6.9754  -14.2866   18.6677 N   0  0  0  0  0  0  0  0  0  0  0  0
    8.0538  -14.7605   19.4811 C   0  0  1  0  0  0  0  0  0  0  0  0
    9.1833  -13.7312   19.5602 C   0  0  0  0  0  0  0  0  0  0  0  0
    8.5456  -12.0522   19.6368 S   0  0  0  0  0  0  0  0  0  0  0  0
    7.5607  -15.0655   20.8491 C   0  0  0  0  0  0  0  0  0  0  0  0
    6.6085  -14.3554   21.3111 O   0  0  0  0  0  0  0  0  0  0  0  0
    8.1002  -16.1039   21.6545 N   0  0  0  0  0  0  0  0  0  0  0  0
    7.5386  -16.3973   22.9492 C   0  0  1  0  0  0  0  0  0  0  0  0
    7.6450  -17.8632   23.3017 C   0  0  0  0  0  0  0  0  0  0  0  0
    7.1019  -18.1615   24.6789 C   0  0  0  0  0  0  0  0  0  0  0  0
    7.3724  -19.6246   24.9603 C   0  0  0  0  0  0  0  0  0  0  0  0
    6.8865  -20.0241   26.3372 C   0  0  0  0  0  0  0  0  0  0  0  0
    7.0252  -21.4565   26.4991 N   0  0  0  0  0  0  0  0  0  0  0  0
    8.1197  -15.5326   24.0041 C   0  0  0  0  0  0  0  0  0  0  0  0
    9.3710  -15.4871   24.0910 O   0  0  0  0  0  0  0  0  0  0  0  0
    7.6241  -11.9763   27.4188 C   0  0  0  0  0  0  0  0  0  0  0  0
    6.9547  -12.8774   26.4126 C   0  0  1  0  0  0  0  0  0  0  0  0
    6.4338  -12.0277   25.2980 C   0  0  0  0  0  0  0  0  0  0  0  0
    7.9301  -13.9311   25.9483 C   0  0  2  0  0  0  0  0  0  0  0  0
    7.3644  -14.7679   24.9044 N   0  0  0  0  0  0  0  0  0  0  0  0
    8.3689  -14.7339   27.1103 C   0  0  0  0  0  0  0  0  0  0  0  0
    7.7331  -15.7706   27.4031 O   0  0  0  0  0  0  0  0  0  0  0  0
    9.4524  -14.3908   27.8900 O   0  0  0  0  0  0  0  0  0  0  0  0
  2  1  1  6
  2  5  1  0
  3  2  1  0
  4  3  1  0
  5  6  2  0
  5  7  1  0
  7  8  1  0
  8  9  1  1
  9 10  1  0
 10 11  1  0
 11 12  1  0
 13 12  1  0
 14 15  2  0
 14  8  1  0
 17 16  1  1
 17 18  1  0
 19 17  1  0
 19 20  1  6
 20 14  1  0
 21 19  1  0
 22 21  2  0
 23 21  1  0
M  END
$$$$
