FQN.pdb
     RDKit          3D

 29 29  0  0  1  0  0  0  0  0999 V2000
    5.7814  -16.5733   25.1303 N   0  0  0  0  0  0  0  0  0  0  0  0
    6.8325  -15.7385   24.6339 C   0  0  1  0  0  0  0  0  0  0  0  0
    7.6504  -15.2175   25.7977 C   0  0  0  0  0  0  0  0  0  0  0  0
    7.3302  -13.8342   26.1643 C   0  0  0  0  0  0  0  0  0  0  0  0
    6.1997  -13.6147   26.9113 C   0  0  0  0  0  0  0  0  0  0  0  0
    5.7669  -12.3672   27.3339 C   0  0  0  0  0  0  0  0  0  0  0  0
    6.5638  -11.2960   26.9512 C   0  0  0  0  0  0  0  0  0  0  0  0
    7.7014  -11.4882   26.2031 C   0  0  0  0  0  0  0  0  0  0  0  0
    8.1023  -12.7494   25.7993 C   0  0  0  0  0  0  0  0  0  0  0  0
    7.7154  -16.5821   23.7563 C   0  0  0  0  0  0  0  0  0  0  0  0
    7.9960  -17.7749   24.0274 O   0  0  0  0  0  0  0  0  0  0  0  0
    7.7197  -12.8615   20.5296 N   0  0  0  0  0  0  0  0  0  0  0  0
    7.8282  -14.1937   20.0136 C   0  0  0  0  0  0  0  0  0  0  0  0
    6.7980  -14.6872   19.4959 O   0  0  0  0  0  0  0  0  0  0  0  0
    9.1356  -14.8560   20.1402 C   0  0  0  0  0  0  0  0  0  0  0  0
    8.9770  -16.3186   20.3107 C   0  0  0  0  0  0  0  0  0  0  0  0
    9.1575  -16.8550   21.6962 C   0  0  2  0  0  0  0  0  0  0  0  0
    8.2827  -16.0551   22.5566 N   0  0  0  0  0  0  0  0  0  0  0  0
   10.5653  -16.7919   22.1580 C   0  0  0  0  0  0  0  0  0  0  0  0
   11.4620  -16.3977   21.3644 O   0  0  0  0  0  0  0  0  0  0  0  0
   15.3930  -15.4655   23.5082 N   0  0  0  0  0  0  0  0  0  0  0  0
   14.1970  -15.7364   22.8637 C   0  0  0  0  0  0  0  0  0  0  0  0
   14.2295  -16.0536   21.6202 O   0  0  0  0  0  0  0  0  0  0  0  0
   12.8872  -15.6889   23.5047 C   0  0  0  0  0  0  0  0  0  0  0  0
   12.3674  -17.0371   23.8803 C   0  0  2  0  0  0  0  0  0  0  0  0
   10.9848  -17.1560   23.4696 N   0  0  0  0  0  0  0  0  0  0  0  0
   12.5256  -17.3779   25.3131 C   0  0  0  0  0  0  0  0  0  0  0  0
   12.0601  -16.5089   26.2785 O   0  0  0  0  0  0  0  0  0  0  0  0
   13.0737  -18.4424   25.6439 O   0  0  0  0  0  0  0  0  0  0  0  0
  2  1  1  1
  2  3  1  0
  3  4  1  0
  4  9  2  0
  5  4  1  0
  5  6  2  0
  6  7  1  0
  7  8  2  0
  9  8  1  0
 10  2  1  0
 10 18  1  0
 11 10  2  0
 13 12  1  0
 13 15  1  0
 14 13  2  0
 16 15  1  0
 17 16  1  6
 17 18  1  0
 19 17  1  0
 20 19  2  0
 21 22  1  0
 22 23  2  0
 22 24  1  0
 25 24  1  1
 25 26  1  0
 25 27  1  0
 26 19  1  0
 27 28  1  0
 29 27  2  0
M  END
$$$$
