FQN.pdb
     RDKit          3D

 29 29  0  0  1  0  0  0  0  0999 V2000
    9.6875  -16.7373   17.3245 N   0  0  0  0  0  0  0  0  0  0  0  0
   10.1989  -15.8260   18.3024 C   0  0  1  0  0  0  0  0  0  0  0  0
    9.2037  -15.6988   19.4373 C   0  0  0  0  0  0  0  0  0  0  0  0
    8.7648  -14.3204   19.6781 C   0  0  0  0  0  0  0  0  0  0  0  0
    9.0263  -13.7704   20.9083 C   0  0  0  0  0  0  0  0  0  0  0  0
    8.6748  -12.4831   21.2844 C   0  0  0  0  0  0  0  0  0  0  0  0
    8.0146  -11.7364   20.3172 C   0  0  0  0  0  0  0  0  0  0  0  0
    7.7405  -12.2631   19.0770 C   0  0  0  0  0  0  0  0  0  0  0  0
    8.1071  -13.5533   18.7373 C   0  0  0  0  0  0  0  0  0  0  0  0
   11.4811  -16.3990   18.8400 C   0  0  0  0  0  0  0  0  0  0  0  0
   11.9502  -17.4938   18.4444 O   0  0  0  0  0  0  0  0  0  0  0  0
   16.6337  -14.8131   18.5662 N   0  0  0  0  0  0  0  0  0  0  0  0
   15.4567  -14.2910   17.9380 C   0  0  0  0  0  0  0  0  0  0  0  0
   15.5779  -13.2081   17.3170 O   0  0  0  0  0  0  0  0  0  0  0  0
   14.2188  -15.0728   18.0812 C   0  0  0  0  0  0  0  0  0  0  0  0
   14.4038  -16.1932   19.0317 C   0  0  0  0  0  0  0  0  0  0  0  0
   13.5578  -16.1713   20.2661 C   0  0  2  0  0  0  0  0  0  0  0  0
   12.2336  -15.7122   19.8404 N   0  0  0  0  0  0  0  0  0  0  0  0
   14.1120  -15.2961   21.3271 C   0  0  0  0  0  0  0  0  0  0  0  0
   15.1122  -14.5714   21.0747 O   0  0  0  0  0  0  0  0  0  0  0  0
   13.9741  -19.7418   24.0073 N   0  0  0  0  0  0  0  0  0  0  0  0
   13.3291  -18.5467   24.2814 C   0  0  0  0  0  0  0  0  0  0  0  0
   12.8807  -18.3509   25.4683 O   0  0  0  0  0  0  0  0  0  0  0  0
   13.1223  -17.4805   23.3072 C   0  0  0  0  0  0  0  0  0  0  0  0
   13.8661  -16.2291   23.6386 C   0  0  2  0  0  0  0  0  0  0  0  0
   13.5789  -15.2164   22.6456 N   0  0  0  0  0  0  0  0  0  0  0  0
   15.3269  -16.4097   23.8041 C   0  0  0  0  0  0  0  0  0  0  0  0
   15.9403  -15.9934   24.9678 O   0  0  0  0  0  0  0  0  0  0  0  0
   15.9966  -16.9353   22.8995 O   0  0  0  0  0  0  0  0  0  0  0  0
  2  1  1  6
  2  3  1  0
  3  4  1  0
  4  9  2  0
  5  4  1  0
  5  6  2  0
  6  7  1  0
  7  8  2  0
  9  8  1  0
 10  2  1  0
 10 18  1  0
 11 10  2  0
 13 12  1  0
 13 15  1  0
 14 13  2  0
 16 15  1  0
 17 16  1  6
 17 18  1  0
 19 17  1  0
 20 19  2  0
 21 22  1  0
 22 23  2  0
 22 24  1  0
 25 24  1  6
 25 26  1  0
 25 27  1  0
 26 19  1  0
 27 28  1  0
 29 27  2  0
M  END
$$$$
