FQN.pdb
     RDKit          3D

 29 29  0  0  1  0  0  0  0  0999 V2000
    8.4664  -15.5088   25.6231 N   0  0  0  0  0  0  0  0  0  0  0  0
    7.2211  -16.0120   25.1290 C   0  0  1  0  0  0  0  0  0  0  0  0
    6.1154  -15.0340   25.4690 C   0  0  0  0  0  0  0  0  0  0  0  0
    6.6069  -13.7525   25.9855 C   0  0  0  0  0  0  0  0  0  0  0  0
    6.1723  -13.3520   27.2244 C   0  0  0  0  0  0  0  0  0  0  0  0
    6.5473  -12.1701   27.8445 C   0  0  0  0  0  0  0  0  0  0  0  0
    7.4240  -11.3686   27.1248 C   0  0  0  0  0  0  0  0  0  0  0  0
    7.8747  -11.7463   25.8819 C   0  0  0  0  0  0  0  0  0  0  0  0
    7.4782  -12.9346   25.2942 C   0  0  0  0  0  0  0  0  0  0  0  0
    7.3304  -16.1239   23.6334 C   0  0  0  0  0  0  0  0  0  0  0  0
    6.4553  -16.6876   22.9322 O   0  0  0  0  0  0  0  0  0  0  0  0
    8.0842  -12.0639   18.5475 N   0  0  0  0  0  0  0  0  0  0  0  0
    8.4802  -13.4339   18.6853 C   0  0  0  0  0  0  0  0  0  0  0  0
    8.2394  -14.1941   17.7172 O   0  0  0  0  0  0  0  0  0  0  0  0
    9.1302  -13.8191   19.9475 C   0  0  0  0  0  0  0  0  0  0  0  0
    8.1711  -14.4850   20.8585 C   0  0  0  0  0  0  0  0  0  0  0  0
    8.6242  -15.7640   21.4898 C   0  0  2  0  0  0  0  0  0  0  0  0
    8.4524  -15.5854   22.9335 N   0  0  0  0  0  0  0  0  0  0  0  0
   10.0286  -16.1037   21.1561 C   0  0  0  0  0  0  0  0  0  0  0  0
   10.2870  -16.6681   20.0589 O   0  0  0  0  0  0  0  0  0  0  0  0
   12.9051  -13.9030   19.5837 N   0  0  0  0  0  0  0  0  0  0  0  0
   13.3180  -15.1529   20.0157 C   0  0  0  0  0  0  0  0  0  0  0  0
   13.6155  -16.0380   19.1347 O   0  0  0  0  0  0  0  0  0  0  0  0
   13.4432  -15.5397   21.4169 C   0  0  0  0  0  0  0  0  0  0  0  0
   12.3992  -16.5135   21.8533 C   0  0  2  0  0  0  0  0  0  0  0  0
   11.1337  -15.8298   22.0121 N   0  0  0  0  0  0  0  0  0  0  0  0
   12.7454  -17.2775   23.0742 C   0  0  0  0  0  0  0  0  0  0  0  0
   12.9540  -18.6390   22.9932 O   0  0  0  0  0  0  0  0  0  0  0  0
   12.8490  -16.6944   24.1661 O   0  0  0  0  0  0  0  0  0  0  0  0
  2  1  1  6
  2  3  1  0
  3  4  1  0
  4  9  2  0
  5  4  1  0
  5  6  2  0
  6  7  1  0
  7  8  2  0
  9  8  1  0
 10  2  1  0
 10 18  1  0
 11 10  2  0
 13 12  1  0
 13 15  1  0
 14 13  2  0
 16 15  1  0
 17 16  1  6
 17 18  1  0
 19 17  1  0
 20 19  2  0
 21 22  1  0
 22 23  2  0
 22 24  1  0
 25 24  1  1
 25 26  1  0
 25 27  1  0
 26 19  1  0
 27 28  1  0
 29 27  2  0
M  END
$$$$
