FQN.pdb
     RDKit          3D

 29 29  0  0  1  0  0  0  0  0999 V2000
    5.4235  -17.2460   24.0124 N   0  0  0  0  0  0  0  0  0  0  0  0
    6.3597  -16.1932   24.2640 C   0  0  1  0  0  0  0  0  0  0  0  0
    6.1939  -15.7052   25.6885 C   0  0  0  0  0  0  0  0  0  0  0  0
    6.6474  -14.3252   25.8901 C   0  0  0  0  0  0  0  0  0  0  0  0
    5.9997  -13.5698   26.8356 C   0  0  0  0  0  0  0  0  0  0  0  0
    6.3127  -12.2537   27.1393 C   0  0  0  0  0  0  0  0  0  0  0  0
    7.3602  -11.7045   26.4115 C   0  0  0  0  0  0  0  0  0  0  0  0
    8.0259  -12.4393   25.4589 C   0  0  0  0  0  0  0  0  0  0  0  0
    7.6850  -13.7516   25.1828 C   0  0  0  0  0  0  0  0  0  0  0  0
    7.7435  -16.7584   24.1001 C   0  0  0  0  0  0  0  0  0  0  0  0
    8.0759  -17.8766   24.5628 O   0  0  0  0  0  0  0  0  0  0  0  0
   13.2057  -17.8904   21.0536 N   0  0  0  0  0  0  0  0  0  0  0  0
   12.4707  -16.6699   20.9026 C   0  0  0  0  0  0  0  0  0  0  0  0
   12.0592  -16.3944   19.7503 O   0  0  0  0  0  0  0  0  0  0  0  0
   12.2690  -15.8560   22.1113 C   0  0  0  0  0  0  0  0  0  0  0  0
   10.8295  -15.5997   22.3463 C   0  0  0  0  0  0  0  0  0  0  0  0
   10.1156  -16.5612   23.2440 C   0  0  2  0  0  0  0  0  0  0  0  0
    8.7570  -16.0364   23.3997 N   0  0  0  0  0  0  0  0  0  0  0  0
   10.7811  -16.7217   24.5594 C   0  0  0  0  0  0  0  0  0  0  0  0
   11.0731  -15.6990   25.2364 O   0  0  0  0  0  0  0  0  0  0  0  0
    9.5466  -17.7327   27.8345 N   0  0  0  0  0  0  0  0  0  0  0  0
   10.2047  -18.9515   27.8596 C   0  0  0  0  0  0  0  0  0  0  0  0
    9.6936  -19.9095   28.5445 O   0  0  0  0  0  0  0  0  0  0  0  0
   11.4506  -19.2291   27.1529 C   0  0  0  0  0  0  0  0  0  0  0  0
   11.9251  -18.0810   26.3251 C   0  0  2  0  0  0  0  0  0  0  0  0
   11.1227  -17.9837   25.1247 N   0  0  0  0  0  0  0  0  0  0  0  0
   13.3688  -18.1180   25.9956 C   0  0  0  0  0  0  0  0  0  0  0  0
   14.3033  -17.9389   26.9948 O   0  0  0  0  0  0  0  0  0  0  0  0
   13.7364  -18.3110   24.8249 O   0  0  0  0  0  0  0  0  0  0  0  0
  2  1  1  1
  2  3  1  0
  3  4  1  0
  4  9  2  0
  5  4  1  0
  5  6  2  0
  6  7  1  0
  7  8  2  0
  9  8  1  0
 10  2  1  0
 10 18  1  0
 11 10  2  0
 13 12  1  0
 13 15  1  0
 14 13  2  0
 16 15  1  0
 17 16  1  6
 17 18  1  0
 19 17  1  0
 20 19  2  0
 21 22  1  0
 22 23  2  0
 22 24  1  0
 25 24  1  6
 25 26  1  0
 25 27  1  0
 26 19  1  0
 27 28  1  0
 29 27  2  0
M  END
$$$$
