FQN.pdb
     RDKit          3D

 29 29  0  0  1  0  0  0  0  0999 V2000
    6.4853  -16.8674   25.1968 N   0  0  0  0  0  0  0  0  0  0  0  0
    7.1184  -15.6952   24.6741 C   0  0  1  0  0  0  0  0  0  0  0  0
    7.8372  -14.9722   25.7945 C   0  0  0  0  0  0  0  0  0  0  0  0
    7.1160  -13.7942   26.2873 C   0  0  0  0  0  0  0  0  0  0  0  0
    7.6542  -12.5585   26.0274 C   0  0  0  0  0  0  0  0  0  0  0  0
    7.0909  -11.3562   26.4266 C   0  0  0  0  0  0  0  0  0  0  0  0
    5.9008  -11.4590   27.1352 C   0  0  0  0  0  0  0  0  0  0  0  0
    5.3402  -12.6844   27.4089 C   0  0  0  0  0  0  0  0  0  0  0  0
    5.9319  -13.8643   26.9937 C   0  0  0  0  0  0  0  0  0  0  0  0
    8.1284  -16.1347   23.6504 C   0  0  0  0  0  0  0  0  0  0  0  0
    8.6134  -17.2922   23.6333 O   0  0  0  0  0  0  0  0  0  0  0  0
   11.9551  -13.2851   18.5902 N   0  0  0  0  0  0  0  0  0  0  0  0
   10.5491  -13.5362   18.7033 C   0  0  0  0  0  0  0  0  0  0  0  0
    9.7776  -12.6233   18.3236 O   0  0  0  0  0  0  0  0  0  0  0  0
   10.1439  -14.8388   19.2538 C   0  0  0  0  0  0  0  0  0  0  0  0
    9.2892  -14.6679   20.4511 C   0  0  0  0  0  0  0  0  0  0  0  0
    9.4386  -15.6917   21.5325 C   0  0  2  0  0  0  0  0  0  0  0  0
    8.5880  -15.2406   22.6364 N   0  0  0  0  0  0  0  0  0  0  0  0
   10.8440  -15.8600   21.9743 C   0  0  0  0  0  0  0  0  0  0  0  0
   11.6090  -16.6291   21.3318 O   0  0  0  0  0  0  0  0  0  0  0  0
   14.3728  -17.4003   25.2443 N   0  0  0  0  0  0  0  0  0  0  0  0
   13.0841  -17.8722   25.0547 C   0  0  0  0  0  0  0  0  0  0  0  0
   12.8005  -19.0577   25.4574 O   0  0  0  0  0  0  0  0  0  0  0  0
   12.0122  -17.1088   24.4247 C   0  0  0  0  0  0  0  0  0  0  0  0
   12.4674  -15.7952   23.8808 C   0  0  2  0  0  0  0  0  0  0  0  0
   11.4033  -15.1965   23.1038 N   0  0  0  0  0  0  0  0  0  0  0  0
   13.7238  -15.8575   23.0988 C   0  0  0  0  0  0  0  0  0  0  0  0
   13.7061  -16.3619   21.8147 O   0  0  0  0  0  0  0  0  0  0  0  0
   14.7886  -15.4558   23.5966 O   0  0  0  0  0  0  0  0  0  0  0  0
  2  1  1  1
  2  3  1  0
  3  4  1  0
  4  9  2  0
  5  4  1  0
  5  6  2  0
  6  7  1  0
  7  8  2  0
  9  8  1  0
 10  2  1  0
 10 18  1  0
 11 10  2  0
 13 12  1  0
 13 15  1  0
 14 13  2  0
 16 15  1  0
 17 16  1  6
 17 18  1  0
 19 17  1  0
 20 19  2  0
 21 22  1  0
 22 23  2  0
 22 24  1  0
 25 24  1  6
 25 26  1  0
 25 27  1  0
 26 19  1  0
 27 28  1  0
 29 27  2  0
M  END
$$$$
