FQN.pdb
     RDKit          3D

 29 29  0  0  1  0  0  0  0  0999 V2000
    7.0040  -16.3514   25.4535 N   0  0  0  0  0  0  0  0  0  0  0  0
    7.0871  -15.4621   24.3353 C   0  0  1  0  0  0  0  0  0  0  0  0
    8.0135  -14.3132   24.6767 C   0  0  0  0  0  0  0  0  0  0  0  0
    7.4489  -13.3781   25.6553 C   0  0  0  0  0  0  0  0  0  0  0  0
    8.1704  -13.1324   26.7969 C   0  0  0  0  0  0  0  0  0  0  0  0
    7.7695  -12.2762   27.8109 C   0  0  0  0  0  0  0  0  0  0  0  0
    6.5475  -11.6463   27.6140 C   0  0  0  0  0  0  0  0  0  0  0  0
    5.8048  -11.8746   26.4795 C   0  0  0  0  0  0  0  0  0  0  0  0
    6.2377  -12.7370   25.4878 C   0  0  0  0  0  0  0  0  0  0  0  0
    7.6669  -16.2289   23.1789 C   0  0  0  0  0  0  0  0  0  0  0  0
    8.1346  -17.3870   23.3027 O   0  0  0  0  0  0  0  0  0  0  0  0
    8.6735  -12.5250   17.6682 N   0  0  0  0  0  0  0  0  0  0  0  0
    7.8775  -13.6124   18.1548 C   0  0  0  0  0  0  0  0  0  0  0  0
    6.8966  -13.9559   17.4528 O   0  0  0  0  0  0  0  0  0  0  0  0
    8.2848  -14.2218   19.4302 C   0  0  0  0  0  0  0  0  0  0  0  0
    7.8513  -15.6358   19.5069 C   0  0  0  0  0  0  0  0  0  0  0  0
    8.2645  -16.3980   20.7268 C   0  0  2  0  0  0  0  0  0  0  0  0
    7.7118  -15.6646   21.8681 N   0  0  0  0  0  0  0  0  0  0  0  0
    9.7357  -16.5408   20.8444 C   0  0  0  0  0  0  0  0  0  0  0  0
   10.3558  -17.2728   20.0264 O   0  0  0  0  0  0  0  0  0  0  0  0
   12.0404  -13.4738   19.6422 N   0  0  0  0  0  0  0  0  0  0  0  0
   12.6376  -14.6038   20.1768 C   0  0  0  0  0  0  0  0  0  0  0  0
   13.1822  -15.4459   19.3754 O   0  0  0  0  0  0  0  0  0  0  0  0
   12.6950  -14.9082   21.6025 C   0  0  0  0  0  0  0  0  0  0  0  0
   11.9365  -16.1400   21.9715 C   0  0  2  0  0  0  0  0  0  0  0  0
   10.5164  -15.8921   21.8437 N   0  0  0  0  0  0  0  0  0  0  0  0
   12.2612  -16.6818   23.3113 C   0  0  0  0  0  0  0  0  0  0  0  0
   13.5682  -16.9933   23.6249 O   0  0  0  0  0  0  0  0  0  0  0  0
   11.3606  -16.8533   24.1495 O   0  0  0  0  0  0  0  0  0  0  0  0
  2  1  1  1
  2  3  1  0
  3  4  1  0
  4  9  2  0
  5  4  1  0
  5  6  2  0
  6  7  1  0
  7  8  2  0
  9  8  1  0
 10  2  1  0
 10 18  1  0
 11 10  2  0
 13 12  1  0
 13 15  1  0
 14 13  2  0
 16 15  1  0
 17 16  1  6
 17 18  1  0
 19 17  1  0
 20 19  2  0
 21 22  1  0
 22 23  2  0
 22 24  1  0
 25 24  1  1
 25 26  1  0
 25 27  1  0
 26 19  1  0
 27 28  1  0
 29 27  2  0
M  END
$$$$
