FQN.pdb
     RDKit          3D

 29 29  0  0  1  0  0  0  0  0999 V2000
    6.3836  -17.9757   25.2264 N   0  0  0  0  0  0  0  0  0  0  0  0
    6.7818  -16.6096   25.0736 C   0  0  1  0  0  0  0  0  0  0  0  0
    7.5425  -16.1685   26.3072 C   0  0  0  0  0  0  0  0  0  0  0  0
    7.4578  -14.7268   26.5618 C   0  0  0  0  0  0  0  0  0  0  0  0
    8.5725  -14.0971   27.0569 C   0  0  0  0  0  0  0  0  0  0  0  0
    8.6466  -12.7434   27.3470 C   0  0  0  0  0  0  0  0  0  0  0  0
    7.4893  -12.0151   27.1040 C   0  0  0  0  0  0  0  0  0  0  0  0
    6.3591  -12.6211   26.6082 C   0  0  0  0  0  0  0  0  0  0  0  0
    6.3224  -13.9761   26.3303 C   0  0  0  0  0  0  0  0  0  0  0  0
    7.6951  -16.5265   23.8819 C   0  0  0  0  0  0  0  0  0  0  0  0
    8.3305  -17.5177   23.4471 O   0  0  0  0  0  0  0  0  0  0  0  0
    5.5043  -16.0728   20.2105 N   0  0  0  0  0  0  0  0  0  0  0  0
    6.4471  -15.0651   19.8252 C   0  0  0  0  0  0  0  0  0  0  0  0
    6.9700  -15.1814   18.6912 O   0  0  0  0  0  0  0  0  0  0  0  0
    6.7127  -13.9912   20.7948 C   0  0  0  0  0  0  0  0  0  0  0  0
    8.1313  -13.9971   21.2201 C   0  0  0  0  0  0  0  0  0  0  0  0
    8.6171  -15.2304   21.9151 C   0  0  2  0  0  0  0  0  0  0  0  0
    7.8831  -15.2968   23.1810 N   0  0  0  0  0  0  0  0  0  0  0  0
   10.0819  -15.2207   22.1459 C   0  0  0  0  0  0  0  0  0  0  0  0
   10.8654  -15.1593   21.1602 O   0  0  0  0  0  0  0  0  0  0  0  0
   14.2379  -17.0672   26.1528 N   0  0  0  0  0  0  0  0  0  0  0  0
   13.8029  -16.0724   25.2924 C   0  0  0  0  0  0  0  0  0  0  0  0
   14.6815  -15.3798   24.6629 O   0  0  0  0  0  0  0  0  0  0  0  0
   12.4010  -15.7527   25.0452 C   0  0  0  0  0  0  0  0  0  0  0  0
   12.0981  -15.5136   23.6031 C   0  0  2  0  0  0  0  0  0  0  0  0
   10.6798  -15.2782   23.4374 N   0  0  0  0  0  0  0  0  0  0  0  0
   12.5674  -16.5834   22.6924 C   0  0  0  0  0  0  0  0  0  0  0  0
   13.6481  -16.3531   21.8661 O   0  0  0  0  0  0  0  0  0  0  0  0
   11.9913  -17.6837   22.6740 O   0  0  0  0  0  0  0  0  0  0  0  0
  2  1  1  1
  2  3  1  0
  3  4  1  0
  4  9  2  0
  5  4  1  0
  5  6  2  0
  6  7  1  0
  7  8  2  0
  9  8  1  0
 10  2  1  0
 10 18  1  0
 11 10  2  0
 13 12  1  0
 13 15  1  0
 14 13  2  0
 16 15  1  0
 17 16  1  1
 17 18  1  0
 19 17  1  0
 20 19  2  0
 21 22  1  0
 22 23  2  0
 22 24  1  0
 25 24  1  1
 25 26  1  0
 25 27  1  0
 26 19  1  0
 27 28  1  0
 29 27  2  0
M  END
$$$$
