FQN.pdb
     RDKit          3D

 29 29  0  0  1  0  0  0  0  0999 V2000
    6.2687  -16.9027   25.4378 N   0  0  0  0  0  0  0  0  0  0  0  0
    6.6457  -15.7423   24.6898 C   0  0  1  0  0  0  0  0  0  0  0  0
    7.7857  -15.0389   25.3972 C   0  0  0  0  0  0  0  0  0  0  0  0
    7.3627  -13.8573   26.1557 C   0  0  0  0  0  0  0  0  0  0  0  0
    8.1981  -13.3967   27.1426 C   0  0  0  0  0  0  0  0  0  0  0  0
    7.9370  -12.2945   27.9422 C   0  0  0  0  0  0  0  0  0  0  0  0
    6.7361  -11.6438   27.6908 C   0  0  0  0  0  0  0  0  0  0  0  0
    5.8812  -12.0843   26.7080 C   0  0  0  0  0  0  0  0  0  0  0  0
    6.1759  -13.1893   25.9290 C   0  0  0  0  0  0  0  0  0  0  0  0
    7.1188  -16.1995   23.3376 C   0  0  0  0  0  0  0  0  0  0  0  0
    7.2509  -17.4122   23.0424 O   0  0  0  0  0  0  0  0  0  0  0  0
    8.1752  -12.1492   18.8317 N   0  0  0  0  0  0  0  0  0  0  0  0
    8.1587  -13.3135   17.9969 C   0  0  0  0  0  0  0  0  0  0  0  0
    8.3480  -13.1347   16.7701 O   0  0  0  0  0  0  0  0  0  0  0  0
    7.9209  -14.6068   18.6565 C   0  0  0  0  0  0  0  0  0  0  0  0
    7.7388  -14.4342   20.1161 C   0  0  0  0  0  0  0  0  0  0  0  0
    7.7548  -15.6802   20.9451 C   0  0  2  0  0  0  0  0  0  0  0  0
    7.4440  -15.2594   22.3133 N   0  0  0  0  0  0  0  0  0  0  0  0
    9.0539  -16.3928   20.8866 C   0  0  0  0  0  0  0  0  0  0  0  0
    9.2002  -17.3521   20.0818 O   0  0  0  0  0  0  0  0  0  0  0  0
   13.4461  -14.6910   22.6786 N   0  0  0  0  0  0  0  0  0  0  0  0
   12.8062  -14.9165   21.4708 C   0  0  0  0  0  0  0  0  0  0  0  0
   12.4979  -13.9050   20.7428 O   0  0  0  0  0  0  0  0  0  0  0  0
   12.4552  -16.2370   20.9589 C   0  0  0  0  0  0  0  0  0  0  0  0
   11.3586  -16.8939   21.7300 C   0  0  2  0  0  0  0  0  0  0  0  0
   10.1761  -16.0602   21.6983 N   0  0  0  0  0  0  0  0  0  0  0  0
   11.7171  -17.2520   23.1219 C   0  0  0  0  0  0  0  0  0  0  0  0
   12.7596  -18.1248   23.3568 O   0  0  0  0  0  0  0  0  0  0  0  0
   11.0828  -16.7673   24.0735 O   0  0  0  0  0  0  0  0  0  0  0  0
  2  1  1  1
  2  3  1  0
  3  4  1  0
  4  9  2  0
  5  4  1  0
  5  6  2  0
  6  7  1  0
  7  8  2  0
  9  8  1  0
 10  2  1  0
 10 18  1  0
 11 10  2  0
 13 12  1  0
 13 15  1  0
 14 13  2  0
 16 15  1  0
 17 16  1  6
 17 18  1  0
 19 17  1  0
 20 19  2  0
 21 22  1  0
 22 23  2  0
 22 24  1  0
 25 24  1  1
 25 26  1  0
 25 27  1  0
 26 19  1  0
 27 28  1  0
 29 27  2  0
M  END
$$$$
