FQN.pdb
     RDKit          3D

 29 29  0  0  1  0  0  0  0  0999 V2000
    5.7483  -17.4257   24.9603 N   0  0  0  0  0  0  0  0  0  0  0  0
    6.5020  -16.2267   24.7542 C   0  0  1  0  0  0  0  0  0  0  0  0
    7.4838  -16.0500   25.8943 C   0  0  0  0  0  0  0  0  0  0  0  0
    7.7591  -14.6460   26.2162 C   0  0  0  0  0  0  0  0  0  0  0  0
    6.7005  -13.8538   26.5847 C   0  0  0  0  0  0  0  0  0  0  0  0
    6.8018  -12.5117   26.9174 C   0  0  0  0  0  0  0  0  0  0  0  0
    8.0817  -11.9757   26.8596 C   0  0  0  0  0  0  0  0  0  0  0  0
    9.1594  -12.7473   26.4936 C   0  0  0  0  0  0  0  0  0  0  0  0
    9.0196  -14.0849   26.1680 C   0  0  0  0  0  0  0  0  0  0  0  0
    7.2688  -16.3797   23.4697 C   0  0  0  0  0  0  0  0  0  0  0  0
    7.7154  -17.4849   23.0769 O   0  0  0  0  0  0  0  0  0  0  0  0
    9.0819  -13.1184   18.4001 N   0  0  0  0  0  0  0  0  0  0  0  0
    7.7411  -13.5992   18.2462 C   0  0  0  0  0  0  0  0  0  0  0  0
    7.2371  -13.5173   17.1007 O   0  0  0  0  0  0  0  0  0  0  0  0
    7.0829  -14.1420   19.4446 C   0  0  0  0  0  0  0  0  0  0  0  0
    7.9907  -14.1032   20.6141 C   0  0  0  0  0  0  0  0  0  0  0  0
    8.2077  -15.3955   21.3370 C   0  0  2  0  0  0  0  0  0  0  0  0
    7.5269  -15.2566   22.6265 N   0  0  0  0  0  0  0  0  0  0  0  0
    9.6435  -15.7167   21.5219 C   0  0  0  0  0  0  0  0  0  0  0  0
   10.2704  -16.3097   20.6029 O   0  0  0  0  0  0  0  0  0  0  0  0
   12.7427  -14.2564   19.9011 N   0  0  0  0  0  0  0  0  0  0  0  0
   12.9500  -15.1985   20.8955 C   0  0  0  0  0  0  0  0  0  0  0  0
   13.3801  -16.3602   20.5586 O   0  0  0  0  0  0  0  0  0  0  0  0
   12.7143  -14.9618   22.3157 C   0  0  0  0  0  0  0  0  0  0  0  0
   11.7195  -15.9023   22.9111 C   0  0  2  0  0  0  0  0  0  0  0  0
   10.3818  -15.3937   22.6964 N   0  0  0  0  0  0  0  0  0  0  0  0
   11.9461  -16.2093   24.3424 C   0  0  0  0  0  0  0  0  0  0  0  0
   11.2922  -15.4762   25.3112 O   0  0  0  0  0  0  0  0  0  0  0  0
   12.7205  -17.1241   24.6688 O   0  0  0  0  0  0  0  0  0  0  0  0
  2  1  1  1
  2  3  1  0
  3  4  1  0
  4  9  2  0
  5  4  1  0
  5  6  2  0
  6  7  1  0
  7  8  2  0
  9  8  1  0
 10  2  1  0
 10 18  1  0
 11 10  2  0
 13 12  1  0
 13 15  1  0
 14 13  2  0
 16 15  1  0
 17 16  1  1
 17 18  1  0
 19 17  1  0
 20 19  2  0
 21 22  1  0
 22 23  2  0
 22 24  1  0
 25 24  1  1
 25 26  1  0
 25 27  1  0
 26 19  1  0
 27 28  1  0
 29 27  2  0
M  END
$$$$
