FQN.pdb
     RDKit          3D

 29 29  0  0  1  0  0  0  0  0999 V2000
    7.9934  -15.6487   24.8969 N   0  0  0  0  0  0  0  0  0  0  0  0
    7.0927  -15.0673   23.9489 C   0  0  1  0  0  0  0  0  0  0  0  0
    7.2762  -13.5636   23.9406 C   0  0  0  0  0  0  0  0  0  0  0  0
    7.0250  -12.9369   25.2424 C   0  0  0  0  0  0  0  0  0  0  0  0
    8.1096  -12.6305   26.0258 C   0  0  0  0  0  0  0  0  0  0  0  0
    8.0331  -12.0376   27.2768 C   0  0  0  0  0  0  0  0  0  0  0  0
    6.7504  -11.7527   27.7265 C   0  0  0  0  0  0  0  0  0  0  0  0
    5.6469  -12.0492   26.9616 C   0  0  0  0  0  0  0  0  0  0  0  0
    5.7624  -12.6415   25.7164 C   0  0  0  0  0  0  0  0  0  0  0  0
    7.4416  -15.6087   22.5900 C   0  0  0  0  0  0  0  0  0  0  0  0
    6.5841  -15.7772   21.6892 O   0  0  0  0  0  0  0  0  0  0  0  0
    8.2315  -12.3471   18.4986 N   0  0  0  0  0  0  0  0  0  0  0  0
    8.4598  -13.7064   18.1078 C   0  0  0  0  0  0  0  0  0  0  0  0
    7.7984  -14.1349   17.1321 O   0  0  0  0  0  0  0  0  0  0  0  0
    9.4463  -14.4703   18.8872 C   0  0  0  0  0  0  0  0  0  0  0  0
    8.9757  -14.6877   20.2744 C   0  0  0  0  0  0  0  0  0  0  0  0
    9.2484  -16.0328   20.8713 C   0  0  2  0  0  0  0  0  0  0  0  0
    8.7852  -15.9607   22.2590 N   0  0  0  0  0  0  0  0  0  0  0  0
   10.6804  -16.4117   20.8042 C   0  0  0  0  0  0  0  0  0  0  0  0
   11.2417  -16.5213   19.6807 O   0  0  0  0  0  0  0  0  0  0  0  0
   15.0533  -15.2565   20.1992 N   0  0  0  0  0  0  0  0  0  0  0  0
   13.8499  -14.6239   20.4653 C   0  0  0  0  0  0  0  0  0  0  0  0
   13.4043  -13.7724   19.6141 O   0  0  0  0  0  0  0  0  0  0  0  0
   13.0412  -14.8602   21.6564 C   0  0  0  0  0  0  0  0  0  0  0  0
   12.8873  -16.3085   21.9845 C   0  0  2  0  0  0  0  0  0  0  0  0
   11.4858  -16.6676   21.9508 N   0  0  0  0  0  0  0  0  0  0  0  0
   13.5080  -16.7161   23.2662 C   0  0  0  0  0  0  0  0  0  0  0  0
   12.7275  -17.2757   24.2569 O   0  0  0  0  0  0  0  0  0  0  0  0
   14.7264  -16.5563   23.4475 O   0  0  0  0  0  0  0  0  0  0  0  0
  2  1  1  1
  2  3  1  0
  3  4  1  0
  4  9  2  0
  5  4  1  0
  5  6  2  0
  6  7  1  0
  7  8  2  0
  9  8  1  0
 10  2  1  0
 10 18  1  0
 11 10  2  0
 13 12  1  0
 13 15  1  0
 14 13  2  0
 16 15  1  0
 17 16  1  1
 17 18  1  0
 19 17  1  0
 20 19  2  0
 21 22  1  0
 22 23  2  0
 22 24  1  0
 25 24  1  1
 25 26  1  0
 25 27  1  0
 26 19  1  0
 27 28  1  0
 29 27  2  0
M  END
$$$$
