FQN.pdb
     RDKit          3D

 29 29  0  0  1  0  0  0  0  0999 V2000
    8.9909  -15.5995   23.1026 N   0  0  0  0  0  0  0  0  0  0  0  0
    8.4484  -14.9687   24.2671 C   0  0  1  0  0  0  0  0  0  0  0  0
    7.5856  -13.7969   23.8461 C   0  0  0  0  0  0  0  0  0  0  0  0
    7.0079  -13.0609   24.9753 C   0  0  0  0  0  0  0  0  0  0  0  0
    7.7851  -12.1064   25.5828 C   0  0  0  0  0  0  0  0  0  0  0  0
    7.3800  -11.3308   26.6582 C   0  0  0  0  0  0  0  0  0  0  0  0
    6.0919  -11.5716   27.1181 C   0  0  0  0  0  0  0  0  0  0  0  0
    5.2925  -12.5218   26.5276 C   0  0  0  0  0  0  0  0  0  0  0  0
    5.7315  -13.2774   25.4548 C   0  0  0  0  0  0  0  0  0  0  0  0
    7.5886  -15.9765   24.9786 C   0  0  0  0  0  0  0  0  0  0  0  0
    7.0162  -15.7277   26.0675 O   0  0  0  0  0  0  0  0  0  0  0  0
    4.4051  -20.3599   22.2400 N   0  0  0  0  0  0  0  0  0  0  0  0
    5.7134  -19.9673   21.8079 C   0  0  0  0  0  0  0  0  0  0  0  0
    6.0595  -20.3194   20.6550 O   0  0  0  0  0  0  0  0  0  0  0  0
    6.5263  -19.1900   22.7561 C   0  0  0  0  0  0  0  0  0  0  0  0
    5.8165  -19.0109   24.0435 C   0  0  0  0  0  0  0  0  0  0  0  0
    6.5565  -18.2816   25.1207 C   0  0  2  0  0  0  0  0  0  0  0  0
    7.3820  -17.2821   24.4386 N   0  0  0  0  0  0  0  0  0  0  0  0
    7.3873  -19.1808   25.9574 C   0  0  0  0  0  0  0  0  0  0  0  0
    7.0796  -20.3997   26.0532 O   0  0  0  0  0  0  0  0  0  0  0  0
   12.4223  -20.2234   24.2501 N   0  0  0  0  0  0  0  0  0  0  0  0
   11.3801  -20.5562   25.1000 C   0  0  0  0  0  0  0  0  0  0  0  0
   11.4976  -21.6042   25.8321 O   0  0  0  0  0  0  0  0  0  0  0  0
   10.1445  -19.7908   25.2265 C   0  0  0  0  0  0  0  0  0  0  0  0
    9.7748  -19.5014   26.6437 C   0  0  2  0  0  0  0  0  0  0  0  0
    8.5377  -18.7514   26.6792 N   0  0  0  0  0  0  0  0  0  0  0  0
   10.8311  -18.8182   27.4257 C   0  0  0  0  0  0  0  0  0  0  0  0
   11.3064  -19.3963   28.5847 O   0  0  0  0  0  0  0  0  0  0  0  0
   11.2882  -17.7299   27.0385 O   0  0  0  0  0  0  0  0  0  0  0  0
  2  1  1  6
  2  3  1  0
  3  4  1  0
  4  9  2  0
  5  4  1  0
  5  6  2  0
  6  7  1  0
  7  8  2  0
  9  8  1  0
 10  2  1  0
 10 18  1  0
 11 10  2  0
 13 12  1  0
 13 15  1  0
 14 13  2  0
 16 15  1  0
 17 16  1  6
 17 18  1  0
 19 17  1  0
 20 19  2  0
 21 22  1  0
 22 23  2  0
 22 24  1  0
 25 24  1  6
 25 26  1  0
 25 27  1  0
 26 19  1  0
 27 28  1  0
 29 27  2  0
M  END
$$$$
