LAE.pdb
     RDKit          3D

 23 22  0  0  1  0  0  0  0  0999 V2000
   28.1591  -18.5003   -5.0515 C   0  0  0  0  0  0  0  0  0  0  0  0
   27.9044  -20.0101   -5.1534 C   0  0  2  0  0  0  0  0  0  0  0  0
   29.0874  -20.6661   -4.4410 C   0  0  0  0  0  0  0  0  0  0  0  0
   27.9905  -20.3631   -6.6126 C   0  0  0  0  0  0  0  0  0  0  0  0
   26.9244  -19.7726   -7.4719 C   0  0  2  0  0  0  0  0  0  0  0  0
   25.6430  -20.2217   -6.9385 N   0  0  0  0  0  0  0  0  0  0  0  0
   26.9860  -20.1838   -8.8933 C   0  0  0  0  0  0  0  0  0  0  0  0
   28.0071  -20.0477   -9.6081 O   0  0  0  0  0  0  0  0  0  0  0  0
   25.6002  -22.6308  -11.1113 C   0  0  0  0  0  0  0  0  0  0  0  0
   25.8275  -21.1531  -10.9201 C   0  0  2  0  0  0  0  0  0  0  0  0
   25.8408  -20.7712   -9.5258 N   0  0  0  0  0  0  0  0  0  0  0  0
   24.6798  -20.4353  -11.5843 C   0  0  0  0  0  0  0  0  0  0  0  0
   23.6556  -20.1973  -10.8710 O   0  0  0  0  0  0  0  0  0  0  0  0
   24.7022  -20.0275  -12.9369 N   0  0  0  0  0  0  0  0  0  0  0  0
   23.5275  -19.3798  -13.5496 C   0  0  1  0  0  0  0  0  0  0  0  0
   23.9600  -18.5667  -14.7146 C   0  0  0  0  0  0  0  0  0  0  0  0
   22.8955  -17.8515  -15.4690 C   0  0  0  0  0  0  0  0  0  0  0  0
   23.4030  -17.1163  -16.6355 C   0  0  0  0  0  0  0  0  0  0  0  0
   23.4472  -17.6742  -17.7555 O   0  0  0  0  0  0  0  0  0  0  0  0
   22.5243  -20.4235  -13.9101 C   0  0  0  0  0  0  0  0  0  0  0  0
   22.9071  -21.5506  -14.2921 O   0  0  0  0  0  0  0  0  0  0  0  0
   23.8458  -15.7999  -16.5460 O   0  0  0  0  0  0  0  0  0  0  0  0
   21.1844  -20.1440  -13.8211 O   0  0  0  0  0  0  0  0  0  0  0  0
  2  1  1  6
  2  3  1  0
  4  2  1  0
  5  7  1  0
  5  4  1  0
  5  6  1  1
  7 11  1  0
  7  8  2  0
 10  9  1  1
 11 10  1  0
 12 14  1  0
 12 10  1  0
 13 12  2  0
 15 20  1  0
 15 14  1  0
 15 16  1  6
 16 17  1  0
 18 17  1  0
 18 19  2  0
 20 23  1  0
 21 20  2  0
 22 18  1  0
M  END
$$$$
