LAE.pdb
     RDKit          3D

 23 22  0  0  1  0  0  0  0  0999 V2000
   26.7114  -21.3083   -6.4441 C   0  0  0  0  0  0  0  0  0  0  0  0
   27.8319  -20.4655   -7.0676 C   0  0  2  0  0  0  0  0  0  0  0  0
   27.9432  -19.2255   -6.1802 C   0  0  0  0  0  0  0  0  0  0  0  0
   27.3377  -20.0244   -8.4176 C   0  0  0  0  0  0  0  0  0  0  0  0
   27.1298  -21.1212   -9.4062 C   0  0  2  0  0  0  0  0  0  0  0  0
   28.4456  -21.6553   -9.7403 N   0  0  0  0  0  0  0  0  0  0  0  0
   26.4871  -20.6929  -10.6699 C   0  0  0  0  0  0  0  0  0  0  0  0
   26.9499  -19.7924  -11.4096 O   0  0  0  0  0  0  0  0  0  0  0  0
   24.9121  -22.4304  -13.2645 C   0  0  0  0  0  0  0  0  0  0  0  0
   24.7598  -21.1695  -12.4528 C   0  0  2  0  0  0  0  0  0  0  0  0
   25.2701  -21.3124  -11.1077 N   0  0  0  0  0  0  0  0  0  0  0  0
   23.2840  -20.8753  -12.3578 C   0  0  0  0  0  0  0  0  0  0  0  0
   22.6561  -21.3773  -11.3738 O   0  0  0  0  0  0  0  0  0  0  0  0
   22.5919  -20.0809  -13.2993 N   0  0  0  0  0  0  0  0  0  0  0  0
   21.1564  -19.7889  -13.1305 C   0  0  1  0  0  0  0  0  0  0  0  0
   20.7712  -18.6620  -14.0177 C   0  0  0  0  0  0  0  0  0  0  0  0
   19.3353  -18.2724  -14.0266 C   0  0  0  0  0  0  0  0  0  0  0  0
   19.0254  -17.2150  -14.9985 C   0  0  0  0  0  0  0  0  0  0  0  0
   19.0412  -17.4684  -16.2246 O   0  0  0  0  0  0  0  0  0  0  0  0
   20.3695  -21.0291  -13.3920 C   0  0  0  0  0  0  0  0  0  0  0  0
   20.7659  -21.8502  -14.2472 O   0  0  0  0  0  0  0  0  0  0  0  0
   18.7091  -15.9177  -14.6058 O   0  0  0  0  0  0  0  0  0  0  0  0
   19.2132  -21.2656  -12.6930 O   0  0  0  0  0  0  0  0  0  0  0  0
  2  1  1  1
  2  3  1  0
  4  2  1  0
  5  7  1  0
  5  4  1  0
  5  6  1  6
  7 11  1  0
  7  8  2  0
 10  9  1  6
 11 10  1  0
 12 14  1  0
 12 10  1  0
 13 12  2  0
 15 20  1  0
 15 14  1  0
 15 16  1  6
 16 17  1  0
 18 17  1  0
 18 19  2  0
 20 23  1  0
 21 20  2  0
 22 18  1  0
M  END
$$$$
