LAE.pdb
     RDKit          3D

 23 22  0  0  1  0  0  0  0  0999 V2000
   26.5624  -32.0765   -6.2621 C   0  0  0  0  0  0  0  0  0  0  0  0
   26.0649  -33.5215   -6.1240 C   0  0  2  0  0  0  0  0  0  0  0  0
   24.9839  -33.4727   -5.0439 C   0  0  0  0  0  0  0  0  0  0  0  0
   27.2180  -34.3237   -5.5873 C   0  0  0  0  0  0  0  0  0  0  0  0
   28.4001  -34.4181   -6.4914 C   0  0  2  0  0  0  0  0  0  0  0  0
   27.9518  -35.0629   -7.7208 N   0  0  0  0  0  0  0  0  0  0  0  0
   29.5225  -35.2186   -5.9502 C   0  0  0  0  0  0  0  0  0  0  0  0
   29.5968  -36.4656   -6.0584 O   0  0  0  0  0  0  0  0  0  0  0  0
   32.9462  -34.4099   -4.5486 C   0  0  0  0  0  0  0  0  0  0  0  0
   31.7445  -35.2977   -4.7477 C   0  0  2  0  0  0  0  0  0  0  0  0
   30.6011  -34.5750   -5.2582 N   0  0  0  0  0  0  0  0  0  0  0  0
   31.3726  -35.8553   -3.3971 C   0  0  0  0  0  0  0  0  0  0  0  0
   32.2717  -36.4960   -2.7681 O   0  0  0  0  0  0  0  0  0  0  0  0
   30.0930  -35.6944   -2.8200 N   0  0  0  0  0  0  0  0  0  0  0  0
   29.7870  -36.2592   -1.4926 C   0  0  1  0  0  0  0  0  0  0  0  0
   28.6079  -35.5637   -0.9167 C   0  0  0  0  0  0  0  0  0  0  0  0
   28.0577  -36.1101    0.3531 C   0  0  0  0  0  0  0  0  0  0  0  0
   26.8854  -35.3728    0.8440 C   0  0  0  0  0  0  0  0  0  0  0  0
   26.4467  -34.3941    0.1980 O   0  0  0  0  0  0  0  0  0  0  0  0
   29.5874  -37.7321   -1.6203 C   0  0  0  0  0  0  0  0  0  0  0  0
   29.0372  -38.2004   -2.6404 O   0  0  0  0  0  0  0  0  0  0  0  0
   26.2295  -35.7232    2.0204 O   0  0  0  0  0  0  0  0  0  0  0  0
   30.0086  -38.5688   -0.6184 O   0  0  0  0  0  0  0  0  0  0  0  0
  2  1  1  1
  2  3  1  0
  4  2  1  0
  5  7  1  0
  5  4  1  0
  5  6  1  6
  7 11  1  0
  7  8  2  0
 10  9  1  1
 11 10  1  0
 12 14  1  0
 12 10  1  0
 13 12  2  0
 15 20  1  0
 15 14  1  0
 15 16  1  6
 16 17  1  0
 18 17  1  0
 18 19  2  0
 20 23  1  0
 21 20  2  0
 22 18  1  0
M  END
$$$$
