LAE.pdb
     RDKit          3D

 23 22  0  0  1  0  0  0  0  0999 V2000
   27.1874  -14.9451  -15.2811 C   0  0  0  0  0  0  0  0  0  0  0  0
   26.1372  -15.4623  -16.2731 C   0  0  2  0  0  0  0  0  0  0  0  0
   26.9372  -16.0240  -17.4486 C   0  0  0  0  0  0  0  0  0  0  0  0
   25.3794  -14.2593  -16.7631 C   0  0  0  0  0  0  0  0  0  0  0  0
   24.5967  -13.5351  -15.7207 C   0  0  2  0  0  0  0  0  0  0  0  0
   23.6743  -14.4976  -15.1282 N   0  0  0  0  0  0  0  0  0  0  0  0
   23.7922  -12.4031  -16.2353 C   0  0  0  0  0  0  0  0  0  0  0  0
   24.2774  -11.4564  -16.8991 O   0  0  0  0  0  0  0  0  0  0  0  0
   20.0764  -11.5888  -16.3616 C   0  0  0  0  0  0  0  0  0  0  0  0
   21.5456  -11.2665  -16.4591 C   0  0  2  0  0  0  0  0  0  0  0  0
   22.3816  -12.3459  -15.9836 N   0  0  0  0  0  0  0  0  0  0  0  0
   21.7985  -10.0662  -15.5824 C   0  0  0  0  0  0  0  0  0  0  0  0
   22.0755  -10.2887  -14.3625 O   0  0  0  0  0  0  0  0  0  0  0  0
   21.7407   -8.7364  -16.0567 N   0  0  0  0  0  0  0  0  0  0  0  0
   22.1289   -7.6082  -15.1900 C   0  0  1  0  0  0  0  0  0  0  0  0
   22.3182   -6.3891  -16.0168 C   0  0  0  0  0  0  0  0  0  0  0  0
   22.6788   -5.1374  -15.2979 C   0  0  0  0  0  0  0  0  0  0  0  0
   22.7830   -3.9683  -16.1819 C   0  0  0  0  0  0  0  0  0  0  0  0
   21.9079   -3.7637  -17.0537 O   0  0  0  0  0  0  0  0  0  0  0  0
   21.1007   -7.4327  -14.1234 C   0  0  0  0  0  0  0  0  0  0  0  0
   19.8948   -7.6391  -14.3800 O   0  0  0  0  0  0  0  0  0  0  0  0
   23.8344   -3.0612  -16.0892 O   0  0  0  0  0  0  0  0  0  0  0  0
   21.4811   -7.0457  -12.8637 O   0  0  0  0  0  0  0  0  0  0  0  0
  2  1  1  1
  2  3  1  0
  4  2  1  0
  5  7  1  0
  5  4  1  0
  5  6  1  6
  7 11  1  0
  7  8  2  0
 10  9  1  1
 11 10  1  0
 12 14  1  0
 12 10  1  0
 13 12  2  0
 15 20  1  0
 15 14  1  0
 15 16  1  6
 16 17  1  0
 18 17  1  0
 18 19  2  0
 20 23  1  0
 21 20  2  0
 22 18  1  0
M  END
$$$$
