LAE.pdb
     RDKit          3D

 23 22  0  0  1  0  0  0  0  0999 V2000
   19.3517  -12.0722  -20.0782 C   0  0  0  0  0  0  0  0  0  0  0  0
   18.1614  -11.9359  -19.1193 C   0  0  2  0  0  0  0  0  0  0  0  0
   17.1911  -10.9820  -19.8164 C   0  0  0  0  0  0  0  0  0  0  0  0
   18.6793  -11.2483  -17.8863 C   0  0  0  0  0  0  0  0  0  0  0  0
   19.6708  -12.0303  -17.0932 C   0  0  2  0  0  0  0  0  0  0  0  0
   18.9580  -13.1589  -16.5048 N   0  0  0  0  0  0  0  0  0  0  0  0
   20.3029  -11.2748  -15.9873 C   0  0  0  0  0  0  0  0  0  0  0  0
   19.6598  -10.7882  -15.0271 O   0  0  0  0  0  0  0  0  0  0  0  0
   23.8787  -10.3976  -15.0093 C   0  0  0  0  0  0  0  0  0  0  0  0
   22.3802  -10.2375  -14.9880 C   0  0  2  0  0  0  0  0  0  0  0  0
   21.7213  -11.0641  -15.9744 N   0  0  0  0  0  0  0  0  0  0  0  0
   22.0804   -8.7972  -15.3182 C   0  0  0  0  0  0  0  0  0  0  0  0
   21.9168   -8.5066  -16.5443 O   0  0  0  0  0  0  0  0  0  0  0  0
   21.9767   -7.7848  -14.3380 N   0  0  0  0  0  0  0  0  0  0  0  0
   21.6484   -6.3979  -14.7170 C   0  0  1  0  0  0  0  0  0  0  0  0
   20.1760   -6.2535  -14.8454 C   0  0  0  0  0  0  0  0  0  0  0  0
   19.6559   -4.8901  -15.1355 C   0  0  0  0  0  0  0  0  0  0  0  0
   18.1892   -4.8273  -15.1950 C   0  0  0  0  0  0  0  0  0  0  0  0
   17.5117   -5.8677  -15.0324 O   0  0  0  0  0  0  0  0  0  0  0  0
   22.2385   -5.4630  -13.7153 C   0  0  0  0  0  0  0  0  0  0  0  0
   22.6153   -5.8959  -12.6048 O   0  0  0  0  0  0  0  0  0  0  0  0
   17.5077   -3.6367  -15.4296 O   0  0  0  0  0  0  0  0  0  0  0  0
   22.3667   -4.1308  -14.0156 O   0  0  0  0  0  0  0  0  0  0  0  0
  2  1  1  6
  2  3  1  0
  4  2  1  0
  5  7  1  0
  5  4  1  0
  5  6  1  1
  7 11  1  0
  7  8  2  0
 10  9  1  6
 11 10  1  0
 12 14  1  0
 12 10  1  0
 13 12  2  0
 15 20  1  0
 15 14  1  0
 15 16  1  1
 16 17  1  0
 18 17  1  0
 18 19  2  0
 20 23  1  0
 21 20  2  0
 22 18  1  0
M  END
$$$$
