LAE.pdb
     RDKit          3D

 23 22  0  0  1  0  0  0  0  0999 V2000
   16.6922  -13.1843  -17.2534 C   0  0  0  0  0  0  0  0  0  0  0  0
   17.8343  -14.0823  -16.7593 C   0  0  2  0  0  0  0  0  0  0  0  0
   17.1596  -15.1587  -15.9086 C   0  0  0  0  0  0  0  0  0  0  0  0
   18.6818  -13.2378  -15.8484 C   0  0  0  0  0  0  0  0  0  0  0  0
   19.3021  -12.0417  -16.4876 C   0  0  2  0  0  0  0  0  0  0  0  0
   20.2537  -12.5286  -17.4804 N   0  0  0  0  0  0  0  0  0  0  0  0
   20.0414  -11.1623  -15.5530 C   0  0  0  0  0  0  0  0  0  0  0  0
   19.5216  -10.6404  -14.5383 O   0  0  0  0  0  0  0  0  0  0  0  0
   23.6652  -10.0623  -15.1757 C   0  0  0  0  0  0  0  0  0  0  0  0
   22.1791   -9.9567  -14.9477 C   0  0  2  0  0  0  0  0  0  0  0  0
   21.4252  -10.8645  -15.7830 N   0  0  0  0  0  0  0  0  0  0  0  0
   21.7708   -8.5507  -15.3084 C   0  0  0  0  0  0  0  0  0  0  0  0
   21.6294   -8.2881  -16.5435 O   0  0  0  0  0  0  0  0  0  0  0  0
   21.5448   -7.5406  -14.3466 N   0  0  0  0  0  0  0  0  0  0  0  0
   21.1873   -6.1710  -14.7601 C   0  0  1  0  0  0  0  0  0  0  0  0
   19.7505   -5.9254  -14.4757 C   0  0  0  0  0  0  0  0  0  0  0  0
   19.2259   -4.5674  -14.7827 C   0  0  0  0  0  0  0  0  0  0  0  0
   17.7733   -4.4490  -14.5957 C   0  0  0  0  0  0  0  0  0  0  0  0
   17.2091   -3.3441  -14.7651 O   0  0  0  0  0  0  0  0  0  0  0  0
   22.0893   -5.2004  -14.0744 C   0  0  0  0  0  0  0  0  0  0  0  0
   22.3198   -4.0880  -14.5958 O   0  0  0  0  0  0  0  0  0  0  0  0
   16.9827   -5.5346  -14.2306 O   0  0  0  0  0  0  0  0  0  0  0  0
   22.6630   -5.5310  -12.8731 O   0  0  0  0  0  0  0  0  0  0  0  0
  2  1  1  1
  2  3  1  0
  4  2  1  0
  5  7  1  0
  5  4  1  0
  5  6  1  6
  7 11  1  0
  7  8  2  0
 10  9  1  6
 11 10  1  0
 12 14  1  0
 12 10  1  0
 13 12  2  0
 15 20  1  0
 15 14  1  0
 15 16  1  1
 16 17  1  0
 18 17  1  0
 18 19  2  0
 20 23  1  0
 21 20  2  0
 22 18  1  0
M  END
$$$$
