LAE.pdb
     RDKit          3D

 23 22  0  0  1  0  0  0  0  0999 V2000
   24.8780  -15.8194  -15.1028 C   0  0  0  0  0  0  0  0  0  0  0  0
   25.6748  -15.0467  -16.1624 C   0  0  2  0  0  0  0  0  0  0  0  0
   27.0023  -14.6958  -15.4899 C   0  0  0  0  0  0  0  0  0  0  0  0
   24.9295  -13.7643  -16.4102 C   0  0  0  0  0  0  0  0  0  0  0  0
   23.5925  -13.9217  -17.0515 C   0  0  2  0  0  0  0  0  0  0  0  0
   23.8074  -14.5629  -18.3441 N   0  0  0  0  0  0  0  0  0  0  0  0
   22.8776  -12.6482  -17.2973 C   0  0  0  0  0  0  0  0  0  0  0  0
   23.2455  -11.8023  -18.1466 O   0  0  0  0  0  0  0  0  0  0  0  0
   19.4629  -11.3129  -16.4767 C   0  0  0  0  0  0  0  0  0  0  0  0
   20.9268  -11.1254  -16.7823 C   0  0  2  0  0  0  0  0  0  0  0  0
   21.6993  -12.3245  -16.5467 N   0  0  0  0  0  0  0  0  0  0  0  0
   21.4429  -10.0542  -15.8551 C   0  0  0  0  0  0  0  0  0  0  0  0
   21.9524  -10.4368  -14.7558 O   0  0  0  0  0  0  0  0  0  0  0  0
   21.3823   -8.6753  -16.1573 N   0  0  0  0  0  0  0  0  0  0  0  0
   21.9200   -7.6726  -15.2191 C   0  0  1  0  0  0  0  0  0  0  0  0
   21.9438   -6.3407  -15.8756 C   0  0  0  0  0  0  0  0  0  0  0  0
   22.4831   -5.2064  -15.0781 C   0  0  0  0  0  0  0  0  0  0  0  0
   22.4555   -3.9250  -15.7966 C   0  0  0  0  0  0  0  0  0  0  0  0
   22.1011   -3.8887  -16.9969 O   0  0  0  0  0  0  0  0  0  0  0  0
   21.1094   -7.6884  -13.9667 C   0  0  0  0  0  0  0  0  0  0  0  0
   19.8824   -7.9206  -14.0212 O   0  0  0  0  0  0  0  0  0  0  0  0
   22.8141   -2.7263  -15.1871 O   0  0  0  0  0  0  0  0  0  0  0  0
   21.7128   -7.4485  -12.7584 O   0  0  0  0  0  0  0  0  0  0  0  0
  2  1  1  1
  2  3  1  0
  4  2  1  0
  5  7  1  0
  5  4  1  0
  5  6  1  6
  7 11  1  0
  7  8  2  0
 10  9  1  1
 11 10  1  0
 12 14  1  0
 12 10  1  0
 13 12  2  0
 15 20  1  0
 15 14  1  0
 15 16  1  6
 16 17  1  0
 18 17  1  0
 18 19  2  0
 20 23  1  0
 21 20  2  0
 22 18  1  0
M  END
$$$$
