LAE.pdb
     RDKit          3D

 23 22  0  0  1  0  0  0  0  0999 V2000
   23.1848  -13.1198  -14.3192 C   0  0  0  0  0  0  0  0  0  0  0  0
   23.5696  -13.2936  -15.7945 C   0  0  2  0  0  0  0  0  0  0  0  0
   25.0331  -13.7358  -15.7785 C   0  0  0  0  0  0  0  0  0  0  0  0
   23.5070  -11.9271  -16.4190 C   0  0  0  0  0  0  0  0  0  0  0  0
   22.1607  -11.2860  -16.4079 C   0  0  2  0  0  0  0  0  0  0  0  0
   21.2650  -12.1514  -17.1675 N   0  0  0  0  0  0  0  0  0  0  0  0
   22.1174   -9.9422  -17.0290 C   0  0  0  0  0  0  0  0  0  0  0  0
   22.8264   -8.9813  -16.6465 O   0  0  0  0  0  0  0  0  0  0  0  0
   20.2950   -8.4178  -20.0120 C   0  0  0  0  0  0  0  0  0  0  0  0
   21.1264   -8.3840  -18.7552 C   0  0  2  0  0  0  0  0  0  0  0  0
   21.2321   -9.6817  -18.1267 N   0  0  0  0  0  0  0  0  0  0  0  0
   20.4350   -7.4574  -17.7873 C   0  0  0  0  0  0  0  0  0  0  0  0
   19.3920   -7.8971  -17.2099 O   0  0  0  0  0  0  0  0  0  0  0  0
   20.8939   -6.1511  -17.5058 N   0  0  0  0  0  0  0  0  0  0  0  0
   20.1877   -5.2958  -16.5340 C   0  0  1  0  0  0  0  0  0  0  0  0
   21.0988   -4.9662  -15.4084 C   0  0  0  0  0  0  0  0  0  0  0  0
   21.2399   -5.9870  -14.3353 C   0  0  0  0  0  0  0  0  0  0  0  0
   22.0349   -5.5216  -13.1906 C   0  0  0  0  0  0  0  0  0  0  0  0
   22.6848   -4.4546  -13.2732 O   0  0  0  0  0  0  0  0  0  0  0  0
   19.6670   -4.0853  -17.2333 C   0  0  0  0  0  0  0  0  0  0  0  0
   19.9894   -3.8644  -18.4207 O   0  0  0  0  0  0  0  0  0  0  0  0
   22.0975   -6.2312  -11.9950 O   0  0  0  0  0  0  0  0  0  0  0  0
   18.8354   -3.2179  -16.5718 O   0  0  0  0  0  0  0  0  0  0  0  0
  2  1  1  1
  2  3  1  0
  4  2  1  0
  5  7  1  0
  5  4  1  0
  5  6  1  6
  7 11  1  0
  7  8  2  0
 10  9  1  6
 11 10  1  0
 12 14  1  0
 12 10  1  0
 13 12  2  0
 15 20  1  0
 15 14  1  0
 15 16  1  1
 16 17  1  0
 18 17  1  0
 18 19  2  0
 20 23  1  0
 21 20  2  0
 22 18  1  0
M  END
$$$$
