KLM.pdb
     RDKit          3D

 26 25  0  0  1  0  0  0  0  0999 V2000
   24.6613  -18.4858  -12.2954 N   0  0  0  0  0  0  0  0  0  0  0  0
   24.5163  -19.8829  -12.6091 C   0  0  1  0  0  0  0  0  0  0  0  0
   25.6029  -20.4225  -13.5037 C   0  0  0  0  0  0  0  0  0  0  0  0
   25.7229  -19.6925  -14.7837 C   0  0  0  0  0  0  0  0  0  0  0  0
   26.8935  -18.8220  -14.9926 C   0  0  0  0  0  0  0  0  0  0  0  0
   26.7958  -17.8811  -16.1564 C   0  0  0  0  0  0  0  0  0  0  0  0
   26.1655  -18.5116  -17.3143 N   0  0  0  0  0  0  0  0  0  0  0  0
   24.3245  -20.7167  -11.3993 C   0  0  0  0  0  0  0  0  0  0  0  0
   24.2692  -21.9543  -11.4809 O   0  0  0  0  0  0  0  0  0  0  0  0
   26.9012  -21.2341   -7.6988 C   0  0  0  0  0  0  0  0  0  0  0  0
   26.1421  -19.9016   -7.8131 C   0  0  2  0  0  0  0  0  0  0  0  0
   26.6533  -19.0579   -6.6788 C   0  0  0  0  0  0  0  0  0  0  0  0
   24.6866  -20.2351   -7.7353 C   0  0  0  0  0  0  0  0  0  0  0  0
   24.0442  -20.8657   -8.8872 C   0  0  2  0  0  0  0  0  0  0  0  0
   24.2009  -20.1285  -10.1326 N   0  0  0  0  0  0  0  0  0  0  0  0
   22.5913  -21.0323   -8.7010 C   0  0  0  0  0  0  0  0  0  0  0  0
   21.7575  -20.1147   -8.9862 O   0  0  0  0  0  0  0  0  0  0  0  0
   18.5446  -24.6376  -11.5327 C   0  0  0  0  0  0  0  0  0  0  0  0
   18.0614  -25.0857   -9.8274 S   0  0  0  0  0  0  0  0  0  0  0  0
   18.6467  -23.7666   -8.7365 C   0  0  0  0  0  0  0  0  0  0  0  0
   20.1205  -23.5621   -8.8734 C   0  0  0  0  0  0  0  0  0  0  0  0
   20.5841  -22.4026   -7.9909 C   0  0  2  0  0  0  0  0  0  0  0  0
   22.0023  -22.2477   -8.1916 N   0  0  0  0  0  0  0  0  0  0  0  0
   20.3203  -22.7609   -6.5650 C   0  0  0  0  0  0  0  0  0  0  0  0
   18.9917  -22.7624   -6.1042 O   0  0  0  0  0  0  0  0  0  0  0  0
   21.2157  -23.0617   -5.7505 O   0  0  0  0  0  0  0  0  0  0  0  0
  2  1  1  1
  2  8  1  0
  3  2  1  0
  3  4  1  0
  4  5  1  0
  5  6  1  0
  7  6  1  0
  8  9  2  0
 11 12  1  1
 11 10  1  0
 13 11  1  0
 14 13  1  1
 14 16  1  0
 15  8  1  0
 15 14  1  0
 16 17  2  0
 19 18  1  0
 19 20  1  0
 20 21  1  0
 22 21  1  6
 22 24  1  0
 23 16  1  0
 23 22  1  0
 24 25  1  0
 26 24  2  0
M  END
$$$$
