KLM.pdb
     RDKit          3D

 26 25  0  0  1  0  0  0  0  0999 V2000
   24.3388  -22.4332  -16.1615 N   0  0  0  0  0  0  0  0  0  0  0  0
   25.6557  -22.9979  -16.0268 C   0  0  1  0  0  0  0  0  0  0  0  0
   26.4174  -23.0842  -17.3246 C   0  0  0  0  0  0  0  0  0  0  0  0
   25.5572  -23.3857  -18.4886 C   0  0  0  0  0  0  0  0  0  0  0  0
   24.4236  -22.4900  -18.7794 C   0  0  0  0  0  0  0  0  0  0  0  0
   23.6248  -22.8390  -19.9998 C   0  0  0  0  0  0  0  0  0  0  0  0
   22.5056  -21.9206  -20.1984 N   0  0  0  0  0  0  0  0  0  0  0  0
   26.4457  -22.3409  -14.9590 C   0  0  0  0  0  0  0  0  0  0  0  0
   27.6162  -22.6851  -14.7294 O   0  0  0  0  0  0  0  0  0  0  0  0
   28.3389  -18.9244  -15.2538 C   0  0  0  0  0  0  0  0  0  0  0  0
   26.8610  -18.6362  -14.9411 C   0  0  2  0  0  0  0  0  0  0  0  0
   26.6888  -17.1613  -15.1750 C   0  0  0  0  0  0  0  0  0  0  0  0
   26.6333  -19.0744  -13.5297 C   0  0  0  0  0  0  0  0  0  0  0  0
   26.6316  -20.5043  -13.2259 C   0  0  2  0  0  0  0  0  0  0  0  0
   25.8908  -21.3143  -14.1819 N   0  0  0  0  0  0  0  0  0  0  0  0
   26.0403  -20.7999  -11.9082 C   0  0  0  0  0  0  0  0  0  0  0  0
   24.7830  -20.8372  -11.7178 O   0  0  0  0  0  0  0  0  0  0  0  0
   29.2223  -18.8759   -6.8271 C   0  0  0  0  0  0  0  0  0  0  0  0
   27.5233  -18.8930   -6.1522 S   0  0  0  0  0  0  0  0  0  0  0  0
   26.5449  -20.0130   -7.1823 C   0  0  0  0  0  0  0  0  0  0  0  0
   27.0988  -20.1009   -8.5672 C   0  0  0  0  0  0  0  0  0  0  0  0
   26.2895  -21.0912   -9.4054 C   0  0  2  0  0  0  0  0  0  0  0  0
   26.8378  -21.0781  -10.7376 N   0  0  0  0  0  0  0  0  0  0  0  0
   24.8712  -20.6244   -9.4472 C   0  0  0  0  0  0  0  0  0  0  0  0
   23.9828  -21.0756   -8.4548 O   0  0  0  0  0  0  0  0  0  0  0  0
   24.4229  -19.8514  -10.3173 O   0  0  0  0  0  0  0  0  0  0  0  0
  2  1  1  6
  2  8  1  0
  3  2  1  0
  3  4  1  0
  4  5  1  0
  5  6  1  0
  7  6  1  0
  8  9  2  0
 11 12  1  1
 11 10  1  0
 13 11  1  0
 14 13  1  6
 14 16  1  0
 15  8  1  0
 15 14  1  0
 16 17  2  0
 19 18  1  0
 19 20  1  0
 20 21  1  0
 22 21  1  1
 22 24  1  0
 23 16  1  0
 23 22  1  0
 24 25  1  0
 26 24  2  0
M  END
$$$$
