KLM.pdb
     RDKit          3D

 26 25  0  0  1  0  0  0  0  0999 V2000
   26.1712  -19.0321  -18.0616 N   0  0  0  0  0  0  0  0  0  0  0  0
   25.3971  -20.2453  -18.0622 C   0  0  1  0  0  0  0  0  0  0  0  0
   25.9752  -21.3366  -18.9265 C   0  0  0  0  0  0  0  0  0  0  0  0
   26.3103  -20.8842  -20.2936 C   0  0  0  0  0  0  0  0  0  0  0  0
   25.7580  -21.6293  -21.4388 C   0  0  0  0  0  0  0  0  0  0  0  0
   26.6052  -22.7615  -21.9382 C   0  0  0  0  0  0  0  0  0  0  0  0
   27.2891  -22.4210  -23.1840 N   0  0  0  0  0  0  0  0  0  0  0  0
   25.0916  -20.7214  -16.6926 C   0  0  0  0  0  0  0  0  0  0  0  0
   24.4414  -21.7632  -16.5108 O   0  0  0  0  0  0  0  0  0  0  0  0
   27.8952  -21.8383  -13.3146 C   0  0  0  0  0  0  0  0  0  0  0  0
   27.7867  -20.3193  -13.5291 C   0  0  2  0  0  0  0  0  0  0  0  0
   28.7749  -19.7142  -12.5715 C   0  0  0  0  0  0  0  0  0  0  0  0
   26.3605  -19.9551  -13.2662 C   0  0  0  0  0  0  0  0  0  0  0  0
   25.3297  -20.4268  -14.1890 C   0  0  2  0  0  0  0  0  0  0  0  0
   25.5295  -20.0071  -15.5685 N   0  0  0  0  0  0  0  0  0  0  0  0
   23.9829  -19.9553  -13.8186 C   0  0  0  0  0  0  0  0  0  0  0  0
   23.6557  -18.7266  -13.8582 O   0  0  0  0  0  0  0  0  0  0  0  0
   18.8835  -22.7359  -15.5914 C   0  0  0  0  0  0  0  0  0  0  0  0
   17.9835  -21.5663  -14.5124 S   0  0  0  0  0  0  0  0  0  0  0  0
   19.2124  -20.7233  -13.4869 C   0  0  0  0  0  0  0  0  0  0  0  0
   20.6029  -21.0830  -13.8989 C   0  0  0  0  0  0  0  0  0  0  0  0
   21.6247  -20.3834  -13.0019 C   0  0  2  0  0  0  0  0  0  0  0  0
   22.9314  -20.8478  -13.3925 N   0  0  0  0  0  0  0  0  0  0  0  0
   21.3591  -20.7800  -11.5866 C   0  0  0  0  0  0  0  0  0  0  0  0
   20.3531  -20.1036  -10.8738 O   0  0  0  0  0  0  0  0  0  0  0  0
   21.9814  -21.6833  -10.9930 O   0  0  0  0  0  0  0  0  0  0  0  0
  2  1  1  1
  2  8  1  0
  3  2  1  0
  3  4  1  0
  4  5  1  0
  5  6  1  0
  7  6  1  0
  8  9  2  0
 11 12  1  1
 11 10  1  0
 13 11  1  0
 14 13  1  1
 14 16  1  0
 15  8  1  0
 15 14  1  0
 16 17  2  0
 19 18  1  0
 19 20  1  0
 20 21  1  0
 22 21  1  6
 22 24  1  0
 23 16  1  0
 23 22  1  0
 24 25  1  0
 26 24  2  0
M  END
$$$$
