KLM.pdb
     RDKit          3D

 26 25  0  0  1  0  0  0  0  0999 V2000
   23.8320  -18.5321  -12.3503 N   0  0  0  0  0  0  0  0  0  0  0  0
   24.1343  -19.8170  -12.9240 C   0  0  1  0  0  0  0  0  0  0  0  0
   24.6904  -19.7441  -14.3231 C   0  0  0  0  0  0  0  0  0  0  0  0
   23.6690  -19.9588  -15.3702 C   0  0  0  0  0  0  0  0  0  0  0  0
   22.8742  -18.8053  -15.8280 C   0  0  0  0  0  0  0  0  0  0  0  0
   21.8163  -19.1160  -16.8447 C   0  0  0  0  0  0  0  0  0  0  0  0
   20.9564  -17.9634  -17.1047 N   0  0  0  0  0  0  0  0  0  0  0  0
   24.9750  -20.6502  -12.0324 C   0  0  0  0  0  0  0  0  0  0  0  0
   25.2092  -21.8385  -12.3053 O   0  0  0  0  0  0  0  0  0  0  0  0
   28.8992  -19.0774  -10.7325 C   0  0  0  0  0  0  0  0  0  0  0  0
   27.7567  -18.7257   -9.7649 C   0  0  2  0  0  0  0  0  0  0  0  0
   28.3561  -17.7596   -8.7815 C   0  0  0  0  0  0  0  0  0  0  0  0
   27.2945  -20.0165   -9.1682 C   0  0  0  0  0  0  0  0  0  0  0  0
   26.3690  -20.8545   -9.9285 C   0  0  2  0  0  0  0  0  0  0  0  0
   25.5267  -20.1171  -10.8589 N   0  0  0  0  0  0  0  0  0  0  0  0
   25.4438  -21.6044   -9.0595 C   0  0  0  0  0  0  0  0  0  0  0  0
   25.6260  -22.8285   -8.7650 O   0  0  0  0  0  0  0  0  0  0  0  0
   24.6785  -21.3721   -3.0480 C   0  0  0  0  0  0  0  0  0  0  0  0
   22.9330  -21.1064   -3.5223 S   0  0  0  0  0  0  0  0  0  0  0  0
   22.7132  -21.7972   -5.1798 C   0  0  0  0  0  0  0  0  0  0  0  0
   23.6021  -21.1211   -6.1725 C   0  0  0  0  0  0  0  0  0  0  0  0
   23.4036  -21.7217   -7.5647 C   0  0  2  0  0  0  0  0  0  0  0  0
   24.2687  -21.0088   -8.4696 N   0  0  0  0  0  0  0  0  0  0  0  0
   21.9810  -21.5130   -7.9694 C   0  0  0  0  0  0  0  0  0  0  0  0
   21.0149  -22.4416   -7.5427 O   0  0  0  0  0  0  0  0  0  0  0  0
   21.5944  -20.5560   -8.6695 O   0  0  0  0  0  0  0  0  0  0  0  0
  2  1  1  1
  2  8  1  0
  3  2  1  0
  3  4  1  0
  4  5  1  0
  5  6  1  0
  7  6  1  0
  8  9  2  0
 11 12  1  1
 11 10  1  0
 13 11  1  0
 14 13  1  1
 14 16  1  0
 15  8  1  0
 15 14  1  0
 16 17  2  0
 19 18  1  0
 19 20  1  0
 20 21  1  0
 22 21  1  1
 22 24  1  0
 23 16  1  0
 23 22  1  0
 24 25  1  0
 26 24  2  0
M  END
$$$$
