KLM.pdb
     RDKit          3D

 26 25  0  0  1  0  0  0  0  0999 V2000
   21.3353  -23.4835  -16.7497 N   0  0  0  0  0  0  0  0  0  0  0  0
   21.4384  -23.9087  -15.3786 C   0  0  1  0  0  0  0  0  0  0  0  0
   21.1317  -22.8229  -14.3792 C   0  0  0  0  0  0  0  0  0  0  0  0
   21.0869  -21.4720  -14.9785 C   0  0  0  0  0  0  0  0  0  0  0  0
   19.8305  -20.7059  -14.8990 C   0  0  0  0  0  0  0  0  0  0  0  0
   19.8779  -19.3295  -15.4928 C   0  0  0  0  0  0  0  0  0  0  0  0
   18.5713  -18.6761  -15.4564 N   0  0  0  0  0  0  0  0  0  0  0  0
   20.6687  -25.1464  -15.1114 C   0  0  0  0  0  0  0  0  0  0  0  0
   19.5061  -25.2757  -15.5275 O   0  0  0  0  0  0  0  0  0  0  0  0
   22.1799  -30.7499  -12.9600 C   0  0  0  0  0  0  0  0  0  0  0  0
   21.0018  -29.9231  -13.5019 C   0  0  2  0  0  0  0  0  0  0  0  0
   20.5174  -30.6726  -14.7116 C   0  0  0  0  0  0  0  0  0  0  0  0
   21.5391  -28.5574  -13.7885 C   0  0  0  0  0  0  0  0  0  0  0  0
   20.6085  -27.5007  -14.1815 C   0  0  2  0  0  0  0  0  0  0  0  0
   21.2344  -26.2019  -14.3823 N   0  0  0  0  0  0  0  0  0  0  0  0
   19.5476  -27.2832  -13.1812 C   0  0  0  0  0  0  0  0  0  0  0  0
   19.7728  -26.7318  -12.0571 O   0  0  0  0  0  0  0  0  0  0  0  0
   13.5813  -25.0251  -14.1592 C   0  0  0  0  0  0  0  0  0  0  0  0
   13.1931  -26.4904  -13.1371 S   0  0  0  0  0  0  0  0  0  0  0  0
   14.7055  -26.9509  -12.2579 C   0  0  0  0  0  0  0  0  0  0  0  0
   15.8573  -27.0984  -13.1982 C   0  0  0  0  0  0  0  0  0  0  0  0
   17.1347  -27.4404  -12.4303 C   0  0  2  0  0  0  0  0  0  0  0  0
   18.1741  -27.6686  -13.4015 N   0  0  0  0  0  0  0  0  0  0  0  0
   16.8964  -28.6939  -11.6537 C   0  0  0  0  0  0  0  0  0  0  0  0
   17.4366  -29.8994  -12.1360 O   0  0  0  0  0  0  0  0  0  0  0  0
   16.2411  -28.7366  -10.5934 O   0  0  0  0  0  0  0  0  0  0  0  0
  2  1  1  6
  2  8  1  0
  3  2  1  0
  3  4  1  0
  4  5  1  0
  5  6  1  0
  7  6  1  0
  8  9  2  0
 11 12  1  6
 11 10  1  0
 13 11  1  0
 14 13  1  1
 14 16  1  0
 15  8  1  0
 15 14  1  0
 16 17  2  0
 19 18  1  0
 19 20  1  0
 20 21  1  0
 22 21  1  6
 22 24  1  0
 23 16  1  0
 23 22  1  0
 24 25  1  0
 26 24  2  0
M  END
$$$$
