WYL.pdb
     RDKit          3D

 35 37  0  0  1  0  0  0  0  0999 V2000
    6.4975  -19.2029   25.6325 N   0  0  0  0  0  0  0  0  0  0  0  0
    6.3860  -17.7858   25.4599 C   0  0  1  0  0  0  0  0  0  0  0  0
    6.7942  -16.9963   26.6601 C   0  0  0  0  0  0  0  0  0  0  0  0
    6.4231  -15.5751   26.5928 C   0  0  0  0  0  0  0  0  0  0  0  0
    5.1582  -15.0828   26.3427 C   0  0  0  0  0  0  0  0  0  0  0  0
    5.1965  -13.7258   26.3565 N   0  0  0  0  0  0  0  0  0  0  0  0
    6.4492  -13.3122   26.6083 C   0  0  0  0  0  0  0  0  0  0  0  0
    7.0113  -12.0589   26.7264 C   0  0  0  0  0  0  0  0  0  0  0  0
    8.3607  -11.9888   26.9962 C   0  0  0  0  0  0  0  0  0  0  0  0
    9.1274  -13.1374   27.1440 C   0  0  0  0  0  0  0  0  0  0  0  0
    8.5629  -14.3698   27.0254 C   0  0  0  0  0  0  0  0  0  0  0  0
    7.2186  -14.4697   26.7566 C   0  0  0  0  0  0  0  0  0  0  0  0
    7.3073  -17.3848   24.3331 C   0  0  0  0  0  0  0  0  0  0  0  0
    8.4258  -17.9476   24.2688 O   0  0  0  0  0  0  0  0  0  0  0  0
   10.1426  -13.6413   16.8094 O   0  0  0  0  0  0  0  0  0  0  0  0
    9.3742  -13.9595   17.9426 C   0  0  0  0  0  0  0  0  0  0  0  0
    9.8969  -14.7229   18.9625 C   0  0  0  0  0  0  0  0  0  0  0  0
    9.1401  -15.0356   20.0775 C   0  0  0  0  0  0  0  0  0  0  0  0
    7.8371  -14.6018   20.2199 C   0  0  0  0  0  0  0  0  0  0  0  0
    7.0293  -14.9379   21.4168 C   0  0  0  0  0  0  0  0  0  0  0  0
    7.7510  -15.8175   22.3736 C   0  0  2  0  0  0  0  0  0  0  0  0
    6.9402  -16.4162   23.3810 N   0  0  0  0  0  0  0  0  0  0  0  0
    8.9696  -15.1656   22.9848 C   0  0  0  0  0  0  0  0  0  0  0  0
    9.1104  -13.9256   23.0820 O   0  0  0  0  0  0  0  0  0  0  0  0
    7.3232  -13.8387   19.1940 C   0  0  0  0  0  0  0  0  0  0  0  0
    8.0745  -13.5189   18.0700 C   0  0  0  0  0  0  0  0  0  0  0  0
    9.8788  -15.4922   28.3399 C   0  0  0  0  0  0  0  0  0  0  0  0
   10.6667  -15.0892   27.0744 C   0  0  2  0  0  0  0  0  0  0  0  0
   10.9395  -13.5927   27.1517 C   0  0  0  0  0  0  0  0  0  0  0  0
    9.9003  -15.4130   25.8465 C   0  0  0  0  0  0  0  0  0  0  0  0
   10.7936  -15.4735   24.6419 C   0  0  2  0  0  0  0  0  0  0  0  0
   10.0285  -15.9711   23.4848 N   0  0  0  0  0  0  0  0  0  0  0  0
   11.9075  -16.4262   24.8490 C   0  0  0  0  0  0  0  0  0  0  0  0
   13.1087  -16.0725   24.9587 O   0  0  0  0  0  0  0  0  0  0  0  0
   11.6060  -17.7905   24.9265 O   0  0  0  0  0  0  0  0  0  0  0  0
  2  1  1  1
  3  2  1  0
  4  5  2  0
  4  3  1  0
  6  5  1  0
  7 12  2  0
  7  6  1  0
  8  7  1  0
  9 10  1  0
  9  8  2  0
 10 11  2  0
 11 12  1  0
 12  4  1  0
 13  2  1  0
 14 13  2  0
 16 17  2  0
 16 15  1  0
 18 17  1  0
 19 18  2  0
 21 20  1  1
 20 19  1  0
 21 22  1  0
 22 13  1  0
 23 24  2  0
 23 21  1  0
 25 19  1  0
 25 26  2  0
 26 16  1  0
 28 27  1  1
 28 30  1  0
 29 28  1  0
 31 30  1  1
 31 32  1  0
 32 23  1  0
 33 35  1  0
 33 31  1  0
 34 33  2  0
M  END
$$$$
