WYL.pdb
     RDKit          3D

 35 37  0  0  1  0  0  0  0  0999 V2000
    6.0763  -17.0008   23.3929 N   0  0  0  0  0  0  0  0  0  0  0  0
    7.2794  -16.2598   23.6246 C   0  0  1  0  0  0  0  0  0  0  0  0
    7.4761  -15.8557   25.0489 C   0  0  0  0  0  0  0  0  0  0  0  0
    6.5361  -14.8236   25.5106 C   0  0  0  0  0  0  0  0  0  0  0  0
    5.4184  -15.0414   26.2905 C   0  0  0  0  0  0  0  0  0  0  0  0
    4.7943  -13.8573   26.5169 N   0  0  0  0  0  0  0  0  0  0  0  0
    5.4690  -12.8680   25.9089 C   0  0  0  0  0  0  0  0  0  0  0  0
    5.2599  -11.5075   25.8308 C   0  0  0  0  0  0  0  0  0  0  0  0
    6.1670  -10.7640   25.1075 C   0  0  0  0  0  0  0  0  0  0  0  0
    7.2523  -11.3618   24.4799 C   0  0  0  0  0  0  0  0  0  0  0  0
    7.4496  -12.7055   24.5630 C   0  0  0  0  0  0  0  0  0  0  0  0
    6.5604  -13.4720   25.2781 C   0  0  0  0  0  0  0  0  0  0  0  0
    8.4446  -17.1443   23.2515 C   0  0  0  0  0  0  0  0  0  0  0  0
    8.6246  -18.1844   23.9281 O   0  0  0  0  0  0  0  0  0  0  0  0
    7.5529  -13.8190   16.6911 O   0  0  0  0  0  0  0  0  0  0  0  0
    8.1186  -13.9753   17.9683 C   0  0  0  0  0  0  0  0  0  0  0  0
    7.7980  -13.1165   18.9959 C   0  0  0  0  0  0  0  0  0  0  0  0
    8.3551  -13.2710   20.2527 C   0  0  0  0  0  0  0  0  0  0  0  0
    9.2506  -14.2834   20.5345 C   0  0  0  0  0  0  0  0  0  0  0  0
    9.8448  -14.4466   21.8829 C   0  0  0  0  0  0  0  0  0  0  0  0
   10.3238  -15.8302   22.1405 C   0  0  2  0  0  0  0  0  0  0  0  0
    9.3074  -16.8279   22.1862 N   0  0  0  0  0  0  0  0  0  0  0  0
   11.2319  -15.9356   23.3438 C   0  0  0  0  0  0  0  0  0  0  0  0
   12.3414  -15.3612   23.4206 O   0  0  0  0  0  0  0  0  0  0  0  0
    9.5650  -15.1372   19.4996 C   0  0  0  0  0  0  0  0  0  0  0  0
    9.0114  -14.9912   18.2338 C   0  0  0  0  0  0  0  0  0  0  0  0
   10.8879  -16.3803   29.2353 C   0  0  0  0  0  0  0  0  0  0  0  0
   11.7304  -15.9259   28.0234 C   0  0  2  0  0  0  0  0  0  0  0  0
   12.2091  -14.5056   28.2945 C   0  0  0  0  0  0  0  0  0  0  0  0
   10.9321  -15.9737   26.7742 C   0  0  0  0  0  0  0  0  0  0  0  0
   11.6763  -16.6720   25.6737 C   0  0  2  0  0  0  0  0  0  0  0  0
   10.8374  -16.7180   24.4629 N   0  0  0  0  0  0  0  0  0  0  0  0
   11.9698  -18.0773   26.0340 C   0  0  0  0  0  0  0  0  0  0  0  0
   12.9133  -18.4140   26.7933 O   0  0  0  0  0  0  0  0  0  0  0  0
   11.1540  -19.0816   25.5012 O   0  0  0  0  0  0  0  0  0  0  0  0
  2  1  1  1
  3  2  1  0
  4  5  2  0
  4  3  1  0
  6  5  1  0
  7 12  2  0
  7  6  1  0
  8  7  1  0
  9 10  1  0
  9  8  2  0
 10 11  2  0
 11 12  1  0
 12  4  1  0
 13  2  1  0
 14 13  2  0
 16 17  2  0
 16 15  1  0
 18 17  1  0
 19 18  2  0
 21 20  1  1
 20 19  1  0
 21 22  1  0
 22 13  1  0
 23 24  2  0
 23 21  1  0
 25 19  1  0
 25 26  2  0
 26 16  1  0
 28 27  1  1
 28 30  1  0
 29 28  1  0
 31 30  1  1
 31 32  1  0
 32 23  1  0
 33 35  1  0
 33 31  1  0
 34 33  2  0
M  END
$$$$
