WYL.pdb
     RDKit          3D

 35 37  0  0  1  0  0  0  0  0999 V2000
    7.1070  -18.4940   24.3575 N   0  0  0  0  0  0  0  0  0  0  0  0
    7.0735  -17.8700   23.0691 C   0  0  1  0  0  0  0  0  0  0  0  0
    6.2313  -16.6378   23.0155 C   0  0  0  0  0  0  0  0  0  0  0  0
    6.2060  -15.8782   24.2742 C   0  0  0  0  0  0  0  0  0  0  0  0
    5.8667  -16.3820   25.5136 C   0  0  0  0  0  0  0  0  0  0  0  0
    5.9564  -15.3917   26.4379 N   0  0  0  0  0  0  0  0  0  0  0  0
    6.3446  -14.2523   25.8423 C   0  0  0  0  0  0  0  0  0  0  0  0
    6.5809  -12.9821   26.3236 C   0  0  0  0  0  0  0  0  0  0  0  0
    6.9776  -12.0216   25.4188 C   0  0  0  0  0  0  0  0  0  0  0  0
    7.1340  -12.3205   24.0715 C   0  0  0  0  0  0  0  0  0  0  0  0
    6.8982  -13.5774   23.6066 C   0  0  0  0  0  0  0  0  0  0  0  0
    6.5013  -14.5557   24.4868 C   0  0  0  0  0  0  0  0  0  0  0  0
    8.4831  -17.4572   22.7201 C   0  0  0  0  0  0  0  0  0  0  0  0
    9.1012  -18.1531   21.8801 O   0  0  0  0  0  0  0  0  0  0  0  0
    7.5746  -13.9075   17.6240 O   0  0  0  0  0  0  0  0  0  0  0  0
    8.2840  -14.0390   18.8303 C   0  0  0  0  0  0  0  0  0  0  0  0
    9.3599  -14.8927   18.9310 C   0  0  0  0  0  0  0  0  0  0  0  0
   10.0577  -15.0215   20.1186 C   0  0  0  0  0  0  0  0  0  0  0  0
    9.7124  -14.3076   21.2488 C   0  0  0  0  0  0  0  0  0  0  0  0
   10.4632  -14.4474   22.5196 C   0  0  0  0  0  0  0  0  0  0  0  0
   10.4067  -15.8246   23.0766 C   0  0  2  0  0  0  0  0  0  0  0  0
    9.0963  -16.3351   23.3068 N   0  0  0  0  0  0  0  0  0  0  0  0
   11.2768  -16.0133   24.2976 C   0  0  0  0  0  0  0  0  0  0  0  0
   12.5079  -15.7871   24.3065 O   0  0  0  0  0  0  0  0  0  0  0  0
    8.6345  -13.4564   21.1379 C   0  0  0  0  0  0  0  0  0  0  0  0
    7.9269  -13.3194   19.9502 C   0  0  0  0  0  0  0  0  0  0  0  0
   11.8944  -13.6246   27.3359 C   0  0  0  0  0  0  0  0  0  0  0  0
   10.6323  -14.4993   27.4999 C   0  0  2  0  0  0  0  0  0  0  0  0
    9.7726  -13.8771   28.5925 C   0  0  0  0  0  0  0  0  0  0  0  0
   10.9948  -15.8926   27.8568 C   0  0  0  0  0  0  0  0  0  0  0  0
   11.5824  -16.6240   26.6854 C   0  0  2  0  0  0  0  0  0  0  0  0
   10.7010  -16.4691   25.5145 N   0  0  0  0  0  0  0  0  0  0  0  0
   11.6731  -18.0771   26.9525 C   0  0  0  0  0  0  0  0  0  0  0  0
   12.3537  -18.5670   27.8888 O   0  0  0  0  0  0  0  0  0  0  0  0
   10.9638  -18.9490   26.1189 O   0  0  0  0  0  0  0  0  0  0  0  0
  2  1  1  1
  3  2  1  0
  4  5  2  0
  4  3  1  0
  6  5  1  0
  7 12  2  0
  7  6  1  0
  8  7  1  0
  9 10  1  0
  9  8  2  0
 10 11  2  0
 11 12  1  0
 12  4  1  0
 13  2  1  0
 14 13  2  0
 16 17  2  0
 16 15  1  0
 18 17  1  0
 19 18  2  0
 21 20  1  1
 20 19  1  0
 21 22  1  0
 22 13  1  0
 23 24  2  0
 23 21  1  0
 25 19  1  0
 25 26  2  0
 26 16  1  0
 28 27  1  1
 28 30  1  0
 29 28  1  0
 31 30  1  1
 31 32  1  0
 32 23  1  0
 33 35  1  0
 33 31  1  0
 34 33  2  0
M  END
$$$$
