WYL.pdb
     RDKit          3D

 35 37  0  0  1  0  0  0  0  0999 V2000
    6.3945  -17.8701   24.4135 N   0  0  0  0  0  0  0  0  0  0  0  0
    7.5557  -17.0767   24.1443 C   0  0  1  0  0  0  0  0  0  0  0  0
    7.8684  -16.0803   25.2120 C   0  0  0  0  0  0  0  0  0  0  0  0
    6.9956  -14.8972   25.1970 C   0  0  0  0  0  0  0  0  0  0  0  0
    5.8998  -14.6929   26.0111 C   0  0  0  0  0  0  0  0  0  0  0  0
    5.3402  -13.4924   25.7134 N   0  0  0  0  0  0  0  0  0  0  0  0
    6.0360  -12.9019   24.7281 C   0  0  0  0  0  0  0  0  0  0  0  0
    5.8871  -11.6977   24.0736 C   0  0  0  0  0  0  0  0  0  0  0  0
    6.7990  -11.3918   23.0869 C   0  0  0  0  0  0  0  0  0  0  0  0
    7.8305  -12.2636   22.7626 C   0  0  0  0  0  0  0  0  0  0  0  0
    7.9687  -13.4498   23.4146 C   0  0  0  0  0  0  0  0  0  0  0  0
    7.0733  -13.7810   24.4036 C   0  0  0  0  0  0  0  0  0  0  0  0
    8.7393  -18.0091   24.0499 C   0  0  0  0  0  0  0  0  0  0  0  0
    8.7158  -19.0505   24.7476 O   0  0  0  0  0  0  0  0  0  0  0  0
   17.2690  -20.1729   22.9595 O   0  0  0  0  0  0  0  0  0  0  0  0
   15.9952  -19.6045   22.7860 C   0  0  0  0  0  0  0  0  0  0  0  0
   15.8335  -18.2398   22.6984 C   0  0  0  0  0  0  0  0  0  0  0  0
   14.5795  -17.6811   22.5276 C   0  0  0  0  0  0  0  0  0  0  0  0
   13.4411  -18.4571   22.4377 C   0  0  0  0  0  0  0  0  0  0  0  0
   12.0989  -17.8549   22.2534 C   0  0  0  0  0  0  0  0  0  0  0  0
   11.2103  -18.0515   23.4290 C   0  0  2  0  0  0  0  0  0  0  0  0
    9.8375  -17.7347   23.2144 N   0  0  0  0  0  0  0  0  0  0  0  0
   11.7229  -17.3867   24.6855 C   0  0  0  0  0  0  0  0  0  0  0  0
   12.3504  -16.3035   24.6836 O   0  0  0  0  0  0  0  0  0  0  0  0
   13.6135  -19.8214   22.5266 C   0  0  0  0  0  0  0  0  0  0  0  0
   14.8681  -20.3928   22.6981 C   0  0  0  0  0  0  0  0  0  0  0  0
    9.5205  -14.0502   28.1336 C   0  0  0  0  0  0  0  0  0  0  0  0
   10.6254  -15.1263   28.2121 C   0  0  2  0  0  0  0  0  0  0  0  0
   11.9675  -14.4111   28.2960 C   0  0  0  0  0  0  0  0  0  0  0  0
   10.5857  -16.0153   27.0256 C   0  0  0  0  0  0  0  0  0  0  0  0
   11.5673  -17.1436   27.1522 C   0  0  2  0  0  0  0  0  0  0  0  0
   11.4988  -17.9943   25.9507 N   0  0  0  0  0  0  0  0  0  0  0  0
   11.2358  -18.0149   28.3020 C   0  0  0  0  0  0  0  0  0  0  0  0
   10.3512  -18.9070   28.2613 O   0  0  0  0  0  0  0  0  0  0  0  0
   11.9448  -17.8351   29.4949 O   0  0  0  0  0  0  0  0  0  0  0  0
  2  1  1  1
  3  2  1  0
  4  5  2  0
  4  3  1  0
  6  5  1  0
  7 12  2  0
  7  6  1  0
  8  7  1  0
  9 10  1  0
  9  8  2  0
 10 11  2  0
 11 12  1  0
 12  4  1  0
 13  2  1  0
 14 13  2  0
 16 17  2  0
 16 15  1  0
 18 17  1  0
 19 18  2  0
 21 20  1  6
 20 19  1  0
 21 22  1  0
 22 13  1  0
 23 24  2  0
 23 21  1  0
 25 19  1  0
 25 26  2  0
 26 16  1  0
 28 27  1  6
 28 30  1  0
 29 28  1  0
 31 30  1  6
 31 32  1  0
 32 23  1  0
 33 35  1  0
 33 31  1  0
 34 33  2  0
M  END
$$$$
