WYL.pdb
     RDKit          3D

 35 37  0  0  1  0  0  0  0  0999 V2000
    6.1971  -18.7284   26.1652 N   0  0  0  0  0  0  0  0  0  0  0  0
    7.4317  -18.0930   25.8153 C   0  0  1  0  0  0  0  0  0  0  0  0
    8.6294  -18.6939   26.4747 C   0  0  0  0  0  0  0  0  0  0  0  0
    9.0700  -17.9748   27.6792 C   0  0  0  0  0  0  0  0  0  0  0  0
    9.6010  -18.5528   28.8146 C   0  0  0  0  0  0  0  0  0  0  0  0
    9.8906  -17.5805   29.7167 N   0  0  0  0  0  0  0  0  0  0  0  0
    9.5658  -16.3810   29.2075 C   0  0  0  0  0  0  0  0  0  0  0  0
    9.6582  -15.0996   29.7076 C   0  0  0  0  0  0  0  0  0  0  0  0
    9.2248  -14.0687   28.9027 C   0  0  0  0  0  0  0  0  0  0  0  0
    8.7135  -14.3101   27.6341 C   0  0  0  0  0  0  0  0  0  0  0  0
    8.6264  -15.5787   27.1497 C   0  0  0  0  0  0  0  0  0  0  0  0
    9.0516  -16.6266   27.9311 C   0  0  0  0  0  0  0  0  0  0  0  0
    7.6236  -18.2472   24.3258 C   0  0  0  0  0  0  0  0  0  0  0  0
    8.4810  -19.0732   23.9328 O   0  0  0  0  0  0  0  0  0  0  0  0
    8.1966  -13.0860   17.0688 O   0  0  0  0  0  0  0  0  0  0  0  0
    7.7373  -13.7418   18.2241 C   0  0  0  0  0  0  0  0  0  0  0  0
    7.4901  -13.0437   19.3850 C   0  0  0  0  0  0  0  0  0  0  0  0
    7.0380  -13.6898   20.5216 C   0  0  0  0  0  0  0  0  0  0  0  0
    6.8151  -15.0522   20.5466 C   0  0  0  0  0  0  0  0  0  0  0  0
    6.3294  -15.7412   21.7662 C   0  0  0  0  0  0  0  0  0  0  0  0
    7.3545  -16.6280   22.3768 C   0  0  2  0  0  0  0  0  0  0  0  0
    6.8759  -17.4989   23.3981 N   0  0  0  0  0  0  0  0  0  0  0  0
    8.5884  -15.8881   22.8391 C   0  0  0  0  0  0  0  0  0  0  0  0
    9.6476  -15.8341   22.1741 O   0  0  0  0  0  0  0  0  0  0  0  0
    7.0655  -15.7417   19.3801 C   0  0  0  0  0  0  0  0  0  0  0  0
    7.5196  -15.1028   18.2331 C   0  0  0  0  0  0  0  0  0  0  0  0
    7.1729  -12.6216   24.5160 C   0  0  0  0  0  0  0  0  0  0  0  0
    7.8470  -13.3376   25.7067 C   0  0  2  0  0  0  0  0  0  0  0  0
    7.4951  -12.5680   26.9732 C   0  0  0  0  0  0  0  0  0  0  0  0
    9.3182  -13.3950   25.5276 C   0  0  0  0  0  0  0  0  0  0  0  0
    9.6976  -14.2945   24.3877 C   0  0  2  0  0  0  0  0  0  0  0  0
    8.5807  -15.2077   24.0870 N   0  0  0  0  0  0  0  0  0  0  0  0
   10.8536  -15.1485   24.7417 C   0  0  0  0  0  0  0  0  0  0  0  0
   10.7748  -16.3950   24.8836 O   0  0  0  0  0  0  0  0  0  0  0  0
   12.0976  -14.5352   24.9274 O   0  0  0  0  0  0  0  0  0  0  0  0
  2  1  1  1
  3  2  1  0
  4  5  2  0
  4  3  1  0
  6  5  1  0
  7 12  2  0
  7  6  1  0
  8  7  1  0
  9 10  1  0
  9  8  2  0
 10 11  2  0
 11 12  1  0
 12  4  1  0
 13  2  1  0
 14 13  2  0
 16 17  2  0
 16 15  1  0
 18 17  1  0
 19 18  2  0
 21 20  1  1
 20 19  1  0
 21 22  1  0
 22 13  1  0
 23 24  2  0
 23 21  1  0
 25 19  1  0
 25 26  2  0
 26 16  1  0
 28 27  1  6
 28 30  1  0
 29 28  1  0
 31 30  1  1
 31 32  1  0
 32 23  1  0
 33 35  1  0
 33 31  1  0
 34 33  2  0
M  END
$$$$
