WYL.pdb
     RDKit          3D

 35 37  0  0  1  0  0  0  0  0999 V2000
    6.6357  -18.6918   24.0961 N   0  0  0  0  0  0  0  0  0  0  0  0
    6.7886  -17.7383   23.0389 C   0  0  1  0  0  0  0  0  0  0  0  0
    6.0945  -16.4399   23.2901 C   0  0  0  0  0  0  0  0  0  0  0  0
    6.2703  -15.9250   24.6561 C   0  0  0  0  0  0  0  0  0  0  0  0
    6.2738  -16.6829   25.8096 C   0  0  0  0  0  0  0  0  0  0  0  0
    6.4609  -15.8677   26.8789 N   0  0  0  0  0  0  0  0  0  0  0  0
    6.5806  -14.5966   26.4619 C   0  0  0  0  0  0  0  0  0  0  0  0
    6.7804  -13.4096   27.1341 C   0  0  0  0  0  0  0  0  0  0  0  0
    6.8583  -12.2573   26.3827 C   0  0  0  0  0  0  0  0  0  0  0  0
    6.7401  -12.2889   24.9992 C   0  0  0  0  0  0  0  0  0  0  0  0
    6.5430  -13.4658   24.3453 C   0  0  0  0  0  0  0  0  0  0  0  0
    6.4613  -14.6311   25.0696 C   0  0  0  0  0  0  0  0  0  0  0  0
    8.2609  -17.4330   22.9029 C   0  0  0  0  0  0  0  0  0  0  0  0
    9.0034  -18.3392   22.4565 O   0  0  0  0  0  0  0  0  0  0  0  0
    7.9952  -13.9579   17.1205 O   0  0  0  0  0  0  0  0  0  0  0  0
    8.5163  -14.0378   18.4235 C   0  0  0  0  0  0  0  0  0  0  0  0
    8.0146  -13.2525   19.4374 C   0  0  0  0  0  0  0  0  0  0  0  0
    8.5279  -13.3318   20.7196 C   0  0  0  0  0  0  0  0  0  0  0  0
    9.5577  -14.1933   21.0413 C   0  0  0  0  0  0  0  0  0  0  0  0
   10.1046  -14.2764   22.4168 C   0  0  0  0  0  0  0  0  0  0  0  0
   10.0891  -15.6590   22.9630 C   0  0  2  0  0  0  0  0  0  0  0  0
    8.7972  -16.1822   23.2598 N   0  0  0  0  0  0  0  0  0  0  0  0
   11.0262  -15.8517   24.1328 C   0  0  0  0  0  0  0  0  0  0  0  0
   12.2521  -15.6041   24.0801 O   0  0  0  0  0  0  0  0  0  0  0  0
   10.0528  -14.9746   20.0199 C   0  0  0  0  0  0  0  0  0  0  0  0
    9.5447  -14.9030   18.7289 C   0  0  0  0  0  0  0  0  0  0  0  0
    9.4651  -13.6425   27.0920 C   0  0  0  0  0  0  0  0  0  0  0  0
    9.9250  -14.9737   27.7255 C   0  0  2  0  0  0  0  0  0  0  0  0
    9.7488  -14.8574   29.2340 C   0  0  0  0  0  0  0  0  0  0  0  0
   11.3411  -15.2599   27.3901 C   0  0  0  0  0  0  0  0  0  0  0  0
   11.4621  -16.4624   26.5003 C   0  0  2  0  0  0  0  0  0  0  0  0
   10.5239  -16.3368   25.3708 N   0  0  0  0  0  0  0  0  0  0  0  0
   11.0882  -17.7006   27.2201 C   0  0  0  0  0  0  0  0  0  0  0  0
   10.3493  -18.5904   26.7277 O   0  0  0  0  0  0  0  0  0  0  0  0
   11.5837  -17.8889   28.5151 O   0  0  0  0  0  0  0  0  0  0  0  0
  2  1  1  1
  3  2  1  0
  4  5  2  0
  4  3  1  0
  6  5  1  0
  7 12  2  0
  7  6  1  0
  8  7  1  0
  9 10  1  0
  9  8  2  0
 10 11  2  0
 11 12  1  0
 12  4  1  0
 13  2  1  0
 14 13  2  0
 16 17  2  0
 16 15  1  0
 18 17  1  0
 19 18  2  0
 21 20  1  1
 20 19  1  0
 21 22  1  0
 22 13  1  0
 23 24  2  0
 23 21  1  0
 25 19  1  0
 25 26  2  0
 26 16  1  0
 28 27  1  6
 28 30  1  0
 29 28  1  0
 31 30  1  1
 31 32  1  0
 32 23  1  0
 33 35  1  0
 33 31  1  0
 34 33  2  0
M  END
$$$$
