WYL.pdb
     RDKit          3D

 35 37  0  0  1  0  0  0  0  0999 V2000
    6.1890  -17.9254   25.9656 N   0  0  0  0  0  0  0  0  0  0  0  0
    7.3002  -18.5187   25.2847 C   0  0  1  0  0  0  0  0  0  0  0  0
    7.4826  -19.9720   25.5766 C   0  0  0  0  0  0  0  0  0  0  0  0
    7.6414  -20.2772   27.0061 C   0  0  0  0  0  0  0  0  0  0  0  0
    7.1266  -21.3799   27.6575 C   0  0  0  0  0  0  0  0  0  0  0  0
    7.4747  -21.3268   28.9686 N   0  0  0  0  0  0  0  0  0  0  0  0
    8.2030  -20.2219   29.1978 C   0  0  0  0  0  0  0  0  0  0  0  0
    8.7889  -19.7108   30.3363 C   0  0  0  0  0  0  0  0  0  0  0  0
    9.4826  -18.5260   30.2190 C   0  0  0  0  0  0  0  0  0  0  0  0
    9.5885  -17.8699   28.9994 C   0  0  0  0  0  0  0  0  0  0  0  0
    9.0064  -18.3827   27.8815 C   0  0  0  0  0  0  0  0  0  0  0  0
    8.3081  -19.5635   27.9692 C   0  0  0  0  0  0  0  0  0  0  0  0
    7.0515  -18.3940   23.8008 C   0  0  0  0  0  0  0  0  0  0  0  0
    7.3719  -19.3645   23.0745 O   0  0  0  0  0  0  0  0  0  0  0  0
    8.8046  -11.9635   17.9378 O   0  0  0  0  0  0  0  0  0  0  0  0
    8.1625  -12.7722   18.8915 C   0  0  0  0  0  0  0  0  0  0  0  0
    7.9347  -14.1086   18.6502 C   0  0  0  0  0  0  0  0  0  0  0  0
    7.3028  -14.9039   19.5894 C   0  0  0  0  0  0  0  0  0  0  0  0
    6.8744  -14.4010   20.8017 C   0  0  0  0  0  0  0  0  0  0  0  0
    6.1985  -15.2566   21.8064 C   0  0  0  0  0  0  0  0  0  0  0  0
    7.1151  -16.2424   22.4373 C   0  0  2  0  0  0  0  0  0  0  0  0
    6.4820  -17.2378   23.2367 N   0  0  0  0  0  0  0  0  0  0  0  0
    8.2597  -15.6016   23.1876 C   0  0  0  0  0  0  0  0  0  0  0  0
    9.3366  -15.2669   22.6443 O   0  0  0  0  0  0  0  0  0  0  0  0
    7.1069  -13.0627   21.0335 C   0  0  0  0  0  0  0  0  0  0  0  0
    7.7406  -12.2552   20.0975 C   0  0  0  0  0  0  0  0  0  0  0  0
    7.3981  -11.9103   25.0343 C   0  0  0  0  0  0  0  0  0  0  0  0
    7.1947  -13.1395   25.9468 C   0  0  2  0  0  0  0  0  0  0  0  0
    6.4134  -12.6857   27.1730 C   0  0  0  0  0  0  0  0  0  0  0  0
    8.4975  -13.7228   26.3497 C   0  0  0  0  0  0  0  0  0  0  0  0
    9.1378  -14.4708   25.2170 C   0  0  2  0  0  0  0  0  0  0  0  0
    8.1414  -15.3515   24.5818 N   0  0  0  0  0  0  0  0  0  0  0  0
   10.2250  -15.3500   25.7029 C   0  0  0  0  0  0  0  0  0  0  0  0
   11.2538  -14.9210   26.2840 O   0  0  0  0  0  0  0  0  0  0  0  0
   10.0994  -16.7295   25.5047 O   0  0  0  0  0  0  0  0  0  0  0  0
  2  1  1  1
  3  2  1  0
  4  5  2  0
  4  3  1  0
  6  5  1  0
  7 12  2  0
  7  6  1  0
  8  7  1  0
  9 10  1  0
  9  8  2  0
 10 11  2  0
 11 12  1  0
 12  4  1  0
 13  2  1  0
 14 13  2  0
 16 17  2  0
 16 15  1  0
 18 17  1  0
 19 18  2  0
 21 20  1  1
 20 19  1  0
 21 22  1  0
 22 13  1  0
 23 24  2  0
 23 21  1  0
 25 19  1  0
 25 26  2  0
 26 16  1  0
 28 27  1  6
 28 30  1  0
 29 28  1  0
 31 30  1  1
 31 32  1  0
 32 23  1  0
 33 35  1  0
 33 31  1  0
 34 33  2  0
M  END
$$$$
