WYL.pdb
     RDKit          3D

 35 37  0  0  1  0  0  0  0  0999 V2000
    8.1328  -18.3521   20.7337 N   0  0  0  0  0  0  0  0  0  0  0  0
    8.6238  -17.1509   21.3389 C   0  0  1  0  0  0  0  0  0  0  0  0
    7.5496  -16.1997   21.7535 C   0  0  0  0  0  0  0  0  0  0  0  0
    7.1728  -15.2348   20.7100 C   0  0  0  0  0  0  0  0  0  0  0  0
    6.3298  -15.4854   19.6462 C   0  0  0  0  0  0  0  0  0  0  0  0
    6.2165  -14.3622   18.8922 N   0  0  0  0  0  0  0  0  0  0  0  0
    6.9600  -13.3811   19.4292 C   0  0  0  0  0  0  0  0  0  0  0  0
    7.1853  -12.0725   19.0584 C   0  0  0  0  0  0  0  0  0  0  0  0
    8.0241  -11.3209   19.8522 C   0  0  0  0  0  0  0  0  0  0  0  0
    8.6211  -11.8604   20.9843 C   0  0  0  0  0  0  0  0  0  0  0  0
    8.3922  -13.1533   21.3416 C   0  0  0  0  0  0  0  0  0  0  0  0
    7.5596  -13.9265   20.5680 C   0  0  0  0  0  0  0  0  0  0  0  0
    9.3767  -17.5388   22.5886 C   0  0  0  0  0  0  0  0  0  0  0  0
    8.9294  -18.4967   23.2627 O   0  0  0  0  0  0  0  0  0  0  0  0
   14.5287  -20.9035   20.0550 O   0  0  0  0  0  0  0  0  0  0  0  0
   14.1047  -19.9587   21.0054 C   0  0  0  0  0  0  0  0  0  0  0  0
   14.0259  -20.2829   22.3414 C   0  0  0  0  0  0  0  0  0  0  0  0
   13.6087  -19.3524   23.2763 C   0  0  0  0  0  0  0  0  0  0  0  0
   13.2546  -18.0668   22.9184 C   0  0  0  0  0  0  0  0  0  0  0  0
   12.8090  -17.0718   23.9232 C   0  0  0  0  0  0  0  0  0  0  0  0
   11.3403  -17.0983   24.1517 C   0  0  2  0  0  0  0  0  0  0  0  0
   10.5399  -16.8607   22.9968 N   0  0  0  0  0  0  0  0  0  0  0  0
   10.8966  -16.2217   25.2999 C   0  0  0  0  0  0  0  0  0  0  0  0
   11.3905  -15.0961   25.5366 O   0  0  0  0  0  0  0  0  0  0  0  0
   13.3368  -17.7523   21.5793 C   0  0  0  0  0  0  0  0  0  0  0  0
   13.7545  -18.6789   20.6323 C   0  0  0  0  0  0  0  0  0  0  0  0
    8.9538  -13.0068   26.6310 C   0  0  0  0  0  0  0  0  0  0  0  0
    8.1306  -14.2591   26.2584 C   0  0  2  0  0  0  0  0  0  0  0  0
    6.6834  -13.8252   26.0654 C   0  0  0  0  0  0  0  0  0  0  0  0
    8.2246  -15.2911   27.3196 C   0  0  0  0  0  0  0  0  0  0  0  0
    9.6034  -15.8794   27.3924 C   0  0  2  0  0  0  0  0  0  0  0  0
    9.8688  -16.6665   26.1750 N   0  0  0  0  0  0  0  0  0  0  0  0
    9.7261  -16.8159   28.5321 C   0  0  0  0  0  0  0  0  0  0  0  0
    9.6709  -16.4532   29.7343 O   0  0  0  0  0  0  0  0  0  0  0  0
    9.9131  -18.1748   28.2552 O   0  0  0  0  0  0  0  0  0  0  0  0
  2  1  1  1
  3  2  1  0
  4  5  2  0
  4  3  1  0
  6  5  1  0
  7 12  2  0
  7  6  1  0
  8  7  1  0
  9 10  1  0
  9  8  2  0
 10 11  2  0
 11 12  1  0
 12  4  1  0
 13  2  1  0
 14 13  2  0
 16 17  2  0
 16 15  1  0
 18 17  1  0
 19 18  2  0
 21 20  1  6
 20 19  1  0
 21 22  1  0
 22 13  1  0
 23 24  2  0
 23 21  1  0
 25 19  1  0
 25 26  2  0
 26 16  1  0
 28 27  1  1
 28 30  1  0
 29 28  1  0
 31 30  1  6
 31 32  1  0
 32 23  1  0
 33 35  1  0
 33 31  1  0
 34 33  2  0
M  END
$$$$
