WYL.pdb
     RDKit          3D

 35 37  0  0  1  0  0  0  0  0999 V2000
    7.8354  -18.2057   21.1587 N   0  0  0  0  0  0  0  0  0  0  0  0
    8.1997  -17.1734   22.0817 C   0  0  1  0  0  0  0  0  0  0  0  0
    7.0886  -16.2279   22.4011 C   0  0  0  0  0  0  0  0  0  0  0  0
    6.6258  -15.4412   21.2483 C   0  0  0  0  0  0  0  0  0  0  0  0
    5.5045  -15.7067   20.4886 C   0  0  0  0  0  0  0  0  0  0  0  0
    5.3948  -14.7700   19.5121 N   0  0  0  0  0  0  0  0  0  0  0  0
    6.4108  -13.8969   19.6080 C   0  0  0  0  0  0  0  0  0  0  0  0
    6.7548  -12.7821   18.8734 C   0  0  0  0  0  0  0  0  0  0  0  0
    7.8885  -12.0956   19.2504 C   0  0  0  0  0  0  0  0  0  0  0  0
    8.6572  -12.5103   20.3304 C   0  0  0  0  0  0  0  0  0  0  0  0
    8.3090  -13.6121   21.0489 C   0  0  0  0  0  0  0  0  0  0  0  0
    7.1827  -14.3163   20.6953 C   0  0  0  0  0  0  0  0  0  0  0  0
    8.6029  -17.8350   23.3775 C   0  0  0  0  0  0  0  0  0  0  0  0
    7.7325  -18.5028   23.9844 O   0  0  0  0  0  0  0  0  0  0  0  0
   15.6059  -14.7704   19.8782 O   0  0  0  0  0  0  0  0  0  0  0  0
   14.3879  -15.0317   20.5293 C   0  0  0  0  0  0  0  0  0  0  0  0
   13.3038  -14.1984   20.3667 C   0  0  0  0  0  0  0  0  0  0  0  0
   12.1053  -14.4563   21.0078 C   0  0  0  0  0  0  0  0  0  0  0  0
   11.9401  -15.5506   21.8333 C   0  0  0  0  0  0  0  0  0  0  0  0
   10.6539  -15.8245   22.5178 C   0  0  0  0  0  0  0  0  0  0  0  0
   10.8174  -16.6324   23.7551 C   0  0  2  0  0  0  0  0  0  0  0  0
    9.9040  -17.7166   23.8997 N   0  0  0  0  0  0  0  0  0  0  0  0
   10.8613  -15.7979   25.0141 C   0  0  0  0  0  0  0  0  0  0  0  0
   11.7693  -14.9723   25.2608 O   0  0  0  0  0  0  0  0  0  0  0  0
   13.0308  -16.3782   21.9895 C   0  0  0  0  0  0  0  0  0  0  0  0
   14.2388  -16.1286   21.3505 C   0  0  0  0  0  0  0  0  0  0  0  0
    8.5385  -12.8047   25.8208 C   0  0  0  0  0  0  0  0  0  0  0  0
    8.0612  -14.1273   26.4595 C   0  0  2  0  0  0  0  0  0  0  0  0
    6.5937  -13.9621   26.8322 C   0  0  0  0  0  0  0  0  0  0  0  0
    8.8664  -14.4576   27.6604 C   0  0  0  0  0  0  0  0  0  0  0  0
   10.0479  -15.3145   27.3104 C   0  0  2  0  0  0  0  0  0  0  0  0
    9.8356  -15.9315   25.9890 N   0  0  0  0  0  0  0  0  0  0  0  0
   10.2052  -16.4282   28.2726 C   0  0  0  0  0  0  0  0  0  0  0  0
   10.4313  -16.2574   29.4973 O   0  0  0  0  0  0  0  0  0  0  0  0
   10.0960  -17.7381   27.7928 O   0  0  0  0  0  0  0  0  0  0  0  0
  2  1  1  6
  3  2  1  0
  4  5  2  0
  4  3  1  0
  6  5  1  0
  7 12  2  0
  7  6  1  0
  8  7  1  0
  9 10  1  0
  9  8  2  0
 10 11  2  0
 11 12  1  0
 12  4  1  0
 13  2  1  0
 14 13  2  0
 16 17  2  0
 16 15  1  0
 18 17  1  0
 19 18  2  0
 21 20  1  6
 20 19  1  0
 21 22  1  0
 22 13  1  0
 23 24  2  0
 23 21  1  0
 25 19  1  0
 25 26  2  0
 26 16  1  0
 28 27  1  1
 28 30  1  0
 29 28  1  0
 31 30  1  1
 31 32  1  0
 32 23  1  0
 33 35  1  0
 33 31  1  0
 34 33  2  0
M  END
$$$$
