KLI.pdb
     RDKit          3D

 26 25  0  0  1  0  0  0  0  0999 V2000
   28.8262  -20.2226  -16.4936 N   0  0  0  0  0  0  0  0  0  0  0  0
   27.5121  -20.7341  -16.3220 C   0  0  1  0  0  0  0  0  0  0  0  0
   27.1700  -21.7640  -17.3249 C   0  0  0  0  0  0  0  0  0  0  0  0
   27.1585  -21.2764  -18.7414 C   0  0  0  0  0  0  0  0  0  0  0  0
   26.1990  -20.1841  -19.0598 C   0  0  0  0  0  0  0  0  0  0  0  0
   26.3018  -19.9755  -20.5871 C   0  0  0  0  0  0  0  0  0  0  0  0
   25.6554  -21.0760  -21.2498 N   0  0  0  0  0  0  0  0  0  0  0  0
   27.2863  -21.2417  -14.9194 C   0  0  0  0  0  0  0  0  0  0  0  0
   26.3891  -22.0623  -14.6589 O   0  0  0  0  0  0  0  0  0  0  0  0
   30.3983  -22.7034  -12.0467 C   0  0  0  0  0  0  0  0  0  0  0  0
   30.3939  -21.1661  -12.0784 C   0  0  2  0  0  0  0  0  0  0  0  0
   31.5704  -20.7106  -11.2912 C   0  0  0  0  0  0  0  0  0  0  0  0
   29.0574  -20.7427  -11.5925 C   0  0  0  0  0  0  0  0  0  0  0  0
   27.8900  -21.0893  -12.4589 C   0  0  2  0  0  0  0  0  0  0  0  0
   28.1038  -20.7883  -13.8495 N   0  0  0  0  0  0  0  0  0  0  0  0
   26.6489  -20.5174  -11.8962 C   0  0  0  0  0  0  0  0  0  0  0  0
   26.5106  -19.2721  -11.9540 O   0  0  0  0  0  0  0  0  0  0  0  0
   22.3193  -21.6011  -14.0211 C   0  0  0  0  0  0  0  0  0  0  0  0
   23.3672  -20.9889  -13.1755 C   0  0  0  0  0  0  0  0  0  0  0  0
   23.3087  -21.1615  -11.7174 C   0  0  2  0  0  0  0  0  0  0  0  0
   21.9151  -20.7894  -11.2083 C   0  0  0  0  0  0  0  0  0  0  0  0
   24.3776  -20.6021  -10.8493 C   0  0  2  0  0  0  0  0  0  0  0  0
   25.6179  -21.2769  -11.3062 N   0  0  0  0  0  0  0  0  0  0  0  0
   24.2945  -20.7789   -9.4239 C   0  0  0  0  0  0  0  0  0  0  0  0
   24.8302  -21.7333   -8.8275 O   0  0  0  0  0  0  0  0  0  0  0  0
   23.6004  -19.8759   -8.6250 O   0  0  0  0  0  0  0  0  0  0  0  0
  2  1  1  1
  3  2  1  0
  4  5  1  0
  4  3  1  0
  6  7  1  0
  6  5  1  0
  8  2  1  0
  9  8  2  0
 11 10  1  1
 11 13  1  0
 12 11  1  0
 14 13  1  1
 14 15  1  0
 15  8  1  0
 16 23  1  0
 16 14  1  0
 17 16  2  0
 19 18  1  0
 19 20  1  0
 20 22  1  0
 20 21  1  1
 22 24  1  0
 22 23  1  6
 24 26  1  0
 25 24  2  0
M  END
$$$$
