KLI.pdb
     RDKit          3D

 26 25  0  0  1  0  0  0  0  0999 V2000
   23.2289  -24.1625  -15.9911 N   0  0  0  0  0  0  0  0  0  0  0  0
   22.0302  -23.4417  -16.2393 C   0  0  1  0  0  0  0  0  0  0  0  0
   21.2674  -23.9876  -17.3811 C   0  0  0  0  0  0  0  0  0  0  0  0
   21.9350  -23.8257  -18.7124 C   0  0  0  0  0  0  0  0  0  0  0  0
   21.9080  -22.4617  -19.3072 C   0  0  0  0  0  0  0  0  0  0  0  0
   22.5637  -22.6042  -20.6988 C   0  0  0  0  0  0  0  0  0  0  0  0
   22.5800  -21.3158  -21.3376 N   0  0  0  0  0  0  0  0  0  0  0  0
   21.1689  -23.3429  -15.0046 C   0  0  0  0  0  0  0  0  0  0  0  0
   20.9840  -24.3200  -14.2580 O   0  0  0  0  0  0  0  0  0  0  0  0
   21.1695  -20.3573  -11.5569 C   0  0  0  0  0  0  0  0  0  0  0  0
   20.5987  -19.6748  -12.8110 C   0  0  2  0  0  0  0  0  0  0  0  0
   20.3514  -18.2515  -12.4582 C   0  0  0  0  0  0  0  0  0  0  0  0
   19.4209  -20.4777  -13.2232 C   0  0  0  0  0  0  0  0  0  0  0  0
   19.6692  -21.9183  -13.5340 C   0  0  2  0  0  0  0  0  0  0  0  0
   20.5408  -22.1156  -14.6615 N   0  0  0  0  0  0  0  0  0  0  0  0
   18.3881  -22.6503  -13.6196 C   0  0  0  0  0  0  0  0  0  0  0  0
   17.7873  -22.6330  -14.7205 O   0  0  0  0  0  0  0  0  0  0  0  0
   17.5656  -27.6628  -12.1054 C   0  0  0  0  0  0  0  0  0  0  0  0
   17.4521  -26.3270  -12.7305 C   0  0  0  0  0  0  0  0  0  0  0  0
   16.5769  -25.3172  -12.1191 C   0  0  2  0  0  0  0  0  0  0  0  0
   15.2055  -25.9295  -11.8288 C   0  0  0  0  0  0  0  0  0  0  0  0
   16.4575  -23.9622  -12.7178 C   0  0  2  0  0  0  0  0  0  0  0  0
   17.8051  -23.3631  -12.5520 N   0  0  0  0  0  0  0  0  0  0  0  0
   15.5052  -23.0310  -12.1736 C   0  0  0  0  0  0  0  0  0  0  0  0
   15.7708  -22.2678  -11.2245 O   0  0  0  0  0  0  0  0  0  0  0  0
   14.2172  -22.9331  -12.6899 O   0  0  0  0  0  0  0  0  0  0  0  0
  2  1  1  1
  3  2  1  0
  4  5  1  0
  4  3  1  0
  6  7  1  0
  6  5  1  0
  8  2  1  0
  9  8  2  0
 11 10  1  1
 11 13  1  0
 12 11  1  0
 14 13  1  6
 14 15  1  0
 15  8  1  0
 16 23  1  0
 16 14  1  0
 17 16  2  0
 19 18  1  0
 19 20  1  0
 20 22  1  0
 20 21  1  6
 22 24  1  0
 22 23  1  1
 24 26  1  0
 25 24  2  0
M  END
$$$$
