KLI.pdb
     RDKit          3D

 26 25  0  0  1  0  0  0  0  0999 V2000
   27.6391  -20.5362  -17.9501 N   0  0  0  0  0  0  0  0  0  0  0  0
   27.3549  -19.6926  -16.8430 C   0  0  1  0  0  0  0  0  0  0  0  0
   26.0992  -18.9334  -17.0175 C   0  0  0  0  0  0  0  0  0  0  0  0
   26.0721  -18.0395  -18.2193 C   0  0  0  0  0  0  0  0  0  0  0  0
   25.8769  -18.7038  -19.5367 C   0  0  0  0  0  0  0  0  0  0  0  0
   25.9035  -17.5663  -20.5817 C   0  0  0  0  0  0  0  0  0  0  0  0
   25.7648  -18.1387  -21.8937 N   0  0  0  0  0  0  0  0  0  0  0  0
   27.3551  -20.4556  -15.5416 C   0  0  0  0  0  0  0  0  0  0  0  0
   26.4997  -21.3235  -15.2937 O   0  0  0  0  0  0  0  0  0  0  0  0
   30.9736  -20.4225  -10.4827 C   0  0  0  0  0  0  0  0  0  0  0  0
   29.7031  -21.0269  -11.1030 C   0  0  2  0  0  0  0  0  0  0  0  0
   29.8009  -22.5025  -10.9461 C   0  0  0  0  0  0  0  0  0  0  0  0
   29.6263  -20.5038  -12.4894 C   0  0  0  0  0  0  0  0  0  0  0  0
   28.3418  -20.7297  -13.2193 C   0  0  2  0  0  0  0  0  0  0  0  0
   28.3452  -20.1973  -14.5559 N   0  0  0  0  0  0  0  0  0  0  0  0
   27.1997  -20.2888  -12.3914 C   0  0  0  0  0  0  0  0  0  0  0  0
   27.0379  -19.0538  -12.2441 O   0  0  0  0  0  0  0  0  0  0  0  0
   22.5208  -21.0678  -13.8326 C   0  0  0  0  0  0  0  0  0  0  0  0
   23.7229  -20.6007  -13.1083 C   0  0  0  0  0  0  0  0  0  0  0  0
   23.9421  -21.0335  -11.7212 C   0  0  2  0  0  0  0  0  0  0  0  0
   22.6707  -20.8061  -10.9017 C   0  0  0  0  0  0  0  0  0  0  0  0
   25.1567  -20.6029  -10.9809 C   0  0  2  0  0  0  0  0  0  0  0  0
   26.2866  -21.1612  -11.7646 N   0  0  0  0  0  0  0  0  0  0  0  0
   25.3362  -21.0190   -9.6154 C   0  0  0  0  0  0  0  0  0  0  0  0
   25.7862  -22.1384   -9.3021 O   0  0  0  0  0  0  0  0  0  0  0  0
   25.0117  -20.1767   -8.5568 O   0  0  0  0  0  0  0  0  0  0  0  0
  2  1  1  6
  3  2  1  0
  4  5  1  0
  4  3  1  0
  6  7  1  0
  6  5  1  0
  8  2  1  0
  9  8  2  0
 11 10  1  6
 11 13  1  0
 12 11  1  0
 14 13  1  1
 14 15  1  0
 15  8  1  0
 16 23  1  0
 16 14  1  0
 17 16  2  0
 19 18  1  0
 19 20  1  0
 20 22  1  0
 20 21  1  1
 22 24  1  0
 22 23  1  6
 24 26  1  0
 25 24  2  0
M  END
$$$$
