KLI.pdb
     RDKit          3D

 26 25  0  0  1  0  0  0  0  0999 V2000
   26.6684  -20.5053  -18.0018 N   0  0  0  0  0  0  0  0  0  0  0  0
   26.6470  -19.5826  -16.9219 C   0  0  1  0  0  0  0  0  0  0  0  0
   25.5205  -18.6306  -17.0129 C   0  0  0  0  0  0  0  0  0  0  0  0
   25.7179  -17.5226  -18.0015 C   0  0  0  0  0  0  0  0  0  0  0  0
   26.1689  -17.9200  -19.3630 C   0  0  0  0  0  0  0  0  0  0  0  0
   26.2235  -16.6097  -20.1797 C   0  0  0  0  0  0  0  0  0  0  0  0
   26.6727  -16.9122  -21.5119 N   0  0  0  0  0  0  0  0  0  0  0  0
   26.6637  -20.2824  -15.5855 C   0  0  0  0  0  0  0  0  0  0  0  0
   25.8834  -21.2156  -15.3276 O   0  0  0  0  0  0  0  0  0  0  0  0
   30.0715  -22.1829  -13.0275 C   0  0  0  0  0  0  0  0  0  0  0  0
   30.1490  -20.6517  -13.1447 C   0  0  2  0  0  0  0  0  0  0  0  0
   31.4360  -20.2321  -12.5290 C   0  0  0  0  0  0  0  0  0  0  0  0
   28.9071  -20.1228  -12.5286 C   0  0  0  0  0  0  0  0  0  0  0  0
   27.6277  -20.4199  -13.2417 C   0  0  2  0  0  0  0  0  0  0  0  0
   27.5831  -19.8866  -14.5772 N   0  0  0  0  0  0  0  0  0  0  0  0
   26.4738  -20.0451  -12.3978 C   0  0  0  0  0  0  0  0  0  0  0  0
   26.1063  -18.8461  -12.4241 O   0  0  0  0  0  0  0  0  0  0  0  0
   20.9632  -20.2311  -12.0504 C   0  0  0  0  0  0  0  0  0  0  0  0
   22.1419  -20.0661  -11.1721 C   0  0  0  0  0  0  0  0  0  0  0  0
   23.4406  -20.6045  -11.6000 C   0  0  2  0  0  0  0  0  0  0  0  0
   23.2711  -22.0498  -12.0711 C   0  0  0  0  0  0  0  0  0  0  0  0
   24.6423  -20.4448  -10.7402 C   0  0  2  0  0  0  0  0  0  0  0  0
   25.7643  -20.9429  -11.5742 N   0  0  0  0  0  0  0  0  0  0  0  0
   24.7060  -21.1362   -9.4801 C   0  0  0  0  0  0  0  0  0  0  0  0
   23.9659  -20.8577   -8.5165 O   0  0  0  0  0  0  0  0  0  0  0  0
   25.6127  -22.1703   -9.2706 O   0  0  0  0  0  0  0  0  0  0  0  0
  2  1  1  6
  3  2  1  0
  4  5  1  0
  4  3  1  0
  6  7  1  0
  6  5  1  0
  8  2  1  0
  9  8  2  0
 11 10  1  1
 11 13  1  0
 12 11  1  0
 14 13  1  1
 14 15  1  0
 15  8  1  0
 16 23  1  0
 16 14  1  0
 17 16  2  0
 19 18  1  0
 19 20  1  0
 20 22  1  0
 20 21  1  1
 22 24  1  0
 22 23  1  6
 24 26  1  0
 25 24  2  0
M  END
$$$$
