KLI.pdb
     RDKit          3D

 26 25  0  0  1  0  0  0  0  0999 V2000
   24.3897  -19.9370  -12.5183 N   0  0  0  0  0  0  0  0  0  0  0  0
   23.8300  -20.3888  -11.2933 C   0  0  1  0  0  0  0  0  0  0  0  0
   22.8705  -21.4963  -11.4836 C   0  0  0  0  0  0  0  0  0  0  0  0
   21.7011  -21.1655  -12.3596 C   0  0  0  0  0  0  0  0  0  0  0  0
   21.9329  -21.2284  -13.8284 C   0  0  0  0  0  0  0  0  0  0  0  0
   21.3473  -22.5841  -14.2819 C   0  0  0  0  0  0  0  0  0  0  0  0
   19.9129  -22.4843  -14.3074 N   0  0  0  0  0  0  0  0  0  0  0  0
   24.8961  -20.7564  -10.2911 C   0  0  0  0  0  0  0  0  0  0  0  0
   24.6227  -21.3614   -9.2397 O   0  0  0  0  0  0  0  0  0  0  0  0
   28.8165  -22.6477  -11.3920 C   0  0  0  0  0  0  0  0  0  0  0  0
   28.8625  -21.1244  -11.5965 C   0  0  2  0  0  0  0  0  0  0  0  0
   30.1296  -20.8189  -12.3124 C   0  0  0  0  0  0  0  0  0  0  0  0
   28.6880  -20.5178  -10.2538 C   0  0  0  0  0  0  0  0  0  0  0  0
   27.3425  -20.6694   -9.6210 C   0  0  2  0  0  0  0  0  0  0  0  0
   26.2549  -20.4156  -10.5280 N   0  0  0  0  0  0  0  0  0  0  0  0
   27.2796  -19.8956   -8.3635 C   0  0  0  0  0  0  0  0  0  0  0  0
   26.6773  -18.7958   -8.3934 O   0  0  0  0  0  0  0  0  0  0  0  0
   26.9779  -20.6777   -2.3565 C   0  0  0  0  0  0  0  0  0  0  0  0
   27.1573  -19.7628   -3.5049 C   0  0  0  0  0  0  0  0  0  0  0  0
   27.5273  -20.3152   -4.8154 C   0  0  2  0  0  0  0  0  0  0  0  0
   28.6326  -21.3585   -4.6432 C   0  0  0  0  0  0  0  0  0  0  0  0
   27.7992  -19.4119   -5.9638 C   0  0  2  0  0  0  0  0  0  0  0  0
   27.8463  -20.3133   -7.1419 N   0  0  0  0  0  0  0  0  0  0  0  0
   29.0058  -18.6284   -5.9759 C   0  0  0  0  0  0  0  0  0  0  0  0
   30.0212  -18.9586   -6.6191 O   0  0  0  0  0  0  0  0  0  0  0  0
   29.1008  -17.4405   -5.2582 O   0  0  0  0  0  0  0  0  0  0  0  0
  2  1  1  6
  3  2  1  0
  4  5  1  0
  4  3  1  0
  6  7  1  0
  6  5  1  0
  8  2  1  0
  9  8  2  0
 11 10  1  1
 11 13  1  0
 12 11  1  0
 14 13  1  6
 14 15  1  0
 15  8  1  0
 16 23  1  0
 16 14  1  0
 17 16  2  0
 19 18  1  0
 19 20  1  0
 20 22  1  0
 20 21  1  1
 22 24  1  0
 22 23  1  6
 24 26  1  0
 25 24  2  0
M  END
$$$$
