KLI.pdb
     RDKit          3D

 26 25  0  0  1  0  0  0  0  0999 V2000
   20.8041  -23.3673  -13.1192 N   0  0  0  0  0  0  0  0  0  0  0  0
   20.4596  -22.0051  -13.3281 C   0  0  1  0  0  0  0  0  0  0  0  0
   19.6371  -21.4544  -12.2310 C   0  0  0  0  0  0  0  0  0  0  0  0
   18.6246  -22.4063  -11.6716 C   0  0  0  0  0  0  0  0  0  0  0  0
   19.0292  -23.1693  -10.4594 C   0  0  0  0  0  0  0  0  0  0  0  0
   17.8430  -24.1081  -10.1464 C   0  0  0  0  0  0  0  0  0  0  0  0
   18.1801  -24.9166   -9.0059 N   0  0  0  0  0  0  0  0  0  0  0  0
   21.6772  -21.1506  -13.5794 C   0  0  0  0  0  0  0  0  0  0  0  0
   21.5823  -19.9352  -13.8247 O   0  0  0  0  0  0  0  0  0  0  0  0
   24.7863  -19.6638  -11.1604 C   0  0  0  0  0  0  0  0  0  0  0  0
   24.9792  -21.1740  -11.3761 C   0  0  2  0  0  0  0  0  0  0  0  0
   26.0115  -21.6246  -10.4052 C   0  0  0  0  0  0  0  0  0  0  0  0
   25.2894  -21.3533  -12.8160 C   0  0  0  0  0  0  0  0  0  0  0  0
   24.2031  -21.0073  -13.7824 C   0  0  2  0  0  0  0  0  0  0  0  0
   22.9777  -21.7216  -13.5412 N   0  0  0  0  0  0  0  0  0  0  0  0
   24.7029  -21.1072  -15.1696 C   0  0  0  0  0  0  0  0  0  0  0  0
   25.0800  -22.2357  -15.5662 O   0  0  0  0  0  0  0  0  0  0  0  0
   22.5286  -20.4313  -20.3798 C   0  0  0  0  0  0  0  0  0  0  0  0
   23.8310  -20.4009  -19.6791 C   0  0  0  0  0  0  0  0  0  0  0  0
   23.8597  -20.2539  -18.2173 C   0  0  2  0  0  0  0  0  0  0  0  0
   22.9870  -19.0691  -17.7998 C   0  0  0  0  0  0  0  0  0  0  0  0
   25.1524  -20.2687  -17.4841 C   0  0  2  0  0  0  0  0  0  0  0  0
   24.7791  -20.0238  -16.0687 N   0  0  0  0  0  0  0  0  0  0  0  0
   26.1712  -19.3132  -17.8294 C   0  0  0  0  0  0  0  0  0  0  0  0
   27.0549  -19.5425  -18.6781 O   0  0  0  0  0  0  0  0  0  0  0  0
   26.2210  -18.0621  -17.2231 O   0  0  0  0  0  0  0  0  0  0  0  0
  2  1  1  1
  3  2  1  0
  4  5  1  0
  4  3  1  0
  6  7  1  0
  6  5  1  0
  8  2  1  0
  9  8  2  0
 11 10  1  6
 11 13  1  0
 12 11  1  0
 14 13  1  1
 14 15  1  0
 15  8  1  0
 16 23  1  0
 16 14  1  0
 17 16  2  0
 19 18  1  0
 19 20  1  0
 20 22  1  0
 20 21  1  6
 22 24  1  0
 22 23  1  1
 24 26  1  0
 25 24  2  0
M  END
$$$$
