KLI.pdb
     RDKit          3D

 26 25  0  0  1  0  0  0  0  0999 V2000
   22.4705  -20.6635  -17.7477 N   0  0  0  0  0  0  0  0  0  0  0  0
   23.0825  -19.7156  -16.8848 C   0  0  1  0  0  0  0  0  0  0  0  0
   22.0954  -18.8710  -16.1805 C   0  0  0  0  0  0  0  0  0  0  0  0
   21.3071  -17.9588  -17.0697 C   0  0  0  0  0  0  0  0  0  0  0  0
   20.5131  -16.8963  -16.3945 C   0  0  0  0  0  0  0  0  0  0  0  0
   19.7038  -16.2086  -17.5164 C   0  0  0  0  0  0  0  0  0  0  0  0
   18.9614  -15.1154  -16.9491 N   0  0  0  0  0  0  0  0  0  0  0  0
   24.0313  -20.3721  -15.9128 C   0  0  0  0  0  0  0  0  0  0  0  0
   23.6962  -21.3650  -15.2434 O   0  0  0  0  0  0  0  0  0  0  0  0
   28.3499  -21.7482  -16.2898 C   0  0  0  0  0  0  0  0  0  0  0  0
   28.2493  -20.2139  -16.2751 C   0  0  2  0  0  0  0  0  0  0  0  0
   29.6044  -19.6853  -16.5844 C   0  0  0  0  0  0  0  0  0  0  0  0
   27.6706  -19.8465  -14.9592 C   0  0  0  0  0  0  0  0  0  0  0  0
   26.2614  -20.2749  -14.7051 C   0  0  2  0  0  0  0  0  0  0  0  0
   25.3468  -19.8650  -15.7373 N   0  0  0  0  0  0  0  0  0  0  0  0
   25.8493  -19.8904  -13.3389 C   0  0  0  0  0  0  0  0  0  0  0  0
   25.6465  -18.6722  -13.1198 O   0  0  0  0  0  0  0  0  0  0  0  0
   21.4600  -20.5562  -11.5873 C   0  0  0  0  0  0  0  0  0  0  0  0
   22.8748  -20.1509  -11.7360 C   0  0  0  0  0  0  0  0  0  0  0  0
   23.8704  -20.6428  -10.7736 C   0  0  2  0  0  0  0  0  0  0  0  0
   23.3787  -20.3913   -9.3472 C   0  0  0  0  0  0  0  0  0  0  0  0
   25.3061  -20.2915  -10.9293 C   0  0  2  0  0  0  0  0  0  0  0  0
   25.6684  -20.7990  -12.2761 N   0  0  0  0  0  0  0  0  0  0  0  0
   26.2677  -20.8213   -9.9994 C   0  0  0  0  0  0  0  0  0  0  0  0
   26.8259  -21.9245  -10.1574 O   0  0  0  0  0  0  0  0  0  0  0  0
   26.6302  -20.1150   -8.8570 O   0  0  0  0  0  0  0  0  0  0  0  0
  2  1  1  1
  3  2  1  0
  4  5  1  0
  4  3  1  0
  6  7  1  0
  6  5  1  0
  8  2  1  0
  9  8  2  0
 11 10  1  1
 11 13  1  0
 12 11  1  0
 14 13  1  6
 14 15  1  0
 15  8  1  0
 16 23  1  0
 16 14  1  0
 17 16  2  0
 19 18  1  0
 19 20  1  0
 20 22  1  0
 20 21  1  1
 22 24  1  0
 22 23  1  6
 24 26  1  0
 25 24  2  0
M  END
$$$$
