KLI.pdb
     RDKit          3D

 26 25  0  0  1  0  0  0  0  0999 V2000
   28.4011  -19.6529  -15.9090 N   0  0  0  0  0  0  0  0  0  0  0  0
   27.5776  -18.9701  -14.9744 C   0  0  1  0  0  0  0  0  0  0  0  0
   26.9907  -17.7346  -15.5337 C   0  0  0  0  0  0  0  0  0  0  0  0
   27.3088  -17.4903  -16.9771 C   0  0  0  0  0  0  0  0  0  0  0  0
   26.7550  -16.2464  -17.5778 C   0  0  0  0  0  0  0  0  0  0  0  0
   27.8866  -15.1994  -17.4781 C   0  0  0  0  0  0  0  0  0  0  0  0
   27.4456  -13.9795  -18.0990 N   0  0  0  0  0  0  0  0  0  0  0  0
   26.5110  -19.8710  -14.4030 C   0  0  0  0  0  0  0  0  0  0  0  0
   26.1044  -20.8725  -15.0179 O   0  0  0  0  0  0  0  0  0  0  0  0
   26.6158  -22.1908  -10.7886 C   0  0  0  0  0  0  0  0  0  0  0  0
   26.3528  -20.7236  -10.4111 C   0  0  2  0  0  0  0  0  0  0  0  0
   26.4830  -20.6238   -8.9331 C   0  0  0  0  0  0  0  0  0  0  0  0
   25.0336  -20.3732  -10.9931 C   0  0  0  0  0  0  0  0  0  0  0  0
   24.9339  -20.3930  -12.4842 C   0  0  2  0  0  0  0  0  0  0  0  0
   25.9386  -19.5930  -13.1327 N   0  0  0  0  0  0  0  0  0  0  0  0
   23.5501  -20.0928  -12.9074 C   0  0  0  0  0  0  0  0  0  0  0  0
   23.1995  -18.8886  -12.9182 O   0  0  0  0  0  0  0  0  0  0  0  0
   19.9064  -21.5005  -17.3392 C   0  0  0  0  0  0  0  0  0  0  0  0
   19.9783  -20.9396  -15.9723 C   0  0  0  0  0  0  0  0  0  0  0  0
   21.1639  -21.2053  -15.1457 C   0  0  2  0  0  0  0  0  0  0  0  0
   21.4844  -22.7008  -15.1673 C   0  0  0  0  0  0  0  0  0  0  0  0
   21.2677  -20.6414  -13.7746 C   0  0  2  0  0  0  0  0  0  0  0  0
   22.6081  -21.0659  -13.2992 N   0  0  0  0  0  0  0  0  0  0  0  0
   20.3133  -21.0380  -12.7736 C   0  0  0  0  0  0  0  0  0  0  0  0
   19.1470  -20.5997  -12.7387 O   0  0  0  0  0  0  0  0  0  0  0  0
   20.6504  -21.9483  -11.7771 O   0  0  0  0  0  0  0  0  0  0  0  0
  2  1  1  6
  3  2  1  0
  4  5  1  0
  4  3  1  0
  6  7  1  0
  6  5  1  0
  8  2  1  0
  9  8  2  0
 11 10  1  1
 11 13  1  0
 12 11  1  0
 14 13  1  1
 14 15  1  0
 15  8  1  0
 16 23  1  0
 16 14  1  0
 17 16  2  0
 19 18  1  0
 19 20  1  0
 20 22  1  0
 20 21  1  1
 22 24  1  0
 22 23  1  1
 24 26  1  0
 25 24  2  0
M  END
$$$$
