SKP.pdb
     RDKit          3D

 23 23  0  0  1  0  0  0  0  0999 V2000
   10.9339  -13.4562   19.8597 O   0  0  0  0  0  0  0  0  0  0  0  0
   10.1106  -14.5462   19.5164 C   0  0  0  0  0  0  0  0  0  0  0  0
    8.6618  -14.1005   19.4934 C   0  0  2  0  0  0  0  0  0  0  0  0
    8.6188  -12.8077   18.8291 N   0  0  0  0  0  0  0  0  0  0  0  0
    8.1084  -13.9874   20.8658 C   0  0  0  0  0  0  0  0  0  0  0  0
    8.0950  -12.8969   21.4632 O   0  0  0  0  0  0  0  0  0  0  0  0
    7.5819  -15.1358   21.5200 N   0  0  0  0  0  0  0  0  0  0  0  0
    7.0203  -15.1107   22.8395 C   0  0  1  0  0  0  0  0  0  0  0  0
    6.3243  -16.4363   23.0746 C   0  0  0  0  0  0  0  0  0  0  0  0
    5.3297  -16.6616   21.9775 C   0  0  0  0  0  0  0  0  0  0  0  0
    4.7221  -18.0529   22.0415 C   0  0  0  0  0  0  0  0  0  0  0  0
    3.7614  -18.2955   20.9071 C   0  0  0  0  0  0  0  0  0  0  0  0
    3.3251  -19.6773   20.9997 N   0  0  0  0  0  0  0  0  0  0  0  0
    8.1359  -14.9308   23.8135 C   0  0  0  0  0  0  0  0  0  0  0  0
    9.3078  -15.2635   23.5072 O   0  0  0  0  0  0  0  0  0  0  0  0
    7.9166  -14.3840   25.1052 N   0  0  0  0  0  0  0  0  0  0  0  0
    6.6638  -14.0307   25.7442 C   0  0  0  0  0  0  0  0  0  0  0  0
    7.0385  -12.7916   26.5377 C   0  0  0  0  0  0  0  0  0  0  0  0
    8.5313  -12.7031   26.5433 C   0  0  0  0  0  0  0  0  0  0  0  0
    8.9563  -14.0794   26.0539 C   0  0  1  0  0  0  0  0  0  0  0  0
    8.9739  -15.0160   27.1953 C   0  0  0  0  0  0  0  0  0  0  0  0
    8.0285  -15.8406   27.2829 O   0  0  0  0  0  0  0  0  0  0  0  0
    9.9464  -15.0481   28.1623 O   0  0  0  0  0  0  0  0  0  0  0  0
  1  2  1  0
  2  3  1  0
  3  5  1  0
  3  4  1  1
  5  6  2  0
  7  8  1  0
  7  5  1  0
  8 14  1  0
  8  9  1  1
 10  9  1  0
 10 11  1  0
 11 12  1  0
 13 12  1  0
 14 15  2  0
 16 14  1  0
 16 17  1  0
 17 18  1  0
 19 18  1  0
 20 16  1  0
 20 19  1  0
 20 21  1  1
 22 21  2  0
 23 21  1  0
M  END
$$$$
