SKP.pdb
     RDKit          3D

 23 23  0  0  1  0  0  0  0  0999 V2000
    9.4350  -12.9729   20.7452 O   0  0  0  0  0  0  0  0  0  0  0  0
    8.3756  -13.0850   19.8238 C   0  0  0  0  0  0  0  0  0  0  0  0
    7.7337  -14.4523   19.9522 C   0  0  2  0  0  0  0  0  0  0  0  0
    6.6707  -14.5243   18.9626 N   0  0  0  0  0  0  0  0  0  0  0  0
    7.1793  -14.6644   21.3125 C   0  0  0  0  0  0  0  0  0  0  0  0
    6.0752  -14.1920   21.6350 O   0  0  0  0  0  0  0  0  0  0  0  0
    7.9114  -15.4175   22.2722 N   0  0  0  0  0  0  0  0  0  0  0  0
    7.4694  -15.6301   23.6200 C   0  0  1  0  0  0  0  0  0  0  0  0
    7.6504  -17.0998   23.9429 C   0  0  0  0  0  0  0  0  0  0  0  0
    7.3113  -17.3235   25.3846 C   0  0  0  0  0  0  0  0  0  0  0  0
    7.5531  -18.7633   25.8060 C   0  0  0  0  0  0  0  0  0  0  0  0
    7.2725  -18.9711   27.2711 C   0  0  0  0  0  0  0  0  0  0  0  0
    7.5341  -20.3685   27.5662 N   0  0  0  0  0  0  0  0  0  0  0  0
    8.3142  -14.7934   24.5211 C   0  0  0  0  0  0  0  0  0  0  0  0
    9.5406  -14.6494   24.2910 O   0  0  0  0  0  0  0  0  0  0  0  0
    7.7696  -14.1377   25.6565 N   0  0  0  0  0  0  0  0  0  0  0  0
    6.3849  -14.0408   26.0755 C   0  0  0  0  0  0  0  0  0  0  0  0
    6.3171  -12.6420   26.6623 C   0  0  0  0  0  0  0  0  0  0  0  0
    7.7233  -12.1574   26.8175 C   0  0  0  0  0  0  0  0  0  0  0  0
    8.5428  -13.4271   26.6420 C   0  0  1  0  0  0  0  0  0  0  0  0
    8.6112  -14.1425   27.9320 C   0  0  0  0  0  0  0  0  0  0  0  0
    9.3157  -13.6331   28.8406 O   0  0  0  0  0  0  0  0  0  0  0  0
    7.9617  -15.3194   28.2058 O   0  0  0  0  0  0  0  0  0  0  0  0
  1  2  1  0
  2  3  1  0
  3  5  1  0
  3  4  1  6
  5  6  2  0
  7  8  1  0
  7  5  1  0
  8 14  1  0
  8  9  1  1
 10  9  1  0
 10 11  1  0
 11 12  1  0
 13 12  1  0
 14 15  2  0
 16 14  1  0
 16 17  1  0
 17 18  1  0
 19 18  1  0
 20 16  1  0
 20 19  1  0
 20 21  1  1
 22 21  2  0
 23 21  1  0
M  END
$$$$
