SKP.pdb
     RDKit          3D

 23 23  0  0  1  0  0  0  0  0999 V2000
   10.2866  -18.8696   17.2600 O   0  0  0  0  0  0  0  0  0  0  0  0
    9.2946  -19.8087   17.6034 C   0  0  0  0  0  0  0  0  0  0  0  0
    7.9280  -19.2556   17.2502 C   0  0  2  0  0  0  0  0  0  0  0  0
    7.9731  -18.8543   15.8532 N   0  0  0  0  0  0  0  0  0  0  0  0
    7.5775  -18.0931   18.1036 C   0  0  0  0  0  0  0  0  0  0  0  0
    7.8783  -16.9354   17.7642 O   0  0  0  0  0  0  0  0  0  0  0  0
    6.8867  -18.2917   19.3315 N   0  0  0  0  0  0  0  0  0  0  0  0
    6.4514  -17.2206   20.1802 C   0  0  1  0  0  0  0  0  0  0  0  0
    5.5149  -17.8019   21.2204 C   0  0  0  0  0  0  0  0  0  0  0  0
    4.2448  -18.2220   20.5466 C   0  0  0  0  0  0  0  0  0  0  0  0
    3.2580  -18.8310   21.5287 C   0  0  0  0  0  0  0  0  0  0  0  0
    1.9465  -19.1653   20.8677 C   0  0  0  0  0  0  0  0  0  0  0  0
    1.0405  -19.6138   21.9100 N   0  0  0  0  0  0  0  0  0  0  0  0
    7.6551  -16.6326   20.8369 C   0  0  0  0  0  0  0  0  0  0  0  0
    8.7408  -17.2640   20.8574 O   0  0  0  0  0  0  0  0  0  0  0  0
    7.6177  -15.3548   21.4544 N   0  0  0  0  0  0  0  0  0  0  0  0
    6.4802  -14.4838   21.6776 C   0  0  0  0  0  0  0  0  0  0  0  0
    7.0808  -13.1032   21.4810 C   0  0  0  0  0  0  0  0  0  0  0  0
    8.5674  -13.2645   21.4646 C   0  0  0  0  0  0  0  0  0  0  0  0
    8.7633  -14.6746   22.0009 C   0  0  1  0  0  0  0  0  0  0  0  0
    8.7497  -14.6383   23.4771 C   0  0  0  0  0  0  0  0  0  0  0  0
    7.6957  -15.0059   24.0561 O   0  0  0  0  0  0  0  0  0  0  0  0
    9.8033  -14.2330   24.2565 O   0  0  0  0  0  0  0  0  0  0  0  0
  1  2  1  0
  2  3  1  0
  3  5  1  0
  3  4  1  6
  5  6  2  0
  7  8  1  0
  7  5  1  0
  8 14  1  0
  8  9  1  1
 10  9  1  0
 10 11  1  0
 11 12  1  0
 13 12  1  0
 14 15  2  0
 16 14  1  0
 16 17  1  0
 17 18  1  0
 19 18  1  0
 20 16  1  0
 20 19  1  0
 20 21  1  1
 22 21  2  0
 23 21  1  0
M  END
$$$$
