SKP.pdb
     RDKit          3D

 23 23  0  0  1  0  0  0  0  0999 V2000
   10.2233  -19.4763   19.0248 O   0  0  0  0  0  0  0  0  0  0  0  0
   10.0704  -18.7585   17.8227 C   0  0  0  0  0  0  0  0  0  0  0  0
    8.6284  -18.3142   17.6765 C   0  0  2  0  0  0  0  0  0  0  0  0
    8.5201  -17.6115   16.4081 N   0  0  0  0  0  0  0  0  0  0  0  0
    8.2215  -17.4217   18.7903 C   0  0  0  0  0  0  0  0  0  0  0  0
    8.5599  -16.2254   18.8089 O   0  0  0  0  0  0  0  0  0  0  0  0
    7.4320  -17.9293   19.8596 N   0  0  0  0  0  0  0  0  0  0  0  0
    6.9616  -17.1257   20.9505 C   0  0  1  0  0  0  0  0  0  0  0  0
    5.9139  -17.9248   21.6994 C   0  0  0  0  0  0  0  0  0  0  0  0
    4.6806  -18.0169   20.8544 C   0  0  0  0  0  0  0  0  0  0  0  0
    3.6550  -18.9660   21.4516 C   0  0  0  0  0  0  0  0  0  0  0  0
    2.4381  -19.0974   20.5740 C   0  0  0  0  0  0  0  0  0  0  0  0
    1.5223  -20.0063   21.2402 N   0  0  0  0  0  0  0  0  0  0  0  0
    8.1217  -16.8292   21.8404 C   0  0  0  0  0  0  0  0  0  0  0  0
    9.1773  -17.5047   21.7558 O   0  0  0  0  0  0  0  0  0  0  0  0
    8.0755  -15.7862   22.8026 N   0  0  0  0  0  0  0  0  0  0  0  0
    6.9781  -14.8968   23.1298 C   0  0  0  0  0  0  0  0  0  0  0  0
    7.6931  -13.5923   23.4343 C   0  0  0  0  0  0  0  0  0  0  0  0
    9.1503  -13.9040   23.5597 C   0  0  0  0  0  0  0  0  0  0  0  0
    9.1662  -15.4213   23.6691 C   0  0  1  0  0  0  0  0  0  0  0  0
    8.9279  -15.8090   25.0738 C   0  0  0  0  0  0  0  0  0  0  0  0
    7.7751  -16.2096   25.3769 O   0  0  0  0  0  0  0  0  0  0  0  0
    9.8736  -15.7621   26.0665 O   0  0  0  0  0  0  0  0  0  0  0  0
  1  2  1  0
  2  3  1  0
  3  5  1  0
  3  4  1  6
  5  6  2  0
  7  8  1  0
  7  5  1  0
  8 14  1  0
  8  9  1  1
 10  9  1  0
 10 11  1  0
 11 12  1  0
 13 12  1  0
 14 15  2  0
 16 14  1  0
 16 17  1  0
 17 18  1  0
 19 18  1  0
 20 16  1  0
 20 19  1  0
 20 21  1  1
 22 21  2  0
 23 21  1  0
M  END
$$$$
