SKP.pdb
     RDKit          3D

 23 23  0  0  1  0  0  0  0  0999 V2000
   10.4571  -12.8882   19.8361 O   0  0  0  0  0  0  0  0  0  0  0  0
    9.9846  -14.2100   19.9508 C   0  0  0  0  0  0  0  0  0  0  0  0
    8.4686  -14.2102   19.9376 C   0  0  2  0  0  0  0  0  0  0  0  0
    8.0439  -13.0437   19.1804 N   0  0  0  0  0  0  0  0  0  0  0  0
    7.9153  -14.1543   21.3136 C   0  0  0  0  0  0  0  0  0  0  0  0
    7.6103  -13.0688   21.8377 O   0  0  0  0  0  0  0  0  0  0  0  0
    7.7256  -15.3532   22.0558 N   0  0  0  0  0  0  0  0  0  0  0  0
    7.1656  -15.3900   23.3756 C   0  0  1  0  0  0  0  0  0  0  0  0
    6.8489  -16.8347   23.7069 C   0  0  0  0  0  0  0  0  0  0  0  0
    6.0161  -17.4123   22.6039 C   0  0  0  0  0  0  0  0  0  0  0  0
    5.8104  -18.9083   22.7742 C   0  0  0  0  0  0  0  0  0  0  0  0
    4.9753  -19.4873   21.6626 C   0  0  0  0  0  0  0  0  0  0  0  0
    4.9264  -20.9245   21.8638 N   0  0  0  0  0  0  0  0  0  0  0  0
    8.1828  -14.8514   24.3248 C   0  0  0  0  0  0  0  0  0  0  0  0
    9.4058  -14.9024   24.0431 O   0  0  0  0  0  0  0  0  0  0  0  0
    7.8103  -14.2689   25.5648 N   0  0  0  0  0  0  0  0  0  0  0  0
    6.4831  -14.0479   26.1053 C   0  0  0  0  0  0  0  0  0  0  0  0
    6.6441  -12.7295   26.8411 C   0  0  0  0  0  0  0  0  0  0  0  0
    8.1100  -12.4471   26.9296 C   0  0  0  0  0  0  0  0  0  0  0  0
    8.7375  -13.7807   26.5527 C   0  0  1  0  0  0  0  0  0  0  0  0
    8.7972  -14.6442   27.7490 C   0  0  0  0  0  0  0  0  0  0  0  0
    7.9477  -15.5668   27.8410 O   0  0  0  0  0  0  0  0  0  0  0  0
    9.7119  -14.5094   28.7626 O   0  0  0  0  0  0  0  0  0  0  0  0
  1  2  1  0
  2  3  1  0
  3  5  1  0
  3  4  1  6
  5  6  2  0
  7  8  1  0
  7  5  1  0
  8 14  1  0
  8  9  1  1
 10  9  1  0
 10 11  1  0
 11 12  1  0
 13 12  1  0
 14 15  2  0
 16 14  1  0
 16 17  1  0
 17 18  1  0
 19 18  1  0
 20 16  1  0
 20 19  1  0
 20 21  1  1
 22 21  2  0
 23 21  1  0
M  END
$$$$
