SKP.pdb
     RDKit          3D

 23 23  0  0  1  0  0  0  0  0999 V2000
   10.8911  -15.5205   21.4205 O   0  0  0  0  0  0  0  0  0  0  0  0
   10.1103  -15.1125   20.3215 C   0  0  0  0  0  0  0  0  0  0  0  0
    8.7486  -15.7750   20.3924 C   0  0  2  0  0  0  0  0  0  0  0  0
    8.0095  -15.3695   19.2076 N   0  0  0  0  0  0  0  0  0  0  0  0
    8.0127  -15.3700   21.6160 C   0  0  0  0  0  0  0  0  0  0  0  0
    7.4756  -14.2516   21.6998 O   0  0  0  0  0  0  0  0  0  0  0  0
    7.9123  -16.2648   22.7175 N   0  0  0  0  0  0  0  0  0  0  0  0
    7.2701  -15.9313   23.9558 C   0  0  1  0  0  0  0  0  0  0  0  0
    6.8991  -17.2257   24.6513 C   0  0  0  0  0  0  0  0  0  0  0  0
    6.2241  -18.1285   23.6649 C   0  0  0  0  0  0  0  0  0  0  0  0
    6.0187  -19.5260   24.2252 C   0  0  0  0  0  0  0  0  0  0  0  0
    5.3926  -20.4476   23.2117 C   0  0  0  0  0  0  0  0  0  0  0  0
    5.2138  -21.7373   23.8543 N   0  0  0  0  0  0  0  0  0  0  0  0
    8.2385  -15.1562   24.7848 C   0  0  0  0  0  0  0  0  0  0  0  0
    9.4711  -15.2244   24.5535 O   0  0  0  0  0  0  0  0  0  0  0  0
    7.8075  -14.3240   25.8513 N   0  0  0  0  0  0  0  0  0  0  0  0
    6.4561  -13.9987   26.2641 C   0  0  0  0  0  0  0  0  0  0  0  0
    6.5883  -12.5529   26.7087 C   0  0  0  0  0  0  0  0  0  0  0  0
    8.0495  -12.2515   26.8092 C   0  0  0  0  0  0  0  0  0  0  0  0
    8.6867  -13.6320   26.7579 C   0  0  1  0  0  0  0  0  0  0  0  0
    8.6803  -14.2198   28.1125 C   0  0  0  0  0  0  0  0  0  0  0  0
    9.4606  -13.7222   28.9639 O   0  0  0  0  0  0  0  0  0  0  0  0
    7.8850  -15.2668   28.5041 O   0  0  0  0  0  0  0  0  0  0  0  0
  1  2  1  0
  2  3  1  0
  3  5  1  0
  3  4  1  6
  5  6  2  0
  7  8  1  0
  7  5  1  0
  8 14  1  0
  8  9  1  1
 10  9  1  0
 10 11  1  0
 11 12  1  0
 13 12  1  0
 14 15  2  0
 16 14  1  0
 16 17  1  0
 17 18  1  0
 19 18  1  0
 20 16  1  0
 20 19  1  0
 20 21  1  1
 22 21  2  0
 23 21  1  0
M  END
$$$$
