SKP.pdb
     RDKit          3D

 23 23  0  0  1  0  0  0  0  0999 V2000
   10.5003  -14.4274   17.9543 O   0  0  0  0  0  0  0  0  0  0  0  0
    9.5709  -15.2347   17.2700 C   0  0  0  0  0  0  0  0  0  0  0  0
    8.1670  -14.7266   17.5325 C   0  0  2  0  0  0  0  0  0  0  0  0
    8.0867  -13.3806   16.9882 N   0  0  0  0  0  0  0  0  0  0  0  0
    7.8604  -14.7087   18.9845 C   0  0  0  0  0  0  0  0  0  0  0  0
    8.0434  -13.6843   19.6652 O   0  0  0  0  0  0  0  0  0  0  0  0
    7.3489  -15.8741   19.6204 N   0  0  0  0  0  0  0  0  0  0  0  0
    6.9328  -15.9124   20.9924 C   0  0  1  0  0  0  0  0  0  0  0  0
    6.2835  -17.2585   21.2445 C   0  0  0  0  0  0  0  0  0  0  0  0
    4.9670  -17.3015   20.5314 C   0  0  0  0  0  0  0  0  0  0  0  0
    4.2947  -18.6577   20.6657 C   0  0  0  0  0  0  0  0  0  0  0  0
    3.0304  -18.7374   19.8511 C   0  0  0  0  0  0  0  0  0  0  0  0
    2.5324  -20.0970   19.9600 N   0  0  0  0  0  0  0  0  0  0  0  0
    8.1446  -15.7529   21.8479 C   0  0  0  0  0  0  0  0  0  0  0  0
    9.2882  -15.9770   21.3791 O   0  0  0  0  0  0  0  0  0  0  0  0
    8.0506  -15.3470   23.2051 N   0  0  0  0  0  0  0  0  0  0  0  0
    6.8646  -15.1077   24.0043 C   0  0  0  0  0  0  0  0  0  0  0  0
    7.2884  -13.9409   24.8786 C   0  0  0  0  0  0  0  0  0  0  0  0
    8.7701  -13.7963   24.7377 C   0  0  0  0  0  0  0  0  0  0  0  0
    9.1776  -15.0994   24.0667 C   0  0  1  0  0  0  0  0  0  0  0  0
    9.3434  -16.1444   25.0968 C   0  0  0  0  0  0  0  0  0  0  0  0
    8.4056  -16.9695   25.2415 O   0  0  0  0  0  0  0  0  0  0  0  0
   10.4455  -16.2760   25.9030 O   0  0  0  0  0  0  0  0  0  0  0  0
  1  2  1  0
  2  3  1  0
  3  5  1  0
  3  4  1  1
  5  6  2  0
  7  8  1  0
  7  5  1  0
  8 14  1  0
  8  9  1  1
 10  9  1  0
 10 11  1  0
 11 12  1  0
 13 12  1  0
 14 15  2  0
 16 14  1  0
 16 17  1  0
 17 18  1  0
 19 18  1  0
 20 16  1  0
 20 19  1  0
 20 21  1  1
 22 21  2  0
 23 21  1  0
M  END
$$$$
