WIR.pdb
     RDKit          3D

 34 35  0  0  1  0  0  0  0  0999 V2000
    5.1577  -18.2095   22.9100 N   0  0  0  0  0  0  0  0  0  0  0  0
    6.0577  -18.0350   24.0438 C   0  0  1  0  0  0  0  0  0  0  0  0
    6.9697  -19.2440   24.1416 C   0  0  0  0  0  0  0  0  0  0  0  0
    6.2959  -20.2264   25.0205 C   0  0  0  0  0  0  0  0  0  0  0  0
    5.4717  -21.2618   24.6456 C   0  0  0  0  0  0  0  0  0  0  0  0
    5.0442  -21.9240   25.7602 N   0  0  0  0  0  0  0  0  0  0  0  0
    5.5728  -21.3421   26.8416 C   0  0  0  0  0  0  0  0  0  0  0  0
    5.4583  -21.6277   28.1757 C   0  0  0  0  0  0  0  0  0  0  0  0
    6.1477  -20.8289   29.0880 C   0  0  0  0  0  0  0  0  0  0  0  0
    6.9342  -19.7688   28.6768 C   0  0  0  0  0  0  0  0  0  0  0  0
    7.0307  -19.5019   27.3059 C   0  0  0  0  0  0  0  0  0  0  0  0
    6.3547  -20.2847   26.4114 C   0  0  0  0  0  0  0  0  0  0  0  0
    6.7650  -16.7587   24.0532 C   0  0  0  0  0  0  0  0  0  0  0  0
    7.4218  -16.4473   22.9936 O   0  0  0  0  0  0  0  0  0  0  0  0
    5.7399  -12.5392   27.3763 C   0  0  0  0  0  0  0  0  0  0  0  0
    6.2636  -13.1756   26.0945 C   0  0  0  0  0  0  0  0  0  0  0  0
    7.5309  -13.9238   26.3405 C   0  0  2  0  0  0  0  0  0  0  0  0
    8.6213  -12.9809   26.7537 C   0  0  0  0  0  0  0  0  0  0  0  0
    7.9113  -14.8379   25.2012 C   0  0  2  0  0  0  0  0  0  0  0  0
    6.8149  -15.8106   25.1023 N   0  0  0  0  0  0  0  0  0  0  0  0
    9.2117  -15.5096   25.3898 C   0  0  0  0  0  0  0  0  0  0  0  0
    9.3561  -16.3678   26.3004 O   0  0  0  0  0  0  0  0  0  0  0  0
   16.7588  -16.1427   23.5214 N   0  0  0  0  0  0  0  0  0  0  0  0
   16.6339  -17.1281   22.4906 C   0  0  0  0  0  0  0  0  0  0  0  0
   17.6138  -17.9487   22.2882 N   0  0  0  0  0  0  0  0  0  0  0  0
   15.4461  -17.1886   21.7149 N   0  0  0  0  0  0  0  0  0  0  0  0
   14.3609  -16.2429   21.9140 C   0  0  0  0  0  0  0  0  0  0  0  0
   13.5943  -16.5123   23.1599 C   0  0  0  0  0  0  0  0  0  0  0  0
   12.2923  -15.8317   23.3223 C   0  0  0  0  0  0  0  0  0  0  0  0
   11.5011  -16.0968   24.5560 C   0  0  2  0  0  0  0  0  0  0  0  0
   10.3401  -15.2333   24.5778 N   0  0  0  0  0  0  0  0  0  0  0  0
   12.2218  -16.0558   25.8203 C   0  0  0  0  0  0  0  0  0  0  0  0
   12.1515  -14.9996   26.7154 O   0  0  0  0  0  0  0  0  0  0  0  0
   12.9777  -17.0268   26.1699 O   0  0  0  0  0  0  0  0  0  0  0  0
  2  1  1  6
  3  2  1  0
  4  3  1  0
  5  4  2  0
  6  5  1  0
  7 12  2  0
  7  6  1  0
  8  7  1  0
  9  8  2  0
  9 10  1  0
 10 11  2  0
 11 12  1  0
 12  4  1  0
 13  2  1  0
 14 13  2  0
 15 16  1  0
 17 16  1  0
 17 19  1  0
 17 18  1  6
 19 21  1  0
 19 20  1  1
 20 13  1  0
 21 31  1  0
 22 21  2  0
 23 24  1  0
 24 25  2  0
 26 24  1  0
 26 27  1  0
 28 27  1  0
 28 29  1  0
 30 29  1  6
 30 32  1  0
 31 30  1  0
 32 34  2  0
 32 33  1  0
M  END
$$$$
