WIR.pdb
     RDKit          3D

 34 35  0  0  1  0  0  0  0  0999 V2000
    5.5880  -18.1467   24.5534 N   0  0  0  0  0  0  0  0  0  0  0  0
    6.2854  -16.8723   24.4289 C   0  0  1  0  0  0  0  0  0  0  0  0
    6.9110  -16.5185   25.7654 C   0  0  0  0  0  0  0  0  0  0  0  0
    6.4541  -15.1535   26.1111 C   0  0  0  0  0  0  0  0  0  0  0  0
    5.1593  -14.6965   26.1910 C   0  0  0  0  0  0  0  0  0  0  0  0
    5.1681  -13.3728   26.5247 N   0  0  0  0  0  0  0  0  0  0  0  0
    6.4345  -12.9673   26.6623 C   0  0  0  0  0  0  0  0  0  0  0  0
    6.9693  -11.7500   26.9892 C   0  0  0  0  0  0  0  0  0  0  0  0
    8.3572  -11.6319   27.0630 C   0  0  0  0  0  0  0  0  0  0  0  0
    9.1922  -12.7058   26.8160 C   0  0  0  0  0  0  0  0  0  0  0  0
    8.6151  -13.9372   26.4837 C   0  0  0  0  0  0  0  0  0  0  0  0
    7.2545  -14.0531   26.4111 C   0  0  0  0  0  0  0  0  0  0  0  0
    7.2148  -16.8081   23.3057 C   0  0  0  0  0  0  0  0  0  0  0  0
    7.7620  -17.9107   22.9369 O   0  0  0  0  0  0  0  0  0  0  0  0
    7.0410  -12.6494   19.7510 C   0  0  0  0  0  0  0  0  0  0  0  0
    7.0916  -14.0559   20.3353 C   0  0  0  0  0  0  0  0  0  0  0  0
    8.4766  -14.4174   20.7564 C   0  0  2  0  0  0  0  0  0  0  0  0
    9.4245  -14.2823   19.6022 C   0  0  0  0  0  0  0  0  0  0  0  0
    8.5545  -15.7507   21.4595 C   0  0  2  0  0  0  0  0  0  0  0  0
    7.5902  -15.6630   22.5642 N   0  0  0  0  0  0  0  0  0  0  0  0
    9.9060  -16.0837   21.9496 C   0  0  0  0  0  0  0  0  0  0  0  0
   10.4392  -15.3934   22.8582 O   0  0  0  0  0  0  0  0  0  0  0  0
    9.8471  -22.2074   21.4667 N   0  0  0  0  0  0  0  0  0  0  0  0
    9.6842  -22.0442   22.8794 C   0  0  0  0  0  0  0  0  0  0  0  0
    8.5008  -22.1606   23.3899 N   0  0  0  0  0  0  0  0  0  0  0  0
   10.8149  -21.7607   23.6902 N   0  0  0  0  0  0  0  0  0  0  0  0
   11.7148  -20.6626   23.3803 C   0  0  0  0  0  0  0  0  0  0  0  0
   11.3681  -19.9883   22.1006 C   0  0  0  0  0  0  0  0  0  0  0  0
   12.2782  -18.9285   21.6177 C   0  0  0  0  0  0  0  0  0  0  0  0
   11.9648  -17.5129   21.9589 C   0  0  2  0  0  0  0  0  0  0  0  0
   10.6588  -17.1704   21.4383 N   0  0  0  0  0  0  0  0  0  0  0  0
   12.9619  -16.5144   21.6006 C   0  0  0  0  0  0  0  0  0  0  0  0
   13.9093  -16.0182   22.4826 O   0  0  0  0  0  0  0  0  0  0  0  0
   13.0063  -16.0357   20.4153 O   0  0  0  0  0  0  0  0  0  0  0  0
  2  1  1  1
  3  2  1  0
  4  3  1  0
  5  4  2  0
  6  5  1  0
  7 12  2  0
  7  6  1  0
  8  7  1  0
  9  8  2  0
  9 10  1  0
 10 11  2  0
 11 12  1  0
 12  4  1  0
 13  2  1  0
 14 13  2  0
 15 16  1  0
 17 16  1  0
 17 19  1  0
 17 18  1  6
 19 21  1  0
 19 20  1  1
 20 13  1  0
 21 31  1  0
 22 21  2  0
 23 24  1  0
 24 25  2  0
 26 24  1  0
 26 27  1  0
 28 27  1  0
 28 29  1  0
 30 29  1  6
 30 32  1  0
 31 30  1  0
 32 34  2  0
 32 33  1  0
M  END
$$$$
