WIR.pdb
     RDKit          3D

 34 35  0  0  1  0  0  0  0  0999 V2000
    5.7944  -18.0780   24.3699 N   0  0  0  0  0  0  0  0  0  0  0  0
    6.4957  -16.8013   24.3059 C   0  0  1  0  0  0  0  0  0  0  0  0
    7.1800  -16.5460   25.6360 C   0  0  0  0  0  0  0  0  0  0  0  0
    6.5571  -15.3364   26.2198 C   0  0  0  0  0  0  0  0  0  0  0  0
    5.2982  -15.2183   26.7612 C   0  0  0  0  0  0  0  0  0  0  0  0
    5.1046  -13.9321   27.1756 N   0  0  0  0  0  0  0  0  0  0  0  0
    6.2063  -13.2207   26.9157 C   0  0  0  0  0  0  0  0  0  0  0  0
    6.5138  -11.9057   27.1406 C   0  0  0  0  0  0  0  0  0  0  0  0
    7.7727  -11.4426   26.7577 C   0  0  0  0  0  0  0  0  0  0  0  0
    8.7035  -12.2746   26.1639 C   0  0  0  0  0  0  0  0  0  0  0  0
    8.3589  -13.6140   25.9469 C   0  0  0  0  0  0  0  0  0  0  0  0
    7.1248  -14.0681   26.3219 C   0  0  0  0  0  0  0  0  0  0  0  0
    7.3772  -16.6620   23.1513 C   0  0  0  0  0  0  0  0  0  0  0  0
    7.8871  -17.7400   22.6726 O   0  0  0  0  0  0  0  0  0  0  0  0
    7.1246  -12.2545   19.8429 C   0  0  0  0  0  0  0  0  0  0  0  0
    7.1803  -13.7150   20.2744 C   0  0  0  0  0  0  0  0  0  0  0  0
    8.5481  -14.0907   20.7373 C   0  0  2  0  0  0  0  0  0  0  0  0
    9.5553  -13.8230   19.6590 C   0  0  0  0  0  0  0  0  0  0  0  0
    8.6191  -15.4859   21.3085 C   0  0  2  0  0  0  0  0  0  0  0  0
    7.7422  -15.4673   22.4869 N   0  0  0  0  0  0  0  0  0  0  0  0
    9.9870  -15.9122   21.6620 C   0  0  0  0  0  0  0  0  0  0  0  0
   10.5354  -15.4794   22.7101 O   0  0  0  0  0  0  0  0  0  0  0  0
   15.7885  -21.1070   21.9393 N   0  0  0  0  0  0  0  0  0  0  0  0
   14.7026  -21.9125   21.4693 C   0  0  0  0  0  0  0  0  0  0  0  0
   14.4891  -23.0608   22.0263 N   0  0  0  0  0  0  0  0  0  0  0  0
   13.8840  -21.4411   20.4091 N   0  0  0  0  0  0  0  0  0  0  0  0
   14.1545  -20.1765   19.7463 C   0  0  0  0  0  0  0  0  0  0  0  0
   13.7949  -19.0051   20.5895 C   0  0  0  0  0  0  0  0  0  0  0  0
   12.4252  -18.4649   20.4611 C   0  0  0  0  0  0  0  0  0  0  0  0
   12.0657  -17.2474   21.2402 C   0  0  2  0  0  0  0  0  0  0  0  0
   10.7394  -16.8087   20.8625 N   0  0  0  0  0  0  0  0  0  0  0  0
   13.0193  -16.1475   21.2176 C   0  0  0  0  0  0  0  0  0  0  0  0
   13.9819  -15.9399   22.1932 O   0  0  0  0  0  0  0  0  0  0  0  0
   13.0076  -15.2960   20.2631 O   0  0  0  0  0  0  0  0  0  0  0  0
  2  1  1  1
  3  2  1  0
  4  3  1  0
  5  4  2  0
  6  5  1  0
  7 12  2  0
  7  6  1  0
  8  7  1  0
  9  8  2  0
  9 10  1  0
 10 11  2  0
 11 12  1  0
 12  4  1  0
 13  2  1  0
 14 13  2  0
 15 16  1  0
 17 16  1  0
 17 19  1  0
 17 18  1  6
 19 21  1  0
 19 20  1  1
 20 13  1  0
 21 31  1  0
 22 21  2  0
 23 24  1  0
 24 25  2  0
 26 24  1  0
 26 27  1  0
 28 27  1  0
 28 29  1  0
 30 29  1  6
 30 32  1  0
 31 30  1  0
 32 34  2  0
 32 33  1  0
M  END
$$$$
