KSS.pdb
     RDKit          3D

 22 21  0  0  1  0  0  0  0  0999 V2000
    7.3831  -12.7602   17.7278 N   0  0  0  0  0  0  0  0  0  0  0  0
    7.8173  -14.0796   18.2396 C   0  0  1  0  0  0  0  0  0  0  0  0
    8.6046  -14.7079   17.1621 C   0  0  0  0  0  0  0  0  0  0  0  0
    8.0308  -15.8834   16.4652 C   0  0  0  0  0  0  0  0  0  0  0  0
    8.8750  -16.5719   15.4621 C   0  0  0  0  0  0  0  0  0  0  0  0
    8.0465  -17.5989   14.7130 C   0  0  0  0  0  0  0  0  0  0  0  0
    8.8990  -18.3249   13.8075 N   0  0  0  0  0  0  0  0  0  0  0  0
    8.5177  -13.8973   19.5192 C   0  0  0  0  0  0  0  0  0  0  0  0
    9.2119  -12.8941   19.8097 O   0  0  0  0  0  0  0  0  0  0  0  0
    7.0469  -15.0945   22.9473 O   0  0  0  0  0  0  0  0  0  0  0  0
    8.0661  -14.1486   22.7933 C   0  0  0  0  0  0  0  0  0  0  0  0
    9.1009  -14.6624   21.8192 C   0  0  2  0  0  0  0  0  0  0  0  0
    8.4572  -14.8940   20.5626 N   0  0  0  0  0  0  0  0  0  0  0  0
    9.7460  -15.9132   22.3473 C   0  0  0  0  0  0  0  0  0  0  0  0
    9.1223  -16.9772   22.2233 O   0  0  0  0  0  0  0  0  0  0  0  0
   13.2683  -15.5350   24.3737 O   0  0  0  0  0  0  0  0  0  0  0  0
   13.0741  -16.7899   23.7830 C   0  0  0  0  0  0  0  0  0  0  0  0
   11.6190  -17.0811   23.5610 C   0  0  2  0  0  0  0  0  0  0  0  0
   11.0182  -15.8908   22.9655 N   0  0  0  0  0  0  0  0  0  0  0  0
   11.0008  -17.3768   24.8822 C   0  0  0  0  0  0  0  0  0  0  0  0
   11.3258  -18.5326   25.5768 O   0  0  0  0  0  0  0  0  0  0  0  0
   10.1707  -16.5958   25.4081 O   0  0  0  0  0  0  0  0  0  0  0  0
  2  1  1  6
  2  3  1  0
  2  8  1  0
  3  4  1  0
  5  6  1  0
  5  4  1  0
  6  7  1  0
  8  9  2  0
 11 10  1  0
 12 11  1  1
 13  8  1  0
 13 12  1  0
 14 12  1  0
 14 19  1  0
 15 14  2  0
 16 17  1  0
 18 19  1  0
 18 17  1  1
 20 18  1  0
 20 21  1  0
 22 20  2  0
M  END
$$$$
