KSS.pdb
     RDKit          3D

 22 21  0  0  1  0  0  0  0  0999 V2000
    5.9131  -19.4638   20.5119 N   0  0  0  0  0  0  0  0  0  0  0  0
    5.6797  -19.5867   21.9684 C   0  0  1  0  0  0  0  0  0  0  0  0
    5.2973  -20.9899   22.2139 C   0  0  0  0  0  0  0  0  0  0  0  0
    4.7346  -21.7731   21.0884 C   0  0  0  0  0  0  0  0  0  0  0  0
    4.3945  -23.1928   21.3365 C   0  0  0  0  0  0  0  0  0  0  0  0
    3.1865  -23.2783   22.2507 C   0  0  0  0  0  0  0  0  0  0  0  0
    2.7754  -24.6538   22.3639 N   0  0  0  0  0  0  0  0  0  0  0  0
    6.8682  -19.1128   22.6922 C   0  0  0  0  0  0  0  0  0  0  0  0
    8.0461  -19.2457   22.2830 O   0  0  0  0  0  0  0  0  0  0  0  0
    6.3688  -16.7918   26.0181 O   0  0  0  0  0  0  0  0  0  0  0  0
    7.5463  -16.6174   25.2830 C   0  0  0  0  0  0  0  0  0  0  0  0
    7.9256  -17.9138   24.6054 C   0  0  2  0  0  0  0  0  0  0  0  0
    6.7596  -18.4438   23.9675 N   0  0  0  0  0  0  0  0  0  0  0  0
    8.4966  -18.8821   25.6033 C   0  0  0  0  0  0  0  0  0  0  0  0
    7.7250  -19.7137   26.1029 O   0  0  0  0  0  0  0  0  0  0  0  0
   12.1232  -20.3667   25.2567 O   0  0  0  0  0  0  0  0  0  0  0  0
   11.9075  -19.9335   26.5710 C   0  0  0  0  0  0  0  0  0  0  0  0
   10.4450  -19.8284   26.8892 C   0  0  2  0  0  0  0  0  0  0  0  0
    9.8633  -18.8563   25.9678 N   0  0  0  0  0  0  0  0  0  0  0  0
   10.3114  -19.3635   28.2968 C   0  0  0  0  0  0  0  0  0  0  0  0
   10.7106  -20.1692   29.3529 O   0  0  0  0  0  0  0  0  0  0  0  0
    9.8363  -18.2348   28.5731 O   0  0  0  0  0  0  0  0  0  0  0  0
  2  1  1  6
  2  3  1  0
  2  8  1  0
  3  4  1  0
  5  6  1  0
  5  4  1  0
  6  7  1  0
  8  9  2  0
 11 10  1  0
 12 11  1  1
 13  8  1  0
 13 12  1  0
 14 12  1  0
 14 19  1  0
 15 14  2  0
 16 17  1  0
 18 19  1  0
 18 17  1  6
 20 18  1  0
 20 21  1  0
 22 20  2  0
M  END
$$$$
