KSS.pdb
     RDKit          3D

 22 21  0  0  1  0  0  0  0  0999 V2000
    9.3182  -19.4000   18.1019 N   0  0  0  0  0  0  0  0  0  0  0  0
   10.5251  -18.6707   17.6518 C   0  0  1  0  0  0  0  0  0  0  0  0
   10.1710  -18.0240   16.3742 C   0  0  0  0  0  0  0  0  0  0  0  0
    8.7365  -17.8965   16.0240 C   0  0  0  0  0  0  0  0  0  0  0  0
    8.2913  -18.4459   14.7230 C   0  0  0  0  0  0  0  0  0  0  0  0
    6.8398  -18.0766   14.4802 C   0  0  0  0  0  0  0  0  0  0  0  0
    6.4709  -18.4623   13.1427 N   0  0  0  0  0  0  0  0  0  0  0  0
   10.9739  -17.7679   18.7216 C   0  0  0  0  0  0  0  0  0  0  0  0
   11.9774  -17.0200   18.6424 O   0  0  0  0  0  0  0  0  0  0  0  0
    9.2958  -17.7397   22.6529 O   0  0  0  0  0  0  0  0  0  0  0  0
    9.6024  -16.5555   21.9739 C   0  0  0  0  0  0  0  0  0  0  0  0
   10.7375  -16.7977   21.0060 C   0  0  2  0  0  0  0  0  0  0  0  0
   10.2710  -17.6792   19.9801 N   0  0  0  0  0  0  0  0  0  0  0  0
   11.9289  -17.3678   21.7236 C   0  0  0  0  0  0  0  0  0  0  0  0
   12.1058  -18.5930   21.6590 O   0  0  0  0  0  0  0  0  0  0  0  0
   15.5390  -15.5330   22.3022 O   0  0  0  0  0  0  0  0  0  0  0  0
   14.9021  -15.9658   23.4719 C   0  0  0  0  0  0  0  0  0  0  0  0
   13.9496  -17.0933   23.2023 C   0  0  2  0  0  0  0  0  0  0  0  0
   12.8237  -16.5472   22.4497 N   0  0  0  0  0  0  0  0  0  0  0  0
   13.4934  -17.6350   24.5114 C   0  0  0  0  0  0  0  0  0  0  0  0
   14.3379  -18.4080   25.2944 O   0  0  0  0  0  0  0  0  0  0  0  0
   12.3375  -17.4120   24.9472 O   0  0  0  0  0  0  0  0  0  0  0  0
  2  1  1  1
  2  3  1  0
  2  8  1  0
  3  4  1  0
  5  6  1  0
  5  4  1  0
  6  7  1  0
  8  9  2  0
 11 10  1  0
 12 11  1  1
 13  8  1  0
 13 12  1  0
 14 12  1  0
 14 19  1  0
 15 14  2  0
 16 17  1  0
 18 19  1  0
 18 17  1  1
 20 18  1  0
 20 21  1  0
 22 20  2  0
M  END
$$$$
