KSS.pdb
     RDKit          3D

 22 21  0  0  1  0  0  0  0  0999 V2000
    8.5280  -23.3710   19.4043 N   0  0  0  0  0  0  0  0  0  0  0  0
    9.8172  -22.9166   18.8362 C   0  0  1  0  0  0  0  0  0  0  0  0
    9.5215  -22.4043   17.4850 C   0  0  0  0  0  0  0  0  0  0  0  0
    8.9244  -23.3324   16.4957 C   0  0  0  0  0  0  0  0  0  0  0  0
    8.7471  -22.8438   15.1092 C   0  0  0  0  0  0  0  0  0  0  0  0
    8.0863  -23.9192   14.2671 C   0  0  0  0  0  0  0  0  0  0  0  0
    7.9198  -23.4315   12.9224 N   0  0  0  0  0  0  0  0  0  0  0  0
   10.4437  -21.9591   19.7591 C   0  0  0  0  0  0  0  0  0  0  0  0
   10.2989  -20.7151   19.6946 O   0  0  0  0  0  0  0  0  0  0  0  0
   11.2507  -22.8561   23.5047 O   0  0  0  0  0  0  0  0  0  0  0  0
   11.2404  -21.5309   23.0565 C   0  0  0  0  0  0  0  0  0  0  0  0
   11.9123  -21.4402   21.7059 C   0  0  2  0  0  0  0  0  0  0  0  0
   11.3004  -22.3974   20.8360 N   0  0  0  0  0  0  0  0  0  0  0  0
   13.3906  -21.6789   21.8360 C   0  0  0  0  0  0  0  0  0  0  0  0
   13.7937  -22.8476   21.7454 O   0  0  0  0  0  0  0  0  0  0  0  0
   17.8217  -19.7285   21.7811 O   0  0  0  0  0  0  0  0  0  0  0  0
   16.4318  -19.5643   21.8321 C   0  0  0  0  0  0  0  0  0  0  0  0
   15.7347  -20.8372   22.2129 C   0  0  2  0  0  0  0  0  0  0  0  0
   14.2999  -20.6173   22.0540 N   0  0  0  0  0  0  0  0  0  0  0  0
   16.0662  -21.1379   23.6324 C   0  0  0  0  0  0  0  0  0  0  0  0
   17.1489  -21.9426   23.9548 O   0  0  0  0  0  0  0  0  0  0  0  0
   15.3818  -20.6766   24.5783 O   0  0  0  0  0  0  0  0  0  0  0  0
  2  1  1  1
  2  3  1  0
  2  8  1  0
  3  4  1  0
  5  6  1  0
  5  4  1  0
  6  7  1  0
  8  9  2  0
 11 10  1  0
 12 11  1  1
 13  8  1  0
 13 12  1  0
 14 12  1  0
 14 19  1  0
 15 14  2  0
 16 17  1  0
 18 19  1  0
 18 17  1  1
 20 18  1  0
 20 21  1  0
 22 20  2  0
M  END
$$$$
