KSS.pdb
     RDKit          3D

 22 21  0  0  1  0  0  0  0  0999 V2000
    8.3176  -18.0297   18.7272 N   0  0  0  0  0  0  0  0  0  0  0  0
    9.5426  -17.4567   18.1254 C   0  0  1  0  0  0  0  0  0  0  0  0
    9.1197  -16.7670   16.8921 C   0  0  0  0  0  0  0  0  0  0  0  0
    8.3950  -17.5484   15.8621 C   0  0  0  0  0  0  0  0  0  0  0  0
    7.1170  -18.1870   16.2514 C   0  0  0  0  0  0  0  0  0  0  0  0
    6.4346  -18.7591   15.0229 C   0  0  0  0  0  0  0  0  0  0  0  0
    5.1459  -19.2811   15.3976 N   0  0  0  0  0  0  0  0  0  0  0  0
   10.2275  -16.6206   19.1218 C   0  0  0  0  0  0  0  0  0  0  0  0
   11.1900  -15.8586   18.8653 O   0  0  0  0  0  0  0  0  0  0  0  0
    9.0078  -16.2875   23.2184 O   0  0  0  0  0  0  0  0  0  0  0  0
    9.6065  -15.2728   22.4639 C   0  0  0  0  0  0  0  0  0  0  0  0
   10.5779  -15.8736   21.4744 C   0  0  2  0  0  0  0  0  0  0  0  0
    9.8305  -16.6212   20.5103 N   0  0  0  0  0  0  0  0  0  0  0  0
   11.5843  -16.7369   22.1824 C   0  0  0  0  0  0  0  0  0  0  0  0
   11.2835  -17.9226   22.3831 O   0  0  0  0  0  0  0  0  0  0  0  0
   15.0910  -15.0215   23.4617 O   0  0  0  0  0  0  0  0  0  0  0  0
   15.1531  -16.3861   23.1528 C   0  0  0  0  0  0  0  0  0  0  0  0
   13.8174  -17.0523   23.3047 C   0  0  2  0  0  0  0  0  0  0  0  0
   12.8331  -16.2276   22.6094 N   0  0  0  0  0  0  0  0  0  0  0  0
   13.5039  -17.1319   24.7575 C   0  0  0  0  0  0  0  0  0  0  0  0
   14.2497  -17.9402   25.6027 O   0  0  0  0  0  0  0  0  0  0  0  0
   12.5610  -16.4749   25.2626 O   0  0  0  0  0  0  0  0  0  0  0  0
  2  1  1  1
  2  3  1  0
  2  8  1  0
  3  4  1  0
  5  6  1  0
  5  4  1  0
  6  7  1  0
  8  9  2  0
 11 10  1  0
 12 11  1  1
 13  8  1  0
 13 12  1  0
 14 12  1  0
 14 19  1  0
 15 14  2  0
 16 17  1  0
 18 19  1  0
 18 17  1  1
 20 18  1  0
 20 21  1  0
 22 20  2  0
M  END
$$$$
