KSS.pdb
     RDKit          3D

 22 21  0  0  1  0  0  0  0  0999 V2000
    8.0884  -17.5873   20.3861 N   0  0  0  0  0  0  0  0  0  0  0  0
    8.9348  -16.5180   20.9616 C   0  0  1  0  0  0  0  0  0  0  0  0
    8.4851  -15.2536   20.3497 C   0  0  0  0  0  0  0  0  0  0  0  0
    8.5213  -15.1347   18.8727 C   0  0  0  0  0  0  0  0  0  0  0  0
    8.0479  -13.8678   18.2698 C   0  0  0  0  0  0  0  0  0  0  0  0
    8.2299  -13.9171   16.7642 C   0  0  0  0  0  0  0  0  0  0  0  0
    7.7129  -12.7042   16.1852 N   0  0  0  0  0  0  0  0  0  0  0  0
    8.8628  -16.5785   22.4286 C   0  0  0  0  0  0  0  0  0  0  0  0
    7.8106  -16.4222   23.0928 O   0  0  0  0  0  0  0  0  0  0  0  0
   12.1331  -17.8179   24.7791 O   0  0  0  0  0  0  0  0  0  0  0  0
   10.7996  -18.0709   25.1180 C   0  0  0  0  0  0  0  0  0  0  0  0
    9.9264  -16.9271   24.6564 C   0  0  2  0  0  0  0  0  0  0  0  0
   10.0362  -16.8257   23.2334 N   0  0  0  0  0  0  0  0  0  0  0  0
   10.3324  -15.6481   25.3336 C   0  0  0  0  0  0  0  0  0  0  0  0
   11.2741  -15.0109   24.8398 O   0  0  0  0  0  0  0  0  0  0  0  0
    7.8352  -13.5726   27.4672 O   0  0  0  0  0  0  0  0  0  0  0  0
    9.1087  -13.0090   27.3199 C   0  0  0  0  0  0  0  0  0  0  0  0
   10.1805  -14.0583   27.2816 C   0  0  2  0  0  0  0  0  0  0  0  0
    9.6724  -15.1772   26.4928 N   0  0  0  0  0  0  0  0  0  0  0  0
   10.4587  -14.4849   28.6801 C   0  0  0  0  0  0  0  0  0  0  0  0
   10.3312  -15.8136   29.0571 O   0  0  0  0  0  0  0  0  0  0  0  0
   10.8155  -13.6624   29.5587 O   0  0  0  0  0  0  0  0  0  0  0  0
  2  1  1  6
  2  3  1  0
  2  8  1  0
  3  4  1  0
  5  6  1  0
  5  4  1  0
  6  7  1  0
  8  9  2  0
 11 10  1  0
 12 11  1  1
 13  8  1  0
 13 12  1  0
 14 12  1  0
 14 19  1  0
 15 14  2  0
 16 17  1  0
 18 19  1  0
 18 17  1  1
 20 18  1  0
 20 21  1  0
 22 20  2  0
M  END
$$$$
