DYL.pdb
     RDKit          3D

 29 29  0  0  1  0  0  0  0  0999 V2000
   21.4899  -12.1366  -18.9465 N   0  0  0  0  0  0  0  0  0  0  0  0
   22.1746  -11.0876  -18.2172 C   0  0  1  0  0  0  0  0  0  0  0  0
   23.0768  -10.3591  -19.1940 C   0  0  0  0  0  0  0  0  0  0  0  0
   24.3174  -11.1161  -19.4568 C   0  0  0  0  0  0  0  0  0  0  0  0
   24.6137  -12.2088  -18.9454 O   0  0  0  0  0  0  0  0  0  0  0  0
   21.1781  -10.1414  -17.6649 C   0  0  0  0  0  0  0  0  0  0  0  0
   20.3353   -9.5664  -18.3849 O   0  0  0  0  0  0  0  0  0  0  0  0
   25.2309  -10.5610  -20.3508 O   0  0  0  0  0  0  0  0  0  0  0  0
   15.6359  -13.5042  -16.1022 O   0  0  0  0  0  0  0  0  0  0  0  0
   16.5955  -12.5918  -15.7019 C   0  0  0  0  0  0  0  0  0  0  0  0
   17.8635  -12.9566  -15.3110 C   0  0  0  0  0  0  0  0  0  0  0  0
   18.8023  -12.0267  -14.9161 C   0  0  0  0  0  0  0  0  0  0  0  0
   18.5054  -10.6979  -14.8983 C   0  0  0  0  0  0  0  0  0  0  0  0
   19.4421   -9.6304  -14.4924 C   0  0  0  0  0  0  0  0  0  0  0  0
   20.1810   -9.0093  -15.6387 C   0  0  2  0  0  0  0  0  0  0  0  0
   21.1314   -9.8386  -16.2763 N   0  0  0  0  0  0  0  0  0  0  0  0
   20.8600   -7.7959  -15.1170 C   0  0  0  0  0  0  0  0  0  0  0  0
   22.0510   -7.9020  -14.7408 O   0  0  0  0  0  0  0  0  0  0  0  0
   17.2341  -10.3165  -15.2888 C   0  0  0  0  0  0  0  0  0  0  0  0
   16.2768  -11.2464  -15.6899 C   0  0  0  0  0  0  0  0  0  0  0  0
   24.0179   -4.1909  -16.8855 C   0  0  0  0  0  0  0  0  0  0  0  0
   22.9888   -4.1026  -15.7946 C   0  0  1  0  0  0  0  0  0  0  0  0
   22.3700   -2.7173  -15.8011 C   0  0  0  0  0  0  0  0  0  0  0  0
   22.0336   -5.1989  -15.7131 C   0  0  0  0  0  0  0  0  0  0  0  0
   21.0012   -5.2954  -14.6766 C   0  0  2  0  0  0  0  0  0  0  0  0
   20.2467   -6.5385  -15.0205 N   0  0  0  0  0  0  0  0  0  0  0  0
   20.0090   -4.2517  -14.5247 C   0  0  0  0  0  0  0  0  0  0  0  0
   20.2522   -3.2227  -13.8140 O   0  0  0  0  0  0  0  0  0  0  0  0
   18.7305   -4.2249  -15.1030 O   0  0  0  0  0  0  0  0  0  0  0  0
  2  1  1  6
  3  2  1  0
  4  3  1  0
  5  4  2  0
  6  2  1  0
  7  6  2  0
  8  4  1  0
  9 10  1  0
 10 11  2  0
 11 12  1  0
 13 12  2  0
 13 14  1  0
 15 14  1  1
 15 17  1  0
 15 16  1  0
 16  6  1  0
 17 18  2  0
 19 13  1  0
 20 10  1  0
 20 19  2  0
 22 21  1  6
 23 22  1  0
 24 22  1  0
 25 24  1  6
 26 25  1  0
 26 17  1  0
 27 25  1  0
 27 29  1  0
 28 27  2  0
M  END
$$$$
