DYL.pdb
     RDKit          3D

 29 29  0  0  1  0  0  0  0  0999 V2000
   21.5225   -9.2570  -18.1981 N   0  0  0  0  0  0  0  0  0  0  0  0
   22.2263   -7.9968  -18.0657 C   0  0  1  0  0  0  0  0  0  0  0  0
   22.4578   -7.4482  -19.4600 C   0  0  0  0  0  0  0  0  0  0  0  0
   23.4094   -8.2823  -20.2215 C   0  0  0  0  0  0  0  0  0  0  0  0
   24.3913   -8.8722  -19.7408 O   0  0  0  0  0  0  0  0  0  0  0  0
   21.3932   -7.0469  -17.2929 C   0  0  0  0  0  0  0  0  0  0  0  0
   20.1749   -6.8928  -17.5194 O   0  0  0  0  0  0  0  0  0  0  0  0
   23.1894   -8.4199  -21.5907 O   0  0  0  0  0  0  0  0  0  0  0  0
   17.6356   -9.9206  -12.5285 O   0  0  0  0  0  0  0  0  0  0  0  0
   18.4740   -8.8821  -12.8921 C   0  0  0  0  0  0  0  0  0  0  0  0
   18.0316   -7.7471  -13.5323 C   0  0  0  0  0  0  0  0  0  0  0  0
   18.8886   -6.7256  -13.8842 C   0  0  0  0  0  0  0  0  0  0  0  0
   20.2197   -6.8034  -13.6078 C   0  0  0  0  0  0  0  0  0  0  0  0
   21.2125   -5.7629  -13.9443 C   0  0  0  0  0  0  0  0  0  0  0  0
   21.2244   -5.3882  -15.3952 C   0  0  2  0  0  0  0  0  0  0  0  0
   21.9440   -6.2572  -16.2464 N   0  0  0  0  0  0  0  0  0  0  0  0
   21.7981   -4.0217  -15.4906 C   0  0  0  0  0  0  0  0  0  0  0  0
   23.0213   -3.8777  -15.2577 O   0  0  0  0  0  0  0  0  0  0  0  0
   20.6787   -7.9389  -12.9644 C   0  0  0  0  0  0  0  0  0  0  0  0
   19.8229   -8.9779  -12.6037 C   0  0  0  0  0  0  0  0  0  0  0  0
   24.6069   -1.0750  -18.5282 C   0  0  0  0  0  0  0  0  0  0  0  0
   23.5413   -0.6729  -17.5484 C   0  0  1  0  0  0  0  0  0  0  0  0
   22.7820    0.5208  -18.0967 C   0  0  0  0  0  0  0  0  0  0  0  0
   22.7035   -1.7430  -17.0250 C   0  0  0  0  0  0  0  0  0  0  0  0
   21.6701   -1.5349  -16.0061 C   0  0  2  0  0  0  0  0  0  0  0  0
   21.0514   -2.8830  -15.8259 N   0  0  0  0  0  0  0  0  0  0  0  0
   20.5747   -0.6180  -16.2435 C   0  0  0  0  0  0  0  0  0  0  0  0
   20.7030    0.6253  -15.9967 O   0  0  0  0  0  0  0  0  0  0  0  0
   19.3070   -0.9453  -16.7491 O   0  0  0  0  0  0  0  0  0  0  0  0
  2  1  1  6
  3  2  1  0
  4  3  1  0
  5  4  2  0
  6  2  1  0
  7  6  2  0
  8  4  1  0
  9 10  1  0
 10 11  2  0
 11 12  1  0
 13 12  2  0
 13 14  1  0
 15 14  1  1
 15 17  1  0
 15 16  1  0
 16  6  1  0
 17 18  2  0
 19 13  1  0
 20 10  1  0
 20 19  2  0
 22 21  1  6
 23 22  1  0
 24 22  1  0
 25 24  1  6
 26 25  1  0
 26 17  1  0
 27 25  1  0
 27 29  1  0
 28 27  2  0
M  END
$$$$
