DYL.pdb
     RDKit          3D

 29 29  0  0  1  0  0  0  0  0999 V2000
   22.9179   -8.9196  -18.8703 N   0  0  0  0  0  0  0  0  0  0  0  0
   23.9988   -8.4045  -18.0534 C   0  0  1  0  0  0  0  0  0  0  0  0
   25.3048   -8.7730  -18.7295 C   0  0  0  0  0  0  0  0  0  0  0  0
   25.5560  -10.2272  -18.6711 C   0  0  0  0  0  0  0  0  0  0  0  0
   25.3052  -10.9608  -17.7004 O   0  0  0  0  0  0  0  0  0  0  0  0
   23.8878   -6.9304  -17.9630 C   0  0  0  0  0  0  0  0  0  0  0  0
   23.3970   -6.2420  -18.8820 O   0  0  0  0  0  0  0  0  0  0  0  0
   26.1203  -10.8269  -19.7954 O   0  0  0  0  0  0  0  0  0  0  0  0
   17.8787   -4.7337  -15.7331 O   0  0  0  0  0  0  0  0  0  0  0  0
   19.2563   -4.6968  -15.6130 C   0  0  0  0  0  0  0  0  0  0  0  0
   19.9792   -5.6593  -14.9461 C   0  0  0  0  0  0  0  0  0  0  0  0
   21.3530   -5.5991  -14.8406 C   0  0  0  0  0  0  0  0  0  0  0  0
   22.0526   -4.5730  -15.3990 C   0  0  0  0  0  0  0  0  0  0  0  0
   23.5208   -4.4233  -15.3393 C   0  0  0  0  0  0  0  0  0  0  0  0
   24.2196   -4.8287  -16.6015 C   0  0  2  0  0  0  0  0  0  0  0  0
   24.3381   -6.2206  -16.8161 N   0  0  0  0  0  0  0  0  0  0  0  0
   25.5740   -4.2202  -16.5679 C   0  0  0  0  0  0  0  0  0  0  0  0
   26.2883   -4.4258  -15.5587 O   0  0  0  0  0  0  0  0  0  0  0  0
   21.3389   -3.5980  -16.0726 C   0  0  0  0  0  0  0  0  0  0  0  0
   19.9508   -3.6474  -16.1862 C   0  0  0  0  0  0  0  0  0  0  0  0
   29.0731   -4.8409  -20.5701 C   0  0  0  0  0  0  0  0  0  0  0  0
   28.4933   -4.6320  -19.2000 C   0  0  1  0  0  0  0  0  0  0  0  0
   29.4093   -5.2620  -18.1675 C   0  0  0  0  0  0  0  0  0  0  0  0
   28.0498   -3.2818  -18.8818 C   0  0  0  0  0  0  0  0  0  0  0  0
   27.4972   -2.8991  -17.5788 C   0  0  2  0  0  0  0  0  0  0  0  0
   26.1003   -3.4290  -17.5993 N   0  0  0  0  0  0  0  0  0  0  0  0
   27.3930   -1.5045  -17.2030 C   0  0  0  0  0  0  0  0  0  0  0  0
   26.2819   -0.8880  -17.2960 O   0  0  0  0  0  0  0  0  0  0  0  0
   28.4272   -0.6929  -16.7120 O   0  0  0  0  0  0  0  0  0  0  0  0
  2  1  1  6
  3  2  1  0
  4  3  1  0
  5  4  2  0
  6  2  1  0
  7  6  2  0
  8  4  1  0
  9 10  1  0
 10 11  2  0
 11 12  1  0
 13 12  2  0
 13 14  1  0
 15 14  1  1
 15 17  1  0
 15 16  1  0
 16  6  1  0
 17 18  2  0
 19 13  1  0
 20 10  1  0
 20 19  2  0
 22 21  1  6
 23 22  1  0
 24 22  1  0
 25 24  1  6
 26 25  1  0
 26 17  1  0
 27 25  1  0
 27 29  1  0
 28 27  2  0
M  END
$$$$
