DYL.pdb
     RDKit          3D

 29 29  0  0  1  0  0  0  0  0999 V2000
   42.3563  -11.4054   -9.4268 N   0  0  0  0  0  0  0  0  0  0  0  0
   42.2117  -10.6856  -10.6766 C   0  0  1  0  0  0  0  0  0  0  0  0
   42.7415  -11.5738  -11.7852 C   0  0  0  0  0  0  0  0  0  0  0  0
   44.2076  -11.7312  -11.7021 C   0  0  0  0  0  0  0  0  0  0  0  0
   44.8338  -12.7724  -11.9608 O   0  0  0  0  0  0  0  0  0  0  0  0
   40.7787  -10.3981  -10.9158 C   0  0  0  0  0  0  0  0  0  0  0  0
   39.9293  -11.3050  -11.0403 O   0  0  0  0  0  0  0  0  0  0  0  0
   44.9506  -10.6225  -11.3009 O   0  0  0  0  0  0  0  0  0  0  0  0
   37.5247  -11.4022   -5.3725 O   0  0  0  0  0  0  0  0  0  0  0  0
   37.7134  -10.5785   -6.4676 C   0  0  0  0  0  0  0  0  0  0  0  0
   36.8106  -10.4835   -7.5019 C   0  0  0  0  0  0  0  0  0  0  0  0
   37.0226   -9.6541   -8.5831 C   0  0  0  0  0  0  0  0  0  0  0  0
   38.1463   -8.8897   -8.6679 C   0  0  0  0  0  0  0  0  0  0  0  0
   38.4601   -7.9735   -9.7831 C   0  0  0  0  0  0  0  0  0  0  0  0
   38.9378   -8.6715  -11.0202 C   0  0  2  0  0  0  0  0  0  0  0  0
   40.2953   -9.0646  -11.0163 N   0  0  0  0  0  0  0  0  0  0  0  0
   38.6958   -7.7540  -12.1627 C   0  0  0  0  0  0  0  0  0  0  0  0
   39.6699   -7.1110  -12.6196 O   0  0  0  0  0  0  0  0  0  0  0  0
   39.0629   -8.9750   -7.6352 C   0  0  0  0  0  0  0  0  0  0  0  0
   38.8602   -9.8092   -6.5374 C   0  0  0  0  0  0  0  0  0  0  0  0
   34.4094   -8.7515  -15.6839 C   0  0  0  0  0  0  0  0  0  0  0  0
   35.7768   -8.4588  -15.1347 C   0  0  1  0  0  0  0  0  0  0  0  0
   36.8223   -8.8375  -16.1669 C   0  0  0  0  0  0  0  0  0  0  0  0
   35.9649   -7.1496  -14.5251 C   0  0  0  0  0  0  0  0  0  0  0  0
   37.2399   -6.6974  -13.9600 C   0  0  2  0  0  0  0  0  0  0  0  0
   37.4412   -7.5648  -12.7601 N   0  0  0  0  0  0  0  0  0  0  0  0
   37.4008   -5.3332  -13.5017 C   0  0  0  0  0  0  0  0  0  0  0  0
   37.1603   -5.0225  -12.2898 O   0  0  0  0  0  0  0  0  0  0  0  0
   37.8205   -4.2379  -14.2722 O   0  0  0  0  0  0  0  0  0  0  0  0
  2  1  1  1
  3  2  1  0
  4  3  1  0
  5  4  2  0
  6  2  1  0
  7  6  2  0
  8  4  1  0
  9 10  1  0
 10 11  2  0
 11 12  1  0
 13 12  2  0
 13 14  1  0
 15 14  1  1
 15 17  1  0
 15 16  1  0
 16  6  1  0
 17 18  2  0
 19 13  1  0
 20 10  1  0
 20 19  2  0
 22 21  1  6
 23 22  1  0
 24 22  1  0
 25 24  1  1
 26 25  1  0
 26 17  1  0
 27 25  1  0
 27 29  1  0
 28 27  2  0
M  END
$$$$
