DYL.pdb
     RDKit          3D

 29 29  0  0  1  0  0  0  0  0999 V2000
   25.4316  -20.1563  -15.0958 N   0  0  0  0  0  0  0  0  0  0  0  0
   26.3078  -20.7279  -14.0925 C   0  0  1  0  0  0  0  0  0  0  0  0
   27.7266  -20.3105  -14.4263 C   0  0  0  0  0  0  0  0  0  0  0  0
   28.2775  -21.1023  -15.5447 C   0  0  0  0  0  0  0  0  0  0  0  0
   27.6473  -21.9421  -16.2088 O   0  0  0  0  0  0  0  0  0  0  0  0
   25.9384  -20.2006  -12.7588 C   0  0  0  0  0  0  0  0  0  0  0  0
   25.7736  -18.9809  -12.5472 O   0  0  0  0  0  0  0  0  0  0  0  0
   29.6126  -20.8916  -15.8839 O   0  0  0  0  0  0  0  0  0  0  0  0
   19.4338  -18.9840  -12.5362 O   0  0  0  0  0  0  0  0  0  0  0  0
   20.5246  -19.5293  -11.8834 C   0  0  0  0  0  0  0  0  0  0  0  0
   20.9434  -19.1121  -10.6407 C   0  0  0  0  0  0  0  0  0  0  0  0
   22.0349  -19.6726  -10.0112 C   0  0  0  0  0  0  0  0  0  0  0  0
   22.7467  -20.6712  -10.6031 C   0  0  0  0  0  0  0  0  0  0  0  0
   23.9263  -21.3319  -10.0086 C   0  0  0  0  0  0  0  0  0  0  0  0
   25.2284  -20.6928  -10.3850 C   0  0  2  0  0  0  0  0  0  0  0  0
   25.7515  -21.0639  -11.6444 N   0  0  0  0  0  0  0  0  0  0  0  0
   26.2094  -21.0385   -9.3249 C   0  0  0  0  0  0  0  0  0  0  0  0
   26.7694  -22.1585   -9.3818 O   0  0  0  0  0  0  0  0  0  0  0  0
   22.3371  -21.1009  -11.8527 C   0  0  0  0  0  0  0  0  0  0  0  0
   21.2360  -20.5426  -12.4992 C   0  0  0  0  0  0  0  0  0  0  0  0
   30.0580  -20.2656   -5.3410 C   0  0  0  0  0  0  0  0  0  0  0  0
   28.7733  -19.4869   -5.3320 C   0  0  1  0  0  0  0  0  0  0  0  0
   29.0280  -18.1077   -4.7531 C   0  0  0  0  0  0  0  0  0  0  0  0
   27.9980  -19.4993   -6.5648 C   0  0  0  0  0  0  0  0  0  0  0  0
   27.2395  -20.6644   -7.0303 C   0  0  2  0  0  0  0  0  0  0  0  0
   26.5458  -20.1854   -8.2640 N   0  0  0  0  0  0  0  0  0  0  0  0
   26.2145  -21.2579   -6.1972 C   0  0  0  0  0  0  0  0  0  0  0  0
   25.0023  -20.8766   -6.2879 O   0  0  0  0  0  0  0  0  0  0  0  0
   26.3975  -22.2703   -5.2426 O   0  0  0  0  0  0  0  0  0  0  0  0
  2  1  1  6
  3  2  1  0
  4  3  1  0
  5  4  2  0
  6  2  1  0
  7  6  2  0
  8  4  1  0
  9 10  1  0
 10 11  2  0
 11 12  1  0
 13 12  2  0
 13 14  1  0
 15 14  1  1
 15 17  1  0
 15 16  1  0
 16  6  1  0
 17 18  2  0
 19 13  1  0
 20 10  1  0
 20 19  2  0
 22 21  1  6
 23 22  1  0
 24 22  1  0
 25 24  1  1
 26 25  1  0
 26 17  1  0
 27 25  1  0
 27 29  1  0
 28 27  2  0
M  END
$$$$
