DYL.pdb
     RDKit          3D

 29 29  0  0  1  0  0  0  0  0999 V2000
   31.6835  -24.7638  -18.5700 N   0  0  0  0  0  0  0  0  0  0  0  0
   30.7091  -24.6178  -19.6331 C   0  0  1  0  0  0  0  0  0  0  0  0
   31.3995  -24.9499  -20.9414 C   0  0  0  0  0  0  0  0  0  0  0  0
   32.4403  -23.9565  -21.2744 C   0  0  0  0  0  0  0  0  0  0  0  0
   33.4589  -23.7302  -20.6002 O   0  0  0  0  0  0  0  0  0  0  0  0
   29.5919  -25.5641  -19.4098 C   0  0  0  0  0  0  0  0  0  0  0  0
   28.6536  -25.6909  -20.2240 O   0  0  0  0  0  0  0  0  0  0  0  0
   32.2674  -23.2114  -22.4394 O   0  0  0  0  0  0  0  0  0  0  0  0
   25.0295  -32.4731  -16.2984 O   0  0  0  0  0  0  0  0  0  0  0  0
   26.0108  -31.5419  -16.5870 C   0  0  0  0  0  0  0  0  0  0  0  0
   26.5491  -31.3812  -17.8433 C   0  0  0  0  0  0  0  0  0  0  0  0
   27.5272  -30.4447  -18.1048 C   0  0  0  0  0  0  0  0  0  0  0  0
   28.0017  -29.6353  -17.1180 C   0  0  0  0  0  0  0  0  0  0  0  0
   29.0446  -28.6056  -17.3013 C   0  0  0  0  0  0  0  0  0  0  0  0
   28.5497  -27.3591  -17.9699 C   0  0  2  0  0  0  0  0  0  0  0  0
   29.5321  -26.3817  -18.2478 N   0  0  0  0  0  0  0  0  0  0  0  0
   27.5089  -26.7719  -17.0880 C   0  0  0  0  0  0  0  0  0  0  0  0
   27.8717  -26.2802  -15.9936 O   0  0  0  0  0  0  0  0  0  0  0  0
   27.4696  -29.7857  -15.8498 C   0  0  0  0  0  0  0  0  0  0  0  0
   26.4811  -30.7281  -15.5728 C   0  0  0  0  0  0  0  0  0  0  0  0
   24.3556  -22.9034  -18.5014 C   0  0  0  0  0  0  0  0  0  0  0  0
   24.3829  -24.3745  -18.1978 C   0  0  1  0  0  0  0  0  0  0  0  0
   24.9077  -25.1255  -19.4073 C   0  0  0  0  0  0  0  0  0  0  0  0
   24.9813  -24.7643  -16.9286 C   0  0  0  0  0  0  0  0  0  0  0  0
   25.1143  -26.1577  -16.4924 C   0  0  2  0  0  0  0  0  0  0  0  0
   26.1441  -26.7354  -17.4081 N   0  0  0  0  0  0  0  0  0  0  0  0
   23.9809  -27.0576  -16.5430 C   0  0  0  0  0  0  0  0  0  0  0  0
   23.9522  -28.0200  -17.3773 O   0  0  0  0  0  0  0  0  0  0  0  0
   22.8360  -27.0042  -15.7330 O   0  0  0  0  0  0  0  0  0  0  0  0
  2  1  1  1
  3  2  1  0
  4  3  1  0
  5  4  2  0
  6  2  1  0
  7  6  2  0
  8  4  1  0
  9 10  1  0
 10 11  2  0
 11 12  1  0
 13 12  2  0
 13 14  1  0
 15 14  1  1
 15 17  1  0
 15 16  1  0
 16  6  1  0
 17 18  2  0
 19 13  1  0
 20 10  1  0
 20 19  2  0
 22 21  1  6
 23 22  1  0
 24 22  1  0
 25 24  1  6
 26 25  1  0
 26 17  1  0
 27 25  1  0
 27 29  1  0
 28 27  2  0
M  END
$$$$
