IHS.pdb
     RDKit          3D

 25 25  0  0  1  0  0  0  0  0999 V2000
   17.0530  -12.5498  -12.3741 C   0  0  0  0  0  0  0  0  0  0  0  0
   16.2485  -11.9266  -11.2815 C   0  0  0  0  0  0  0  0  0  0  0  0
   14.7644  -12.1889  -11.4191 C   0  0  2  0  0  0  0  0  0  0  0  0
   14.3110  -11.6498  -12.7401 C   0  0  0  0  0  0  0  0  0  0  0  0
   13.9903  -11.6316  -10.2478 C   0  0  2  0  0  0  0  0  0  0  0  0
   12.6061  -12.0438  -10.3917 N   0  0  0  0  0  0  0  0  0  0  0  0
   14.0466  -10.1626  -10.2063 C   0  0  0  0  0  0  0  0  0  0  0  0
   13.1879   -9.5072  -10.8814 O   0  0  0  0  0  0  0  0  0  0  0  0
   14.9845   -9.4022   -9.4716 N   0  0  0  0  0  0  0  0  0  0  0  0
   14.9314   -7.9716   -9.3636 C   0  0  1  0  0  0  0  0  0  0  0  0
   14.6265   -7.5192   -7.9659 C   0  0  0  0  0  0  0  0  0  0  0  0
   14.5360   -6.0555   -7.8142 C   0  0  0  0  0  0  0  0  0  0  0  0
   15.5881   -5.1827   -7.6575 C   0  0  0  0  0  0  0  0  0  0  0  0
   15.1305   -3.9015   -7.5486 N   0  0  0  0  0  0  0  0  0  0  0  0
   13.7987   -3.9826   -7.6380 C   0  0  0  0  0  0  0  0  0  0  0  0
   13.4301   -5.2537   -7.7959 N   0  0  0  0  0  0  0  0  0  0  0  0
   16.0889   -7.3070   -9.9993 C   0  0  0  0  0  0  0  0  0  0  0  0
   17.1862   -7.9254   -9.9854 O   0  0  0  0  0  0  0  0  0  0  0  0
   18.1581   -7.4660  -12.4585 O   0  0  0  0  0  0  0  0  0  0  0  0
   17.2243   -6.4929  -12.7162 C   0  0  0  0  0  0  0  0  0  0  0  0
   17.0127   -5.5466  -11.5511 C   0  0  2  0  0  0  0  0  0  0  0  0
   16.0431   -6.0345  -10.6171 N   0  0  0  0  0  0  0  0  0  0  0  0
   16.6805   -4.2155  -12.1054 C   0  0  0  0  0  0  0  0  0  0  0  0
   17.6232   -3.3581  -12.6412 O   0  0  0  0  0  0  0  0  0  0  0  0
   15.4837   -3.8459  -12.0885 O   0  0  0  0  0  0  0  0  0  0  0  0
  2  3  1  0
  2  1  1  0
  3  5  1  0
  3  4  1  6
  5  7  1  0
  5  6  1  6
  7  8  2  0
  9 10  1  0
  9  7  1  0
 10 11  1  1
 12 11  1  0
 13 12  2  0
 14 13  1  0
 15 14  1  0
 15 16  2  0
 16 12  1  0
 17 22  1  0
 17 10  1  0
 18 17  2  0
 20 19  1  0
 21 20  1  6
 21 22  1  0
 23 24  1  0
 23 21  1  0
 25 23  2  0
M  END
$$$$
