IHS.pdb
     RDKit          3D

 25 25  0  0  1  0  0  0  0  0999 V2000
   28.4185  -20.3799   -6.6275 C   0  0  0  0  0  0  0  0  0  0  0  0
   28.3191  -21.0700   -7.9478 C   0  0  0  0  0  0  0  0  0  0  0  0
   27.1084  -20.6405   -8.7478 C   0  0  2  0  0  0  0  0  0  0  0  0
   25.8795  -20.9919   -7.9683 C   0  0  0  0  0  0  0  0  0  0  0  0
   27.1235  -21.2294  -10.1387 C   0  0  2  0  0  0  0  0  0  0  0  0
   28.4446  -21.0137  -10.6997 N   0  0  0  0  0  0  0  0  0  0  0  0
   26.1267  -20.5914  -11.0118 C   0  0  0  0  0  0  0  0  0  0  0  0
   26.3487  -19.4024  -11.4116 O   0  0  0  0  0  0  0  0  0  0  0  0
   24.9254  -21.1909  -11.4532 N   0  0  0  0  0  0  0  0  0  0  0  0
   24.1495  -20.6905  -12.5527 C   0  0  1  0  0  0  0  0  0  0  0  0
   24.9709  -20.5237  -13.7972 C   0  0  0  0  0  0  0  0  0  0  0  0
   24.2954  -19.7656  -14.8660 C   0  0  0  0  0  0  0  0  0  0  0  0
   23.0280  -19.2322  -14.8150 C   0  0  0  0  0  0  0  0  0  0  0  0
   22.7330  -18.5954  -15.9855 N   0  0  0  0  0  0  0  0  0  0  0  0
   23.8157  -18.7350  -16.7579 C   0  0  0  0  0  0  0  0  0  0  0  0
   24.7516  -19.4268  -16.1083 N   0  0  0  0  0  0  0  0  0  0  0  0
   22.8776  -21.4217  -12.7342 C   0  0  0  0  0  0  0  0  0  0  0  0
   22.9514  -22.6626  -12.9377 O   0  0  0  0  0  0  0  0  0  0  0  0
   19.3263  -20.5113  -10.9055 O   0  0  0  0  0  0  0  0  0  0  0  0
   19.6381  -21.7047  -11.5089 C   0  0  0  0  0  0  0  0  0  0  0  0
   20.3599  -21.5332  -12.8308 C   0  0  2  0  0  0  0  0  0  0  0  0
   21.5957  -20.8231  -12.6931 N   0  0  0  0  0  0  0  0  0  0  0  0
   19.4180  -20.9001  -13.7804 C   0  0  0  0  0  0  0  0  0  0  0  0
   19.6863  -19.7166  -14.4422 O   0  0  0  0  0  0  0  0  0  0  0  0
   18.3211  -21.4652  -13.9961 O   0  0  0  0  0  0  0  0  0  0  0  0
  2  3  1  0
  2  1  1  0
  3  5  1  0
  3  4  1  1
  5  7  1  0
  5  6  1  6
  7  8  2  0
  9 10  1  0
  9  7  1  0
 10 11  1  6
 12 11  1  0
 13 12  2  0
 14 13  1  0
 15 14  1  0
 15 16  2  0
 16 12  1  0
 17 22  1  0
 17 10  1  0
 18 17  2  0
 20 19  1  0
 21 20  1  1
 21 22  1  0
 23 24  1  0
 23 21  1  0
 25 23  2  0
M  END
$$$$
