IHS.pdb
     RDKit          3D

 25 25  0  0  1  0  0  0  0  0999 V2000
   14.7018  -13.0448  -16.8331 C   0  0  0  0  0  0  0  0  0  0  0  0
   16.1740  -12.8244  -16.9482 C   0  0  0  0  0  0  0  0  0  0  0  0
   16.6443  -11.5882  -16.2128 C   0  0  2  0  0  0  0  0  0  0  0  0
   15.8320  -10.4221  -16.6837 C   0  0  0  0  0  0  0  0  0  0  0  0
   18.1326  -11.3819  -16.3669 C   0  0  2  0  0  0  0  0  0  0  0  0
   18.8021  -12.5600  -15.8466 N   0  0  0  0  0  0  0  0  0  0  0  0
   18.5997  -10.2026  -15.6227 C   0  0  0  0  0  0  0  0  0  0  0  0
   18.3836  -10.1571  -14.3681 O   0  0  0  0  0  0  0  0  0  0  0  0
   19.2779   -9.0980  -16.1860 N   0  0  0  0  0  0  0  0  0  0  0  0
   19.6246   -7.9199  -15.4422 C   0  0  1  0  0  0  0  0  0  0  0  0
   21.0943   -7.6234  -15.5020 C   0  0  0  0  0  0  0  0  0  0  0  0
   21.9480   -8.7103  -14.9889 C   0  0  0  0  0  0  0  0  0  0  0  0
   21.5198   -9.9012  -14.4487 C   0  0  0  0  0  0  0  0  0  0  0  0
   22.5878  -10.6673  -14.0809 N   0  0  0  0  0  0  0  0  0  0  0  0
   23.6732   -9.9514  -14.3931 C   0  0  0  0  0  0  0  0  0  0  0  0
   23.3108   -8.7878  -14.9327 N   0  0  0  0  0  0  0  0  0  0  0  0
   18.7410   -6.7735  -15.7426 C   0  0  0  0  0  0  0  0  0  0  0  0
   18.4231   -6.5926  -16.9480 O   0  0  0  0  0  0  0  0  0  0  0  0
   15.4138   -3.5927  -14.2261 O   0  0  0  0  0  0  0  0  0  0  0  0
   16.2955   -4.6118  -13.9625 C   0  0  0  0  0  0  0  0  0  0  0  0
   17.3334   -4.7983  -15.0514 C   0  0  2  0  0  0  0  0  0  0  0  0
   18.2335   -5.8765  -14.7725 N   0  0  0  0  0  0  0  0  0  0  0  0
   18.0130   -3.4996  -15.2543 C   0  0  0  0  0  0  0  0  0  0  0  0
   17.3739   -2.3748  -15.7413 O   0  0  0  0  0  0  0  0  0  0  0  0
   19.2301   -3.4144  -14.9702 O   0  0  0  0  0  0  0  0  0  0  0  0
  2  3  1  0
  2  1  1  0
  3  5  1  0
  3  4  1  6
  5  7  1  0
  5  6  1  1
  7  8  2  0
  9 10  1  0
  9  7  1  0
 10 11  1  6
 12 11  1  0
 13 12  2  0
 14 13  1  0
 15 14  1  0
 15 16  2  0
 16 12  1  0
 17 22  1  0
 17 10  1  0
 18 17  2  0
 20 19  1  0
 21 20  1  1
 21 22  1  0
 23 24  1  0
 23 21  1  0
 25 23  2  0
M  END
$$$$
