IHS.pdb
     RDKit          3D

 25 25  0  0  1  0  0  0  0  0999 V2000
   26.2490  -20.4503   -8.0833 C   0  0  0  0  0  0  0  0  0  0  0  0
   25.5399  -21.2827   -9.0999 C   0  0  0  0  0  0  0  0  0  0  0  0
   25.7611  -20.7984  -10.5165 C   0  0  2  0  0  0  0  0  0  0  0  0
   25.3625  -19.3572  -10.5896 C   0  0  0  0  0  0  0  0  0  0  0  0
   25.0435  -21.6694  -11.5204 C   0  0  2  0  0  0  0  0  0  0  0  0
   25.5858  -23.0115  -11.4143 N   0  0  0  0  0  0  0  0  0  0  0  0
   25.2352  -21.1871  -12.8965 C   0  0  0  0  0  0  0  0  0  0  0  0
   26.3604  -21.3946  -13.4566 O   0  0  0  0  0  0  0  0  0  0  0  0
   24.2656  -20.5029  -13.6640 N   0  0  0  0  0  0  0  0  0  0  0  0
   24.4744  -20.1028  -15.0270 C   0  0  1  0  0  0  0  0  0  0  0  0
   23.4836  -20.7329  -15.9611 C   0  0  0  0  0  0  0  0  0  0  0  0
   23.6863  -22.1788  -16.1661 C   0  0  0  0  0  0  0  0  0  0  0  0
   24.6508  -22.9616  -15.5744 C   0  0  0  0  0  0  0  0  0  0  0  0
   24.5387  -24.2544  -15.9971 N   0  0  0  0  0  0  0  0  0  0  0  0
   23.5073  -24.2703  -16.8481 C   0  0  0  0  0  0  0  0  0  0  0  0
   22.9907  -23.0467  -16.9593 N   0  0  0  0  0  0  0  0  0  0  0  0
   24.6341  -18.6408  -15.1755 C   0  0  0  0  0  0  0  0  0  0  0  0
   23.7241  -17.9113  -14.6994 O   0  0  0  0  0  0  0  0  0  0  0  0
   28.1968  -16.9560  -16.6499 O   0  0  0  0  0  0  0  0  0  0  0  0
   27.4092  -16.2252  -15.7949 C   0  0  0  0  0  0  0  0  0  0  0  0
   25.9422  -16.5992  -15.8696 C   0  0  2  0  0  0  0  0  0  0  0  0
   25.7332  -18.0146  -15.8106 N   0  0  0  0  0  0  0  0  0  0  0  0
   25.3771  -15.9695  -17.0836 C   0  0  0  0  0  0  0  0  0  0  0  0
   25.4426  -14.6121  -17.3369 O   0  0  0  0  0  0  0  0  0  0  0  0
   24.8100  -16.7035  -17.9255 O   0  0  0  0  0  0  0  0  0  0  0  0
  2  3  1  0
  2  1  1  0
  3  5  1  0
  3  4  1  1
  5  7  1  0
  5  6  1  6
  7  8  2  0
  9 10  1  0
  9  7  1  0
 10 11  1  6
 12 11  1  0
 13 12  2  0
 14 13  1  0
 15 14  1  0
 15 16  2  0
 16 12  1  0
 17 22  1  0
 17 10  1  0
 18 17  2  0
 20 19  1  0
 21 20  1  6
 21 22  1  0
 23 24  1  0
 23 21  1  0
 25 23  2  0
M  END
$$$$
