IHS.pdb
     RDKit          3D

 25 25  0  0  1  0  0  0  0  0999 V2000
   22.1895  -11.5448  -20.2222 C   0  0  0  0  0  0  0  0  0  0  0  0
   22.0790  -11.6087  -18.7346 C   0  0  0  0  0  0  0  0  0  0  0  0
   21.3954  -10.3957  -18.1416 C   0  0  2  0  0  0  0  0  0  0  0  0
   22.0604   -9.1684  -18.6828 C   0  0  0  0  0  0  0  0  0  0  0  0
   21.3771  -10.4502  -16.6322 C   0  0  2  0  0  0  0  0  0  0  0  0
   20.7992  -11.7223  -16.2392 N   0  0  0  0  0  0  0  0  0  0  0  0
   20.5697   -9.3637  -16.0571 C   0  0  0  0  0  0  0  0  0  0  0  0
   19.3751   -9.2150  -16.4738 O   0  0  0  0  0  0  0  0  0  0  0  0
   21.0097   -8.4559  -15.0673 N   0  0  0  0  0  0  0  0  0  0  0  0
   20.1867   -7.4071  -14.5344 C   0  0  1  0  0  0  0  0  0  0  0  0
   20.1903   -7.3903  -13.0341 C   0  0  0  0  0  0  0  0  0  0  0  0
   19.3367   -8.4233  -12.4195 C   0  0  0  0  0  0  0  0  0  0  0  0
   18.5478   -9.3342  -13.0838 C   0  0  0  0  0  0  0  0  0  0  0  0
   17.8974  -10.1382  -12.1932 N   0  0  0  0  0  0  0  0  0  0  0  0
   18.2836   -9.7250  -10.9814 C   0  0  0  0  0  0  0  0  0  0  0  0
   19.1374   -8.7083  -11.0984 N   0  0  0  0  0  0  0  0  0  0  0  0
   20.4395   -6.0999  -15.1768 C   0  0  0  0  0  0  0  0  0  0  0  0
   21.5972   -5.8957  -15.6294 O   0  0  0  0  0  0  0  0  0  0  0  0
   20.2465   -3.0449  -18.2726 O   0  0  0  0  0  0  0  0  0  0  0  0
   20.0086   -4.1776  -17.5338 C   0  0  0  0  0  0  0  0  0  0  0  0
   19.6552   -3.8835  -16.0894 C   0  0  2  0  0  0  0  0  0  0  0  0
   19.4738   -5.0745  -15.3154 N   0  0  0  0  0  0  0  0  0  0  0  0
   18.4740   -2.9921  -16.0862 C   0  0  0  0  0  0  0  0  0  0  0  0
   18.5534   -1.6253  -15.8961 O   0  0  0  0  0  0  0  0  0  0  0  0
   17.3438   -3.5018  -16.2651 O   0  0  0  0  0  0  0  0  0  0  0  0
  2  3  1  0
  2  1  1  0
  3  5  1  0
  3  4  1  1
  5  7  1  0
  5  6  1  6
  7  8  2  0
  9 10  1  0
  9  7  1  0
 10 11  1  1
 12 11  1  0
 13 12  2  0
 14 13  1  0
 15 14  1  0
 15 16  2  0
 16 12  1  0
 17 22  1  0
 17 10  1  0
 18 17  2  0
 20 19  1  0
 21 20  1  6
 21 22  1  0
 23 24  1  0
 23 21  1  0
 25 23  2  0
M  END
$$$$
