IHS.pdb
     RDKit          3D

 25 25  0  0  1  0  0  0  0  0999 V2000
   19.1985  -13.8589    2.0400 C   0  0  0  0  0  0  0  0  0  0  0  0
   17.9548  -13.7119    2.8529 C   0  0  0  0  0  0  0  0  0  0  0  0
   17.8351  -14.7566    3.9413 C   0  0  2  0  0  0  0  0  0  0  0  0
   19.0723  -14.7046    4.7827 C   0  0  0  0  0  0  0  0  0  0  0  0
   17.5579  -16.1267    3.3688 C   0  0  2  0  0  0  0  0  0  0  0  0
   16.2717  -16.0776    2.6981 N   0  0  0  0  0  0  0  0  0  0  0  0
   17.5075  -17.1560    4.4180 C   0  0  0  0  0  0  0  0  0  0  0  0
   16.6410  -17.0314    5.3435 O   0  0  0  0  0  0  0  0  0  0  0  0
   18.3491  -18.2891    4.4909 N   0  0  0  0  0  0  0  0  0  0  0  0
   18.2777  -19.2605    5.5456 C   0  0  1  0  0  0  0  0  0  0  0  0
   18.2843  -20.6669    5.0227 C   0  0  0  0  0  0  0  0  0  0  0  0
   17.0416  -21.0572    4.3321 C   0  0  0  0  0  0  0  0  0  0  0  0
   15.9247  -20.2739    4.1530 C   0  0  0  0  0  0  0  0  0  0  0  0
   14.9661  -20.9627    3.4679 N   0  0  0  0  0  0  0  0  0  0  0  0
   15.4897  -22.1689    3.2243 C   0  0  0  0  0  0  0  0  0  0  0  0
   16.7205  -22.2410    3.7306 N   0  0  0  0  0  0  0  0  0  0  0  0
   19.2394  -18.9924    6.6358 C   0  0  0  0  0  0  0  0  0  0  0  0
   20.4264  -18.7317    6.3046 O   0  0  0  0  0  0  0  0  0  0  0  0
   18.8613  -16.6170    9.7444 O   0  0  0  0  0  0  0  0  0  0  0  0
   19.2148  -17.8749   10.1666 C   0  0  0  0  0  0  0  0  0  0  0  0
   19.8356  -18.7186    9.0710 C   0  0  2  0  0  0  0  0  0  0  0  0
   18.9147  -19.0084    8.0133 N   0  0  0  0  0  0  0  0  0  0  0  0
   20.4083  -19.9281    9.7026 C   0  0  0  0  0  0  0  0  0  0  0  0
   21.3263  -19.8845   10.7352 O   0  0  0  0  0  0  0  0  0  0  0  0
   20.0430  -21.0494    9.2802 O   0  0  0  0  0  0  0  0  0  0  0  0
  2  3  1  0
  2  1  1  0
  3  5  1  0
  3  4  1  6
  5  7  1  0
  5  6  1  1
  7  8  2  0
  9 10  1  0
  9  7  1  0
 10 11  1  6
 12 11  1  0
 13 12  2  0
 14 13  1  0
 15 14  1  0
 15 16  2  0
 16 12  1  0
 17 22  1  0
 17 10  1  0
 18 17  2  0
 20 19  1  0
 21 20  1  1
 21 22  1  0
 23 24  1  0
 23 21  1  0
 25 23  2  0
M  END
$$$$
