PNV.pdb
     RDKit          3D

 23 23  0  0  1  0  0  0  0  0999 V2000
   27.5124  -20.9098  -15.1066 N   0  0  0  0  0  0  0  0  0  0  0  0
   27.2957  -20.4154  -16.4302 C   0  0  0  0  0  0  0  0  0  0  0  0
   27.0950  -18.9187  -16.1600 C   0  0  0  0  0  0  0  0  0  0  0  0
   28.2705  -18.6711  -15.2066 C   0  0  0  0  0  0  0  0  0  0  0  0
   28.1957  -19.9166  -14.3337 C   0  0  1  0  0  0  0  0  0  0  0  0
   27.3341  -19.6008  -13.1379 C   0  0  0  0  0  0  0  0  0  0  0  0
   27.3932  -18.5122  -12.5257 O   0  0  0  0  0  0  0  0  0  0  0  0
   23.2279  -20.9256  -14.2274 N   0  0  0  0  0  0  0  0  0  0  0  0
   23.5126  -20.1273  -13.0743 C   0  0  0  0  0  0  0  0  0  0  0  0
   23.2681  -18.9106  -13.1308 O   0  0  0  0  0  0  0  0  0  0  0  0
   24.0812  -20.8075  -11.8859 C   0  0  0  0  0  0  0  0  0  0  0  0
   25.4644  -20.2653  -11.5724 C   0  0  2  0  0  0  0  0  0  0  0  0
   26.3948  -20.5592  -12.6493 N   0  0  0  0  0  0  0  0  0  0  0  0
   25.9809  -20.8196  -10.2972 C   0  0  0  0  0  0  0  0  0  0  0  0
   26.4509  -21.9845  -10.2372 O   0  0  0  0  0  0  0  0  0  0  0  0
   28.1152  -18.8279   -7.4370 C   0  0  0  0  0  0  0  0  0  0  0  0
   26.9125  -19.5533   -6.8581 C   0  0  2  0  0  0  0  0  0  0  0  0
   27.4173  -20.2918   -5.6248 C   0  0  0  0  0  0  0  0  0  0  0  0
   26.3882  -20.6028   -7.8105 C   0  0  2  0  0  0  0  0  0  0  0  0
   25.9786  -20.0755   -9.0709 N   0  0  0  0  0  0  0  0  0  0  0  0
   25.2462  -21.2807   -7.1597 C   0  0  0  0  0  0  0  0  0  0  0  0
   25.3771  -22.0268   -6.1458 O   0  0  0  0  0  0  0  0  0  0  0  0
   23.9694  -21.0781   -7.7028 O   0  0  0  0  0  0  0  0  0  0  0  0
  1  2  1  0
  2  3  1  0
  4  3  1  0
  5  6  1  1
  5  1  1  0
  5  4  1  0
  6  7  2  0
  8  9  1  0
  9 10  2  0
  9 11  1  0
 12 11  1  6
 12 14  1  0
 13 12  1  0
 13  6  1  0
 14 15  2  0
 14 20  1  0
 17 16  1  6
 17 19  1  0
 18 17  1  0
 19 21  1  0
 19 20  1  6
 21 22  2  0
 21 23  1  0
M  END
$$$$
