PNV.pdb
     RDKit          3D

 23 23  0  0  1  0  0  0  0  0999 V2000
   24.1680  -11.2397  -15.7836 N   0  0  0  0  0  0  0  0  0  0  0  0
   24.1940  -12.6462  -15.5296 C   0  0  0  0  0  0  0  0  0  0  0  0
   22.7775  -13.0522  -15.9565 C   0  0  0  0  0  0  0  0  0  0  0  0
   22.6886  -12.3038  -17.2921 C   0  0  0  0  0  0  0  0  0  0  0  0
   23.3341  -10.9764  -16.9176 C   0  0  1  0  0  0  0  0  0  0  0  0
   22.2455  -10.0343  -16.4710 C   0  0  0  0  0  0  0  0  0  0  0  0
   21.4809   -9.4510  -17.2701 O   0  0  0  0  0  0  0  0  0  0  0  0
   18.7311   -7.6196  -13.8722 N   0  0  0  0  0  0  0  0  0  0  0  0
   19.0095   -8.7968  -13.1075 C   0  0  0  0  0  0  0  0  0  0  0  0
   18.2320   -9.0918  -12.1846 O   0  0  0  0  0  0  0  0  0  0  0  0
   20.2100   -9.5881  -13.4693 C   0  0  0  0  0  0  0  0  0  0  0  0
   20.9725   -8.9147  -14.5965 C   0  0  2  0  0  0  0  0  0  0  0  0
   22.0436   -9.7680  -15.0825 N   0  0  0  0  0  0  0  0  0  0  0  0
   21.5279   -7.6094  -14.1629 C   0  0  0  0  0  0  0  0  0  0  0  0
   22.4089   -7.5421  -13.2681 O   0  0  0  0  0  0  0  0  0  0  0  0
   23.0345   -3.1829  -15.4549 C   0  0  0  0  0  0  0  0  0  0  0  0
   22.4238   -4.5463  -15.7307 C   0  0  2  0  0  0  0  0  0  0  0  0
   21.3241   -4.3167  -16.7598 C   0  0  0  0  0  0  0  0  0  0  0  0
   21.7568   -5.1132  -14.4989 C   0  0  2  0  0  0  0  0  0  0  0  0
   21.1038   -6.3605  -14.7269 N   0  0  0  0  0  0  0  0  0  0  0  0
   20.7757   -4.1193  -14.0123 C   0  0  0  0  0  0  0  0  0  0  0  0
   19.5366   -4.2005  -14.2563 O   0  0  0  0  0  0  0  0  0  0  0  0
   21.2562   -3.0455  -13.2492 O   0  0  0  0  0  0  0  0  0  0  0  0
  1  2  1  0
  2  3  1  0
  4  3  1  0
  5  6  1  1
  5  1  1  0
  5  4  1  0
  6  7  2  0
  8  9  1  0
  9 10  2  0
  9 11  1  0
 12 11  1  1
 12 14  1  0
 13 12  1  0
 13  6  1  0
 14 15  2  0
 14 20  1  0
 17 16  1  1
 17 19  1  0
 18 17  1  0
 19 21  1  0
 19 20  1  6
 21 22  2  0
 21 23  1  0
M  END
$$$$
