PNV.pdb
     RDKit          3D

 23 23  0  0  1  0  0  0  0  0999 V2000
   21.3305  -19.7494  -19.1350 N   0  0  0  0  0  0  0  0  0  0  0  0
   21.1309  -21.1260  -19.4643 C   0  0  0  0  0  0  0  0  0  0  0  0
   19.6142  -21.1611  -19.6913 C   0  0  0  0  0  0  0  0  0  0  0  0
   19.4585  -19.9152  -20.5719 C   0  0  0  0  0  0  0  0  0  0  0  0
   20.3931  -18.9459  -19.8606 C   0  0  1  0  0  0  0  0  0  0  0  0
   19.5856  -18.1694  -18.8523 C   0  0  0  0  0  0  0  0  0  0  0  0
   19.3716  -18.5801  -17.6909 O   0  0  0  0  0  0  0  0  0  0  0  0
   17.1617  -14.5681  -16.3384 N   0  0  0  0  0  0  0  0  0  0  0  0
   17.9150  -13.8503  -17.3209 C   0  0  0  0  0  0  0  0  0  0  0  0
   17.9512  -12.6112  -17.2392 O   0  0  0  0  0  0  0  0  0  0  0  0
   18.6040  -14.6354  -18.3731 C   0  0  0  0  0  0  0  0  0  0  0  0
   18.2504  -16.1076  -18.2572 C   0  0  2  0  0  0  0  0  0  0  0  0
   19.0216  -16.9033  -19.1971 N   0  0  0  0  0  0  0  0  0  0  0  0
   16.8011  -16.3298  -18.4818 C   0  0  0  0  0  0  0  0  0  0  0  0
   16.2992  -16.2373  -19.6312 O   0  0  0  0  0  0  0  0  0  0  0  0
   14.1959  -17.7457  -15.2423 C   0  0  0  0  0  0  0  0  0  0  0  0
   14.0570  -18.1282  -16.7059 C   0  0  2  0  0  0  0  0  0  0  0  0
   14.9996  -19.3045  -16.9269 C   0  0  0  0  0  0  0  0  0  0  0  0
   14.5265  -17.0164  -17.6153 C   0  0  2  0  0  0  0  0  0  0  0  0
   15.8936  -16.6597  -17.4211 N   0  0  0  0  0  0  0  0  0  0  0  0
   13.6657  -15.8375  -17.3774 C   0  0  0  0  0  0  0  0  0  0  0  0
   12.4616  -15.7770  -17.7622 O   0  0  0  0  0  0  0  0  0  0  0  0
   14.2239  -14.7472  -16.6949 O   0  0  0  0  0  0  0  0  0  0  0  0
  1  2  1  0
  2  3  1  0
  4  3  1  0
  5  6  1  1
  5  1  1  0
  5  4  1  0
  6  7  2  0
  8  9  1  0
  9 10  2  0
  9 11  1  0
 12 11  1  6
 12 14  1  0
 13 12  1  0
 13  6  1  0
 14 15  2  0
 14 20  1  0
 17 16  1  1
 17 19  1  0
 18 17  1  0
 19 21  1  0
 19 20  1  1
 21 22  2  0
 21 23  1  0
M  END
$$$$
