PNV.pdb
     RDKit          3D

 23 23  0  0  1  0  0  0  0  0999 V2000
   44.4954  -12.0240   -9.1285 N   0  0  0  0  0  0  0  0  0  0  0  0
   45.1335  -13.0979   -8.4335 C   0  0  0  0  0  0  0  0  0  0  0  0
   43.9270  -13.7983   -7.7953 C   0  0  0  0  0  0  0  0  0  0  0  0
   42.9868  -13.8422   -9.0062 C   0  0  0  0  0  0  0  0  0  0  0  0
   43.2092  -12.4532   -9.5892 C   0  0  1  0  0  0  0  0  0  0  0  0
   42.1815  -11.5244   -8.9946 C   0  0  0  0  0  0  0  0  0  0  0  0
   40.9528  -11.6601   -9.1824 O   0  0  0  0  0  0  0  0  0  0  0  0
   43.3041  -10.2461   -4.3937 N   0  0  0  0  0  0  0  0  0  0  0  0
   42.1161   -9.9585   -5.1381 C   0  0  0  0  0  0  0  0  0  0  0  0
   41.0703  -10.5492   -4.8210 O   0  0  0  0  0  0  0  0  0  0  0  0
   42.2132   -8.9718   -6.2405 C   0  0  0  0  0  0  0  0  0  0  0  0
   41.6336   -9.5451   -7.5215 C   0  0  2  0  0  0  0  0  0  0  0  0
   42.5859  -10.4278   -8.1739 N   0  0  0  0  0  0  0  0  0  0  0  0
   41.2271   -8.4668   -8.4554 C   0  0  0  0  0  0  0  0  0  0  0  0
   42.0571   -7.9355   -9.2366 O   0  0  0  0  0  0  0  0  0  0  0  0
   37.0914   -7.2707   -8.6767 C   0  0  0  0  0  0  0  0  0  0  0  0
   38.0359   -7.0174   -9.8393 C   0  0  2  0  0  0  0  0  0  0  0  0
   37.9628   -8.2575  -10.7213 C   0  0  0  0  0  0  0  0  0  0  0  0
   39.4682   -6.8979   -9.3726 C   0  0  2  0  0  0  0  0  0  0  0  0
   39.8838   -7.9688   -8.5273 N   0  0  0  0  0  0  0  0  0  0  0  0
   39.6088   -5.6130   -8.6540 C   0  0  0  0  0  0  0  0  0  0  0  0
   39.5893   -4.4919   -9.2408 O   0  0  0  0  0  0  0  0  0  0  0  0
   39.7708   -5.6566   -7.2619 O   0  0  0  0  0  0  0  0  0  0  0  0
  1  2  1  0
  2  3  1  0
  4  3  1  0
  5  6  1  1
  5  1  1  0
  5  4  1  0
  6  7  2  0
  8  9  1  0
  9 10  2  0
  9 11  1  0
 12 11  1  1
 12 14  1  0
 13 12  1  0
 13  6  1  0
 14 15  2  0
 14 20  1  0
 17 16  1  1
 17 19  1  0
 18 17  1  0
 19 21  1  0
 19 20  1  1
 21 22  2  0
 21 23  1  0
M  END
$$$$
