PNV.pdb
     RDKit          3D

 23 23  0  0  1  0  0  0  0  0999 V2000
   20.8631  -12.1030  -17.3819 N   0  0  0  0  0  0  0  0  0  0  0  0
   20.0738  -13.2185  -17.8016 C   0  0  0  0  0  0  0  0  0  0  0  0
   18.8680  -12.5098  -18.4318 C   0  0  0  0  0  0  0  0  0  0  0  0
   19.6009  -11.4605  -19.2767 C   0  0  0  0  0  0  0  0  0  0  0  0
   20.6884  -11.0223  -18.3051 C   0  0  1  0  0  0  0  0  0  0  0  0
   20.1731   -9.8393  -17.5260 C   0  0  0  0  0  0  0  0  0  0  0  0
   19.7913   -8.7805  -18.0707 O   0  0  0  0  0  0  0  0  0  0  0  0
   17.1073  -11.1936  -14.5693 N   0  0  0  0  0  0  0  0  0  0  0  0
   17.4029   -9.8015  -14.7205 C   0  0  0  0  0  0  0  0  0  0  0  0
   16.5646   -9.0847  -15.2922 O   0  0  0  0  0  0  0  0  0  0  0  0
   18.6929   -9.3064  -14.1829 C   0  0  0  0  0  0  0  0  0  0  0  0
   19.5754   -8.7903  -15.3056 C   0  0  2  0  0  0  0  0  0  0  0  0
   20.1008   -9.8875  -16.1005 N   0  0  0  0  0  0  0  0  0  0  0  0
   20.6943   -7.9735  -14.7754 C   0  0  0  0  0  0  0  0  0  0  0  0
   21.5983   -8.4888  -14.0693 O   0  0  0  0  0  0  0  0  0  0  0  0
   21.1246   -3.8073  -15.9345 C   0  0  0  0  0  0  0  0  0  0  0  0
   22.3042   -4.6774  -15.5355 C   0  0  2  0  0  0  0  0  0  0  0  0
   22.7580   -5.3837  -16.8069 C   0  0  0  0  0  0  0  0  0  0  0  0
   21.8915   -5.7561  -14.5610 C   0  0  2  0  0  0  0  0  0  0  0  0
   20.8161   -6.5671  -15.0298 N   0  0  0  0  0  0  0  0  0  0  0  0
   21.5054   -5.1019  -13.2921 C   0  0  0  0  0  0  0  0  0  0  0  0
   20.3157   -5.0877  -12.8607 O   0  0  0  0  0  0  0  0  0  0  0  0
   22.5135   -4.4739  -12.5469 O   0  0  0  0  0  0  0  0  0  0  0  0
  1  2  1  0
  2  3  1  0
  4  3  1  0
  5  6  1  1
  5  1  1  0
  5  4  1  0
  6  7  2  0
  8  9  1  0
  9 10  2  0
  9 11  1  0
 12 11  1  1
 12 14  1  0
 13 12  1  0
 13  6  1  0
 14 15  2  0
 14 20  1  0
 17 16  1  6
 17 19  1  0
 18 17  1  0
 19 21  1  0
 19 20  1  6
 21 22  2  0
 21 23  1  0
M  END
$$$$
