PNV.pdb
     RDKit          3D

 23 23  0  0  1  0  0  0  0  0999 V2000
   28.3551  -20.5825  -15.2460 N   0  0  0  0  0  0  0  0  0  0  0  0
   28.2105  -20.3092  -16.6417 C   0  0  0  0  0  0  0  0  0  0  0  0
   27.4889  -18.9558  -16.6070 C   0  0  0  0  0  0  0  0  0  0  0  0
   28.3436  -18.2372  -15.5558 C   0  0  0  0  0  0  0  0  0  0  0  0
   28.5375  -19.3519  -14.5366 C   0  0  1  0  0  0  0  0  0  0  0  0
   27.4347  -19.2503  -13.5141 C   0  0  0  0  0  0  0  0  0  0  0  0
   27.1907  -18.2012  -12.8791 O   0  0  0  0  0  0  0  0  0  0  0  0
   23.2224  -19.7678  -10.9585 N   0  0  0  0  0  0  0  0  0  0  0  0
   23.0249  -20.5242  -12.1573 C   0  0  0  0  0  0  0  0  0  0  0  0
   21.8657  -20.8591  -12.4527 O   0  0  0  0  0  0  0  0  0  0  0  0
   24.2200  -20.8578  -12.9688 C   0  0  0  0  0  0  0  0  0  0  0  0
   25.4770  -20.3095  -12.3169 C   0  0  2  0  0  0  0  0  0  0  0  0
   26.6076  -20.3787  -13.2271 N   0  0  0  0  0  0  0  0  0  0  0  0
   25.7942  -21.0403  -11.0657 C   0  0  0  0  0  0  0  0  0  0  0  0
   25.9057  -22.2928  -11.0543 O   0  0  0  0  0  0  0  0  0  0  0  0
   26.4903  -18.9168   -7.2987 C   0  0  0  0  0  0  0  0  0  0  0  0
   26.9812  -20.3306   -7.5598 C   0  0  2  0  0  0  0  0  0  0  0  0
   28.3519  -20.1890   -8.2096 C   0  0  0  0  0  0  0  0  0  0  0  0
   26.0988  -21.0478   -8.5550 C   0  0  2  0  0  0  0  0  0  0  0  0
   25.9916  -20.3771   -9.8092 N   0  0  0  0  0  0  0  0  0  0  0  0
   24.7562  -21.1944   -7.9525 C   0  0  0  0  0  0  0  0  0  0  0  0
   23.7307  -20.6098   -8.4087 O   0  0  0  0  0  0  0  0  0  0  0  0
   24.6314  -22.0205   -6.8263 O   0  0  0  0  0  0  0  0  0  0  0  0
  1  2  1  0
  2  3  1  0
  4  3  1  0
  5  6  1  1
  5  1  1  0
  5  4  1  0
  6  7  2  0
  8  9  1  0
  9 10  2  0
  9 11  1  0
 12 11  1  6
 12 14  1  0
 13 12  1  0
 13  6  1  0
 14 15  2  0
 14 20  1  0
 17 16  1  6
 17 19  1  0
 18 17  1  0
 19 21  1  0
 19 20  1  6
 21 22  2  0
 21 23  1  0
M  END
$$$$
