PNV.pdb
     RDKit          3D

 23 23  0  0  1  0  0  0  0  0999 V2000
   25.3146  -19.0565  -21.6075 N   0  0  0  0  0  0  0  0  0  0  0  0
   25.0384  -20.4291  -21.3188 C   0  0  0  0  0  0  0  0  0  0  0  0
   24.5470  -20.9275  -22.6839 C   0  0  0  0  0  0  0  0  0  0  0  0
   25.6297  -20.3188  -23.5834 C   0  0  0  0  0  0  0  0  0  0  0  0
   25.7752  -18.9379  -22.9583 C   0  0  1  0  0  0  0  0  0  0  0  0
   24.8407  -17.9972  -23.6750 C   0  0  0  0  0  0  0  0  0  0  0  0
   24.9325  -17.7472  -24.8967 O   0  0  0  0  0  0  0  0  0  0  0  0
   19.3058  -15.5264  -23.4042 N   0  0  0  0  0  0  0  0  0  0  0  0
   20.4621  -16.0222  -24.0862 C   0  0  0  0  0  0  0  0  0  0  0  0
   20.6054  -15.7271  -25.2844 O   0  0  0  0  0  0  0  0  0  0  0  0
   21.4145  -16.8567  -23.3150 C   0  0  0  0  0  0  0  0  0  0  0  0
   22.8457  -16.4467  -23.6140 C   0  0  2  0  0  0  0  0  0  0  0  0
   23.7894  -17.3411  -22.9651 N   0  0  0  0  0  0  0  0  0  0  0  0
   23.1031  -15.0496  -23.1874 C   0  0  0  0  0  0  0  0  0  0  0  0
   23.3675  -14.7735  -21.9893 O   0  0  0  0  0  0  0  0  0  0  0  0
   23.4642  -12.0171  -26.1862 C   0  0  0  0  0  0  0  0  0  0  0  0
   24.1712  -11.8776  -24.8489 C   0  0  2  0  0  0  0  0  0  0  0  0
   25.5169  -12.5742  -25.0073 C   0  0  0  0  0  0  0  0  0  0  0  0
   23.4295  -12.6061  -23.7523 C   0  0  2  0  0  0  0  0  0  0  0  0
   23.0684  -13.9418  -24.0980 N   0  0  0  0  0  0  0  0  0  0  0  0
   22.2132  -11.8293  -23.4294 C   0  0  0  0  0  0  0  0  0  0  0  0
   22.2524  -10.6536  -22.9627 O   0  0  0  0  0  0  0  0  0  0  0  0
   20.9699  -12.4370  -23.6556 O   0  0  0  0  0  0  0  0  0  0  0  0
  1  2  1  0
  2  3  1  0
  4  3  1  0
  5  6  1  6
  5  1  1  0
  5  4  1  0
  6  7  2  0
  8  9  1  0
  9 10  2  0
  9 11  1  0
 12 11  1  1
 12 14  1  0
 13 12  1  0
 13  6  1  0
 14 15  2  0
 14 20  1  0
 17 16  1  6
 17 19  1  0
 18 17  1  0
 19 21  1  0
 19 20  1  6
 21 22  2  0
 21 23  1  0
M  END
$$$$
