PNV.pdb
     RDKit          3D

 23 23  0  0  1  0  0  0  0  0999 V2000
   28.1313  -20.9300  -14.9559 N   0  0  0  0  0  0  0  0  0  0  0  0
   27.7763  -20.8704  -16.3393 C   0  0  0  0  0  0  0  0  0  0  0  0
   26.9252  -19.5944  -16.3737 C   0  0  0  0  0  0  0  0  0  0  0  0
   27.8290  -18.6621  -15.5576 C   0  0  0  0  0  0  0  0  0  0  0  0
   28.2730  -19.6003  -14.4434 C   0  0  1  0  0  0  0  0  0  0  0  0
   27.3097  -19.4526  -13.2935 C   0  0  0  0  0  0  0  0  0  0  0  0
   27.0209  -18.3470  -12.7860 O   0  0  0  0  0  0  0  0  0  0  0  0
   23.7278  -21.4688  -14.4593 N   0  0  0  0  0  0  0  0  0  0  0  0
   23.8542  -20.6123  -13.3198 C   0  0  0  0  0  0  0  0  0  0  0  0
   23.5049  -19.4260  -13.4386 O   0  0  0  0  0  0  0  0  0  0  0  0
   24.3943  -21.1997  -12.0702 C   0  0  0  0  0  0  0  0  0  0  0  0
   25.6847  -20.5067  -11.6698 C   0  0  2  0  0  0  0  0  0  0  0  0
   26.6758  -20.6009  -12.7284 N   0  0  0  0  0  0  0  0  0  0  0  0
   26.2333  -21.0785  -10.4160 C   0  0  0  0  0  0  0  0  0  0  0  0
   26.6206  -22.2737  -10.3608 O   0  0  0  0  0  0  0  0  0  0  0  0
   26.6883  -18.6035   -6.9042 C   0  0  0  0  0  0  0  0  0  0  0  0
   27.2884  -19.9982   -6.9541 C   0  0  2  0  0  0  0  0  0  0  0  0
   28.6933  -19.8341   -7.5201 C   0  0  0  0  0  0  0  0  0  0  0  0
   26.5340  -20.8911   -7.9118 C   0  0  2  0  0  0  0  0  0  0  0  0
   26.3562  -20.3183   -9.2058 N   0  0  0  0  0  0  0  0  0  0  0  0
   25.2147  -21.1904   -7.3143 C   0  0  0  0  0  0  0  0  0  0  0  0
   24.1258  -20.7817   -7.8131 O   0  0  0  0  0  0  0  0  0  0  0  0
   25.1868  -21.9613   -6.1433 O   0  0  0  0  0  0  0  0  0  0  0  0
  1  2  1  0
  2  3  1  0
  4  3  1  0
  5  6  1  1
  5  1  1  0
  5  4  1  0
  6  7  2  0
  8  9  1  0
  9 10  2  0
  9 11  1  0
 12 11  1  6
 12 14  1  0
 13 12  1  0
 13  6  1  0
 14 15  2  0
 14 20  1  0
 17 16  1  6
 17 19  1  0
 18 17  1  0
 19 21  1  0
 19 20  1  6
 21 22  2  0
 21 23  1  0
M  END
$$$$
