QNV.pdb
     RDKit          3D

 25 24  0  0  1  0  0  0  0  0999 V2000
   21.6310   -5.6628  -12.7091 N   0  0  0  0  0  0  0  0  0  0  0  0
   21.0975   -5.6284  -14.0241 C   0  0  0  0  0  0  0  0  0  0  0  0
   20.7692   -4.5314  -14.5291 O   0  0  0  0  0  0  0  0  0  0  0  0
   20.9450   -6.8860  -14.7586 C   0  0  0  0  0  0  0  0  0  0  0  0
   21.3583   -8.0914  -13.9417 C   0  0  0  0  0  0  0  0  0  0  0  0
   20.2273   -9.1038  -13.8702 C   0  0  2  0  0  0  0  0  0  0  0  0
   20.0481   -9.6204  -15.2134 N   0  0  0  0  0  0  0  0  0  0  0  0
   18.9750   -8.5152  -13.3974 C   0  0  0  0  0  0  0  0  0  0  0  0
   18.0850   -8.1481  -14.2401 O   0  0  0  0  0  0  0  0  0  0  0  0
   15.0884   -6.7582  -10.3005 N   0  0  0  0  0  0  0  0  0  0  0  0
   16.0264   -7.4592   -9.5175 C   0  0  0  0  0  0  0  0  0  0  0  0
   15.7681   -7.7128   -8.3277 O   0  0  0  0  0  0  0  0  0  0  0  0
   17.3060   -7.8902  -10.1020 C   0  0  0  0  0  0  0  0  0  0  0  0
   17.3618   -7.7679  -11.6039 C   0  0  2  0  0  0  0  0  0  0  0  0
   18.6369   -8.3028  -12.0381 N   0  0  0  0  0  0  0  0  0  0  0  0
   17.2396   -6.3212  -11.9267 C   0  0  0  0  0  0  0  0  0  0  0  0
   18.2280   -5.5874  -11.6991 O   0  0  0  0  0  0  0  0  0  0  0  0
   16.8760   -4.5812  -15.1664 C   0  0  0  0  0  0  0  0  0  0  0  0
   15.7952   -4.0659  -14.2549 C   0  0  1  0  0  0  0  0  0  0  0  0
   14.4348   -4.5913  -14.5746 C   0  0  0  0  0  0  0  0  0  0  0  0
   16.0928   -4.3228  -12.7949 C   0  0  2  0  0  0  0  0  0  0  0  0
   16.0801   -5.7283  -12.4724 N   0  0  0  0  0  0  0  0  0  0  0  0
   15.1289   -3.6117  -11.9168 C   0  0  0  0  0  0  0  0  0  0  0  0
   15.1739   -2.2302  -11.7634 O   0  0  0  0  0  0  0  0  0  0  0  0
   14.2224   -4.2102  -11.2651 O   0  0  0  0  0  0  0  0  0  0  0  0
  2  1  1  0
  3  2  2  0
  4  2  1  0
  5  4  1  0
  6  5  1  0
  6  7  1  6
  8 15  1  0
  8  6  1  0
  9  8  2  0
 10 11  1  0
 11 13  1  0
 12 11  2  0
 14 13  1  1
 14 15  1  0
 16 14  1  0
 17 16  2  0
 19 18  1  6
 19 21  1  0
 19 20  1  0
 21 23  1  0
 21 22  1  6
 22 16  1  0
 23 24  1  0
 25 23  2  0
M  END
$$$$
