QNV.pdb
     RDKit          3D

 25 24  0  0  1  0  0  0  0  0999 V2000
   18.0872  -20.8786    3.5184 N   0  0  0  0  0  0  0  0  0  0  0  0
   16.8920  -20.8679    2.7526 C   0  0  0  0  0  0  0  0  0  0  0  0
   16.6199  -21.8442    2.0184 O   0  0  0  0  0  0  0  0  0  0  0  0
   16.0043  -19.7069    2.8434 C   0  0  0  0  0  0  0  0  0  0  0  0
   16.5506  -18.6256    3.7510 C   0  0  0  0  0  0  0  0  0  0  0  0
   15.6219  -18.3974    4.9320 C   0  0  2  0  0  0  0  0  0  0  0  0
   14.4582  -17.7028    4.4159 N   0  0  0  0  0  0  0  0  0  0  0  0
   16.2426  -17.6004    5.9894 C   0  0  0  0  0  0  0  0  0  0  0  0
   15.8304  -16.4107    6.2164 O   0  0  0  0  0  0  0  0  0  0  0  0
   16.5359  -15.8867   10.7956 N   0  0  0  0  0  0  0  0  0  0  0  0
   17.3608  -16.9525   10.3859 C   0  0  0  0  0  0  0  0  0  0  0  0
   18.3667  -17.2450   11.0561 O   0  0  0  0  0  0  0  0  0  0  0  0
   17.0361  -17.7172    9.1717 C   0  0  0  0  0  0  0  0  0  0  0  0
   17.8007  -17.2742    7.9498 C   0  0  2  0  0  0  0  0  0  0  0  0
   17.3020  -18.0367    6.8227 N   0  0  0  0  0  0  0  0  0  0  0  0
   19.2371  -17.5608    8.2086 C   0  0  0  0  0  0  0  0  0  0  0  0
   19.6436  -18.7283    8.0107 O   0  0  0  0  0  0  0  0  0  0  0  0
   22.4093  -14.7673    8.0033 C   0  0  0  0  0  0  0  0  0  0  0  0
   22.4386  -15.7881    9.1085 C   0  0  1  0  0  0  0  0  0  0  0  0
   22.0999  -15.2326   10.4523 C   0  0  0  0  0  0  0  0  0  0  0  0
   21.5476  -16.9770    8.8273 C   0  0  2  0  0  0  0  0  0  0  0  0
   20.1657  -16.5990    8.6624 N   0  0  0  0  0  0  0  0  0  0  0  0
   21.6505  -17.9927    9.9059 C   0  0  0  0  0  0  0  0  0  0  0  0
   20.5739  -18.2724   10.7407 O   0  0  0  0  0  0  0  0  0  0  0  0
   22.7074  -18.6550   10.1275 O   0  0  0  0  0  0  0  0  0  0  0  0
  2  1  1  0
  3  2  2  0
  4  2  1  0
  5  4  1  0
  6  5  1  0
  6  7  1  6
  8 15  1  0
  8  6  1  0
  9  8  2  0
 10 11  1  0
 11 13  1  0
 12 11  2  0
 14 13  1  1
 14 15  1  0
 16 14  1  0
 17 16  2  0
 19 18  1  6
 19 21  1  0
 19 20  1  0
 21 23  1  0
 21 22  1  1
 22 16  1  0
 23 24  1  0
 25 23  2  0
M  END
$$$$
