QNV.pdb
     RDKit          3D

 25 24  0  0  1  0  0  0  0  0999 V2000
   17.9771  -15.9200  -14.6574 N   0  0  0  0  0  0  0  0  0  0  0  0
   17.7280  -14.9562  -15.6692 C   0  0  0  0  0  0  0  0  0  0  0  0
   18.0825  -15.1905  -16.8464 O   0  0  0  0  0  0  0  0  0  0  0  0
   17.0587  -13.7056  -15.3054 C   0  0  0  0  0  0  0  0  0  0  0  0
   17.8023  -12.4825  -15.7977 C   0  0  0  0  0  0  0  0  0  0  0  0
   16.8299  -11.3664  -16.1415 C   0  0  2  0  0  0  0  0  0  0  0  0
   16.1144  -11.7915  -17.3292 N   0  0  0  0  0  0  0  0  0  0  0  0
   17.5031  -10.0944  -16.4008 C   0  0  0  0  0  0  0  0  0  0  0  0
   18.1648   -9.9323  -17.4838 O   0  0  0  0  0  0  0  0  0  0  0  0
   17.1795   -4.1672  -15.1592 N   0  0  0  0  0  0  0  0  0  0  0  0
   17.7350   -5.2706  -15.8362 C   0  0  0  0  0  0  0  0  0  0  0  0
   18.7086   -5.1027  -16.5915 O   0  0  0  0  0  0  0  0  0  0  0  0
   17.1680   -6.6157  -15.6524 C   0  0  0  0  0  0  0  0  0  0  0  0
   18.1713   -7.7284  -15.8233 C   0  0  2  0  0  0  0  0  0  0  0  0
   17.4934   -8.9758  -15.5315 N   0  0  0  0  0  0  0  0  0  0  0  0
   19.2750   -7.4699  -14.8604 C   0  0  0  0  0  0  0  0  0  0  0  0
   19.0333   -7.6233  -13.6416 O   0  0  0  0  0  0  0  0  0  0  0  0
   22.6966   -9.0448  -14.2117 C   0  0  0  0  0  0  0  0  0  0  0  0
   22.8429   -7.5662  -14.4497 C   0  0  1  0  0  0  0  0  0  0  0  0
   23.3694   -7.2220  -15.8037 C   0  0  0  0  0  0  0  0  0  0  0  0
   21.5564   -6.8078  -14.2131 C   0  0  2  0  0  0  0  0  0  0  0  0
   20.5736   -7.0636  -15.2370 N   0  0  0  0  0  0  0  0  0  0  0  0
   21.8025   -5.3457  -14.1271 C   0  0  0  0  0  0  0  0  0  0  0  0
   22.4332   -4.7825  -13.0229 O   0  0  0  0  0  0  0  0  0  0  0  0
   21.4588   -4.5362  -15.0388 O   0  0  0  0  0  0  0  0  0  0  0  0
  2  1  1  0
  3  2  2  0
  4  2  1  0
  5  4  1  0
  6  5  1  0
  6  7  1  6
  8 15  1  0
  8  6  1  0
  9  8  2  0
 10 11  1  0
 11 13  1  0
 12 11  2  0
 14 13  1  1
 14 15  1  0
 16 14  1  0
 17 16  2  0
 19 18  1  6
 19 21  1  0
 19 20  1  0
 21 23  1  0
 21 22  1  6
 22 16  1  0
 23 24  1  0
 25 23  2  0
M  END
$$$$
