QNV.pdb
     RDKit          3D

 25 24  0  0  1  0  0  0  0  0999 V2000
   20.1956  -16.4892  -14.8084 N   0  0  0  0  0  0  0  0  0  0  0  0
   18.9353  -16.9909  -15.2262 C   0  0  0  0  0  0  0  0  0  0  0  0
   18.5023  -18.0584  -14.7372 O   0  0  0  0  0  0  0  0  0  0  0  0
   18.1711  -16.2405  -16.2249 C   0  0  0  0  0  0  0  0  0  0  0  0
   18.7571  -14.8720  -16.4989 C   0  0  0  0  0  0  0  0  0  0  0  0
   17.8492  -14.0750  -17.4207 C   0  0  2  0  0  0  0  0  0  0  0  0
   17.9880  -14.6555  -18.7424 N   0  0  0  0  0  0  0  0  0  0  0  0
   18.2003  -12.6561  -17.4664 C   0  0  0  0  0  0  0  0  0  0  0  0
   19.0478  -12.2365  -18.3280 O   0  0  0  0  0  0  0  0  0  0  0  0
   18.3198   -7.4779  -16.6995 N   0  0  0  0  0  0  0  0  0  0  0  0
   17.0288   -7.9902  -16.4648 C   0  0  0  0  0  0  0  0  0  0  0  0
   16.0824   -7.2076  -16.2687 O   0  0  0  0  0  0  0  0  0  0  0  0
   16.7986   -9.4433  -16.4512 C   0  0  0  0  0  0  0  0  0  0  0  0
   18.0446  -10.2598  -16.6847 C   0  0  2  0  0  0  0  0  0  0  0  0
   17.6701  -11.6580  -16.6121 N   0  0  0  0  0  0  0  0  0  0  0  0
   19.0087   -9.8977  -15.6116 C   0  0  0  0  0  0  0  0  0  0  0  0
   18.6719  -10.1186  -14.4263 O   0  0  0  0  0  0  0  0  0  0  0  0
   22.6921  -10.9785  -15.0620 C   0  0  0  0  0  0  0  0  0  0  0  0
   22.5627   -9.4820  -14.9727 C   0  0  1  0  0  0  0  0  0  0  0  0
   23.1062   -8.7573  -16.1595 C   0  0  0  0  0  0  0  0  0  0  0  0
   21.1392   -9.0337  -14.7302 C   0  0  2  0  0  0  0  0  0  0  0  0
   20.2760   -9.3221  -15.8488 N   0  0  0  0  0  0  0  0  0  0  0  0
   21.0774   -7.5809  -14.4278 C   0  0  0  0  0  0  0  0  0  0  0  0
   21.5033   -7.0787  -13.2028 O   0  0  0  0  0  0  0  0  0  0  0  0
   20.6404   -6.7252  -15.2533 O   0  0  0  0  0  0  0  0  0  0  0  0
  2  1  1  0
  3  2  2  0
  4  2  1  0
  5  4  1  0
  6  5  1  0
  6  7  1  6
  8 15  1  0
  8  6  1  0
  9  8  2  0
 10 11  1  0
 11 13  1  0
 12 11  2  0
 14 13  1  1
 14 15  1  0
 16 14  1  0
 17 16  2  0
 19 18  1  6
 19 21  1  0
 19 20  1  0
 21 23  1  0
 21 22  1  6
 22 16  1  0
 23 24  1  0
 25 23  2  0
M  END
$$$$
