QNV.pdb
     RDKit          3D

 25 24  0  0  1  0  0  0  0  0999 V2000
   12.8729  -14.8956  -13.9228 N   0  0  0  0  0  0  0  0  0  0  0  0
   12.3248  -13.8533  -14.7152 C   0  0  0  0  0  0  0  0  0  0  0  0
   11.4207  -14.1145  -15.5401 O   0  0  0  0  0  0  0  0  0  0  0  0
   12.8357  -12.4916  -14.5443 C   0  0  0  0  0  0  0  0  0  0  0  0
   13.8994  -12.3991  -13.4713 C   0  0  0  0  0  0  0  0  0  0  0  0
   15.1778  -11.8006  -14.0341 C   0  0  2  0  0  0  0  0  0  0  0  0
   16.0858  -12.9071  -14.2670 N   0  0  0  0  0  0  0  0  0  0  0  0
   15.7968  -10.8387  -13.1229 C   0  0  0  0  0  0  0  0  0  0  0  0
   16.1260  -11.2010  -11.9409 O   0  0  0  0  0  0  0  0  0  0  0  0
   18.3579   -6.7387  -11.1639 N   0  0  0  0  0  0  0  0  0  0  0  0
   18.5015   -6.7928  -12.5642 C   0  0  0  0  0  0  0  0  0  0  0  0
   19.3299   -6.0555  -13.1269 O   0  0  0  0  0  0  0  0  0  0  0  0
   17.6767   -7.7161  -13.3592 C   0  0  0  0  0  0  0  0  0  0  0  0
   16.7589   -8.5800  -12.5314 C   0  0  2  0  0  0  0  0  0  0  0  0
   16.0794   -9.4862  -13.4356 N   0  0  0  0  0  0  0  0  0  0  0  0
   15.8003   -7.6684  -11.8515 C   0  0  0  0  0  0  0  0  0  0  0  0
   14.9724   -7.0564  -12.5637 O   0  0  0  0  0  0  0  0  0  0  0  0
   13.3881   -8.3987   -8.8857 C   0  0  0  0  0  0  0  0  0  0  0  0
   14.1485   -7.1231   -8.6428 C   0  0  1  0  0  0  0  0  0  0  0  0
   15.1992   -7.2383   -7.5884 C   0  0  0  0  0  0  0  0  0  0  0  0
   14.7730   -6.5681   -9.9031 C   0  0  2  0  0  0  0  0  0  0  0  0
   15.7685   -7.4527  -10.4565 N   0  0  0  0  0  0  0  0  0  0  0  0
   15.3846   -5.2370   -9.6585 C   0  0  0  0  0  0  0  0  0  0  0  0
   16.7586   -5.0440   -9.7544 O   0  0  0  0  0  0  0  0  0  0  0  0
   14.7035   -4.2136   -9.3528 O   0  0  0  0  0  0  0  0  0  0  0  0
  2  1  1  0
  3  2  2  0
  4  2  1  0
  5  4  1  0
  6  5  1  0
  6  7  1  1
  8 15  1  0
  8  6  1  0
  9  8  2  0
 10 11  1  0
 11 13  1  0
 12 11  2  0
 14 13  1  6
 14 15  1  0
 16 14  1  0
 17 16  2  0
 19 18  1  6
 19 21  1  0
 19 20  1  0
 21 23  1  0
 21 22  1  1
 22 16  1  0
 23 24  1  0
 25 23  2  0
M  END
$$$$
