QNV.pdb
     RDKit          3D

 25 24  0  0  1  0  0  0  0  0999 V2000
   26.6571  -18.5462  -16.7592 N   0  0  0  0  0  0  0  0  0  0  0  0
   27.3519  -19.4710  -17.5819 C   0  0  0  0  0  0  0  0  0  0  0  0
   28.3517  -19.0905  -18.2313 O   0  0  0  0  0  0  0  0  0  0  0  0
   26.8765  -20.8545  -17.6485 C   0  0  0  0  0  0  0  0  0  0  0  0
   25.7216  -21.1194  -16.7065 C   0  0  0  0  0  0  0  0  0  0  0  0
   26.2089  -21.8030  -15.4399 C   0  0  2  0  0  0  0  0  0  0  0  0
   26.7003  -23.1085  -15.8364 N   0  0  0  0  0  0  0  0  0  0  0  0
   25.1513  -21.9570  -14.4417 C   0  0  0  0  0  0  0  0  0  0  0  0
   25.4552  -22.0855  -13.2056 O   0  0  0  0  0  0  0  0  0  0  0  0
   21.9218  -19.9018  -11.3753 N   0  0  0  0  0  0  0  0  0  0  0  0
   22.0108  -19.3965  -12.6872 C   0  0  0  0  0  0  0  0  0  0  0  0
   21.3107  -18.4244  -13.0211 O   0  0  0  0  0  0  0  0  0  0  0  0
   22.9264  -20.0141  -13.6593 C   0  0  0  0  0  0  0  0  0  0  0  0
   22.7511  -21.5052  -13.7994 C   0  0  2  0  0  0  0  0  0  0  0  0
   23.7630  -21.9786  -14.7228 N   0  0  0  0  0  0  0  0  0  0  0  0
   21.3803  -21.7335  -14.3294 C   0  0  0  0  0  0  0  0  0  0  0  0
   21.0793  -21.1953  -15.4189 O   0  0  0  0  0  0  0  0  0  0  0  0
   19.5530  -25.3141  -14.2193 C   0  0  0  0  0  0  0  0  0  0  0  0
   18.6102  -24.1719  -13.9528 C   0  0  1  0  0  0  0  0  0  0  0  0
   18.1571  -24.0820  -12.5332 C   0  0  0  0  0  0  0  0  0  0  0  0
   19.1793  -22.8361  -14.3747 C   0  0  2  0  0  0  0  0  0  0  0  0
   20.4022  -22.5178  -13.6799 N   0  0  0  0  0  0  0  0  0  0  0  0
   18.1976  -21.7422  -14.1613 C   0  0  0  0  0  0  0  0  0  0  0  0
   17.0714  -21.6141  -14.9672 O   0  0  0  0  0  0  0  0  0  0  0  0
   18.3242  -20.8739  -13.2478 O   0  0  0  0  0  0  0  0  0  0  0  0
  2  1  1  0
  3  2  2  0
  4  2  1  0
  5  4  1  0
  6  5  1  0
  6  7  1  6
  8 15  1  0
  8  6  1  0
  9  8  2  0
 10 11  1  0
 11 13  1  0
 12 11  2  0
 14 13  1  6
 14 15  1  0
 16 14  1  0
 17 16  2  0
 19 18  1  1
 19 21  1  0
 19 20  1  0
 21 23  1  0
 21 22  1  1
 22 16  1  0
 23 24  1  0
 25 23  2  0
M  END
$$$$
