QNV.pdb
     RDKit          3D

 25 24  0  0  1  0  0  0  0  0999 V2000
   18.0659  -19.7225  -15.3763 N   0  0  0  0  0  0  0  0  0  0  0  0
   18.8703  -19.7213  -16.5458 C   0  0  0  0  0  0  0  0  0  0  0  0
   19.0558  -20.7904  -17.1692 O   0  0  0  0  0  0  0  0  0  0  0  0
   19.4651  -18.4604  -16.9938 C   0  0  0  0  0  0  0  0  0  0  0  0
   19.1326  -17.3018  -16.0781 C   0  0  0  0  0  0  0  0  0  0  0  0
   18.3422  -16.2392  -16.8234 C   0  0  2  0  0  0  0  0  0  0  0  0
   18.6714  -16.3870  -18.2280 N   0  0  0  0  0  0  0  0  0  0  0  0
   18.6669  -14.8837  -16.3812 C   0  0  0  0  0  0  0  0  0  0  0  0
   18.5104  -14.5588  -15.1537 O   0  0  0  0  0  0  0  0  0  0  0  0
   22.1023  -10.2273  -16.7387 N   0  0  0  0  0  0  0  0  0  0  0  0
   20.8789  -10.5498  -17.3581 C   0  0  0  0  0  0  0  0  0  0  0  0
   20.0853   -9.6421  -17.6629 O   0  0  0  0  0  0  0  0  0  0  0  0
   20.5394  -11.9525  -17.6441 C   0  0  0  0  0  0  0  0  0  0  0  0
   19.4713  -12.5171  -16.7418 C   0  0  2  0  0  0  0  0  0  0  0  0
   19.1593  -13.8506  -17.2163 N   0  0  0  0  0  0  0  0  0  0  0  0
   18.2944  -11.6135  -16.8436 C   0  0  0  0  0  0  0  0  0  0  0  0
   17.7444  -11.4960  -17.9621 O   0  0  0  0  0  0  0  0  0  0  0  0
   14.8567  -11.8003  -15.5429 C   0  0  0  0  0  0  0  0  0  0  0  0
   15.4283  -10.4738  -15.1210 C   0  0  1  0  0  0  0  0  0  0  0  0
   15.8207  -10.4160  -13.6817 C   0  0  0  0  0  0  0  0  0  0  0  0
   16.6049  -10.0495  -15.9706 C   0  0  2  0  0  0  0  0  0  0  0  0
   17.7624  -10.8832  -15.7586 N   0  0  0  0  0  0  0  0  0  0  0  0
   16.9699   -8.6329  -15.7142 C   0  0  0  0  0  0  0  0  0  0  0  0
   16.1483   -7.5888  -16.1253 O   0  0  0  0  0  0  0  0  0  0  0  0
   18.0340   -8.2951  -15.1156 O   0  0  0  0  0  0  0  0  0  0  0  0
  2  1  1  0
  3  2  2  0
  4  2  1  0
  5  4  1  0
  6  5  1  0
  6  7  1  6
  8 15  1  0
  8  6  1  0
  9  8  2  0
 10 11  1  0
 11 13  1  0
 12 11  2  0
 14 13  1  6
 14 15  1  0
 16 14  1  0
 17 16  2  0
 19 18  1  6
 19 21  1  0
 19 20  1  0
 21 23  1  0
 21 22  1  1
 22 16  1  0
 23 24  1  0
 25 23  2  0
M  END
$$$$
