WGI.pdb
     RDKit          3D

 27 28  0  0  1  0  0  0  0  0999 V2000
    7.4243  -18.4668   25.8686 N   0  0  0  0  0  0  0  0  0  0  0  0
    7.0313  -17.5363   24.8411 C   0  0  1  0  0  0  0  0  0  0  0  0
    7.8931  -16.2706   24.8955 C   0  0  0  0  0  0  0  0  0  0  0  0
    7.0602  -15.1855   25.4584 C   0  0  0  0  0  0  0  0  0  0  0  0
    5.7197  -15.2071   25.7895 C   0  0  0  0  0  0  0  0  0  0  0  0
    5.3570  -13.9963   26.2761 N   0  0  0  0  0  0  0  0  0  0  0  0
    6.4316  -13.1906   26.2676 C   0  0  0  0  0  0  0  0  0  0  0  0
    6.6473  -11.8801   26.6398 C   0  0  0  0  0  0  0  0  0  0  0  0
    7.8970  -11.3032   26.5120 C   0  0  0  0  0  0  0  0  0  0  0  0
    8.9629  -12.0205   26.0092 C   0  0  0  0  0  0  0  0  0  0  0  0
    8.7629  -13.3274   25.6341 C   0  0  0  0  0  0  0  0  0  0  0  0
    7.5042  -13.9207   25.7588 C   0  0  0  0  0  0  0  0  0  0  0  0
    7.2646  -18.1282   23.5045 C   0  0  0  0  0  0  0  0  0  0  0  0
    8.2777  -18.8210   23.2343 O   0  0  0  0  0  0  0  0  0  0  0  0
    6.3068  -17.9065   22.4820 N   0  0  0  0  0  0  0  0  0  0  0  0
    6.5628  -18.3959   21.1572 C   0  0  0  0  0  0  0  0  0  0  0  0
    7.4461  -17.4855   20.3866 C   0  0  0  0  0  0  0  0  0  0  0  0
    7.6081  -17.7000   19.1511 O   0  0  0  0  0  0  0  0  0  0  0  0
    6.8270  -12.5335   19.6161 C   0  0  0  0  0  0  0  0  0  0  0  0
    7.3069  -13.9366   19.5597 C   0  0  0  0  0  0  0  0  0  0  0  0
    8.6315  -14.1631   20.2309 C   0  0  2  0  0  0  0  0  0  0  0  0
    9.7144  -13.2956   19.6285 C   0  0  0  0  0  0  0  0  0  0  0  0
    9.0886  -15.5868   20.1935 C   0  0  2  0  0  0  0  0  0  0  0  0
    8.1266  -16.3786   20.9543 N   0  0  0  0  0  0  0  0  0  0  0  0
   10.4369  -15.7824   20.7843 C   0  0  0  0  0  0  0  0  0  0  0  0
   11.4886  -15.4480   20.1821 O   0  0  0  0  0  0  0  0  0  0  0  0
   10.6241  -16.3536   22.0541 O   0  0  0  0  0  0  0  0  0  0  0  0
  2  1  1  1
  3  2  1  0
  4  3  1  0
  4  5  2  0
  6  5  1  0
  7  6  1  0
  8  7  2  0
  9  8  1  0
 10  9  2  0
 10 11  1  0
 11 12  2  0
 12  7  1  0
 12  4  1  0
 13  2  1  0
 13 14  2  0
 15 16  1  0
 15 13  1  0
 17 18  2  0
 17 16  1  0
 20 19  1  0
 20 21  1  0
 21 22  1  6
 23 21  1  0
 23 24  1  1
 24 17  1  0
 25 23  1  0
 26 25  2  0
 27 25  1  0
M  END
$$$$
