WGI.pdb
     RDKit          3D

 27 28  0  0  1  0  0  0  0  0999 V2000
    7.0895  -19.0251   22.5481 N   0  0  0  0  0  0  0  0  0  0  0  0
    7.8684  -17.8264   22.3681 C   0  0  1  0  0  0  0  0  0  0  0  0
    7.1891  -16.6303   23.0429 C   0  0  0  0  0  0  0  0  0  0  0  0
    6.7870  -15.6846   21.9789 C   0  0  0  0  0  0  0  0  0  0  0  0
    5.5356  -15.4791   21.4320 C   0  0  0  0  0  0  0  0  0  0  0  0
    5.6124  -14.5163   20.4825 N   0  0  0  0  0  0  0  0  0  0  0  0
    6.8847  -14.0935   20.4015 C   0  0  0  0  0  0  0  0  0  0  0  0
    7.5324  -13.1529   19.6280 C   0  0  0  0  0  0  0  0  0  0  0  0
    8.8893  -12.9301   19.7708 C   0  0  0  0  0  0  0  0  0  0  0  0
    9.6334  -13.6411   20.6895 C   0  0  0  0  0  0  0  0  0  0  0  0
    9.0016  -14.5817   21.4671 C   0  0  0  0  0  0  0  0  0  0  0  0
    7.6308  -14.8152   21.3314 C   0  0  0  0  0  0  0  0  0  0  0  0
    9.1841  -17.9720   23.0308 C   0  0  0  0  0  0  0  0  0  0  0  0
    9.5838  -19.0590   23.5188 O   0  0  0  0  0  0  0  0  0  0  0  0
   10.0331  -16.8394   23.1216 N   0  0  0  0  0  0  0  0  0  0  0  0
   11.3569  -16.9907   23.6549 C   0  0  0  0  0  0  0  0  0  0  0  0
   11.4848  -16.3967   25.0090 C   0  0  0  0  0  0  0  0  0  0  0  0
   12.6420  -16.2203   25.4870 O   0  0  0  0  0  0  0  0  0  0  0  0
    7.8379  -12.8528   26.2646 C   0  0  0  0  0  0  0  0  0  0  0  0
    9.1308  -13.5766   26.1837 C   0  0  0  0  0  0  0  0  0  0  0  0
    9.4091  -14.4755   27.3546 C   0  0  2  0  0  0  0  0  0  0  0  0
    9.6821  -13.6802   28.6121 C   0  0  0  0  0  0  0  0  0  0  0  0
   10.5497  -15.4170   27.1318 C   0  0  2  0  0  0  0  0  0  0  0  0
   10.3795  -16.0102   25.8088 N   0  0  0  0  0  0  0  0  0  0  0  0
   10.6102  -16.5085   28.1369 C   0  0  0  0  0  0  0  0  0  0  0  0
   11.0068  -16.3157   29.3142 O   0  0  0  0  0  0  0  0  0  0  0  0
   10.2280  -17.8267   27.8370 O   0  0  0  0  0  0  0  0  0  0  0  0
  2  1  1  1
  3  2  1  0
  4  3  1  0
  4  5  2  0
  6  5  1  0
  7  6  1  0
  8  7  2  0
  9  8  1  0
 10  9  2  0
 10 11  1  0
 11 12  2  0
 12  7  1  0
 12  4  1  0
 13  2  1  0
 13 14  2  0
 15 16  1  0
 15 13  1  0
 17 18  2  0
 17 16  1  0
 20 19  1  0
 20 21  1  0
 21 22  1  1
 23 21  1  0
 23 24  1  6
 24 17  1  0
 25 23  1  0
 26 25  2  0
 27 25  1  0
M  END
$$$$
