WGI.pdb
     RDKit          3D

 27 28  0  0  1  0  0  0  0  0999 V2000
    6.0926  -17.3077   24.2138 N   0  0  0  0  0  0  0  0  0  0  0  0
    7.2627  -16.5503   23.8487 C   0  0  1  0  0  0  0  0  0  0  0  0
    8.1600  -16.3149   25.0681 C   0  0  0  0  0  0  0  0  0  0  0  0
    7.4059  -15.4746   26.0237 C   0  0  0  0  0  0  0  0  0  0  0  0
    6.5442  -15.8683   27.0286 C   0  0  0  0  0  0  0  0  0  0  0  0
    6.0694  -14.7731   27.6686 N   0  0  0  0  0  0  0  0  0  0  0  0
    6.6035  -13.6790   27.1014 C   0  0  0  0  0  0  0  0  0  0  0  0
    6.4821  -12.3250   27.3344 C   0  0  0  0  0  0  0  0  0  0  0  0
    7.1743  -11.4082   26.5655 C   0  0  0  0  0  0  0  0  0  0  0  0
    8.0054  -11.8207   25.5444 C   0  0  0  0  0  0  0  0  0  0  0  0
    8.1362  -13.1668   25.3005 C   0  0  0  0  0  0  0  0  0  0  0  0
    7.4413  -14.1022   26.0713 C   0  0  0  0  0  0  0  0  0  0  0  0
    8.0829  -17.3172   22.8841 C   0  0  0  0  0  0  0  0  0  0  0  0
    9.3362  -17.2358   22.8406 O   0  0  0  0  0  0  0  0  0  0  0  0
    7.4309  -18.1818   21.9679 N   0  0  0  0  0  0  0  0  0  0  0  0
    8.1938  -18.8148   20.9300 C   0  0  0  0  0  0  0  0  0  0  0  0
    8.6845  -17.8402   19.9240 C   0  0  0  0  0  0  0  0  0  0  0  0
    9.3485  -18.2695   18.9373 O   0  0  0  0  0  0  0  0  0  0  0  0
    8.0242  -12.0643   20.3548 C   0  0  0  0  0  0  0  0  0  0  0  0
    8.6651  -13.3961   20.2214 C   0  0  0  0  0  0  0  0  0  0  0  0
    8.0867  -14.2528   19.1316 C   0  0  2  0  0  0  0  0  0  0  0  0
    6.6319  -14.5750   19.3921 C   0  0  0  0  0  0  0  0  0  0  0  0
    8.8259  -15.5356   18.9192 C   0  0  2  0  0  0  0  0  0  0  0  0
    8.4528  -16.4433   20.0000 N   0  0  0  0  0  0  0  0  0  0  0  0
   10.3013  -15.3674   18.9288 C   0  0  0  0  0  0  0  0  0  0  0  0
   10.9345  -14.9389   17.9309 O   0  0  0  0  0  0  0  0  0  0  0  0
   11.0843  -15.6761   20.0536 O   0  0  0  0  0  0  0  0  0  0  0  0
  2  1  1  1
  3  2  1  0
  4  3  1  0
  4  5  2  0
  6  5  1  0
  7  6  1  0
  8  7  2  0
  9  8  1  0
 10  9  2  0
 10 11  1  0
 11 12  2  0
 12  7  1  0
 12  4  1  0
 13  2  1  0
 13 14  2  0
 15 16  1  0
 15 13  1  0
 17 18  2  0
 17 16  1  0
 20 19  1  0
 20 21  1  0
 21 22  1  1
 23 21  1  0
 23 24  1  1
 24 17  1  0
 25 23  1  0
 26 25  2  0
 27 25  1  0
M  END
$$$$
