WGI.pdb
     RDKit          3D

 27 28  0  0  1  0  0  0  0  0999 V2000
    7.7570  -16.9128   23.6773 N   0  0  0  0  0  0  0  0  0  0  0  0
    8.5648  -15.7956   23.2586 C   0  0  1  0  0  0  0  0  0  0  0  0
    8.7613  -14.8050   24.4108 C   0  0  0  0  0  0  0  0  0  0  0  0
    7.4210  -14.4220   24.9058 C   0  0  0  0  0  0  0  0  0  0  0  0
    6.2862  -15.2006   25.0199 C   0  0  0  0  0  0  0  0  0  0  0  0
    5.2755  -14.4516   25.5218 N   0  0  0  0  0  0  0  0  0  0  0  0
    5.7294  -13.2056   25.7352 C   0  0  0  0  0  0  0  0  0  0  0  0
    5.1562  -12.0493   26.2219 C   0  0  0  0  0  0  0  0  0  0  0  0
    5.8922  -10.8842   26.3302 C   0  0  0  0  0  0  0  0  0  0  0  0
    7.2193  -10.8445   25.9552 C   0  0  0  0  0  0  0  0  0  0  0  0
    7.8039  -11.9890   25.4684 C   0  0  0  0  0  0  0  0  0  0  0  0
    7.0696  -13.1722   25.3545 C   0  0  0  0  0  0  0  0  0  0  0  0
    9.9206  -16.2604   22.8883 C   0  0  0  0  0  0  0  0  0  0  0  0
   10.7464  -15.5345   22.2796 O   0  0  0  0  0  0  0  0  0  0  0  0
   10.3086  -17.5805   23.2328 N   0  0  0  0  0  0  0  0  0  0  0  0
   11.6903  -17.8630   23.4994 C   0  0  0  0  0  0  0  0  0  0  0  0
   12.0706  -17.5244   24.8935 C   0  0  0  0  0  0  0  0  0  0  0  0
   13.2669  -17.7107   25.2580 O   0  0  0  0  0  0  0  0  0  0  0  0
   10.2940  -13.1023   27.2914 C   0  0  0  0  0  0  0  0  0  0  0  0
   11.0990  -14.2838   26.8937 C   0  0  0  0  0  0  0  0  0  0  0  0
   10.8109  -15.5236   27.6913 C   0  0  2  0  0  0  0  0  0  0  0  0
   11.0928  -15.3148   29.1627 C   0  0  0  0  0  0  0  0  0  0  0  0
   11.5707  -16.7260   27.2287 C   0  0  2  0  0  0  0  0  0  0  0  0
   11.1676  -16.9994   25.8525 N   0  0  0  0  0  0  0  0  0  0  0  0
   11.3062  -17.9348   28.0497 C   0  0  0  0  0  0  0  0  0  0  0  0
   11.7540  -18.0644   29.2172 O   0  0  0  0  0  0  0  0  0  0  0  0
   10.5385  -19.0112   27.5746 O   0  0  0  0  0  0  0  0  0  0  0  0
  2  1  1  1
  3  2  1  0
  4  3  1  0
  4  5  2  0
  6  5  1  0
  7  6  1  0
  8  7  2  0
  9  8  1  0
 10  9  2  0
 10 11  1  0
 11 12  2  0
 12  7  1  0
 12  4  1  0
 13  2  1  0
 13 14  2  0
 15 16  1  0
 15 13  1  0
 17 18  2  0
 17 16  1  0
 20 19  1  0
 20 21  1  0
 21 22  1  1
 23 21  1  0
 23 24  1  6
 24 17  1  0
 25 23  1  0
 26 25  2  0
 27 25  1  0
M  END
$$$$
