WGI.pdb
     RDKit          3D

 27 28  0  0  1  0  0  0  0  0999 V2000
    8.1551  -17.2232   23.7006 N   0  0  0  0  0  0  0  0  0  0  0  0
    9.0934  -16.1999   23.3153 C   0  0  1  0  0  0  0  0  0  0  0  0
    9.0101  -15.0006   24.2651 C   0  0  0  0  0  0  0  0  0  0  0  0
    7.8095  -14.2193   23.8959 C   0  0  0  0  0  0  0  0  0  0  0  0
    6.6576  -14.0062   24.6274 C   0  0  0  0  0  0  0  0  0  0  0  0
    5.8090  -13.2286   23.9135 N   0  0  0  0  0  0  0  0  0  0  0  0
    6.3844  -12.9333   22.7363 C   0  0  0  0  0  0  0  0  0  0  0  0
    5.9929  -12.1951   21.6389 C   0  0  0  0  0  0  0  0  0  0  0  0
    6.8209  -12.0652   20.5396 C   0  0  0  0  0  0  0  0  0  0  0  0
    8.0609  -12.6692   20.5085 C   0  0  0  0  0  0  0  0  0  0  0  0
    8.4645  -13.4079   21.5948 C   0  0  0  0  0  0  0  0  0  0  0  0
    7.6359  -13.5460   22.7112 C   0  0  0  0  0  0  0  0  0  0  0  0
   10.4777  -16.7118   23.4296 C   0  0  0  0  0  0  0  0  0  0  0  0
   11.4830  -15.9579   23.4469 O   0  0  0  0  0  0  0  0  0  0  0  0
   10.6832  -18.1121   23.5237 N   0  0  0  0  0  0  0  0  0  0  0  0
   10.7310  -18.7330   24.8168 C   0  0  0  0  0  0  0  0  0  0  0  0
   11.3476  -17.8499   25.8379 C   0  0  0  0  0  0  0  0  0  0  0  0
   12.6073  -17.8355   25.9462 O   0  0  0  0  0  0  0  0  0  0  0  0
    9.6928  -13.0058   27.5847 C   0  0  0  0  0  0  0  0  0  0  0  0
   10.5173  -14.2061   27.2993 C   0  0  0  0  0  0  0  0  0  0  0  0
   10.4195  -15.2839   28.3410 C   0  0  2  0  0  0  0  0  0  0  0  0
   10.9265  -14.8056   29.6835 C   0  0  0  0  0  0  0  0  0  0  0  0
   11.1485  -16.5385   27.9783 C   0  0  2  0  0  0  0  0  0  0  0  0
   10.6054  -17.0122   26.7086 N   0  0  0  0  0  0  0  0  0  0  0  0
   10.9970  -17.6147   28.9902 C   0  0  0  0  0  0  0  0  0  0  0  0
   10.0727  -18.4648   28.9327 O   0  0  0  0  0  0  0  0  0  0  0  0
   11.8770  -17.7523   30.0766 O   0  0  0  0  0  0  0  0  0  0  0  0
  2  1  1  1
  3  2  1  0
  4  3  1  0
  4  5  2  0
  6  5  1  0
  7  6  1  0
  8  7  2  0
  9  8  1  0
 10  9  2  0
 10 11  1  0
 11 12  2  0
 12  7  1  0
 12  4  1  0
 13  2  1  0
 13 14  2  0
 15 16  1  0
 15 13  1  0
 17 18  2  0
 17 16  1  0
 20 19  1  0
 20 21  1  0
 21 22  1  1
 23 21  1  0
 23 24  1  6
 24 17  1  0
 25 23  1  0
 26 25  2  0
 27 25  1  0
M  END
$$$$
