WGI.pdb
     RDKit          3D

 27 28  0  0  1  0  0  0  0  0999 V2000
    8.1479  -17.5072   25.6554 N   0  0  0  0  0  0  0  0  0  0  0  0
    7.1873  -16.5340   25.2014 C   0  0  1  0  0  0  0  0  0  0  0  0
    7.8893  -15.2555   24.7321 C   0  0  0  0  0  0  0  0  0  0  0  0
    8.1818  -14.4394   25.9307 C   0  0  0  0  0  0  0  0  0  0  0  0
    9.2121  -14.5767   26.8401 C   0  0  0  0  0  0  0  0  0  0  0  0
    9.1068  -13.6144   27.7875 N   0  0  0  0  0  0  0  0  0  0  0  0
    8.0321  -12.8571   27.5129 C   0  0  0  0  0  0  0  0  0  0  0  0
    7.4533  -11.7623   28.1202 C   0  0  0  0  0  0  0  0  0  0  0  0
    6.3168  -11.1776   27.5935 C   0  0  0  0  0  0  0  0  0  0  0  0
    5.7295  -11.6717   26.4470 C   0  0  0  0  0  0  0  0  0  0  0  0
    6.2951  -12.7623   25.8310 C   0  0  0  0  0  0  0  0  0  0  0  0
    7.4437  -13.3612   26.3545 C   0  0  0  0  0  0  0  0  0  0  0  0
    6.4587  -17.0524   24.0217 C   0  0  0  0  0  0  0  0  0  0  0  0
    5.2643  -16.7508   23.7728 O   0  0  0  0  0  0  0  0  0  0  0  0
    7.1329  -17.9271   23.1317 N   0  0  0  0  0  0  0  0  0  0  0  0
    6.4904  -18.3252   21.9116 C   0  0  0  0  0  0  0  0  0  0  0  0
    7.0488  -17.6208   20.7307 C   0  0  0  0  0  0  0  0  0  0  0  0
    6.6583  -17.9652   19.5785 O   0  0  0  0  0  0  0  0  0  0  0  0
    8.3321  -12.2475   20.3470 C   0  0  0  0  0  0  0  0  0  0  0  0
    8.7260  -13.6672   20.5249 C   0  0  0  0  0  0  0  0  0  0  0  0
    8.1629  -14.5982   19.4894 C   0  0  2  0  0  0  0  0  0  0  0  0
    6.6503  -14.5980   19.5069 C   0  0  0  0  0  0  0  0  0  0  0  0
    8.6386  -16.0095   19.6276 C   0  0  2  0  0  0  0  0  0  0  0  0
    8.0025  -16.5747   20.8139 N   0  0  0  0  0  0  0  0  0  0  0  0
   10.1116  -16.1162   19.7828 C   0  0  0  0  0  0  0  0  0  0  0  0
   10.6526  -16.3877   20.8846 O   0  0  0  0  0  0  0  0  0  0  0  0
   10.9954  -15.9207   18.7083 O   0  0  0  0  0  0  0  0  0  0  0  0
  2  1  1  6
  3  2  1  0
  4  3  1  0
  4  5  2  0
  6  5  1  0
  7  6  1  0
  8  7  2  0
  9  8  1  0
 10  9  2  0
 10 11  1  0
 11 12  2  0
 12  7  1  0
 12  4  1  0
 13  2  1  0
 13 14  2  0
 15 16  1  0
 15 13  1  0
 17 18  2  0
 17 16  1  0
 20 19  1  0
 20 21  1  0
 21 22  1  1
 23 21  1  0
 23 24  1  1
 24 17  1  0
 25 23  1  0
 26 25  2  0
 27 25  1  0
M  END
$$$$
