WGI.pdb
     RDKit          3D

 27 28  0  0  1  0  0  0  0  0999 V2000
    7.6379  -17.1229   23.2250 N   0  0  0  0  0  0  0  0  0  0  0  0
    8.4230  -16.2637   22.3756 C   0  0  1  0  0  0  0  0  0  0  0  0
    8.0777  -14.7917   22.6235 C   0  0  0  0  0  0  0  0  0  0  0  0
    7.3088  -14.7183   23.8850 C   0  0  0  0  0  0  0  0  0  0  0  0
    6.7356  -15.7449   24.6095 C   0  0  0  0  0  0  0  0  0  0  0  0
    6.1241  -15.2351   25.7053 N   0  0  0  0  0  0  0  0  0  0  0  0
    6.2877  -13.9020   25.7072 C   0  0  0  0  0  0  0  0  0  0  0  0
    5.8890  -12.8908   26.5564 C   0  0  0  0  0  0  0  0  0  0  0  0
    6.2140  -11.5735   26.2920 C   0  0  0  0  0  0  0  0  0  0  0  0
    6.9453  -11.2327   25.1729 C   0  0  0  0  0  0  0  0  0  0  0  0
    7.3494  -12.2296   24.3176 C   0  0  0  0  0  0  0  0  0  0  0  0
    7.0266  -13.5644   24.5748 C   0  0  0  0  0  0  0  0  0  0  0  0
    9.8601  -16.4033   22.7021 C   0  0  0  0  0  0  0  0  0  0  0  0
   10.7409  -15.6353   22.2397 O   0  0  0  0  0  0  0  0  0  0  0  0
   10.2651  -17.4468   23.5733 N   0  0  0  0  0  0  0  0  0  0  0  0
   11.6529  -17.5841   23.9126 C   0  0  0  0  0  0  0  0  0  0  0  0
   11.9242  -17.2007   25.3205 C   0  0  0  0  0  0  0  0  0  0  0  0
   13.1259  -17.0976   25.7001 O   0  0  0  0  0  0  0  0  0  0  0  0
    9.0523  -13.4406   27.6757 C   0  0  0  0  0  0  0  0  0  0  0  0
   10.1121  -14.3965   27.2690 C   0  0  0  0  0  0  0  0  0  0  0  0
   10.2032  -15.6213   28.1338 C   0  0  2  0  0  0  0  0  0  0  0  0
   10.5083  -15.2640   29.5716 C   0  0  0  0  0  0  0  0  0  0  0  0
   11.2199  -16.6134   27.6656 C   0  0  2  0  0  0  0  0  0  0  0  0
   10.9102  -16.9396   26.2767 N   0  0  0  0  0  0  0  0  0  0  0  0
   11.2191  -17.8685   28.4592 C   0  0  0  0  0  0  0  0  0  0  0  0
   10.4990  -18.8536   28.1566 O   0  0  0  0  0  0  0  0  0  0  0  0
   12.0230  -18.0360   29.5991 O   0  0  0  0  0  0  0  0  0  0  0  0
  2  1  1  1
  3  2  1  0
  4  3  1  0
  4  5  2  0
  6  5  1  0
  7  6  1  0
  8  7  2  0
  9  8  1  0
 10  9  2  0
 10 11  1  0
 11 12  2  0
 12  7  1  0
 12  4  1  0
 13  2  1  0
 13 14  2  0
 15 16  1  0
 15 13  1  0
 17 18  2  0
 17 16  1  0
 20 19  1  0
 20 21  1  0
 21 22  1  1
 23 21  1  0
 23 24  1  6
 24 17  1  0
 25 23  1  0
 26 25  2  0
 27 25  1  0
M  END
$$$$
