WGI.pdb
     RDKit          3D

 27 28  0  0  1  0  0  0  0  0999 V2000
    7.5245  -17.1370   22.4096 N   0  0  0  0  0  0  0  0  0  0  0  0
    8.3508  -16.0715   21.9017 C   0  0  1  0  0  0  0  0  0  0  0  0
    7.7273  -14.7062   22.2099 C   0  0  0  0  0  0  0  0  0  0  0  0
    7.1944  -14.7582   23.5888 C   0  0  0  0  0  0  0  0  0  0  0  0
    6.8971  -15.8646   24.3600 C   0  0  0  0  0  0  0  0  0  0  0  0
    6.4321  -15.4603   25.5662 N   0  0  0  0  0  0  0  0  0  0  0  0
    6.4211  -14.1174   25.5940 C   0  0  0  0  0  0  0  0  0  0  0  0
    6.0551  -13.1835   26.5408 C   0  0  0  0  0  0  0  0  0  0  0  0
    6.1557  -11.8302   26.2777 C   0  0  0  0  0  0  0  0  0  0  0  0
    6.6243  -11.3753   25.0624 C   0  0  0  0  0  0  0  0  0  0  0  0
    6.9926  -12.2943   24.1093 C   0  0  0  0  0  0  0  0  0  0  0  0
    6.8952  -13.6645   24.3643 C   0  0  0  0  0  0  0  0  0  0  0  0
    9.6650  -16.0798   22.5830 C   0  0  0  0  0  0  0  0  0  0  0  0
   10.5389  -15.1981   22.3870 O   0  0  0  0  0  0  0  0  0  0  0  0
    9.9548  -17.1253   23.4966 N   0  0  0  0  0  0  0  0  0  0  0  0
   11.3210  -17.4135   23.8289 C   0  0  0  0  0  0  0  0  0  0  0  0
   11.6616  -16.9888   25.2096 C   0  0  0  0  0  0  0  0  0  0  0  0
   12.8738  -16.7709   25.4954 O   0  0  0  0  0  0  0  0  0  0  0  0
    9.1780  -13.1935   27.8034 C   0  0  0  0  0  0  0  0  0  0  0  0
   10.1527  -14.2103   27.3363 C   0  0  0  0  0  0  0  0  0  0  0  0
   10.1537  -15.4792   28.1403 C   0  0  2  0  0  0  0  0  0  0  0  0
   10.4907  -15.2164   29.5913 C   0  0  0  0  0  0  0  0  0  0  0  0
   11.0902  -16.5215   27.6170 C   0  0  2  0  0  0  0  0  0  0  0  0
   10.7031  -16.8099   26.2392 N   0  0  0  0  0  0  0  0  0  0  0  0
   11.0503  -17.7855   28.3955 C   0  0  0  0  0  0  0  0  0  0  0  0
   10.2392  -18.7097   28.1338 O   0  0  0  0  0  0  0  0  0  0  0  0
   11.9163  -18.0299   29.4743 O   0  0  0  0  0  0  0  0  0  0  0  0
  2  1  1  1
  3  2  1  0
  4  3  1  0
  4  5  2  0
  6  5  1  0
  7  6  1  0
  8  7  2  0
  9  8  1  0
 10  9  2  0
 10 11  1  0
 11 12  2  0
 12  7  1  0
 12  4  1  0
 13  2  1  0
 13 14  2  0
 15 16  1  0
 15 13  1  0
 17 18  2  0
 17 16  1  0
 20 19  1  0
 20 21  1  0
 21 22  1  1
 23 21  1  0
 23 24  1  6
 24 17  1  0
 25 23  1  0
 26 25  2  0
 27 25  1  0
M  END
$$$$
