WGI.pdb
     RDKit          3D

 27 28  0  0  1  0  0  0  0  0999 V2000
    7.6362  -17.6084   25.7204 N   0  0  0  0  0  0  0  0  0  0  0  0
    6.8919  -16.5423   25.0996 C   0  0  1  0  0  0  0  0  0  0  0  0
    7.7776  -15.3090   24.8944 C   0  0  0  0  0  0  0  0  0  0  0  0
    7.6441  -14.4568   26.0960 C   0  0  0  0  0  0  0  0  0  0  0  0
    6.5241  -13.8058   26.5746 C   0  0  0  0  0  0  0  0  0  0  0  0
    6.8436  -13.1345   27.7068 N   0  0  0  0  0  0  0  0  0  0  0  0
    8.1448  -13.3353   27.9725 C   0  0  0  0  0  0  0  0  0  0  0  0
    8.9939  -12.9075   28.9717 C   0  0  0  0  0  0  0  0  0  0  0  0
   10.3230  -13.2873   28.9836 C   0  0  0  0  0  0  0  0  0  0  0  0
   10.8377  -14.1038   27.9979 C   0  0  0  0  0  0  0  0  0  0  0  0
   10.0035  -14.5378   26.9957 C   0  0  0  0  0  0  0  0  0  0  0  0
    8.6585  -14.1603   26.9736 C   0  0  0  0  0  0  0  0  0  0  0  0
    6.4493  -16.9527   23.7479 C   0  0  0  0  0  0  0  0  0  0  0  0
    5.5815  -16.3206   23.0947 O   0  0  0  0  0  0  0  0  0  0  0  0
    7.0263  -18.1079   23.1609 N   0  0  0  0  0  0  0  0  0  0  0  0
    6.6461  -18.4881   21.8302 C   0  0  0  0  0  0  0  0  0  0  0  0
    7.2958  -17.6401   20.7999 C   0  0  0  0  0  0  0  0  0  0  0  0
    6.8907  -17.7204   19.6049 O   0  0  0  0  0  0  0  0  0  0  0  0
    7.2933  -12.6723   21.2889 C   0  0  0  0  0  0  0  0  0  0  0  0
    7.4173  -14.0483   20.7470 C   0  0  0  0  0  0  0  0  0  0  0  0
    8.8301  -14.4782   20.4724 C   0  0  2  0  0  0  0  0  0  0  0  0
    9.4850  -13.5990   19.4301 C   0  0  0  0  0  0  0  0  0  0  0  0
    8.9504  -15.9033   20.0343 C   0  0  2  0  0  0  0  0  0  0  0  0
    8.3530  -16.7358   21.0742 N   0  0  0  0  0  0  0  0  0  0  0  0
   10.3567  -16.3345   19.8307 C   0  0  0  0  0  0  0  0  0  0  0  0
   11.0338  -16.8693   20.7450 O   0  0  0  0  0  0  0  0  0  0  0  0
   11.0210  -16.1726   18.6034 O   0  0  0  0  0  0  0  0  0  0  0  0
  2  1  1  6
  3  2  1  0
  4  3  1  0
  4  5  2  0
  6  5  1  0
  7  6  1  0
  8  7  2  0
  9  8  1  0
 10  9  2  0
 10 11  1  0
 11 12  2  0
 12  7  1  0
 12  4  1  0
 13  2  1  0
 13 14  2  0
 15 16  1  0
 15 13  1  0
 17 18  2  0
 17 16  1  0
 20 19  1  0
 20 21  1  0
 21 22  1  6
 23 21  1  0
 23 24  1  1
 24 17  1  0
 25 23  1  0
 26 25  2  0
 27 25  1  0
M  END
$$$$
