WGI.pdb
     RDKit          3D

 27 28  0  0  1  0  0  0  0  0999 V2000
    7.0529  -16.5856   21.9101 N   0  0  0  0  0  0  0  0  0  0  0  0
    8.0394  -15.8884   22.6955 C   0  0  1  0  0  0  0  0  0  0  0  0
    7.9413  -16.2887   24.1712 C   0  0  0  0  0  0  0  0  0  0  0  0
    6.8966  -15.4476   24.7950 C   0  0  0  0  0  0  0  0  0  0  0  0
    5.7445  -15.8410   25.4471 C   0  0  0  0  0  0  0  0  0  0  0  0
    5.0688  -14.7449   25.8671 N   0  0  0  0  0  0  0  0  0  0  0  0
    5.7563  -13.6504   25.5018 C   0  0  0  0  0  0  0  0  0  0  0  0
    5.5503  -12.2955   25.6575 C   0  0  0  0  0  0  0  0  0  0  0  0
    6.4575  -11.3786   25.1601 C   0  0  0  0  0  0  0  0  0  0  0  0
    7.5933  -11.7918   24.4947 C   0  0  0  0  0  0  0  0  0  0  0  0
    7.8117  -13.1387   24.3319 C   0  0  0  0  0  0  0  0  0  0  0  0
    6.9016  -14.0743   24.8304 C   0  0  0  0  0  0  0  0  0  0  0  0
    9.4004  -16.2755   22.2604 C   0  0  0  0  0  0  0  0  0  0  0  0
    9.8316  -16.0581   21.1001 O   0  0  0  0  0  0  0  0  0  0  0  0
   10.2578  -16.9195   23.1889 N   0  0  0  0  0  0  0  0  0  0  0  0
   11.5949  -16.4307   23.3711 C   0  0  0  0  0  0  0  0  0  0  0  0
   11.9497  -16.2965   24.8060 C   0  0  0  0  0  0  0  0  0  0  0  0
   13.1719  -16.2519   25.1268 O   0  0  0  0  0  0  0  0  0  0  0  0
    9.3189  -13.1694   28.2202 C   0  0  0  0  0  0  0  0  0  0  0  0
   10.3191  -14.0068   27.5127 C   0  0  0  0  0  0  0  0  0  0  0  0
   10.4145  -15.4167   28.0221 C   0  0  2  0  0  0  0  0  0  0  0  0
   10.7970  -15.4534   29.4851 C   0  0  0  0  0  0  0  0  0  0  0  0
   11.3784  -16.2679   27.2582 C   0  0  2  0  0  0  0  0  0  0  0  0
   10.9945  -16.2138   25.8508 N   0  0  0  0  0  0  0  0  0  0  0  0
   11.3779  -17.6868   27.6961 C   0  0  0  0  0  0  0  0  0  0  0  0
   10.6481  -18.5559   27.1552 O   0  0  0  0  0  0  0  0  0  0  0  0
   12.1929  -18.1494   28.7427 O   0  0  0  0  0  0  0  0  0  0  0  0
  2  1  1  6
  3  2  1  0
  4  3  1  0
  4  5  2  0
  6  5  1  0
  7  6  1  0
  8  7  2  0
  9  8  1  0
 10  9  2  0
 10 11  1  0
 11 12  2  0
 12  7  1  0
 12  4  1  0
 13  2  1  0
 13 14  2  0
 15 16  1  0
 15 13  1  0
 17 18  2  0
 17 16  1  0
 20 19  1  0
 20 21  1  0
 21 22  1  1
 23 21  1  0
 23 24  1  6
 24 17  1  0
 25 23  1  0
 26 25  2  0
 27 25  1  0
M  END
$$$$
