DGK.pdb
     RDKit          3D

 22 21  0  0  1  0  0  0  0  0999 V2000
   27.0376  -18.9550  -18.3288 N   0  0  0  0  0  0  0  0  0  0  0  0
   27.8392  -17.7293  -17.9989 C   0  0  1  0  0  0  0  0  0  0  0  0
   27.2147  -16.5396  -18.6269 C   0  0  0  0  0  0  0  0  0  0  0  0
   26.2387  -16.8234  -19.6828 C   0  0  0  0  0  0  0  0  0  0  0  0
   25.9708  -18.0089  -20.0028 O   0  0  0  0  0  0  0  0  0  0  0  0
   27.7802  -17.7342  -16.4974 C   0  0  0  0  0  0  0  0  0  0  0  0
   28.4808  -16.8497  -15.8667 O   0  0  0  0  0  0  0  0  0  0  0  0
   25.5822  -15.8261  -20.3593 O   0  0  0  0  0  0  0  0  0  0  0  0
   27.0521  -18.5942  -15.6727 N   0  0  0  0  0  0  0  0  0  0  0  0
   27.0322  -18.4511  -14.2291 C   0  0  0  0  0  0  0  0  0  0  0  0
   26.1035  -19.3713  -13.5412 C   0  0  0  0  0  0  0  0  0  0  0  0
   25.4096  -20.1173  -14.2847 O   0  0  0  0  0  0  0  0  0  0  0  0
   25.9459  -19.4737  -12.1561 N   0  0  0  0  0  0  0  0  0  0  0  0
   24.9964  -20.3711  -11.5046 C   0  0  1  0  0  0  0  0  0  0  0  0
   25.0250  -20.2216  -10.0276 C   0  0  0  0  0  0  0  0  0  0  0  0
   24.0144  -21.0959   -9.3430 C   0  0  0  0  0  0  0  0  0  0  0  0
   23.9570  -20.8905   -7.8479 C   0  0  0  0  0  0  0  0  0  0  0  0
   22.9452  -21.9169   -7.3188 C   0  0  0  0  0  0  0  0  0  0  0  0
   22.8850  -21.8323   -5.8720 N   0  0  0  0  0  0  0  0  0  0  0  0
   23.6688  -20.1613  -12.0870 C   0  0  0  0  0  0  0  0  0  0  0  0
   23.2600  -18.8591  -12.4329 O   0  0  0  0  0  0  0  0  0  0  0  0
   22.8181  -21.0560  -12.3210 O   0  0  0  0  0  0  0  0  0  0  0  0
  2  3  1  0
  2  1  1  6
  3  4  1  0
  4  5  2  0
  4  8  1  0
  6  7  2  0
  6  2  1  0
  9  6  1  0
 10  9  1  0
 10 11  1  0
 11 12  2  0
 13 11  1  0
 13 14  1  0
 14 15  1  1
 15 16  1  0
 16 17  1  0
 17 18  1  0
 18 19  1  0
 20 21  1  0
 20 14  1  0
 22 20  2  0
M  END
$$$$
