DGK.pdb
     RDKit          3D

 22 21  0  0  1  0  0  0  0  0999 V2000
   23.9362  -20.9243  -15.8705 N   0  0  0  0  0  0  0  0  0  0  0  0
   23.8382  -19.4449  -15.6345 C   0  0  1  0  0  0  0  0  0  0  0  0
   23.4537  -18.7622  -16.8938 C   0  0  0  0  0  0  0  0  0  0  0  0
   24.5065  -18.6734  -17.9096 C   0  0  0  0  0  0  0  0  0  0  0  0
   25.6378  -19.1805  -17.7027 O   0  0  0  0  0  0  0  0  0  0  0  0
   22.7903  -19.3871  -14.5590 C   0  0  0  0  0  0  0  0  0  0  0  0
   22.4498  -18.2217  -14.1153 O   0  0  0  0  0  0  0  0  0  0  0  0
   24.3103  -18.0445  -19.1134 O   0  0  0  0  0  0  0  0  0  0  0  0
   22.1220  -20.4555  -13.9575 N   0  0  0  0  0  0  0  0  0  0  0  0
   21.0519  -20.2584  -12.9979 C   0  0  0  0  0  0  0  0  0  0  0  0
   20.3624  -21.5013  -12.5947 C   0  0  0  0  0  0  0  0  0  0  0  0
   20.3357  -22.4245  -13.4537 O   0  0  0  0  0  0  0  0  0  0  0  0
   19.7549  -21.7224  -11.3554 N   0  0  0  0  0  0  0  0  0  0  0  0
   19.1265  -22.9810  -10.9650 C   0  0  1  0  0  0  0  0  0  0  0  0
   18.8738  -23.0377   -9.5030 C   0  0  0  0  0  0  0  0  0  0  0  0
   18.4363  -24.4004   -9.0490 C   0  0  0  0  0  0  0  0  0  0  0  0
   18.1740  -24.4834   -7.5641 C   0  0  0  0  0  0  0  0  0  0  0  0
   17.6998  -25.9192   -7.2983 C   0  0  0  0  0  0  0  0  0  0  0  0
   17.5633  -26.1247   -5.8689 N   0  0  0  0  0  0  0  0  0  0  0  0
   17.9217  -23.1809  -11.7740 C   0  0  0  0  0  0  0  0  0  0  0  0
   17.6889  -24.4323  -12.3757 O   0  0  0  0  0  0  0  0  0  0  0  0
   17.0354  -22.3191  -11.9994 O   0  0  0  0  0  0  0  0  0  0  0  0
  2  3  1  0
  2  1  1  6
  3  4  1  0
  4  5  2  0
  4  8  1  0
  6  7  2  0
  6  2  1  0
  9  6  1  0
 10  9  1  0
 10 11  1  0
 11 12  2  0
 13 11  1  0
 13 14  1  0
 14 15  1  1
 15 16  1  0
 16 17  1  0
 17 18  1  0
 18 19  1  0
 20 21  1  0
 20 14  1  0
 22 20  2  0
M  END
$$$$
