DGK.pdb
     RDKit          3D

 22 21  0  0  1  0  0  0  0  0999 V2000
   15.5655  -19.1456    2.8347 N   0  0  0  0  0  0  0  0  0  0  0  0
   15.8606  -20.6083    3.0003 C   0  0  1  0  0  0  0  0  0  0  0  0
   15.9060  -21.2627    1.6701 C   0  0  0  0  0  0  0  0  0  0  0  0
   14.6151  -21.7203    1.1483 C   0  0  0  0  0  0  0  0  0  0  0  0
   13.5835  -21.6719    1.8645 O   0  0  0  0  0  0  0  0  0  0  0  0
   17.1849  -20.5632    3.7088 C   0  0  0  0  0  0  0  0  0  0  0  0
   17.6756  -21.6805    4.1350 O   0  0  0  0  0  0  0  0  0  0  0  0
   14.4740  -22.2136   -0.1246 O   0  0  0  0  0  0  0  0  0  0  0  0
   17.9734  -19.4425    3.9779 N   0  0  0  0  0  0  0  0  0  0  0  0
   19.2548  -19.5403    4.6513 C   0  0  0  0  0  0  0  0  0  0  0  0
   19.2894  -18.9044    5.9843 C   0  0  0  0  0  0  0  0  0  0  0  0
   18.2779  -18.2197    6.2988 O   0  0  0  0  0  0  0  0  0  0  0  0
   20.3386  -19.0086    6.9020 N   0  0  0  0  0  0  0  0  0  0  0  0
   20.4003  -18.2732    8.1616 C   0  0  1  0  0  0  0  0  0  0  0  0
   20.7112  -19.1682    9.3049 C   0  0  0  0  0  0  0  0  0  0  0  0
   19.5805  -20.1024    9.6259 C   0  0  0  0  0  0  0  0  0  0  0  0
   19.8580  -20.9967   10.8107 C   0  0  0  0  0  0  0  0  0  0  0  0
   18.5912  -21.8411   11.0090 C   0  0  0  0  0  0  0  0  0  0  0  0
   18.8458  -22.8656   12.0038 N   0  0  0  0  0  0  0  0  0  0  0  0
   21.3437  -17.1619    8.0167 C   0  0  0  0  0  0  0  0  0  0  0  0
   20.9521  -15.8643    8.3979 O   0  0  0  0  0  0  0  0  0  0  0  0
   22.5149  -17.2446    7.5691 O   0  0  0  0  0  0  0  0  0  0  0  0
  2  3  1  0
  2  1  1  6
  3  4  1  0
  4  5  2  0
  4  8  1  0
  6  7  2  0
  6  2  1  0
  9  6  1  0
 10  9  1  0
 10 11  1  0
 11 12  2  0
 13 11  1  0
 13 14  1  0
 14 15  1  1
 15 16  1  0
 16 17  1  0
 17 18  1  0
 18 19  1  0
 20 21  1  0
 20 14  1  0
 22 20  2  0
M  END
$$$$
