DGK.pdb
     RDKit          3D

 22 21  0  0  1  0  0  0  0  0999 V2000
   17.4382   -7.9839  -15.0493 N   0  0  0  0  0  0  0  0  0  0  0  0
   18.0354   -9.1420  -14.3037 C   0  0  1  0  0  0  0  0  0  0  0  0
   19.4277   -9.3674  -14.7625 C   0  0  0  0  0  0  0  0  0  0  0  0
   19.5863  -10.3544  -15.8342 C   0  0  0  0  0  0  0  0  0  0  0  0
   18.6000  -11.0179  -16.2423 O   0  0  0  0  0  0  0  0  0  0  0  0
   17.9258   -8.6655  -12.8828 C   0  0  0  0  0  0  0  0  0  0  0  0
   18.2111   -9.5071  -11.9442 O   0  0  0  0  0  0  0  0  0  0  0  0
   20.7974  -10.5961  -16.4328 O   0  0  0  0  0  0  0  0  0  0  0  0
   17.5419   -7.4008  -12.4319 N   0  0  0  0  0  0  0  0  0  0  0  0
   17.3386   -7.1086  -11.0254 C   0  0  0  0  0  0  0  0  0  0  0  0
   16.1326   -6.3037  -10.7415 C   0  0  0  0  0  0  0  0  0  0  0  0
   15.4280   -5.9893  -11.7392 O   0  0  0  0  0  0  0  0  0  0  0  0
   15.7250   -5.8790   -9.4738 N   0  0  0  0  0  0  0  0  0  0  0  0
   14.5350   -5.0708   -9.2248 C   0  0  1  0  0  0  0  0  0  0  0  0
   14.0588   -5.2118   -7.8255 C   0  0  0  0  0  0  0  0  0  0  0  0
   12.7511   -5.9441   -7.7359 C   0  0  0  0  0  0  0  0  0  0  0  0
   12.2334   -6.0784   -6.3235 C   0  0  0  0  0  0  0  0  0  0  0  0
   10.9738   -6.9513   -6.4162 C   0  0  0  0  0  0  0  0  0  0  0  0
   10.3988   -7.1094   -5.0940 N   0  0  0  0  0  0  0  0  0  0  0  0
   14.8133   -3.6851   -9.6100 C   0  0  0  0  0  0  0  0  0  0  0  0
   13.7811   -2.8933  -10.1486 O   0  0  0  0  0  0  0  0  0  0  0  0
   15.9213   -3.1013   -9.5079 O   0  0  0  0  0  0  0  0  0  0  0  0
  2  3  1  0
  2  1  1  6
  3  4  1  0
  4  5  2  0
  4  8  1  0
  6  7  2  0
  6  2  1  0
  9  6  1  0
 10  9  1  0
 10 11  1  0
 11 12  2  0
 13 11  1  0
 13 14  1  0
 14 15  1  1
 15 16  1  0
 16 17  1  0
 17 18  1  0
 18 19  1  0
 20 21  1  0
 20 14  1  0
 22 20  2  0
M  END
$$$$
