DGK.pdb
     RDKit          3D

 22 21  0  0  1  0  0  0  0  0999 V2000
   21.1303  -17.6595  -14.4307 N   0  0  0  0  0  0  0  0  0  0  0  0
   19.7574  -18.1985  -14.7107 C   0  0  1  0  0  0  0  0  0  0  0  0
   19.1032  -18.5857  -13.4372 C   0  0  0  0  0  0  0  0  0  0  0  0
   19.6134  -19.8096  -12.8129 C   0  0  0  0  0  0  0  0  0  0  0  0
   20.5706  -20.4389  -13.3300 O   0  0  0  0  0  0  0  0  0  0  0  0
   19.1162  -17.0275  -15.4002 C   0  0  0  0  0  0  0  0  0  0  0  0
   17.9905  -17.2289  -16.0026 O   0  0  0  0  0  0  0  0  0  0  0  0
   19.0804  -20.3168  -11.6544 O   0  0  0  0  0  0  0  0  0  0  0  0
   19.5919  -15.7171  -15.4810 N   0  0  0  0  0  0  0  0  0  0  0  0
   18.8160  -14.6468  -16.0790 C   0  0  0  0  0  0  0  0  0  0  0  0
   19.4668  -13.3217  -16.0229 C   0  0  0  0  0  0  0  0  0  0  0  0
   20.0700  -13.0448  -14.9504 O   0  0  0  0  0  0  0  0  0  0  0  0
   19.4645  -12.3764  -17.0525 N   0  0  0  0  0  0  0  0  0  0  0  0
   20.0914  -11.0614  -16.9577 C   0  0  1  0  0  0  0  0  0  0  0  0
   20.1045  -10.3639  -18.2684 C   0  0  0  0  0  0  0  0  0  0  0  0
   20.8356   -9.0536  -18.2136 C   0  0  0  0  0  0  0  0  0  0  0  0
   20.7543   -8.2661  -19.4996 C   0  0  0  0  0  0  0  0  0  0  0  0
   21.5726   -6.9884  -19.2653 C   0  0  0  0  0  0  0  0  0  0  0  0
   21.5073   -6.1508  -20.4477 N   0  0  0  0  0  0  0  0  0  0  0  0
   19.4324  -10.2968  -15.8960 C   0  0  0  0  0  0  0  0  0  0  0  0
   20.1988   -9.4531  -15.0695 O   0  0  0  0  0  0  0  0  0  0  0  0
   18.2042  -10.3136  -15.6310 O   0  0  0  0  0  0  0  0  0  0  0  0
  2  3  1  0
  2  1  1  1
  3  4  1  0
  4  5  2  0
  4  8  1  0
  6  7  2  0
  6  2  1  0
  9  6  1  0
 10  9  1  0
 10 11  1  0
 11 12  2  0
 13 11  1  0
 13 14  1  0
 14 15  1  6
 15 16  1  0
 16 17  1  0
 17 18  1  0
 18 19  1  0
 20 21  1  0
 20 14  1  0
 22 20  2  0
M  END
$$$$
