DGK.pdb
     RDKit          3D

 22 21  0  0  1  0  0  0  0  0999 V2000
   26.1364  -18.6708  -16.2565 N   0  0  0  0  0  0  0  0  0  0  0  0
   27.1491  -17.6137  -16.5897 C   0  0  1  0  0  0  0  0  0  0  0  0
   27.4912  -17.6858  -18.0310 C   0  0  0  0  0  0  0  0  0  0  0  0
   28.3488  -18.8089  -18.4200 C   0  0  0  0  0  0  0  0  0  0  0  0
   27.8971  -19.9817  -18.4354 O   0  0  0  0  0  0  0  0  0  0  0  0
   26.4124  -16.3651  -16.1943 C   0  0  0  0  0  0  0  0  0  0  0  0
   27.0308  -15.2374  -16.3237 O   0  0  0  0  0  0  0  0  0  0  0  0
   29.6617  -18.6362  -18.7803 O   0  0  0  0  0  0  0  0  0  0  0  0
   25.1151  -16.2614  -15.6882 N   0  0  0  0  0  0  0  0  0  0  0  0
   24.5455  -14.9940  -15.2705 C   0  0  0  0  0  0  0  0  0  0  0  0
   23.7910  -14.2905  -16.3280 C   0  0  0  0  0  0  0  0  0  0  0  0
   23.9686  -14.7053  -17.5057 O   0  0  0  0  0  0  0  0  0  0  0  0
   22.9114  -13.2244  -16.1195 N   0  0  0  0  0  0  0  0  0  0  0  0
   22.1124  -12.6046  -17.1725 C   0  0  1  0  0  0  0  0  0  0  0  0
   20.6639  -12.6262  -16.8469 C   0  0  0  0  0  0  0  0  0  0  0  0
   20.1132  -14.0211  -16.7739 C   0  0  0  0  0  0  0  0  0  0  0  0
   18.6549  -14.0716  -16.3846 C   0  0  0  0  0  0  0  0  0  0  0  0
   18.2828  -15.5602  -16.3320 C   0  0  0  0  0  0  0  0  0  0  0  0
   16.9621  -15.7064  -15.7504 N   0  0  0  0  0  0  0  0  0  0  0  0
   22.6322  -11.2601  -17.4336 C   0  0  0  0  0  0  0  0  0  0  0  0
   23.4202  -10.6189  -16.4589 O   0  0  0  0  0  0  0  0  0  0  0  0
   22.4423  -10.5878  -18.4780 O   0  0  0  0  0  0  0  0  0  0  0  0
  2  3  1  0
  2  1  1  6
  3  4  1  0
  4  5  2  0
  4  8  1  0
  6  7  2  0
  6  2  1  0
  9  6  1  0
 10  9  1  0
 10 11  1  0
 11 12  2  0
 13 11  1  0
 13 14  1  0
 14 15  1  1
 15 16  1  0
 16 17  1  0
 17 18  1  0
 18 19  1  0
 20 21  1  0
 20 14  1  0
 22 20  2  0
M  END
$$$$
