DGK.pdb
     RDKit          3D

 22 21  0  0  1  0  0  0  0  0999 V2000
   24.8289  -22.7096  -15.4089 N   0  0  0  0  0  0  0  0  0  0  0  0
   25.6129  -21.5711  -14.8233 C   0  0  1  0  0  0  0  0  0  0  0  0
   26.0722  -20.6703  -15.9083 C   0  0  0  0  0  0  0  0  0  0  0  0
   27.1013  -21.2231  -16.7935 C   0  0  0  0  0  0  0  0  0  0  0  0
   26.8691  -21.3881  -18.0176 O   0  0  0  0  0  0  0  0  0  0  0  0
   24.5968  -20.9565  -13.9027 C   0  0  0  0  0  0  0  0  0  0  0  0
   24.8447  -19.7759  -13.4382 O   0  0  0  0  0  0  0  0  0  0  0  0
   28.3452  -21.5794  -16.3361 O   0  0  0  0  0  0  0  0  0  0  0  0
   23.3904  -21.5098  -13.4686 N   0  0  0  0  0  0  0  0  0  0  0  0
   22.3420  -20.7073  -12.8671 C   0  0  0  0  0  0  0  0  0  0  0  0
   21.1092  -21.4580  -12.5517 C   0  0  0  0  0  0  0  0  0  0  0  0
   20.5029  -21.9666  -13.5338 O   0  0  0  0  0  0  0  0  0  0  0  0
   20.5817  -21.6432  -11.2706 N   0  0  0  0  0  0  0  0  0  0  0  0
   19.3223  -22.3283  -10.9953 C   0  0  1  0  0  0  0  0  0  0  0  0
   19.1500  -22.5983   -9.5454 C   0  0  0  0  0  0  0  0  0  0  0  0
   18.5138  -23.9325   -9.2821 C   0  0  0  0  0  0  0  0  0  0  0  0
   18.2589  -24.1979   -7.8174 C   0  0  0  0  0  0  0  0  0  0  0  0
   17.5724  -25.5695   -7.7496 C   0  0  0  0  0  0  0  0  0  0  0  0
   17.2371  -25.8728   -6.3713 N   0  0  0  0  0  0  0  0  0  0  0  0
   18.2238  -21.5552  -11.5798 C   0  0  0  0  0  0  0  0  0  0  0  0
   17.1184  -22.2286  -12.1337 O   0  0  0  0  0  0  0  0  0  0  0  0
   18.1586  -20.3019  -11.6439 O   0  0  0  0  0  0  0  0  0  0  0  0
  2  3  1  0
  2  1  1  6
  3  4  1  0
  4  5  2  0
  4  8  1  0
  6  7  2  0
  6  2  1  0
  9  6  1  0
 10  9  1  0
 10 11  1  0
 11 12  2  0
 13 11  1  0
 13 14  1  0
 14 15  1  1
 15 16  1  0
 16 17  1  0
 17 18  1  0
 18 19  1  0
 20 21  1  0
 20 14  1  0
 22 20  2  0
M  END
$$$$
