DGK.pdb
     RDKit          3D

 22 21  0  0  1  0  0  0  0  0999 V2000
   20.9322   -7.0743  -14.7989 N   0  0  0  0  0  0  0  0  0  0  0  0
   20.5225   -8.5063  -14.6112 C   0  0  1  0  0  0  0  0  0  0  0  0
   21.6990   -9.3909  -14.7935 C   0  0  0  0  0  0  0  0  0  0  0  0
   22.0408   -9.7069  -16.1832 C   0  0  0  0  0  0  0  0  0  0  0  0
   21.1540   -9.7104  -17.0739 O   0  0  0  0  0  0  0  0  0  0  0  0
   19.9864   -8.4777  -13.2077 C   0  0  0  0  0  0  0  0  0  0  0  0
   19.3469   -9.5199  -12.7885 O   0  0  0  0  0  0  0  0  0  0  0  0
   23.3224  -10.0076  -16.5711 O   0  0  0  0  0  0  0  0  0  0  0  0
   20.0876   -7.4440  -12.2743 N   0  0  0  0  0  0  0  0  0  0  0  0
   19.5190   -7.5437  -10.9432 C   0  0  0  0  0  0  0  0  0  0  0  0
   18.0777   -7.2266  -10.8742 C   0  0  0  0  0  0  0  0  0  0  0  0
   17.5729   -6.7113  -11.9089 O   0  0  0  0  0  0  0  0  0  0  0  0
   17.2523   -7.4556   -9.7697 N   0  0  0  0  0  0  0  0  0  0  0  0
   15.8422   -7.0820   -9.7104 C   0  0  1  0  0  0  0  0  0  0  0  0
   15.0674   -8.0007   -8.8385 C   0  0  0  0  0  0  0  0  0  0  0  0
   13.6160   -7.6253   -8.7559 C   0  0  0  0  0  0  0  0  0  0  0  0
   12.8056   -8.5486   -7.8776 C   0  0  0  0  0  0  0  0  0  0  0  0
   11.3816   -7.9750   -7.8616 C   0  0  0  0  0  0  0  0  0  0  0  0
   10.5411   -8.7959   -7.0110 N   0  0  0  0  0  0  0  0  0  0  0  0
   15.7401   -5.6756   -9.3135 C   0  0  0  0  0  0  0  0  0  0  0  0
   16.8080   -5.0691   -8.6248 O   0  0  0  0  0  0  0  0  0  0  0  0
   14.7603   -4.9192   -9.5298 O   0  0  0  0  0  0  0  0  0  0  0  0
  2  3  1  0
  2  1  1  1
  3  4  1  0
  4  5  2  0
  4  8  1  0
  6  7  2  0
  6  2  1  0
  9  6  1  0
 10  9  1  0
 10 11  1  0
 11 12  2  0
 13 11  1  0
 13 14  1  0
 14 15  1  1
 15 16  1  0
 16 17  1  0
 17 18  1  0
 18 19  1  0
 20 21  1  0
 20 14  1  0
 22 20  2  0
M  END
$$$$
