PDE.pdb
     RDKit          3D

 25 25  0  0  1  0  0  0  0  0999 V2000
   21.9164  -12.6562  -17.7465 N   0  0  0  0  0  0  0  0  0  0  0  0
   22.3022  -13.8547  -18.4765 C   0  0  0  0  0  0  0  0  0  0  0  0
   20.9665  -14.3187  -19.0147 C   0  0  0  0  0  0  0  0  0  0  0  0
   20.1145  -13.0774  -19.1140 C   0  0  0  0  0  0  0  0  0  0  0  0
   21.0624  -11.9945  -18.7176 C   0  0  1  0  0  0  0  0  0  0  0  0
   20.3999  -10.8002  -18.1534 C   0  0  0  0  0  0  0  0  0  0  0  0
   19.8427   -9.9947  -18.9413 O   0  0  0  0  0  0  0  0  0  0  0  0
   20.3700  -10.5332  -16.7792 N   0  0  0  0  0  0  0  0  0  0  0  0
   19.7126   -9.3582  -16.1770 C   0  0  1  0  0  0  0  0  0  0  0  0
   18.7844   -9.9192  -15.1413 C   0  0  0  0  0  0  0  0  0  0  0  0
   18.1048   -8.9400  -14.2978 C   0  0  0  0  0  0  0  0  0  0  0  0
   17.7310   -7.8046  -14.6644 O   0  0  0  0  0  0  0  0  0  0  0  0
   20.7749   -8.4902  -15.6522 C   0  0  0  0  0  0  0  0  0  0  0  0
   21.7909   -8.9360  -15.0495 O   0  0  0  0  0  0  0  0  0  0  0  0
   17.8478   -9.2877  -12.9786 O   0  0  0  0  0  0  0  0  0  0  0  0
   20.6760   -7.0840  -15.8167 N   0  0  0  0  0  0  0  0  0  0  0  0
   21.6844   -6.1378  -15.3315 C   0  0  1  0  0  0  0  0  0  0  0  0
   21.8532   -5.1408  -16.4169 C   0  0  0  0  0  0  0  0  0  0  0  0
   22.7166   -3.9813  -16.1187 C   0  0  0  0  0  0  0  0  0  0  0  0
   22.8038   -3.0075  -17.2243 C   0  0  0  0  0  0  0  0  0  0  0  0
   23.4501   -1.9124  -17.1564 O   0  0  0  0  0  0  0  0  0  0  0  0
   21.4020   -5.7034  -13.9862 C   0  0  0  0  0  0  0  0  0  0  0  0
   22.3231   -5.3980  -13.1559 O   0  0  0  0  0  0  0  0  0  0  0  0
   22.1469   -3.2924  -18.4102 O   0  0  0  0  0  0  0  0  0  0  0  0
   20.0709   -5.6027  -13.5418 O   0  0  0  0  0  0  0  0  0  0  0  0
  1  5  1  0
  2  1  1  0
  3  2  1  0
  4  3  1  0
  4  5  1  0
  5  6  1  1
  6  7  2  0
  8  6  1  0
  9  8  1  0
  9 13  1  0
  9 10  1  1
 11 12  2  0
 11 10  1  0
 13 14  2  0
 13 16  1  0
 15 11  1  0
 16 17  1  0
 17 22  1  0
 17 18  1  6
 19 18  1  0
 20 19  1  0
 20 21  2  0
 22 23  2  0
 22 25  1  0
 24 20  1  0
M  END
$$$$
