PDE.pdb
     RDKit          3D

 25 25  0  0  1  0  0  0  0  0999 V2000
   19.6514  -13.5259  -15.9666 N   0  0  0  0  0  0  0  0  0  0  0  0
   19.8181  -14.9216  -16.3440 C   0  0  0  0  0  0  0  0  0  0  0  0
   18.7894  -15.0575  -17.4450 C   0  0  0  0  0  0  0  0  0  0  0  0
   18.6233  -13.6723  -18.0199 C   0  0  0  0  0  0  0  0  0  0  0  0
   19.6397  -12.8792  -17.2673 C   0  0  1  0  0  0  0  0  0  0  0  0
   19.3192  -11.4400  -17.1702 C   0  0  0  0  0  0  0  0  0  0  0  0
   19.3435  -10.7478  -18.2191 O   0  0  0  0  0  0  0  0  0  0  0  0
   18.9907  -10.8209  -15.9579 N   0  0  0  0  0  0  0  0  0  0  0  0
   18.6407   -9.3944  -15.8236 C   0  0  1  0  0  0  0  0  0  0  0  0
   17.3321   -9.3817  -15.0912 C   0  0  0  0  0  0  0  0  0  0  0  0
   16.1464   -9.6469  -15.9012 C   0  0  0  0  0  0  0  0  0  0  0  0
   15.0612  -10.0943  -15.4706 O   0  0  0  0  0  0  0  0  0  0  0  0
   19.7516   -8.7412  -15.1191 C   0  0  0  0  0  0  0  0  0  0  0  0
   20.3033   -9.2372  -14.0973 O   0  0  0  0  0  0  0  0  0  0  0  0
   16.2189   -9.3843  -17.2624 O   0  0  0  0  0  0  0  0  0  0  0  0
   20.2431   -7.4952  -15.5885 N   0  0  0  0  0  0  0  0  0  0  0  0
   21.3131   -6.7441  -14.9263 C   0  0  1  0  0  0  0  0  0  0  0  0
   21.5672   -5.5643  -15.7890 C   0  0  0  0  0  0  0  0  0  0  0  0
   22.5432   -4.5776  -15.2862 C   0  0  0  0  0  0  0  0  0  0  0  0
   22.7211   -3.4136  -16.1759 C   0  0  0  0  0  0  0  0  0  0  0  0
   22.5549   -2.2062  -15.8070 O   0  0  0  0  0  0  0  0  0  0  0  0
   21.0485   -6.5696  -13.5200 C   0  0  0  0  0  0  0  0  0  0  0  0
   21.9452   -6.7391  -12.6265 O   0  0  0  0  0  0  0  0  0  0  0  0
   23.0905   -3.6373  -17.4921 O   0  0  0  0  0  0  0  0  0  0  0  0
   19.7629   -6.1994  -13.0843 O   0  0  0  0  0  0  0  0  0  0  0  0
  1  5  1  0
  2  1  1  0
  3  2  1  0
  4  3  1  0
  4  5  1  0
  5  6  1  1
  6  7  2  0
  8  6  1  0
  9  8  1  0
  9 13  1  0
  9 10  1  1
 11 12  2  0
 11 10  1  0
 13 14  2  0
 13 16  1  0
 15 11  1  0
 16 17  1  0
 17 22  1  0
 17 18  1  6
 19 18  1  0
 20 19  1  0
 20 21  2  0
 22 23  2  0
 22 25  1  0
 24 20  1  0
M  END
$$$$
