PDE.pdb
     RDKit          3D

 25 25  0  0  1  0  0  0  0  0999 V2000
   13.6693   -7.5332   -8.8773 N   0  0  0  0  0  0  0  0  0  0  0  0
   12.7586   -7.3474   -7.7573 C   0  0  0  0  0  0  0  0  0  0  0  0
   13.5929   -7.8642   -6.6058 C   0  0  0  0  0  0  0  0  0  0  0  0
   15.0294   -7.6736   -7.0266 C   0  0  0  0  0  0  0  0  0  0  0  0
   14.8983   -6.9757   -8.3397 C   0  0  1  0  0  0  0  0  0  0  0  0
   16.0475   -7.1876   -9.2441 C   0  0  0  0  0  0  0  0  0  0  0  0
   17.1753   -6.7588   -8.8917 O   0  0  0  0  0  0  0  0  0  0  0  0
   15.9275   -7.8456  -10.4742 N   0  0  0  0  0  0  0  0  0  0  0  0
   17.0432   -8.0512  -11.4168 C   0  0  1  0  0  0  0  0  0  0  0  0
   16.9780   -9.5030  -11.7868 C   0  0  0  0  0  0  0  0  0  0  0  0
   17.9521   -9.9520  -12.7777 C   0  0  0  0  0  0  0  0  0  0  0  0
   18.9851   -9.3309  -13.1100 O   0  0  0  0  0  0  0  0  0  0  0  0
   16.8437   -7.1176  -12.5330 C   0  0  0  0  0  0  0  0  0  0  0  0
   15.8013   -7.1118  -13.2455 O   0  0  0  0  0  0  0  0  0  0  0  0
   17.7221  -11.1668  -13.4090 O   0  0  0  0  0  0  0  0  0  0  0  0
   17.8548   -6.1716  -12.8444 N   0  0  0  0  0  0  0  0  0  0  0  0
   17.7563   -5.2134  -13.9488 C   0  0  1  0  0  0  0  0  0  0  0  0
   17.5072   -3.8956  -13.3147 C   0  0  0  0  0  0  0  0  0  0  0  0
   16.0956   -3.5320  -13.0822 C   0  0  0  0  0  0  0  0  0  0  0  0
   15.9185   -2.1900  -12.4941 C   0  0  0  0  0  0  0  0  0  0  0  0
   16.8791   -1.3927  -12.2427 O   0  0  0  0  0  0  0  0  0  0  0  0
   18.8380   -5.3722  -14.8886 C   0  0  0  0  0  0  0  0  0  0  0  0
   19.7808   -6.2159  -14.7138 O   0  0  0  0  0  0  0  0  0  0  0  0
   14.6352   -1.7633  -12.1942 O   0  0  0  0  0  0  0  0  0  0  0  0
   18.8843   -4.5817  -16.0515 O   0  0  0  0  0  0  0  0  0  0  0  0
  1  5  1  0
  2  1  1  0
  3  2  1  0
  4  3  1  0
  4  5  1  0
  5  6  1  6
  6  7  2  0
  8  6  1  0
  9  8  1  0
  9 13  1  0
  9 10  1  6
 11 12  2  0
 11 10  1  0
 13 14  2  0
 13 16  1  0
 15 11  1  0
 16 17  1  0
 17 22  1  0
 17 18  1  1
 19 18  1  0
 20 19  1  0
 20 21  2  0
 22 23  2  0
 22 25  1  0
 24 20  1  0
M  END
$$$$
