PDE.pdb
     RDKit          3D

 25 25  0  0  1  0  0  0  0  0999 V2000
   27.5988  -19.0557  -15.7027 N   0  0  0  0  0  0  0  0  0  0  0  0
   28.6563  -18.8075  -16.6714 C   0  0  0  0  0  0  0  0  0  0  0  0
   29.5843  -19.9722  -16.4046 C   0  0  0  0  0  0  0  0  0  0  0  0
   28.7127  -21.0647  -15.8356 C   0  0  0  0  0  0  0  0  0  0  0  0
   27.3457  -20.4704  -15.9147 C   0  0  1  0  0  0  0  0  0  0  0  0
   26.3988  -21.0208  -14.9227 C   0  0  0  0  0  0  0  0  0  0  0  0
   25.9615  -22.1869  -15.0934 O   0  0  0  0  0  0  0  0  0  0  0  0
   25.9720  -20.2947  -13.8041 N   0  0  0  0  0  0  0  0  0  0  0  0
   25.0649  -20.8242  -12.7686 C   0  0  1  0  0  0  0  0  0  0  0  0
   25.7015  -20.4482  -11.4639 C   0  0  0  0  0  0  0  0  0  0  0  0
   25.0231  -20.9276  -10.2628 C   0  0  0  0  0  0  0  0  0  0  0  0
   23.9483  -21.5660  -10.2450 O   0  0  0  0  0  0  0  0  0  0  0  0
   23.7430  -20.2301  -13.0071 C   0  0  0  0  0  0  0  0  0  0  0  0
   23.5382  -18.9842  -12.9981 O   0  0  0  0  0  0  0  0  0  0  0  0
   25.6111  -20.6576   -9.0346 O   0  0  0  0  0  0  0  0  0  0  0  0
   22.6306  -21.0745  -13.2599 N   0  0  0  0  0  0  0  0  0  0  0  0
   21.2773  -20.5766  -13.5210 C   0  0  1  0  0  0  0  0  0  0  0  0
   20.8472  -21.2285  -14.7823 C   0  0  0  0  0  0  0  0  0  0  0  0
   19.4751  -20.9361  -15.2411 C   0  0  0  0  0  0  0  0  0  0  0  0
   19.0995  -21.6481  -16.4781 C   0  0  0  0  0  0  0  0  0  0  0  0
   18.6734  -22.8478  -16.5052 O   0  0  0  0  0  0  0  0  0  0  0  0
   20.4463  -20.6540  -12.3456 C   0  0  0  0  0  0  0  0  0  0  0  0
   20.5377  -21.6084  -11.5019 O   0  0  0  0  0  0  0  0  0  0  0  0
   19.2139  -20.9805  -17.6865 O   0  0  0  0  0  0  0  0  0  0  0  0
   19.4886  -19.6552  -12.0914 O   0  0  0  0  0  0  0  0  0  0  0  0
  1  5  1  0
  2  1  1  0
  3  2  1  0
  4  3  1  0
  4  5  1  0
  5  6  1  1
  6  7  2  0
  8  6  1  0
  9  8  1  0
  9 13  1  0
  9 10  1  1
 11 12  2  0
 11 10  1  0
 13 14  2  0
 13 16  1  0
 15 11  1  0
 16 17  1  0
 17 22  1  0
 17 18  1  6
 19 18  1  0
 20 19  1  0
 20 21  2  0
 22 23  2  0
 22 25  1  0
 24 20  1  0
M  END
$$$$
