PDE.pdb
     RDKit          3D

 25 25  0  0  1  0  0  0  0  0999 V2000
   26.4558  -20.6293  -16.3804 N   0  0  0  0  0  0  0  0  0  0  0  0
   27.7988  -20.9505  -16.8402 C   0  0  0  0  0  0  0  0  0  0  0  0
   28.0922  -22.2064  -16.0491 C   0  0  0  0  0  0  0  0  0  0  0  0
   26.7477  -22.8236  -15.7521 C   0  0  0  0  0  0  0  0  0  0  0  0
   25.8043  -21.9239  -16.4795 C   0  0  1  0  0  0  0  0  0  0  0  0
   24.4407  -21.9055  -15.9102 C   0  0  0  0  0  0  0  0  0  0  0  0
   23.7843  -22.9773  -15.8904 O   0  0  0  0  0  0  0  0  0  0  0  0
   23.8549  -20.7431  -15.3941 N   0  0  0  0  0  0  0  0  0  0  0  0
   22.4934  -20.6810  -14.8303 C   0  0  1  0  0  0  0  0  0  0  0  0
   22.6901  -20.4478  -13.3620 C   0  0  0  0  0  0  0  0  0  0  0  0
   21.4726  -20.3879  -12.5579 C   0  0  0  0  0  0  0  0  0  0  0  0
   20.3069  -20.4643  -13.0033 O   0  0  0  0  0  0  0  0  0  0  0  0
   21.7809  -19.6093  -15.5380 C   0  0  0  0  0  0  0  0  0  0  0  0
   22.2420  -18.4398  -15.6565 O   0  0  0  0  0  0  0  0  0  0  0  0
   21.6091  -20.2334  -11.1851 O   0  0  0  0  0  0  0  0  0  0  0  0
   20.5150  -19.8760  -16.1219 N   0  0  0  0  0  0  0  0  0  0  0  0
   19.7079  -18.8624  -16.8064 C   0  0  1  0  0  0  0  0  0  0  0  0
   18.5965  -19.6039  -17.4512 C   0  0  0  0  0  0  0  0  0  0  0  0
   17.6479  -18.8052  -18.2519 C   0  0  0  0  0  0  0  0  0  0  0  0
   16.5774  -19.6070  -18.8759 C   0  0  0  0  0  0  0  0  0  0  0  0
   16.4251  -20.8571  -18.6873 O   0  0  0  0  0  0  0  0  0  0  0  0
   19.4273  -17.7381  -15.9489 C   0  0  0  0  0  0  0  0  0  0  0  0
   19.4234  -16.5340  -16.3748 O   0  0  0  0  0  0  0  0  0  0  0  0
   15.6803  -18.9712  -19.7184 O   0  0  0  0  0  0  0  0  0  0  0  0
   19.1438  -17.9433  -14.5862 O   0  0  0  0  0  0  0  0  0  0  0  0
  1  5  1  0
  2  1  1  0
  3  2  1  0
  4  3  1  0
  4  5  1  0
  5  6  1  1
  6  7  2  0
  8  6  1  0
  9  8  1  0
  9 13  1  0
  9 10  1  1
 11 12  2  0
 11 10  1  0
 13 14  2  0
 13 16  1  0
 15 11  1  0
 16 17  1  0
 17 22  1  0
 17 18  1  1
 19 18  1  0
 20 19  1  0
 20 21  2  0
 22 23  2  0
 22 25  1  0
 24 20  1  0
M  END
$$$$
