PDE.pdb
     RDKit          3D

 25 25  0  0  1  0  0  0  0  0999 V2000
   13.7027  -22.8778    0.5067 N   0  0  0  0  0  0  0  0  0  0  0  0
   13.4590  -23.6544   -0.6998 C   0  0  0  0  0  0  0  0  0  0  0  0
   14.5999  -23.1990   -1.5829 C   0  0  0  0  0  0  0  0  0  0  0  0
   15.6939  -22.7606   -0.6406 C   0  0  0  0  0  0  0  0  0  0  0  0
   15.1265  -23.0921    0.6998 C   0  0  1  0  0  0  0  0  0  0  0  0
   15.6697  -22.2651    1.7974 C   0  0  0  0  0  0  0  0  0  0  0  0
   16.8982  -22.3391    2.0529 O   0  0  0  0  0  0  0  0  0  0  0  0
   14.8700  -21.4055    2.5604 N   0  0  0  0  0  0  0  0  0  0  0  0
   15.3825  -20.5250    3.6270 C   0  0  1  0  0  0  0  0  0  0  0  0
   14.4115  -19.3840    3.6904 C   0  0  0  0  0  0  0  0  0  0  0  0
   14.8384  -18.2270    4.4725 C   0  0  0  0  0  0  0  0  0  0  0  0
   15.9220  -18.1302    5.0888 O   0  0  0  0  0  0  0  0  0  0  0  0
   15.4696  -21.3333    4.8502 C   0  0  0  0  0  0  0  0  0  0  0  0
   14.5736  -22.1524    5.1974 O   0  0  0  0  0  0  0  0  0  0  0  0
   13.9783  -17.1398    4.5445 O   0  0  0  0  0  0  0  0  0  0  0  0
   16.6017  -21.2041    5.6964 N   0  0  0  0  0  0  0  0  0  0  0  0
   16.7399  -21.9009    6.9782 C   0  0  1  0  0  0  0  0  0  0  0  0
   17.9765  -22.7120    6.8617 C   0  0  0  0  0  0  0  0  0  0  0  0
   18.3197  -23.5610    8.0194 C   0  0  0  0  0  0  0  0  0  0  0  0
   19.5469  -24.3579    7.8267 C   0  0  0  0  0  0  0  0  0  0  0  0
   20.6928  -24.0132    8.2621 O   0  0  0  0  0  0  0  0  0  0  0  0
   16.5643  -21.0036    8.0928 C   0  0  0  0  0  0  0  0  0  0  0  0
   16.9653  -19.7913    8.0679 O   0  0  0  0  0  0  0  0  0  0  0  0
   19.4573  -25.5532    7.1323 O   0  0  0  0  0  0  0  0  0  0  0  0
   15.9312  -21.4518    9.2666 O   0  0  0  0  0  0  0  0  0  0  0  0
  1  5  1  0
  2  1  1  0
  3  2  1  0
  4  3  1  0
  4  5  1  0
  5  6  1  1
  6  7  2  0
  8  6  1  0
  9  8  1  0
  9 13  1  0
  9 10  1  1
 11 12  2  0
 11 10  1  0
 13 14  2  0
 13 16  1  0
 15 11  1  0
 16 17  1  0
 17 22  1  0
 17 18  1  6
 19 18  1  0
 20 19  1  0
 20 21  2  0
 22 23  2  0
 22 25  1  0
 24 20  1  0
M  END
$$$$
