PDE.pdb
     RDKit          3D

 25 25  0  0  1  0  0  0  0  0999 V2000
   17.7556  -11.3972  -14.3423 N   0  0  0  0  0  0  0  0  0  0  0  0
   17.3588  -12.6410  -14.9856 C   0  0  0  0  0  0  0  0  0  0  0  0
   15.8807  -12.4047  -15.2050 C   0  0  0  0  0  0  0  0  0  0  0  0
   15.7159  -10.9070  -15.2879 C   0  0  0  0  0  0  0  0  0  0  0  0
   17.1232  -10.4158  -15.2068 C   0  0  1  0  0  0  0  0  0  0  0  0
   17.2450   -9.0434  -14.6727 C   0  0  0  0  0  0  0  0  0  0  0  0
   16.8539   -8.0851  -15.3860 O   0  0  0  0  0  0  0  0  0  0  0  0
   17.7779   -8.7716  -13.4067 N   0  0  0  0  0  0  0  0  0  0  0  0
   17.9329   -7.4163  -12.8459 C   0  0  1  0  0  0  0  0  0  0  0  0
   17.6569   -7.5675  -11.3796 C   0  0  0  0  0  0  0  0  0  0  0  0
   17.8495   -6.3687  -10.5684 C   0  0  0  0  0  0  0  0  0  0  0  0
   18.0749   -5.2223  -11.0136 O   0  0  0  0  0  0  0  0  0  0  0  0
   19.2902   -6.9638  -13.1776 C   0  0  0  0  0  0  0  0  0  0  0  0
   20.3163   -7.6756  -12.9908 O   0  0  0  0  0  0  0  0  0  0  0  0
   17.7788   -6.5013   -9.1884 O   0  0  0  0  0  0  0  0  0  0  0  0
   19.4821   -5.6718  -13.7327 N   0  0  0  0  0  0  0  0  0  0  0  0
   20.7865   -5.1579  -14.1591 C   0  0  1  0  0  0  0  0  0  0  0  0
   20.4929   -4.0853  -15.1410 C   0  0  0  0  0  0  0  0  0  0  0  0
   21.6449   -3.2965  -15.6201 C   0  0  0  0  0  0  0  0  0  0  0  0
   21.2721   -2.1958  -16.5300 C   0  0  0  0  0  0  0  0  0  0  0  0
   20.0740   -1.9316  -16.8709 O   0  0  0  0  0  0  0  0  0  0  0  0
   21.6477   -4.8938  -13.0336 C   0  0  0  0  0  0  0  0  0  0  0  0
   21.1954   -4.6783  -11.8588 O   0  0  0  0  0  0  0  0  0  0  0  0
   22.2779   -1.3974  -17.0493 O   0  0  0  0  0  0  0  0  0  0  0  0
   23.0439   -4.8653  -13.2046 O   0  0  0  0  0  0  0  0  0  0  0  0
  1  5  1  0
  2  1  1  0
  3  2  1  0
  4  3  1  0
  4  5  1  0
  5  6  1  1
  6  7  2  0
  8  6  1  0
  9  8  1  0
  9 13  1  0
  9 10  1  1
 11 12  2  0
 11 10  1  0
 13 14  2  0
 13 16  1  0
 15 11  1  0
 16 17  1  0
 17 22  1  0
 17 18  1  1
 19 18  1  0
 20 19  1  0
 20 21  2  0
 22 23  2  0
 22 25  1  0
 24 20  1  0
M  END
$$$$
