PDE.pdb
     RDKit          3D

 25 25  0  0  1  0  0  0  0  0999 V2000
   19.7220  -11.8801  -17.6685 N   0  0  0  0  0  0  0  0  0  0  0  0
   18.8312  -12.9908  -17.9703 C   0  0  0  0  0  0  0  0  0  0  0  0
   18.9591  -13.8251  -16.7147 C   0  0  0  0  0  0  0  0  0  0  0  0
   19.3410  -12.8582  -15.6209 C   0  0  0  0  0  0  0  0  0  0  0  0
   19.3046  -11.5395  -16.3194 C   0  0  1  0  0  0  0  0  0  0  0  0
   20.1793  -10.5174  -15.7079 C   0  0  0  0  0  0  0  0  0  0  0  0
   19.8819  -10.0771  -14.5687 O   0  0  0  0  0  0  0  0  0  0  0  0
   21.3225  -10.0230  -16.3476 N   0  0  0  0  0  0  0  0  0  0  0  0
   22.2515   -9.0469  -15.7478 C   0  0  1  0  0  0  0  0  0  0  0  0
   23.6061   -9.4301  -16.2645 C   0  0  0  0  0  0  0  0  0  0  0  0
   23.7820   -9.3488  -17.7119 C   0  0  0  0  0  0  0  0  0  0  0  0
   24.2980   -8.3894  -18.3254 O   0  0  0  0  0  0  0  0  0  0  0  0
   21.7912   -7.7104  -16.1467 C   0  0  0  0  0  0  0  0  0  0  0  0
   21.2371   -7.4780  -17.2572 O   0  0  0  0  0  0  0  0  0  0  0  0
   23.3436  -10.4192  -18.4795 O   0  0  0  0  0  0  0  0  0  0  0  0
   21.9677   -6.6153  -15.2613 N   0  0  0  0  0  0  0  0  0  0  0  0
   21.2900   -5.3259  -15.4212 C   0  0  1  0  0  0  0  0  0  0  0  0
   19.8527   -5.6481  -15.5976 C   0  0  0  0  0  0  0  0  0  0  0  0
   18.9210   -4.5040  -15.6420 C   0  0  0  0  0  0  0  0  0  0  0  0
   17.5038   -4.8982  -15.7614 C   0  0  0  0  0  0  0  0  0  0  0  0
   17.1153   -6.0195  -16.2234 O   0  0  0  0  0  0  0  0  0  0  0  0
   21.7021   -4.3802  -14.4142 C   0  0  0  0  0  0  0  0  0  0  0  0
   22.0907   -4.7405  -13.2521 O   0  0  0  0  0  0  0  0  0  0  0  0
   16.5310   -4.0023  -15.3493 O   0  0  0  0  0  0  0  0  0  0  0  0
   21.6859   -3.0011  -14.6924 O   0  0  0  0  0  0  0  0  0  0  0  0
  1  5  1  0
  2  1  1  0
  3  2  1  0
  4  3  1  0
  4  5  1  0
  5  6  1  1
  6  7  2  0
  8  6  1  0
  9  8  1  0
  9 13  1  0
  9 10  1  6
 11 12  2  0
 11 10  1  0
 13 14  2  0
 13 16  1  0
 15 11  1  0
 16 17  1  0
 17 22  1  0
 17 18  1  1
 19 18  1  0
 20 19  1  0
 20 21  2  0
 22 23  2  0
 22 25  1  0
 24 20  1  0
M  END
$$$$
