PDE.pdb
     RDKit          3D

 25 25  0  0  1  0  0  0  0  0999 V2000
   25.7171  -34.1703   -3.9258 N   0  0  0  0  0  0  0  0  0  0  0  0
   25.3932  -33.2330   -4.9911 C   0  0  0  0  0  0  0  0  0  0  0  0
   24.8631  -32.0562   -4.2017 C   0  0  0  0  0  0  0  0  0  0  0  0
   25.5167  -32.1489   -2.8448 C   0  0  0  0  0  0  0  0  0  0  0  0
   26.4388  -33.3123   -3.0021 C   0  0  1  0  0  0  0  0  0  0  0  0
   26.7512  -34.0003   -1.7322 C   0  0  0  0  0  0  0  0  0  0  0  0
   25.9609  -34.8865   -1.3197 O   0  0  0  0  0  0  0  0  0  0  0  0
   27.8904  -33.7031   -0.9742 N   0  0  0  0  0  0  0  0  0  0  0  0
   28.2228  -34.3473    0.3104 C   0  0  1  0  0  0  0  0  0  0  0  0
   29.7168  -34.2669    0.4114 C   0  0  0  0  0  0  0  0  0  0  0  0
   30.4597  -35.3094   -0.2914 C   0  0  0  0  0  0  0  0  0  0  0  0
   29.9779  -36.3851   -0.7085 O   0  0  0  0  0  0  0  0  0  0  0  0
   27.4909  -33.6244    1.3587 C   0  0  0  0  0  0  0  0  0  0  0  0
   27.2601  -32.3842    1.3045 O   0  0  0  0  0  0  0  0  0  0  0  0
   31.8126  -35.0993   -0.5204 O   0  0  0  0  0  0  0  0  0  0  0  0
   27.0133  -34.3301    2.4937 N   0  0  0  0  0  0  0  0  0  0  0  0
   26.2314  -33.7079    3.5655 C   0  0  1  0  0  0  0  0  0  0  0  0
   25.3353  -34.7734    4.0779 C   0  0  0  0  0  0  0  0  0  0  0  0
   24.2171  -35.1728    3.2010 C   0  0  0  0  0  0  0  0  0  0  0  0
   23.3989  -36.2726    3.7478 C   0  0  0  0  0  0  0  0  0  0  0  0
   22.2790  -36.6340    3.2611 O   0  0  0  0  0  0  0  0  0  0  0  0
   27.0703  -32.9676    4.4746 C   0  0  0  0  0  0  0  0  0  0  0  0
   28.3193  -33.2021    4.6016 O   0  0  0  0  0  0  0  0  0  0  0  0
   23.8681  -36.9585    4.8560 O   0  0  0  0  0  0  0  0  0  0  0  0
   26.5207  -31.9421    5.2658 O   0  0  0  0  0  0  0  0  0  0  0  0
  1  5  1  0
  2  1  1  0
  3  2  1  0
  4  3  1  0
  4  5  1  0
  5  6  1  1
  6  7  2  0
  8  6  1  0
  9  8  1  0
  9 13  1  0
  9 10  1  1
 11 12  2  0
 11 10  1  0
 13 14  2  0
 13 16  1  0
 15 11  1  0
 16 17  1  0
 17 22  1  0
 17 18  1  1
 19 18  1  0
 20 19  1  0
 20 21  2  0
 22 23  2  0
 22 25  1  0
 24 20  1  0
M  END
$$$$
