PDE.pdb
     RDKit          3D

 25 25  0  0  1  0  0  0  0  0999 V2000
   20.4633  -12.5204  -16.4666 N   0  0  0  0  0  0  0  0  0  0  0  0
   20.7130  -13.7539  -17.1975 C   0  0  0  0  0  0  0  0  0  0  0  0
   19.4852  -13.8323  -18.0781 C   0  0  0  0  0  0  0  0  0  0  0  0
   19.0198  -12.4078  -18.2549 C   0  0  0  0  0  0  0  0  0  0  0  0
   20.0736  -11.6261  -17.5430 C   0  0  1  0  0  0  0  0  0  0  0  0
   19.6060  -10.3185  -17.0380 C   0  0  0  0  0  0  0  0  0  0  0  0
   19.4130   -9.3906  -17.8638 O   0  0  0  0  0  0  0  0  0  0  0  0
   19.3709  -10.0753  -15.6793 N   0  0  0  0  0  0  0  0  0  0  0  0
   18.9635   -8.7688  -15.1292 C   0  0  1  0  0  0  0  0  0  0  0  0
   17.7624   -9.0611  -14.2802 C   0  0  0  0  0  0  0  0  0  0  0  0
   16.5307   -9.3663  -15.0028 C   0  0  0  0  0  0  0  0  0  0  0  0
   16.1319   -8.7803  -16.0328 O   0  0  0  0  0  0  0  0  0  0  0  0
   20.1189   -8.2263  -14.4027 C   0  0  0  0  0  0  0  0  0  0  0  0
   21.0292   -8.9548  -13.9181 O   0  0  0  0  0  0  0  0  0  0  0  0
   15.7290  -10.3891  -14.5148 O   0  0  0  0  0  0  0  0  0  0  0  0
   20.2382   -6.8234  -14.2234 N   0  0  0  0  0  0  0  0  0  0  0  0
   21.5227   -6.1238  -14.1331 C   0  0  1  0  0  0  0  0  0  0  0  0
   22.2836   -6.5262  -15.3413 C   0  0  0  0  0  0  0  0  0  0  0  0
   23.6319   -5.9454  -15.4953 C   0  0  0  0  0  0  0  0  0  0  0  0
   24.3271   -6.3785  -16.7230 C   0  0  0  0  0  0  0  0  0  0  0  0
   24.6909   -7.5781  -16.9472 O   0  0  0  0  0  0  0  0  0  0  0  0
   21.3469   -4.7278  -13.8193 C   0  0  0  0  0  0  0  0  0  0  0  0
   20.3701   -4.0403  -14.2716 O   0  0  0  0  0  0  0  0  0  0  0  0
   24.6050   -5.4315  -17.6951 O   0  0  0  0  0  0  0  0  0  0  0  0
   22.2702   -4.0700  -12.9862 O   0  0  0  0  0  0  0  0  0  0  0  0
  1  5  1  0
  2  1  1  0
  3  2  1  0
  4  3  1  0
  4  5  1  0
  5  6  1  1
  6  7  2  0
  8  6  1  0
  9  8  1  0
  9 13  1  0
  9 10  1  1
 11 12  2  0
 11 10  1  0
 13 14  2  0
 13 16  1  0
 15 11  1  0
 16 17  1  0
 17 22  1  0
 17 18  1  6
 19 18  1  0
 20 19  1  0
 20 21  2  0
 22 23  2  0
 22 25  1  0
 24 20  1  0
M  END
$$$$
