GPY.pdb
     RDKit          3D

 24 25  0  0  1  0  0  0  0  0999 V2000
    6.7618  -18.2824   18.9449 N   0  0  0  0  0  0  0  0  0  0  0  0
    6.5862  -17.0425   19.6166 C   0  0  0  0  0  0  0  0  0  0  0  0
    7.7901  -16.3593   20.0675 C   0  0  0  0  0  0  0  0  0  0  0  0
    8.8277  -17.0368   20.2588 O   0  0  0  0  0  0  0  0  0  0  0  0
    7.8110  -14.9668   20.2907 N   0  0  0  0  0  0  0  0  0  0  0  0
    6.7617  -14.0513   19.9190 C   0  0  0  0  0  0  0  0  0  0  0  0
    7.2157  -12.6587   20.2989 C   0  0  0  0  0  0  0  0  0  0  0  0
    8.6968  -12.7809   20.5897 C   0  0  0  0  0  0  0  0  0  0  0  0
    8.9123  -14.2375   20.9391 C   0  0  1  0  0  0  0  0  0  0  0  0
    8.8408  -14.4549   22.4274 C   0  0  0  0  0  0  0  0  0  0  0  0
    7.8355  -14.0794   23.0806 O   0  0  0  0  0  0  0  0  0  0  0  0
    6.1117  -11.1242   27.4516 O   0  0  0  0  0  0  0  0  0  0  0  0
    6.6892  -12.2144   26.8350 C   0  0  0  0  0  0  0  0  0  0  0  0
    8.0277  -12.1951   26.4792 C   0  0  0  0  0  0  0  0  0  0  0  0
    8.5804  -13.2832   25.8703 C   0  0  0  0  0  0  0  0  0  0  0  0
    7.8642  -14.4251   25.5834 C   0  0  0  0  0  0  0  0  0  0  0  0
    8.4326  -15.6155   24.9193 C   0  0  0  0  0  0  0  0  0  0  0  0
    9.8643  -15.3462   24.5544 C   0  0  2  0  0  0  0  0  0  0  0  0
    9.9086  -15.0862   23.1058 N   0  0  0  0  0  0  0  0  0  0  0  0
   10.7882  -16.4237   24.9145 C   0  0  0  0  0  0  0  0  0  0  0  0
   11.3913  -16.5064   26.1412 O   0  0  0  0  0  0  0  0  0  0  0  0
    6.5147  -14.4199   25.9527 C   0  0  0  0  0  0  0  0  0  0  0  0
    5.9289  -13.3349   26.5694 C   0  0  0  0  0  0  0  0  0  0  0  0
   11.0463  -17.3293   24.0443 O   0  0  0  0  0  0  0  0  0  0  0  0
  1  2  1  0
  2  3  1  0
  3  4  2  0
  5  9  1  0
  5  3  1  0
  6  5  1  0
  7  6  1  0
  7  8  1  0
  8  9  1  0
  9 10  1  1
 10 11  2  0
 10 19  1  0
 12 13  1  0
 13 14  2  0
 14 15  1  0
 16 15  2  0
 16 17  1  0
 18 17  1  6
 18 20  1  0
 19 18  1  0
 20 24  2  0
 20 21  1  0
 22 16  1  0
 23 13  1  0
 23 22  2  0
M  END
$$$$
