GPY.pdb
     RDKit          3D

 24 25  0  0  1  0  0  0  0  0999 V2000
    8.6831  -17.8741   17.8065 N   0  0  0  0  0  0  0  0  0  0  0  0
    7.9114  -17.3243   18.8656 C   0  0  0  0  0  0  0  0  0  0  0  0
    8.6247  -16.5444   19.8667 C   0  0  0  0  0  0  0  0  0  0  0  0
    9.7155  -16.9828   20.3027 O   0  0  0  0  0  0  0  0  0  0  0  0
    8.1181  -15.3198   20.3495 N   0  0  0  0  0  0  0  0  0  0  0  0
    6.8717  -14.7202   19.9441 C   0  0  0  0  0  0  0  0  0  0  0  0
    6.7446  -13.3982   20.6692 C   0  0  0  0  0  0  0  0  0  0  0  0
    8.1186  -13.1152   21.2394 C   0  0  0  0  0  0  0  0  0  0  0  0
    8.7896  -14.4676   21.3434 C   0  0  1  0  0  0  0  0  0  0  0  0
    8.6011  -15.0631   22.7135 C   0  0  0  0  0  0  0  0  0  0  0  0
    7.6517  -15.8537   22.9416 O   0  0  0  0  0  0  0  0  0  0  0  0
    6.0134  -10.7469   27.2477 O   0  0  0  0  0  0  0  0  0  0  0  0
    6.5076  -11.9546   26.8008 C   0  0  0  0  0  0  0  0  0  0  0  0
    5.7232  -12.7935   26.0266 C   0  0  0  0  0  0  0  0  0  0  0  0
    6.2301  -13.9837   25.5944 C   0  0  0  0  0  0  0  0  0  0  0  0
    7.5076  -14.4061   25.8927 C   0  0  0  0  0  0  0  0  0  0  0  0
    8.0817  -15.6912   25.4453 C   0  0  0  0  0  0  0  0  0  0  0  0
    9.5095  -15.4811   25.0300 C   0  0  2  0  0  0  0  0  0  0  0  0
    9.4942  -14.7367   23.7598 N   0  0  0  0  0  0  0  0  0  0  0  0
   10.2833  -16.7170   24.8954 C   0  0  0  0  0  0  0  0  0  0  0  0
   10.0172  -17.6597   23.9384 O   0  0  0  0  0  0  0  0  0  0  0  0
    8.2798  -13.5411   26.6757 C   0  0  0  0  0  0  0  0  0  0  0  0
    7.7943  -12.3321   27.1267 C   0  0  0  0  0  0  0  0  0  0  0  0
   11.2514  -16.9284   25.7091 O   0  0  0  0  0  0  0  0  0  0  0  0
  1  2  1  0
  2  3  1  0
  3  4  2  0
  5  9  1  0
  5  3  1  0
  6  5  1  0
  7  6  1  0
  7  8  1  0
  8  9  1  0
  9 10  1  1
 10 11  2  0
 10 19  1  0
 12 13  1  0
 13 14  2  0
 14 15  1  0
 16 15  2  0
 16 17  1  0
 18 17  1  6
 18 20  1  0
 19 18  1  0
 20 24  2  0
 20 21  1  0
 22 16  1  0
 23 13  1  0
 23 22  2  0
M  END
$$$$
