GPY.pdb
     RDKit          3D

 24 25  0  0  1  0  0  0  0  0999 V2000
   10.8594  -16.9648   18.2335 N   0  0  0  0  0  0  0  0  0  0  0  0
    9.6557  -17.0111   18.9874 C   0  0  0  0  0  0  0  0  0  0  0  0
    9.4671  -15.9771   19.9947 C   0  0  0  0  0  0  0  0  0  0  0  0
   10.4789  -15.3966   20.4545 O   0  0  0  0  0  0  0  0  0  0  0  0
    8.1834  -15.6205   20.4575 N   0  0  0  0  0  0  0  0  0  0  0  0
    6.9415  -16.1323   19.9351 C   0  0  0  0  0  0  0  0  0  0  0  0
    5.8166  -15.4516   20.6842 C   0  0  0  0  0  0  0  0  0  0  0  0
    6.4599  -14.2907   21.4135 C   0  0  0  0  0  0  0  0  0  0  0  0
    7.9192  -14.6681   21.5477 C   0  0  1  0  0  0  0  0  0  0  0  0
    8.1866  -15.3410   22.8679 C   0  0  0  0  0  0  0  0  0  0  0  0
    8.1857  -16.5942   22.9582 O   0  0  0  0  0  0  0  0  0  0  0  0
   10.7865  -16.1520   31.2379 O   0  0  0  0  0  0  0  0  0  0  0  0
   10.3102  -15.6548   30.0428 C   0  0  0  0  0  0  0  0  0  0  0  0
    9.0981  -16.0894   29.5323 C   0  0  0  0  0  0  0  0  0  0  0  0
    8.6442  -15.5857   28.3489 C   0  0  0  0  0  0  0  0  0  0  0  0
    9.3409  -14.6480   27.6176 C   0  0  0  0  0  0  0  0  0  0  0  0
    8.8790  -14.0895   26.3309 C   0  0  0  0  0  0  0  0  0  0  0  0
    8.8395  -15.1807   25.2998 C   0  0  2  0  0  0  0  0  0  0  0  0
    8.4422  -14.5659   24.0223 N   0  0  0  0  0  0  0  0  0  0  0  0
    7.9488  -16.2930   25.6371 C   0  0  0  0  0  0  0  0  0  0  0  0
    6.5872  -16.2195   25.5096 O   0  0  0  0  0  0  0  0  0  0  0  0
   10.5620  -14.2252   28.1543 C   0  0  0  0  0  0  0  0  0  0  0  0
   11.0459  -14.7164   29.3482 C   0  0  0  0  0  0  0  0  0  0  0  0
    8.4639  -17.3833   26.0726 O   0  0  0  0  0  0  0  0  0  0  0  0
  1  2  1  0
  2  3  1  0
  3  4  2  0
  5  9  1  0
  5  3  1  0
  6  5  1  0
  7  6  1  0
  7  8  1  0
  8  9  1  0
  9 10  1  1
 10 11  2  0
 10 19  1  0
 12 13  1  0
 13 14  2  0
 14 15  1  0
 16 15  2  0
 16 17  1  0
 18 17  1  1
 18 20  1  0
 19 18  1  0
 20 24  2  0
 20 21  1  0
 22 16  1  0
 23 13  1  0
 23 22  2  0
M  END
$$$$
