GPY.pdb
     RDKit          3D

 24 25  0  0  1  0  0  0  0  0999 V2000
    7.3399  -18.1130   18.0524 N   0  0  0  0  0  0  0  0  0  0  0  0
    6.9848  -16.9843   18.8395 C   0  0  0  0  0  0  0  0  0  0  0  0
    8.0510  -16.3463   19.5981 C   0  0  0  0  0  0  0  0  0  0  0  0
    9.0660  -17.0220   19.8900 O   0  0  0  0  0  0  0  0  0  0  0  0
    7.9647  -14.9989   20.0059 N   0  0  0  0  0  0  0  0  0  0  0  0
    6.8933  -14.0965   19.6666 C   0  0  0  0  0  0  0  0  0  0  0  0
    7.2250  -12.7482   20.2681 C   0  0  0  0  0  0  0  0  0  0  0  0
    8.6820  -12.8323   20.6721 C   0  0  0  0  0  0  0  0  0  0  0  0
    8.9604  -14.3100   20.8421 C   0  0  1  0  0  0  0  0  0  0  0  0
    8.7811  -14.7347   22.2756 C   0  0  0  0  0  0  0  0  0  0  0  0
    7.6733  -15.1678   22.6800 O   0  0  0  0  0  0  0  0  0  0  0  0
    5.8454  -11.0691   27.1534 O   0  0  0  0  0  0  0  0  0  0  0  0
    6.4436  -12.1699   26.5766 C   0  0  0  0  0  0  0  0  0  0  0  0
    5.6848  -13.2626   26.1909 C   0  0  0  0  0  0  0  0  0  0  0  0
    6.2950  -14.3417   25.6222 C   0  0  0  0  0  0  0  0  0  0  0  0
    7.6546  -14.4055   25.4060 C   0  0  0  0  0  0  0  0  0  0  0  0
    8.3445  -15.5618   24.7993 C   0  0  0  0  0  0  0  0  0  0  0  0
    9.7811  -15.2066   24.5435 C   0  0  2  0  0  0  0  0  0  0  0  0
    9.8620  -14.6497   23.1829 N   0  0  0  0  0  0  0  0  0  0  0  0
   10.7128  -16.3253   24.7004 C   0  0  0  0  0  0  0  0  0  0  0  0
   11.1259  -17.1011   23.6501 O   0  0  0  0  0  0  0  0  0  0  0  0
    8.3989  -13.2895   25.8040 C   0  0  0  0  0  0  0  0  0  0  0  0
    7.8096  -12.1848   26.3812 C   0  0  0  0  0  0  0  0  0  0  0  0
   11.1614  -16.5929   25.8713 O   0  0  0  0  0  0  0  0  0  0  0  0
  1  2  1  0
  2  3  1  0
  3  4  2  0
  5  9  1  0
  5  3  1  0
  6  5  1  0
  7  6  1  0
  7  8  1  0
  8  9  1  0
  9 10  1  1
 10 11  2  0
 10 19  1  0
 12 13  1  0
 13 14  2  0
 14 15  1  0
 16 15  2  0
 16 17  1  0
 18 17  1  6
 18 20  1  0
 19 18  1  0
 20 24  2  0
 20 21  1  0
 22 16  1  0
 23 13  1  0
 23 22  2  0
M  END
$$$$
