GPY.pdb
     RDKit          3D

 24 25  0  0  1  0  0  0  0  0999 V2000
    8.1641  -13.1750   17.4702 N   0  0  0  0  0  0  0  0  0  0  0  0
    8.9638  -14.0725   18.2280 C   0  0  0  0  0  0  0  0  0  0  0  0
    8.6978  -14.1484   19.6573 C   0  0  0  0  0  0  0  0  0  0  0  0
    9.2009  -13.2790   20.4077 O   0  0  0  0  0  0  0  0  0  0  0  0
    7.8945  -15.1691   20.2071 N   0  0  0  0  0  0  0  0  0  0  0  0
    7.4045  -16.3175   19.4872 C   0  0  0  0  0  0  0  0  0  0  0  0
    6.5503  -17.1235   20.4414 C   0  0  0  0  0  0  0  0  0  0  0  0
    6.3002  -16.2152   21.6270 C   0  0  0  0  0  0  0  0  0  0  0  0
    7.4346  -15.2139   21.6042 C   0  0  1  0  0  0  0  0  0  0  0  0
    8.5711  -15.6611   22.4849 C   0  0  0  0  0  0  0  0  0  0  0  0
    9.4276  -16.4755   22.0586 O   0  0  0  0  0  0  0  0  0  0  0  0
    4.9257  -12.1122   26.7138 O   0  0  0  0  0  0  0  0  0  0  0  0
    6.1570  -12.6830   26.4683 C   0  0  0  0  0  0  0  0  0  0  0  0
    7.1416  -11.9737   25.8005 C   0  0  0  0  0  0  0  0  0  0  0  0
    8.3528  -12.5557   25.5673 C   0  0  0  0  0  0  0  0  0  0  0  0
    8.6568  -13.8387   25.9682 C   0  0  0  0  0  0  0  0  0  0  0  0
    9.9556  -14.4980   25.7244 C   0  0  0  0  0  0  0  0  0  0  0  0
    9.7800  -15.5802   24.6980 C   0  0  2  0  0  0  0  0  0  0  0  0
    8.6852  -15.1668   23.8045 N   0  0  0  0  0  0  0  0  0  0  0  0
    9.5142  -16.9049   25.2624 C   0  0  0  0  0  0  0  0  0  0  0  0
    8.3310  -17.5686   25.0752 O   0  0  0  0  0  0  0  0  0  0  0  0
    7.6459  -14.5342   26.6407 C   0  0  0  0  0  0  0  0  0  0  0  0
    6.4122  -13.9717   26.8907 C   0  0  0  0  0  0  0  0  0  0  0  0
   10.4270  -17.4692   25.9641 O   0  0  0  0  0  0  0  0  0  0  0  0
  1  2  1  0
  2  3  1  0
  3  4  2  0
  5  9  1  0
  5  3  1  0
  6  5  1  0
  7  6  1  0
  7  8  1  0
  8  9  1  0
  9 10  1  1
 10 11  2  0
 10 19  1  0
 12 13  1  0
 13 14  2  0
 14 15  1  0
 16 15  2  0
 16 17  1  0
 18 17  1  1
 18 20  1  0
 19 18  1  0
 20 24  2  0
 20 21  1  0
 22 16  1  0
 23 13  1  0
 23 22  2  0
M  END
$$$$
