GPY.pdb
     RDKit          3D

 24 25  0  0  1  0  0  0  0  0999 V2000
    6.2408  -18.3293   19.0702 N   0  0  0  0  0  0  0  0  0  0  0  0
    6.2519  -17.0675   19.7240 C   0  0  0  0  0  0  0  0  0  0  0  0
    7.5534  -16.4672   19.9790 C   0  0  0  0  0  0  0  0  0  0  0  0
    8.5595  -17.2141   20.0241 O   0  0  0  0  0  0  0  0  0  0  0  0
    7.7021  -15.0783   20.1740 N   0  0  0  0  0  0  0  0  0  0  0  0
    6.6253  -14.1203   20.1710 C   0  0  0  0  0  0  0  0  0  0  0  0
    7.2343  -12.7491   20.3681 C   0  0  0  0  0  0  0  0  0  0  0  0
    8.7211  -12.9305   20.1452 C   0  0  0  0  0  0  0  0  0  0  0  0
    8.9847  -14.3969   20.4104 C   0  0  1  0  0  0  0  0  0  0  0  0
    9.4089  -14.6226   21.8374 C   0  0  0  0  0  0  0  0  0  0  0  0
   10.5352  -14.2361   22.2381 O   0  0  0  0  0  0  0  0  0  0  0  0
    6.0439  -10.7008   27.4030 O   0  0  0  0  0  0  0  0  0  0  0  0
    6.4239  -11.8800   26.7970 C   0  0  0  0  0  0  0  0  0  0  0  0
    7.7600  -12.1429   26.5435 C   0  0  0  0  0  0  0  0  0  0  0  0
    8.1157  -13.3149   25.9434 C   0  0  0  0  0  0  0  0  0  0  0  0
    7.1984  -14.2722   25.5672 C   0  0  0  0  0  0  0  0  0  0  0  0
    7.5520  -15.5466   24.9100 C   0  0  0  0  0  0  0  0  0  0  0  0
    8.8530  -15.3851   24.1775 C   0  0  2  0  0  0  0  0  0  0  0  0
    8.5403  -15.2741   22.7430 N   0  0  0  0  0  0  0  0  0  0  0  0
    9.8134  -16.4645   24.4151 C   0  0  0  0  0  0  0  0  0  0  0  0
   10.1750  -17.3638   23.4475 O   0  0  0  0  0  0  0  0  0  0  0  0
    5.8556  -13.9832   25.8340 C   0  0  0  0  0  0  0  0  0  0  0  0
    5.4664  -12.8072   26.4394 C   0  0  0  0  0  0  0  0  0  0  0  0
   10.3387  -16.5755   25.5795 O   0  0  0  0  0  0  0  0  0  0  0  0
  1  2  1  0
  2  3  1  0
  3  4  2  0
  5  9  1  0
  5  3  1  0
  6  5  1  0
  7  6  1  0
  7  8  1  0
  8  9  1  0
  9 10  1  1
 10 11  2  0
 10 19  1  0
 12 13  1  0
 13 14  2  0
 14 15  1  0
 16 15  2  0
 16 17  1  0
 18 17  1  1
 18 20  1  0
 19 18  1  0
 20 24  2  0
 20 21  1  0
 22 16  1  0
 23 13  1  0
 23 22  2  0
M  END
$$$$
