GPY.pdb
     RDKit          3D

 24 25  0  0  1  0  0  0  0  0999 V2000
    5.5703  -18.8243   21.2159 N   0  0  0  0  0  0  0  0  0  0  0  0
    5.7367  -17.4384   21.4828 C   0  0  0  0  0  0  0  0  0  0  0  0
    7.1005  -16.9300   21.5090 C   0  0  0  0  0  0  0  0  0  0  0  0
    8.0418  -17.7460   21.6512 O   0  0  0  0  0  0  0  0  0  0  0  0
    7.3796  -15.5536   21.3792 N   0  0  0  0  0  0  0  0  0  0  0  0
    6.4157  -14.5413   21.0280 C   0  0  0  0  0  0  0  0  0  0  0  0
    7.1486  -13.2194   20.9549 C   0  0  0  0  0  0  0  0  0  0  0  0
    8.6211  -13.5728   20.9461 C   0  0  0  0  0  0  0  0  0  0  0  0
    8.7027  -14.9429   21.5836 C   0  0  1  0  0  0  0  0  0  0  0  0
    8.9766  -14.8389   23.0606 C   0  0  0  0  0  0  0  0  0  0  0  0
    8.4167  -13.9530   23.7535 O   0  0  0  0  0  0  0  0  0  0  0  0
    6.1258  -11.2994   27.3236 O   0  0  0  0  0  0  0  0  0  0  0  0
    6.7308  -12.4714   26.9204 C   0  0  0  0  0  0  0  0  0  0  0  0
    8.1108  -12.5914   26.9306 C   0  0  0  0  0  0  0  0  0  0  0  0
    8.6901  -13.7587   26.5282 C   0  0  0  0  0  0  0  0  0  0  0  0
    7.9617  -14.8486   26.1027 C   0  0  0  0  0  0  0  0  0  0  0  0
    8.5602  -16.1223   25.6549 C   0  0  0  0  0  0  0  0  0  0  0  0
    9.9508  -15.8682   25.1480 C   0  0  2  0  0  0  0  0  0  0  0  0
    9.8697  -15.7407   23.6834 N   0  0  0  0  0  0  0  0  0  0  0  0
   10.9237  -16.8959   25.5241 C   0  0  0  0  0  0  0  0  0  0  0  0
   11.2748  -17.9263   24.6932 O   0  0  0  0  0  0  0  0  0  0  0  0
    6.5702  -14.7024   26.1017 C   0  0  0  0  0  0  0  0  0  0  0  0
    5.9567  -13.5348   26.5031 C   0  0  0  0  0  0  0  0  0  0  0  0
   11.4705  -16.8311   26.6820 O   0  0  0  0  0  0  0  0  0  0  0  0
  1  2  1  0
  2  3  1  0
  3  4  2  0
  5  9  1  0
  5  3  1  0
  6  5  1  0
  7  6  1  0
  7  8  1  0
  8  9  1  0
  9 10  1  1
 10 11  2  0
 10 19  1  0
 12 13  1  0
 13 14  2  0
 14 15  1  0
 16 15  2  0
 16 17  1  0
 18 17  1  6
 18 20  1  0
 19 18  1  0
 20 24  2  0
 20 21  1  0
 22 16  1  0
 23 13  1  0
 23 22  2  0
M  END
$$$$
