GPY.pdb
     RDKit          3D

 24 25  0  0  1  0  0  0  0  0999 V2000
    4.5037  -18.0840   21.0932 N   0  0  0  0  0  0  0  0  0  0  0  0
    5.0312  -16.7753   21.2627 C   0  0  0  0  0  0  0  0  0  0  0  0
    6.4734  -16.6231   21.1360 C   0  0  0  0  0  0  0  0  0  0  0  0
    7.2061  -17.6029   21.4107 O   0  0  0  0  0  0  0  0  0  0  0  0
    7.0551  -15.4090   20.7152 N   0  0  0  0  0  0  0  0  0  0  0  0
    6.3315  -14.2867   20.1727 C   0  0  0  0  0  0  0  0  0  0  0  0
    7.3447  -13.2221   19.8123 C   0  0  0  0  0  0  0  0  0  0  0  0
    8.6915  -13.9130   19.8570 C   0  0  0  0  0  0  0  0  0  0  0  0
    8.4940  -15.1056   20.7673 C   0  0  1  0  0  0  0  0  0  0  0  0
    8.8788  -14.7757   22.1852 C   0  0  0  0  0  0  0  0  0  0  0  0
    8.2986  -13.8502   22.8060 O   0  0  0  0  0  0  0  0  0  0  0  0
   10.4556  -14.8873   30.5355 O   0  0  0  0  0  0  0  0  0  0  0  0
   10.1176  -14.9985   29.2030 C   0  0  0  0  0  0  0  0  0  0  0  0
    9.8661  -13.8678   28.4435 C   0  0  0  0  0  0  0  0  0  0  0  0
    9.5333  -13.9986   27.1273 C   0  0  0  0  0  0  0  0  0  0  0  0
    9.4311  -15.2208   26.4986 C   0  0  0  0  0  0  0  0  0  0  0  0
    9.0663  -15.3946   25.0781 C   0  0  0  0  0  0  0  0  0  0  0  0
   10.2917  -15.2305   24.2255 C   0  0  2  0  0  0  0  0  0  0  0  0
    9.9004  -15.5072   22.8333 N   0  0  0  0  0  0  0  0  0  0  0  0
   11.4177  -16.0777   24.6239 C   0  0  0  0  0  0  0  0  0  0  0  0
   12.4575  -15.6201   25.3888 O   0  0  0  0  0  0  0  0  0  0  0  0
    9.6899  -16.3473   27.2870 C   0  0  0  0  0  0  0  0  0  0  0  0
   10.0285  -16.2459   28.6196 C   0  0  0  0  0  0  0  0  0  0  0  0
   11.4336  -17.3008   24.2397 O   0  0  0  0  0  0  0  0  0  0  0  0
  1  2  1  0
  2  3  1  0
  3  4  2  0
  5  9  1  0
  5  3  1  0
  6  5  1  0
  7  6  1  0
  7  8  1  0
  8  9  1  0
  9 10  1  1
 10 11  2  0
 10 19  1  0
 12 13  1  0
 13 14  2  0
 14 15  1  0
 16 15  2  0
 16 17  1  0
 18 17  1  1
 18 20  1  0
 19 18  1  0
 20 24  2  0
 20 21  1  0
 22 16  1  0
 23 13  1  0
 23 22  2  0
M  END
$$$$
