GPY.pdb
     RDKit          3D

 24 25  0  0  1  0  0  0  0  0999 V2000
    6.3342  -18.5408   18.3906 N   0  0  0  0  0  0  0  0  0  0  0  0
    6.2833  -17.2330   18.9443 C   0  0  0  0  0  0  0  0  0  0  0  0
    7.5348  -16.6744   19.4351 C   0  0  0  0  0  0  0  0  0  0  0  0
    8.2986  -17.4108   20.1034 O   0  0  0  0  0  0  0  0  0  0  0  0
    7.9000  -15.3369   19.1764 N   0  0  0  0  0  0  0  0  0  0  0  0
    7.2125  -14.4493   18.2725 C   0  0  0  0  0  0  0  0  0  0  0  0
    7.9642  -13.1361   18.2631 C   0  0  0  0  0  0  0  0  0  0  0  0
    9.2909  -13.4240   18.9340 C   0  0  0  0  0  0  0  0  0  0  0  0
    9.0427  -14.6448   19.7932 C   0  0  1  0  0  0  0  0  0  0  0  0
    8.6821  -14.2531   21.2016 C   0  0  0  0  0  0  0  0  0  0  0  0
    7.7813  -13.4044   21.4182 O   0  0  0  0  0  0  0  0  0  0  0  0
    6.1483  -11.9273   28.6827 O   0  0  0  0  0  0  0  0  0  0  0  0
    6.4958  -12.5733   27.5146 C   0  0  0  0  0  0  0  0  0  0  0  0
    6.8347  -13.9163   27.5265 C   0  0  0  0  0  0  0  0  0  0  0  0
    7.1755  -14.5371   26.3609 C   0  0  0  0  0  0  0  0  0  0  0  0
    7.2018  -13.8870   25.1460 C   0  0  0  0  0  0  0  0  0  0  0  0
    7.5728  -14.5300   23.8693 C   0  0  0  0  0  0  0  0  0  0  0  0
    9.0617  -14.4545   23.6879 C   0  0  2  0  0  0  0  0  0  0  0  0
    9.3564  -14.8390   22.2975 N   0  0  0  0  0  0  0  0  0  0  0  0
    9.8231  -15.2824   24.6255 C   0  0  0  0  0  0  0  0  0  0  0  0
   10.0084  -16.6276   24.4476 O   0  0  0  0  0  0  0  0  0  0  0  0
    6.8554  -12.5314   25.1604 C   0  0  0  0  0  0  0  0  0  0  0  0
    6.5066  -11.8775   26.3230 C   0  0  0  0  0  0  0  0  0  0  0  0
   10.3381  -14.7260   25.6594 O   0  0  0  0  0  0  0  0  0  0  0  0
  1  2  1  0
  2  3  1  0
  3  4  2  0
  5  9  1  0
  5  3  1  0
  6  5  1  0
  7  6  1  0
  7  8  1  0
  8  9  1  0
  9 10  1  1
 10 11  2  0
 10 19  1  0
 12 13  1  0
 13 14  2  0
 14 15  1  0
 16 15  2  0
 16 17  1  0
 18 17  1  1
 18 20  1  0
 19 18  1  0
 20 24  2  0
 20 21  1  0
 22 16  1  0
 23 13  1  0
 23 22  2  0
M  END
$$$$
