HHF.pdb
     RDKit          3D

 32 34  0  0  1  0  0  0  0  0999 V2000
    6.0893  -18.7084   19.8924 N   0  0  0  0  0  0  0  0  0  0  0  0
    5.8079  -17.5011   20.6482 C   0  0  1  0  0  0  0  0  0  0  0  0
    4.9529  -17.8036   21.8595 C   0  0  0  0  0  0  0  0  0  0  0  0
    3.6708  -18.4395   21.4781 C   0  0  0  0  0  0  0  0  0  0  0  0
    3.3054  -18.7511   20.1888 C   0  0  0  0  0  0  0  0  0  0  0  0
    2.0993  -19.3069   20.2141 N   0  0  0  0  0  0  0  0  0  0  0  0
    1.7105  -19.3455   21.4953 C   0  0  0  0  0  0  0  0  0  0  0  0
    2.6587  -18.8214   22.2650 N   0  0  0  0  0  0  0  0  0  0  0  0
    7.0988  -16.9263   21.0822 C   0  0  0  0  0  0  0  0  0  0  0  0
    8.1489  -17.5603   20.7262 O   0  0  0  0  0  0  0  0  0  0  0  0
    7.1861  -15.7378   21.8515 N   0  0  0  0  0  0  0  0  0  0  0  0
    8.4498  -15.0556   22.0080 C   0  0  1  0  0  0  0  0  0  0  0  0
    8.3187  -13.6124   21.5520 C   0  0  0  0  0  0  0  0  0  0  0  0
    8.3307  -13.5058   20.0622 C   0  0  0  0  0  0  0  0  0  0  0  0
    9.2313  -12.7546   19.3422 C   0  0  0  0  0  0  0  0  0  0  0  0
    8.9175  -12.9159   18.0469 N   0  0  0  0  0  0  0  0  0  0  0  0
    7.8598  -13.7358   17.9320 C   0  0  0  0  0  0  0  0  0  0  0  0
    7.5135  -14.0875   19.1761 N   0  0  0  0  0  0  0  0  0  0  0  0
    8.9174  -15.1172   23.4274 C   0  0  0  0  0  0  0  0  0  0  0  0
    9.9797  -14.5479   23.7708 O   0  0  0  0  0  0  0  0  0  0  0  0
    8.1873  -15.8122   24.4257 N   0  0  0  0  0  0  0  0  0  0  0  0
    8.7122  -15.9557   25.7830 C   0  0  1  0  0  0  0  0  0  0  0  0
    7.6244  -15.4361   26.6934 C   0  0  0  0  0  0  0  0  0  0  0  0
    7.5430  -13.9779   26.7787 C   0  0  0  0  0  0  0  0  0  0  0  0
    8.5337  -13.2571   27.3890 C   0  0  0  0  0  0  0  0  0  0  0  0
    8.4440  -11.8780   27.4529 C   0  0  0  0  0  0  0  0  0  0  0  0
    7.3809  -11.2223   26.9159 C   0  0  0  0  0  0  0  0  0  0  0  0
    6.3946  -11.9437   26.3079 C   0  0  0  0  0  0  0  0  0  0  0  0
    6.4681  -13.3195   26.2352 C   0  0  0  0  0  0  0  0  0  0  0  0
    8.9713  -17.3807   26.0874 C   0  0  0  0  0  0  0  0  0  0  0  0
    9.5375  -17.7954   27.2807 O   0  0  0  0  0  0  0  0  0  0  0  0
    8.6835  -18.3074   25.2557 O   0  0  0  0  0  0  0  0  0  0  0  0
  2  1  1  1
  3  4  1  0
  3  2  1  0
  4  5  2  0
  5  6  1  0
  7  6  1  0
  8  4  1  0
  8  7  2  0
  9  2  1  0
  9 10  2  0
 11  9  1  0
 12 11  1  0
 12 13  1  1
 13 14  1  0
 14 18  1  0
 14 15  2  0
 15 16  1  0
 17 16  1  0
 18 17  2  0
 19 12  1  0
 20 19  2  0
 21 19  1  0
 22 23  1  1
 22 21  1  0
 24 29  1  0
 24 23  1  0
 25 24  2  0
 26 27  2  0
 26 25  1  0
 27 28  1  0
 28 29  2  0
 30 22  1  0
 31 30  1  0
 32 30  2  0
M  END
$$$$
