HHF.pdb
     RDKit          3D

 32 34  0  0  1  0  0  0  0  0999 V2000
    7.7456  -16.9477   19.6953 N   0  0  0  0  0  0  0  0  0  0  0  0
    8.5862  -16.1296   20.5509 C   0  0  1  0  0  0  0  0  0  0  0  0
    7.8809  -14.8503   20.9452 C   0  0  0  0  0  0  0  0  0  0  0  0
    7.8083  -13.8958   19.8150 C   0  0  0  0  0  0  0  0  0  0  0  0
    8.3265  -14.1271   18.5617 C   0  0  0  0  0  0  0  0  0  0  0  0
    8.0830  -13.0655   17.8014 N   0  0  0  0  0  0  0  0  0  0  0  0
    7.4234  -12.1807   18.5604 C   0  0  0  0  0  0  0  0  0  0  0  0
    7.2545  -12.6787   19.7810 N   0  0  0  0  0  0  0  0  0  0  0  0
    8.9026  -16.9162   21.7620 C   0  0  0  0  0  0  0  0  0  0  0  0
    7.9793  -17.6857   22.1942 O   0  0  0  0  0  0  0  0  0  0  0  0
   10.1560  -16.8341   22.4208 N   0  0  0  0  0  0  0  0  0  0  0  0
   10.4394  -17.6673   23.5663 C   0  0  1  0  0  0  0  0  0  0  0  0
   11.7965  -18.3300   23.4012 C   0  0  0  0  0  0  0  0  0  0  0  0
   11.7647  -19.3871   22.3465 C   0  0  0  0  0  0  0  0  0  0  0  0
   11.2939  -20.6658   22.5392 C   0  0  0  0  0  0  0  0  0  0  0  0
   11.4311  -21.3065   21.3675 N   0  0  0  0  0  0  0  0  0  0  0  0
   11.9674  -20.4796   20.4550 C   0  0  0  0  0  0  0  0  0  0  0  0
   12.1652  -19.3084   21.0719 N   0  0  0  0  0  0  0  0  0  0  0  0
   10.3952  -16.8695   24.8307 C   0  0  0  0  0  0  0  0  0  0  0  0
   11.0421  -15.8007   24.9295 O   0  0  0  0  0  0  0  0  0  0  0  0
    9.6306  -17.2855   25.9510 N   0  0  0  0  0  0  0  0  0  0  0  0
    9.6718  -16.5442   27.2108 C   0  0  1  0  0  0  0  0  0  0  0  0
    8.2590  -16.0613   27.4412 C   0  0  0  0  0  0  0  0  0  0  0  0
    7.9476  -14.7682   26.8320 C   0  0  0  0  0  0  0  0  0  0  0  0
    7.2953  -14.7004   25.6307 C   0  0  0  0  0  0  0  0  0  0  0  0
    7.0015  -13.4686   25.0737 C   0  0  0  0  0  0  0  0  0  0  0  0
    7.3524  -12.3162   25.7041 C   0  0  0  0  0  0  0  0  0  0  0  0
    8.0028  -12.3869   26.9020 C   0  0  0  0  0  0  0  0  0  0  0  0
    8.3034  -13.6069   27.4717 C   0  0  0  0  0  0  0  0  0  0  0  0
   10.0754  -17.4361   28.3207 C   0  0  0  0  0  0  0  0  0  0  0  0
   10.2727  -18.7955   28.1483 O   0  0  0  0  0  0  0  0  0  0  0  0
   10.2624  -16.9917   29.5042 O   0  0  0  0  0  0  0  0  0  0  0  0
  2  1  1  6
  3  4  1  0
  3  2  1  0
  4  5  2  0
  5  6  1  0
  7  6  1  0
  8  4  1  0
  8  7  2  0
  9  2  1  0
  9 10  2  0
 11  9  1  0
 12 11  1  0
 12 13  1  6
 13 14  1  0
 14 18  1  0
 14 15  2  0
 15 16  1  0
 17 16  1  0
 18 17  2  0
 19 12  1  0
 20 19  2  0
 21 19  1  0
 22 23  1  1
 22 21  1  0
 24 29  1  0
 24 23  1  0
 25 24  2  0
 26 27  2  0
 26 25  1  0
 27 28  1  0
 28 29  2  0
 30 22  1  0
 31 30  1  0
 32 30  2  0
M  END
$$$$
