HHF.pdb
     RDKit          3D

 32 34  0  0  1  0  0  0  0  0999 V2000
    7.0910  -16.8244   19.3743 N   0  0  0  0  0  0  0  0  0  0  0  0
    8.2670  -16.2444   19.9976 C   0  0  1  0  0  0  0  0  0  0  0  0
    8.1072  -14.7505   20.1780 C   0  0  0  0  0  0  0  0  0  0  0  0
    8.1005  -14.0409   18.8780 C   0  0  0  0  0  0  0  0  0  0  0  0
    8.1925  -14.6561   17.6508 C   0  0  0  0  0  0  0  0  0  0  0  0
    8.1555  -13.7227   16.7065 N   0  0  0  0  0  0  0  0  0  0  0  0
    8.0423  -12.5404   17.3259 C   0  0  0  0  0  0  0  0  0  0  0  0
    8.0085  -12.7276   18.6412 N   0  0  0  0  0  0  0  0  0  0  0  0
    8.4455  -16.8879   21.3165 C   0  0  0  0  0  0  0  0  0  0  0  0
    7.4029  -16.9758   22.0490 O   0  0  0  0  0  0  0  0  0  0  0  0
    9.6971  -17.3859   21.7608 N   0  0  0  0  0  0  0  0  0  0  0  0
    9.8279  -17.9789   23.0715 C   0  0  1  0  0  0  0  0  0  0  0  0
   10.7836  -19.1584   23.0129 C   0  0  0  0  0  0  0  0  0  0  0  0
   10.2243  -20.2759   22.1948 C   0  0  0  0  0  0  0  0  0  0  0  0
    9.3960  -21.2602   22.6836 C   0  0  0  0  0  0  0  0  0  0  0  0
    9.1116  -22.0707   21.6517 N   0  0  0  0  0  0  0  0  0  0  0  0
    9.7285  -21.6311   20.5425 C   0  0  0  0  0  0  0  0  0  0  0  0
   10.4054  -20.5311   20.8935 N   0  0  0  0  0  0  0  0  0  0  0  0
   10.3004  -16.9696   24.0692 C   0  0  0  0  0  0  0  0  0  0  0  0
   11.0401  -16.0230   23.7126 O   0  0  0  0  0  0  0  0  0  0  0  0
    9.9350  -17.0436   25.4381 N   0  0  0  0  0  0  0  0  0  0  0  0
    9.5993  -15.8391   26.1962 C   0  0  1  0  0  0  0  0  0  0  0  0
    8.4523  -15.1992   25.4497 C   0  0  0  0  0  0  0  0  0  0  0  0
    8.0019  -13.9207   26.0000 C   0  0  0  0  0  0  0  0  0  0  0  0
    8.8341  -13.1629   26.7788 C   0  0  0  0  0  0  0  0  0  0  0  0
    8.3940  -11.9524   27.2837 C   0  0  0  0  0  0  0  0  0  0  0  0
    7.1399  -11.4999   27.0174 C   0  0  0  0  0  0  0  0  0  0  0  0
    6.3123  -12.2576   26.2404 C   0  0  0  0  0  0  0  0  0  0  0  0
    6.7350  -13.4671   25.7287 C   0  0  0  0  0  0  0  0  0  0  0  0
    9.1596  -16.1965   27.5634 C   0  0  0  0  0  0  0  0  0  0  0  0
    9.6098  -15.5270   28.6884 O   0  0  0  0  0  0  0  0  0  0  0  0
    8.3358  -17.1504   27.7753 O   0  0  0  0  0  0  0  0  0  0  0  0
  2  1  1  1
  3  4  1  0
  3  2  1  0
  4  5  2  0
  5  6  1  0
  7  6  1  0
  8  4  1  0
  8  7  2  0
  9  2  1  0
  9 10  2  0
 11  9  1  0
 12 11  1  0
 12 13  1  6
 13 14  1  0
 14 18  1  0
 14 15  2  0
 15 16  1  0
 17 16  1  0
 18 17  2  0
 19 12  1  0
 20 19  2  0
 21 19  1  0
 22 23  1  6
 22 21  1  0
 24 29  1  0
 24 23  1  0
 25 24  2  0
 26 27  2  0
 26 25  1  0
 27 28  1  0
 28 29  2  0
 30 22  1  0
 31 30  1  0
 32 30  2  0
M  END
$$$$
