HHF.pdb
     RDKit          3D

 32 34  0  0  1  0  0  0  0  0999 V2000
    8.7914  -16.8154   18.8183 N   0  0  0  0  0  0  0  0  0  0  0  0
    8.5771  -15.5911   19.5687 C   0  0  1  0  0  0  0  0  0  0  0  0
    7.5535  -14.7078   18.8892 C   0  0  0  0  0  0  0  0  0  0  0  0
    7.9967  -14.2989   17.5365 C   0  0  0  0  0  0  0  0  0  0  0  0
    9.1733  -14.6978   16.9452 C   0  0  0  0  0  0  0  0  0  0  0  0
    9.2486  -14.1456   15.7396 N   0  0  0  0  0  0  0  0  0  0  0  0
    8.1405  -13.4118   15.5727 C   0  0  0  0  0  0  0  0  0  0  0  0
    7.3789  -13.5013   16.6582 N   0  0  0  0  0  0  0  0  0  0  0  0
    8.0962  -15.9631   20.9162 C   0  0  0  0  0  0  0  0  0  0  0  0
    7.4342  -15.0714   21.5471 O   0  0  0  0  0  0  0  0  0  0  0  0
    8.3463  -17.2347   21.4928 N   0  0  0  0  0  0  0  0  0  0  0  0
    7.9699  -17.5076   22.8605 C   0  0  1  0  0  0  0  0  0  0  0  0
    7.7439  -18.9982   23.0475 C   0  0  0  0  0  0  0  0  0  0  0  0
    7.3239  -19.3170   24.4450 C   0  0  0  0  0  0  0  0  0  0  0  0
    7.0478  -18.3749   25.4095 C   0  0  0  0  0  0  0  0  0  0  0  0
    6.7087  -19.0494   26.5196 N   0  0  0  0  0  0  0  0  0  0  0  0
    6.7626  -20.3709   26.2853 C   0  0  0  0  0  0  0  0  0  0  0  0
    7.1410  -20.5165   25.0097 N   0  0  0  0  0  0  0  0  0  0  0  0
    9.0135  -17.0117   23.8103 C   0  0  0  0  0  0  0  0  0  0  0  0
   10.2178  -17.3163   23.6454 O   0  0  0  0  0  0  0  0  0  0  0  0
    8.6853  -16.1893   24.9189 N   0  0  0  0  0  0  0  0  0  0  0  0
    9.7289  -15.5691   25.7341 C   0  0  1  0  0  0  0  0  0  0  0  0
    9.6338  -14.0879   25.4527 C   0  0  0  0  0  0  0  0  0  0  0  0
    8.3423  -13.4845   25.7815 C   0  0  0  0  0  0  0  0  0  0  0  0
    7.3022  -13.5318   24.8930 C   0  0  0  0  0  0  0  0  0  0  0  0
    6.0853  -12.9633   25.2245 C   0  0  0  0  0  0  0  0  0  0  0  0
    5.9041  -12.3542   26.4264 C   0  0  0  0  0  0  0  0  0  0  0  0
    6.9430  -12.3086   27.3105 C   0  0  0  0  0  0  0  0  0  0  0  0
    8.1631  -12.8706   26.9962 C   0  0  0  0  0  0  0  0  0  0  0  0
    9.4748  -15.8154   27.1712 C   0  0  0  0  0  0  0  0  0  0  0  0
    8.3426  -16.4704   27.6248 O   0  0  0  0  0  0  0  0  0  0  0  0
   10.2950  -15.4312   28.0729 O   0  0  0  0  0  0  0  0  0  0  0  0
  2  1  1  6
  3  4  1  0
  3  2  1  0
  4  5  2  0
  5  6  1  0
  7  6  1  0
  8  4  1  0
  8  7  2  0
  9  2  1  0
  9 10  2  0
 11  9  1  0
 12 11  1  0
 12 13  1  6
 13 14  1  0
 14 18  1  0
 14 15  2  0
 15 16  1  0
 17 16  1  0
 18 17  2  0
 19 12  1  0
 20 19  2  0
 21 19  1  0
 22 23  1  1
 22 21  1  0
 24 29  1  0
 24 23  1  0
 25 24  2  0
 26 27  2  0
 26 25  1  0
 27 28  1  0
 28 29  2  0
 30 22  1  0
 31 30  1  0
 32 30  2  0
M  END
$$$$
