HHF.pdb
     RDKit          3D

 32 34  0  0  1  0  0  0  0  0999 V2000
    8.4007  -17.2873   18.0021 N   0  0  0  0  0  0  0  0  0  0  0  0
    8.9082  -16.2774   18.9135 C   0  0  1  0  0  0  0  0  0  0  0  0
    7.9850  -15.0797   18.9681 C   0  0  0  0  0  0  0  0  0  0  0  0
    7.9723  -14.3407   17.6847 C   0  0  0  0  0  0  0  0  0  0  0  0
    8.5888  -13.1290   17.4738 C   0  0  0  0  0  0  0  0  0  0  0  0
    8.3752  -12.7595   16.2161 N   0  0  0  0  0  0  0  0  0  0  0  0
    7.6376  -13.7198   15.6435 C   0  0  0  0  0  0  0  0  0  0  0  0
    7.3909  -14.6799   16.5287 N   0  0  0  0  0  0  0  0  0  0  0  0
    9.0101  -16.8879   20.2560 C   0  0  0  0  0  0  0  0  0  0  0  0
    7.9107  -17.0694   20.8801 O   0  0  0  0  0  0  0  0  0  0  0  0
   10.2510  -17.2580   20.8349 N   0  0  0  0  0  0  0  0  0  0  0  0
   10.3123  -17.7361   22.1967 C   0  0  1  0  0  0  0  0  0  0  0  0
   11.6608  -18.3856   22.4571 C   0  0  0  0  0  0  0  0  0  0  0  0
   11.7472  -18.9300   23.8452 C   0  0  0  0  0  0  0  0  0  0  0  0
   10.7745  -18.7721   24.8058 C   0  0  0  0  0  0  0  0  0  0  0  0
   11.2171  -19.3984   25.9077 N   0  0  0  0  0  0  0  0  0  0  0  0
   12.4240  -19.9388   25.6718 C   0  0  0  0  0  0  0  0  0  0  0  0
   12.7331  -19.6422   24.4038 N   0  0  0  0  0  0  0  0  0  0  0  0
   10.0707  -16.6219   23.1649 C   0  0  0  0  0  0  0  0  0  0  0  0
   10.3537  -15.4407   22.8566 O   0  0  0  0  0  0  0  0  0  0  0  0
    9.5197  -16.8556   24.4513 N   0  0  0  0  0  0  0  0  0  0  0  0
    9.2567  -15.7505   25.3722 C   0  0  1  0  0  0  0  0  0  0  0  0
    8.1794  -14.9226   24.7116 C   0  0  0  0  0  0  0  0  0  0  0  0
    7.6479  -13.8388   25.5381 C   0  0  0  0  0  0  0  0  0  0  0  0
    8.3268  -12.6568   25.6617 C   0  0  0  0  0  0  0  0  0  0  0  0
    7.8047  -11.6396   26.4408 C   0  0  0  0  0  0  0  0  0  0  0  0
    6.6204  -11.7957   27.0900 C   0  0  0  0  0  0  0  0  0  0  0  0
    5.9456  -12.9755   26.9647 C   0  0  0  0  0  0  0  0  0  0  0  0
    6.4517  -14.0001   26.1918 C   0  0  0  0  0  0  0  0  0  0  0  0
    8.7582  -16.2661   26.6669 C   0  0  0  0  0  0  0  0  0  0  0  0
    9.2160  -15.7893   27.8833 O   0  0  0  0  0  0  0  0  0  0  0  0
    7.8731  -17.1861   26.7265 O   0  0  0  0  0  0  0  0  0  0  0  0
  2  1  1  6
  3  4  1  0
  3  2  1  0
  4  5  2  0
  5  6  1  0
  7  6  1  0
  8  4  1  0
  8  7  2  0
  9  2  1  0
  9 10  2  0
 11  9  1  0
 12 11  1  0
 12 13  1  1
 13 14  1  0
 14 18  1  0
 14 15  2  0
 15 16  1  0
 17 16  1  0
 18 17  2  0
 19 12  1  0
 20 19  2  0
 21 19  1  0
 22 23  1  6
 22 21  1  0
 24 29  1  0
 24 23  1  0
 25 24  2  0
 26 27  2  0
 26 25  1  0
 27 28  1  0
 28 29  2  0
 30 22  1  0
 31 30  1  0
 32 30  2  0
M  END
$$$$
