HHF.pdb
     RDKit          3D

 32 34  0  0  1  0  0  0  0  0999 V2000
    8.6244  -16.8200   19.2494 N   0  0  0  0  0  0  0  0  0  0  0  0
    9.0373  -15.8944   20.2890 C   0  0  1  0  0  0  0  0  0  0  0  0
    8.0073  -14.8039   20.4880 C   0  0  0  0  0  0  0  0  0  0  0  0
    7.8409  -13.9805   19.2682 C   0  0  0  0  0  0  0  0  0  0  0  0
    8.3755  -12.7249   19.0933 C   0  0  0  0  0  0  0  0  0  0  0  0
    8.0296  -12.2824   17.8897 N   0  0  0  0  0  0  0  0  0  0  0  0
    7.2906  -13.2406   17.3154 C   0  0  0  0  0  0  0  0  0  0  0  0
    7.1732  -14.2713   18.1462 N   0  0  0  0  0  0  0  0  0  0  0  0
    9.1971  -16.6618   21.5424 C   0  0  0  0  0  0  0  0  0  0  0  0
    8.2743  -17.5025   21.8129 O   0  0  0  0  0  0  0  0  0  0  0  0
   10.3065  -16.4878   22.4089 N   0  0  0  0  0  0  0  0  0  0  0  0
   10.4899  -17.3544   23.5500 C   0  0  1  0  0  0  0  0  0  0  0  0
   11.8395  -18.0465   23.4626 C   0  0  0  0  0  0  0  0  0  0  0  0
   11.8633  -19.0633   22.3688 C   0  0  0  0  0  0  0  0  0  0  0  0
   10.9592  -20.0931   22.2427 C   0  0  0  0  0  0  0  0  0  0  0  0
   11.3116  -20.7818   21.1455 N   0  0  0  0  0  0  0  0  0  0  0  0
   12.3967  -20.2231   20.5847 C   0  0  0  0  0  0  0  0  0  0  0  0
   12.7210  -19.1718   21.3470 N   0  0  0  0  0  0  0  0  0  0  0  0
   10.3762  -16.5855   24.8279 C   0  0  0  0  0  0  0  0  0  0  0  0
   11.0253  -15.5260   24.9909 O   0  0  0  0  0  0  0  0  0  0  0  0
    9.5414  -17.0194   25.8898 N   0  0  0  0  0  0  0  0  0  0  0  0
    9.5154  -16.3100   27.1682 C   0  0  1  0  0  0  0  0  0  0  0  0
    8.0914  -15.8348   27.3371 C   0  0  0  0  0  0  0  0  0  0  0  0
    7.7653  -14.6086   26.6089 C   0  0  0  0  0  0  0  0  0  0  0  0
    7.2122  -14.6646   25.3582 C   0  0  0  0  0  0  0  0  0  0  0  0
    6.9025  -13.4947   24.6878 C   0  0  0  0  0  0  0  0  0  0  0  0
    7.1399  -12.2819   25.2547 C   0  0  0  0  0  0  0  0  0  0  0  0
    7.6915  -12.2292   26.5021 C   0  0  0  0  0  0  0  0  0  0  0  0
    8.0064  -13.3861   27.1847 C   0  0  0  0  0  0  0  0  0  0  0  0
    9.8633  -17.2291   28.2749 C   0  0  0  0  0  0  0  0  0  0  0  0
   10.1703  -16.7785   29.5474 O   0  0  0  0  0  0  0  0  0  0  0  0
    9.8987  -18.4957   28.1087 O   0  0  0  0  0  0  0  0  0  0  0  0
  2  1  1  6
  3  4  1  0
  3  2  1  0
  4  5  2  0
  5  6  1  0
  7  6  1  0
  8  4  1  0
  8  7  2  0
  9  2  1  0
  9 10  2  0
 11  9  1  0
 12 11  1  0
 12 13  1  6
 13 14  1  0
 14 18  1  0
 14 15  2  0
 15 16  1  0
 17 16  1  0
 18 17  2  0
 19 12  1  0
 20 19  2  0
 21 19  1  0
 22 23  1  1
 22 21  1  0
 24 29  1  0
 24 23  1  0
 25 24  2  0
 26 27  2  0
 26 25  1  0
 27 28  1  0
 28 29  2  0
 30 22  1  0
 31 30  1  0
 32 30  2  0
M  END
$$$$
