HHF.pdb
     RDKit          3D

 32 34  0  0  1  0  0  0  0  0999 V2000
    8.6244  -16.7442   18.8747 N   0  0  0  0  0  0  0  0  0  0  0  0
    8.1305  -15.4831   19.3980 C   0  0  1  0  0  0  0  0  0  0  0  0
    7.0996  -14.8754   18.4719 C   0  0  0  0  0  0  0  0  0  0  0  0
    7.6849  -14.5263   17.1569 C   0  0  0  0  0  0  0  0  0  0  0  0
    7.7670  -15.3846   16.0848 C   0  0  0  0  0  0  0  0  0  0  0  0
    8.3451  -14.7447   15.0746 N   0  0  0  0  0  0  0  0  0  0  0  0
    8.6229  -13.5057   15.5009 C   0  0  0  0  0  0  0  0  0  0  0  0
    8.2251  -13.3682   16.7615 N   0  0  0  0  0  0  0  0  0  0  0  0
    7.5185  -15.7480   20.7174 C   0  0  0  0  0  0  0  0  0  0  0  0
    6.9645  -14.7522   21.2945 O   0  0  0  0  0  0  0  0  0  0  0  0
    7.5356  -17.0299   21.3243 N   0  0  0  0  0  0  0  0  0  0  0  0
    7.1023  -17.2007   22.6917 C   0  0  1  0  0  0  0  0  0  0  0  0
    6.4933  -18.5806   22.8731 C   0  0  0  0  0  0  0  0  0  0  0  0
    5.2121  -18.7171   22.1175 C   0  0  0  0  0  0  0  0  0  0  0  0
    4.6101  -17.6987   21.4145 C   0  0  0  0  0  0  0  0  0  0  0  0
    3.4901  -18.2105   20.8797 N   0  0  0  0  0  0  0  0  0  0  0  0
    3.3712  -19.5042   21.2209 C   0  0  0  0  0  0  0  0  0  0  0  0
    4.4345  -19.7976   21.9790 N   0  0  0  0  0  0  0  0  0  0  0  0
    8.2404  -17.0003   23.6413 C   0  0  0  0  0  0  0  0  0  0  0  0
    9.3786  -17.4500   23.3715 O   0  0  0  0  0  0  0  0  0  0  0  0
    8.0781  -16.3036   24.8665 N   0  0  0  0  0  0  0  0  0  0  0  0
    9.2220  -16.0237   25.7332 C   0  0  1  0  0  0  0  0  0  0  0  0
    9.3424  -14.5182   25.7687 C   0  0  0  0  0  0  0  0  0  0  0  0
    8.1410  -13.8191   26.2249 C   0  0  0  0  0  0  0  0  0  0  0  0
    7.9826  -13.4894   27.5438 C   0  0  0  0  0  0  0  0  0  0  0  0
    6.8437  -12.8207   27.9557 C   0  0  0  0  0  0  0  0  0  0  0  0
    5.8725  -12.4833   27.0662 C   0  0  0  0  0  0  0  0  0  0  0  0
    6.0332  -12.8133   25.7515 C   0  0  0  0  0  0  0  0  0  0  0  0
    7.1628  -13.4800   25.3236 C   0  0  0  0  0  0  0  0  0  0  0  0
    8.9690  -16.5305   27.1005 C   0  0  0  0  0  0  0  0  0  0  0  0
    9.9423  -16.5328   28.0850 O   0  0  0  0  0  0  0  0  0  0  0  0
    7.8292  -16.9964   27.4429 O   0  0  0  0  0  0  0  0  0  0  0  0
  2  1  1  6
  3  4  1  0
  3  2  1  0
  4  5  2  0
  5  6  1  0
  7  6  1  0
  8  4  1  0
  8  7  2  0
  9  2  1  0
  9 10  2  0
 11  9  1  0
 12 11  1  0
 12 13  1  6
 13 14  1  0
 14 18  1  0
 14 15  2  0
 15 16  1  0
 17 16  1  0
 18 17  2  0
 19 12  1  0
 20 19  2  0
 21 19  1  0
 22 23  1  1
 22 21  1  0
 24 29  1  0
 24 23  1  0
 25 24  2  0
 26 27  2  0
 26 25  1  0
 27 28  1  0
 28 29  2  0
 30 22  1  0
 31 30  1  0
 32 30  2  0
M  END
$$$$
