APF.pdb
     RDKit          3D

 24 25  0  0  1  0  0  0  0  0999 V2000
    8.6149  -12.2665   20.2484 C   0  0  0  0  0  0  0  0  0  0  0  0
    7.7772  -13.4672   19.7877 C   0  0  2  0  0  0  0  0  0  0  0  0
    6.5485  -12.9424   19.2892 N   0  0  0  0  0  0  0  0  0  0  0  0
    7.6641  -14.4313   20.8881 C   0  0  0  0  0  0  0  0  0  0  0  0
    6.7013  -14.2234   21.7039 O   0  0  0  0  0  0  0  0  0  0  0  0
    8.5168  -15.5454   21.1115 N   0  0  0  0  0  0  0  0  0  0  0  0
    9.6600  -15.8767   20.3261 C   0  0  0  0  0  0  0  0  0  0  0  0
   10.0823  -17.2444   20.7848 C   0  0  0  0  0  0  0  0  0  0  0  0
    8.9083  -17.7673   21.6114 C   0  0  0  0  0  0  0  0  0  0  0  0
    8.3434  -16.4988   22.1662 C   0  0  1  0  0  0  0  0  0  0  0  0
    9.0219  -16.0735   23.4191 C   0  0  0  0  0  0  0  0  0  0  0  0
   10.0943  -15.4612   23.3295 O   0  0  0  0  0  0  0  0  0  0  0  0
    8.4509  -16.3653   24.6645 N   0  0  0  0  0  0  0  0  0  0  0  0
    9.0534  -15.9827   25.9264 C   0  0  1  0  0  0  0  0  0  0  0  0
    7.9146  -15.5328   26.8098 C   0  0  0  0  0  0  0  0  0  0  0  0
    7.4033  -14.1852   26.4968 C   0  0  0  0  0  0  0  0  0  0  0  0
    8.1567  -13.0765   26.7951 C   0  0  0  0  0  0  0  0  0  0  0  0
    7.7156  -11.7881   26.5156 C   0  0  0  0  0  0  0  0  0  0  0  0
    6.4903  -11.5763   25.9215 C   0  0  0  0  0  0  0  0  0  0  0  0
    5.7259  -12.6832   25.6179 C   0  0  0  0  0  0  0  0  0  0  0  0
    6.1751  -13.9750   25.9014 C   0  0  0  0  0  0  0  0  0  0  0  0
    9.7868  -17.1544   26.4571 C   0  0  0  0  0  0  0  0  0  0  0  0
    9.6667  -18.4220   25.8502 O   0  0  0  0  0  0  0  0  0  0  0  0
   10.5242  -17.0038   27.4647 O   0  0  0  0  0  0  0  0  0  0  0  0
  2  1  1  1
  2  4  1  0
  2  3  1  0
  4  5  2  0
  6 10  1  0
  6  4  1  0
  7  6  1  0
  8  7  1  0
  8  9  1  0
  9 10  1  0
 10 11  1  1
 11 12  2  0
 11 13  1  0
 13 14  1  0
 14 22  1  0
 14 15  1  1
 16 15  1  0
 16 21  1  0
 17 16  2  0
 18 17  1  0
 18 19  2  0
 19 20  1  0
 20 21  2  0
 22 24  2  0
 22 23  1  0
M  END
$$$$
