APF.pdb
     RDKit          3D

 24 25  0  0  1  0  0  0  0  0999 V2000
    7.5773  -19.1177   21.6298 C   0  0  0  0  0  0  0  0  0  0  0  0
    8.0133  -18.1709   20.5033 C   0  0  2  0  0  0  0  0  0  0  0  0
    8.8048  -18.9429   19.6026 N   0  0  0  0  0  0  0  0  0  0  0  0
    8.6670  -16.9929   21.0848 C   0  0  0  0  0  0  0  0  0  0  0  0
    9.9322  -17.0900   21.2455 O   0  0  0  0  0  0  0  0  0  0  0  0
    8.0224  -15.7878   21.4726 N   0  0  0  0  0  0  0  0  0  0  0  0
    6.6125  -15.5740   21.4769 C   0  0  0  0  0  0  0  0  0  0  0  0
    6.4283  -14.1018   21.7181 C   0  0  0  0  0  0  0  0  0  0  0  0
    7.8105  -13.4870   21.5024 C   0  0  0  0  0  0  0  0  0  0  0  0
    8.7065  -14.6104   21.9162 C   0  0  1  0  0  0  0  0  0  0  0  0
    8.9558  -14.6294   23.3820 C   0  0  0  0  0  0  0  0  0  0  0  0
    9.0408  -13.5481   23.9791 O   0  0  0  0  0  0  0  0  0  0  0  0
    9.0897  -15.8485   24.0589 N   0  0  0  0  0  0  0  0  0  0  0  0
    8.8881  -15.9928   25.4873 C   0  0  1  0  0  0  0  0  0  0  0  0
    7.4714  -15.5437   25.7533 C   0  0  0  0  0  0  0  0  0  0  0  0
    7.3541  -14.1378   26.1834 C   0  0  0  0  0  0  0  0  0  0  0  0
    8.4488  -13.4775   26.6849 C   0  0  0  0  0  0  0  0  0  0  0  0
    8.3845  -12.1522   27.0996 C   0  0  0  0  0  0  0  0  0  0  0  0
    7.2039  -11.4458   27.0209 C   0  0  0  0  0  0  0  0  0  0  0  0
    6.0985  -12.0998   26.5189 C   0  0  0  0  0  0  0  0  0  0  0  0
    6.1700  -13.4316   26.1038 C   0  0  0  0  0  0  0  0  0  0  0  0
    9.1371  -17.4082   25.8437 C   0  0  0  0  0  0  0  0  0  0  0  0
    9.7085  -17.7544   27.0861 O   0  0  0  0  0  0  0  0  0  0  0  0
    8.8305  -18.3054   25.0176 O   0  0  0  0  0  0  0  0  0  0  0  0
  2  1  1  1
  2  4  1  0
  2  3  1  0
  4  5  2  0
  6 10  1  0
  6  4  1  0
  7  6  1  0
  8  7  1  0
  8  9  1  0
  9 10  1  0
 10 11  1  1
 11 12  2  0
 11 13  1  0
 13 14  1  0
 14 22  1  0
 14 15  1  6
 16 15  1  0
 16 21  1  0
 17 16  2  0
 18 17  1  0
 18 19  2  0
 19 20  1  0
 20 21  2  0
 22 24  2  0
 22 23  1  0
M  END
$$$$
