APF.pdb
     RDKit          3D

 24 25  0  0  1  0  0  0  0  0999 V2000
    9.8239  -13.8758   18.7339 C   0  0  0  0  0  0  0  0  0  0  0  0
    8.2941  -13.9579   18.6401 C   0  0  2  0  0  0  0  0  0  0  0  0
    7.8459  -12.6983   18.1441 N   0  0  0  0  0  0  0  0  0  0  0  0
    7.7492  -14.3671   19.9396 C   0  0  0  0  0  0  0  0  0  0  0  0
    7.4582  -13.4118   20.7388 O   0  0  0  0  0  0  0  0  0  0  0  0
    7.5266  -15.7035   20.3671 N   0  0  0  0  0  0  0  0  0  0  0  0
    7.7523  -16.8683   19.5761 C   0  0  0  0  0  0  0  0  0  0  0  0
    7.1504  -18.0062   20.3523 C   0  0  0  0  0  0  0  0  0  0  0  0
    6.2945  -17.3436   21.4309 C   0  0  0  0  0  0  0  0  0  0  0  0
    7.0394  -16.0681   21.6637 C   0  0  1  0  0  0  0  0  0  0  0  0
    8.1415  -16.2242   22.6496 C   0  0  0  0  0  0  0  0  0  0  0  0
    9.1865  -16.7773   22.2822 O   0  0  0  0  0  0  0  0  0  0  0  0
    7.9879  -15.7526   23.9597 N   0  0  0  0  0  0  0  0  0  0  0  0
    9.0945  -15.5874   24.8817 C   0  0  1  0  0  0  0  0  0  0  0  0
    9.2444  -14.0990   25.0865 C   0  0  0  0  0  0  0  0  0  0  0  0
    8.1029  -13.4658   25.7731 C   0  0  0  0  0  0  0  0  0  0  0  0
    8.1291  -13.2913   27.1350 C   0  0  0  0  0  0  0  0  0  0  0  0
    7.0772  -12.6974   27.8228 C   0  0  0  0  0  0  0  0  0  0  0  0
    5.9564  -12.2572   27.1526 C   0  0  0  0  0  0  0  0  0  0  0  0
    5.9200  -12.4278   25.7846 C   0  0  0  0  0  0  0  0  0  0  0  0
    6.9805  -13.0254   25.0996 C   0  0  0  0  0  0  0  0  0  0  0  0
    8.7698  -16.3260   26.1232 C   0  0  0  0  0  0  0  0  0  0  0  0
    9.7652  -16.6070   27.0823 O   0  0  0  0  0  0  0  0  0  0  0  0
    7.5852  -16.7032   26.3131 O   0  0  0  0  0  0  0  0  0  0  0  0
  2  1  1  1
  2  4  1  0
  2  3  1  0
  4  5  2  0
  6 10  1  0
  6  4  1  0
  7  6  1  0
  8  7  1  0
  8  9  1  0
  9 10  1  0
 10 11  1  1
 11 12  2  0
 11 13  1  0
 13 14  1  0
 14 22  1  0
 14 15  1  1
 16 15  1  0
 16 21  1  0
 17 16  2  0
 18 17  1  0
 18 19  2  0
 19 20  1  0
 20 21  2  0
 22 24  2  0
 22 23  1  0
M  END
$$$$
