APF.pdb
     RDKit          3D

 24 25  0  0  1  0  0  0  0  0999 V2000
    5.2524  -17.8277   22.1950 C   0  0  0  0  0  0  0  0  0  0  0  0
    6.0050  -17.5672   20.8830 C   0  0  2  0  0  0  0  0  0  0  0  0
    6.1424  -18.8287   20.2321 N   0  0  0  0  0  0  0  0  0  0  0  0
    7.2546  -16.8549   21.1731 C   0  0  0  0  0  0  0  0  0  0  0  0
    8.2750  -17.5976   21.3805 O   0  0  0  0  0  0  0  0  0  0  0  0
    7.4144  -15.4448   21.2402 N   0  0  0  0  0  0  0  0  0  0  0  0
    6.3765  -14.4889   21.0345 C   0  0  0  0  0  0  0  0  0  0  0  0
    7.0651  -13.1547   20.9622 C   0  0  0  0  0  0  0  0  0  0  0  0
    8.5490  -13.4809   20.7982 C   0  0  0  0  0  0  0  0  0  0  0  0
    8.6521  -14.7832   21.5258 C   0  0  1  0  0  0  0  0  0  0  0  0
    8.8642  -14.6039   22.9866 C   0  0  0  0  0  0  0  0  0  0  0  0
    8.3913  -13.5976   23.5313 O   0  0  0  0  0  0  0  0  0  0  0  0
    9.5839  -15.5581   23.7172 N   0  0  0  0  0  0  0  0  0  0  0  0
    9.7168  -15.5224   25.1604 C   0  0  1  0  0  0  0  0  0  0  0  0
    8.3095  -15.5496   25.7069 C   0  0  0  0  0  0  0  0  0  0  0  0
    7.7731  -14.2220   26.0605 C   0  0  0  0  0  0  0  0  0  0  0  0
    6.5804  -13.7973   25.5285 C   0  0  0  0  0  0  0  0  0  0  0  0
    6.0364  -12.5555   25.8359 C   0  0  0  0  0  0  0  0  0  0  0  0
    6.6841  -11.6960   26.6967 C   0  0  0  0  0  0  0  0  0  0  0  0
    7.8827  -12.1130   27.2363 C   0  0  0  0  0  0  0  0  0  0  0  0
    8.4238  -13.3621   26.9233 C   0  0  0  0  0  0  0  0  0  0  0  0
   10.5347  -16.6854   25.5735 C   0  0  0  0  0  0  0  0  0  0  0  0
   10.5333  -17.8782   24.8206 O   0  0  0  0  0  0  0  0  0  0  0  0
   11.2364  -16.5956   26.6133 O   0  0  0  0  0  0  0  0  0  0  0  0
  2  1  1  1
  2  4  1  0
  2  3  1  0
  4  5  2  0
  6 10  1  0
  6  4  1  0
  7  6  1  0
  8  7  1  0
  8  9  1  0
  9 10  1  0
 10 11  1  1
 11 12  2  0
 11 13  1  0
 13 14  1  0
 14 22  1  0
 14 15  1  1
 16 15  1  0
 16 21  1  0
 17 16  2  0
 18 17  1  0
 18 19  2  0
 19 20  1  0
 20 21  2  0
 22 24  2  0
 22 23  1  0
M  END
$$$$
