APF.pdb
     RDKit          3D

 24 25  0  0  1  0  0  0  0  0999 V2000
    9.6729  -13.9349   18.5690 C   0  0  0  0  0  0  0  0  0  0  0  0
    8.1512  -13.8827   18.7623 C   0  0  2  0  0  0  0  0  0  0  0  0
    7.7424  -12.5554   18.4383 N   0  0  0  0  0  0  0  0  0  0  0  0
    7.8172  -14.3454   20.1142 C   0  0  0  0  0  0  0  0  0  0  0  0
    7.7118  -13.4276   20.9987 O   0  0  0  0  0  0  0  0  0  0  0  0
    7.6084  -15.6949   20.5058 N   0  0  0  0  0  0  0  0  0  0  0  0
    7.8492  -16.8360   19.6851 C   0  0  0  0  0  0  0  0  0  0  0  0
    7.2581  -18.0005   20.4295 C   0  0  0  0  0  0  0  0  0  0  0  0
    6.3920  -17.3760   21.5227 C   0  0  0  0  0  0  0  0  0  0  0  0
    7.1220  -16.0988   21.7909 C   0  0  1  0  0  0  0  0  0  0  0  0
    8.2232  -16.2685   22.7756 C   0  0  0  0  0  0  0  0  0  0  0  0
    9.2236  -16.9137   22.4350 O   0  0  0  0  0  0  0  0  0  0  0  0
    8.1184  -15.7071   24.0546 N   0  0  0  0  0  0  0  0  0  0  0  0
    9.2166  -15.6690   25.0004 C   0  0  1  0  0  0  0  0  0  0  0  0
    9.4859  -14.2070   25.2641 C   0  0  0  0  0  0  0  0  0  0  0  0
    8.3274  -13.4659   25.7969 C   0  0  0  0  0  0  0  0  0  0  0  0
    8.2614  -13.1600   27.1341 C   0  0  0  0  0  0  0  0  0  0  0  0
    7.1902  -12.4613   27.6788 C   0  0  0  0  0  0  0  0  0  0  0  0
    6.1431  -12.0459   26.8849 C   0  0  0  0  0  0  0  0  0  0  0  0
    6.1996  -12.3482   25.5405 C   0  0  0  0  0  0  0  0  0  0  0  0
    7.2790  -13.0505   24.9996 C   0  0  0  0  0  0  0  0  0  0  0  0
    8.8072  -16.4226   26.2074 C   0  0  0  0  0  0  0  0  0  0  0  0
    7.5095  -16.9638   26.3201 O   0  0  0  0  0  0  0  0  0  0  0  0
    9.6382  -16.5749   27.1390 O   0  0  0  0  0  0  0  0  0  0  0  0
  2  1  1  1
  2  4  1  0
  2  3  1  0
  4  5  2  0
  6 10  1  0
  6  4  1  0
  7  6  1  0
  8  7  1  0
  8  9  1  0
  9 10  1  0
 10 11  1  1
 11 12  2  0
 11 13  1  0
 13 14  1  0
 14 22  1  0
 14 15  1  1
 16 15  1  0
 16 21  1  0
 17 16  2  0
 18 17  1  0
 18 19  2  0
 19 20  1  0
 20 21  2  0
 22 24  2  0
 22 23  1  0
M  END
$$$$
