APF.pdb
     RDKit          3D

 24 25  0  0  1  0  0  0  0  0999 V2000
    9.8436  -13.8860   18.7858 C   0  0  0  0  0  0  0  0  0  0  0  0
    8.3110  -13.8127   18.8241 C   0  0  2  0  0  0  0  0  0  0  0  0
    7.9563  -12.4737   18.4848 N   0  0  0  0  0  0  0  0  0  0  0  0
    7.8342  -14.2929   20.1261 C   0  0  0  0  0  0  0  0  0  0  0  0
    7.5917  -13.3833   20.9920 O   0  0  0  0  0  0  0  0  0  0  0  0
    7.6276  -15.6507   20.4894 N   0  0  0  0  0  0  0  0  0  0  0  0
    7.9117  -16.7760   19.6610 C   0  0  0  0  0  0  0  0  0  0  0  0
    7.3080  -17.9586   20.3657 C   0  0  0  0  0  0  0  0  0  0  0  0
    6.3953  -17.3611   21.4358 C   0  0  0  0  0  0  0  0  0  0  0  0
    7.0997  -16.0800   21.7498 C   0  0  1  0  0  0  0  0  0  0  0  0
    8.1664  -16.2523   22.7712 C   0  0  0  0  0  0  0  0  0  0  0  0
    9.2271  -16.7923   22.4299 O   0  0  0  0  0  0  0  0  0  0  0  0
    7.9632  -15.8102   24.0848 N   0  0  0  0  0  0  0  0  0  0  0  0
    9.0052  -15.8019   25.0928 C   0  0  1  0  0  0  0  0  0  0  0  0
    9.3146  -14.3479   25.3569 C   0  0  0  0  0  0  0  0  0  0  0  0
    8.1723  -13.5715   25.8741 C   0  0  0  0  0  0  0  0  0  0  0  0
    8.0944  -13.2688   27.2113 C   0  0  0  0  0  0  0  0  0  0  0  0
    7.0377  -12.5377   27.7417 C   0  0  0  0  0  0  0  0  0  0  0  0
    6.0179  -12.0852   26.9328 C   0  0  0  0  0  0  0  0  0  0  0  0
    6.0866  -12.3838   25.5882 C   0  0  0  0  0  0  0  0  0  0  0  0
    7.1512  -13.1190   25.0617 C   0  0  0  0  0  0  0  0  0  0  0  0
    8.4977  -16.5244   26.2814 C   0  0  0  0  0  0  0  0  0  0  0  0
    9.3592  -16.8706   27.3433 O   0  0  0  0  0  0  0  0  0  0  0  0
    7.2784  -16.8283   26.3325 O   0  0  0  0  0  0  0  0  0  0  0  0
  2  1  1  1
  2  4  1  0
  2  3  1  0
  4  5  2  0
  6 10  1  0
  6  4  1  0
  7  6  1  0
  8  7  1  0
  8  9  1  0
  9 10  1  0
 10 11  1  1
 11 12  2  0
 11 13  1  0
 13 14  1  0
 14 22  1  0
 14 15  1  1
 16 15  1  0
 16 21  1  0
 17 16  2  0
 18 17  1  0
 18 19  2  0
 19 20  1  0
 20 21  2  0
 22 24  2  0
 22 23  1  0
M  END
$$$$
