APF.pdb
     RDKit          3D

 24 25  0  0  1  0  0  0  0  0999 V2000
    5.2897  -17.2886   21.4386 C   0  0  0  0  0  0  0  0  0  0  0  0
    6.2077  -17.0175   20.2388 C   0  0  2  0  0  0  0  0  0  0  0  0
    6.3723  -18.2607   19.5598 N   0  0  0  0  0  0  0  0  0  0  0  0
    7.4403  -16.3731   20.7063 C   0  0  0  0  0  0  0  0  0  0  0  0
    8.4219  -17.1619   20.9302 O   0  0  0  0  0  0  0  0  0  0  0  0
    7.6227  -14.9811   20.9238 N   0  0  0  0  0  0  0  0  0  0  0  0
    6.6037  -13.9902   20.8086 C   0  0  0  0  0  0  0  0  0  0  0  0
    7.3154  -12.6685   20.8853 C   0  0  0  0  0  0  0  0  0  0  0  0
    8.7956  -13.0022   20.7045 C   0  0  0  0  0  0  0  0  0  0  0  0
    8.8675  -14.3756   21.2916 C   0  0  1  0  0  0  0  0  0  0  0  0
    9.0634  -14.3552   22.7654 C   0  0  0  0  0  0  0  0  0  0  0  0
    9.2551  -13.2644   23.3191 O   0  0  0  0  0  0  0  0  0  0  0  0
    9.0299  -15.5487   23.4980 N   0  0  0  0  0  0  0  0  0  0  0  0
    9.0770  -15.5961   24.9463 C   0  0  1  0  0  0  0  0  0  0  0  0
    7.6450  -15.4832   25.4113 C   0  0  0  0  0  0  0  0  0  0  0  0
    7.2516  -14.1254   25.8318 C   0  0  0  0  0  0  0  0  0  0  0  0
    8.0572  -13.4070   26.6808 C   0  0  0  0  0  0  0  0  0  0  0  0
    7.7272  -12.1236   27.1008 C   0  0  0  0  0  0  0  0  0  0  0  0
    6.5643  -11.5197   26.6740 C   0  0  0  0  0  0  0  0  0  0  0  0
    5.7481  -12.2328   25.8212 C   0  0  0  0  0  0  0  0  0  0  0  0
    6.0857  -13.5220   25.4030 C   0  0  0  0  0  0  0  0  0  0  0  0
    9.7294  -16.8651   25.3416 C   0  0  0  0  0  0  0  0  0  0  0  0
   10.2220  -17.0514   26.6501 O   0  0  0  0  0  0  0  0  0  0  0  0
    9.8401  -17.7824   24.4884 O   0  0  0  0  0  0  0  0  0  0  0  0
  2  1  1  1
  2  4  1  0
  2  3  1  0
  4  5  2  0
  6 10  1  0
  6  4  1  0
  7  6  1  0
  8  7  1  0
  8  9  1  0
  9 10  1  0
 10 11  1  1
 11 12  2  0
 11 13  1  0
 13 14  1  0
 14 22  1  0
 14 15  1  1
 16 15  1  0
 16 21  1  0
 17 16  2  0
 18 17  1  0
 18 19  2  0
 19 20  1  0
 20 21  2  0
 22 24  2  0
 22 23  1  0
M  END
$$$$
