APF.pdb
     RDKit          3D

 24 25  0  0  1  0  0  0  0  0999 V2000
    9.2357  -14.6019   18.2630 C   0  0  0  0  0  0  0  0  0  0  0  0
    8.1268  -13.8578   19.0195 C   0  0  2  0  0  0  0  0  0  0  0  0
    8.2295  -12.4842   18.6502 N   0  0  0  0  0  0  0  0  0  0  0  0
    8.2389  -14.1472   20.4536 C   0  0  0  0  0  0  0  0  0  0  0  0
    8.8983  -13.2905   21.1371 O   0  0  0  0  0  0  0  0  0  0  0  0
    7.6883  -15.2730   21.1227 N   0  0  0  0  0  0  0  0  0  0  0  0
    7.0448  -16.3747   20.4856 C   0  0  0  0  0  0  0  0  0  0  0  0
    6.4226  -17.1754   21.5952 C   0  0  0  0  0  0  0  0  0  0  0  0
    6.4756  -16.2649   22.8213 C   0  0  0  0  0  0  0  0  0  0  0  0
    7.7032  -15.4578   22.5429 C   0  0  1  0  0  0  0  0  0  0  0  0
    8.9452  -16.1328   23.0041 C   0  0  0  0  0  0  0  0  0  0  0  0
    9.4958  -16.9381   22.2416 O   0  0  0  0  0  0  0  0  0  0  0  0
    9.4690  -15.8556   24.2734 N   0  0  0  0  0  0  0  0  0  0  0  0
   10.7332  -16.3847   24.7464 C   0  0  1  0  0  0  0  0  0  0  0  0
   11.4050  -15.2529   25.4863 C   0  0  0  0  0  0  0  0  0  0  0  0
   10.7012  -14.8302   26.7115 C   0  0  0  0  0  0  0  0  0  0  0  0
   11.0849  -15.3278   27.9326 C   0  0  0  0  0  0  0  0  0  0  0  0
   10.4518  -14.9552   29.1128 C   0  0  0  0  0  0  0  0  0  0  0  0
    9.4029  -14.0615   29.0979 C   0  0  0  0  0  0  0  0  0  0  0  0
    9.0096  -13.5559   27.8766 C   0  0  0  0  0  0  0  0  0  0  0  0
    9.6502  -13.9344   26.6945 C   0  0  0  0  0  0  0  0  0  0  0  0
   10.4467  -17.5612   25.5984 C   0  0  0  0  0  0  0  0  0  0  0  0
   11.4828  -18.4176   26.0261 O   0  0  0  0  0  0  0  0  0  0  0  0
    9.2577  -17.7895   25.9386 O   0  0  0  0  0  0  0  0  0  0  0  0
  2  1  1  6
  2  4  1  0
  2  3  1  0
  4  5  2  0
  6 10  1  0
  6  4  1  0
  7  6  1  0
  8  7  1  0
  8  9  1  0
  9 10  1  0
 10 11  1  6
 11 12  2  0
 11 13  1  0
 13 14  1  0
 14 22  1  0
 14 15  1  1
 16 15  1  0
 16 21  1  0
 17 16  2  0
 18 17  1  0
 18 19  2  0
 19 20  1  0
 20 21  2  0
 22 24  2  0
 22 23  1  0
M  END
$$$$
