MKV.pdb
     RDKit          3D

 25 24  0  0  1  0  0  0  0  0999 V2000
    6.9939  -11.2768   25.7304 C   0  0  0  0  0  0  0  0  0  0  0  0
    5.4316  -11.9153   26.3577 S   0  0  0  0  0  0  0  0  0  0  0  0
    5.2115  -13.6810   25.9740 C   0  0  0  0  0  0  0  0  0  0  0  0
    6.2995  -14.0680   25.0039 C   0  0  0  0  0  0  0  0  0  0  0  0
    6.1819  -15.4942   24.5282 C   0  0  2  0  0  0  0  0  0  0  0  0
    5.2876  -16.2978   25.3007 N   0  0  0  0  0  0  0  0  0  0  0  0
    7.5534  -16.0775   24.5806 C   0  0  0  0  0  0  0  0  0  0  0  0
    7.9370  -16.7356   25.5819 O   0  0  0  0  0  0  0  0  0  0  0  0
    8.4910  -15.9245   23.5161 N   0  0  0  0  0  0  0  0  0  0  0  0
    9.8041  -16.5000   23.5315 C   0  0  1  0  0  0  0  0  0  0  0  0
   10.5673  -16.2398   22.2482 C   0  0  0  0  0  0  0  0  0  0  0  0
   11.8623  -16.9715   22.2624 C   0  0  0  0  0  0  0  0  0  0  0  0
   11.9535  -18.0621   21.2333 C   0  0  0  0  0  0  0  0  0  0  0  0
   13.3068  -18.7276   21.2767 C   0  0  0  0  0  0  0  0  0  0  0  0
   13.3236  -19.7115   20.1927 N   0  0  0  0  0  0  0  0  0  0  0  0
   10.5320  -15.9701   24.7112 C   0  0  0  0  0  0  0  0  0  0  0  0
   10.7641  -14.7308   24.7326 O   0  0  0  0  0  0  0  0  0  0  0  0
    9.9652  -14.0415   26.8075 C   0  0  0  0  0  0  0  0  0  0  0  0
   10.1928  -15.2898   27.6300 C   0  0  2  0  0  0  0  0  0  0  0  0
   10.6774  -14.8507   29.0164 C   0  0  0  0  0  0  0  0  0  0  0  0
   11.3066  -16.1253   27.0418 C   0  0  2  0  0  0  0  0  0  0  0  0
   10.9816  -16.7431   25.8036 N   0  0  0  0  0  0  0  0  0  0  0  0
   11.7958  -17.1445   27.9958 C   0  0  0  0  0  0  0  0  0  0  0  0
   12.7044  -16.8200   28.9819 O   0  0  0  0  0  0  0  0  0  0  0  0
   11.3998  -18.3284   27.9356 O   0  0  0  0  0  0  0  0  0  0  0  0
  2  3  1  0
  2  1  1  0
  4  5  1  0
  4  3  1  0
  5  7  1  0
  5  6  1  1
  7  8  2  0
  9  7  1  0
  9 10  1  0
 10 11  1  6
 11 12  1  0
 13 12  1  0
 13 14  1  0
 15 14  1  0
 16 10  1  0
 16 17  2  0
 19 18  1  6
 19 21  1  0
 20 19  1  0
 21 22  1  6
 21 23  1  0
 22 16  1  0
 23 24  1  0
 25 23  2  0
M  END
$$$$
