MKV.pdb
     RDKit          3D

 25 24  0  0  1  0  0  0  0  0999 V2000
    7.4972  -11.7409   20.1691 C   0  0  0  0  0  0  0  0  0  0  0  0
    8.0441  -12.6467   18.7123 S   0  0  0  0  0  0  0  0  0  0  0  0
    7.6722  -14.4244   18.8333 C   0  0  0  0  0  0  0  0  0  0  0  0
    7.7717  -14.8052   20.2892 C   0  0  0  0  0  0  0  0  0  0  0  0
    7.4315  -16.2525   20.5421 C   0  0  2  0  0  0  0  0  0  0  0  0
    6.1030  -16.6172   20.1626 N   0  0  0  0  0  0  0  0  0  0  0  0
    7.6185  -16.4873   22.0029 C   0  0  0  0  0  0  0  0  0  0  0  0
    6.7002  -16.2245   22.8216 O   0  0  0  0  0  0  0  0  0  0  0  0
    8.8288  -17.0143   22.5443 N   0  0  0  0  0  0  0  0  0  0  0  0
    9.0115  -17.3023   23.9369 C   0  0  1  0  0  0  0  0  0  0  0  0
   10.1992  -18.2086   24.1916 C   0  0  0  0  0  0  0  0  0  0  0  0
   10.3714  -18.4328   25.6520 C   0  0  0  0  0  0  0  0  0  0  0  0
   10.3953  -19.8830   26.0437 C   0  0  0  0  0  0  0  0  0  0  0  0
   11.7685  -20.2862   26.5211 C   0  0  0  0  0  0  0  0  0  0  0  0
   11.7137  -21.7253   26.7841 N   0  0  0  0  0  0  0  0  0  0  0  0
    9.1457  -16.0164   24.6656 C   0  0  0  0  0  0  0  0  0  0  0  0
    9.9516  -15.1701   24.1915 O   0  0  0  0  0  0  0  0  0  0  0  0
    6.6641  -13.3235   25.4534 C   0  0  0  0  0  0  0  0  0  0  0  0
    7.3935  -13.6328   26.7413 C   0  0  2  0  0  0  0  0  0  0  0  0
    7.8402  -12.3004   27.3537 C   0  0  0  0  0  0  0  0  0  0  0  0
    8.6586  -14.4137   26.4683 C   0  0  2  0  0  0  0  0  0  0  0  0
    8.4445  -15.6712   25.8412 N   0  0  0  0  0  0  0  0  0  0  0  0
    9.4699  -14.5967   27.6916 C   0  0  0  0  0  0  0  0  0  0  0  0
    9.8298  -15.8556   28.1265 O   0  0  0  0  0  0  0  0  0  0  0  0
    9.8524  -13.6163   28.3657 O   0  0  0  0  0  0  0  0  0  0  0  0
  2  3  1  0
  2  1  1  0
  4  5  1  0
  4  3  1  0
  5  7  1  0
  5  6  1  1
  7  8  2  0
  9  7  1  0
  9 10  1  0
 10 11  1  6
 11 12  1  0
 13 12  1  0
 13 14  1  0
 15 14  1  0
 16 10  1  0
 16 17  2  0
 19 18  1  6
 19 21  1  0
 20 19  1  0
 21 22  1  1
 21 23  1  0
 22 16  1  0
 23 24  1  0
 25 23  2  0
M  END
$$$$
