MKV.pdb
     RDKit          3D

 25 24  0  0  1  0  0  0  0  0999 V2000
    5.0731  -10.5889   26.2439 C   0  0  0  0  0  0  0  0  0  0  0  0
    6.3203  -11.8876   26.2482 S   0  0  0  0  0  0  0  0  0  0  0  0
    5.8472  -13.2930   25.1926 C   0  0  0  0  0  0  0  0  0  0  0  0
    6.9423  -14.3243   25.3016 C   0  0  0  0  0  0  0  0  0  0  0  0
    6.7228  -15.5114   24.3978 C   0  0  2  0  0  0  0  0  0  0  0  0
    5.4993  -16.2105   24.6352 N   0  0  0  0  0  0  0  0  0  0  0  0
    7.8765  -16.4318   24.6123 C   0  0  0  0  0  0  0  0  0  0  0  0
    7.8984  -17.2220   25.5910 O   0  0  0  0  0  0  0  0  0  0  0  0
    9.0005  -16.4672   23.7343 N   0  0  0  0  0  0  0  0  0  0  0  0
   10.1915  -17.2179   24.0058 C   0  0  1  0  0  0  0  0  0  0  0  0
   11.1633  -17.2060   22.8429 C   0  0  0  0  0  0  0  0  0  0  0  0
   12.3035  -18.1214   23.1159 C   0  0  0  0  0  0  0  0  0  0  0  0
   13.3008  -18.1982   21.9949 C   0  0  0  0  0  0  0  0  0  0  0  0
   14.4071  -19.1684   22.3279 C   0  0  0  0  0  0  0  0  0  0  0  0
   15.2372  -19.2838   21.1274 N   0  0  0  0  0  0  0  0  0  0  0  0
   10.8149  -16.6743   25.2380 C   0  0  0  0  0  0  0  0  0  0  0  0
   11.5789  -15.6800   25.1034 O   0  0  0  0  0  0  0  0  0  0  0  0
    9.9011  -14.3486   27.4122 C   0  0  0  0  0  0  0  0  0  0  0  0
   10.1614  -15.5345   28.3136 C   0  0  2  0  0  0  0  0  0  0  0  0
   10.8499  -15.0131   29.5801 C   0  0  0  0  0  0  0  0  0  0  0  0
   11.1367  -16.4940   27.6710 C   0  0  2  0  0  0  0  0  0  0  0  0
   10.6192  -17.1826   26.5404 N   0  0  0  0  0  0  0  0  0  0  0  0
   11.6771  -17.4674   28.6449 C   0  0  0  0  0  0  0  0  0  0  0  0
   12.8653  -17.2307   29.3050 O   0  0  0  0  0  0  0  0  0  0  0  0
   11.0727  -18.5318   28.8976 O   0  0  0  0  0  0  0  0  0  0  0  0
  2  3  1  0
  2  1  1  0
  4  5  1  0
  4  3  1  0
  5  7  1  0
  5  6  1  1
  7  8  2  0
  9  7  1  0
  9 10  1  0
 10 11  1  6
 11 12  1  0
 13 12  1  0
 13 14  1  0
 15 14  1  0
 16 10  1  0
 16 17  2  0
 19 18  1  6
 19 21  1  0
 20 19  1  0
 21 22  1  6
 21 23  1  0
 22 16  1  0
 23 24  1  0
 25 23  2  0
M  END
$$$$
