MKV.pdb
     RDKit          3D

 25 24  0  0  1  0  0  0  0  0999 V2000
    5.7898  -12.1084   26.6662 C   0  0  0  0  0  0  0  0  0  0  0  0
    5.8235  -13.4133   27.9064 S   0  0  0  0  0  0  0  0  0  0  0  0
    6.3183  -15.0158   27.1991 C   0  0  0  0  0  0  0  0  0  0  0  0
    5.3779  -15.3118   26.0578 C   0  0  0  0  0  0  0  0  0  0  0  0
    5.6737  -16.6255   25.3789 C   0  0  2  0  0  0  0  0  0  0  0  0
    5.8259  -17.7275   26.2759 N   0  0  0  0  0  0  0  0  0  0  0  0
    6.9324  -16.4324   24.6028 C   0  0  0  0  0  0  0  0  0  0  0  0
    7.8555  -17.2859   24.6475 O   0  0  0  0  0  0  0  0  0  0  0  0
    7.1560  -15.2885   23.7800 N   0  0  0  0  0  0  0  0  0  0  0  0
    8.3357  -15.1051   22.9861 C   0  0  1  0  0  0  0  0  0  0  0  0
    8.1912  -13.9785   21.9827 C   0  0  0  0  0  0  0  0  0  0  0  0
    8.9032  -14.3182   20.7216 C   0  0  0  0  0  0  0  0  0  0  0  0
    8.7387  -13.2914   19.6374 C   0  0  0  0  0  0  0  0  0  0  0  0
    9.3628  -13.7681   18.3492 C   0  0  0  0  0  0  0  0  0  0  0  0
    9.0382  -12.7666   17.3319 N   0  0  0  0  0  0  0  0  0  0  0  0
    9.4816  -14.8725   23.9000 C   0  0  0  0  0  0  0  0  0  0  0  0
    9.9678  -13.7092   23.9254 O   0  0  0  0  0  0  0  0  0  0  0  0
    9.1904  -13.4941   26.4406 C   0  0  0  0  0  0  0  0  0  0  0  0
    9.6284  -14.8500   26.9468 C   0  0  2  0  0  0  0  0  0  0  0  0
   10.3842  -14.6327   28.2626 C   0  0  0  0  0  0  0  0  0  0  0  0
   10.6166  -15.4852   25.9957 C   0  0  2  0  0  0  0  0  0  0  0  0
   10.0649  -15.8482   24.7371 N   0  0  0  0  0  0  0  0  0  0  0  0
   11.2931  -16.6533   26.6006 C   0  0  0  0  0  0  0  0  0  0  0  0
   11.1605  -17.9144   26.0570 O   0  0  0  0  0  0  0  0  0  0  0  0
   12.0041  -16.5310   27.6212 O   0  0  0  0  0  0  0  0  0  0  0  0
  2  3  1  0
  2  1  1  0
  4  5  1  0
  4  3  1  0
  5  7  1  0
  5  6  1  1
  7  8  2  0
  9  7  1  0
  9 10  1  0
 10 11  1  6
 11 12  1  0
 13 12  1  0
 13 14  1  0
 15 14  1  0
 16 10  1  0
 16 17  2  0
 19 18  1  6
 19 21  1  0
 20 19  1  0
 21 22  1  6
 21 23  1  0
 22 16  1  0
 23 24  1  0
 25 23  2  0
M  END
$$$$
