MKV.pdb
     RDKit          3D

 25 24  0  0  1  0  0  0  0  0999 V2000
    7.4865  -12.0401   19.4833 C   0  0  0  0  0  0  0  0  0  0  0  0
    8.2935  -13.2590   18.4322 S   0  0  0  0  0  0  0  0  0  0  0  0
    7.6439  -14.9368   18.7084 C   0  0  0  0  0  0  0  0  0  0  0  0
    7.4827  -15.1157   20.1972 C   0  0  0  0  0  0  0  0  0  0  0  0
    6.8935  -16.4536   20.5674 C   0  0  2  0  0  0  0  0  0  0  0  0
    5.6670  -16.7587   19.9005 N   0  0  0  0  0  0  0  0  0  0  0  0
    6.6708  -16.4302   22.0418 C   0  0  0  0  0  0  0  0  0  0  0  0
    5.6738  -15.8421   22.5346 O   0  0  0  0  0  0  0  0  0  0  0  0
    7.5607  -17.0628   22.9601 N   0  0  0  0  0  0  0  0  0  0  0  0
    7.3233  -17.1277   24.3726 C   0  0  1  0  0  0  0  0  0  0  0  0
    7.6845  -18.4769   24.9609 C   0  0  0  0  0  0  0  0  0  0  0  0
    6.6441  -19.4831   24.6176 C   0  0  0  0  0  0  0  0  0  0  0  0
    6.8717  -20.8286   25.2458 C   0  0  0  0  0  0  0  0  0  0  0  0
    5.8004  -21.8041   24.8251 C   0  0  0  0  0  0  0  0  0  0  0  0
    6.1091  -23.0740   25.4851 N   0  0  0  0  0  0  0  0  0  0  0  0
    8.0829  -16.0320   25.0243 C   0  0  0  0  0  0  0  0  0  0  0  0
    9.2248  -15.7696   24.5578 O   0  0  0  0  0  0  0  0  0  0  0  0
    6.5545  -13.2468   27.9587 C   0  0  0  0  0  0  0  0  0  0  0  0
    7.6941  -12.9682   27.0045 C   0  0  2  0  0  0  0  0  0  0  0  0
    7.0863  -12.4756   25.6863 C   0  0  0  0  0  0  0  0  0  0  0  0
    8.4404  -14.2400   26.6726 C   0  0  2  0  0  0  0  0  0  0  0  0
    7.6274  -15.2665   26.1195 N   0  0  0  0  0  0  0  0  0  0  0  0
    9.1837  -14.7649   27.8388 C   0  0  0  0  0  0  0  0  0  0  0  0
   10.1484  -14.0067   28.4694 O   0  0  0  0  0  0  0  0  0  0  0  0
    8.9588  -15.9102   28.2860 O   0  0  0  0  0  0  0  0  0  0  0  0
  2  3  1  0
  2  1  1  0
  4  5  1  0
  4  3  1  0
  5  7  1  0
  5  6  1  6
  7  8  2  0
  9  7  1  0
  9 10  1  0
 10 11  1  1
 11 12  1  0
 13 12  1  0
 13 14  1  0
 15 14  1  0
 16 10  1  0
 16 17  2  0
 19 18  1  1
 19 21  1  0
 20 19  1  0
 21 22  1  1
 21 23  1  0
 22 16  1  0
 23 24  1  0
 25 23  2  0
M  END
$$$$
