MKV.pdb
     RDKit          3D

 25 24  0  0  1  0  0  0  0  0999 V2000
    6.9131  -10.7992   26.5947 C   0  0  0  0  0  0  0  0  0  0  0  0
    6.9564  -12.2125   27.7095 S   0  0  0  0  0  0  0  0  0  0  0  0
    6.0903  -13.6560   27.0170 C   0  0  0  0  0  0  0  0  0  0  0  0
    6.8632  -14.1017   25.8011 C   0  0  0  0  0  0  0  0  0  0  0  0
    6.1768  -15.2100   25.0428 C   0  0  2  0  0  0  0  0  0  0  0  0
    6.0343  -16.4248   25.7818 N   0  0  0  0  0  0  0  0  0  0  0  0
    6.9913  -15.4596   23.8188 C   0  0  0  0  0  0  0  0  0  0  0  0
    7.6340  -16.5320   23.6789 O   0  0  0  0  0  0  0  0  0  0  0  0
    7.0852  -14.5123   22.7560 N   0  0  0  0  0  0  0  0  0  0  0  0
    7.8909  -14.7139   21.5873 C   0  0  1  0  0  0  0  0  0  0  0  0
    7.8657  -13.5217   20.6519 C   0  0  0  0  0  0  0  0  0  0  0  0
    8.8186  -13.7290   19.5285 C   0  0  0  0  0  0  0  0  0  0  0  0
    8.2055  -14.3933   18.3287 C   0  0  0  0  0  0  0  0  0  0  0  0
    9.2115  -14.5135   17.2108 C   0  0  0  0  0  0  0  0  0  0  0  0
    8.5798  -15.3204   16.1651 N   0  0  0  0  0  0  0  0  0  0  0  0
    9.2736  -15.0313   22.0228 C   0  0  0  0  0  0  0  0  0  0  0  0
    9.7914  -14.2718   22.8861 O   0  0  0  0  0  0  0  0  0  0  0  0
   10.6419  -17.7679   24.0321 C   0  0  0  0  0  0  0  0  0  0  0  0
   11.4627  -17.7208   22.7629 C   0  0  2  0  0  0  0  0  0  0  0  0
   12.9373  -17.8609   23.1580 C   0  0  0  0  0  0  0  0  0  0  0  0
   11.3352  -16.3733   22.0901 C   0  0  2  0  0  0  0  0  0  0  0  0
   10.0480  -16.1115   21.5470 N   0  0  0  0  0  0  0  0  0  0  0  0
   12.3669  -16.1759   21.0486 C   0  0  0  0  0  0  0  0  0  0  0  0
   13.4901  -15.4131   21.2933 O   0  0  0  0  0  0  0  0  0  0  0  0
   12.2504  -16.6945   19.9174 O   0  0  0  0  0  0  0  0  0  0  0  0
  2  3  1  0
  2  1  1  0
  4  5  1  0
  4  3  1  0
  5  7  1  0
  5  6  1  1
  7  8  2  0
  9  7  1  0
  9 10  1  0
 10 11  1  6
 11 12  1  0
 13 12  1  0
 13 14  1  0
 15 14  1  0
 16 10  1  0
 16 17  2  0
 19 18  1  1
 19 21  1  0
 20 19  1  0
 21 22  1  6
 21 23  1  0
 22 16  1  0
 23 24  1  0
 25 23  2  0
M  END
$$$$
