EHK.pdb
     RDKit          3D

 29 29  0  0  1  0  0  0  0  0999 V2000
   18.8675  -12.1598  -19.5294 N   0  0  0  0  0  0  0  0  0  0  0  0
   20.0887  -11.5116  -18.9682 C   0  0  1  0  0  0  0  0  0  0  0  0
   21.0006  -11.1290  -20.0313 C   0  0  0  0  0  0  0  0  0  0  0  0
   21.8180  -12.2502  -20.6110 C   0  0  0  0  0  0  0  0  0  0  0  0
   22.8398  -12.7733  -19.6429 C   0  0  0  0  0  0  0  0  0  0  0  0
   24.0319  -12.7273  -20.0263 O   0  0  0  0  0  0  0  0  0  0  0  0
   19.5872  -10.5474  -18.0107 C   0  0  0  0  0  0  0  0  0  0  0  0
   18.5721   -9.8625  -18.4210 O   0  0  0  0  0  0  0  0  0  0  0  0
   22.5570  -13.2830  -18.4037 O   0  0  0  0  0  0  0  0  0  0  0  0
   20.0226  -10.2389  -16.7292 N   0  0  0  0  0  0  0  0  0  0  0  0
   19.3541   -9.1772  -15.8849 C   0  0  1  0  0  0  0  0  0  0  0  0
   18.8904   -9.9651  -14.7124 C   0  0  0  0  0  0  0  0  0  0  0  0
   17.5827  -10.5863  -14.7266 C   0  0  0  0  0  0  0  0  0  0  0  0
   16.5865  -10.6625  -15.6642 C   0  0  0  0  0  0  0  0  0  0  0  0
   15.6135  -11.4406  -15.1425 N   0  0  0  0  0  0  0  0  0  0  0  0
   15.9746  -11.8478  -13.9176 C   0  0  0  0  0  0  0  0  0  0  0  0
   17.1772  -11.3389  -13.6384 N   0  0  0  0  0  0  0  0  0  0  0  0
   20.5473   -8.3190  -15.5514 C   0  0  0  0  0  0  0  0  0  0  0  0
   21.6868   -8.8589  -15.2821 O   0  0  0  0  0  0  0  0  0  0  0  0
   20.4938   -6.9536  -15.5195 N   0  0  0  0  0  0  0  0  0  0  0  0
   21.7643   -6.1351  -15.2746 C   0  0  1  0  0  0  0  0  0  0  0  0
   21.5019   -4.9358  -16.1113 C   0  0  0  0  0  0  0  0  0  0  0  0
   22.3880   -3.7815  -16.1509 C   0  0  0  0  0  0  0  0  0  0  0  0
   22.0991   -2.6122  -17.0208 C   0  0  0  0  0  0  0  0  0  0  0  0
   23.3272   -1.6629  -16.8202 C   0  0  0  0  0  0  0  0  0  0  0  0
   23.0800   -0.5524  -17.7168 N   0  0  0  0  0  0  0  0  0  0  0  0
   21.7114   -5.9600  -13.8195 C   0  0  0  0  0  0  0  0  0  0  0  0
   22.7985   -5.6226  -13.0682 O   0  0  0  0  0  0  0  0  0  0  0  0
   20.6336   -6.1251  -13.2000 O   0  0  0  0  0  0  0  0  0  0  0  0
  2  1  1  6
  2  3  1  0
  3  4  1  0
  4  5  1  0
  5  9  1  0
  6  5  2  0
  7  2  1  0
  7  8  2  0
 10  7  1  0
 11 10  1  0
 12 13  1  0
 11 12  1  1
 13 14  2  0
 14 15  1  0
 16 15  1  0
 17 13  1  0
 17 16  2  0
 18 11  1  0
 19 18  2  0
 20 18  1  0
 21 20  1  0
 21 22  1  6
 22 23  1  0
 24 25  1  0
 24 23  1  0
 25 26  1  0
 27 21  1  0
 28 27  1  0
 29 27  2  0
M  END
$$$$
