EHK.pdb
     RDKit          3D

 29 29  0  0  1  0  0  0  0  0999 V2000
   21.8472  -17.4822  -20.9441 N   0  0  0  0  0  0  0  0  0  0  0  0
   22.1308  -18.0952  -19.6136 C   0  0  1  0  0  0  0  0  0  0  0  0
   23.5618  -18.1840  -19.3846 C   0  0  0  0  0  0  0  0  0  0  0  0
   24.4144  -18.1418  -20.6227 C   0  0  0  0  0  0  0  0  0  0  0  0
   25.7306  -18.8398  -20.4352 C   0  0  0  0  0  0  0  0  0  0  0  0
   25.9396  -19.3185  -19.2962 O   0  0  0  0  0  0  0  0  0  0  0  0
   21.2535  -17.4011  -18.6936 C   0  0  0  0  0  0  0  0  0  0  0  0
   21.3478  -17.7906  -17.4658 O   0  0  0  0  0  0  0  0  0  0  0  0
   26.6886  -18.9803  -21.4037 O   0  0  0  0  0  0  0  0  0  0  0  0
   20.3280  -16.3912  -18.9182 N   0  0  0  0  0  0  0  0  0  0  0  0
   19.5314  -15.7642  -17.7961 C   0  0  1  0  0  0  0  0  0  0  0  0
   19.3461  -14.3745  -18.2912 C   0  0  0  0  0  0  0  0  0  0  0  0
   20.3681  -13.3770  -18.0534 C   0  0  0  0  0  0  0  0  0  0  0  0
   21.5845  -13.4066  -17.4232 C   0  0  0  0  0  0  0  0  0  0  0  0
   22.1367  -12.1834  -17.5755 N   0  0  0  0  0  0  0  0  0  0  0  0
   21.3051  -11.4012  -18.2780 C   0  0  0  0  0  0  0  0  0  0  0  0
   20.2142  -12.1081  -18.5836 N   0  0  0  0  0  0  0  0  0  0  0  0
   18.2624  -16.5715  -17.8939 C   0  0  0  0  0  0  0  0  0  0  0  0
   17.8059  -16.9362  -19.0432 O   0  0  0  0  0  0  0  0  0  0  0  0
   17.5422  -16.9575  -16.7983 N   0  0  0  0  0  0  0  0  0  0  0  0
   16.3039  -17.8435  -16.9594 C   0  0  1  0  0  0  0  0  0  0  0  0
   16.7445  -19.0847  -16.2721 C   0  0  0  0  0  0  0  0  0  0  0  0
   15.8914  -20.2533  -16.1114 C   0  0  0  0  0  0  0  0  0  0  0  0
   16.3174  -21.4170  -15.2918 C   0  0  0  0  0  0  0  0  0  0  0  0
   15.1350  -22.4351  -15.4144 C   0  0  0  0  0  0  0  0  0  0  0  0
   15.4808  -23.5070  -14.5035 N   0  0  0  0  0  0  0  0  0  0  0  0
   15.2858  -17.0311  -16.2853 C   0  0  0  0  0  0  0  0  0  0  0  0
   13.9612  -17.0765  -16.6073 O   0  0  0  0  0  0  0  0  0  0  0  0
   15.6109  -16.2410  -15.3674 O   0  0  0  0  0  0  0  0  0  0  0  0
  2  1  1  6
  2  3  1  0
  3  4  1  0
  4  5  1  0
  5  9  1  0
  6  5  2  0
  7  2  1  0
  7  8  2  0
 10  7  1  0
 11 10  1  0
 12 13  1  0
 11 12  1  6
 13 14  2  0
 14 15  1  0
 16 15  1  0
 17 13  1  0
 17 16  2  0
 18 11  1  0
 19 18  2  0
 20 18  1  0
 21 20  1  0
 21 22  1  1
 22 23  1  0
 24 25  1  0
 24 23  1  0
 25 26  1  0
 27 21  1  0
 28 27  1  0
 29 27  2  0
M  END
$$$$
