EHK.pdb
     RDKit          3D

 29 29  0  0  1  0  0  0  0  0999 V2000
   13.8925   -9.0806  -16.1844 N   0  0  0  0  0  0  0  0  0  0  0  0
   15.2051   -9.5893  -15.6897 C   0  0  1  0  0  0  0  0  0  0  0  0
   15.5227  -10.8676  -16.3006 C   0  0  0  0  0  0  0  0  0  0  0  0
   14.8415  -12.0597  -15.6871 C   0  0  0  0  0  0  0  0  0  0  0  0
   15.5025  -12.5041  -14.4141 C   0  0  0  0  0  0  0  0  0  0  0  0
   14.8940  -12.2258  -13.3547 O   0  0  0  0  0  0  0  0  0  0  0  0
   16.1004   -8.4549  -15.7871 C   0  0  0  0  0  0  0  0  0  0  0  0
   16.1399   -7.9016  -16.9534 O   0  0  0  0  0  0  0  0  0  0  0  0
   16.6947  -13.1742  -14.3422 O   0  0  0  0  0  0  0  0  0  0  0  0
   16.9231   -7.8709  -14.8335 N   0  0  0  0  0  0  0  0  0  0  0  0
   17.6439   -6.5650  -15.0824 C   0  0  1  0  0  0  0  0  0  0  0  0
   16.8095   -5.6034  -14.3145 C   0  0  0  0  0  0  0  0  0  0  0  0
   15.6763   -4.9604  -14.9457 C   0  0  0  0  0  0  0  0  0  0  0  0
   15.1314   -5.0324  -16.2008 C   0  0  0  0  0  0  0  0  0  0  0  0
   14.0264   -4.2557  -16.1956 N   0  0  0  0  0  0  0  0  0  0  0  0
   13.8698   -3.7084  -14.9821 C   0  0  0  0  0  0  0  0  0  0  0  0
   14.8669   -4.1241  -14.1971 N   0  0  0  0  0  0  0  0  0  0  0  0
   18.9521   -6.8532  -14.3917 C   0  0  0  0  0  0  0  0  0  0  0  0
   18.9713   -7.4511  -13.2497 O   0  0  0  0  0  0  0  0  0  0  0  0
   20.1635   -6.5098  -14.9237 N   0  0  0  0  0  0  0  0  0  0  0  0
   21.4593   -6.8632  -14.1887 C   0  0  1  0  0  0  0  0  0  0  0  0
   22.1258   -7.7426  -15.1835 C   0  0  0  0  0  0  0  0  0  0  0  0
   23.4104   -8.3850  -14.9461 C   0  0  0  0  0  0  0  0  0  0  0  0
   24.1131   -9.1331  -16.0204 C   0  0  0  0  0  0  0  0  0  0  0  0
   25.4332   -9.6363  -15.3470 C   0  0  0  0  0  0  0  0  0  0  0  0
   26.0996  -10.4036  -16.3792 N   0  0  0  0  0  0  0  0  0  0  0  0
   22.0375   -5.5318  -13.9796 C   0  0  0  0  0  0  0  0  0  0  0  0
   22.9788   -5.2677  -13.0285 O   0  0  0  0  0  0  0  0  0  0  0  0
   21.6700   -4.5631  -14.6860 O   0  0  0  0  0  0  0  0  0  0  0  0
  2  1  1  6
  2  3  1  0
  3  4  1  0
  4  5  1  0
  5  9  1  0
  6  5  2  0
  7  2  1  0
  7  8  2  0
 10  7  1  0
 11 10  1  0
 12 13  1  0
 11 12  1  1
 13 14  2  0
 14 15  1  0
 16 15  1  0
 17 13  1  0
 17 16  2  0
 18 11  1  0
 19 18  2  0
 20 18  1  0
 21 20  1  0
 21 22  1  6
 22 23  1  0
 24 25  1  0
 24 23  1  0
 25 26  1  0
 27 21  1  0
 28 27  1  0
 29 27  2  0
M  END
$$$$
