EHK.pdb
     RDKit          3D

 29 29  0  0  1  0  0  0  0  0999 V2000
   23.2055  -20.1772  -15.0943 N   0  0  0  0  0  0  0  0  0  0  0  0
   22.0723  -19.2114  -15.1902 C   0  0  1  0  0  0  0  0  0  0  0  0
   21.2209  -19.3020  -14.0176 C   0  0  0  0  0  0  0  0  0  0  0  0
   19.8730  -18.6484  -14.1503 C   0  0  0  0  0  0  0  0  0  0  0  0
   18.8442  -19.5723  -14.7357 C   0  0  0  0  0  0  0  0  0  0  0  0
   19.1851  -20.7730  -14.8453 O   0  0  0  0  0  0  0  0  0  0  0  0
   22.6857  -17.9622  -15.5917 C   0  0  0  0  0  0  0  0  0  0  0  0
   23.3230  -17.3506  -14.6495 O   0  0  0  0  0  0  0  0  0  0  0  0
   17.5934  -19.1940  -15.1457 O   0  0  0  0  0  0  0  0  0  0  0  0
   22.6957  -17.3164  -16.8205 N   0  0  0  0  0  0  0  0  0  0  0  0
   23.3840  -15.9856  -17.0257 C   0  0  1  0  0  0  0  0  0  0  0  0
   24.3524  -16.3051  -18.1077 C   0  0  0  0  0  0  0  0  0  0  0  0
   25.6391  -16.8839  -17.7827 C   0  0  0  0  0  0  0  0  0  0  0  0
   26.2370  -17.2491  -16.6051 C   0  0  0  0  0  0  0  0  0  0  0  0
   27.4255  -17.8063  -16.9232 N   0  0  0  0  0  0  0  0  0  0  0  0
   27.5813  -17.7989  -18.2546 C   0  0  0  0  0  0  0  0  0  0  0  0
   26.5010  -17.2395  -18.8052 N   0  0  0  0  0  0  0  0  0  0  0  0
   22.2240  -15.1667  -17.5309 C   0  0  0  0  0  0  0  0  0  0  0  0
   21.2430  -15.7325  -18.1473 O   0  0  0  0  0  0  0  0  0  0  0  0
   22.1442  -13.8122  -17.3660 N   0  0  0  0  0  0  0  0  0  0  0  0
   20.9699  -13.0287  -17.9587 C   0  0  1  0  0  0  0  0  0  0  0  0
   20.2480  -12.6139  -16.7283 C   0  0  0  0  0  0  0  0  0  0  0  0
   18.9894  -11.8827  -16.7501 C   0  0  0  0  0  0  0  0  0  0  0  0
   18.2701  -11.5406  -15.4959 C   0  0  0  0  0  0  0  0  0  0  0  0
   16.9391  -10.8733  -15.9783 C   0  0  0  0  0  0  0  0  0  0  0  0
   16.2979  -10.4175  -14.7621 N   0  0  0  0  0  0  0  0  0  0  0  0
   21.6765  -11.9820  -18.7044 C   0  0  0  0  0  0  0  0  0  0  0  0
   21.1309  -11.3256  -19.7682 O   0  0  0  0  0  0  0  0  0  0  0  0
   22.8422  -11.6509  -18.3816 O   0  0  0  0  0  0  0  0  0  0  0  0
  2  1  1  1
  2  3  1  0
  3  4  1  0
  4  5  1  0
  5  9  1  0
  6  5  2  0
  7  2  1  0
  7  8  2  0
 10  7  1  0
 11 10  1  0
 12 13  1  0
 11 12  1  6
 13 14  2  0
 14 15  1  0
 16 15  1  0
 17 13  1  0
 17 16  2  0
 18 11  1  0
 19 18  2  0
 20 18  1  0
 21 20  1  0
 21 22  1  1
 22 23  1  0
 24 25  1  0
 24 23  1  0
 25 26  1  0
 27 21  1  0
 28 27  1  0
 29 27  2  0
M  END
$$$$
