EHK.pdb
     RDKit          3D

 29 29  0  0  1  0  0  0  0  0999 V2000
   27.0825  -19.5160  -16.0222 N   0  0  0  0  0  0  0  0  0  0  0  0
   26.1083  -18.5762  -15.3945 C   0  0  1  0  0  0  0  0  0  0  0  0
   25.8139  -17.4705  -16.2883 C   0  0  0  0  0  0  0  0  0  0  0  0
   25.8550  -17.8013  -17.7547 C   0  0  0  0  0  0  0  0  0  0  0  0
   24.7834  -17.0921  -18.5316 C   0  0  0  0  0  0  0  0  0  0  0  0
   25.1156  -16.6702  -19.6638 O   0  0  0  0  0  0  0  0  0  0  0  0
   25.0627  -19.4279  -14.8661 C   0  0  0  0  0  0  0  0  0  0  0  0
   24.9434  -20.5654  -15.4660 O   0  0  0  0  0  0  0  0  0  0  0  0
   23.5035  -16.8837  -18.0913 O   0  0  0  0  0  0  0  0  0  0  0  0
   24.1686  -19.2181  -13.8251 N   0  0  0  0  0  0  0  0  0  0  0  0
   23.2266  -20.2980  -13.3422 C   0  0  1  0  0  0  0  0  0  0  0  0
   23.5356  -20.3466  -11.8887 C   0  0  0  0  0  0  0  0  0  0  0  0
   24.7652  -20.9566  -11.4280 C   0  0  0  0  0  0  0  0  0  0  0  0
   25.8361  -21.5192  -12.0716 C   0  0  0  0  0  0  0  0  0  0  0  0
   26.7315  -21.8620  -11.1203 N   0  0  0  0  0  0  0  0  0  0  0  0
   26.2517  -21.5299   -9.9135 C   0  0  0  0  0  0  0  0  0  0  0  0
   25.0486  -20.9731  -10.0737 N   0  0  0  0  0  0  0  0  0  0  0  0
   21.9028  -19.6311  -13.6152 C   0  0  0  0  0  0  0  0  0  0  0  0
   21.7438  -18.3730  -13.3829 O   0  0  0  0  0  0  0  0  0  0  0  0
   20.8228  -20.3028  -14.1158 N   0  0  0  0  0  0  0  0  0  0  0  0
   19.5015  -19.5693  -14.3613 C   0  0  1  0  0  0  0  0  0  0  0  0
   19.1092  -20.1152  -15.6862 C   0  0  0  0  0  0  0  0  0  0  0  0
   17.8827  -19.7371  -16.3733 C   0  0  0  0  0  0  0  0  0  0  0  0
   17.5388  -20.2931  -17.7074 C   0  0  0  0  0  0  0  0  0  0  0  0
   17.1648  -19.0406  -18.5682 C   0  0  0  0  0  0  0  0  0  0  0  0
   16.9420  -19.5663  -19.8995 N   0  0  0  0  0  0  0  0  0  0  0  0
   18.7175  -20.0035  -13.2004 C   0  0  0  0  0  0  0  0  0  0  0  0
   18.9807  -21.1487  -12.5080 O   0  0  0  0  0  0  0  0  0  0  0  0
   17.7475  -19.3179  -12.7983 O   0  0  0  0  0  0  0  0  0  0  0  0
  2  1  1  6
  2  3  1  0
  3  4  1  0
  4  5  1  0
  5  9  1  0
  6  5  2  0
  7  2  1  0
  7  8  2  0
 10  7  1  0
 11 10  1  0
 12 13  1  0
 11 12  1  1
 13 14  2  0
 14 15  1  0
 16 15  1  0
 17 13  1  0
 17 16  2  0
 18 11  1  0
 19 18  2  0
 20 18  1  0
 21 20  1  0
 21 22  1  6
 22 23  1  0
 24 25  1  0
 24 23  1  0
 25 26  1  0
 27 21  1  0
 28 27  1  0
 29 27  2  0
M  END
$$$$
