EHK.pdb
     RDKit          3D

 29 29  0  0  1  0  0  0  0  0999 V2000
   26.2707   -9.6078  -18.1770 N   0  0  0  0  0  0  0  0  0  0  0  0
   25.7162   -8.2229  -18.1449 C   0  0  1  0  0  0  0  0  0  0  0  0
   26.0024   -7.5272  -19.3867 C   0  0  0  0  0  0  0  0  0  0  0  0
   27.2062   -6.6263  -19.3557 C   0  0  0  0  0  0  0  0  0  0  0  0
   26.8990   -5.2811  -18.7633 C   0  0  0  0  0  0  0  0  0  0  0  0
   25.7054   -5.0865  -18.4352 O   0  0  0  0  0  0  0  0  0  0  0  0
   24.3627   -8.3791  -17.6535 C   0  0  0  0  0  0  0  0  0  0  0  0
   23.7449   -9.4194  -18.1055 O   0  0  0  0  0  0  0  0  0  0  0  0
   27.8161   -4.2833  -18.5662 O   0  0  0  0  0  0  0  0  0  0  0  0
   23.6234   -7.5918  -16.7814 N   0  0  0  0  0  0  0  0  0  0  0  0
   22.2089   -7.9447  -16.3795 C   0  0  1  0  0  0  0  0  0  0  0  0
   22.3569   -8.1894  -14.9204 C   0  0  0  0  0  0  0  0  0  0  0  0
   21.1854   -8.4118  -14.0992 C   0  0  0  0  0  0  0  0  0  0  0  0
   19.8607   -8.6156  -14.3839 C   0  0  0  0  0  0  0  0  0  0  0  0
   19.2349   -8.8383  -13.2078 N   0  0  0  0  0  0  0  0  0  0  0  0
   20.1265   -8.7805  -12.2085 C   0  0  0  0  0  0  0  0  0  0  0  0
   21.3293   -8.5208  -12.7273 N   0  0  0  0  0  0  0  0  0  0  0  0
   21.5217   -6.6340  -16.6646 C   0  0  0  0  0  0  0  0  0  0  0  0
   22.1009   -5.5169  -16.3837 O   0  0  0  0  0  0  0  0  0  0  0  0
   20.2782   -6.5549  -17.2265 N   0  0  0  0  0  0  0  0  0  0  0  0
   19.6023   -5.1949  -17.4207 C   0  0  1  0  0  0  0  0  0  0  0  0
   18.5041   -5.5484  -18.3568 C   0  0  0  0  0  0  0  0  0  0  0  0
   17.4646   -4.6112  -18.7572 C   0  0  0  0  0  0  0  0  0  0  0  0
   16.4249   -4.9850  -19.7506 C   0  0  0  0  0  0  0  0  0  0  0  0
   15.5464   -3.6984  -19.8998 C   0  0  0  0  0  0  0  0  0  0  0  0
   14.5076   -4.0727  -20.8374 N   0  0  0  0  0  0  0  0  0  0  0  0
   19.2260   -4.8669  -16.0417 C   0  0  0  0  0  0  0  0  0  0  0  0
   18.8823   -5.8093  -15.1176 O   0  0  0  0  0  0  0  0  0  0  0  0
   19.2023   -3.6733  -15.6579 O   0  0  0  0  0  0  0  0  0  0  0  0
  2  1  1  6
  2  3  1  0
  3  4  1  0
  4  5  1  0
  5  9  1  0
  6  5  2  0
  7  2  1  0
  7  8  2  0
 10  7  1  0
 11 10  1  0
 12 13  1  0
 11 12  1  1
 13 14  2  0
 14 15  1  0
 16 15  1  0
 17 13  1  0
 17 16  2  0
 18 11  1  0
 19 18  2  0
 20 18  1  0
 21 20  1  0
 21 22  1  6
 22 23  1  0
 24 25  1  0
 24 23  1  0
 25 26  1  0
 27 21  1  0
 28 27  1  0
 29 27  2  0
M  END
$$$$
