EHK.pdb
     RDKit          3D

 29 29  0  0  1  0  0  0  0  0999 V2000
   21.0935  -20.6363  -10.2710 N   0  0  0  0  0  0  0  0  0  0  0  0
   21.8258  -21.3951  -11.3266 C   0  0  1  0  0  0  0  0  0  0  0  0
   20.9882  -22.4456  -11.8771 C   0  0  0  0  0  0  0  0  0  0  0  0
   19.5332  -22.0957  -12.0255 C   0  0  0  0  0  0  0  0  0  0  0  0
   19.1860  -21.6736  -13.4241 C   0  0  0  0  0  0  0  0  0  0  0  0
   18.5636  -22.5159  -14.1121 O   0  0  0  0  0  0  0  0  0  0  0  0
   22.4212  -20.3765  -12.1667 C   0  0  0  0  0  0  0  0  0  0  0  0
   22.0685  -19.1685  -11.8763 O   0  0  0  0  0  0  0  0  0  0  0  0
   19.4992  -20.4607  -13.9777 O   0  0  0  0  0  0  0  0  0  0  0  0
   23.3035  -20.4889  -13.2325 N   0  0  0  0  0  0  0  0  0  0  0  0
   23.8984  -19.2787  -13.9170 C   0  0  1  0  0  0  0  0  0  0  0  0
   25.1134  -19.8529  -14.5530 C   0  0  0  0  0  0  0  0  0  0  0  0
   25.9686  -19.0179  -15.3700 C   0  0  0  0  0  0  0  0  0  0  0  0
   25.9552  -17.6859  -15.6914 C   0  0  0  0  0  0  0  0  0  0  0  0
   27.0542  -17.4506  -16.4406 N   0  0  0  0  0  0  0  0  0  0  0  0
   27.7452  -18.5892  -16.5915 C   0  0  0  0  0  0  0  0  0  0  0  0
   27.1021  -19.5649  -15.9452 N   0  0  0  0  0  0  0  0  0  0  0  0
   22.8163  -18.9909  -14.9258 C   0  0  0  0  0  0  0  0  0  0  0  0
   22.0063  -19.9216  -15.2999 O   0  0  0  0  0  0  0  0  0  0  0  0
   22.6326  -17.7576  -15.4856 N   0  0  0  0  0  0  0  0  0  0  0  0
   21.4401  -17.4974  -16.4099 C   0  0  1  0  0  0  0  0  0  0  0  0
   21.0819  -16.1051  -16.0355 C   0  0  0  0  0  0  0  0  0  0  0  0
   19.8107  -15.4872  -16.3842 C   0  0  0  0  0  0  0  0  0  0  0  0
   19.4715  -14.1098  -15.9426 C   0  0  0  0  0  0  0  0  0  0  0  0
   18.0411  -13.8540  -16.5240 C   0  0  0  0  0  0  0  0  0  0  0  0
   17.6103  -12.6186  -15.9025 N   0  0  0  0  0  0  0  0  0  0  0  0
   22.0539  -17.6990  -17.7265 C   0  0  0  0  0  0  0  0  0  0  0  0
   21.3427  -18.0512  -18.8357 O   0  0  0  0  0  0  0  0  0  0  0  0
   23.2904  -17.5550  -17.8781 O   0  0  0  0  0  0  0  0  0  0  0  0
  2  1  1  1
  2  3  1  0
  3  4  1  0
  4  5  1  0
  5  9  1  0
  6  5  2  0
  7  2  1  0
  7  8  2  0
 10  7  1  0
 11 10  1  0
 12 13  1  0
 11 12  1  6
 13 14  2  0
 14 15  1  0
 16 15  1  0
 17 13  1  0
 17 16  2  0
 18 11  1  0
 19 18  2  0
 20 18  1  0
 21 20  1  0
 21 22  1  6
 22 23  1  0
 24 25  1  0
 24 23  1  0
 25 26  1  0
 27 21  1  0
 28 27  1  0
 29 27  2  0
M  END
$$$$
