EHK.pdb
     RDKit          3D

 29 29  0  0  1  0  0  0  0  0999 V2000
   21.2158   -9.3762  -22.8936 N   0  0  0  0  0  0  0  0  0  0  0  0
   21.7469   -8.5311  -21.7846 C   0  0  1  0  0  0  0  0  0  0  0  0
   22.1388   -7.2234  -22.2791 C   0  0  0  0  0  0  0  0  0  0  0  0
   23.3881   -7.2010  -23.1159 C   0  0  0  0  0  0  0  0  0  0  0  0
   24.6338   -7.1112  -22.2821 C   0  0  0  0  0  0  0  0  0  0  0  0
   24.4592   -6.9483  -21.0521 O   0  0  0  0  0  0  0  0  0  0  0  0
   20.7853   -8.6834  -20.7122 C   0  0  0  0  0  0  0  0  0  0  0  0
   19.5535   -8.7226  -21.0981 O   0  0  0  0  0  0  0  0  0  0  0  0
   25.9110   -7.1933  -22.7694 O   0  0  0  0  0  0  0  0  0  0  0  0
   20.9732   -8.7896  -19.3408 N   0  0  0  0  0  0  0  0  0  0  0  0
   19.8148   -8.9065  -18.3757 C   0  0  1  0  0  0  0  0  0  0  0  0
   20.1780  -10.1265  -17.6075 C   0  0  0  0  0  0  0  0  0  0  0  0
   19.2944  -10.6231  -16.5737 C   0  0  0  0  0  0  0  0  0  0  0  0
   18.0644  -10.2285  -16.1165 C   0  0  0  0  0  0  0  0  0  0  0  0
   17.6902  -11.1202  -15.1736 N   0  0  0  0  0  0  0  0  0  0  0  0
   18.6446  -12.0510  -15.0339 C   0  0  0  0  0  0  0  0  0  0  0  0
   19.6385  -11.7701  -15.8803 N   0  0  0  0  0  0  0  0  0  0  0  0
   20.0196   -7.6502  -17.5686 C   0  0  0  0  0  0  0  0  0  0  0  0
   21.2087   -7.2482  -17.2743 O   0  0  0  0  0  0  0  0  0  0  0  0
   18.9838   -6.8814  -17.1166 N   0  0  0  0  0  0  0  0  0  0  0  0
   19.2597   -5.5878  -16.3455 C   0  0  1  0  0  0  0  0  0  0  0  0
   17.9552   -4.8889  -16.4765 C   0  0  0  0  0  0  0  0  0  0  0  0
   17.5986   -3.7127  -15.6963 C   0  0  0  0  0  0  0  0  0  0  0  0
   16.2720   -3.0596  -15.8412 C   0  0  0  0  0  0  0  0  0  0  0  0
   16.3522   -1.8018  -14.9133 C   0  0  0  0  0  0  0  0  0  0  0  0
   15.0737   -1.1421  -15.0819 N   0  0  0  0  0  0  0  0  0  0  0  0
   19.6054   -6.1162  -15.0219 C   0  0  0  0  0  0  0  0  0  0  0  0
   19.1634   -7.3212  -14.5605 O   0  0  0  0  0  0  0  0  0  0  0  0
   20.3359   -5.4548  -14.2464 O   0  0  0  0  0  0  0  0  0  0  0  0
  2  1  1  6
  2  3  1  0
  3  4  1  0
  4  5  1  0
  5  9  1  0
  6  5  2  0
  7  2  1  0
  7  8  2  0
 10  7  1  0
 11 10  1  0
 12 13  1  0
 11 12  1  1
 13 14  2  0
 14 15  1  0
 16 15  1  0
 17 13  1  0
 17 16  2  0
 18 11  1  0
 19 18  2  0
 20 18  1  0
 21 20  1  0
 21 22  1  1
 22 23  1  0
 24 25  1  0
 24 23  1  0
 25 26  1  0
 27 21  1  0
 28 27  1  0
 29 27  2  0
M  END
$$$$
