KTC.pdb
     RDKit          3D

 23 22  0  0  1  0  0  0  0  0999 V2000
    7.9494  -14.3919   15.4728 N   0  0  0  0  0  0  0  0  0  0  0  0
    8.3501  -15.3351   16.5467 C   0  0  1  0  0  0  0  0  0  0  0  0
    9.6244  -15.9645   16.0525 C   0  0  0  0  0  0  0  0  0  0  0  0
   10.1689  -15.4499   14.7788 C   0  0  0  0  0  0  0  0  0  0  0  0
   10.2061  -16.4431   13.6512 C   0  0  0  0  0  0  0  0  0  0  0  0
   10.9092  -15.8957   12.4276 C   0  0  0  0  0  0  0  0  0  0  0  0
   10.9377  -16.9206   11.4005 N   0  0  0  0  0  0  0  0  0  0  0  0
    8.6281  -14.4571   17.7409 C   0  0  0  0  0  0  0  0  0  0  0  0
    8.2446  -13.2803   17.6804 O   0  0  0  0  0  0  0  0  0  0  0  0
    6.5318  -14.3889   19.3524 C   0  0  0  0  0  0  0  0  0  0  0  0
    7.3822  -15.0827   20.3973 C   0  0  1  0  0  0  0  0  0  0  0  0
    7.0617  -16.4224   20.3410 O   0  0  0  0  0  0  0  0  0  0  0  0
    8.8284  -14.7811   20.2662 C   0  0  2  0  0  0  0  0  0  0  0  0
    9.2923  -14.9208   18.8972 N   0  0  0  0  0  0  0  0  0  0  0  0
    9.7261  -15.4003   21.2631 C   0  0  0  0  0  0  0  0  0  0  0  0
   10.6025  -16.2562   20.9480 O   0  0  0  0  0  0  0  0  0  0  0  0
    9.6333  -15.0468   22.6231 N   0  0  0  0  0  0  0  0  0  0  0  0
   10.5631  -15.6008   23.6242 C   0  0  1  0  0  0  0  0  0  0  0  0
   10.2568  -14.8725   24.9258 C   0  0  0  0  0  0  0  0  0  0  0  0
    8.4572  -14.7781   25.1058 S   0  0  0  0  0  0  0  0  0  0  0  0
   10.1738  -17.0253   23.8294 C   0  0  0  0  0  0  0  0  0  0  0  0
   10.9725  -17.8876   24.5954 O   0  0  0  0  0  0  0  0  0  0  0  0
    9.1370  -17.5106   23.3383 O   0  0  0  0  0  0  0  0  0  0  0  0
  2  8  1  0
  2  1  1  6
  3  2  1  0
  4  3  1  0
  5  6  1  0
  5  4  1  0
  6  7  1  0
  8 14  1  0
  9  8  2  0
 11 10  1  6
 11 13  1  0
 12 11  1  0
 13 14  1  6
 15 13  1  0
 16 15  2  0
 17 15  1  0
 18 17  1  0
 18 21  1  0
 18 19  1  1
 20 19  1  0
 21 22  1  0
 23 21  2  0
M  END
$$$$
