KTC.pdb
     RDKit          3D

 23 22  0  0  1  0  0  0  0  0999 V2000
    4.0704  -19.0612   21.4162 N   0  0  0  0  0  0  0  0  0  0  0  0
    4.1654  -18.9843   22.8956 C   0  0  1  0  0  0  0  0  0  0  0  0
    4.0346  -20.4076   23.3659 C   0  0  0  0  0  0  0  0  0  0  0  0
    3.0859  -21.2666   22.6271 C   0  0  0  0  0  0  0  0  0  0  0  0
    3.7018  -22.4463   21.9284 C   0  0  0  0  0  0  0  0  0  0  0  0
    2.6612  -23.3476   21.2990 C   0  0  0  0  0  0  0  0  0  0  0  0
    3.3299  -24.4579   20.6461 N   0  0  0  0  0  0  0  0  0  0  0  0
    5.5579  -18.4702   23.1618 C   0  0  0  0  0  0  0  0  0  0  0  0
    6.2610  -19.1203   23.9484 O   0  0  0  0  0  0  0  0  0  0  0  0
    8.2130  -17.9581   20.6472 C   0  0  0  0  0  0  0  0  0  0  0  0
    8.1182  -16.6510   21.4080 C   0  0  1  0  0  0  0  0  0  0  0  0
    7.5623  -15.7311   20.5444 O   0  0  0  0  0  0  0  0  0  0  0  0
    7.4219  -16.7837   22.7108 C   0  0  2  0  0  0  0  0  0  0  0  0
    6.0745  -17.3032   22.5581 N   0  0  0  0  0  0  0  0  0  0  0  0
    7.5128  -15.6304   23.6298 C   0  0  0  0  0  0  0  0  0  0  0  0
    6.8255  -14.5805   23.4710 O   0  0  0  0  0  0  0  0  0  0  0  0
    8.3839  -15.6667   24.7356 N   0  0  0  0  0  0  0  0  0  0  0  0
    8.6022  -14.4770   25.5787 C   0  0  1  0  0  0  0  0  0  0  0  0
    7.4113  -14.4126   26.5254 C   0  0  0  0  0  0  0  0  0  0  0  0
    6.2582  -13.1679   25.8926 S   0  0  0  0  0  0  0  0  0  0  0  0
    9.8012  -14.7602   26.4184 C   0  0  0  0  0  0  0  0  0  0  0  0
   10.3725  -13.7602   27.2195 O   0  0  0  0  0  0  0  0  0  0  0  0
   10.3447  -15.8805   26.4484 O   0  0  0  0  0  0  0  0  0  0  0  0
  2  8  1  0
  2  1  1  6
  3  2  1  0
  4  3  1  0
  5  6  1  0
  5  4  1  0
  6  7  1  0
  8 14  1  0
  9  8  2  0
 11 10  1  6
 11 13  1  0
 12 11  1  0
 13 14  1  6
 15 13  1  0
 16 15  2  0
 17 15  1  0
 18 17  1  0
 18 21  1  0
 18 19  1  1
 20 19  1  0
 21 22  1  0
 23 21  2  0
M  END
$$$$
