KTC.pdb
     RDKit          3D

 23 22  0  0  1  0  0  0  0  0999 V2000
    8.0195  -17.4862   16.1100 N   0  0  0  0  0  0  0  0  0  0  0  0
    7.2106  -17.3122   17.3424 C   0  0  1  0  0  0  0  0  0  0  0  0
    6.8400  -18.7089   17.7620 C   0  0  0  0  0  0  0  0  0  0  0  0
    6.9035  -19.7543   16.7195 C   0  0  0  0  0  0  0  0  0  0  0  0
    6.3892  -21.1042   17.1351 C   0  0  0  0  0  0  0  0  0  0  0  0
    6.4222  -22.1049   15.9999 C   0  0  0  0  0  0  0  0  0  0  0  0
    6.0107  -23.4030   16.5017 N   0  0  0  0  0  0  0  0  0  0  0  0
    8.1623  -16.7005   18.3396 C   0  0  0  0  0  0  0  0  0  0  0  0
    9.3704  -16.9277   18.1828 O   0  0  0  0  0  0  0  0  0  0  0  0
    7.6828  -13.0229   19.6650 C   0  0  0  0  0  0  0  0  0  0  0  0
    8.0374  -13.9327   20.8237 C   0  0  1  0  0  0  0  0  0  0  0  0
    6.9157  -14.0111   21.6216 O   0  0  0  0  0  0  0  0  0  0  0  0
    8.5879  -15.2403   20.3911 C   0  0  2  0  0  0  0  0  0  0  0  0
    7.7331  -15.8963   19.4176 N   0  0  0  0  0  0  0  0  0  0  0  0
    9.0710  -16.1402   21.4587 C   0  0  0  0  0  0  0  0  0  0  0  0
    8.4878  -17.2249   21.7473 O   0  0  0  0  0  0  0  0  0  0  0  0
   10.2216  -15.8123   22.2014 N   0  0  0  0  0  0  0  0  0  0  0  0
   10.7032  -16.6799   23.2918 C   0  0  1  0  0  0  0  0  0  0  0  0
   11.2606  -17.9263   22.6176 C   0  0  0  0  0  0  0  0  0  0  0  0
   11.9059  -19.0210   23.9080 S   0  0  0  0  0  0  0  0  0  0  0  0
   11.8602  -15.9791   23.9188 C   0  0  0  0  0  0  0  0  0  0  0  0
   12.4157  -14.8344   23.3280 O   0  0  0  0  0  0  0  0  0  0  0  0
   12.3809  -16.3703   24.9806 O   0  0  0  0  0  0  0  0  0  0  0  0
  2  8  1  0
  2  1  1  6
  3  2  1  0
  4  3  1  0
  5  6  1  0
  5  4  1  0
  6  7  1  0
  8 14  1  0
  9  8  2  0
 11 10  1  6
 11 13  1  0
 12 11  1  0
 13 14  1  1
 15 13  1  0
 16 15  2  0
 17 15  1  0
 18 17  1  0
 18 21  1  0
 18 19  1  6
 20 19  1  0
 21 22  1  0
 23 21  2  0
M  END
$$$$
