KTC.pdb
     RDKit          3D

 23 22  0  0  1  0  0  0  0  0999 V2000
    8.5738  -17.4543   16.2272 N   0  0  0  0  0  0  0  0  0  0  0  0
    7.6316  -17.1397   17.3302 C   0  0  1  0  0  0  0  0  0  0  0  0
    7.1344  -18.4775   17.8072 C   0  0  0  0  0  0  0  0  0  0  0  0
    8.1562  -19.4387   18.2716 C   0  0  0  0  0  0  0  0  0  0  0  0
    7.6461  -20.8208   18.5692 C   0  0  0  0  0  0  0  0  0  0  0  0
    7.6346  -21.1210   20.0527 C   0  0  0  0  0  0  0  0  0  0  0  0
    7.1574  -22.4762   20.2574 N   0  0  0  0  0  0  0  0  0  0  0  0
    8.4872  -16.4908   18.3890 C   0  0  0  0  0  0  0  0  0  0  0  0
    9.7117  -16.6656   18.3135 O   0  0  0  0  0  0  0  0  0  0  0  0
    7.7985  -12.8405   19.7403 C   0  0  0  0  0  0  0  0  0  0  0  0
    8.0843  -13.7703   20.9022 C   0  0  1  0  0  0  0  0  0  0  0  0
    6.9035  -13.9025   21.6016 O   0  0  0  0  0  0  0  0  0  0  0  0
    8.7091  -15.0493   20.4854 C   0  0  2  0  0  0  0  0  0  0  0  0
    7.9526  -15.7088   19.4358 N   0  0  0  0  0  0  0  0  0  0  0  0
    9.1396  -15.9585   21.5676 C   0  0  0  0  0  0  0  0  0  0  0  0
    8.4998  -17.0076   21.8671 O   0  0  0  0  0  0  0  0  0  0  0  0
   10.3019  -15.6803   22.3125 N   0  0  0  0  0  0  0  0  0  0  0  0
   10.7482  -16.5723   23.3982 C   0  0  1  0  0  0  0  0  0  0  0  0
   11.1994  -17.8595   22.7213 C   0  0  0  0  0  0  0  0  0  0  0  0
   11.8801  -18.9537   23.9937 S   0  0  0  0  0  0  0  0  0  0  0  0
   11.9670  -15.9508   23.9906 C   0  0  0  0  0  0  0  0  0  0  0  0
   12.4269  -16.3332   25.2597 O   0  0  0  0  0  0  0  0  0  0  0  0
   12.6252  -15.0758   23.3967 O   0  0  0  0  0  0  0  0  0  0  0  0
  2  8  1  0
  2  1  1  6
  3  2  1  0
  4  3  1  0
  5  6  1  0
  5  4  1  0
  6  7  1  0
  8 14  1  0
  9  8  2  0
 11 10  1  6
 11 13  1  0
 12 11  1  0
 13 14  1  6
 15 13  1  0
 16 15  2  0
 17 15  1  0
 18 17  1  0
 18 21  1  0
 18 19  1  6
 20 19  1  0
 21 22  1  0
 23 21  2  0
M  END
$$$$
