KTC.pdb
     RDKit          3D

 23 22  0  0  1  0  0  0  0  0999 V2000
    7.2422  -16.6621   19.9220 N   0  0  0  0  0  0  0  0  0  0  0  0
    8.1710  -15.6782   20.5324 C   0  0  1  0  0  0  0  0  0  0  0  0
    7.3707  -14.4089   20.6445 C   0  0  0  0  0  0  0  0  0  0  0  0
    7.1675  -13.6398   19.3991 C   0  0  0  0  0  0  0  0  0  0  0  0
    8.1551  -13.9253   18.3026 C   0  0  0  0  0  0  0  0  0  0  0  0
    7.9359  -13.0462   17.0900 C   0  0  0  0  0  0  0  0  0  0  0  0
    8.9410  -13.3593   16.0910 N   0  0  0  0  0  0  0  0  0  0  0  0
    8.4676  -16.2334   21.9028 C   0  0  0  0  0  0  0  0  0  0  0  0
    7.5112  -16.6788   22.5528 O   0  0  0  0  0  0  0  0  0  0  0  0
   10.9601  -18.8686   22.6569 C   0  0  0  0  0  0  0  0  0  0  0  0
   11.2234  -17.7814   23.6791 C   0  0  1  0  0  0  0  0  0  0  0  0
   12.4663  -17.2598   23.3892 O   0  0  0  0  0  0  0  0  0  0  0  0
   10.1310  -16.7816   23.7616 C   0  0  2  0  0  0  0  0  0  0  0  0
    9.7667  -16.2634   22.4548 N   0  0  0  0  0  0  0  0  0  0  0  0
   10.2675  -15.7368   24.7973 C   0  0  0  0  0  0  0  0  0  0  0  0
   10.3470  -14.5067   24.5139 O   0  0  0  0  0  0  0  0  0  0  0  0
   10.3113  -16.0859   26.1609 N   0  0  0  0  0  0  0  0  0  0  0  0
   10.4807  -15.0629   27.2089 C   0  0  1  0  0  0  0  0  0  0  0  0
    9.2034  -14.2340   27.1928 C   0  0  0  0  0  0  0  0  0  0  0  0
    9.2301  -13.1342   28.6313 S   0  0  0  0  0  0  0  0  0  0  0  0
   10.5056  -15.7846   28.5133 C   0  0  0  0  0  0  0  0  0  0  0  0
   11.0581  -15.1882   29.6566 O   0  0  0  0  0  0  0  0  0  0  0  0
   10.0443  -16.9338   28.6483 O   0  0  0  0  0  0  0  0  0  0  0  0
  2  8  1  0
  2  1  1  6
  3  2  1  0
  4  3  1  0
  5  6  1  0
  5  4  1  0
  6  7  1  0
  8 14  1  0
  9  8  2  0
 11 10  1  6
 11 13  1  0
 12 11  1  0
 13 14  1  6
 15 13  1  0
 16 15  2  0
 17 15  1  0
 18 17  1  0
 18 21  1  0
 18 19  1  1
 20 19  1  0
 21 22  1  0
 23 21  2  0
M  END
$$$$
