KTC.pdb
     RDKit          3D

 23 22  0  0  1  0  0  0  0  0999 V2000
    8.9151  -18.5421   20.1983 N   0  0  0  0  0  0  0  0  0  0  0  0
    8.3214  -18.1319   21.4954 C   0  0  1  0  0  0  0  0  0  0  0  0
    9.0042  -18.9936   22.5228 C   0  0  0  0  0  0  0  0  0  0  0  0
   10.2885  -19.6079   22.1266 C   0  0  0  0  0  0  0  0  0  0  0  0
   10.9105  -20.5100   23.1554 C   0  0  0  0  0  0  0  0  0  0  0  0
   12.2929  -20.9749   22.7501 C   0  0  0  0  0  0  0  0  0  0  0  0
   12.8175  -21.8526   23.7799 N   0  0  0  0  0  0  0  0  0  0  0  0
    8.7320  -16.6907   21.6638 C   0  0  0  0  0  0  0  0  0  0  0  0
    9.8563  -16.3702   21.2528 O   0  0  0  0  0  0  0  0  0  0  0  0
    7.4907  -13.8106   19.9544 C   0  0  0  0  0  0  0  0  0  0  0  0
    7.2550  -13.5239   21.4236 C   0  0  1  0  0  0  0  0  0  0  0  0
    5.9088  -13.7154   21.6520 O   0  0  0  0  0  0  0  0  0  0  0  0
    8.1550  -14.2907   22.3191 C   0  0  2  0  0  0  0  0  0  0  0  0
    7.8978  -15.7186   22.2574 N   0  0  0  0  0  0  0  0  0  0  0  0
    8.3154  -13.7753   23.6944 C   0  0  0  0  0  0  0  0  0  0  0  0
    8.7000  -12.5948   23.9361 O   0  0  0  0  0  0  0  0  0  0  0  0
    8.0366  -14.5994   24.8018 N   0  0  0  0  0  0  0  0  0  0  0  0
    8.2658  -14.1328   26.1814 C   0  0  1  0  0  0  0  0  0  0  0  0
    6.8847  -13.8804   26.7711 C   0  0  0  0  0  0  0  0  0  0  0  0
    6.3132  -12.2635   26.1891 S   0  0  0  0  0  0  0  0  0  0  0  0
    8.8477  -15.2820   26.9321 C   0  0  0  0  0  0  0  0  0  0  0  0
    9.1436  -15.1743   28.2992 O   0  0  0  0  0  0  0  0  0  0  0  0
    9.0953  -16.3758   26.3899 O   0  0  0  0  0  0  0  0  0  0  0  0
  2  8  1  0
  2  1  1  6
  3  2  1  0
  4  3  1  0
  5  6  1  0
  5  4  1  0
  6  7  1  0
  8 14  1  0
  9  8  2  0
 11 10  1  6
 11 13  1  0
 12 11  1  0
 13 14  1  1
 15 13  1  0
 16 15  2  0
 17 15  1  0
 18 17  1  0
 18 21  1  0
 18 19  1  1
 20 19  1  0
 21 22  1  0
 23 21  2  0
M  END
$$$$
