KTC.pdb
     RDKit          3D

 23 22  0  0  1  0  0  0  0  0999 V2000
   10.7871  -19.8978   16.1417 N   0  0  0  0  0  0  0  0  0  0  0  0
   11.3628  -20.4667   17.3860 C   0  0  1  0  0  0  0  0  0  0  0  0
   12.8243  -20.6584   17.0834 C   0  0  0  0  0  0  0  0  0  0  0  0
   13.6536  -21.2434   18.1574 C   0  0  0  0  0  0  0  0  0  0  0  0
   15.0888  -21.4984   17.7905 C   0  0  0  0  0  0  0  0  0  0  0  0
   15.8606  -22.1544   18.9153 C   0  0  0  0  0  0  0  0  0  0  0  0
   17.2250  -22.3877   18.4794 N   0  0  0  0  0  0  0  0  0  0  0  0
   11.1794  -19.3846   18.4203 C   0  0  0  0  0  0  0  0  0  0  0  0
   11.4626  -18.2259   18.0843 O   0  0  0  0  0  0  0  0  0  0  0  0
    8.3311  -17.9593   19.8366 C   0  0  0  0  0  0  0  0  0  0  0  0
    9.1082  -18.3861   21.0656 C   0  0  1  0  0  0  0  0  0  0  0  0
    8.4137  -19.4368   21.6265 O   0  0  0  0  0  0  0  0  0  0  0  0
   10.5380  -18.6625   20.7845 C   0  0  2  0  0  0  0  0  0  0  0  0
   10.7058  -19.6416   19.7252 N   0  0  0  0  0  0  0  0  0  0  0  0
   11.4083  -18.8992   21.9548 C   0  0  0  0  0  0  0  0  0  0  0  0
   11.8534  -20.0462   22.2485 O   0  0  0  0  0  0  0  0  0  0  0  0
   11.7790  -17.8319   22.7953 N   0  0  0  0  0  0  0  0  0  0  0  0
   12.6106  -18.0523   23.9925 C   0  0  1  0  0  0  0  0  0  0  0  0
   13.0852  -16.6732   24.4302 C   0  0  0  0  0  0  0  0  0  0  0  0
   14.2127  -16.0394   23.1627 S   0  0  0  0  0  0  0  0  0  0  0  0
   11.6994  -18.5504   25.0623 C   0  0  0  0  0  0  0  0  0  0  0  0
   12.2063  -18.9849   26.2962 O   0  0  0  0  0  0  0  0  0  0  0  0
   10.4638  -18.6039   24.9142 O   0  0  0  0  0  0  0  0  0  0  0  0
  2  8  1  0
  2  1  1  6
  3  2  1  0
  4  3  1  0
  5  6  1  0
  5  4  1  0
  6  7  1  0
  8 14  1  0
  9  8  2  0
 11 10  1  6
 11 13  1  0
 12 11  1  0
 13 14  1  6
 15 13  1  0
 16 15  2  0
 17 15  1  0
 18 17  1  0
 18 21  1  0
 18 19  1  1
 20 19  1  0
 21 22  1  0
 23 21  2  0
M  END
$$$$
