KTC.pdb
     RDKit          3D

 23 22  0  0  1  0  0  0  0  0999 V2000
    7.2782  -16.3630   19.9300 N   0  0  0  0  0  0  0  0  0  0  0  0
    7.9677  -15.3651   20.7856 C   0  0  1  0  0  0  0  0  0  0  0  0
    7.2116  -14.0822   20.5692 C   0  0  0  0  0  0  0  0  0  0  0  0
    7.7166  -13.1845   19.5095 C   0  0  0  0  0  0  0  0  0  0  0  0
    7.6519  -13.7413   18.1148 C   0  0  0  0  0  0  0  0  0  0  0  0
    8.2568  -12.8020   17.0935 C   0  0  0  0  0  0  0  0  0  0  0  0
    8.3520  -13.4880   15.8182 N   0  0  0  0  0  0  0  0  0  0  0  0
    7.7619  -15.8634   22.1940 C   0  0  0  0  0  0  0  0  0  0  0  0
    6.8470  -16.6787   22.3784 O   0  0  0  0  0  0  0  0  0  0  0  0
    8.0565  -18.2363   23.2370 C   0  0  0  0  0  0  0  0  0  0  0  0
    9.0886  -17.6447   24.1757 C   0  0  1  0  0  0  0  0  0  0  0  0
   10.3238  -17.9227   23.6300 O   0  0  0  0  0  0  0  0  0  0  0  0
    8.8484  -16.2128   24.4786 C   0  0  2  0  0  0  0  0  0  0  0  0
    8.5583  -15.4437   23.2815 N   0  0  0  0  0  0  0  0  0  0  0  0
    9.8135  -15.5577   25.3855 C   0  0  0  0  0  0  0  0  0  0  0  0
   10.9380  -15.1354   24.9893 O   0  0  0  0  0  0  0  0  0  0  0  0
    9.5031  -15.3773   26.7472 N   0  0  0  0  0  0  0  0  0  0  0  0
   10.4177  -14.6586   27.6531 C   0  0  1  0  0  0  0  0  0  0  0  0
    9.5810  -13.5714   28.3138 C   0  0  0  0  0  0  0  0  0  0  0  0
    8.9082  -12.5107   27.0093 S   0  0  0  0  0  0  0  0  0  0  0  0
   10.7983  -15.6183   28.7288 C   0  0  0  0  0  0  0  0  0  0  0  0
   11.7042  -15.2509   29.7350 O   0  0  0  0  0  0  0  0  0  0  0  0
   10.3374  -16.7741   28.7848 O   0  0  0  0  0  0  0  0  0  0  0  0
  2  8  1  0
  2  1  1  6
  3  2  1  0
  4  3  1  0
  5  6  1  0
  5  4  1  0
  6  7  1  0
  8 14  1  0
  9  8  2  0
 11 10  1  6
 11 13  1  0
 12 11  1  0
 13 14  1  6
 15 13  1  0
 16 15  2  0
 17 15  1  0
 18 17  1  0
 18 21  1  0
 18 19  1  1
 20 19  1  0
 21 22  1  0
 23 21  2  0
M  END
$$$$
