KTC.pdb
     RDKit          3D

 23 22  0  0  1  0  0  0  0  0999 V2000
    8.6097  -16.0581   19.6583 N   0  0  0  0  0  0  0  0  0  0  0  0
    8.7931  -14.7913   20.4099 C   0  0  1  0  0  0  0  0  0  0  0  0
    7.7778  -13.8458   19.8274 C   0  0  0  0  0  0  0  0  0  0  0  0
    8.1241  -13.2111   18.5386 C   0  0  0  0  0  0  0  0  0  0  0  0
    7.8683  -14.0545   17.3210 C   0  0  0  0  0  0  0  0  0  0  0  0
    8.3714  -13.3986   16.0529 C   0  0  0  0  0  0  0  0  0  0  0  0
    8.0056  -14.2238   14.9165 N   0  0  0  0  0  0  0  0  0  0  0  0
    8.4319  -15.1366   21.8327 C   0  0  0  0  0  0  0  0  0  0  0  0
    7.3146  -14.7827   22.2354 O   0  0  0  0  0  0  0  0  0  0  0  0
    7.7755  -18.2030   23.3227 C   0  0  0  0  0  0  0  0  0  0  0  0
    8.8209  -17.6364   24.2621 C   0  0  1  0  0  0  0  0  0  0  0  0
    9.9499  -18.4131   24.1107 O   0  0  0  0  0  0  0  0  0  0  0  0
    9.0370  -16.1800   24.0838 C   0  0  2  0  0  0  0  0  0  0  0  0
    9.3021  -15.8339   22.6986 N   0  0  0  0  0  0  0  0  0  0  0  0
    9.9484  -15.5242   25.0442 C   0  0  0  0  0  0  0  0  0  0  0  0
   11.1877  -15.3969   24.8252 O   0  0  0  0  0  0  0  0  0  0  0  0
    9.4542  -15.0074   26.2574 N   0  0  0  0  0  0  0  0  0  0  0  0
   10.3636  -14.5087   27.3051 C   0  0  1  0  0  0  0  0  0  0  0  0
    9.7478  -13.2101   27.8083 C   0  0  0  0  0  0  0  0  0  0  0  0
    7.9475  -13.3548   27.6760 S   0  0  0  0  0  0  0  0  0  0  0  0
   10.2928  -15.4809   28.4333 C   0  0  0  0  0  0  0  0  0  0  0  0
    9.4963  -16.6323   28.3436 O   0  0  0  0  0  0  0  0  0  0  0  0
   10.9275  -15.3200   29.4929 O   0  0  0  0  0  0  0  0  0  0  0  0
  2  8  1  0
  2  1  1  6
  3  2  1  0
  4  3  1  0
  5  6  1  0
  5  4  1  0
  6  7  1  0
  8 14  1  0
  9  8  2  0
 11 10  1  6
 11 13  1  0
 12 11  1  0
 13 14  1  6
 15 13  1  0
 16 15  2  0
 17 15  1  0
 18 17  1  0
 18 21  1  0
 18 19  1  1
 20 19  1  0
 21 22  1  0
 23 21  2  0
M  END
$$$$
