EGL.pdb
     RDKit          3D

 22 21  0  0  1  0  0  0  0  0999 V2000
    6.2778  -19.1014   22.3262 N   0  0  0  0  0  0  0  0  0  0  0  0
    6.7506  -18.7046   20.9983 C   0  0  1  0  0  0  0  0  0  0  0  0
    5.5228  -18.5825   20.1346 C   0  0  0  0  0  0  0  0  0  0  0  0
    4.7475  -19.8325   19.9423 C   0  0  0  0  0  0  0  0  0  0  0  0
    3.6054  -19.6748   19.0539 C   0  0  0  0  0  0  0  0  0  0  0  0
    3.7327  -19.2863   17.8727 O   0  0  0  0  0  0  0  0  0  0  0  0
    7.3614  -17.3453   21.0449 C   0  0  0  0  0  0  0  0  0  0  0  0
    7.5648  -16.7506   19.9555 O   0  0  0  0  0  0  0  0  0  0  0  0
    2.2830  -19.9459   19.4557 O   0  0  0  0  0  0  0  0  0  0  0  0
    7.7220  -16.6930   22.2415 N   0  0  0  0  0  0  0  0  0  0  0  0
    8.6911  -15.6261   22.1884 C   0  0  0  0  0  0  0  0  0  0  0  0
    9.0144  -15.0863   23.5292 C   0  0  0  0  0  0  0  0  0  0  0  0
    9.9512  -14.2428   23.6519 O   0  0  0  0  0  0  0  0  0  0  0  0
    5.9688  -12.2199   26.5037 C   0  0  0  0  0  0  0  0  0  0  0  0
    7.2756  -12.8192   25.8961 C   0  0  1  0  0  0  0  0  0  0  0  0
    8.3618  -11.7870   26.1516 C   0  0  0  0  0  0  0  0  0  0  0  0
    7.5740  -14.1044   26.5449 C   0  0  0  0  0  0  0  0  0  0  0  0
    8.7208  -14.8731   26.0517 C   0  0  2  0  0  0  0  0  0  0  0  0
    8.3439  -15.4473   24.7085 N   0  0  0  0  0  0  0  0  0  0  0  0
    9.2487  -16.0151   26.7658 C   0  0  0  0  0  0  0  0  0  0  0  0
   10.0805  -15.8826   27.8578 O   0  0  0  0  0  0  0  0  0  0  0  0
    8.9999  -17.2333   26.4417 O   0  0  0  0  0  0  0  0  0  0  0  0
  2  1  1  1
  2  3  1  0
  3  4  1  0
  5  4  1  0
  5  6  2  0
  7  2  1  0
  7  8  2  0
  9  5  1  0
 10  7  1  0
 11 10  1  0
 11 12  1  0
 12 19  1  0
 13 12  2  0
 15 14  1  1
 15 16  1  0
 17 15  1  0
 18 17  1  1
 19 18  1  0
 20 18  1  0
 20 21  1  0
 22 20  2  0
M  END
$$$$
