EGL.pdb
     RDKit          3D

 22 21  0  0  1  0  0  0  0  0999 V2000
    9.9541  -18.8878   20.3753 N   0  0  0  0  0  0  0  0  0  0  0  0
    9.8685  -17.4649   20.0399 C   0  0  1  0  0  0  0  0  0  0  0  0
    9.1976  -17.3905   18.6935 C   0  0  0  0  0  0  0  0  0  0  0  0
    9.2119  -18.6439   17.9002 C   0  0  0  0  0  0  0  0  0  0  0  0
   10.0704  -18.5769   16.7267 C   0  0  0  0  0  0  0  0  0  0  0  0
   10.7779  -17.5765   16.4790 O   0  0  0  0  0  0  0  0  0  0  0  0
    8.9664  -16.7562   20.9922 C   0  0  0  0  0  0  0  0  0  0  0  0
    8.7864  -15.5221   20.8293 O   0  0  0  0  0  0  0  0  0  0  0  0
   10.1672  -19.6251   15.7911 O   0  0  0  0  0  0  0  0  0  0  0  0
    8.3063  -17.3937   22.0623 N   0  0  0  0  0  0  0  0  0  0  0  0
    7.4807  -16.6028   22.9417 C   0  0  0  0  0  0  0  0  0  0  0  0
    8.2574  -15.9716   24.0335 C   0  0  0  0  0  0  0  0  0  0  0  0
    9.5214  -16.0512   24.0254 O   0  0  0  0  0  0  0  0  0  0  0  0
    5.7493  -11.9800   26.7386 C   0  0  0  0  0  0  0  0  0  0  0  0
    6.7544  -12.7926   25.8636 C   0  0  1  0  0  0  0  0  0  0  0  0
    7.4547  -11.7714   24.9820 C   0  0  0  0  0  0  0  0  0  0  0  0
    7.6986  -13.5064   26.7358 C   0  0  0  0  0  0  0  0  0  0  0  0
    8.5254  -14.5589   26.1375 C   0  0  2  0  0  0  0  0  0  0  0  0
    7.6849  -15.2718   25.1074 N   0  0  0  0  0  0  0  0  0  0  0  0
    9.0822  -15.6408   26.9199 C   0  0  0  0  0  0  0  0  0  0  0  0
   10.1750  -15.4697   27.7435 O   0  0  0  0  0  0  0  0  0  0  0  0
    8.6192  -16.8394   26.9062 O   0  0  0  0  0  0  0  0  0  0  0  0
  2  1  1  1
  2  3  1  0
  3  4  1  0
  5  4  1  0
  5  6  2  0
  7  2  1  0
  7  8  2  0
  9  5  1  0
 10  7  1  0
 11 10  1  0
 11 12  1  0
 12 19  1  0
 13 12  2  0
 15 14  1  1
 15 16  1  0
 17 15  1  0
 18 17  1  1
 19 18  1  0
 20 18  1  0
 20 21  1  0
 22 20  2  0
M  END
$$$$
