EGL.pdb
     RDKit          3D

 22 21  0  0  1  0  0  0  0  0999 V2000
    9.5512  -17.4267   19.1935 N   0  0  0  0  0  0  0  0  0  0  0  0
    9.4874  -18.5210   20.1645 C   0  0  1  0  0  0  0  0  0  0  0  0
   10.8928  -18.7169   20.6693 C   0  0  0  0  0  0  0  0  0  0  0  0
   11.9149  -18.9908   19.6297 C   0  0  0  0  0  0  0  0  0  0  0  0
   13.2629  -18.6147   20.0295 C   0  0  0  0  0  0  0  0  0  0  0  0
   13.5130  -18.1485   21.1620 O   0  0  0  0  0  0  0  0  0  0  0  0
    8.6734  -18.1230   21.3486 C   0  0  0  0  0  0  0  0  0  0  0  0
    8.4777  -18.9811   22.2471 O   0  0  0  0  0  0  0  0  0  0  0  0
   14.3765  -18.7469   19.1774 O   0  0  0  0  0  0  0  0  0  0  0  0
    8.1131  -16.8401   21.5142 N   0  0  0  0  0  0  0  0  0  0  0  0
    7.3176  -16.5737   22.6875 C   0  0  0  0  0  0  0  0  0  0  0  0
    8.0763  -15.8527   23.7355 C   0  0  0  0  0  0  0  0  0  0  0  0
    9.3024  -15.5947   23.5506 O   0  0  0  0  0  0  0  0  0  0  0  0
    6.7458  -12.3295   24.6469 C   0  0  0  0  0  0  0  0  0  0  0  0
    7.2609  -12.3142   26.1203 C   0  0  1  0  0  0  0  0  0  0  0  0
    6.2397  -11.5089   26.9070 C   0  0  0  0  0  0  0  0  0  0  0  0
    7.3732  -13.6941   26.6151 C   0  0  0  0  0  0  0  0  0  0  0  0
    8.3131  -14.5925   25.9378 C   0  0  2  0  0  0  0  0  0  0  0  0
    7.5261  -15.4207   24.9526 N   0  0  0  0  0  0  0  0  0  0  0  0
    9.0910  -15.5787   26.6555 C   0  0  0  0  0  0  0  0  0  0  0  0
    8.6536  -16.8739   26.8374 O   0  0  0  0  0  0  0  0  0  0  0  0
   10.2349  -15.3327   27.1865 O   0  0  0  0  0  0  0  0  0  0  0  0
  2  1  1  6
  2  3  1  0
  3  4  1  0
  5  4  1  0
  5  6  2  0
  7  2  1  0
  7  8  2  0
  9  5  1  0
 10  7  1  0
 11 10  1  0
 11 12  1  0
 12 19  1  0
 13 12  2  0
 15 14  1  6
 15 16  1  0
 17 15  1  0
 18 17  1  1
 19 18  1  0
 20 18  1  0
 20 21  1  0
 22 20  2  0
M  END
$$$$
