EGL.pdb
     RDKit          3D

 22 21  0  0  1  0  0  0  0  0999 V2000
    6.5482  -18.6512   19.7693 N   0  0  0  0  0  0  0  0  0  0  0  0
    7.4370  -18.8101   20.9223 C   0  0  1  0  0  0  0  0  0  0  0  0
    8.7759  -18.2660   20.4984 C   0  0  0  0  0  0  0  0  0  0  0  0
    9.7619  -19.2751   20.0400 C   0  0  0  0  0  0  0  0  0  0  0  0
   11.0303  -18.6970   19.6212 C   0  0  0  0  0  0  0  0  0  0  0  0
   11.2058  -17.4612   19.5541 O   0  0  0  0  0  0  0  0  0  0  0  0
    6.9819  -17.9546   22.0555 C   0  0  0  0  0  0  0  0  0  0  0  0
    6.5116  -16.8193   21.7877 O   0  0  0  0  0  0  0  0  0  0  0  0
   12.1447  -19.4802   19.2633 O   0  0  0  0  0  0  0  0  0  0  0  0
    7.0504  -18.3494   23.4070 N   0  0  0  0  0  0  0  0  0  0  0  0
    6.5193  -17.4681   24.4178 C   0  0  0  0  0  0  0  0  0  0  0  0
    7.5294  -16.5091   24.9216 C   0  0  0  0  0  0  0  0  0  0  0  0
    8.7265  -16.5954   24.5171 O   0  0  0  0  0  0  0  0  0  0  0  0
    5.8035  -11.6097   26.6394 C   0  0  0  0  0  0  0  0  0  0  0  0
    6.5855  -12.7142   25.8616 C   0  0  1  0  0  0  0  0  0  0  0  0
    7.1772  -12.0224   24.6444 C   0  0  0  0  0  0  0  0  0  0  0  0
    7.6255  -13.2835   26.7310 C   0  0  0  0  0  0  0  0  0  0  0  0
    8.3105  -14.4980   26.2781 C   0  0  2  0  0  0  0  0  0  0  0  0
    7.2550  -15.4824   25.8389 N   0  0  0  0  0  0  0  0  0  0  0  0
    9.1523  -15.2817   27.1556 C   0  0  0  0  0  0  0  0  0  0  0  0
   10.4456  -14.9127   27.4610 O   0  0  0  0  0  0  0  0  0  0  0  0
    8.7760  -16.3785   27.7090 O   0  0  0  0  0  0  0  0  0  0  0  0
  2  1  1  6
  2  3  1  0
  3  4  1  0
  5  4  1  0
  5  6  2  0
  7  2  1  0
  7  8  2  0
  9  5  1  0
 10  7  1  0
 11 10  1  0
 11 12  1  0
 12 19  1  0
 13 12  2  0
 15 14  1  1
 15 16  1  0
 17 15  1  0
 18 17  1  1
 19 18  1  0
 20 18  1  0
 20 21  1  0
 22 20  2  0
M  END
$$$$
