EGL.pdb
     RDKit          3D

 22 21  0  0  1  0  0  0  0  0999 V2000
    9.6237  -16.0860   17.8657 N   0  0  0  0  0  0  0  0  0  0  0  0
   10.2302  -16.2272   19.1910 C   0  0  1  0  0  0  0  0  0  0  0  0
   11.3321  -15.2027   19.2599 C   0  0  0  0  0  0  0  0  0  0  0  0
   12.6510  -15.6441   18.7441 C   0  0  0  0  0  0  0  0  0  0  0  0
   13.7177  -14.6833   18.9835 C   0  0  0  0  0  0  0  0  0  0  0  0
   13.7079  -13.5413   18.4754 O   0  0  0  0  0  0  0  0  0  0  0  0
    9.2537  -15.8579   20.2555 C   0  0  0  0  0  0  0  0  0  0  0  0
    8.4729  -14.8970   20.0341 O   0  0  0  0  0  0  0  0  0  0  0  0
   14.8308  -14.9663   19.7986 O   0  0  0  0  0  0  0  0  0  0  0  0
    9.1592  -16.5263   21.4930 N   0  0  0  0  0  0  0  0  0  0  0  0
    8.1065  -16.1551   22.4065 C   0  0  0  0  0  0  0  0  0  0  0  0
    8.6269  -15.5752   23.6661 C   0  0  0  0  0  0  0  0  0  0  0  0
    9.8763  -15.4320   23.8165 O   0  0  0  0  0  0  0  0  0  0  0  0
    5.6323  -12.0175   26.7089 C   0  0  0  0  0  0  0  0  0  0  0  0
    6.7832  -12.6741   25.8838 C   0  0  1  0  0  0  0  0  0  0  0  0
    7.7922  -11.5665   25.6278 C   0  0  0  0  0  0  0  0  0  0  0  0
    7.3667  -13.7834   26.6522 C   0  0  0  0  0  0  0  0  0  0  0  0
    8.4039  -14.5947   26.0078 C   0  0  2  0  0  0  0  0  0  0  0  0
    7.8197  -15.1601   24.7370 N   0  0  0  0  0  0  0  0  0  0  0  0
    8.9879  -15.7521   26.6497 C   0  0  0  0  0  0  0  0  0  0  0  0
   10.0193  -15.6496   27.5594 O   0  0  0  0  0  0  0  0  0  0  0  0
    8.6081  -16.9584   26.4223 O   0  0  0  0  0  0  0  0  0  0  0  0
  2  1  1  6
  2  3  1  0
  3  4  1  0
  5  4  1  0
  5  6  2  0
  7  2  1  0
  7  8  2  0
  9  5  1  0
 10  7  1  0
 11 10  1  0
 11 12  1  0
 12 19  1  0
 13 12  2  0
 15 14  1  1
 15 16  1  0
 17 15  1  0
 18 17  1  1
 19 18  1  0
 20 18  1  0
 20 21  1  0
 22 20  2  0
M  END
$$$$
