EGL.pdb
     RDKit          3D

 22 21  0  0  1  0  0  0  0  0999 V2000
   11.3347  -19.3877   21.1660 N   0  0  0  0  0  0  0  0  0  0  0  0
   11.6211  -17.9804   20.8797 C   0  0  1  0  0  0  0  0  0  0  0  0
   11.5271  -17.8287   19.3842 C   0  0  0  0  0  0  0  0  0  0  0  0
   12.6571  -18.3981   18.6100 C   0  0  0  0  0  0  0  0  0  0  0  0
   12.4912  -18.2770   17.1690 C   0  0  0  0  0  0  0  0  0  0  0  0
   11.4481  -18.6474   16.5882 O   0  0  0  0  0  0  0  0  0  0  0  0
   10.5601  -17.1035   21.4528 C   0  0  0  0  0  0  0  0  0  0  0  0
   10.6393  -15.8657   21.2439 O   0  0  0  0  0  0  0  0  0  0  0  0
   13.4849  -17.7382   16.3290 O   0  0  0  0  0  0  0  0  0  0  0  0
    9.4762  -17.5863   22.2139 N   0  0  0  0  0  0  0  0  0  0  0  0
    8.4760  -16.6531   22.6714 C   0  0  0  0  0  0  0  0  0  0  0  0
    8.7979  -16.0829   24.0000 C   0  0  0  0  0  0  0  0  0  0  0  0
    9.9556  -16.2500   24.4856 O   0  0  0  0  0  0  0  0  0  0  0  0
    5.6093  -11.9736   26.0896 C   0  0  0  0  0  0  0  0  0  0  0  0
    6.8544  -12.7413   25.5449 C   0  0  1  0  0  0  0  0  0  0  0  0
    7.9481  -11.6972   25.3887 C   0  0  0  0  0  0  0  0  0  0  0  0
    7.2336  -13.7978   26.4944 C   0  0  0  0  0  0  0  0  0  0  0  0
    8.2956  -14.7280   26.0990 C   0  0  2  0  0  0  0  0  0  0  0  0
    7.8934  -15.3507   24.7851 N   0  0  0  0  0  0  0  0  0  0  0  0
    8.6633  -15.8685   26.9095 C   0  0  0  0  0  0  0  0  0  0  0  0
    8.1449  -17.1275   26.6903 O   0  0  0  0  0  0  0  0  0  0  0  0
    9.4845  -15.8046   27.8956 O   0  0  0  0  0  0  0  0  0  0  0  0
  2  1  1  6
  2  3  1  0
  3  4  1  0
  5  4  1  0
  5  6  2  0
  7  2  1  0
  7  8  2  0
  9  5  1  0
 10  7  1  0
 11 10  1  0
 11 12  1  0
 12 19  1  0
 13 12  2  0
 15 14  1  1
 15 16  1  0
 17 15  1  0
 18 17  1  1
 19 18  1  0
 20 18  1  0
 20 21  1  0
 22 20  2  0
M  END
$$$$
