EGL.pdb
     RDKit          3D

 22 21  0  0  1  0  0  0  0  0999 V2000
   11.4715  -17.7763   26.3126 N   0  0  0  0  0  0  0  0  0  0  0  0
   10.8571  -18.7875   25.4497 C   0  0  1  0  0  0  0  0  0  0  0  0
   11.3178  -20.1223   25.9734 C   0  0  0  0  0  0  0  0  0  0  0  0
   12.7855  -20.2825   26.1174 C   0  0  0  0  0  0  0  0  0  0  0  0
   13.1845  -21.6196   26.5313 C   0  0  0  0  0  0  0  0  0  0  0  0
   12.3598  -22.5520   26.6457 O   0  0  0  0  0  0  0  0  0  0  0  0
    9.3738  -18.7726   25.6004 C   0  0  0  0  0  0  0  0  0  0  0  0
    8.6927  -19.4823   24.8167 O   0  0  0  0  0  0  0  0  0  0  0  0
   14.5179  -21.9597   26.8312 O   0  0  0  0  0  0  0  0  0  0  0  0
    8.6963  -18.0079   26.5716 N   0  0  0  0  0  0  0  0  0  0  0  0
    7.2668  -17.8502   26.4611 C   0  0  0  0  0  0  0  0  0  0  0  0
    6.8872  -16.6409   25.6947 C   0  0  0  0  0  0  0  0  0  0  0  0
    5.6616  -16.3692   25.5268 O   0  0  0  0  0  0  0  0  0  0  0  0
    7.9740  -12.1002   27.2457 C   0  0  0  0  0  0  0  0  0  0  0  0
    7.1725  -13.1873   26.4633 C   0  0  1  0  0  0  0  0  0  0  0  0
    5.7375  -12.6886   26.4155 C   0  0  0  0  0  0  0  0  0  0  0  0
    7.7451  -13.3461   25.1184 C   0  0  0  0  0  0  0  0  0  0  0  0
    7.3649  -14.5324   24.3455 C   0  0  2  0  0  0  0  0  0  0  0  0
    7.8067  -15.7470   25.1236 N   0  0  0  0  0  0  0  0  0  0  0  0
    7.8773  -14.7839   23.0162 C   0  0  0  0  0  0  0  0  0  0  0  0
    7.4430  -14.0802   21.9125 O   0  0  0  0  0  0  0  0  0  0  0  0
    8.7604  -15.6791   22.7524 O   0  0  0  0  0  0  0  0  0  0  0  0
  2  1  1  1
  2  3  1  0
  3  4  1  0
  5  4  1  0
  5  6  2  0
  7  2  1  0
  7  8  2  0
  9  5  1  0
 10  7  1  0
 11 10  1  0
 11 12  1  0
 12 19  1  0
 13 12  2  0
 15 14  1  1
 15 16  1  0
 17 15  1  0
 18 17  1  1
 19 18  1  0
 20 18  1  0
 20 21  1  0
 22 20  2  0
M  END
$$$$
