EGL.pdb
     RDKit          3D

 22 21  0  0  1  0  0  0  0  0999 V2000
    8.1450  -19.3807   19.5885 N   0  0  0  0  0  0  0  0  0  0  0  0
    8.6619  -18.0120   19.6508 C   0  0  1  0  0  0  0  0  0  0  0  0
    8.3974  -17.4014   18.2997 C   0  0  0  0  0  0  0  0  0  0  0  0
    9.1225  -18.0206   17.1634 C   0  0  0  0  0  0  0  0  0  0  0  0
   10.5694  -18.0011   17.3199 C   0  0  0  0  0  0  0  0  0  0  0  0
   11.1249  -17.4223   18.2786 O   0  0  0  0  0  0  0  0  0  0  0  0
    7.8828  -17.2026   20.6311 C   0  0  0  0  0  0  0  0  0  0  0  0
    7.1808  -16.2562   20.1913 O   0  0  0  0  0  0  0  0  0  0  0  0
   11.4439  -18.6273   16.4107 O   0  0  0  0  0  0  0  0  0  0  0  0
    7.8911  -17.4408   22.0205 N   0  0  0  0  0  0  0  0  0  0  0  0
    7.0979  -16.5938   22.8771 C   0  0  0  0  0  0  0  0  0  0  0  0
    7.9236  -15.8266   23.8381 C   0  0  0  0  0  0  0  0  0  0  0  0
    9.1818  -15.7992   23.6952 O   0  0  0  0  0  0  0  0  0  0  0  0
    5.7523  -11.3983   26.3317 C   0  0  0  0  0  0  0  0  0  0  0  0
    6.6543  -12.3600   25.4964 C   0  0  1  0  0  0  0  0  0  0  0  0
    7.5463  -11.4627   24.6540 C   0  0  0  0  0  0  0  0  0  0  0  0
    7.4335  -13.2143   26.4046 C   0  0  0  0  0  0  0  0  0  0  0  0
    8.2796  -14.2547   25.8121 C   0  0  2  0  0  0  0  0  0  0  0  0
    7.4051  -15.1069   24.9261 N   0  0  0  0  0  0  0  0  0  0  0  0
    8.9851  -15.2270   26.6181 C   0  0  0  0  0  0  0  0  0  0  0  0
    8.5719  -16.5386   26.7222 O   0  0  0  0  0  0  0  0  0  0  0  0
   10.0360  -14.9529   27.3047 O   0  0  0  0  0  0  0  0  0  0  0  0
  2  1  1  6
  2  3  1  0
  3  4  1  0
  5  4  1  0
  5  6  2  0
  7  2  1  0
  7  8  2  0
  9  5  1  0
 10  7  1  0
 11 10  1  0
 11 12  1  0
 12 19  1  0
 13 12  2  0
 15 14  1  1
 15 16  1  0
 17 15  1  0
 18 17  1  1
 19 18  1  0
 20 18  1  0
 20 21  1  0
 22 20  2  0
M  END
$$$$
