EGL.pdb
     RDKit          3D

 22 21  0  0  1  0  0  0  0  0999 V2000
    5.5999  -19.0316   24.0031 N   0  0  0  0  0  0  0  0  0  0  0  0
    6.0071  -19.3941   22.6440 C   0  0  1  0  0  0  0  0  0  0  0  0
    4.7388  -19.7120   21.8964 C   0  0  0  0  0  0  0  0  0  0  0  0
    4.7521  -20.9759   21.1200 C   0  0  0  0  0  0  0  0  0  0  0  0
    3.6198  -21.8441   21.4074 C   0  0  0  0  0  0  0  0  0  0  0  0
    3.6119  -22.6216   22.3862 O   0  0  0  0  0  0  0  0  0  0  0  0
    6.6149  -18.2228   21.9499 C   0  0  0  0  0  0  0  0  0  0  0  0
    7.1367  -18.4098   20.8209 O   0  0  0  0  0  0  0  0  0  0  0  0
    2.4586  -21.8727   20.6109 O   0  0  0  0  0  0  0  0  0  0  0  0
    6.6356  -16.9209   22.4900 N   0  0  0  0  0  0  0  0  0  0  0  0
    7.5452  -15.9500   21.9326 C   0  0  0  0  0  0  0  0  0  0  0  0
    8.3753  -15.2910   22.9672 C   0  0  0  0  0  0  0  0  0  0  0  0
    9.2737  -14.4705   22.6154 O   0  0  0  0  0  0  0  0  0  0  0  0
    7.4302  -12.4253   27.5584 C   0  0  0  0  0  0  0  0  0  0  0  0
    7.0002  -13.2161   26.2832 C   0  0  1  0  0  0  0  0  0  0  0  0
    5.8674  -12.4150   25.6622 C   0  0  0  0  0  0  0  0  0  0  0  0
    8.1483  -13.3422   25.3735 C   0  0  0  0  0  0  0  0  0  0  0  0
    8.8855  -14.6094   25.3692 C   0  0  2  0  0  0  0  0  0  0  0  0
    8.2396  -15.5115   24.3469 N   0  0  0  0  0  0  0  0  0  0  0  0
    8.9811  -15.4503   26.5424 C   0  0  0  0  0  0  0  0  0  0  0  0
    8.4274  -16.7124   26.5930 O   0  0  0  0  0  0  0  0  0  0  0  0
    9.5724  -15.0940   27.6261 O   0  0  0  0  0  0  0  0  0  0  0  0
  2  1  1  1
  2  3  1  0
  3  4  1  0
  5  4  1  0
  5  6  2  0
  7  2  1  0
  7  8  2  0
  9  5  1  0
 10  7  1  0
 11 10  1  0
 11 12  1  0
 12 19  1  0
 13 12  2  0
 15 14  1  1
 15 16  1  0
 17 15  1  0
 18 17  1  1
 19 18  1  0
 20 18  1  0
 20 21  1  0
 22 20  2  0
M  END
$$$$
