MCL.pdb
     RDKit          3D

 23 22  0  0  1  0  0  0  0  0999 V2000
    6.7089  -11.2870   25.7743 C   0  0  0  0  0  0  0  0  0  0  0  0
    6.5720  -12.6433   26.9395 S   0  0  0  0  0  0  0  0  0  0  0  0
    6.1016  -14.2050   26.1711 C   0  0  0  0  0  0  0  0  0  0  0  0
    6.4838  -14.2518   24.6948 C   0  0  0  0  0  0  0  0  0  0  0  0
    6.3975  -15.6756   24.2597 C   0  0  2  0  0  0  0  0  0  0  0  0
    5.3838  -16.3454   25.0381 N   0  0  0  0  0  0  0  0  0  0  0  0
    7.6948  -16.3939   24.2978 C   0  0  0  0  0  0  0  0  0  0  0  0
    7.9227  -17.1755   25.2623 O   0  0  0  0  0  0  0  0  0  0  0  0
    8.6910  -16.2472   23.3069 N   0  0  0  0  0  0  0  0  0  0  0  0
    9.9852  -16.9576   23.3635 C   0  0  1  0  0  0  0  0  0  0  0  0
   10.6795  -16.8302   22.0239 C   0  0  0  0  0  0  0  0  0  0  0  0
   12.1931  -17.7698   21.8926 S   0  0  0  0  0  0  0  0  0  0  0  0
   10.7493  -16.3418   24.4740 C   0  0  0  0  0  0  0  0  0  0  0  0
   11.1721  -15.1309   24.3833 O   0  0  0  0  0  0  0  0  0  0  0  0
   11.0212  -13.7116   27.4511 C   0  0  0  0  0  0  0  0  0  0  0  0
   10.2788  -15.0420   27.7445 C   0  0  2  0  0  0  0  0  0  0  0  0
    9.5689  -14.7630   29.0516 C   0  0  0  0  0  0  0  0  0  0  0  0
   11.2687  -16.1500   27.8695 C   0  0  0  0  0  0  0  0  0  0  0  0
   12.0275  -16.5147   26.6406 C   0  0  2  0  0  0  0  0  0  0  0  0
   11.0583  -17.0051   25.6660 N   0  0  0  0  0  0  0  0  0  0  0  0
   13.0166  -17.5802   26.8291 C   0  0  0  0  0  0  0  0  0  0  0  0
   14.2018  -17.3349   27.1565 O   0  0  0  0  0  0  0  0  0  0  0  0
   12.7169  -18.9489   26.6550 O   0  0  0  0  0  0  0  0  0  0  0  0
  2  1  1  0
  3  2  1  0
  4  3  1  0
  5  4  1  0
  5  6  1  1
  7  5  1  0
  8  7  2  0
  9  7  1  0
 10 13  1  0
 10  9  1  0
 10 11  1  6
 12 11  1  0
 13 20  1  0
 14 13  2  0
 16 15  1  1
 16 17  1  0
 18 16  1  0
 19 18  1  1
 19 21  1  0
 20 19  1  0
 21 22  2  0
 21 23  1  0
M  END
$$$$
