MCL.pdb
     RDKit          3D

 23 22  0  0  1  0  0  0  0  0999 V2000
    8.2093  -12.0472   19.8437 C   0  0  0  0  0  0  0  0  0  0  0  0
    8.4169  -12.8059   18.2322 S   0  0  0  0  0  0  0  0  0  0  0  0
    7.8545  -14.5177   18.1669 C   0  0  0  0  0  0  0  0  0  0  0  0
    7.0541  -14.9023   19.4075 C   0  0  0  0  0  0  0  0  0  0  0  0
    7.9389  -15.7459   20.2616 C   0  0  2  0  0  0  0  0  0  0  0  0
    8.1634  -17.0099   19.6030 N   0  0  0  0  0  0  0  0  0  0  0  0
    7.4438  -15.9203   21.6490 C   0  0  0  0  0  0  0  0  0  0  0  0
    6.7468  -15.0006   22.1601 O   0  0  0  0  0  0  0  0  0  0  0  0
    7.7136  -17.0666   22.4295 N   0  0  0  0  0  0  0  0  0  0  0  0
    7.2188  -17.2262   23.8125 C   0  0  1  0  0  0  0  0  0  0  0  0
    7.2288  -18.6962   24.1758 C   0  0  0  0  0  0  0  0  0  0  0  0
    6.8926  -19.0256   25.8990 S   0  0  0  0  0  0  0  0  0  0  0  0
    8.1109  -16.4105   24.6699 C   0  0  0  0  0  0  0  0  0  0  0  0
    9.3884  -16.5135   24.5677 O   0  0  0  0  0  0  0  0  0  0  0  0
    7.5739  -12.0376   24.9958 C   0  0  0  0  0  0  0  0  0  0  0  0
    6.7592  -12.8739   26.0176 C   0  0  2  0  0  0  0  0  0  0  0  0
    5.8922  -11.8389   26.7012 C   0  0  0  0  0  0  0  0  0  0  0  0
    7.6899  -13.5437   26.9707 C   0  0  0  0  0  0  0  0  0  0  0  0
    8.5256  -14.6508   26.4275 C   0  0  2  0  0  0  0  0  0  0  0  0
    7.6498  -15.4962   25.6226 N   0  0  0  0  0  0  0  0  0  0  0  0
    9.1300  -15.5142   27.4466 C   0  0  0  0  0  0  0  0  0  0  0  0
   10.0788  -15.1251   28.1680 O   0  0  0  0  0  0  0  0  0  0  0  0
    8.6991  -16.8366   27.6897 O   0  0  0  0  0  0  0  0  0  0  0  0
  2  1  1  0
  3  2  1  0
  4  3  1  0
  5  4  1  0
  5  6  1  6
  7  5  1  0
  8  7  2  0
  9  7  1  0
 10 13  1  0
 10  9  1  0
 10 11  1  1
 12 11  1  0
 13 20  1  0
 14 13  2  0
 16 15  1  6
 16 17  1  0
 18 16  1  0
 19 18  1  1
 19 21  1  0
 20 19  1  0
 21 22  2  0
 21 23  1  0
M  END
$$$$
