MCL.pdb
     RDKit          3D

 23 22  0  0  1  0  0  0  0  0999 V2000
    7.7573  -11.7547   20.8485 C   0  0  0  0  0  0  0  0  0  0  0  0
    8.2723  -12.3624   19.2418 S   0  0  0  0  0  0  0  0  0  0  0  0
    8.9367  -14.0378   19.2874 C   0  0  0  0  0  0  0  0  0  0  0  0
    8.2518  -14.8939   20.3483 C   0  0  0  0  0  0  0  0  0  0  0  0
    8.8630  -16.2527   20.2836 C   0  0  2  0  0  0  0  0  0  0  0  0
    8.3545  -16.9432   19.1231 N   0  0  0  0  0  0  0  0  0  0  0  0
    8.6914  -17.0471   21.5245 C   0  0  0  0  0  0  0  0  0  0  0  0
    7.7457  -17.8810   21.5802 O   0  0  0  0  0  0  0  0  0  0  0  0
    9.5350  -16.9172   22.6504 N   0  0  0  0  0  0  0  0  0  0  0  0
    9.3224  -17.6764   23.8999 C   0  0  1  0  0  0  0  0  0  0  0  0
    9.5135  -19.1525   23.6215 C   0  0  0  0  0  0  0  0  0  0  0  0
    9.6389  -20.1631   25.0891 S   0  0  0  0  0  0  0  0  0  0  0  0
   10.2941  -17.1407   24.8823 C   0  0  0  0  0  0  0  0  0  0  0  0
   11.5461  -17.0793   24.5958 O   0  0  0  0  0  0  0  0  0  0  0  0
    8.7209  -13.3926   28.3202 C   0  0  0  0  0  0  0  0  0  0  0  0
   10.1071  -13.9443   27.8942 C   0  0  2  0  0  0  0  0  0  0  0  0
   10.1712  -13.6204   26.4174 C   0  0  0  0  0  0  0  0  0  0  0  0
   10.1607  -15.4125   28.1491 C   0  0  0  0  0  0  0  0  0  0  0  0
   10.9028  -16.2398   27.1572 C   0  0  2  0  0  0  0  0  0  0  0  0
    9.9385  -16.6753   26.1524 N   0  0  0  0  0  0  0  0  0  0  0  0
   11.5154  -17.4511   27.7110 C   0  0  0  0  0  0  0  0  0  0  0  0
   12.6917  -17.4609   28.1450 O   0  0  0  0  0  0  0  0  0  0  0  0
   10.8385  -18.6873   27.7944 O   0  0  0  0  0  0  0  0  0  0  0  0
  2  1  1  0
  3  2  1  0
  4  3  1  0
  5  4  1  0
  5  6  1  6
  7  5  1  0
  8  7  2  0
  9  7  1  0
 10 13  1  0
 10  9  1  0
 10 11  1  6
 12 11  1  0
 13 20  1  0
 14 13  2  0
 16 15  1  6
 16 17  1  0
 18 16  1  0
 19 18  1  1
 19 21  1  0
 20 19  1  0
 21 22  2  0
 21 23  1  0
M  END
$$$$
