MCL.pdb
     RDKit          3D

 23 22  0  0  1  0  0  0  0  0999 V2000
    8.9619  -11.2100   19.8517 C   0  0  0  0  0  0  0  0  0  0  0  0
    8.4744  -12.4242   18.6254 S   0  0  0  0  0  0  0  0  0  0  0  0
    8.7685  -14.1258   19.1439 C   0  0  0  0  0  0  0  0  0  0  0  0
    8.4350  -15.1239   18.0392 C   0  0  0  0  0  0  0  0  0  0  0  0
    8.7641  -16.4835   18.5564 C   0  0  2  0  0  0  0  0  0  0  0  0
    8.5559  -17.4503   17.5057 N   0  0  0  0  0  0  0  0  0  0  0  0
    8.0377  -16.8447   19.7982 C   0  0  0  0  0  0  0  0  0  0  0  0
    7.0752  -17.6572   19.7186 O   0  0  0  0  0  0  0  0  0  0  0  0
    8.3691  -16.3239   21.0690 N   0  0  0  0  0  0  0  0  0  0  0  0
    7.8402  -16.8897   22.3271 C   0  0  1  0  0  0  0  0  0  0  0  0
    8.3383  -18.3116   22.4790 C   0  0  0  0  0  0  0  0  0  0  0  0
    7.9965  -19.0395   24.0741 S   0  0  0  0  0  0  0  0  0  0  0  0
    8.3032  -15.9936   23.4130 C   0  0  0  0  0  0  0  0  0  0  0  0
    9.5211  -15.5826   23.4460 O   0  0  0  0  0  0  0  0  0  0  0  0
    5.5232  -12.0955   27.2383 C   0  0  0  0  0  0  0  0  0  0  0  0
    6.8970  -12.6998   26.8450 C   0  0  2  0  0  0  0  0  0  0  0  0
    7.6380  -11.5213   26.2514 C   0  0  0  0  0  0  0  0  0  0  0  0
    6.6963  -13.7938   25.8520 C   0  0  0  0  0  0  0  0  0  0  0  0
    7.9034  -14.5722   25.4568 C   0  0  2  0  0  0  0  0  0  0  0  0
    7.4809  -15.5397   24.4494 N   0  0  0  0  0  0  0  0  0  0  0  0
    8.5198  -15.3352   26.5463 C   0  0  0  0  0  0  0  0  0  0  0  0
    8.0536  -16.4324   26.9344 O   0  0  0  0  0  0  0  0  0  0  0  0
    9.6703  -14.8977   27.2380 O   0  0  0  0  0  0  0  0  0  0  0  0
  2  1  1  0
  3  2  1  0
  4  3  1  0
  5  4  1  0
  5  6  1  6
  7  5  1  0
  8  7  2  0
  9  7  1  0
 10 13  1  0
 10  9  1  0
 10 11  1  1
 12 11  1  0
 13 20  1  0
 14 13  2  0
 16 15  1  6
 16 17  1  0
 18 16  1  0
 19 18  1  1
 19 21  1  0
 20 19  1  0
 21 22  2  0
 21 23  1  0
M  END
$$$$
