MCL.pdb
     RDKit          3D

 23 22  0  0  1  0  0  0  0  0999 V2000
    7.2895  -11.8615   19.1932 C   0  0  0  0  0  0  0  0  0  0  0  0
    8.2402  -12.8271   18.0186 S   0  0  0  0  0  0  0  0  0  0  0  0
    8.4256  -14.5562   18.4943 C   0  0  0  0  0  0  0  0  0  0  0  0
    7.6565  -14.8817   19.7711 C   0  0  0  0  0  0  0  0  0  0  0  0
    7.8180  -16.3423   20.0255 C   0  0  2  0  0  0  0  0  0  0  0  0
    7.1148  -17.0790   19.0034 N   0  0  0  0  0  0  0  0  0  0  0  0
    7.4164  -16.7611   21.3907 C   0  0  0  0  0  0  0  0  0  0  0  0
    6.1998  -17.0168   21.6090 O   0  0  0  0  0  0  0  0  0  0  0  0
    8.3287  -16.8886   22.4618 N   0  0  0  0  0  0  0  0  0  0  0  0
    7.8958  -17.0558   23.8645 C   0  0  1  0  0  0  0  0  0  0  0  0
    8.2553  -18.4508   24.3311 C   0  0  0  0  0  0  0  0  0  0  0  0
    9.9791  -18.8701   24.1219 S   0  0  0  0  0  0  0  0  0  0  0  0
    8.5763  -15.9914   24.6392 C   0  0  0  0  0  0  0  0  0  0  0  0
    9.7517  -15.5908   24.3059 O   0  0  0  0  0  0  0  0  0  0  0  0
    7.9181  -11.7953   25.1393 C   0  0  0  0  0  0  0  0  0  0  0  0
    6.9664  -12.6915   25.9751 C   0  0  2  0  0  0  0  0  0  0  0  0
    5.9717  -11.7043   26.5463 C   0  0  0  0  0  0  0  0  0  0  0  0
    7.7425  -13.3864   27.0419 C   0  0  0  0  0  0  0  0  0  0  0  0
    8.7297  -14.4091   26.5964 C   0  0  2  0  0  0  0  0  0  0  0  0
    8.0132  -15.3605   25.7533 N   0  0  0  0  0  0  0  0  0  0  0  0
    9.3402  -15.1806   27.6833 C   0  0  0  0  0  0  0  0  0  0  0  0
    8.9485  -16.3343   27.9793 O   0  0  0  0  0  0  0  0  0  0  0  0
   10.4012  -14.6894   28.4748 O   0  0  0  0  0  0  0  0  0  0  0  0
  2  1  1  0
  3  2  1  0
  4  3  1  0
  5  4  1  0
  5  6  1  6
  7  5  1  0
  8  7  2  0
  9  7  1  0
 10 13  1  0
 10  9  1  0
 10 11  1  1
 12 11  1  0
 13 20  1  0
 14 13  2  0
 16 15  1  6
 16 17  1  0
 18 16  1  0
 19 18  1  1
 19 21  1  0
 20 19  1  0
 21 22  2  0
 21 23  1  0
M  END
$$$$
