MCL.pdb
     RDKit          3D

 23 22  0  0  1  0  0  0  0  0999 V2000
    7.7653  -11.6327   20.6075 C   0  0  0  0  0  0  0  0  0  0  0  0
    7.7467  -12.4103   18.9918 S   0  0  0  0  0  0  0  0  0  0  0  0
    8.0837  -14.1808   19.0434 C   0  0  0  0  0  0  0  0  0  0  0  0
    7.8647  -14.7622   20.4368 C   0  0  0  0  0  0  0  0  0  0  0  0
    8.0941  -16.2329   20.3442 C   0  0  2  0  0  0  0  0  0  0  0  0
    7.0784  -16.8160   19.5014 N   0  0  0  0  0  0  0  0  0  0  0  0
    8.1821  -16.9101   21.6610 C   0  0  0  0  0  0  0  0  0  0  0  0
    7.1263  -17.0503   22.3382 O   0  0  0  0  0  0  0  0  0  0  0  0
    9.3909  -17.4074   22.1973 N   0  0  0  0  0  0  0  0  0  0  0  0
    9.4667  -18.0732   23.5140 C   0  0  1  0  0  0  0  0  0  0  0  0
   10.2546  -19.3588   23.3746 C   0  0  0  0  0  0  0  0  0  0  0  0
   11.7758  -19.1877   22.4538 S   0  0  0  0  0  0  0  0  0  0  0  0
   10.1007  -17.1011   24.4356 C   0  0  0  0  0  0  0  0  0  0  0  0
   11.0496  -16.3361   24.0262 O   0  0  0  0  0  0  0  0  0  0  0  0
    8.9968  -13.0227   28.5228 C   0  0  0  0  0  0  0  0  0  0  0  0
   10.0598  -14.1134   28.2265 C   0  0  2  0  0  0  0  0  0  0  0  0
   11.2652  -13.3128   27.7837 C   0  0  0  0  0  0  0  0  0  0  0  0
    9.5616  -15.0180   27.1509 C   0  0  0  0  0  0  0  0  0  0  0  0
   10.4663  -16.1247   26.7314 C   0  0  2  0  0  0  0  0  0  0  0  0
    9.7293  -16.9440   25.7749 N   0  0  0  0  0  0  0  0  0  0  0  0
   10.8853  -17.0143   27.8186 C   0  0  0  0  0  0  0  0  0  0  0  0
   11.9481  -16.8271   28.4569 O   0  0  0  0  0  0  0  0  0  0  0  0
   10.1362  -18.1402   28.2244 O   0  0  0  0  0  0  0  0  0  0  0  0
  2  1  1  0
  3  2  1  0
  4  3  1  0
  5  4  1  0
  5  6  1  6
  7  5  1  0
  8  7  2  0
  9  7  1  0
 10 13  1  0
 10  9  1  0
 10 11  1  6
 12 11  1  0
 13 20  1  0
 14 13  2  0
 16 15  1  6
 16 17  1  0
 18 16  1  0
 19 18  1  1
 19 21  1  0
 20 19  1  0
 21 22  2  0
 21 23  1  0
M  END
$$$$
