MCL.pdb
     RDKit          3D

 23 22  0  0  1  0  0  0  0  0999 V2000
    7.1887  -18.1213   28.3521 C   0  0  0  0  0  0  0  0  0  0  0  0
    7.4307  -19.7284   27.5941 S   0  0  0  0  0  0  0  0  0  0  0  0
    7.5152  -19.6676   25.7941 C   0  0  0  0  0  0  0  0  0  0  0  0
    6.2701  -19.0288   25.1864 C   0  0  0  0  0  0  0  0  0  0  0  0
    6.3858  -19.1547   23.7049 C   0  0  2  0  0  0  0  0  0  0  0  0
    6.6979  -20.5234   23.3714 N   0  0  0  0  0  0  0  0  0  0  0  0
    7.3434  -18.2001   23.0950 C   0  0  0  0  0  0  0  0  0  0  0  0
    8.5384  -18.5699   22.9271 O   0  0  0  0  0  0  0  0  0  0  0  0
    6.9850  -16.8944   22.6916 N   0  0  0  0  0  0  0  0  0  0  0  0
    7.9225  -15.9865   21.9991 C   0  0  1  0  0  0  0  0  0  0  0  0
    7.1397  -15.0741   21.0783 C   0  0  0  0  0  0  0  0  0  0  0  0
    5.3667  -15.2107   21.2479 S   0  0  0  0  0  0  0  0  0  0  0  0
    8.6512  -15.2528   23.0607 C   0  0  0  0  0  0  0  0  0  0  0  0
    9.0879  -14.0620   22.8498 O   0  0  0  0  0  0  0  0  0  0  0  0
    6.0611  -12.8507   26.9281 C   0  0  0  0  0  0  0  0  0  0  0  0
    7.4957  -13.4414   26.9136 C   0  0  2  0  0  0  0  0  0  0  0  0
    8.3780  -12.2120   26.9230 C   0  0  0  0  0  0  0  0  0  0  0  0
    7.6872  -14.2595   25.6818 C   0  0  0  0  0  0  0  0  0  0  0  0
    8.9885  -14.9712   25.5436 C   0  0  2  0  0  0  0  0  0  0  0  0
    8.9109  -15.7786   24.3305 N   0  0  0  0  0  0  0  0  0  0  0  0
    9.3016  -15.8875   26.6443 C   0  0  0  0  0  0  0  0  0  0  0  0
    8.6380  -16.9317   26.8476 O   0  0  0  0  0  0  0  0  0  0  0  0
   10.3594  -15.6666   27.5530 O   0  0  0  0  0  0  0  0  0  0  0  0
  2  1  1  0
  3  2  1  0
  4  3  1  0
  5  4  1  0
  5  6  1  1
  7  5  1  0
  8  7  2  0
  9  7  1  0
 10 13  1  0
 10  9  1  0
 10 11  1  6
 12 11  1  0
 13 20  1  0
 14 13  2  0
 16 15  1  6
 16 17  1  0
 18 16  1  0
 19 18  1  1
 19 21  1  0
 20 19  1  0
 21 22  2  0
 21 23  1  0
M  END
$$$$
