MCL.pdb
     RDKit          3D

 23 22  0  0  1  0  0  0  0  0999 V2000
    8.0575  -11.8401   20.5431 C   0  0  0  0  0  0  0  0  0  0  0  0
    8.7454  -12.6962   19.1254 S   0  0  0  0  0  0  0  0  0  0  0  0
    7.6815  -14.0073   18.4930 C   0  0  0  0  0  0  0  0  0  0  0  0
    7.0940  -14.8562   19.6163 C   0  0  0  0  0  0  0  0  0  0  0  0
    8.0745  -15.9405   19.9114 C   0  0  2  0  0  0  0  0  0  0  0  0
    7.9382  -16.9811   18.9211 N   0  0  0  0  0  0  0  0  0  0  0  0
    7.9837  -16.4711   21.2936 C   0  0  0  0  0  0  0  0  0  0  0  0
    6.8713  -16.9075   21.6996 O   0  0  0  0  0  0  0  0  0  0  0  0
    9.0821  -16.5127   22.1812 N   0  0  0  0  0  0  0  0  0  0  0  0
    8.9759  -17.0325   23.5601 C   0  0  1  0  0  0  0  0  0  0  0  0
    9.9232  -18.2026   23.7230 C   0  0  0  0  0  0  0  0  0  0  0  0
   10.0623  -18.8026   25.3997 S   0  0  0  0  0  0  0  0  0  0  0  0
    9.2958  -15.8977   24.4580 C   0  0  0  0  0  0  0  0  0  0  0  0
   10.3932  -15.2425   24.3171 O   0  0  0  0  0  0  0  0  0  0  0  0
    7.6095  -11.7957   25.3611 C   0  0  0  0  0  0  0  0  0  0  0  0
    6.7821  -13.0191   25.8367 C   0  0  2  0  0  0  0  0  0  0  0  0
    5.5244  -12.3914   26.3975 C   0  0  0  0  0  0  0  0  0  0  0  0
    7.5469  -13.7665   26.8757 C   0  0  0  0  0  0  0  0  0  0  0  0
    8.8154  -14.4146   26.4398 C   0  0  2  0  0  0  0  0  0  0  0  0
    8.4585  -15.4646   25.4913 N   0  0  0  0  0  0  0  0  0  0  0  0
    9.5737  -15.0560   27.5180 C   0  0  0  0  0  0  0  0  0  0  0  0
   10.3641  -14.4118   28.2475 O   0  0  0  0  0  0  0  0  0  0  0  0
    9.4776  -16.4334   27.8133 O   0  0  0  0  0  0  0  0  0  0  0  0
  2  1  1  0
  3  2  1  0
  4  3  1  0
  5  4  1  0
  5  6  1  6
  7  5  1  0
  8  7  2  0
  9  7  1  0
 10 13  1  0
 10  9  1  0
 10 11  1  6
 12 11  1  0
 13 20  1  0
 14 13  2  0
 16 15  1  1
 16 17  1  0
 18 16  1  0
 19 18  1  1
 19 21  1  0
 20 19  1  0
 21 22  2  0
 21 23  1  0
M  END
$$$$
