MCL.pdb
     RDKit          3D

 23 22  0  0  1  0  0  0  0  0999 V2000
    6.3271  -11.0432   25.1694 C   0  0  0  0  0  0  0  0  0  0  0  0
    5.7636  -12.0932   26.5095 S   0  0  0  0  0  0  0  0  0  0  0  0
    5.9468  -13.8540   26.1673 C   0  0  0  0  0  0  0  0  0  0  0  0
    6.1304  -14.1291   24.6779 C   0  0  0  0  0  0  0  0  0  0  0  0
    6.2147  -15.6083   24.5078 C   0  0  2  0  0  0  0  0  0  0  0  0
    5.5067  -16.2481   25.5900 N   0  0  0  0  0  0  0  0  0  0  0  0
    7.6010  -16.1179   24.3702 C   0  0  0  0  0  0  0  0  0  0  0  0
    8.1432  -16.6663   25.3693 O   0  0  0  0  0  0  0  0  0  0  0  0
    8.3473  -16.0203   23.1746 N   0  0  0  0  0  0  0  0  0  0  0  0
    9.7033  -16.5889   23.0305 C   0  0  1  0  0  0  0  0  0  0  0  0
   10.1741  -16.3921   21.6048 C   0  0  0  0  0  0  0  0  0  0  0  0
   11.7173  -17.2079   21.2253 S   0  0  0  0  0  0  0  0  0  0  0  0
   10.5541  -15.8921   24.0239 C   0  0  0  0  0  0  0  0  0  0  0  0
   10.6816  -14.6130   23.9920 O   0  0  0  0  0  0  0  0  0  0  0  0
   10.6465  -13.8298   27.5404 C   0  0  0  0  0  0  0  0  0  0  0  0
   10.4841  -15.3698   27.6375 C   0  0  2  0  0  0  0  0  0  0  0  0
   10.0975  -15.5880   29.0843 C   0  0  0  0  0  0  0  0  0  0  0  0
   11.7761  -16.0313   27.2965 C   0  0  0  0  0  0  0  0  0  0  0  0
   12.2493  -15.8965   25.8904 C   0  0  2  0  0  0  0  0  0  0  0  0
   11.2591  -16.5473   25.0388 N   0  0  0  0  0  0  0  0  0  0  0  0
   13.5361  -16.5431   25.6161 C   0  0  0  0  0  0  0  0  0  0  0  0
   13.6100  -17.6645   25.0603 O   0  0  0  0  0  0  0  0  0  0  0  0
   14.7776  -15.9625   25.9555 O   0  0  0  0  0  0  0  0  0  0  0  0
  2  1  1  0
  3  2  1  0
  4  3  1  0
  5  4  1  0
  5  6  1  1
  7  5  1  0
  8  7  2  0
  9  7  1  0
 10 13  1  0
 10  9  1  0
 10 11  1  6
 12 11  1  0
 13 20  1  0
 14 13  2  0
 16 15  1  1
 16 17  1  0
 18 16  1  0
 19 18  1  1
 19 21  1  0
 20 19  1  0
 21 22  2  0
 21 23  1  0
M  END
$$$$
