MCL.pdb
     RDKit          3D

 23 22  0  0  1  0  0  0  0  0999 V2000
    8.5228  -11.6299   20.1083 C   0  0  0  0  0  0  0  0  0  0  0  0
    7.8448  -12.5516   18.7275 S   0  0  0  0  0  0  0  0  0  0  0  0
    7.6831  -14.3175   19.0534 C   0  0  0  0  0  0  0  0  0  0  0  0
    8.9947  -14.9306   19.5347 C   0  0  0  0  0  0  0  0  0  0  0  0
    8.7279  -16.3665   19.8367 C   0  0  2  0  0  0  0  0  0  0  0  0
    7.7810  -16.8816   18.8775 N   0  0  0  0  0  0  0  0  0  0  0  0
    8.2972  -16.6153   21.2341 C   0  0  0  0  0  0  0  0  0  0  0  0
    7.0670  -16.7766   21.4658 O   0  0  0  0  0  0  0  0  0  0  0  0
    9.1963  -16.6810   22.3220 N   0  0  0  0  0  0  0  0  0  0  0  0
    8.7728  -17.0549   23.6871 C   0  0  1  0  0  0  0  0  0  0  0  0
    9.4299  -18.3647   24.0686 C   0  0  0  0  0  0  0  0  0  0  0  0
   11.1805  -18.4331   23.7198 S   0  0  0  0  0  0  0  0  0  0  0  0
    9.1672  -15.9298   24.5675 C   0  0  0  0  0  0  0  0  0  0  0  0
   10.2255  -15.2440   24.3166 O   0  0  0  0  0  0  0  0  0  0  0  0
    7.5182  -11.9738   25.6104 C   0  0  0  0  0  0  0  0  0  0  0  0
    6.7892  -13.1907   26.2388 C   0  0  2  0  0  0  0  0  0  0  0  0
    5.5912  -12.5647   26.9194 C   0  0  0  0  0  0  0  0  0  0  0  0
    7.6947  -13.8692   27.2099 C   0  0  0  0  0  0  0  0  0  0  0  0
    8.9055  -14.5317   26.6495 C   0  0  2  0  0  0  0  0  0  0  0  0
    8.4443  -15.5386   25.6992 N   0  0  0  0  0  0  0  0  0  0  0  0
    9.7318  -15.2290   27.6395 C   0  0  0  0  0  0  0  0  0  0  0  0
   10.3462  -14.6136   28.5427 O   0  0  0  0  0  0  0  0  0  0  0  0
    9.9013  -16.6307   27.6512 O   0  0  0  0  0  0  0  0  0  0  0  0
  2  1  1  0
  3  2  1  0
  4  3  1  0
  5  4  1  0
  5  6  1  6
  7  5  1  0
  8  7  2  0
  9  7  1  0
 10 13  1  0
 10  9  1  0
 10 11  1  1
 12 11  1  0
 13 20  1  0
 14 13  2  0
 16 15  1  1
 16 17  1  0
 18 16  1  0
 19 18  1  1
 19 21  1  0
 20 19  1  0
 21 22  2  0
 21 23  1  0
M  END
$$$$
