MCL.pdb
     RDKit          3D

 23 22  0  0  1  0  0  0  0  0999 V2000
    7.3845  -12.3354   20.2280 C   0  0  0  0  0  0  0  0  0  0  0  0
    8.6413  -12.5809   18.9726 S   0  0  0  0  0  0  0  0  0  0  0  0
    8.3222  -13.9984   17.9051 C   0  0  0  0  0  0  0  0  0  0  0  0
    7.4456  -15.0422   18.5905 C   0  0  0  0  0  0  0  0  0  0  0  0
    8.3325  -16.1729   18.9892 C   0  0  2  0  0  0  0  0  0  0  0  0
    8.1599  -17.2590   18.0551 N   0  0  0  0  0  0  0  0  0  0  0  0
    8.1497  -16.6117   20.3943 C   0  0  0  0  0  0  0  0  0  0  0  0
    6.9768  -16.8134   20.8147 O   0  0  0  0  0  0  0  0  0  0  0  0
    9.2243  -16.8157   21.2884 N   0  0  0  0  0  0  0  0  0  0  0  0
    9.0284  -17.2435   22.6889 C   0  0  1  0  0  0  0  0  0  0  0  0
   10.0590  -18.2980   23.0338 C   0  0  0  0  0  0  0  0  0  0  0  0
   10.1586  -18.6807   24.7758 S   0  0  0  0  0  0  0  0  0  0  0  0
    9.1494  -16.0210   23.5178 C   0  0  0  0  0  0  0  0  0  0  0  0
   10.1223  -15.2007   23.3339 O   0  0  0  0  0  0  0  0  0  0  0  0
    5.6798  -12.2111   26.7356 C   0  0  0  0  0  0  0  0  0  0  0  0
    7.1248  -12.7666   26.6325 C   0  0  2  0  0  0  0  0  0  0  0  0
    7.9238  -11.5714   26.1601 C   0  0  0  0  0  0  0  0  0  0  0  0
    7.1603  -13.8884   25.6508 C   0  0  0  0  0  0  0  0  0  0  0  0
    8.4648  -14.5859   25.4747 C   0  0  2  0  0  0  0  0  0  0  0  0
    8.2463  -15.6749   24.5283 N   0  0  0  0  0  0  0  0  0  0  0  0
    9.0036  -15.1880   26.6980 C   0  0  0  0  0  0  0  0  0  0  0  0
    9.9375  -14.6561   27.3436 O   0  0  0  0  0  0  0  0  0  0  0  0
    8.5216  -16.4011   27.2361 O   0  0  0  0  0  0  0  0  0  0  0  0
  2  1  1  0
  3  2  1  0
  4  3  1  0
  5  4  1  0
  5  6  1  6
  7  5  1  0
  8  7  2  0
  9  7  1  0
 10 13  1  0
 10  9  1  0
 10 11  1  1
 12 11  1  0
 13 20  1  0
 14 13  2  0
 16 15  1  6
 16 17  1  0
 18 16  1  0
 19 18  1  1
 19 21  1  0
 20 19  1  0
 21 22  2  0
 21 23  1  0
M  END
$$$$
