MCL.pdb
     RDKit          3D

 23 22  0  0  1  0  0  0  0  0999 V2000
    8.5592  -11.5607   19.5230 C   0  0  0  0  0  0  0  0  0  0  0  0
    8.2606  -12.4296   17.9829 S   0  0  0  0  0  0  0  0  0  0  0  0
    8.4807  -14.2144   18.1114 C   0  0  0  0  0  0  0  0  0  0  0  0
    8.1523  -14.7300   19.5093 C   0  0  0  0  0  0  0  0  0  0  0  0
    8.3995  -16.2007   19.5084 C   0  0  2  0  0  0  0  0  0  0  0  0
    7.4794  -16.8325   18.5939 N   0  0  0  0  0  0  0  0  0  0  0  0
    8.3562  -16.8167   20.8571 C   0  0  0  0  0  0  0  0  0  0  0  0
    7.2337  -17.1350   21.3384 O   0  0  0  0  0  0  0  0  0  0  0  0
    9.5107  -17.0659   21.6325 N   0  0  0  0  0  0  0  0  0  0  0  0
    9.4477  -17.4720   23.0516 C   0  0  1  0  0  0  0  0  0  0  0  0
   10.6033  -18.4033   23.3523 C   0  0  0  0  0  0  0  0  0  0  0  0
   10.9002  -18.6609   25.0948 S   0  0  0  0  0  0  0  0  0  0  0  0
    9.4897  -16.2205   23.8443 C   0  0  0  0  0  0  0  0  0  0  0  0
   10.4172  -15.3524   23.6459 O   0  0  0  0  0  0  0  0  0  0  0  0
    5.7953  -12.4400   26.8062 C   0  0  0  0  0  0  0  0  0  0  0  0
    7.2657  -12.9327   26.7572 C   0  0  2  0  0  0  0  0  0  0  0  0
    8.0177  -11.7305   26.2285 C   0  0  0  0  0  0  0  0  0  0  0  0
    7.3697  -14.1058   25.8428 C   0  0  0  0  0  0  0  0  0  0  0  0
    8.7008  -14.7680   25.7484 C   0  0  2  0  0  0  0  0  0  0  0  0
    8.5564  -15.8963   24.8344 N   0  0  0  0  0  0  0  0  0  0  0  0
    9.2032  -15.3089   27.0149 C   0  0  0  0  0  0  0  0  0  0  0  0
    8.7725  -16.3843   27.4945 O   0  0  0  0  0  0  0  0  0  0  0  0
   10.1966  -14.6673   27.7863 O   0  0  0  0  0  0  0  0  0  0  0  0
  2  1  1  0
  3  2  1  0
  4  3  1  0
  5  4  1  0
  5  6  1  6
  7  5  1  0
  8  7  2  0
  9  7  1  0
 10 13  1  0
 10  9  1  0
 10 11  1  1
 12 11  1  0
 13 20  1  0
 14 13  2  0
 16 15  1  6
 16 17  1  0
 18 16  1  0
 19 18  1  1
 19 21  1  0
 20 19  1  0
 21 22  2  0
 21 23  1  0
M  END
$$$$
