MCL.pdb
     RDKit          3D

 23 22  0  0  1  0  0  0  0  0999 V2000
    8.5513  -11.3756   19.8113 C   0  0  0  0  0  0  0  0  0  0  0  0
    8.1692  -12.4264   18.4093 S   0  0  0  0  0  0  0  0  0  0  0  0
    8.4855  -14.1748   18.7153 C   0  0  0  0  0  0  0  0  0  0  0  0
    7.7431  -14.6810   19.9483 C   0  0  0  0  0  0  0  0  0  0  0  0
    8.1030  -16.1177   20.1234 C   0  0  2  0  0  0  0  0  0  0  0  0
    7.3161  -16.9146   19.2136 N   0  0  0  0  0  0  0  0  0  0  0  0
    7.9929  -16.5971   21.5228 C   0  0  0  0  0  0  0  0  0  0  0  0
    6.8748  -17.0188   21.9290 O   0  0  0  0  0  0  0  0  0  0  0  0
    9.0788  -16.6057   22.4265 N   0  0  0  0  0  0  0  0  0  0  0  0
    8.9482  -17.0535   23.8283 C   0  0  1  0  0  0  0  0  0  0  0  0
    9.8391  -18.2579   24.0489 C   0  0  0  0  0  0  0  0  0  0  0  0
   10.0575  -18.7013   25.7655 S   0  0  0  0  0  0  0  0  0  0  0  0
    9.3213  -15.8936   24.6719 C   0  0  0  0  0  0  0  0  0  0  0  0
   10.4178  -15.2568   24.4589 O   0  0  0  0  0  0  0  0  0  0  0  0
    7.5425  -11.9196   25.5518 C   0  0  0  0  0  0  0  0  0  0  0  0
    6.8456  -13.1261   26.2343 C   0  0  2  0  0  0  0  0  0  0  0  0
    5.6373  -12.5005   26.8969 C   0  0  0  0  0  0  0  0  0  0  0  0
    7.7722  -13.7433   27.2262 C   0  0  0  0  0  0  0  0  0  0  0  0
    8.9885  -14.4111   26.6842 C   0  0  2  0  0  0  0  0  0  0  0  0
    8.5373  -15.4164   25.7274 N   0  0  0  0  0  0  0  0  0  0  0  0
    9.7967  -15.1116   27.6868 C   0  0  0  0  0  0  0  0  0  0  0  0
    9.6823  -16.3438   27.8884 O   0  0  0  0  0  0  0  0  0  0  0  0
   10.7528  -14.4609   28.4967 O   0  0  0  0  0  0  0  0  0  0  0  0
  2  1  1  0
  3  2  1  0
  4  3  1  0
  5  4  1  0
  5  6  1  6
  7  5  1  0
  8  7  2  0
  9  7  1  0
 10 13  1  0
 10  9  1  0
 10 11  1  6
 12 11  1  0
 13 20  1  0
 14 13  2  0
 16 15  1  1
 16 17  1  0
 18 16  1  0
 19 18  1  1
 19 21  1  0
 20 19  1  0
 21 22  2  0
 21 23  1  0
M  END
$$$$
