MCL.pdb
     RDKit          3D

 23 22  0  0  1  0  0  0  0  0999 V2000
    8.2864  -11.7325   19.4117 C   0  0  0  0  0  0  0  0  0  0  0  0
    8.4510  -12.4994   17.7991 S   0  0  0  0  0  0  0  0  0  0  0  0
    8.5776  -14.2965   17.8685 C   0  0  0  0  0  0  0  0  0  0  0  0
    8.2129  -14.8408   19.2463 C   0  0  0  0  0  0  0  0  0  0  0  0
    8.4013  -16.3196   19.2027 C   0  0  2  0  0  0  0  0  0  0  0  0
    7.5686  -16.8699   18.1607 N   0  0  0  0  0  0  0  0  0  0  0  0
    8.1794  -16.9910   20.5066 C   0  0  0  0  0  0  0  0  0  0  0  0
    7.0262  -17.4320   20.7687 O   0  0  0  0  0  0  0  0  0  0  0  0
    9.1959  -17.1624   21.4727 N   0  0  0  0  0  0  0  0  0  0  0  0
    8.9151  -17.5738   22.8636 C   0  0  1  0  0  0  0  0  0  0  0  0
    9.8729  -18.6790   23.2564 C   0  0  0  0  0  0  0  0  0  0  0  0
   11.5881  -18.1815   23.2923 S   0  0  0  0  0  0  0  0  0  0  0  0
    9.0621  -16.3559   23.6951 C   0  0  0  0  0  0  0  0  0  0  0  0
    9.9158  -15.4480   23.3786 O   0  0  0  0  0  0  0  0  0  0  0  0
    5.6718  -12.5488   26.7897 C   0  0  0  0  0  0  0  0  0  0  0  0
    7.1284  -13.0807   26.7377 C   0  0  2  0  0  0  0  0  0  0  0  0
    7.9189  -11.8829   26.2574 C   0  0  0  0  0  0  0  0  0  0  0  0
    7.2092  -14.2246   25.7846 C   0  0  0  0  0  0  0  0  0  0  0  0
    8.5092  -14.9485   25.7128 C   0  0  2  0  0  0  0  0  0  0  0  0
    8.3098  -16.1065   24.8476 N   0  0  0  0  0  0  0  0  0  0  0  0
    8.9947  -15.4578   26.9989 C   0  0  0  0  0  0  0  0  0  0  0  0
    9.7283  -14.7723   27.7498 O   0  0  0  0  0  0  0  0  0  0  0  0
    8.6814  -16.7459   27.4850 O   0  0  0  0  0  0  0  0  0  0  0  0
  2  1  1  0
  3  2  1  0
  4  3  1  0
  5  4  1  0
  5  6  1  6
  7  5  1  0
  8  7  2  0
  9  7  1  0
 10 13  1  0
 10  9  1  0
 10 11  1  1
 12 11  1  0
 13 20  1  0
 14 13  2  0
 16 15  1  6
 16 17  1  0
 18 16  1  0
 19 18  1  1
 19 21  1  0
 20 19  1  0
 21 22  2  0
 21 23  1  0
M  END
$$$$
