GFF.pdb
     RDKit          3D

 27 28  0  0  1  0  0  0  0  0999 V2000
   24.5039  -24.4249  -14.5752 N   0  0  0  0  0  0  0  0  0  0  0  0
   24.6383  -23.0098  -14.2589 C   0  0  0  0  0  0  0  0  0  0  0  0
   25.3249  -22.8761  -12.9655 C   0  0  0  0  0  0  0  0  0  0  0  0
   25.4350  -23.8372  -12.1830 O   0  0  0  0  0  0  0  0  0  0  0  0
   25.8748  -21.6043  -12.6113 N   0  0  0  0  0  0  0  0  0  0  0  0
   26.5297  -21.4406  -11.3293 C   0  0  1  0  0  0  0  0  0  0  0  0
   27.6153  -20.4146  -11.4520 C   0  0  0  0  0  0  0  0  0  0  0  0
   28.4732  -20.3218  -10.2440 C   0  0  0  0  0  0  0  0  0  0  0  0
   29.6397  -21.0405  -10.1705 C   0  0  0  0  0  0  0  0  0  0  0  0
   30.4423  -20.9459   -9.0356 C   0  0  0  0  0  0  0  0  0  0  0  0
   30.0861  -20.1415   -7.9810 C   0  0  0  0  0  0  0  0  0  0  0  0
   28.9145  -19.4135   -8.0433 C   0  0  0  0  0  0  0  0  0  0  0  0
   28.1207  -19.5073   -9.1664 C   0  0  0  0  0  0  0  0  0  0  0  0
   25.4917  -21.1242  -10.3227 C   0  0  0  0  0  0  0  0  0  0  0  0
   24.3098  -20.7943  -10.6676 O   0  0  0  0  0  0  0  0  0  0  0  0
   25.7818  -21.1789   -8.9439 N   0  0  0  0  0  0  0  0  0  0  0  0
   24.8025  -21.4993   -7.9260 C   0  0  1  0  0  0  0  0  0  0  0  0
   25.4879  -22.2191   -6.8106 C   0  0  0  0  0  0  0  0  0  0  0  0
   26.2887  -21.3673   -5.9290 C   0  0  0  0  0  0  0  0  0  0  0  0
   27.6662  -21.4550   -5.8972 C   0  0  0  0  0  0  0  0  0  0  0  0
   28.4142  -20.6533   -5.0755 C   0  0  0  0  0  0  0  0  0  0  0  0
   27.7966  -19.7188   -4.2420 C   0  0  0  0  0  0  0  0  0  0  0  0
   26.4252  -19.6110   -4.2541 C   0  0  0  0  0  0  0  0  0  0  0  0
   25.7034  -20.4269   -5.0871 C   0  0  0  0  0  0  0  0  0  0  0  0
   23.9852  -20.3520   -7.5282 C   0  0  0  0  0  0  0  0  0  0  0  0
   22.9885  -20.5036   -6.7993 O   0  0  0  0  0  0  0  0  0  0  0  0
   24.3193  -19.0924   -7.9620 O   0  0  0  0  0  0  0  0  0  0  0  0
  1  2  1  0
  3  4  2  0
  3  2  1  0
  5  3  1  0
  6  5  1  0
  6  7  1  6
  8 13  1  0
  8  7  1  0
  9  8  2  0
 10  9  1  0
 10 11  2  0
 11 12  1  0
 12 13  2  0
 14  6  1  0
 15 14  2  0
 16 14  1  0
 17 18  1  1
 17 16  1  0
 18 19  1  0
 19 24  1  0
 19 20  2  0
 20 21  1  0
 21 22  2  0
 23 22  1  0
 24 23  2  0
 25 17  1  0
 26 25  2  0
 27 25  1  0
M  END
$$$$
