GFF.pdb
     RDKit          3D

 27 28  0  0  1  0  0  0  0  0999 V2000
   30.5790  -21.8767  -11.2771 N   0  0  0  0  0  0  0  0  0  0  0  0
   30.1058  -20.7510  -10.4838 C   0  0  0  0  0  0  0  0  0  0  0  0
   28.7195  -21.0127  -10.0692 C   0  0  0  0  0  0  0  0  0  0  0  0
   28.1400  -22.0738  -10.3628 O   0  0  0  0  0  0  0  0  0  0  0  0
   28.0325  -20.0140   -9.3102 N   0  0  0  0  0  0  0  0  0  0  0  0
   26.6669  -20.2505   -8.8879 C   0  0  1  0  0  0  0  0  0  0  0  0
   26.3455  -19.3649   -7.7223 C   0  0  0  0  0  0  0  0  0  0  0  0
   27.2407  -19.5808   -6.5579 C   0  0  0  0  0  0  0  0  0  0  0  0
   27.2167  -20.7748   -5.8823 C   0  0  0  0  0  0  0  0  0  0  0  0
   28.0622  -20.9724   -4.7927 C   0  0  0  0  0  0  0  0  0  0  0  0
   28.9256  -19.9881   -4.3782 C   0  0  0  0  0  0  0  0  0  0  0  0
   28.9588  -18.7822   -5.0500 C   0  0  0  0  0  0  0  0  0  0  0  0
   28.1221  -18.5871   -6.1281 C   0  0  0  0  0  0  0  0  0  0  0  0
   25.7865  -20.0678  -10.0637 C   0  0  0  0  0  0  0  0  0  0  0  0
   26.0681  -19.2290  -10.9812 O   0  0  0  0  0  0  0  0  0  0  0  0
   24.6029  -20.8210  -10.2041 N   0  0  0  0  0  0  0  0  0  0  0  0
   23.7121  -20.7187  -11.3416 C   0  0  1  0  0  0  0  0  0  0  0  0
   24.2640  -21.5430  -12.4587 C   0  0  0  0  0  0  0  0  0  0  0  0
   23.4383  -21.5724  -13.6677 C   0  0  0  0  0  0  0  0  0  0  0  0
   22.6859  -22.6811  -14.0006 C   0  0  0  0  0  0  0  0  0  0  0  0
   21.9097  -22.7047  -15.1295 C   0  0  0  0  0  0  0  0  0  0  0  0
   21.8595  -21.5980  -15.9793 C   0  0  0  0  0  0  0  0  0  0  0  0
   22.5998  -20.4803  -15.6707 C   0  0  0  0  0  0  0  0  0  0  0  0
   23.3671  -20.4863  -14.5342 C   0  0  0  0  0  0  0  0  0  0  0  0
   22.3108  -20.9721  -11.0035 C   0  0  0  0  0  0  0  0  0  0  0  0
   22.0082  -21.7989  -10.1246 O   0  0  0  0  0  0  0  0  0  0  0  0
   21.3157  -20.2912  -11.6613 O   0  0  0  0  0  0  0  0  0  0  0  0
  1  2  1  0
  3  4  2  0
  3  2  1  0
  5  3  1  0
  6  5  1  0
  6  7  1  1
  8 13  1  0
  8  7  1  0
  9  8  2  0
 10  9  1  0
 10 11  2  0
 11 12  1  0
 12 13  2  0
 14  6  1  0
 15 14  2  0
 16 14  1  0
 17 18  1  6
 17 16  1  0
 18 19  1  0
 19 24  1  0
 19 20  2  0
 20 21  1  0
 21 22  2  0
 23 22  1  0
 24 23  2  0
 25 17  1  0
 26 25  2  0
 27 25  1  0
M  END
$$$$
