GFF.pdb
     RDKit          3D

 27 28  0  0  1  0  0  0  0  0999 V2000
   28.3405  -22.5306  -16.2562 N   0  0  0  0  0  0  0  0  0  0  0  0
   28.6434  -21.3636  -15.4396 C   0  0  0  0  0  0  0  0  0  0  0  0
   28.0971  -21.5739  -14.0907 C   0  0  0  0  0  0  0  0  0  0  0  0
   27.2184  -22.4263  -13.8684 O   0  0  0  0  0  0  0  0  0  0  0  0
   28.5974  -20.7719  -13.0175 N   0  0  0  0  0  0  0  0  0  0  0  0
   27.9621  -20.8407  -11.7172 C   0  0  1  0  0  0  0  0  0  0  0  0
   28.8345  -20.1691  -10.7004 C   0  0  0  0  0  0  0  0  0  0  0  0
   28.2042  -20.0722   -9.3598 C   0  0  0  0  0  0  0  0  0  0  0  0
   27.1742  -19.1915   -9.1446 C   0  0  0  0  0  0  0  0  0  0  0  0
   26.5845  -19.1083   -7.8851 C   0  0  0  0  0  0  0  0  0  0  0  0
   27.0171  -19.8962   -6.8468 C   0  0  0  0  0  0  0  0  0  0  0  0
   28.0529  -20.7861   -7.0510 C   0  0  0  0  0  0  0  0  0  0  0  0
   28.6361  -20.8683   -8.2974 C   0  0  0  0  0  0  0  0  0  0  0  0
   26.6034  -20.2666  -11.8412 C   0  0  0  0  0  0  0  0  0  0  0  0
   26.3833  -19.2248  -12.5418 O   0  0  0  0  0  0  0  0  0  0  0  0
   25.5058  -20.8592  -11.1838 N   0  0  0  0  0  0  0  0  0  0  0  0
   24.1252  -20.5036  -11.4388 C   0  0  1  0  0  0  0  0  0  0  0  0
   23.7899  -20.8630  -12.8496 C   0  0  0  0  0  0  0  0  0  0  0  0
   22.4102  -20.5750  -13.2466 C   0  0  0  0  0  0  0  0  0  0  0  0
   21.4026  -21.5040  -13.0798 C   0  0  0  0  0  0  0  0  0  0  0  0
   20.1111  -21.2307  -13.4469 C   0  0  0  0  0  0  0  0  0  0  0  0
   19.7783  -19.9944  -14.0039 C   0  0  0  0  0  0  0  0  0  0  0  0
   20.7635  -19.0507  -14.1811 C   0  0  0  0  0  0  0  0  0  0  0  0
   22.0469  -19.3532  -13.8041 C   0  0  0  0  0  0  0  0  0  0  0  0
   23.2006  -21.0084  -10.4226 C   0  0  0  0  0  0  0  0  0  0  0  0
   23.3899  -22.1136   -9.8836 O   0  0  0  0  0  0  0  0  0  0  0  0
   22.1110  -20.2566  -10.0568 O   0  0  0  0  0  0  0  0  0  0  0  0
  1  2  1  0
  3  4  2  0
  3  2  1  0
  5  3  1  0
  6  5  1  0
  6  7  1  1
  8 13  1  0
  8  7  1  0
  9  8  2  0
 10  9  1  0
 10 11  2  0
 11 12  1  0
 12 13  2  0
 14  6  1  0
 15 14  2  0
 16 14  1  0
 17 18  1  6
 17 16  1  0
 18 19  1  0
 19 24  1  0
 19 20  2  0
 20 21  1  0
 21 22  2  0
 23 22  1  0
 24 23  2  0
 25 17  1  0
 26 25  2  0
 27 25  1  0
M  END
$$$$
