GFF.pdb
     RDKit          3D

 27 28  0  0  1  0  0  0  0  0999 V2000
   28.8859  -19.8515  -15.4721 N   0  0  0  0  0  0  0  0  0  0  0  0
   27.8177  -20.7907  -15.1602 C   0  0  0  0  0  0  0  0  0  0  0  0
   27.1261  -20.3358  -13.9450 C   0  0  0  0  0  0  0  0  0  0  0  0
   27.3000  -19.1931  -13.4845 O   0  0  0  0  0  0  0  0  0  0  0  0
   26.2345  -21.2396  -13.2864 N   0  0  0  0  0  0  0  0  0  0  0  0
   25.3907  -20.7560  -12.2125 C   0  0  1  0  0  0  0  0  0  0  0  0
   23.9947  -21.2649  -12.4082 C   0  0  0  0  0  0  0  0  0  0  0  0
   23.0145  -20.6628  -11.4699 C   0  0  0  0  0  0  0  0  0  0  0  0
   22.3903  -19.4832  -11.7888 C   0  0  0  0  0  0  0  0  0  0  0  0
   21.4685  -18.9254  -10.9056 C   0  0  0  0  0  0  0  0  0  0  0  0
   21.1701  -19.5375   -9.7129 C   0  0  0  0  0  0  0  0  0  0  0  0
   21.7919  -20.7247   -9.3808 C   0  0  0  0  0  0  0  0  0  0  0  0
   22.7039  -21.2764  -10.2550 C   0  0  0  0  0  0  0  0  0  0  0  0
   26.0161  -21.1458  -10.9288 C   0  0  0  0  0  0  0  0  0  0  0  0
   26.5072  -22.3091  -10.7547 O   0  0  0  0  0  0  0  0  0  0  0  0
   26.0873  -20.2360   -9.8540 N   0  0  0  0  0  0  0  0  0  0  0  0
   26.5718  -20.5835   -8.5341 C   0  0  1  0  0  0  0  0  0  0  0  0
   27.6715  -19.6426   -8.1636 C   0  0  0  0  0  0  0  0  0  0  0  0
   28.1322  -19.7497   -6.7778 C   0  0  0  0  0  0  0  0  0  0  0  0
   29.1557  -20.6052   -6.4219 C   0  0  0  0  0  0  0  0  0  0  0  0
   29.5891  -20.7001   -5.1255 C   0  0  0  0  0  0  0  0  0  0  0  0
   29.0011  -19.9270   -4.1225 C   0  0  0  0  0  0  0  0  0  0  0  0
   27.9791  -19.0664   -4.4502 C   0  0  0  0  0  0  0  0  0  0  0  0
   27.5671  -18.9932   -5.7561 C   0  0  0  0  0  0  0  0  0  0  0  0
   25.5029  -20.7252   -7.5443 C   0  0  0  0  0  0  0  0  0  0  0  0
   25.5685  -21.5956   -6.6578 O   0  0  0  0  0  0  0  0  0  0  0  0
   24.4138  -19.8897   -7.5910 O   0  0  0  0  0  0  0  0  0  0  0  0
  1  2  1  0
  3  4  2  0
  3  2  1  0
  5  3  1  0
  6  5  1  0
  6  7  1  6
  8 13  1  0
  8  7  1  0
  9  8  2  0
 10  9  1  0
 10 11  2  0
 11 12  1  0
 12 13  2  0
 14  6  1  0
 15 14  2  0
 16 14  1  0
 17 18  1  1
 17 16  1  0
 18 19  1  0
 19 24  1  0
 19 20  2  0
 20 21  1  0
 21 22  2  0
 23 22  1  0
 24 23  2  0
 25 17  1  0
 26 25  2  0
 27 25  1  0
M  END
$$$$
