GFF.pdb
     RDKit          3D

 27 28  0  0  1  0  0  0  0  0999 V2000
   24.9315  -13.3958  -18.7289 N   0  0  0  0  0  0  0  0  0  0  0  0
   23.7269  -14.2113  -18.7957 C   0  0  0  0  0  0  0  0  0  0  0  0
   24.0853  -15.6102  -18.5187 C   0  0  0  0  0  0  0  0  0  0  0  0
   24.7545  -16.2836  -19.3228 O   0  0  0  0  0  0  0  0  0  0  0  0
   23.6470  -16.1982  -17.2909 N   0  0  0  0  0  0  0  0  0  0  0  0
   23.9360  -17.5924  -17.0227 C   0  0  1  0  0  0  0  0  0  0  0  0
   24.8182  -17.6950  -15.8156 C   0  0  0  0  0  0  0  0  0  0  0  0
   26.0102  -16.8129  -15.8841 C   0  0  0  0  0  0  0  0  0  0  0  0
   27.1033  -17.1879  -16.6238 C   0  0  0  0  0  0  0  0  0  0  0  0
   28.2173  -16.3536  -16.6871 C   0  0  0  0  0  0  0  0  0  0  0  0
   28.2432  -15.1543  -16.0185 C   0  0  0  0  0  0  0  0  0  0  0  0
   27.1493  -14.7661  -15.2707 C   0  0  0  0  0  0  0  0  0  0  0  0
   26.0472  -15.5918  -15.2084 C   0  0  0  0  0  0  0  0  0  0  0  0
   22.6479  -18.3128  -16.9095 C   0  0  0  0  0  0  0  0  0  0  0  0
   22.5999  -19.5386  -16.5634 O   0  0  0  0  0  0  0  0  0  0  0  0
   21.4284  -17.6599  -17.1828 N   0  0  0  0  0  0  0  0  0  0  0  0
   20.1508  -18.3377  -17.2608 C   0  0  1  0  0  0  0  0  0  0  0  0
   19.1626  -17.5967  -16.4204 C   0  0  0  0  0  0  0  0  0  0  0  0
   17.7834  -18.0775  -16.5245 C   0  0  0  0  0  0  0  0  0  0  0  0
   16.9230  -17.5973  -17.4916 C   0  0  0  0  0  0  0  0  0  0  0  0
   15.6344  -18.0524  -17.5909 C   0  0  0  0  0  0  0  0  0  0  0  0
   15.1545  -19.0221  -16.7085 C   0  0  0  0  0  0  0  0  0  0  0  0
   15.9913  -19.5175  -15.7353 C   0  0  0  0  0  0  0  0  0  0  0  0
   17.2756  -19.0427  -15.6608 C   0  0  0  0  0  0  0  0  0  0  0  0
   19.7271  -18.6171  -18.6337 C   0  0  0  0  0  0  0  0  0  0  0  0
   19.8966  -17.7766  -19.5350 O   0  0  0  0  0  0  0  0  0  0  0  0
   19.1358  -19.8198  -18.9345 O   0  0  0  0  0  0  0  0  0  0  0  0
  1  2  1  0
  3  4  2  0
  3  2  1  0
  5  3  1  0
  6  5  1  0
  6  7  1  1
  8 13  1  0
  8  7  1  0
  9  8  2  0
 10  9  1  0
 10 11  2  0
 11 12  1  0
 12 13  2  0
 14  6  1  0
 15 14  2  0
 16 14  1  0
 17 18  1  6
 17 16  1  0
 18 19  1  0
 19 24  1  0
 19 20  2  0
 20 21  1  0
 21 22  2  0
 23 22  1  0
 24 23  2  0
 25 17  1  0
 26 25  2  0
 27 25  1  0
M  END
$$$$
