GFF.pdb
     RDKit          3D

 27 28  0  0  1  0  0  0  0  0999 V2000
   30.3111    3.0858   -6.4089 N   0  0  0  0  0  0  0  0  0  0  0  0
   29.8438    3.5181   -5.0992 C   0  0  0  0  0  0  0  0  0  0  0  0
   28.7476    2.6361   -4.6720 C   0  0  0  0  0  0  0  0  0  0  0  0
   28.2497    1.7947   -5.4415 O   0  0  0  0  0  0  0  0  0  0  0  0
   28.2514    2.7595   -3.3364 N   0  0  0  0  0  0  0  0  0  0  0  0
   27.1781    1.8948   -2.8897 C   0  0  1  0  0  0  0  0  0  0  0  0
   27.3103    1.6575   -1.4158 C   0  0  0  0  0  0  0  0  0  0  0  0
   26.2796    0.7356   -0.8758 C   0  0  0  0  0  0  0  0  0  0  0  0
   26.5144   -0.6159   -0.8406 C   0  0  0  0  0  0  0  0  0  0  0  0
   25.5445   -1.4752   -0.3289 C   0  0  0  0  0  0  0  0  0  0  0  0
   24.3489   -0.9927    0.1442 C   0  0  0  0  0  0  0  0  0  0  0  0
   24.1010    0.3652    0.1138 C   0  0  0  0  0  0  0  0  0  0  0  0
   25.0610    1.2153   -0.3924 C   0  0  0  0  0  0  0  0  0  0  0  0
   25.8955    2.5065   -3.3042 C   0  0  0  0  0  0  0  0  0  0  0  0
   25.7444    3.7715   -3.3440 O   0  0  0  0  0  0  0  0  0  0  0  0
   24.7963    1.7025   -3.6695 N   0  0  0  0  0  0  0  0  0  0  0  0
   23.5571    2.2264   -4.2060 C   0  0  1  0  0  0  0  0  0  0  0  0
   23.1110    1.3477   -5.3288 C   0  0  0  0  0  0  0  0  0  0  0  0
   23.9204    1.4452   -6.5452 C   0  0  0  0  0  0  0  0  0  0  0  0
   23.7021    2.4380   -7.4794 C   0  0  0  0  0  0  0  0  0  0  0  0
   24.4641    2.5308   -8.6144 C   0  0  0  0  0  0  0  0  0  0  0  0
   25.4900    1.6154   -8.8570 C   0  0  0  0  0  0  0  0  0  0  0  0
   25.7287    0.6161   -7.9420 C   0  0  0  0  0  0  0  0  0  0  0  0
   24.9495    0.5488   -6.8156 C   0  0  0  0  0  0  0  0  0  0  0  0
   22.5505    2.4966   -3.1783 C   0  0  0  0  0  0  0  0  0  0  0  0
   21.4972    3.0950   -3.4617 O   0  0  0  0  0  0  0  0  0  0  0  0
   22.7671    2.0862   -1.8856 O   0  0  0  0  0  0  0  0  0  0  0  0
  1  2  1  0
  3  4  2  0
  3  2  1  0
  5  3  1  0
  6  5  1  0
  6  7  1  1
  8 13  1  0
  8  7  1  0
  9  8  2  0
 10  9  1  0
 10 11  2  0
 11 12  1  0
 12 13  2  0
 14  6  1  0
 15 14  2  0
 16 14  1  0
 17 18  1  6
 17 16  1  0
 18 19  1  0
 19 24  1  0
 19 20  2  0
 20 21  1  0
 21 22  2  0
 23 22  1  0
 24 23  2  0
 25 17  1  0
 26 25  2  0
 27 25  1  0
M  END
$$$$
