GFF.pdb
     RDKit          3D

 27 28  0  0  1  0  0  0  0  0999 V2000
   25.0034  -23.0962  -14.6803 N   0  0  0  0  0  0  0  0  0  0  0  0
   24.4344  -22.1021  -13.7812 C   0  0  0  0  0  0  0  0  0  0  0  0
   25.1235  -22.1854  -12.4850 C   0  0  0  0  0  0  0  0  0  0  0  0
   25.2855  -23.2720  -11.9010 O   0  0  0  0  0  0  0  0  0  0  0  0
   25.6144  -20.9798  -11.8926 N   0  0  0  0  0  0  0  0  0  0  0  0
   26.3079  -21.0385  -10.6219 C   0  0  1  0  0  0  0  0  0  0  0  0
   27.3044  -19.9216  -10.5462 C   0  0  0  0  0  0  0  0  0  0  0  0
   28.1675  -19.9869   -9.3401 C   0  0  0  0  0  0  0  0  0  0  0  0
   29.2789  -20.7916   -9.3310 C   0  0  0  0  0  0  0  0  0  0  0  0
   30.0869  -20.8454   -8.1973 C   0  0  0  0  0  0  0  0  0  0  0  0
   29.7907  -20.1033   -7.0802 C   0  0  0  0  0  0  0  0  0  0  0  0
   28.6749  -19.2900   -7.0774 C   0  0  0  0  0  0  0  0  0  0  0  0
   27.8757  -19.2370   -8.1994 C   0  0  0  0  0  0  0  0  0  0  0  0
   25.2917  -21.0336   -9.5456 C   0  0  0  0  0  0  0  0  0  0  0  0
   24.1529  -20.4849   -9.7091 O   0  0  0  0  0  0  0  0  0  0  0  0
   25.5554  -21.6398   -8.3002 N   0  0  0  0  0  0  0  0  0  0  0  0
   24.5839  -21.7402   -7.2306 C   0  0  1  0  0  0  0  0  0  0  0  0
   25.2287  -22.4038   -6.0577 C   0  0  0  0  0  0  0  0  0  0  0  0
   26.1413  -21.5511   -5.2933 C   0  0  0  0  0  0  0  0  0  0  0  0
   25.6883  -20.4410   -4.6089 C   0  0  0  0  0  0  0  0  0  0  0  0
   26.5429  -19.6473   -3.8897 C   0  0  0  0  0  0  0  0  0  0  0  0
   27.9059  -19.9440   -3.8303 C   0  0  0  0  0  0  0  0  0  0  0  0
   28.3836  -21.0446   -4.5033 C   0  0  0  0  0  0  0  0  0  0  0  0
   27.5041  -21.8199   -5.2146 C   0  0  0  0  0  0  0  0  0  0  0  0
   23.9052  -20.4752   -6.9451 C   0  0  0  0  0  0  0  0  0  0  0  0
   24.3765  -19.3961   -7.3462 O   0  0  0  0  0  0  0  0  0  0  0  0
   22.7344  -20.4754   -6.2269 O   0  0  0  0  0  0  0  0  0  0  0  0
  1  2  1  0
  3  4  2  0
  3  2  1  0
  5  3  1  0
  6  5  1  0
  6  7  1  1
  8 13  1  0
  8  7  1  0
  9  8  2  0
 10  9  1  0
 10 11  2  0
 11 12  1  0
 12 13  2  0
 14  6  1  0
 15 14  2  0
 16 14  1  0
 17 18  1  1
 17 16  1  0
 18 19  1  0
 19 24  1  0
 19 20  2  0
 20 21  1  0
 21 22  2  0
 23 22  1  0
 24 23  2  0
 25 17  1  0
 26 25  2  0
 27 25  1  0
M  END
$$$$
