GFF.pdb
     RDKit          3D

 27 28  0  0  1  0  0  0  0  0999 V2000
   28.0024  -22.3825  -15.8746 N   0  0  0  0  0  0  0  0  0  0  0  0
   27.6031  -21.1671  -15.1791 C   0  0  0  0  0  0  0  0  0  0  0  0
   27.0633  -21.5309  -13.8606 C   0  0  0  0  0  0  0  0  0  0  0  0
   26.5972  -22.6625  -13.6361 O   0  0  0  0  0  0  0  0  0  0  0  0
   27.0808  -20.5500  -12.8200 N   0  0  0  0  0  0  0  0  0  0  0  0
   26.4660  -20.8513  -11.5431 C   0  0  1  0  0  0  0  0  0  0  0  0
   27.2863  -20.2516  -10.4414 C   0  0  0  0  0  0  0  0  0  0  0  0
   28.6814  -20.7579  -10.4074 C   0  0  0  0  0  0  0  0  0  0  0  0
   29.1885  -21.3035   -9.2550 C   0  0  0  0  0  0  0  0  0  0  0  0
   30.4974  -21.7803   -9.2309 C   0  0  0  0  0  0  0  0  0  0  0  0
   31.2961  -21.7144  -10.3461 C   0  0  0  0  0  0  0  0  0  0  0  0
   30.7971  -21.1674  -11.5115 C   0  0  0  0  0  0  0  0  0  0  0  0
   29.5020  -20.6958  -11.5351 C   0  0  0  0  0  0  0  0  0  0  0  0
   25.0616  -20.3862  -11.5908 C   0  0  0  0  0  0  0  0  0  0  0  0
   24.7392  -19.2068  -11.2303 O   0  0  0  0  0  0  0  0  0  0  0  0
   24.0327  -21.2396  -12.0392 N   0  0  0  0  0  0  0  0  0  0  0  0
   22.6796  -20.7987  -12.3089 C   0  0  1  0  0  0  0  0  0  0  0  0
   22.7359  -19.5517  -13.1297 C   0  0  0  0  0  0  0  0  0  0  0  0
   23.2226  -19.7375  -14.4982 C   0  0  0  0  0  0  0  0  0  0  0  0
   24.3620  -19.1028  -14.9510 C   0  0  0  0  0  0  0  0  0  0  0  0
   24.8189  -19.2822  -16.2303 C   0  0  0  0  0  0  0  0  0  0  0  0
   24.1375  -20.1188  -17.1163 C   0  0  0  0  0  0  0  0  0  0  0  0
   22.9991  -20.7633  -16.6905 C   0  0  0  0  0  0  0  0  0  0  0  0
   22.5663  -20.5641  -15.4046 C   0  0  0  0  0  0  0  0  0  0  0  0
   21.8190  -21.8604  -12.8329 C   0  0  0  0  0  0  0  0  0  0  0  0
   20.5938  -21.6832  -12.9558 O   0  0  0  0  0  0  0  0  0  0  0  0
   22.3664  -23.0670  -13.1947 O   0  0  0  0  0  0  0  0  0  0  0  0
  1  2  1  0
  3  4  2  0
  3  2  1  0
  5  3  1  0
  6  5  1  0
  6  7  1  1
  8 13  1  0
  8  7  1  0
  9  8  2  0
 10  9  1  0
 10 11  2  0
 11 12  1  0
 12 13  2  0
 14  6  1  0
 15 14  2  0
 16 14  1  0
 17 18  1  6
 17 16  1  0
 18 19  1  0
 19 24  1  0
 19 20  2  0
 20 21  1  0
 21 22  2  0
 23 22  1  0
 24 23  2  0
 25 17  1  0
 26 25  2  0
 27 25  1  0
M  END
$$$$
