GFF.pdb
     RDKit          3D

 27 28  0  0  1  0  0  0  0  0999 V2000
   28.2731  -18.5197  -17.9876 N   0  0  0  0  0  0  0  0  0  0  0  0
   27.0439  -19.2837  -17.8269 C   0  0  0  0  0  0  0  0  0  0  0  0
   26.2989  -18.7473  -16.6782 C   0  0  0  0  0  0  0  0  0  0  0  0
   26.8727  -18.1487  -15.7505 O   0  0  0  0  0  0  0  0  0  0  0  0
   24.8804  -18.9252  -16.6396 N   0  0  0  0  0  0  0  0  0  0  0  0
   24.1300  -18.4411  -15.4987 C   0  0  1  0  0  0  0  0  0  0  0  0
   22.9320  -17.6785  -15.9777 C   0  0  0  0  0  0  0  0  0  0  0  0
   23.2626  -16.3191  -16.4742 C   0  0  0  0  0  0  0  0  0  0  0  0
   23.2622  -16.0587  -17.8214 C   0  0  0  0  0  0  0  0  0  0  0  0
   23.5696  -14.7798  -18.2806 C   0  0  0  0  0  0  0  0  0  0  0  0
   23.8755  -13.7670  -17.4049 C   0  0  0  0  0  0  0  0  0  0  0  0
   23.8794  -14.0170  -16.0470 C   0  0  0  0  0  0  0  0  0  0  0  0
   23.5751  -15.2825  -15.5930 C   0  0  0  0  0  0  0  0  0  0  0  0
   23.8186  -19.5995  -14.6313 C   0  0  0  0  0  0  0  0  0  0  0  0
   23.5322  -20.7401  -15.1229 O   0  0  0  0  0  0  0  0  0  0  0  0
   23.8298  -19.4742  -13.2270 N   0  0  0  0  0  0  0  0  0  0  0  0
   23.5469  -20.5657  -12.3178 C   0  0  1  0  0  0  0  0  0  0  0  0
   24.5520  -20.5424  -11.2128 C   0  0  0  0  0  0  0  0  0  0  0  0
   25.9443  -20.6818  -11.6446 C   0  0  0  0  0  0  0  0  0  0  0  0
   26.5837  -21.9054  -11.6345 C   0  0  0  0  0  0  0  0  0  0  0  0
   27.8848  -22.0347  -12.0441 C   0  0  0  0  0  0  0  0  0  0  0  0
   28.6035  -20.9223  -12.4860 C   0  0  0  0  0  0  0  0  0  0  0  0
   27.9899  -19.6911  -12.5061 C   0  0  0  0  0  0  0  0  0  0  0  0
   26.6869  -19.5930  -12.0902 C   0  0  0  0  0  0  0  0  0  0  0  0
   22.1465  -20.6184  -11.8955 C   0  0  0  0  0  0  0  0  0  0  0  0
   21.7018  -21.6101  -11.2901 O   0  0  0  0  0  0  0  0  0  0  0  0
   21.3107  -19.5631  -12.1683 O   0  0  0  0  0  0  0  0  0  0  0  0
  1  2  1  0
  3  4  2  0
  3  2  1  0
  5  3  1  0
  6  5  1  0
  6  7  1  6
  8 13  1  0
  8  7  1  0
  9  8  2  0
 10  9  1  0
 10 11  2  0
 11 12  1  0
 12 13  2  0
 14  6  1  0
 15 14  2  0
 16 14  1  0
 17 18  1  1
 17 16  1  0
 18 19  1  0
 19 24  1  0
 19 20  2  0
 20 21  1  0
 21 22  2  0
 23 22  1  0
 24 23  2  0
 25 17  1  0
 26 25  2  0
 27 25  1  0
M  END
$$$$
