GFF.pdb
     RDKit          3D

 27 28  0  0  1  0  0  0  0  0999 V2000
   24.3717   -1.6317    9.0822 N   0  0  0  0  0  0  0  0  0  0  0  0
   23.5534   -0.8857    8.1365 C   0  0  0  0  0  0  0  0  0  0  0  0
   24.3020   -0.7315    6.8803 C   0  0  0  0  0  0  0  0  0  0  0  0
   25.4906   -0.3641    6.8701 O   0  0  0  0  0  0  0  0  0  0  0  0
   23.6346   -1.0142    5.6474 N   0  0  0  0  0  0  0  0  0  0  0  0
   24.3423   -0.8400    4.3951 C   0  0  1  0  0  0  0  0  0  0  0  0
   24.1750   -2.0688    3.5535 C   0  0  0  0  0  0  0  0  0  0  0  0
   24.6766   -1.9017    2.1663 C   0  0  0  0  0  0  0  0  0  0  0  0
   25.9995   -1.6149    1.9417 C   0  0  0  0  0  0  0  0  0  0  0  0
   26.4645   -1.4632    0.6372 C   0  0  0  0  0  0  0  0  0  0  0  0
   25.6185   -1.5958   -0.4365 C   0  0  0  0  0  0  0  0  0  0  0  0
   24.2852   -1.8842   -0.2232 C   0  0  0  0  0  0  0  0  0  0  0  0
   23.8254   -2.0343    1.0677 C   0  0  0  0  0  0  0  0  0  0  0  0
   23.8587    0.4098    3.7666 C   0  0  0  0  0  0  0  0  0  0  0  0
   22.6142    0.6371    3.6107 O   0  0  0  0  0  0  0  0  0  0  0  0
   24.7663    1.3916    3.3190 N   0  0  0  0  0  0  0  0  0  0  0  0
   24.3760    2.5706    2.5737 C   0  0  1  0  0  0  0  0  0  0  0  0
   24.2449    3.7166    3.5230 C   0  0  0  0  0  0  0  0  0  0  0  0
   25.5102    4.3477    3.9039 C   0  0  0  0  0  0  0  0  0  0  0  0
   25.9970    4.2673    5.1934 C   0  0  0  0  0  0  0  0  0  0  0  0
   27.1838    4.8539    5.5466 C   0  0  0  0  0  0  0  0  0  0  0  0
   27.9377    5.5541    4.6029 C   0  0  0  0  0  0  0  0  0  0  0  0
   27.4753    5.6495    3.3108 C   0  0  0  0  0  0  0  0  0  0  0  0
   26.2841    5.0521    2.9872 C   0  0  0  0  0  0  0  0  0  0  0  0
   25.2149    2.8167    1.3998 C   0  0  0  0  0  0  0  0  0  0  0  0
   26.3314    2.2788    1.2921 O   0  0  0  0  0  0  0  0  0  0  0  0
   24.7678    3.6499    0.4036 O   0  0  0  0  0  0  0  0  0  0  0  0
  1  2  1  0
  3  4  2  0
  3  2  1  0
  5  3  1  0
  6  5  1  0
  6  7  1  6
  8 13  1  0
  8  7  1  0
  9  8  2  0
 10  9  1  0
 10 11  2  0
 11 12  1  0
 12 13  2  0
 14  6  1  0
 15 14  2  0
 16 14  1  0
 17 18  1  1
 17 16  1  0
 18 19  1  0
 19 24  1  0
 19 20  2  0
 20 21  1  0
 21 22  2  0
 23 22  1  0
 24 23  2  0
 25 17  1  0
 26 25  2  0
 27 25  1  0
M  END
$$$$
