CTD.pdb
     RDKit          3D

 22 21  0  0  1  0  0  0  0  0999 V2000
   16.7994  -13.1342  -15.3213 N   0  0  0  0  0  0  0  0  0  0  0  0
   17.0190  -11.8935  -16.0358 C   0  0  1  0  0  0  0  0  0  0  0  0
   16.0662  -10.8595  -15.4478 C   0  0  0  0  0  0  0  0  0  0  0  0
   14.3868  -11.3616  -15.8937 S   0  0  0  0  0  0  0  0  0  0  0  0
   18.4230  -11.4538  -15.8094 C   0  0  0  0  0  0  0  0  0  0  0  0
   19.0391  -11.6496  -14.7441 O   0  0  0  0  0  0  0  0  0  0  0  0
   22.6049   -9.9990  -17.9767 C   0  0  0  0  0  0  0  0  0  0  0  0
   21.2005  -10.5485  -18.0148 C   0  0  1  0  0  0  0  0  0  0  0  0
   21.2814  -11.9284  -18.1782 O   0  0  0  0  0  0  0  0  0  0  0  0
   20.4863  -10.3118  -16.6812 C   0  0  2  0  0  0  0  0  0  0  0  0
   19.1301  -10.7675  -16.8501 N   0  0  0  0  0  0  0  0  0  0  0  0
   20.4861   -8.8895  -16.3276 C   0  0  0  0  0  0  0  0  0  0  0  0
   19.7637   -8.0683  -16.9264 O   0  0  0  0  0  0  0  0  0  0  0  0
   21.3163   -8.3945  -15.2815 N   0  0  0  0  0  0  0  0  0  0  0  0
   21.3851   -7.0074  -14.9213 C   0  0  1  0  0  0  0  0  0  0  0  0
   21.9478   -6.7579  -13.5596 C   0  0  0  0  0  0  0  0  0  0  0  0
   22.0942   -5.3618  -13.1841 C   0  0  0  0  0  0  0  0  0  0  0  0
   21.0778   -4.6364  -13.0769 O   0  0  0  0  0  0  0  0  0  0  0  0
   22.0118   -6.2275  -15.9877 C   0  0  0  0  0  0  0  0  0  0  0  0
   23.1279   -6.6667  -16.6774 O   0  0  0  0  0  0  0  0  0  0  0  0
   23.3189   -4.7716  -12.9317 O   0  0  0  0  0  0  0  0  0  0  0  0
   21.5378   -5.1140  -16.3081 O   0  0  0  0  0  0  0  0  0  0  0  0
  2  1  1  1
  2  5  1  0
  2  3  1  0
  4  3  1  0
  5 11  1  0
  6  5  2  0
  8  7  1  1
  8  9  1  0
 10  8  1  0
 10 12  1  0
 10 11  1  6
 12 13  2  0
 12 14  1  0
 14 15  1  0
 15 16  1  1
 17 16  1  0
 17 21  1  0
 18 17  2  0
 19 15  1  0
 19 20  1  0
 22 19  2  0
M  END
$$$$
