CTD.pdb
     RDKit          3D

 22 21  0  0  1  0  0  0  0  0999 V2000
   28.1671  -11.6962  -18.6662 N   0  0  0  0  0  0  0  0  0  0  0  0
   28.4285  -10.5744  -17.7879 C   0  0  1  0  0  0  0  0  0  0  0  0
   28.0743  -11.0170  -16.3732 C   0  0  0  0  0  0  0  0  0  0  0  0
   26.2848  -11.2748  -16.3233 S   0  0  0  0  0  0  0  0  0  0  0  0
   29.8790  -10.2455  -17.8518 C   0  0  0  0  0  0  0  0  0  0  0  0
   30.7736  -11.1075  -17.9483 O   0  0  0  0  0  0  0  0  0  0  0  0
   31.0619   -7.0080  -19.8585 C   0  0  0  0  0  0  0  0  0  0  0  0
   31.9036   -8.1833  -19.4272 C   0  0  1  0  0  0  0  0  0  0  0  0
   33.2425   -7.8264  -19.5588 O   0  0  0  0  0  0  0  0  0  0  0  0
   31.6830   -8.4968  -17.9448 C   0  0  2  0  0  0  0  0  0  0  0  0
   30.3008   -8.8766  -17.8021 N   0  0  0  0  0  0  0  0  0  0  0  0
   31.9587   -7.3238  -17.1105 C   0  0  0  0  0  0  0  0  0  0  0  0
   31.0641   -6.5055  -16.8188 O   0  0  0  0  0  0  0  0  0  0  0  0
   33.2660   -7.0775  -16.6016 N   0  0  0  0  0  0  0  0  0  0  0  0
   33.5935   -5.9394  -15.7917 C   0  0  1  0  0  0  0  0  0  0  0  0
   34.8530   -6.0944  -15.0025 C   0  0  0  0  0  0  0  0  0  0  0  0
   35.1904   -4.9832  -14.1290 C   0  0  0  0  0  0  0  0  0  0  0  0
   34.3035   -4.1634  -13.7942 O   0  0  0  0  0  0  0  0  0  0  0  0
   33.5184   -4.7082  -16.5768 C   0  0  0  0  0  0  0  0  0  0  0  0
   32.7214   -3.6374  -16.2127 O   0  0  0  0  0  0  0  0  0  0  0  0
   36.4636   -4.7717  -13.6329 O   0  0  0  0  0  0  0  0  0  0  0  0
   34.1932   -4.5938  -17.6250 O   0  0  0  0  0  0  0  0  0  0  0  0
  2  1  1  6
  2  5  1  0
  2  3  1  0
  4  3  1  0
  5 11  1  0
  6  5  2  0
  8  7  1  1
  8  9  1  0
 10  8  1  0
 10 12  1  0
 10 11  1  6
 12 13  2  0
 12 14  1  0
 14 15  1  0
 15 16  1  6
 17 16  1  0
 17 21  1  0
 18 17  2  0
 19 15  1  0
 19 20  1  0
 22 19  2  0
M  END
$$$$
