CTD.pdb
     RDKit          3D

 22 21  0  0  1  0  0  0  0  0999 V2000
   16.1507  -10.4004  -12.3147 N   0  0  0  0  0  0  0  0  0  0  0  0
   16.5674   -9.4860  -13.3579 C   0  0  1  0  0  0  0  0  0  0  0  0
   15.3764   -8.5889  -13.6736 C   0  0  0  0  0  0  0  0  0  0  0  0
   14.2263   -9.5571  -14.6791 S   0  0  0  0  0  0  0  0  0  0  0  0
   17.6883   -8.6526  -12.8430 C   0  0  0  0  0  0  0  0  0  0  0  0
   17.8005   -8.3177  -11.6481 O   0  0  0  0  0  0  0  0  0  0  0  0
   21.2709   -8.4330  -15.0371 C   0  0  0  0  0  0  0  0  0  0  0  0
   21.0851   -8.1855  -13.5606 C   0  0  1  0  0  0  0  0  0  0  0  0
   22.1441   -7.3976  -13.1186 O   0  0  0  0  0  0  0  0  0  0  0  0
   19.8088   -7.3811  -13.2991 C   0  0  2  0  0  0  0  0  0  0  0  0
   18.7066   -8.1960  -13.7423 N   0  0  0  0  0  0  0  0  0  0  0  0
   19.8179   -6.1195  -14.0449 C   0  0  0  0  0  0  0  0  0  0  0  0
   19.5480   -6.0787  -15.2616 O   0  0  0  0  0  0  0  0  0  0  0  0
   20.1374   -4.8899  -13.4009 N   0  0  0  0  0  0  0  0  0  0  0  0
   20.1170   -3.6219  -14.0717 C   0  0  1  0  0  0  0  0  0  0  0  0
   19.0510   -2.6929  -13.5881 C   0  0  0  0  0  0  0  0  0  0  0  0
   18.9459   -1.4296  -14.2985 C   0  0  0  0  0  0  0  0  0  0  0  0
   19.6314   -1.2368  -15.3298 O   0  0  0  0  0  0  0  0  0  0  0  0
   21.4567   -3.0375  -14.1122 C   0  0  0  0  0  0  0  0  0  0  0  0
   21.7652   -1.9286  -14.8800 O   0  0  0  0  0  0  0  0  0  0  0  0
   18.1136   -0.4022  -13.8939 O   0  0  0  0  0  0  0  0  0  0  0  0
   22.3793   -3.5430  -13.4336 O   0  0  0  0  0  0  0  0  0  0  0  0
  2  1  1  1
  2  5  1  0
  2  3  1  0
  4  3  1  0
  5 11  1  0
  6  5  2  0
  8  7  1  6
  8  9  1  0
 10  8  1  0
 10 12  1  0
 10 11  1  6
 12 13  2  0
 12 14  1  0
 14 15  1  0
 15 16  1  1
 17 16  1  0
 17 21  1  0
 18 17  2  0
 19 15  1  0
 19 20  1  0
 22 19  2  0
M  END
$$$$
