CTD.pdb
     RDKit          3D

 22 21  0  0  1  0  0  0  0  0999 V2000
   17.7969  -14.2528  -16.1081 N   0  0  0  0  0  0  0  0  0  0  0  0
   17.7116  -12.8319  -16.3760 C   0  0  1  0  0  0  0  0  0  0  0  0
   16.6617  -12.2571  -15.4324 C   0  0  0  0  0  0  0  0  0  0  0  0
   15.0464  -12.8219  -16.0181 S   0  0  0  0  0  0  0  0  0  0  0  0
   19.0315  -12.2100  -16.0809 C   0  0  0  0  0  0  0  0  0  0  0  0
   19.8387  -12.6754  -15.2536 O   0  0  0  0  0  0  0  0  0  0  0  0
   21.8579  -11.6815  -18.3127 C   0  0  0  0  0  0  0  0  0  0  0  0
   21.4162  -10.3080  -17.8720 C   0  0  1  0  0  0  0  0  0  0  0  0
   20.4871   -9.8368  -18.7952 O   0  0  0  0  0  0  0  0  0  0  0  0
   20.6917  -10.3748  -16.5247 C   0  0  2  0  0  0  0  0  0  0  0  0
   19.4236  -11.0141  -16.7666 N   0  0  0  0  0  0  0  0  0  0  0  0
   20.4692   -9.0333  -15.9779 C   0  0  0  0  0  0  0  0  0  0  0  0
   19.3589   -8.4715  -16.0591 O   0  0  0  0  0  0  0  0  0  0  0  0
   21.5202   -8.3218  -15.3316 N   0  0  0  0  0  0  0  0  0  0  0  0
   21.3667   -6.9943  -14.8096 C   0  0  1  0  0  0  0  0  0  0  0  0
   22.3353   -6.6493  -13.7252 C   0  0  0  0  0  0  0  0  0  0  0  0
   22.2215   -5.3063  -13.1820 C   0  0  0  0  0  0  0  0  0  0  0  0
   21.1423   -4.9335  -12.6653 O   0  0  0  0  0  0  0  0  0  0  0  0
   21.3000   -6.0171  -15.8953 C   0  0  0  0  0  0  0  0  0  0  0  0
   20.4755   -4.9069  -15.8516 O   0  0  0  0  0  0  0  0  0  0  0  0
   23.2593   -4.3928  -13.2021 O   0  0  0  0  0  0  0  0  0  0  0  0
   22.0080   -6.1690  -16.9165 O   0  0  0  0  0  0  0  0  0  0  0  0
  2  1  1  1
  2  5  1  0
  2  3  1  0
  4  3  1  0
  5 11  1  0
  6  5  2  0
  8  7  1  6
  8  9  1  0
 10  8  1  0
 10 12  1  0
 10 11  1  6
 12 13  2  0
 12 14  1  0
 14 15  1  0
 15 16  1  1
 17 16  1  0
 17 21  1  0
 18 17  2  0
 19 15  1  0
 19 20  1  0
 22 19  2  0
M  END
$$$$
