CTD.pdb
     RDKit          3D

 22 21  0  0  1  0  0  0  0  0999 V2000
   19.9318  -15.1408  -16.3884 N   0  0  0  0  0  0  0  0  0  0  0  0
   20.0625  -13.8756  -17.0813 C   0  0  1  0  0  0  0  0  0  0  0  0
   18.8049  -13.6895  -17.9218 C   0  0  0  0  0  0  0  0  0  0  0  0
   18.8248  -14.9618  -19.2072 S   0  0  0  0  0  0  0  0  0  0  0  0
   20.1456  -12.7845  -16.0720 C   0  0  0  0  0  0  0  0  0  0  0  0
   19.4630  -12.7616  -15.0298 O   0  0  0  0  0  0  0  0  0  0  0  0
   23.1694  -11.6684  -14.2374 C   0  0  0  0  0  0  0  0  0  0  0  0
   22.6720  -10.4793  -15.0214 C   0  0  1  0  0  0  0  0  0  0  0  0
   23.3273  -10.4675  -16.2493 O   0  0  0  0  0  0  0  0  0  0  0  0
   21.1783  -10.6158  -15.3293 C   0  0  2  0  0  0  0  0  0  0  0  0
   21.0471  -11.6900  -16.2803 N   0  0  0  0  0  0  0  0  0  0  0  0
   20.6434   -9.3798  -15.9075 C   0  0  0  0  0  0  0  0  0  0  0  0
   20.6898   -9.1597  -17.1340 O   0  0  0  0  0  0  0  0  0  0  0  0
   20.0490   -8.3824  -15.0826 N   0  0  0  0  0  0  0  0  0  0  0  0
   19.5285   -7.1468  -15.5933 C   0  0  1  0  0  0  0  0  0  0  0  0
   18.3440   -6.6279  -14.8445 C   0  0  0  0  0  0  0  0  0  0  0  0
   17.7959   -5.3706  -15.3246 C   0  0  0  0  0  0  0  0  0  0  0  0
   18.0286   -4.3106  -14.6977 O   0  0  0  0  0  0  0  0  0  0  0  0
   20.6022   -6.1718  -15.7791 C   0  0  0  0  0  0  0  0  0  0  0  0
   21.8666   -6.3416  -15.2435 O   0  0  0  0  0  0  0  0  0  0  0  0
   17.0136   -5.2721  -16.4604 O   0  0  0  0  0  0  0  0  0  0  0  0
   20.3939   -5.1329  -16.4459 O   0  0  0  0  0  0  0  0  0  0  0  0
  2  1  1  1
  2  5  1  0
  2  3  1  0
  4  3  1  0
  5 11  1  0
  6  5  2  0
  8  7  1  1
  8  9  1  0
 10  8  1  0
 10 12  1  0
 10 11  1  6
 12 13  2  0
 12 14  1  0
 14 15  1  0
 15 16  1  1
 17 16  1  0
 17 21  1  0
 18 17  2  0
 19 15  1  0
 19 20  1  0
 22 19  2  0
M  END
$$$$
