CTD.pdb
     RDKit          3D

 22 21  0  0  1  0  0  0  0  0999 V2000
   23.4624  -13.8888  -17.8163 N   0  0  0  0  0  0  0  0  0  0  0  0
   23.9737  -12.8474  -16.9491 C   0  0  1  0  0  0  0  0  0  0  0  0
   25.4939  -12.9558  -16.9615 C   0  0  0  0  0  0  0  0  0  0  0  0
   26.1322  -11.6849  -15.8441 S   0  0  0  0  0  0  0  0  0  0  0  0
   23.5702  -11.5251  -17.5011 C   0  0  0  0  0  0  0  0  0  0  0  0
   24.0434  -11.0472  -18.5502 O   0  0  0  0  0  0  0  0  0  0  0  0
   20.7921  -10.5129  -19.1333 C   0  0  0  0  0  0  0  0  0  0  0  0
   20.7444   -9.6685  -17.8840 C   0  0  1  0  0  0  0  0  0  0  0  0
   20.0279  -10.3684  -16.9174 O   0  0  0  0  0  0  0  0  0  0  0  0
   22.1499   -9.4590  -17.3137 C   0  0  2  0  0  0  0  0  0  0  0  0
   22.5898  -10.7367  -16.8146 N   0  0  0  0  0  0  0  0  0  0  0  0
   22.1359   -8.4829  -16.2206 C   0  0  0  0  0  0  0  0  0  0  0  0
   22.1239   -8.8409  -15.0262 O   0  0  0  0  0  0  0  0  0  0  0  0
   22.1356   -7.0839  -16.4875 N   0  0  0  0  0  0  0  0  0  0  0  0
   22.1781   -6.0864  -15.4571 C   0  0  1  0  0  0  0  0  0  0  0  0
   22.4202   -4.7000  -15.9598 C   0  0  0  0  0  0  0  0  0  0  0  0
   22.3863   -3.6504  -14.9553 C   0  0  0  0  0  0  0  0  0  0  0  0
   23.0188   -3.7947  -13.8830 O   0  0  0  0  0  0  0  0  0  0  0  0
   21.0258   -6.2149  -14.5662 C   0  0  0  0  0  0  0  0  0  0  0  0
   21.1280   -6.0992  -13.1912 O   0  0  0  0  0  0  0  0  0  0  0  0
   21.6801   -2.4727  -15.1167 O   0  0  0  0  0  0  0  0  0  0  0  0
   19.8900   -6.4387  -15.0426 O   0  0  0  0  0  0  0  0  0  0  0  0
  2  1  1  6
  2  5  1  0
  2  3  1  0
  4  3  1  0
  5 11  1  0
  6  5  2  0
  8  7  1  6
  8  9  1  0
 10  8  1  0
 10 12  1  0
 10 11  1  1
 12 13  2  0
 12 14  1  0
 14 15  1  0
 15 16  1  6
 17 16  1  0
 17 21  1  0
 18 17  2  0
 19 15  1  0
 19 20  1  0
 22 19  2  0
M  END
$$$$
