CTD.pdb
     RDKit          3D

 22 21  0  0  1  0  0  0  0  0999 V2000
   20.4653  -13.8201  -17.6151 N   0  0  0  0  0  0  0  0  0  0  0  0
   19.6638  -13.0355  -16.6986 C   0  0  1  0  0  0  0  0  0  0  0  0
   20.2622  -13.2150  -15.3085 C   0  0  0  0  0  0  0  0  0  0  0  0
   22.0284  -12.8455  -15.4322 S   0  0  0  0  0  0  0  0  0  0  0  0
   19.7537  -11.6025  -17.0917 C   0  0  0  0  0  0  0  0  0  0  0  0
   20.6211  -11.1580  -17.8681 O   0  0  0  0  0  0  0  0  0  0  0  0
   17.2149   -7.5007  -17.7564 C   0  0  0  0  0  0  0  0  0  0  0  0
   17.3539   -8.9565  -17.3857 C   0  0  1  0  0  0  0  0  0  0  0  0
   17.0816   -9.7180  -18.5186 O   0  0  0  0  0  0  0  0  0  0  0  0
   18.7949   -9.2809  -16.9822 C   0  0  2  0  0  0  0  0  0  0  0  0
   18.8092  -10.6605  -16.5677 N   0  0  0  0  0  0  0  0  0  0  0  0
   19.2369   -8.4303  -15.8736 C   0  0  0  0  0  0  0  0  0  0  0  0
   18.9292   -8.6854  -14.6924 O   0  0  0  0  0  0  0  0  0  0  0  0
   20.0378   -7.2764  -16.1097 N   0  0  0  0  0  0  0  0  0  0  0  0
   20.4875   -6.4034  -15.0637 C   0  0  1  0  0  0  0  0  0  0  0  0
   21.8526   -5.8375  -15.2861 C   0  0  0  0  0  0  0  0  0  0  0  0
   22.3302   -4.9227  -14.2630 C   0  0  0  0  0  0  0  0  0  0  0  0
   22.2333   -3.6858  -14.4400 O   0  0  0  0  0  0  0  0  0  0  0  0
   19.4641   -5.4087  -14.7456 C   0  0  0  0  0  0  0  0  0  0  0  0
   19.1931   -5.0034  -13.4507 O   0  0  0  0  0  0  0  0  0  0  0  0
   22.8994   -5.3468  -13.0764 O   0  0  0  0  0  0  0  0  0  0  0  0
   18.7924   -4.8880  -15.6646 O   0  0  0  0  0  0  0  0  0  0  0  0
  2  1  1  6
  2  5  1  0
  2  3  1  0
  4  3  1  0
  5 11  1  0
  6  5  2  0
  8  7  1  6
  8  9  1  0
 10  8  1  0
 10 12  1  0
 10 11  1  1
 12 13  2  0
 12 14  1  0
 14 15  1  0
 15 16  1  6
 17 16  1  0
 17 21  1  0
 18 17  2  0
 19 15  1  0
 19 20  1  0
 22 19  2  0
M  END
$$$$
