CTD.pdb
     RDKit          3D

 22 21  0  0  1  0  0  0  0  0999 V2000
   17.1513  -13.3607  -16.6127 N   0  0  0  0  0  0  0  0  0  0  0  0
   17.0317  -12.1519  -15.8236 C   0  0  1  0  0  0  0  0  0  0  0  0
   17.6818  -12.4285  -14.4731 C   0  0  0  0  0  0  0  0  0  0  0  0
   16.5474  -13.4807  -13.5365 S   0  0  0  0  0  0  0  0  0  0  0  0
   17.7712  -11.0577  -16.5107 C   0  0  0  0  0  0  0  0  0  0  0  0
   18.9079  -11.2013  -17.0006 O   0  0  0  0  0  0  0  0  0  0  0  0
   17.4392   -6.7512  -18.8153 C   0  0  0  0  0  0  0  0  0  0  0  0
   16.8954   -8.0474  -18.2674 C   0  0  1  0  0  0  0  0  0  0  0  0
   16.8092   -8.9570  -19.3175 O   0  0  0  0  0  0  0  0  0  0  0  0
   17.8611   -8.6553  -17.2465 C   0  0  2  0  0  0  0  0  0  0  0  0
   17.1726   -9.7611  -16.6313 N   0  0  0  0  0  0  0  0  0  0  0  0
   18.2311   -7.6755  -16.2213 C   0  0  0  0  0  0  0  0  0  0  0  0
   17.4134   -7.2885  -15.3631 O   0  0  0  0  0  0  0  0  0  0  0  0
   19.5453   -7.1289  -16.1706 N   0  0  0  0  0  0  0  0  0  0  0  0
   19.9190   -6.0590  -15.2908 C   0  0  1  0  0  0  0  0  0  0  0  0
   21.2662   -6.2253  -14.6658 C   0  0  0  0  0  0  0  0  0  0  0  0
   21.6695   -5.1735  -13.7479 C   0  0  0  0  0  0  0  0  0  0  0  0
   20.8870   -4.2249  -13.5060 O   0  0  0  0  0  0  0  0  0  0  0  0
   19.7058   -4.7632  -15.9340 C   0  0  0  0  0  0  0  0  0  0  0  0
   19.0758   -3.7082  -15.2982 O   0  0  0  0  0  0  0  0  0  0  0  0
   22.8961   -5.1568  -13.1098 O   0  0  0  0  0  0  0  0  0  0  0  0
   20.1002   -4.5760  -17.1073 O   0  0  0  0  0  0  0  0  0  0  0  0
  2  1  1  6
  2  5  1  0
  2  3  1  0
  4  3  1  0
  5 11  1  0
  6  5  2  0
  8  7  1  6
  8  9  1  0
 10  8  1  0
 10 12  1  0
 10 11  1  1
 12 13  2  0
 12 14  1  0
 14 15  1  0
 15 16  1  6
 17 16  1  0
 17 21  1  0
 18 17  2  0
 19 15  1  0
 19 20  1  0
 22 19  2  0
M  END
$$$$
