CTD.pdb
     RDKit          3D

 22 21  0  0  1  0  0  0  0  0999 V2000
   16.7881  -11.2425  -17.0687 N   0  0  0  0  0  0  0  0  0  0  0  0
   18.0617  -10.9691  -16.4353 C   0  0  1  0  0  0  0  0  0  0  0  0
   19.0995  -10.8441  -17.5445 C   0  0  0  0  0  0  0  0  0  0  0  0
   19.4047  -12.5080  -18.1844 S   0  0  0  0  0  0  0  0  0  0  0  0
   17.9642   -9.6757  -15.7048 C   0  0  0  0  0  0  0  0  0  0  0  0
   17.2562   -8.7243  -16.0874 O   0  0  0  0  0  0  0  0  0  0  0  0
   18.7478   -7.3914  -11.4111 C   0  0  0  0  0  0  0  0  0  0  0  0
   18.5687   -8.6112  -12.2804 C   0  0  1  0  0  0  0  0  0  0  0  0
   17.2784   -9.0951  -12.0841 O   0  0  0  0  0  0  0  0  0  0  0  0
   18.6720   -8.2437  -13.7633 C   0  0  2  0  0  0  0  0  0  0  0  0
   18.7103   -9.4832  -14.4964 N   0  0  0  0  0  0  0  0  0  0  0  0
   19.8907   -7.4756  -14.0330 C   0  0  0  0  0  0  0  0  0  0  0  0
   21.0232   -7.9791  -13.8960 O   0  0  0  0  0  0  0  0  0  0  0  0
   19.8219   -6.1196  -14.4636 N   0  0  0  0  0  0  0  0  0  0  0  0
   20.9814   -5.3015  -14.6749 C   0  0  1  0  0  0  0  0  0  0  0  0
   20.7435   -4.1241  -15.5639 C   0  0  0  0  0  0  0  0  0  0  0  0
   21.9093   -3.3056  -15.8514 C   0  0  0  0  0  0  0  0  0  0  0  0
   22.6188   -2.8807  -14.9098 O   0  0  0  0  0  0  0  0  0  0  0  0
   21.6247   -4.9790  -13.4020 C   0  0  0  0  0  0  0  0  0  0  0  0
   22.9572   -5.2518  -13.1481 O   0  0  0  0  0  0  0  0  0  0  0  0
   22.2914   -2.9592  -17.1343 O   0  0  0  0  0  0  0  0  0  0  0  0
   20.9643   -4.4336  -12.4890 O   0  0  0  0  0  0  0  0  0  0  0  0
  2  1  1  6
  2  5  1  0
  2  3  1  0
  4  3  1  0
  5 11  1  0
  6  5  2  0
  8  7  1  1
  8  9  1  0
 10  8  1  0
 10 12  1  0
 10 11  1  6
 12 13  2  0
 12 14  1  0
 14 15  1  0
 15 16  1  1
 17 16  1  0
 17 21  1  0
 18 17  2  0
 19 15  1  0
 19 20  1  0
 22 19  2  0
M  END
$$$$
