CTD.pdb
     RDKit          3D

 22 21  0  0  1  0  0  0  0  0999 V2000
   20.0635  -14.7061  -16.7311 N   0  0  0  0  0  0  0  0  0  0  0  0
   20.5193  -13.4971  -17.3856 C   0  0  1  0  0  0  0  0  0  0  0  0
   19.5243  -13.1827  -18.4964 C   0  0  0  0  0  0  0  0  0  0  0  0
   19.6353  -14.5184  -19.7108 S   0  0  0  0  0  0  0  0  0  0  0  0
   20.5167  -12.3869  -16.3939 C   0  0  0  0  0  0  0  0  0  0  0  0
   19.6846  -12.2944  -15.4710 O   0  0  0  0  0  0  0  0  0  0  0  0
   23.3956  -11.2087  -14.1970 C   0  0  0  0  0  0  0  0  0  0  0  0
   22.9869  -10.0785  -15.1087 C   0  0  1  0  0  0  0  0  0  0  0  0
   23.7688  -10.1473  -16.2583 O   0  0  0  0  0  0  0  0  0  0  0  0
   21.5340  -10.2430  -15.5632 C   0  0  2  0  0  0  0  0  0  0  0  0
   21.5087  -11.3559  -16.4776 N   0  0  0  0  0  0  0  0  0  0  0  0
   21.0540   -9.0370  -16.2437 C   0  0  0  0  0  0  0  0  0  0  0  0
   21.2983   -8.8264  -17.4483 O   0  0  0  0  0  0  0  0  0  0  0  0
   20.2874   -8.0590  -15.5478 N   0  0  0  0  0  0  0  0  0  0  0  0
   19.8323   -6.8400  -16.1521 C   0  0  1  0  0  0  0  0  0  0  0  0
   18.4502   -6.4384  -15.7497 C   0  0  0  0  0  0  0  0  0  0  0  0
   17.9848   -5.1664  -16.2760 C   0  0  0  0  0  0  0  0  0  0  0  0
   18.1060   -4.9170  -17.4983 O   0  0  0  0  0  0  0  0  0  0  0  0
   20.8354   -5.7860  -16.0075 C   0  0  0  0  0  0  0  0  0  0  0  0
   21.9404   -5.9141  -15.1848 O   0  0  0  0  0  0  0  0  0  0  0  0
   17.4018   -4.1907  -15.4886 O   0  0  0  0  0  0  0  0  0  0  0  0
   20.7118   -4.7148  -16.6434 O   0  0  0  0  0  0  0  0  0  0  0  0
  2  1  1  1
  2  5  1  0
  2  3  1  0
  4  3  1  0
  5 11  1  0
  6  5  2  0
  8  7  1  1
  8  9  1  0
 10  8  1  0
 10 12  1  0
 10 11  1  6
 12 13  2  0
 12 14  1  0
 14 15  1  0
 15 16  1  1
 17 16  1  0
 17 21  1  0
 18 17  2  0
 19 15  1  0
 19 20  1  0
 22 19  2  0
M  END
$$$$
