DTW.pdb
     RDKit          3D

 30 31  0  0  1  0  0  0  0  0999 V2000
    9.5918  -13.2288   18.8677 N   0  0  0  0  0  0  0  0  0  0  0  0
    8.1629  -13.4280   19.0185 C   0  0  1  0  0  0  0  0  0  0  0  0
    7.5427  -13.7004   17.6577 C   0  0  0  0  0  0  0  0  0  0  0  0
    8.4345  -14.4595   16.7793 C   0  0  0  0  0  0  0  0  0  0  0  0
    9.0477  -15.4683   17.2267 O   0  0  0  0  0  0  0  0  0  0  0  0
    7.9278  -14.6079   19.8983 C   0  0  0  0  0  0  0  0  0  0  0  0
    6.7362  -14.8651   20.1923 O   0  0  0  0  0  0  0  0  0  0  0  0
    8.5764  -14.0388   15.4695 O   0  0  0  0  0  0  0  0  0  0  0  0
    8.5794  -18.3452   19.6272 C   0  0  0  0  0  0  0  0  0  0  0  0
    9.2767  -17.8247   20.8670 C   0  0  1  0  0  0  0  0  0  0  0  0
   10.6069  -17.6463   20.5092 O   0  0  0  0  0  0  0  0  0  0  0  0
    8.7459  -16.5199   21.3369 C   0  0  2  0  0  0  0  0  0  0  0  0
    8.9306  -15.4337   20.4094 N   0  0  0  0  0  0  0  0  0  0  0  0
    9.4241  -16.1324   22.5923 C   0  0  0  0  0  0  0  0  0  0  0  0
   10.2384  -15.1404   22.6118 O   0  0  0  0  0  0  0  0  0  0  0  0
    9.2600  -16.7745   23.8459 N   0  0  0  0  0  0  0  0  0  0  0  0
    9.9851  -16.3090   25.0464 C   0  0  1  0  0  0  0  0  0  0  0  0
    9.7282  -14.8502   25.2643 C   0  0  0  0  0  0  0  0  0  0  0  0
    8.3431  -14.5109   25.5799 C   0  0  0  0  0  0  0  0  0  0  0  0
    7.3183  -15.4615   25.5039 C   0  0  0  0  0  0  0  0  0  0  0  0
    6.1656  -14.9005   25.8799 N   0  0  0  0  0  0  0  0  0  0  0  0
    6.3685  -13.6155   26.2046 C   0  0  0  0  0  0  0  0  0  0  0  0
    5.5523  -12.5885   26.6400 C   0  0  0  0  0  0  0  0  0  0  0  0
    6.0313  -11.3217   26.8974 C   0  0  0  0  0  0  0  0  0  0  0  0
    7.3714  -11.0987   26.7059 C   0  0  0  0  0  0  0  0  0  0  0  0
    8.1963  -12.1237   26.2696 C   0  0  0  0  0  0  0  0  0  0  0  0
    7.7111  -13.3797   26.0177 C   0  0  0  0  0  0  0  0  0  0  0  0
    9.6077  -17.2038   26.1468 C   0  0  0  0  0  0  0  0  0  0  0  0
    9.9852  -17.0063   27.3526 O   0  0  0  0  0  0  0  0  0  0  0  0
    8.8134  -18.3217   25.9584 O   0  0  0  0  0  0  0  0  0  0  0  0
  2  1  1  6
  2  6  1  0
  3  2  1  0
  3  4  1  0
  4  5  2  0
  6  7  2  0
  8  4  1  0
 10  9  1  6
 10 12  1  0
 11 10  1  0
 12 13  1  6
 12 14  1  0
 13  6  1  0
 14 15  2  0
 14 16  1  0
 16 17  1  0
 17 28  1  0
 17 18  1  1
 19 18  1  0
 19 27  1  0
 20 19  2  0
 21 20  1  0
 21 22  1  0
 22 23  1  0
 22 27  2  0
 23 24  2  0
 24 25  1  0
 26 25  2  0
 27 26  1  0
 28 29  2  0
 28 30  1  0
M  END
$$$$
