DTW.pdb
     RDKit          3D

 30 31  0  0  1  0  0  0  0  0999 V2000
   10.3583  -18.6594   18.4559 N   0  0  0  0  0  0  0  0  0  0  0  0
    9.6101  -18.5749   19.6957 C   0  0  1  0  0  0  0  0  0  0  0  0
   10.1897  -19.5523   20.7052 C   0  0  0  0  0  0  0  0  0  0  0  0
   10.0864  -20.9428   20.2594 C   0  0  0  0  0  0  0  0  0  0  0  0
    9.6647  -21.2003   19.0975 O   0  0  0  0  0  0  0  0  0  0  0  0
    9.7299  -17.1931   20.2416 C   0  0  0  0  0  0  0  0  0  0  0  0
   10.7866  -16.5713   19.9785 O   0  0  0  0  0  0  0  0  0  0  0  0
   10.4600  -21.9417   21.1398 O   0  0  0  0  0  0  0  0  0  0  0  0
    7.2095  -14.0665   19.9104 C   0  0  0  0  0  0  0  0  0  0  0  0
    7.5257  -14.4522   21.3406 C   0  0  1  0  0  0  0  0  0  0  0  0
    6.4947  -15.2900   21.7460 O   0  0  0  0  0  0  0  0  0  0  0  0
    8.8051  -15.1928   21.4815 C   0  0  2  0  0  0  0  0  0  0  0  0
    8.7587  -16.5544   21.0146 N   0  0  0  0  0  0  0  0  0  0  0  0
    9.1952  -15.2408   22.9068 C   0  0  0  0  0  0  0  0  0  0  0  0
    9.4478  -14.1581   23.5485 O   0  0  0  0  0  0  0  0  0  0  0  0
    9.3253  -16.4203   23.6831 N   0  0  0  0  0  0  0  0  0  0  0  0
    9.8016  -16.3695   25.0810 C   0  0  1  0  0  0  0  0  0  0  0  0
    8.6570  -16.5964   26.0190 C   0  0  0  0  0  0  0  0  0  0  0  0
    7.6716  -15.5191   26.0573 C   0  0  0  0  0  0  0  0  0  0  0  0
    6.3157  -15.7541   25.8003 C   0  0  0  0  0  0  0  0  0  0  0  0
    5.6347  -14.6132   25.9392 N   0  0  0  0  0  0  0  0  0  0  0  0
    6.4712  -13.6213   26.2772 C   0  0  0  0  0  0  0  0  0  0  0  0
    6.3165  -12.2717   26.5320 C   0  0  0  0  0  0  0  0  0  0  0  0
    7.3777  -11.4540   26.8573 C   0  0  0  0  0  0  0  0  0  0  0  0
    8.6229  -12.0262   26.9235 C   0  0  0  0  0  0  0  0  0  0  0  0
    8.7860  -13.3792   26.6695 C   0  0  0  0  0  0  0  0  0  0  0  0
    7.7249  -14.1837   26.3483 C   0  0  0  0  0  0  0  0  0  0  0  0
   10.9206  -17.3136   25.1852 C   0  0  0  0  0  0  0  0  0  0  0  0
   11.3278  -18.0081   24.1917 O   0  0  0  0  0  0  0  0  0  0  0  0
   11.6168  -17.5156   26.3644 O   0  0  0  0  0  0  0  0  0  0  0  0
  2  1  1  6
  2  6  1  0
  3  2  1  0
  3  4  1  0
  4  5  2  0
  6  7  2  0
  8  4  1  0
 10  9  1  6
 10 12  1  0
 11 10  1  0
 12 13  1  1
 12 14  1  0
 13  6  1  0
 14 15  2  0
 14 16  1  0
 16 17  1  0
 17 28  1  0
 17 18  1  1
 19 18  1  0
 19 27  1  0
 20 19  2  0
 21 20  1  0
 21 22  1  0
 22 23  1  0
 22 27  2  0
 23 24  2  0
 24 25  1  0
 26 25  2  0
 27 26  1  0
 28 29  2  0
 28 30  1  0
M  END
$$$$
