DTW.pdb
     RDKit          3D

 30 31  0  0  1  0  0  0  0  0999 V2000
   10.2863  -17.5153   17.0565 N   0  0  0  0  0  0  0  0  0  0  0  0
   11.0142  -17.3165   18.2953 C   0  0  1  0  0  0  0  0  0  0  0  0
   12.1337  -16.3132   18.0701 C   0  0  0  0  0  0  0  0  0  0  0  0
   13.2723  -16.8971   17.3589 C   0  0  0  0  0  0  0  0  0  0  0  0
   13.2180  -18.0944   16.9619 O   0  0  0  0  0  0  0  0  0  0  0  0
   10.0823  -16.7732   19.3239 C   0  0  0  0  0  0  0  0  0  0  0  0
    9.6032  -15.6348   19.1074 O   0  0  0  0  0  0  0  0  0  0  0  0
   14.3851  -16.1048   17.1432 O   0  0  0  0  0  0  0  0  0  0  0  0
    6.7042  -17.8927   20.2759 C   0  0  0  0  0  0  0  0  0  0  0  0
    7.5308  -17.8656   21.5448 C   0  0  1  0  0  0  0  0  0  0  0  0
    7.9616  -19.1705   21.7467 O   0  0  0  0  0  0  0  0  0  0  0  0
    8.7288  -16.9934   21.4485 C   0  0  2  0  0  0  0  0  0  0  0  0
    9.7125  -17.4373   20.4949 N   0  0  0  0  0  0  0  0  0  0  0  0
    9.4029  -16.9309   22.7629 C   0  0  0  0  0  0  0  0  0  0  0  0
   10.6355  -16.5822   22.8455 O   0  0  0  0  0  0  0  0  0  0  0  0
    8.7987  -17.2299   24.0104 N   0  0  0  0  0  0  0  0  0  0  0  0
    9.4791  -16.9214   25.2853 C   0  0  1  0  0  0  0  0  0  0  0  0
    9.4904  -15.4417   25.5132 C   0  0  0  0  0  0  0  0  0  0  0  0
    8.1749  -14.8424   25.7217 C   0  0  0  0  0  0  0  0  0  0  0  0
    7.0068  -15.6137   25.7154 C   0  0  0  0  0  0  0  0  0  0  0  0
    5.9562  -14.8279   25.9674 N   0  0  0  0  0  0  0  0  0  0  0  0
    6.3647  -13.5628   26.1422 C   0  0  0  0  0  0  0  0  0  0  0  0
    5.7228  -12.3688   26.4118 C   0  0  0  0  0  0  0  0  0  0  0  0
    6.4019  -11.1754   26.5347 C   0  0  0  0  0  0  0  0  0  0  0  0
    7.7648  -11.2016   26.3787 C   0  0  0  0  0  0  0  0  0  0  0  0
    8.4156  -12.3952   26.1084 C   0  0  0  0  0  0  0  0  0  0  0  0
    7.7321  -13.5763   25.9894 C   0  0  0  0  0  0  0  0  0  0  0  0
    8.8290  -17.7308   26.3229 C   0  0  0  0  0  0  0  0  0  0  0  0
    7.7762  -18.4206   26.0964 O   0  0  0  0  0  0  0  0  0  0  0  0
    9.3116  -17.8085   27.6179 O   0  0  0  0  0  0  0  0  0  0  0  0
  2  1  1  6
  2  6  1  0
  3  2  1  0
  3  4  1  0
  4  5  2  0
  6  7  2  0
  8  4  1  0
 10  9  1  6
 10 12  1  0
 11 10  1  0
 12 13  1  6
 12 14  1  0
 13  6  1  0
 14 15  2  0
 14 16  1  0
 16 17  1  0
 17 28  1  0
 17 18  1  1
 19 18  1  0
 19 27  1  0
 20 19  2  0
 21 20  1  0
 21 22  1  0
 22 23  1  0
 22 27  2  0
 23 24  2  0
 24 25  1  0
 26 25  2  0
 27 26  1  0
 28 29  2  0
 28 30  1  0
M  END
$$$$
