DTW.pdb
     RDKit          3D

 30 31  0  0  1  0  0  0  0  0999 V2000
    9.5896  -18.3518   17.4627 N   0  0  0  0  0  0  0  0  0  0  0  0
   10.8155  -17.5781   17.5138 C   0  0  1  0  0  0  0  0  0  0  0  0
   11.0653  -16.9343   16.1597 C   0  0  0  0  0  0  0  0  0  0  0  0
   11.6296  -17.8745   15.1898 C   0  0  0  0  0  0  0  0  0  0  0  0
   11.7501  -19.0940   15.4938 O   0  0  0  0  0  0  0  0  0  0  0  0
   10.6690  -16.5039   18.5366 C   0  0  0  0  0  0  0  0  0  0  0  0
   11.5633  -15.6253   18.5655 O   0  0  0  0  0  0  0  0  0  0  0  0
   12.0169  -17.3870   13.9550 O   0  0  0  0  0  0  0  0  0  0  0  0
    7.7442  -13.9873   19.5219 C   0  0  0  0  0  0  0  0  0  0  0  0
    8.1552  -14.8674   20.6841 C   0  0  1  0  0  0  0  0  0  0  0  0
    7.2322  -15.9046   20.7214 O   0  0  0  0  0  0  0  0  0  0  0  0
    9.5081  -15.4586   20.5251 C   0  0  2  0  0  0  0  0  0  0  0  0
    9.6182  -16.4118   19.4511 N   0  0  0  0  0  0  0  0  0  0  0  0
    9.8889  -16.1652   21.7668 C   0  0  0  0  0  0  0  0  0  0  0  0
    9.7525  -17.4382   21.8583 O   0  0  0  0  0  0  0  0  0  0  0  0
   10.4193  -15.5523   22.9304 N   0  0  0  0  0  0  0  0  0  0  0  0
    9.5882  -15.3452   24.1345 C   0  0  1  0  0  0  0  0  0  0  0  0
    8.3608  -14.5647   23.7797 C   0  0  0  0  0  0  0  0  0  0  0  0
    7.5097  -14.2102   24.9125 C   0  0  0  0  0  0  0  0  0  0  0  0
    6.5875  -15.1157   25.4503 C   0  0  0  0  0  0  0  0  0  0  0  0
    5.9730  -14.5536   26.4949 N   0  0  0  0  0  0  0  0  0  0  0  0
    6.4397  -13.3108   26.6836 C   0  0  0  0  0  0  0  0  0  0  0  0
    6.1623  -12.3014   27.5862 C   0  0  0  0  0  0  0  0  0  0  0  0
    6.7999  -11.0797   27.5482 C   0  0  0  0  0  0  0  0  0  0  0  0
    7.7399  -10.8844   26.5682 C   0  0  0  0  0  0  0  0  0  0  0  0
    8.0236  -11.8921   25.6596 C   0  0  0  0  0  0  0  0  0  0  0  0
    7.3856  -13.1033   25.7063 C   0  0  0  0  0  0  0  0  0  0  0  0
    9.3642  -16.6673   24.7311 C   0  0  0  0  0  0  0  0  0  0  0  0
    8.8137  -17.6262   24.0885 O   0  0  0  0  0  0  0  0  0  0  0  0
    9.7366  -16.9712   26.0292 O   0  0  0  0  0  0  0  0  0  0  0  0
  2  1  1  6
  2  6  1  0
  3  2  1  0
  3  4  1  0
  4  5  2  0
  6  7  2  0
  8  4  1  0
 10  9  1  6
 10 12  1  0
 11 10  1  0
 12 13  1  6
 12 14  1  0
 13  6  1  0
 14 15  2  0
 14 16  1  0
 16 17  1  0
 17 28  1  0
 17 18  1  6
 19 18  1  0
 19 27  1  0
 20 19  2  0
 21 20  1  0
 21 22  1  0
 22 23  1  0
 22 27  2  0
 23 24  2  0
 24 25  1  0
 26 25  2  0
 27 26  1  0
 28 29  2  0
 28 30  1  0
M  END
$$$$
