DTW.pdb
     RDKit          3D

 30 31  0  0  1  0  0  0  0  0999 V2000
   10.2836  -18.2821   16.9814 N   0  0  0  0  0  0  0  0  0  0  0  0
   10.8346  -18.3246   18.3225 C   0  0  1  0  0  0  0  0  0  0  0  0
   12.1254  -17.5230   18.3659 C   0  0  0  0  0  0  0  0  0  0  0  0
   13.3059  -18.3510   18.1131 C   0  0  0  0  0  0  0  0  0  0  0  0
   13.1668  -19.5738   17.8311 O   0  0  0  0  0  0  0  0  0  0  0  0
    9.8578  -17.7135   19.2680 C   0  0  0  0  0  0  0  0  0  0  0  0
    8.7969  -17.2645   18.7726 O   0  0  0  0  0  0  0  0  0  0  0  0
   14.5517  -17.7560   18.1930 O   0  0  0  0  0  0  0  0  0  0  0  0
    7.2187  -18.5062   20.3641 C   0  0  0  0  0  0  0  0  0  0  0  0
    7.9239  -18.2991   21.6885 C   0  0  1  0  0  0  0  0  0  0  0  0
    8.4740  -19.5296   22.0236 O   0  0  0  0  0  0  0  0  0  0  0  0
    9.0244  -17.3044   21.6201 C   0  0  2  0  0  0  0  0  0  0  0  0
   10.0422  -17.6092   20.6479 N   0  0  0  0  0  0  0  0  0  0  0  0
    9.6975  -17.2193   22.9338 C   0  0  0  0  0  0  0  0  0  0  0  0
   10.7257  -17.9453   23.1857 O   0  0  0  0  0  0  0  0  0  0  0  0
    9.3072  -16.3734   24.0029 N   0  0  0  0  0  0  0  0  0  0  0  0
   10.1363  -16.2430   25.2192 C   0  0  1  0  0  0  0  0  0  0  0  0
    9.8291  -14.9510   25.9105 C   0  0  0  0  0  0  0  0  0  0  0  0
    8.4102  -14.6104   25.9734 C   0  0  0  0  0  0  0  0  0  0  0  0
    7.4162  -15.5958   25.9465 C   0  0  0  0  0  0  0  0  0  0  0  0
    6.2169  -15.0176   26.0564 N   0  0  0  0  0  0  0  0  0  0  0  0
    6.3591  -13.6880   26.1554 C   0  0  0  0  0  0  0  0  0  0  0  0
    5.4797  -12.6288   26.2787 C   0  0  0  0  0  0  0  0  0  0  0  0
    5.9047  -11.3194   26.3514 C   0  0  0  0  0  0  0  0  0  0  0  0
    7.2557  -11.0865   26.2968 C   0  0  0  0  0  0  0  0  0  0  0  0
    8.1438  -12.1436   26.1735 C   0  0  0  0  0  0  0  0  0  0  0  0
    7.7118  -13.4416   26.1032 C   0  0  0  0  0  0  0  0  0  0  0  0
    9.9316  -17.4635   26.0082 C   0  0  0  0  0  0  0  0  0  0  0  0
   10.6401  -17.7441   27.0351 O   0  0  0  0  0  0  0  0  0  0  0  0
    8.9549  -18.3946   25.6996 O   0  0  0  0  0  0  0  0  0  0  0  0
  2  1  1  6
  2  6  1  0
  3  2  1  0
  3  4  1  0
  4  5  2  0
  6  7  2  0
  8  4  1  0
 10  9  1  6
 10 12  1  0
 11 10  1  0
 12 13  1  6
 12 14  1  0
 13  6  1  0
 14 15  2  0
 14 16  1  0
 16 17  1  0
 17 28  1  0
 17 18  1  1
 19 18  1  0
 19 27  1  0
 20 19  2  0
 21 20  1  0
 21 22  1  0
 22 23  1  0
 22 27  2  0
 23 24  2  0
 24 25  1  0
 26 25  2  0
 27 26  1  0
 28 29  2  0
 28 30  1  0
M  END
$$$$
