DTW.pdb
     RDKit          3D

 30 31  0  0  1  0  0  0  0  0999 V2000
   10.0195  -17.6712   17.5725 N   0  0  0  0  0  0  0  0  0  0  0  0
    9.5716  -16.5378   18.3591 C   0  0  1  0  0  0  0  0  0  0  0  0
    8.5233  -15.7617   17.5785 C   0  0  0  0  0  0  0  0  0  0  0  0
    8.7225  -15.8542   16.1312 C   0  0  0  0  0  0  0  0  0  0  0  0
    9.8877  -15.9920   15.6650 O   0  0  0  0  0  0  0  0  0  0  0  0
    8.9580  -17.0362   19.6227 C   0  0  0  0  0  0  0  0  0  0  0  0
    7.7441  -17.3473   19.5771 O   0  0  0  0  0  0  0  0  0  0  0  0
    7.6104  -15.7866   15.3120 O   0  0  0  0  0  0  0  0  0  0  0  0
    9.0269  -20.1602   21.0111 C   0  0  0  0  0  0  0  0  0  0  0  0
    9.5800  -19.2788   22.1118 C   0  0  1  0  0  0  0  0  0  0  0  0
   10.9614  -19.3197   21.9745 O   0  0  0  0  0  0  0  0  0  0  0  0
    9.1470  -17.8623   22.0052 C   0  0  2  0  0  0  0  0  0  0  0  0
    9.6345  -17.1778   20.8357 N   0  0  0  0  0  0  0  0  0  0  0  0
    9.6330  -17.1062   23.1790 C   0  0  0  0  0  0  0  0  0  0  0  0
   10.5500  -16.2178   23.0459 O   0  0  0  0  0  0  0  0  0  0  0  0
    9.1670  -17.2657   24.5087 N   0  0  0  0  0  0  0  0  0  0  0  0
    9.7623  -16.5040   25.6263 C   0  0  1  0  0  0  0  0  0  0  0  0
    8.7168  -16.2066   26.6558 C   0  0  0  0  0  0  0  0  0  0  0  0
    7.6547  -15.3084   26.2108 C   0  0  0  0  0  0  0  0  0  0  0  0
    6.4309  -15.7956   25.7368 C   0  0  0  0  0  0  0  0  0  0  0  0
    5.6321  -14.7679   25.4359 N   0  0  0  0  0  0  0  0  0  0  0  0
    6.2634  -13.6115   25.6852 C   0  0  0  0  0  0  0  0  0  0  0  0
    5.9245  -12.2780   25.5541 C   0  0  0  0  0  0  0  0  0  0  0  0
    6.7922  -11.2586   25.8833 C   0  0  0  0  0  0  0  0  0  0  0  0
    8.0319  -11.6081   26.3559 C   0  0  0  0  0  0  0  0  0  0  0  0
    8.3790  -12.9434   26.4905 C   0  0  0  0  0  0  0  0  0  0  0  0
    7.5092  -13.9492   26.1619 C   0  0  0  0  0  0  0  0  0  0  0  0
   10.9279  -17.2664   26.0893 C   0  0  0  0  0  0  0  0  0  0  0  0
   11.1272  -18.4851   25.7572 O   0  0  0  0  0  0  0  0  0  0  0  0
   11.8957  -16.7193   26.9140 O   0  0  0  0  0  0  0  0  0  0  0  0
  2  1  1  6
  2  6  1  0
  3  2  1  0
  3  4  1  0
  4  5  2  0
  6  7  2  0
  8  4  1  0
 10  9  1  6
 10 12  1  0
 11 10  1  0
 12 13  1  6
 12 14  1  0
 13  6  1  0
 14 15  2  0
 14 16  1  0
 16 17  1  0
 17 28  1  0
 17 18  1  1
 19 18  1  0
 19 27  1  0
 20 19  2  0
 21 20  1  0
 21 22  1  0
 22 23  1  0
 22 27  2  0
 23 24  2  0
 24 25  1  0
 26 25  2  0
 27 26  1  0
 28 29  2  0
 28 30  1  0
M  END
$$$$
