DTW.pdb
     RDKit          3D

 30 31  0  0  1  0  0  0  0  0999 V2000
   11.5955  -15.5199   18.8355 N   0  0  0  0  0  0  0  0  0  0  0  0
   10.2284  -15.1928   18.4779 C   0  0  1  0  0  0  0  0  0  0  0  0
    9.8550  -15.9119   17.1918 C   0  0  0  0  0  0  0  0  0  0  0  0
    8.5364  -15.5168   16.6935 C   0  0  0  0  0  0  0  0  0  0  0  0
    8.1095  -14.3476   16.9048 O   0  0  0  0  0  0  0  0  0  0  0  0
    9.3191  -15.6518   19.5661 C   0  0  0  0  0  0  0  0  0  0  0  0
    8.1014  -15.3818   19.4365 O   0  0  0  0  0  0  0  0  0  0  0  0
    7.7926  -16.4524   15.9978 O   0  0  0  0  0  0  0  0  0  0  0  0
    7.7098  -18.6278   20.4813 C   0  0  0  0  0  0  0  0  0  0  0  0
    8.5376  -18.2615   21.6957 C   0  0  1  0  0  0  0  0  0  0  0  0
    9.7235  -18.9747   21.5774 O   0  0  0  0  0  0  0  0  0  0  0  0
    8.8726  -16.8165   21.7657 C   0  0  2  0  0  0  0  0  0  0  0  0
    9.7265  -16.3518   20.7031 N   0  0  0  0  0  0  0  0  0  0  0  0
    9.5739  -16.5317   23.0357 C   0  0  0  0  0  0  0  0  0  0  0  0
   10.7958  -16.1384   23.0296 O   0  0  0  0  0  0  0  0  0  0  0  0
    9.0085  -16.6518   24.3306 N   0  0  0  0  0  0  0  0  0  0  0  0
    9.8015  -16.3619   25.5433 C   0  0  1  0  0  0  0  0  0  0  0  0
    8.8915  -15.9809   26.6695 C   0  0  0  0  0  0  0  0  0  0  0  0
    7.8399  -15.0314   26.3149 C   0  0  0  0  0  0  0  0  0  0  0  0
    6.5601  -15.4582   25.9413 C   0  0  0  0  0  0  0  0  0  0  0  0
    5.7885  -14.3927   25.7092 N   0  0  0  0  0  0  0  0  0  0  0  0
    6.4914  -13.2685   25.9091 C   0  0  0  0  0  0  0  0  0  0  0  0
    6.2058  -11.9198   25.8095 C   0  0  0  0  0  0  0  0  0  0  0  0
    7.1443  -10.9440   26.0693 C   0  0  0  0  0  0  0  0  0  0  0  0
    8.4007  -11.3537   26.4382 C   0  0  0  0  0  0  0  0  0  0  0  0
    8.6946  -12.7045   26.5406 C   0  0  0  0  0  0  0  0  0  0  0  0
    7.7547  -13.6667   26.2816 C   0  0  0  0  0  0  0  0  0  0  0  0
   10.6667  -17.5245   25.7755 C   0  0  0  0  0  0  0  0  0  0  0  0
   10.4527  -18.6600   25.2276 O   0  0  0  0  0  0  0  0  0  0  0  0
   11.7774  -17.4732   26.6000 O   0  0  0  0  0  0  0  0  0  0  0  0
  2  1  1  1
  2  6  1  0
  3  2  1  0
  3  4  1  0
  4  5  2  0
  6  7  2  0
  8  4  1  0
 10  9  1  6
 10 12  1  0
 11 10  1  0
 12 13  1  6
 12 14  1  0
 13  6  1  0
 14 15  2  0
 14 16  1  0
 16 17  1  0
 17 28  1  0
 17 18  1  1
 19 18  1  0
 19 27  1  0
 20 19  2  0
 21 20  1  0
 21 22  1  0
 22 23  1  0
 22 27  2  0
 23 24  2  0
 24 25  1  0
 26 25  2  0
 27 26  1  0
 28 29  2  0
 28 30  1  0
M  END
$$$$
