YRR.pdb
     RDKit          3D

 35 35  0  0  1  0  0  0  0  0999 V2000
   28.7491  -30.0227  -19.2990 O   0  0  0  0  0  0  0  0  0  0  0  0
   28.0317  -29.1038  -18.5435 C   0  0  0  0  0  0  0  0  0  0  0  0
   26.9516  -28.4465  -19.0991 C   0  0  0  0  0  0  0  0  0  0  0  0
   26.2554  -27.5398  -18.3299 C   0  0  0  0  0  0  0  0  0  0  0  0
   26.6409  -27.3096  -17.0470 C   0  0  0  0  0  0  0  0  0  0  0  0
   25.8992  -26.3388  -16.2194 C   0  0  0  0  0  0  0  0  0  0  0  0
   26.3801  -24.9383  -16.6192 C   0  0  2  0  0  0  0  0  0  0  0  0
   27.7425  -24.7342  -16.2404 N   0  0  0  0  0  0  0  0  0  0  0  0
   25.4295  -23.9803  -16.0172 C   0  0  0  0  0  0  0  0  0  0  0  0
   25.3633  -23.8974  -14.7840 O   0  0  0  0  0  0  0  0  0  0  0  0
   27.7122  -27.9549  -16.4804 C   0  0  0  0  0  0  0  0  0  0  0  0
   28.4261  -28.8669  -17.2277 C   0  0  0  0  0  0  0  0  0  0  0  0
   23.4872  -17.4337  -20.6930 N   0  0  0  0  0  0  0  0  0  0  0  0
   23.3979  -18.7171  -21.2697 C   0  0  0  0  0  0  0  0  0  0  0  0
   23.3420  -18.7603  -22.5781 N   0  0  0  0  0  0  0  0  0  0  0  0
   23.3670  -19.9080  -20.5083 N   0  0  0  0  0  0  0  0  0  0  0  0
   23.4857  -19.7754  -19.0567 C   0  0  0  0  0  0  0  0  0  0  0  0
   23.4408  -21.1527  -18.3992 C   0  0  0  0  0  0  0  0  0  0  0  0
   23.5585  -20.9386  -16.9080 C   0  0  0  0  0  0  0  0  0  0  0  0
   23.6027  -22.2555  -16.1594 C   0  0  2  0  0  0  0  0  0  0  0  0
   24.5648  -23.1276  -16.7812 N   0  0  0  0  0  0  0  0  0  0  0  0
   22.2204  -22.8511  -16.2054 C   0  0  0  0  0  0  0  0  0  0  0  0
   21.8485  -23.5687  -17.1619 O   0  0  0  0  0  0  0  0  0  0  0  0
   23.3024  -19.6624  -23.0965 N   0  0  0  0  0  0  0  0  0  0  0  0
   18.8734  -26.9309   -9.8029 C   0  0  0  0  0  0  0  0  0  0  0  0
   19.6490  -27.3502  -10.9497 N   0  0  0  0  0  0  0  0  0  0  0  0
   20.3733  -28.4080  -10.8820 N   0  0  0  0  0  0  0  0  0  0  0  0
   19.6089  -26.5931  -12.1446 C   0  0  0  0  0  0  0  0  0  0  0  0
   18.7977  -25.3549  -12.1773 C   0  0  0  0  0  0  0  0  0  0  0  0
   18.7710  -24.7924  -13.5522 C   0  0  0  0  0  0  0  0  0  0  0  0
   19.9082  -24.0014  -13.9596 C   0  0  1  0  0  0  0  0  0  0  0  0
   19.9510  -23.2676  -15.2448 N   0  0  0  0  0  0  0  0  0  0  0  0
   21.3037  -22.6151  -15.1688 C   0  0  0  0  0  0  0  0  0  0  0  0
   18.9620  -22.2557  -15.5019 O   0  0  0  0  0  0  0  0  0  0  0  0
   17.7771  -22.4323  -15.8556 O   0  0  0  0  0  0  0  0  0  0  0  0
  2  1  1  0
  2 12  2  0
  3  2  1  0
  4  3  2  0
  4  5  1  0
  5 11  2  0
  6  5  1  0
  7  6  1  0
  7  8  1  1
  9 21  1  0
  9  7  1  0
 10  9  2  0
 11 12  1  0
 14 13  1  0
 15 14  2  0
 16 14  1  0
 17 16  1  0
 18 17  1  0
 18 19  1  0
 20 19  1  6
 20 21  1  0
 22 20  1  0
 22 32  1  0
 23 22  2  0
 25 24  1  0
 26 25  2  0
 27 25  1  0
 28 27  1  0
 29 28  1  0
 30 29  1  0
 31 32  1  0
 31 30  1  6
 33 35  1  0
 33 31  1  0
 34 33  2  0
M  END
$$$$
