YRR.pdb
     RDKit          3D

 35 35  0  0  1  0  0  0  0  0999 V2000
   32.6425  -21.8790  -10.1840 O   0  0  0  0  0  0  0  0  0  0  0  0
   31.3585  -21.5001  -10.5548 C   0  0  0  0  0  0  0  0  0  0  0  0
   30.2814  -21.8417   -9.7609 C   0  0  0  0  0  0  0  0  0  0  0  0
   29.0175  -21.4545  -10.1495 C   0  0  0  0  0  0  0  0  0  0  0  0
   28.8538  -20.7480  -11.2990 C   0  0  0  0  0  0  0  0  0  0  0  0
   27.5021  -20.3318  -11.7201 C   0  0  0  0  0  0  0  0  0  0  0  0
   26.7650  -21.5904  -12.1944 C   0  0  2  0  0  0  0  0  0  0  0  0
   27.3115  -22.0752  -13.4223 N   0  0  0  0  0  0  0  0  0  0  0  0
   25.3317  -21.2370  -12.2621 C   0  0  0  0  0  0  0  0  0  0  0  0
   24.8378  -20.9469  -13.3592 O   0  0  0  0  0  0  0  0  0  0  0  0
   29.9143  -20.4009  -12.0990 C   0  0  0  0  0  0  0  0  0  0  0  0
   31.1894  -20.7756  -11.7337 C   0  0  0  0  0  0  0  0  0  0  0  0
   18.1599  -23.0035   -9.2246 N   0  0  0  0  0  0  0  0  0  0  0  0
   19.1126  -23.4303   -8.2770 C   0  0  0  0  0  0  0  0  0  0  0  0
   18.9350  -24.6289   -7.7783 N   0  0  0  0  0  0  0  0  0  0  0  0
   20.2069  -22.6348   -7.8663 N   0  0  0  0  0  0  0  0  0  0  0  0
   20.3669  -21.3338   -8.5149 C   0  0  0  0  0  0  0  0  0  0  0  0
   20.9129  -21.5168   -9.9289 C   0  0  0  0  0  0  0  0  0  0  0  0
   22.4047  -21.2853   -9.8641 C   0  0  0  0  0  0  0  0  0  0  0  0
   23.0320  -21.3142  -11.2433 C   0  0  2  0  0  0  0  0  0  0  0  0
   24.4625  -21.2076  -11.1208 N   0  0  0  0  0  0  0  0  0  0  0  0
   22.4662  -20.1577  -12.0243 C   0  0  0  0  0  0  0  0  0  0  0  0
   22.4462  -18.9975  -11.5536 O   0  0  0  0  0  0  0  0  0  0  0  0
   19.5731  -25.0232   -7.0562 N   0  0  0  0  0  0  0  0  0  0  0  0
   23.9276  -17.4910  -18.8683 C   0  0  0  0  0  0  0  0  0  0  0  0
   23.1584  -16.2955  -18.6015 N   0  0  0  0  0  0  0  0  0  0  0  0
   22.9094  -15.4677  -19.5508 N   0  0  0  0  0  0  0  0  0  0  0  0
   22.6819  -16.0392  -17.2938 C   0  0  0  0  0  0  0  0  0  0  0  0
   22.9698  -17.0223  -16.2247 C   0  0  0  0  0  0  0  0  0  0  0  0
   22.0228  -18.1643  -16.3061 C   0  0  0  0  0  0  0  0  0  0  0  0
   22.1436  -19.1900  -15.2970 C   0  0  2  0  0  0  0  0  0  0  0  0
   21.3658  -19.1663  -14.0375 N   0  0  0  0  0  0  0  0  0  0  0  0
   21.9407  -20.3512  -13.3117 C   0  0  0  0  0  0  0  0  0  0  0  0
   19.9362  -19.3098  -14.0994 O   0  0  0  0  0  0  0  0  0  0  0  0
   19.0929  -18.3998  -14.2457 O   0  0  0  0  0  0  0  0  0  0  0  0
  2  1  1  0
  2 12  2  0
  3  2  1  0
  4  3  2  0
  4  5  1  0
  5 11  2  0
  6  5  1  0
  7  6  1  0
  7  8  1  6
  9 21  1  0
  9  7  1  0
 10  9  2  0
 11 12  1  0
 14 13  1  0
 15 14  2  0
 16 14  1  0
 17 16  1  0
 18 17  1  0
 18 19  1  0
 20 19  1  1
 20 21  1  0
 22 20  1  0
 22 32  1  0
 23 22  2  0
 25 24  1  0
 26 25  2  0
 27 25  1  0
 28 27  1  0
 29 28  1  0
 30 29  1  0
 31 32  1  0
 31 30  1  1
 33 35  1  0
 33 31  1  0
 34 33  2  0
M  END
$$$$
