YRR.pdb
     RDKit          3D

 35 35  0  0  1  0  0  0  0  0999 V2000
   17.8859  -14.5164  -16.8033 O   0  0  0  0  0  0  0  0  0  0  0  0
   18.2412  -15.6029  -16.0139 C   0  0  0  0  0  0  0  0  0  0  0  0
   19.1488  -15.4418  -14.9856 C   0  0  0  0  0  0  0  0  0  0  0  0
   19.4853  -16.5342  -14.2162 C   0  0  0  0  0  0  0  0  0  0  0  0
   18.9222  -17.7426  -14.4807 C   0  0  0  0  0  0  0  0  0  0  0  0
   19.2800  -18.9159  -13.6603 C   0  0  0  0  0  0  0  0  0  0  0  0
   20.6954  -19.3427  -14.0687 C   0  0  2  0  0  0  0  0  0  0  0  0
   20.7079  -19.8880  -15.3892 N   0  0  0  0  0  0  0  0  0  0  0  0
   21.1729  -20.2695  -13.0214 C   0  0  0  0  0  0  0  0  0  0  0  0
   20.7097  -21.4165  -12.9804 O   0  0  0  0  0  0  0  0  0  0  0  0
   18.0186  -17.9190  -15.4993 C   0  0  0  0  0  0  0  0  0  0  0  0
   17.6644  -16.8428  -16.2843 C   0  0  0  0  0  0  0  0  0  0  0  0
   27.4520  -22.3355   -9.8675 N   0  0  0  0  0  0  0  0  0  0  0  0
   27.3899  -20.9653  -10.1937 C   0  0  0  0  0  0  0  0  0  0  0  0
   28.2782  -20.5354  -11.0557 N   0  0  0  0  0  0  0  0  0  0  0  0
   26.4375  -20.0794   -9.6394 N   0  0  0  0  0  0  0  0  0  0  0  0
   25.5360  -20.6197   -8.6224 C   0  0  0  0  0  0  0  0  0  0  0  0
   24.3287  -21.2761   -9.2876 C   0  0  0  0  0  0  0  0  0  0  0  0
   23.7815  -20.2885  -10.2920 C   0  0  0  0  0  0  0  0  0  0  0  0
   22.5544  -20.8331  -10.9950 C   0  0  2  0  0  0  0  0  0  0  0  0
   22.1534  -19.9204  -12.0337 N   0  0  0  0  0  0  0  0  0  0  0  0
   21.4705  -20.9898   -9.9615 C   0  0  0  0  0  0  0  0  0  0  0  0
   20.8546  -20.0001   -9.5039 O   0  0  0  0  0  0  0  0  0  0  0  0
   28.3449  -19.5307  -11.3205 N   0  0  0  0  0  0  0  0  0  0  0  0
   14.7647  -22.4171   -7.9243 C   0  0  0  0  0  0  0  0  0  0  0  0
   14.5816  -21.6216   -9.1184 N   0  0  0  0  0  0  0  0  0  0  0  0
   13.6494  -20.7401   -9.1651 N   0  0  0  0  0  0  0  0  0  0  0  0
   15.4299  -21.8166  -10.2342 C   0  0  0  0  0  0  0  0  0  0  0  0
   16.5753  -22.7461  -10.1052 C   0  0  0  0  0  0  0  0  0  0  0  0
   17.6702  -22.1099   -9.3280 C   0  0  0  0  0  0  0  0  0  0  0  0
   18.9037  -22.8504   -9.2054 C   0  0  2  0  0  0  0  0  0  0  0  0
   20.0566  -22.3564   -8.4189 N   0  0  0  0  0  0  0  0  0  0  0  0
   21.1191  -22.2602   -9.4786 C   0  0  0  0  0  0  0  0  0  0  0  0
   20.5547  -23.1591   -7.3346 O   0  0  0  0  0  0  0  0  0  0  0  0
   21.5088  -23.9649   -7.3695 O   0  0  0  0  0  0  0  0  0  0  0  0
  2  1  1  0
  2 12  2  0
  3  2  1  0
  4  3  2  0
  4  5  1  0
  5 11  2  0
  6  5  1  0
  7  6  1  0
  7  8  1  6
  9 21  1  0
  9  7  1  0
 10  9  2  0
 11 12  1  0
 14 13  1  0
 15 14  2  0
 16 14  1  0
 17 16  1  0
 18 17  1  0
 18 19  1  0
 20 19  1  1
 20 21  1  0
 22 20  1  0
 22 32  1  0
 23 22  2  0
 25 24  1  0
 26 25  2  0
 27 25  1  0
 28 27  1  0
 29 28  1  0
 30 29  1  0
 31 32  1  0
 31 30  1  6
 33 35  1  0
 33 31  1  0
 34 33  2  0
M  END
$$$$
