YRR.pdb
     RDKit          3D

 35 35  0  0  1  0  0  0  0  0999 V2000
   21.9520   -9.6810    6.5297 O   0  0  0  0  0  0  0  0  0  0  0  0
   21.1523  -10.8169    6.5284 C   0  0  0  0  0  0  0  0  0  0  0  0
   20.2650  -11.0354    5.4929 C   0  0  0  0  0  0  0  0  0  0  0  0
   19.4827  -12.1694    5.5136 C   0  0  0  0  0  0  0  0  0  0  0  0
   19.5969  -13.0470    6.5452 C   0  0  0  0  0  0  0  0  0  0  0  0
   18.7605  -14.2624    6.5725 C   0  0  0  0  0  0  0  0  0  0  0  0
   17.3266  -13.8216    6.8918 C   0  0  2  0  0  0  0  0  0  0  0  0
   17.2518  -13.2057    8.1788 N   0  0  0  0  0  0  0  0  0  0  0  0
   16.4751  -15.0196    6.7383 C   0  0  0  0  0  0  0  0  0  0  0  0
   16.2523  -15.7267    7.7294 O   0  0  0  0  0  0  0  0  0  0  0  0
   20.4740  -12.8439    7.5818 C   0  0  0  0  0  0  0  0  0  0  0  0
   21.2685  -11.7176    7.5859 C   0  0  0  0  0  0  0  0  0  0  0  0
   11.2587  -17.8132    0.1282 N   0  0  0  0  0  0  0  0  0  0  0  0
   11.1703  -18.8368    1.0937 C   0  0  0  0  0  0  0  0  0  0  0  0
   10.3630  -19.8296    0.8114 N   0  0  0  0  0  0  0  0  0  0  0  0
   11.8963  -18.8223    2.3068 N   0  0  0  0  0  0  0  0  0  0  0  0
   12.9036  -17.7745    2.4693 C   0  0  0  0  0  0  0  0  0  0  0  0
   13.4935  -17.8283    3.8764 C   0  0  0  0  0  0  0  0  0  0  0  0
   14.4487  -16.6644    4.0040 C   0  0  0  0  0  0  0  0  0  0  0  0
   15.0889  -16.6187    5.3768 C   0  0  2  0  0  0  0  0  0  0  0  0
   15.8813  -15.4226    5.4959 N   0  0  0  0  0  0  0  0  0  0  0  0
   15.9413  -17.8515    5.5220 C   0  0  0  0  0  0  0  0  0  0  0  0
   17.0872  -17.9176    5.0213 O   0  0  0  0  0  0  0  0  0  0  0  0
   10.1875  -20.6033    1.4857 N   0  0  0  0  0  0  0  0  0  0  0  0
   18.6316  -23.5087   11.4627 C   0  0  0  0  0  0  0  0  0  0  0  0
   17.5260  -24.1474   10.7830 N   0  0  0  0  0  0  0  0  0  0  0  0
   17.3540  -25.4152   10.8893 N   0  0  0  0  0  0  0  0  0  0  0  0
   16.6357  -23.3739   10.0009 C   0  0  0  0  0  0  0  0  0  0  0  0
   17.1590  -22.1836    9.2925 C   0  0  0  0  0  0  0  0  0  0  0  0
   16.0549  -21.4677    8.6027 C   0  0  0  0  0  0  0  0  0  0  0  0
   16.3942  -20.2425    7.9181 C   0  0  1  0  0  0  0  0  0  0  0  0
   16.4032  -20.1290    6.4419 N   0  0  0  0  0  0  0  0  0  0  0  0
   15.4698  -18.9696    6.2280 C   0  0  0  0  0  0  0  0  0  0  0  0
   15.9464  -21.2429    5.6553 O   0  0  0  0  0  0  0  0  0  0  0  0
   14.7796  -21.4641    5.2679 O   0  0  0  0  0  0  0  0  0  0  0  0
  2  1  1  0
  2 12  2  0
  3  2  1  0
  4  3  2  0
  4  5  1  0
  5 11  2  0
  6  5  1  0
  7  6  1  0
  7  8  1  1
  9 21  1  0
  9  7  1  0
 10  9  2  0
 11 12  1  0
 14 13  1  0
 15 14  2  0
 16 14  1  0
 17 16  1  0
 18 17  1  0
 18 19  1  0
 20 19  1  6
 20 21  1  0
 22 20  1  0
 22 32  1  0
 23 22  2  0
 25 24  1  0
 26 25  2  0
 27 25  1  0
 28 27  1  0
 29 28  1  0
 30 29  1  0
 31 32  1  0
 31 30  1  1
 33 35  1  0
 33 31  1  0
 34 33  2  0
M  END
$$$$
