YRR.pdb
     RDKit          3D

 35 35  0  0  1  0  0  0  0  0999 V2000
   29.3707  -14.5162  -19.4186 O   0  0  0  0  0  0  0  0  0  0  0  0
   28.6341  -15.5238  -18.8088 C   0  0  0  0  0  0  0  0  0  0  0  0
   28.1305  -16.5646  -19.5640 C   0  0  0  0  0  0  0  0  0  0  0  0
   27.4032  -17.5524  -18.9367 C   0  0  0  0  0  0  0  0  0  0  0  0
   27.1954  -17.4860  -17.5951 C   0  0  0  0  0  0  0  0  0  0  0  0
   26.4163  -18.5409  -16.9186 C   0  0  0  0  0  0  0  0  0  0  0  0
   27.4143  -19.5872  -16.4071 C   0  0  2  0  0  0  0  0  0  0  0  0
   28.0043  -20.3086  -17.4900 N   0  0  0  0  0  0  0  0  0  0  0  0
   26.6802  -20.4302  -15.4406 C   0  0  0  0  0  0  0  0  0  0  0  0
   25.8373  -21.2314  -15.8642 O   0  0  0  0  0  0  0  0  0  0  0  0
   27.6893  -16.4580  -16.8306 C   0  0  0  0  0  0  0  0  0  0  0  0
   28.4204  -15.4567  -17.4330 C   0  0  0  0  0  0  0  0  0  0  0  0
   22.9959  -19.9940   -9.2355 N   0  0  0  0  0  0  0  0  0  0  0  0
   23.5646  -20.8530   -8.2730 C   0  0  0  0  0  0  0  0  0  0  0  0
   22.7466  -21.3262   -7.3653 N   0  0  0  0  0  0  0  0  0  0  0  0
   24.9346  -21.2024   -8.2595 N   0  0  0  0  0  0  0  0  0  0  0  0
   25.7826  -20.6182   -9.2980 C   0  0  0  0  0  0  0  0  0  0  0  0
   25.3274  -21.0940  -10.6755 C   0  0  0  0  0  0  0  0  0  0  0  0
   26.2974  -20.5268  -11.6858 C   0  0  0  0  0  0  0  0  0  0  0  0
   25.9655  -20.9837  -13.0921 C   0  0  2  0  0  0  0  0  0  0  0  0
   26.8841  -20.3790  -14.0212 N   0  0  0  0  0  0  0  0  0  0  0  0
   24.5474  -20.5683  -13.3822 C   0  0  0  0  0  0  0  0  0  0  0  0
   24.2212  -19.3616  -13.4565 O   0  0  0  0  0  0  0  0  0  0  0  0
   23.0720  -21.9718   -6.6161 N   0  0  0  0  0  0  0  0  0  0  0  0
   19.6364  -23.7039  -19.4813 C   0  0  0  0  0  0  0  0  0  0  0  0
   18.6339  -22.9839  -18.7271 N   0  0  0  0  0  0  0  0  0  0  0  0
   17.4410  -22.8730  -19.1884 N   0  0  0  0  0  0  0  0  0  0  0  0
   18.9697  -22.4017  -17.4817 C   0  0  0  0  0  0  0  0  0  0  0  0
   20.3665  -22.5027  -17.0009 C   0  0  0  0  0  0  0  0  0  0  0  0
   20.5219  -21.7785  -15.7129 C   0  0  0  0  0  0  0  0  0  0  0  0
   21.8251  -21.8159  -15.0923 C   0  0  1  0  0  0  0  0  0  0  0  0
   22.1441  -21.0610  -13.8593 N   0  0  0  0  0  0  0  0  0  0  0  0
   23.5445  -21.5309  -13.5780 C   0  0  0  0  0  0  0  0  0  0  0  0
   21.3398  -21.2724  -12.6860 O   0  0  0  0  0  0  0  0  0  0  0  0
   21.4227  -22.2195  -11.8758 O   0  0  0  0  0  0  0  0  0  0  0  0
  2  1  1  0
  2 12  2  0
  3  2  1  0
  4  3  2  0
  4  5  1  0
  5 11  2  0
  6  5  1  0
  7  6  1  0
  7  8  1  6
  9 21  1  0
  9  7  1  0
 10  9  2  0
 11 12  1  0
 14 13  1  0
 15 14  2  0
 16 14  1  0
 17 16  1  0
 18 17  1  0
 18 19  1  0
 20 19  1  1
 20 21  1  0
 22 20  1  0
 22 32  1  0
 23 22  2  0
 25 24  1  0
 26 25  2  0
 27 25  1  0
 28 27  1  0
 29 28  1  0
 30 29  1  0
 31 32  1  0
 31 30  1  6
 33 35  1  0
 33 31  1  0
 34 33  2  0
M  END
$$$$
