YRR.pdb
     RDKit          3D

 35 35  0  0  1  0  0  0  0  0999 V2000
   24.3948  -14.7774  -22.3212 O   0  0  0  0  0  0  0  0  0  0  0  0
   23.6348  -14.2190  -21.3013 C   0  0  0  0  0  0  0  0  0  0  0  0
   22.3242  -13.8534  -21.5377 C   0  0  0  0  0  0  0  0  0  0  0  0
   21.5904  -13.3017  -20.5103 C   0  0  0  0  0  0  0  0  0  0  0  0
   22.1649  -13.1281  -19.2907 C   0  0  0  0  0  0  0  0  0  0  0  0
   21.3835  -12.5368  -18.1874 C   0  0  0  0  0  0  0  0  0  0  0  0
   21.5813  -11.0172  -18.2526 C   0  0  2  0  0  0  0  0  0  0  0  0
   22.9319  -10.6604  -17.9528 N   0  0  0  0  0  0  0  0  0  0  0  0
   20.5776  -10.4240  -17.3445 C   0  0  0  0  0  0  0  0  0  0  0  0
   20.9661   -9.7672  -16.3700 O   0  0  0  0  0  0  0  0  0  0  0  0
   23.4664  -13.4863  -19.0400 C   0  0  0  0  0  0  0  0  0  0  0  0
   24.2229  -14.0404  -20.0502 C   0  0  0  0  0  0  0  0  0  0  0  0
   22.6986   -6.2281  -15.0631 N   0  0  0  0  0  0  0  0  0  0  0  0
   21.5595   -5.6515  -14.4652 C   0  0  0  0  0  0  0  0  0  0  0  0
   21.7605   -4.5546  -13.7771 N   0  0  0  0  0  0  0  0  0  0  0  0
   20.2618   -6.2007  -14.5812 N   0  0  0  0  0  0  0  0  0  0  0  0
   19.9777   -6.9950  -15.7758 C   0  0  0  0  0  0  0  0  0  0  0  0
   18.5776   -7.5972  -15.6841 C   0  0  0  0  0  0  0  0  0  0  0  0
   18.3378   -8.3646  -16.9635 C   0  0  0  0  0  0  0  0  0  0  0  0
   18.2122   -9.8523  -16.7039 C   0  0  2  0  0  0  0  0  0  0  0  0
   19.1606  -10.5626  -17.5218 N   0  0  0  0  0  0  0  0  0  0  0  0
   16.7997  -10.2541  -17.0369 C   0  0  0  0  0  0  0  0  0  0  0  0
   16.3870  -10.2765  -18.2190 O   0  0  0  0  0  0  0  0  0  0  0  0
   20.9747   -4.0269  -13.3433 N   0  0  0  0  0  0  0  0  0  0  0  0
   17.1220  -16.9051  -16.8100 C   0  0  0  0  0  0  0  0  0  0  0  0
   15.7327  -17.3032  -16.7489 N   0  0  0  0  0  0  0  0  0  0  0  0
   15.4039  -18.5220  -16.9827 N   0  0  0  0  0  0  0  0  0  0  0  0
   14.7375  -16.3482  -16.4322 C   0  0  0  0  0  0  0  0  0  0  0  0
   15.0014  -14.9204  -16.7223 C   0  0  0  0  0  0  0  0  0  0  0  0
   15.7594  -14.2992  -15.6056 C   0  0  0  0  0  0  0  0  0  0  0  0
   16.0905  -12.8998  -15.7360 C   0  0  1  0  0  0  0  0  0  0  0  0
   15.1094  -11.8857  -16.1841 N   0  0  0  0  0  0  0  0  0  0  0  0
   15.8998  -10.6167  -16.0223 C   0  0  0  0  0  0  0  0  0  0  0  0
   13.8689  -11.7535  -15.4686 O   0  0  0  0  0  0  0  0  0  0  0  0
   12.8823  -12.5179  -15.5226 O   0  0  0  0  0  0  0  0  0  0  0  0
  2  1  1  0
  2 12  2  0
  3  2  1  0
  4  3  2  0
  4  5  1  0
  5 11  2  0
  6  5  1  0
  7  6  1  0
  7  8  1  1
  9 21  1  0
  9  7  1  0
 10  9  2  0
 11 12  1  0
 14 13  1  0
 15 14  2  0
 16 14  1  0
 17 16  1  0
 18 17  1  0
 18 19  1  0
 20 19  1  6
 20 21  1  0
 22 20  1  0
 22 32  1  0
 23 22  2  0
 25 24  1  0
 26 25  2  0
 27 25  1  0
 28 27  1  0
 29 28  1  0
 30 29  1  0
 31 32  1  0
 31 30  1  6
 33 35  1  0
 33 31  1  0
 34 33  2  0
M  END
$$$$
