YRR.pdb
     RDKit          3D

 35 35  0  0  1  0  0  0  0  0999 V2000
   19.7701  -10.5399  -17.4631 O   0  0  0  0  0  0  0  0  0  0  0  0
   19.8143  -11.9171  -17.2864 C   0  0  0  0  0  0  0  0  0  0  0  0
   20.9098  -12.5007  -16.6811 C   0  0  0  0  0  0  0  0  0  0  0  0
   20.9306  -13.8685  -16.5166 C   0  0  0  0  0  0  0  0  0  0  0  0
   19.8801  -14.6143  -16.9497 C   0  0  0  0  0  0  0  0  0  0  0  0
   19.8980  -16.0797  -16.7768 C   0  0  0  0  0  0  0  0  0  0  0  0
   20.8874  -16.6473  -17.8021 C   0  0  2  0  0  0  0  0  0  0  0  0
   20.3559  -16.5732  -19.1262 N   0  0  0  0  0  0  0  0  0  0  0  0
   21.2181  -18.0159  -17.3532 C   0  0  0  0  0  0  0  0  0  0  0  0
   20.5402  -18.9633  -17.7712 O   0  0  0  0  0  0  0  0  0  0  0  0
   18.7840  -14.0492  -17.5533 C   0  0  0  0  0  0  0  0  0  0  0  0
   18.7375  -12.6830  -17.7302 C   0  0  0  0  0  0  0  0  0  0  0  0
   28.5623  -21.0329  -14.0375 N   0  0  0  0  0  0  0  0  0  0  0  0
   27.6504  -19.9920  -13.7678 C   0  0  0  0  0  0  0  0  0  0  0  0
   28.1503  -18.9144  -13.2146 N   0  0  0  0  0  0  0  0  0  0  0  0
   26.2703  -20.0751  -14.0636 N   0  0  0  0  0  0  0  0  0  0  0  0
   25.8219  -21.2332  -14.8360 C   0  0  0  0  0  0  0  0  0  0  0  0
   24.3121  -21.1662  -15.0524 C   0  0  0  0  0  0  0  0  0  0  0  0
   23.9967  -19.7808  -15.5669 C   0  0  0  0  0  0  0  0  0  0  0  0
   22.5463  -19.6619  -15.9899 C   0  0  2  0  0  0  0  0  0  0  0  0
   22.2903  -18.3220  -16.4501 N   0  0  0  0  0  0  0  0  0  0  0  0
   21.6951  -19.9973  -14.7938 C   0  0  0  0  0  0  0  0  0  0  0  0
   21.5234  -19.1780  -13.8624 O   0  0  0  0  0  0  0  0  0  0  0  0
   27.5596  -18.0856  -12.9949 N   0  0  0  0  0  0  0  0  0  0  0  0
   20.1082  -28.0305  -11.9313 C   0  0  0  0  0  0  0  0  0  0  0  0
   19.1687  -27.2760  -11.1311 N   0  0  0  0  0  0  0  0  0  0  0  0
   18.5178  -27.8561  -10.1888 N   0  0  0  0  0  0  0  0  0  0  0  0
   18.9676  -25.8991  -11.3887 C   0  0  0  0  0  0  0  0  0  0  0  0
   19.7207  -25.2629  -12.4934 C   0  0  0  0  0  0  0  0  0  0  0  0
   19.5278  -23.7900  -12.4675 C   0  0  0  0  0  0  0  0  0  0  0  0
   20.2393  -23.0176  -13.4585 C   0  0  2  0  0  0  0  0  0  0  0  0
   20.2417  -21.5371  -13.4661 N   0  0  0  0  0  0  0  0  0  0  0  0
   21.0666  -21.2482  -14.6897 C   0  0  0  0  0  0  0  0  0  0  0  0
   20.8113  -20.8362  -12.3469 O   0  0  0  0  0  0  0  0  0  0  0  0
   22.0230  -20.7283  -12.0625 O   0  0  0  0  0  0  0  0  0  0  0  0
  2  1  1  0
  2 12  2  0
  3  2  1  0
  4  3  2  0
  4  5  1  0
  5 11  2  0
  6  5  1  0
  7  6  1  0
  7  8  1  6
  9 21  1  0
  9  7  1  0
 10  9  2  0
 11 12  1  0
 14 13  1  0
 15 14  2  0
 16 14  1  0
 17 16  1  0
 18 17  1  0
 18 19  1  0
 20 19  1  1
 20 21  1  0
 22 20  1  0
 22 32  1  0
 23 22  2  0
 25 24  1  0
 26 25  2  0
 27 25  1  0
 28 27  1  0
 29 28  1  0
 30 29  1  0
 31 32  1  0
 31 30  1  6
 33 35  1  0
 33 31  1  0
 34 33  2  0
M  END
$$$$
