YRR.pdb
     RDKit          3D

 35 35  0  0  1  0  0  0  0  0999 V2000
   30.7737  -22.8886  -21.6906 O   0  0  0  0  0  0  0  0  0  0  0  0
   30.0657  -22.3888  -20.6049 C   0  0  0  0  0  0  0  0  0  0  0  0
   30.7381  -21.9916  -19.4660 C   0  0  0  0  0  0  0  0  0  0  0  0
   30.0143  -21.4989  -18.4022 C   0  0  0  0  0  0  0  0  0  0  0  0
   28.6608  -21.4129  -18.4915 C   0  0  0  0  0  0  0  0  0  0  0  0
   27.8808  -20.8869  -17.3546 C   0  0  0  0  0  0  0  0  0  0  0  0
   27.4542  -19.4589  -17.7167 C   0  0  2  0  0  0  0  0  0  0  0  0
   28.5781  -18.5773  -17.7450 N   0  0  0  0  0  0  0  0  0  0  0  0
   26.4034  -19.0769  -16.7504 C   0  0  0  0  0  0  0  0  0  0  0  0
   26.7388  -18.6796  -15.6272 O   0  0  0  0  0  0  0  0  0  0  0  0
   27.9778  -21.8038  -19.6166 C   0  0  0  0  0  0  0  0  0  0  0  0
   28.6775  -22.3003  -20.6954 C   0  0  0  0  0  0  0  0  0  0  0  0
   17.9736  -18.1547  -18.2145 N   0  0  0  0  0  0  0  0  0  0  0  0
   18.3357  -19.2240  -17.3701 C   0  0  0  0  0  0  0  0  0  0  0  0
   17.5069  -20.2383  -17.3339 N   0  0  0  0  0  0  0  0  0  0  0  0
   19.5171  -19.2320  -16.5934 N   0  0  0  0  0  0  0  0  0  0  0  0
   20.3020  -17.9985  -16.5597 C   0  0  0  0  0  0  0  0  0  0  0  0
   21.5843  -18.2149  -15.7598 C   0  0  0  0  0  0  0  0  0  0  0  0
   22.6684  -18.5822  -16.7463 C   0  0  0  0  0  0  0  0  0  0  0  0
   24.0023  -18.7849  -16.0563 C   0  0  2  0  0  0  0  0  0  0  0  0
   24.9983  -19.1381  -17.0341 N   0  0  0  0  0  0  0  0  0  0  0  0
   23.8262  -19.8818  -15.0398 C   0  0  0  0  0  0  0  0  0  0  0  0
   23.7839  -21.0868  -15.3780 O   0  0  0  0  0  0  0  0  0  0  0  0
   17.6678  -21.0568  -16.7109 N   0  0  0  0  0  0  0  0  0  0  0  0
   28.9606  -21.0242   -9.1030 C   0  0  0  0  0  0  0  0  0  0  0  0
   28.7482  -21.2473  -10.5163 N   0  0  0  0  0  0  0  0  0  0  0  0
   29.7491  -21.2668  -11.3201 N   0  0  0  0  0  0  0  0  0  0  0  0
   27.4370  -21.4428  -11.0114 C   0  0  0  0  0  0  0  0  0  0  0  0
   26.2965  -21.3282  -10.0741 C   0  0  0  0  0  0  0  0  0  0  0  0
   25.0134  -21.5223  -10.7975 C   0  0  0  0  0  0  0  0  0  0  0  0
   24.7529  -20.6486  -11.9173 C   0  0  1  0  0  0  0  0  0  0  0  0
   23.5009  -20.7120  -12.7050 N   0  0  0  0  0  0  0  0  0  0  0  0
   23.7029  -19.5803  -13.6743 C   0  0  0  0  0  0  0  0  0  0  0  0
   22.2443  -20.5263  -12.0309 O   0  0  0  0  0  0  0  0  0  0  0  0
   21.6448  -21.3537  -11.3121 O   0  0  0  0  0  0  0  0  0  0  0  0
  2  1  1  0
  2 12  2  0
  3  2  1  0
  4  3  2  0
  4  5  1  0
  5 11  2  0
  6  5  1  0
  7  6  1  0
  7  8  1  1
  9 21  1  0
  9  7  1  0
 10  9  2  0
 11 12  1  0
 14 13  1  0
 15 14  2  0
 16 14  1  0
 17 16  1  0
 18 17  1  0
 18 19  1  0
 20 19  1  6
 20 21  1  0
 22 20  1  0
 22 32  1  0
 23 22  2  0
 25 24  1  0
 26 25  2  0
 27 25  1  0
 28 27  1  0
 29 28  1  0
 30 29  1  0
 31 32  1  0
 31 30  1  6
 33 35  1  0
 33 31  1  0
 34 33  2  0
M  END
$$$$
