YRR.pdb
     RDKit          3D

 35 35  0  0  1  0  0  0  0  0999 V2000
   22.2675  -18.8185  -14.6928 O   0  0  0  0  0  0  0  0  0  0  0  0
   21.4537  -19.5370  -13.8260 C   0  0  0  0  0  0  0  0  0  0  0  0
   20.0875  -19.3353  -13.8351 C   0  0  0  0  0  0  0  0  0  0  0  0
   19.3010  -20.0599  -12.9663 C   0  0  0  0  0  0  0  0  0  0  0  0
   19.8791  -20.9541  -12.1216 C   0  0  0  0  0  0  0  0  0  0  0  0
   19.0413  -21.7319  -11.1885 C   0  0  0  0  0  0  0  0  0  0  0  0
   18.9978  -23.1739  -11.7091 C   0  0  2  0  0  0  0  0  0  0  0  0
   18.4002  -23.2355  -13.0054 N   0  0  0  0  0  0  0  0  0  0  0  0
   18.3020  -23.9717  -10.6780 C   0  0  0  0  0  0  0  0  0  0  0  0
   17.1045  -23.7504  -10.4570 O   0  0  0  0  0  0  0  0  0  0  0  0
   21.2356  -21.1659  -12.1005 C   0  0  0  0  0  0  0  0  0  0  0  0
   22.0455  -20.4543  -12.9593 C   0  0  0  0  0  0  0  0  0  0  0  0
   20.4991  -31.6974   -9.1138 N   0  0  0  0  0  0  0  0  0  0  0  0
   20.9712  -30.7168  -10.0100 C   0  0  0  0  0  0  0  0  0  0  0  0
   22.0386  -31.0317  -10.7017 N   0  0  0  0  0  0  0  0  0  0  0  0
   20.3523  -29.4563  -10.1755 N   0  0  0  0  0  0  0  0  0  0  0  0
   18.9161  -29.3781   -9.9110 C   0  0  0  0  0  0  0  0  0  0  0  0
   18.4228  -27.9477  -10.1147 C   0  0  0  0  0  0  0  0  0  0  0  0
   18.7744  -27.1730   -8.8658 C   0  0  0  0  0  0  0  0  0  0  0  0
   18.2212  -25.7629   -8.9124 C   0  0  2  0  0  0  0  0  0  0  0  0
   18.9344  -25.0014   -9.9045 N   0  0  0  0  0  0  0  0  0  0  0  0
   18.3907  -25.1627   -7.5418 C   0  0  0  0  0  0  0  0  0  0  0  0
   19.5009  -24.7409   -7.1447 O   0  0  0  0  0  0  0  0  0  0  0  0
   22.4826  -30.3604  -11.3622 N   0  0  0  0  0  0  0  0  0  0  0  0
   11.5867  -23.1014   -2.8564 C   0  0  0  0  0  0  0  0  0  0  0  0
   12.3269  -22.2406   -3.7527 N   0  0  0  0  0  0  0  0  0  0  0  0
   11.7274  -21.2841   -4.3643 N   0  0  0  0  0  0  0  0  0  0  0  0
   13.7111  -22.4545   -3.9552 C   0  0  0  0  0  0  0  0  0  0  0  0
   14.3767  -23.5562   -3.2233 C   0  0  0  0  0  0  0  0  0  0  0  0
   15.8162  -23.6198   -3.5857 C   0  0  0  0  0  0  0  0  0  0  0  0
   16.1408  -24.1318   -4.8962 C   0  0  1  0  0  0  0  0  0  0  0  0
   17.5258  -24.4580   -5.3053 N   0  0  0  0  0  0  0  0  0  0  0  0
   17.2995  -25.0598   -6.6646 C   0  0  0  0  0  0  0  0  0  0  0  0
   18.2870  -25.3830   -4.5097 O   0  0  0  0  0  0  0  0  0  0  0  0
   18.3802  -26.6181   -4.6723 O   0  0  0  0  0  0  0  0  0  0  0  0
  2  1  1  0
  2 12  2  0
  3  2  1  0
  4  3  2  0
  4  5  1  0
  5 11  2  0
  6  5  1  0
  7  6  1  0
  7  8  1  6
  9 21  1  0
  9  7  1  0
 10  9  2  0
 11 12  1  0
 14 13  1  0
 15 14  2  0
 16 14  1  0
 17 16  1  0
 18 17  1  0
 18 19  1  0
 20 19  1  1
 20 21  1  0
 22 20  1  0
 22 32  1  0
 23 22  2  0
 25 24  1  0
 26 25  2  0
 27 25  1  0
 28 27  1  0
 29 28  1  0
 30 29  1  0
 31 32  1  0
 31 30  1  6
 33 35  1  0
 33 31  1  0
 34 33  2  0
M  END
$$$$
