YRR.pdb
     RDKit          3D

 35 35  0  0  1  0  0  0  0  0999 V2000
   29.4258  -21.6531   -8.1376 O   0  0  0  0  0  0  0  0  0  0  0  0
   28.2969  -21.4026   -8.9075 C   0  0  0  0  0  0  0  0  0  0  0  0
   27.4284  -20.3900   -8.5503 C   0  0  0  0  0  0  0  0  0  0  0  0
   26.3157  -20.1603   -9.3297 C   0  0  0  0  0  0  0  0  0  0  0  0
   26.0936  -20.9287  -10.4286 C   0  0  0  0  0  0  0  0  0  0  0  0
   24.9028  -20.6874  -11.2661 C   0  0  0  0  0  0  0  0  0  0  0  0
   25.3734  -20.6436  -12.7253 C   0  0  2  0  0  0  0  0  0  0  0  0
   26.4183  -19.6851  -12.9007 N   0  0  0  0  0  0  0  0  0  0  0  0
   24.1710  -20.3925  -13.5467 C   0  0  0  0  0  0  0  0  0  0  0  0
   23.7768  -19.2282  -13.6908 O   0  0  0  0  0  0  0  0  0  0  0  0
   26.9474  -21.9390  -10.7968 C   0  0  0  0  0  0  0  0  0  0  0  0
   28.0681  -22.1900  -10.0347 C   0  0  0  0  0  0  0  0  0  0  0  0
   21.1868  -25.1484  -19.9741 N   0  0  0  0  0  0  0  0  0  0  0  0
   22.0849  -24.0655  -19.8825 C   0  0  0  0  0  0  0  0  0  0  0  0
   22.9965  -23.9897  -20.8207 N   0  0  0  0  0  0  0  0  0  0  0  0
   22.0325  -23.1007  -18.8503 N   0  0  0  0  0  0  0  0  0  0  0  0
   20.8720  -23.1370  -17.9611 C   0  0  0  0  0  0  0  0  0  0  0  0
   20.9376  -21.9808  -16.9663 C   0  0  0  0  0  0  0  0  0  0  0  0
   22.1087  -22.2476  -16.0494 C   0  0  0  0  0  0  0  0  0  0  0  0
   22.2806  -21.1391  -15.0304 C   0  0  2  0  0  0  0  0  0  0  0  0
   23.4192  -21.4268  -14.1977 N   0  0  0  0  0  0  0  0  0  0  0  0
   21.0158  -21.0701  -14.2162 C   0  0  0  0  0  0  0  0  0  0  0  0
   20.8650  -21.7595  -13.1817 O   0  0  0  0  0  0  0  0  0  0  0  0
   23.7289  -23.2496  -20.8161 N   0  0  0  0  0  0  0  0  0  0  0  0
   15.1893  -15.4938  -16.4606 C   0  0  0  0  0  0  0  0  0  0  0  0
   16.4910  -15.3760  -15.8408 N   0  0  0  0  0  0  0  0  0  0  0  0
   17.2380  -14.3657  -16.1047 N   0  0  0  0  0  0  0  0  0  0  0  0
   16.9398  -16.3752  -14.9449 C   0  0  0  0  0  0  0  0  0  0  0  0
   16.0426  -17.5122  -14.6373 C   0  0  0  0  0  0  0  0  0  0  0  0
   16.7571  -18.5259  -13.8191 C   0  0  0  0  0  0  0  0  0  0  0  0
   18.0257  -18.9986  -14.3213 C   0  0  1  0  0  0  0  0  0  0  0  0
   18.7606  -20.1242  -13.7008 N   0  0  0  0  0  0  0  0  0  0  0  0
   19.9626  -20.2243  -14.5986 C   0  0  0  0  0  0  0  0  0  0  0  0
   18.1273  -21.4133  -13.6284 O   0  0  0  0  0  0  0  0  0  0  0  0
   17.3231  -21.8105  -12.7589 O   0  0  0  0  0  0  0  0  0  0  0  0
  2  1  1  0
  2 12  2  0
  3  2  1  0
  4  3  2  0
  4  5  1  0
  5 11  2  0
  6  5  1  0
  7  6  1  0
  7  8  1  1
  9 21  1  0
  9  7  1  0
 10  9  2  0
 11 12  1  0
 14 13  1  0
 15 14  2  0
 16 14  1  0
 17 16  1  0
 18 17  1  0
 18 19  1  0
 20 19  1  6
 20 21  1  0
 22 20  1  0
 22 32  1  0
 23 22  2  0
 25 24  1  0
 26 25  2  0
 27 25  1  0
 28 27  1  0
 29 28  1  0
 30 29  1  0
 31 32  1  0
 31 30  1  1
 33 35  1  0
 33 31  1  0
 34 33  2  0
M  END
$$$$
