YRR.pdb
     RDKit          3D

 35 35  0  0  1  0  0  0  0  0999 V2000
   25.5895  -29.2254  -20.7773 O   0  0  0  0  0  0  0  0  0  0  0  0
   25.3585  -28.4001  -19.6840 C   0  0  0  0  0  0  0  0  0  0  0  0
   25.6123  -28.8592  -18.4065 C   0  0  0  0  0  0  0  0  0  0  0  0
   25.3756  -28.0221  -17.3380 C   0  0  0  0  0  0  0  0  0  0  0  0
   24.8999  -26.7680  -17.5582 C   0  0  0  0  0  0  0  0  0  0  0  0
   24.6438  -25.8680  -16.4172 C   0  0  0  0  0  0  0  0  0  0  0  0
   25.7703  -24.8272  -16.3962 C   0  0  2  0  0  0  0  0  0  0  0  0
   27.0089  -25.4171  -15.9973 N   0  0  0  0  0  0  0  0  0  0  0  0
   25.3093  -23.7273  -15.5236 C   0  0  0  0  0  0  0  0  0  0  0  0
   25.3416  -23.8832  -14.2962 O   0  0  0  0  0  0  0  0  0  0  0  0
   24.6426  -26.2970  -18.8220 C   0  0  0  0  0  0  0  0  0  0  0  0
   24.8706  -27.1138  -19.9086 C   0  0  0  0  0  0  0  0  0  0  0  0
   27.6502  -16.4233  -17.7043 N   0  0  0  0  0  0  0  0  0  0  0  0
   27.0424  -17.5581  -18.2792 C   0  0  0  0  0  0  0  0  0  0  0  0
   26.9146  -17.5472  -19.5833 N   0  0  0  0  0  0  0  0  0  0  0  0
   26.5851  -18.6600  -17.5205 N   0  0  0  0  0  0  0  0  0  0  0  0
   26.9751  -18.7082  -16.1118 C   0  0  0  0  0  0  0  0  0  0  0  0
   26.5086  -20.0190  -15.4833 C   0  0  0  0  0  0  0  0  0  0  0  0
   25.0103  -20.0921  -15.6652 C   0  0  0  0  0  0  0  0  0  0  0  0
   24.4487  -21.3951  -15.1330 C   0  0  2  0  0  0  0  0  0  0  0  0
   24.8189  -22.4714  -16.0146 N   0  0  0  0  0  0  0  0  0  0  0  0
   22.9522  -21.2470  -15.0553 C   0  0  0  0  0  0  0  0  0  0  0  0
   22.2105  -21.5901  -16.0042 O   0  0  0  0  0  0  0  0  0  0  0  0
   26.4944  -18.3472  -20.1004 N   0  0  0  0  0  0  0  0  0  0  0  0
   18.6340  -25.9857  -11.3106 C   0  0  0  0  0  0  0  0  0  0  0  0
   18.6373  -24.7439  -10.5688 N   0  0  0  0  0  0  0  0  0  0  0  0
   18.4750  -24.7571   -9.2953 N   0  0  0  0  0  0  0  0  0  0  0  0
   18.8186  -23.5157  -11.2480 C   0  0  0  0  0  0  0  0  0  0  0  0
   18.6448  -23.4816  -12.7180 C   0  0  0  0  0  0  0  0  0  0  0  0
   18.9795  -22.1335  -13.2454 C   0  0  0  0  0  0  0  0  0  0  0  0
   20.3805  -21.8131  -13.3855 C   0  0  2  0  0  0  0  0  0  0  0  0
   20.8532  -20.5135  -13.9140 N   0  0  0  0  0  0  0  0  0  0  0  0
   22.3433  -20.7152  -13.9076 C   0  0  0  0  0  0  0  0  0  0  0  0
   20.5450  -19.3123  -13.1857 O   0  0  0  0  0  0  0  0  0  0  0  0
   21.2834  -18.7100  -12.3779 O   0  0  0  0  0  0  0  0  0  0  0  0
  2  1  1  0
  2 12  2  0
  3  2  1  0
  4  3  2  0
  4  5  1  0
  5 11  2  0
  6  5  1  0
  7  6  1  0
  7  8  1  1
  9 21  1  0
  9  7  1  0
 10  9  2  0
 11 12  1  0
 14 13  1  0
 15 14  2  0
 16 14  1  0
 17 16  1  0
 18 17  1  0
 18 19  1  0
 20 19  1  6
 20 21  1  0
 22 20  1  0
 22 32  1  0
 23 22  2  0
 25 24  1  0
 26 25  2  0
 27 25  1  0
 28 27  1  0
 29 28  1  0
 30 29  1  0
 31 32  1  0
 31 30  1  6
 33 35  1  0
 33 31  1  0
 34 33  2  0
M  END
$$$$
