FHW.pdb
     RDKit          3D

 36 39  0  0  1  0  0  0  0  0999 V2000
   27.7424  -19.7258  -11.5172 N   0  0  0  0  0  0  0  0  0  0  0  0
   27.0561  -20.9809  -11.4638 C   0  0  1  0  0  0  0  0  0  0  0  0
   26.2859  -21.0551  -10.1419 C   0  0  0  0  0  0  0  0  0  0  0  0
   27.2560  -20.8935   -9.0278 C   0  0  0  0  0  0  0  0  0  0  0  0
   28.5335  -21.4103   -9.1020 C   0  0  0  0  0  0  0  0  0  0  0  0
   29.4270  -21.2560   -8.0663 C   0  0  0  0  0  0  0  0  0  0  0  0
   29.0928  -20.5821   -6.9110 C   0  0  0  0  0  0  0  0  0  0  0  0
   27.8130  -20.0639   -6.8359 C   0  0  0  0  0  0  0  0  0  0  0  0
   26.9117  -20.2159   -7.8728 C   0  0  0  0  0  0  0  0  0  0  0  0
   26.1045  -21.1659  -12.5894 C   0  0  0  0  0  0  0  0  0  0  0  0
   25.5884  -20.1124  -13.0668 O   0  0  0  0  0  0  0  0  0  0  0  0
   25.7553  -22.4092  -13.1382 N   0  0  0  0  0  0  0  0  0  0  0  0
   24.8612  -22.4557  -14.3300 C   0  0  1  0  0  0  0  0  0  0  0  0
   25.1547  -23.7345  -15.0314 C   0  0  0  0  0  0  0  0  0  0  0  0
   24.3872  -23.9053  -16.2596 C   0  0  0  0  0  0  0  0  0  0  0  0
   23.3763  -23.0420  -16.7053 C   0  0  0  0  0  0  0  0  0  0  0  0
   22.9234  -23.5492  -17.8611 N   0  0  0  0  0  0  0  0  0  0  0  0
   23.5876  -24.6760  -18.1672 C   0  0  0  0  0  0  0  0  0  0  0  0
   24.4714  -24.8716  -17.1795 N   0  0  0  0  0  0  0  0  0  0  0  0
   23.4771  -22.3788  -13.8461 C   0  0  0  0  0  0  0  0  0  0  0  0
   23.1991  -23.0107  -12.7738 O   0  0  0  0  0  0  0  0  0  0  0  0
   22.4183  -21.6801  -14.4283 N   0  0  0  0  0  0  0  0  0  0  0  0
   21.0939  -21.6448  -13.8187 C   0  0  1  0  0  0  0  0  0  0  0  0
   20.9287  -20.4055  -12.9965 C   0  0  0  0  0  0  0  0  0  0  0  0
   21.3753  -20.5851  -11.6107 C   0  0  0  0  0  0  0  0  0  0  0  0
   22.4963  -20.0212  -11.0019 C   0  0  0  0  0  0  0  0  0  0  0  0
   22.5905  -20.4468   -9.7374 N   0  0  0  0  0  0  0  0  0  0  0  0
   21.5825  -21.2777   -9.4515 C   0  0  0  0  0  0  0  0  0  0  0  0
   21.2489  -21.9502   -8.2879 C   0  0  0  0  0  0  0  0  0  0  0  0
   20.1216  -22.7285   -8.3014 C   0  0  0  0  0  0  0  0  0  0  0  0
   19.3292  -22.8455   -9.4465 C   0  0  0  0  0  0  0  0  0  0  0  0
   19.6876  -22.1657  -10.5866 C   0  0  0  0  0  0  0  0  0  0  0  0
   20.8163  -21.3778  -10.5983 C   0  0  0  0  0  0  0  0  0  0  0  0
   20.0004  -21.9802  -14.7263 C   0  0  0  0  0  0  0  0  0  0  0  0
   20.2695  -21.9071  -16.1059 O   0  0  0  0  0  0  0  0  0  0  0  0
   18.8375  -22.3225  -14.4066 O   0  0  0  0  0  0  0  0  0  0  0  0
  2  1  1  6
  3  2  1  0
  3  4  1  0
  4  5  2  0
  4  9  1  0
  5  6  1  0
  6  7  2  0
  8  7  1  0
  9  8  2  0
 10  2  1  0
 11 10  2  0
 12 10  1  0
 13 12  1  0
 13 14  1  1
 14 15  1  0
 15 19  1  0
 15 16  2  0
 16 17  1  0
 18 17  1  0
 19 18  2  0
 20 21  2  0
 20 13  1  0
 22 20  1  0
 23 22  1  0
 23 24  1  6
 24 25  1  0
 25 26  2  0
 25 33  1  0
 26 27  1  0
 27 28  1  0
 28 29  2  0
 29 30  1  0
 31 30  2  0
 32 31  1  0
 33 32  2  0
 33 28  1  0
 34 23  1  0
 35 34  1  0
 36 34  2  0
M  END
$$$$
