FHW.pdb
     RDKit          3D

 36 39  0  0  1  0  0  0  0  0999 V2000
   19.7212  -18.0420  -14.6745 N   0  0  0  0  0  0  0  0  0  0  0  0
   21.1456  -17.9327  -14.7643 C   0  0  1  0  0  0  0  0  0  0  0  0
   21.5755  -16.6346  -14.0742 C   0  0  0  0  0  0  0  0  0  0  0  0
   21.3997  -15.5154  -15.0358 C   0  0  0  0  0  0  0  0  0  0  0  0
   20.3196  -14.6599  -14.9585 C   0  0  0  0  0  0  0  0  0  0  0  0
   20.1637  -13.6248  -15.8524 C   0  0  0  0  0  0  0  0  0  0  0  0
   21.0724  -13.3924  -16.8626 C   0  0  0  0  0  0  0  0  0  0  0  0
   22.1550  -14.2491  -16.9407 C   0  0  0  0  0  0  0  0  0  0  0  0
   22.3165  -15.2901  -16.0459 C   0  0  0  0  0  0  0  0  0  0  0  0
   21.8525  -19.0751  -14.1301 C   0  0  0  0  0  0  0  0  0  0  0  0
   21.3500  -19.5193  -13.0559 O   0  0  0  0  0  0  0  0  0  0  0  0
   23.0143  -19.6730  -14.6416 N   0  0  0  0  0  0  0  0  0  0  0  0
   23.5753  -20.8759  -13.9632 C   0  0  1  0  0  0  0  0  0  0  0  0
   24.2114  -21.7034  -15.0233 C   0  0  0  0  0  0  0  0  0  0  0  0
   24.9030  -22.8755  -14.4995 C   0  0  0  0  0  0  0  0  0  0  0  0
   26.2885  -23.0843  -14.5511 C   0  0  0  0  0  0  0  0  0  0  0  0
   26.5176  -24.2711  -13.9704 N   0  0  0  0  0  0  0  0  0  0  0  0
   25.3622  -24.8187  -13.5583 C   0  0  0  0  0  0  0  0  0  0  0  0
   24.3959  -23.9523  -13.8908 N   0  0  0  0  0  0  0  0  0  0  0  0
   24.5362  -20.4065  -12.9570 C   0  0  0  0  0  0  0  0  0  0  0  0
   25.1616  -19.3242  -13.2092 O   0  0  0  0  0  0  0  0  0  0  0  0
   24.8436  -21.0128  -11.7379 N   0  0  0  0  0  0  0  0  0  0  0  0
   25.8818  -20.4871  -10.8589 C   0  0  1  0  0  0  0  0  0  0  0  0
   25.4106  -20.4782   -9.4387 C   0  0  0  0  0  0  0  0  0  0  0  0
   26.3143  -19.7395   -8.5499 C   0  0  0  0  0  0  0  0  0  0  0  0
   26.9251  -18.5097   -8.7944 C   0  0  0  0  0  0  0  0  0  0  0  0
   27.7056  -18.1752   -7.7610 N   0  0  0  0  0  0  0  0  0  0  0  0
   27.6563  -19.1214   -6.8174 C   0  0  0  0  0  0  0  0  0  0  0  0
   28.2700  -19.2166   -5.5798 C   0  0  0  0  0  0  0  0  0  0  0  0
   28.0013  -20.3226   -4.8175 C   0  0  0  0  0  0  0  0  0  0  0  0
   27.1381  -21.3259   -5.2660 C   0  0  0  0  0  0  0  0  0  0  0  0
   26.5447  -21.2026   -6.5001 C   0  0  0  0  0  0  0  0  0  0  0  0
   26.7995  -20.1009   -7.2851 C   0  0  0  0  0  0  0  0  0  0  0  0
   27.2150  -21.0299  -11.1041 C   0  0  0  0  0  0  0  0  0  0  0  0
   28.2087  -20.1222  -11.5161 O   0  0  0  0  0  0  0  0  0  0  0  0
   27.5704  -22.2268  -10.9925 O   0  0  0  0  0  0  0  0  0  0  0  0
  2  1  1  1
  3  2  1  0
  3  4  1  0
  4  5  2  0
  4  9  1  0
  5  6  1  0
  6  7  2  0
  8  7  1  0
  9  8  2  0
 10  2  1  0
 11 10  2  0
 12 10  1  0
 13 12  1  0
 13 14  1  6
 14 15  1  0
 15 19  1  0
 15 16  2  0
 16 17  1  0
 18 17  1  0
 19 18  2  0
 20 21  2  0
 20 13  1  0
 22 20  1  0
 23 22  1  0
 23 24  1  1
 24 25  1  0
 25 26  2  0
 25 33  1  0
 26 27  1  0
 27 28  1  0
 28 29  2  0
 29 30  1  0
 31 30  2  0
 32 31  1  0
 33 32  2  0
 33 28  1  0
 34 23  1  0
 35 34  1  0
 36 34  2  0
M  END
$$$$
