FHW.pdb
     RDKit          3D

 36 39  0  0  1  0  0  0  0  0999 V2000
   30.8816  -32.5243  -16.8496 N   0  0  0  0  0  0  0  0  0  0  0  0
   30.0374  -31.9577  -17.8573 C   0  0  1  0  0  0  0  0  0  0  0  0
   29.4542  -33.0982  -18.6970 C   0  0  0  0  0  0  0  0  0  0  0  0
   30.5391  -33.6517  -19.5486 C   0  0  0  0  0  0  0  0  0  0  0  0
   31.0438  -34.9193  -19.3417 C   0  0  0  0  0  0  0  0  0  0  0  0
   32.0483  -35.4257  -20.1351 C   0  0  0  0  0  0  0  0  0  0  0  0
   32.5966  -34.6970  -21.1689 C   0  0  0  0  0  0  0  0  0  0  0  0
   32.0913  -33.4268  -21.3769 C   0  0  0  0  0  0  0  0  0  0  0  0
   31.0828  -32.9133  -20.5833 C   0  0  0  0  0  0  0  0  0  0  0  0
   28.9232  -31.1547  -17.2912 C   0  0  0  0  0  0  0  0  0  0  0  0
   28.6005  -31.4090  -16.0932 O   0  0  0  0  0  0  0  0  0  0  0  0
   28.2276  -30.1571  -17.9911 N   0  0  0  0  0  0  0  0  0  0  0  0
   27.2512  -29.2993  -17.2611 C   0  0  1  0  0  0  0  0  0  0  0  0
   27.3519  -27.9398  -17.8568 C   0  0  0  0  0  0  0  0  0  0  0  0
   28.4661  -27.1619  -17.3277 C   0  0  0  0  0  0  0  0  0  0  0  0
   29.3538  -27.5979  -16.3338 C   0  0  0  0  0  0  0  0  0  0  0  0
   30.2219  -26.5961  -16.1314 N   0  0  0  0  0  0  0  0  0  0  0  0
   29.9335  -25.5601  -16.9363 C   0  0  0  0  0  0  0  0  0  0  0  0
   28.8632  -25.9277  -17.6533 N   0  0  0  0  0  0  0  0  0  0  0  0
   25.9219  -29.8980  -17.4356 C   0  0  0  0  0  0  0  0  0  0  0  0
   25.6820  -30.4691  -18.5503 O   0  0  0  0  0  0  0  0  0  0  0  0
   24.8791  -29.9199  -16.5080 N   0  0  0  0  0  0  0  0  0  0  0  0
   23.5904  -30.5295  -16.8153 C   0  0  1  0  0  0  0  0  0  0  0  0
   22.8470  -30.8460  -15.5559 C   0  0  0  0  0  0  0  0  0  0  0  0
   21.6037  -31.5836  -15.8057 C   0  0  0  0  0  0  0  0  0  0  0  0
   21.4640  -32.9482  -16.0576 C   0  0  0  0  0  0  0  0  0  0  0  0
   20.1767  -33.2430  -16.2698 N   0  0  0  0  0  0  0  0  0  0  0  0
   19.4266  -32.1401  -16.1736 C   0  0  0  0  0  0  0  0  0  0  0  0
   18.0612  -31.9449  -16.2959 C   0  0  0  0  0  0  0  0  0  0  0  0
   17.5798  -30.6744  -16.1205 C   0  0  0  0  0  0  0  0  0  0  0  0
   18.4310  -29.6055  -15.8277 C   0  0  0  0  0  0  0  0  0  0  0  0
   19.7824  -29.8316  -15.7135 C   0  0  0  0  0  0  0  0  0  0  0  0
   20.2904  -31.0992  -15.8861 C   0  0  0  0  0  0  0  0  0  0  0  0
   22.8375  -29.8554  -17.8693 C   0  0  0  0  0  0  0  0  0  0  0  0
   22.3352  -30.6590  -18.9099 O   0  0  0  0  0  0  0  0  0  0  0  0
   22.5944  -28.6283  -17.9509 O   0  0  0  0  0  0  0  0  0  0  0  0
  2  1  1  1
  3  2  1  0
  3  4  1  0
  4  5  2  0
  4  9  1  0
  5  6  1  0
  6  7  2  0
  8  7  1  0
  9  8  2  0
 10  2  1  0
 11 10  2  0
 12 10  1  0
 13 12  1  0
 13 14  1  6
 14 15  1  0
 15 19  1  0
 15 16  2  0
 16 17  1  0
 18 17  1  0
 19 18  2  0
 20 21  2  0
 20 13  1  0
 22 20  1  0
 23 22  1  0
 23 24  1  1
 24 25  1  0
 25 26  2  0
 25 33  1  0
 26 27  1  0
 27 28  1  0
 28 29  2  0
 29 30  1  0
 31 30  2  0
 32 31  1  0
 33 32  2  0
 33 28  1  0
 34 23  1  0
 35 34  1  0
 36 34  2  0
M  END
$$$$
