FHW.pdb
     RDKit          3D

 36 39  0  0  1  0  0  0  0  0999 V2000
   26.8746  -10.3025  -19.1632 N   0  0  0  0  0  0  0  0  0  0  0  0
   26.6049   -9.7608  -17.8659 C   0  0  1  0  0  0  0  0  0  0  0  0
   27.1516   -8.3309  -17.8156 C   0  0  0  0  0  0  0  0  0  0  0  0
   28.6319   -8.4017  -17.7051 C   0  0  0  0  0  0  0  0  0  0  0  0
   29.2710   -9.5539  -17.2947 C   0  0  0  0  0  0  0  0  0  0  0  0
   30.6427   -9.6123  -17.1954 C   0  0  0  0  0  0  0  0  0  0  0  0
   31.4412   -8.5303  -17.4989 C   0  0  0  0  0  0  0  0  0  0  0  0
   30.8015   -7.3755  -17.9103 C   0  0  0  0  0  0  0  0  0  0  0  0
   29.4245   -7.3112  -18.0118 C   0  0  0  0  0  0  0  0  0  0  0  0
   25.1554   -9.7365  -17.5414 C   0  0  0  0  0  0  0  0  0  0  0  0
   24.3701   -9.4747  -18.4998 O   0  0  0  0  0  0  0  0  0  0  0  0
   24.6227   -9.9811  -16.2664 N   0  0  0  0  0  0  0  0  0  0  0  0
   23.1478   -9.9045  -16.0648 C   0  0  1  0  0  0  0  0  0  0  0  0
   22.8495  -10.6616  -14.8194 C   0  0  0  0  0  0  0  0  0  0  0  0
   21.4320  -10.6688  -14.4770 C   0  0  0  0  0  0  0  0  0  0  0  0
   20.4225  -10.0274  -15.2087 C   0  0  0  0  0  0  0  0  0  0  0  0
   19.2714  -10.2712  -14.5656 N   0  0  0  0  0  0  0  0  0  0  0  0
   19.4968  -11.0253  -13.4770 C   0  0  0  0  0  0  0  0  0  0  0  0
   20.8164  -11.2538  -13.4446 N   0  0  0  0  0  0  0  0  0  0  0  0
   22.7898   -8.4841  -15.9646 C   0  0  0  0  0  0  0  0  0  0  0  0
   23.4957   -7.7588  -15.1888 O   0  0  0  0  0  0  0  0  0  0  0  0
   21.7565   -7.8262  -16.6337 N   0  0  0  0  0  0  0  0  0  0  0  0
   21.5490   -6.3887  -16.5020 C   0  0  1  0  0  0  0  0  0  0  0  0
   21.4546   -5.7473  -17.8506 C   0  0  0  0  0  0  0  0  0  0  0  0
   20.1900   -6.0487  -18.5305 C   0  0  0  0  0  0  0  0  0  0  0  0
   18.9191   -5.5755  -18.2048 C   0  0  0  0  0  0  0  0  0  0  0  0
   18.0111   -6.0995  -19.0355 N   0  0  0  0  0  0  0  0  0  0  0  0
   18.6037   -6.9111  -19.9178 C   0  0  0  0  0  0  0  0  0  0  0  0
   18.0924   -7.6573  -20.9662 C   0  0  0  0  0  0  0  0  0  0  0  0
   18.9733   -8.3892  -21.7178 C   0  0  0  0  0  0  0  0  0  0  0  0
   20.3435   -8.3886  -21.4427 C   0  0  0  0  0  0  0  0  0  0  0  0
   20.8201   -7.6379  -20.3940 C   0  0  0  0  0  0  0  0  0  0  0  0
   19.9548   -6.8946  -19.6236 C   0  0  0  0  0  0  0  0  0  0  0  0
   20.5331   -6.0106  -15.5235 C   0  0  0  0  0  0  0  0  0  0  0  0
   19.6073   -7.0019  -15.1479 O   0  0  0  0  0  0  0  0  0  0  0  0
   20.3921   -4.8882  -14.9832 O   0  0  0  0  0  0  0  0  0  0  0  0
  2  1  1  6
  3  2  1  0
  3  4  1  0
  4  5  2  0
  4  9  1  0
  5  6  1  0
  6  7  2  0
  8  7  1  0
  9  8  2  0
 10  2  1  0
 11 10  2  0
 12 10  1  0
 13 12  1  0
 13 14  1  1
 14 15  1  0
 15 19  1  0
 15 16  2  0
 16 17  1  0
 18 17  1  0
 19 18  2  0
 20 21  2  0
 20 13  1  0
 22 20  1  0
 23 22  1  0
 23 24  1  6
 24 25  1  0
 25 26  2  0
 25 33  1  0
 26 27  1  0
 27 28  1  0
 28 29  2  0
 29 30  1  0
 31 30  2  0
 32 31  1  0
 33 32  2  0
 33 28  1  0
 34 23  1  0
 35 34  1  0
 36 34  2  0
M  END
$$$$
