FHW.pdb
     RDKit          3D

 36 39  0  0  1  0  0  0  0  0999 V2000
   29.4433  -27.4738  -17.8605 N   0  0  0  0  0  0  0  0  0  0  0  0
   28.5344  -26.8946  -16.9184 C   0  0  1  0  0  0  0  0  0  0  0  0
   28.7109  -25.3734  -16.9485 C   0  0  0  0  0  0  0  0  0  0  0  0
   30.1348  -25.0637  -16.6572 C   0  0  0  0  0  0  0  0  0  0  0  0
   30.6965  -25.3389  -15.4270 C   0  0  0  0  0  0  0  0  0  0  0  0
   32.0165  -25.0499  -15.1647 C   0  0  0  0  0  0  0  0  0  0  0  0
   32.8379  -24.4752  -16.1110 C   0  0  0  0  0  0  0  0  0  0  0  0
   32.2758  -24.1992  -17.3439 C   0  0  0  0  0  0  0  0  0  0  0  0
   30.9510  -24.4872  -17.6128 C   0  0  0  0  0  0  0  0  0  0  0  0
   27.1152  -27.2231  -17.2098 C   0  0  0  0  0  0  0  0  0  0  0  0
   26.8493  -27.5530  -18.4032 O   0  0  0  0  0  0  0  0  0  0  0  0
   26.0813  -27.1892  -16.2617 N   0  0  0  0  0  0  0  0  0  0  0  0
   24.7040  -27.5877  -16.6694 C   0  0  1  0  0  0  0  0  0  0  0  0
   24.6509  -29.0724  -16.5917 C   0  0  0  0  0  0  0  0  0  0  0  0
   23.3177  -29.6129  -16.8306 C   0  0  0  0  0  0  0  0  0  0  0  0
   22.5788  -30.3721  -15.9122 C   0  0  0  0  0  0  0  0  0  0  0  0
   21.4188  -30.6746  -16.5129 N   0  0  0  0  0  0  0  0  0  0  0  0
   21.3848  -30.1523  -17.7500 C   0  0  0  0  0  0  0  0  0  0  0  0
   22.5494  -29.5121  -17.9199 N   0  0  0  0  0  0  0  0  0  0  0  0
   23.7655  -26.9374  -15.7462 C   0  0  0  0  0  0  0  0  0  0  0  0
   24.0006  -27.0546  -14.4983 O   0  0  0  0  0  0  0  0  0  0  0  0
   22.6346  -26.1911  -16.0812 N   0  0  0  0  0  0  0  0  0  0  0  0
   21.8139  -25.5423  -15.0651 C   0  0  1  0  0  0  0  0  0  0  0  0
   21.6084  -24.0987  -15.4010 C   0  0  0  0  0  0  0  0  0  0  0  0
   20.7204  -23.9092  -16.5533 C   0  0  0  0  0  0  0  0  0  0  0  0
   21.0385  -24.0632  -17.9025 C   0  0  0  0  0  0  0  0  0  0  0  0
   19.9745  -23.7696  -18.6579 N   0  0  0  0  0  0  0  0  0  0  0  0
   18.9396  -23.4216  -17.8858 C   0  0  0  0  0  0  0  0  0  0  0  0
   17.6422  -23.0540  -18.2004 C   0  0  0  0  0  0  0  0  0  0  0  0
   16.7910  -22.7682  -17.1657 C   0  0  0  0  0  0  0  0  0  0  0  0
   17.2097  -22.8427  -15.8345 C   0  0  0  0  0  0  0  0  0  0  0  0
   18.5048  -23.2101  -15.5548 C   0  0  0  0  0  0  0  0  0  0  0  0
   19.3792  -23.5014  -16.5771 C   0  0  0  0  0  0  0  0  0  0  0  0
   20.6290  -26.2987  -14.6700 C   0  0  0  0  0  0  0  0  0  0  0  0
   20.1218  -26.0632  -13.3783 O   0  0  0  0  0  0  0  0  0  0  0  0
   20.0145  -27.1459  -15.3600 O   0  0  0  0  0  0  0  0  0  0  0  0
  2  1  1  6
  3  2  1  0
  3  4  1  0
  4  5  2  0
  4  9  1  0
  5  6  1  0
  6  7  2  0
  8  7  1  0
  9  8  2  0
 10  2  1  0
 11 10  2  0
 12 10  1  0
 13 12  1  0
 13 14  1  1
 14 15  1  0
 15 19  1  0
 15 16  2  0
 16 17  1  0
 18 17  1  0
 19 18  2  0
 20 21  2  0
 20 13  1  0
 22 20  1  0
 23 22  1  0
 23 24  1  6
 24 25  1  0
 25 26  2  0
 25 33  1  0
 26 27  1  0
 27 28  1  0
 28 29  2  0
 29 30  1  0
 31 30  2  0
 32 31  1  0
 33 32  2  0
 33 28  1  0
 34 23  1  0
 35 34  1  0
 36 34  2  0
M  END
$$$$
