FHW.pdb
     RDKit          3D

 36 39  0  0  1  0  0  0  0  0999 V2000
   24.1982  -15.6340  -15.7524 N   0  0  0  0  0  0  0  0  0  0  0  0
   25.3066  -16.5239  -15.5827 C   0  0  1  0  0  0  0  0  0  0  0  0
   26.4567  -15.7460  -14.9360 C   0  0  0  0  0  0  0  0  0  0  0  0
   27.6862  -15.9805  -15.7370 C   0  0  0  0  0  0  0  0  0  0  0  0
   28.1138  -15.0741  -16.6857 C   0  0  0  0  0  0  0  0  0  0  0  0
   29.2542  -15.2977  -17.4234 C   0  0  0  0  0  0  0  0  0  0  0  0
   30.0211  -16.4305  -17.2527 C   0  0  0  0  0  0  0  0  0  0  0  0
   29.5933  -17.3392  -16.3022 C   0  0  0  0  0  0  0  0  0  0  0  0
   28.4490  -17.1198  -15.5587 C   0  0  0  0  0  0  0  0  0  0  0  0
   24.9786  -17.6979  -14.7337 C   0  0  0  0  0  0  0  0  0  0  0  0
   24.1746  -17.4915  -13.7772 O   0  0  0  0  0  0  0  0  0  0  0  0
   25.4960  -18.9878  -14.9276 N   0  0  0  0  0  0  0  0  0  0  0  0
   25.0699  -20.0893  -14.0182 C   0  0  1  0  0  0  0  0  0  0  0  0
   25.2643  -21.3589  -14.7689 C   0  0  0  0  0  0  0  0  0  0  0  0
   24.9034  -22.5430  -13.9981 C   0  0  0  0  0  0  0  0  0  0  0  0
   23.7334  -22.6851  -13.2387 C   0  0  0  0  0  0  0  0  0  0  0  0
   23.7817  -23.9069  -12.6882 N   0  0  0  0  0  0  0  0  0  0  0  0
   24.9087  -24.5389  -13.0554 C   0  0  0  0  0  0  0  0  0  0  0  0
   25.5736  -23.6904  -13.8508 N   0  0  0  0  0  0  0  0  0  0  0  0
   25.9020  -20.0110  -12.8110 C   0  0  0  0  0  0  0  0  0  0  0  0
   27.1247  -19.6837  -12.9665 O   0  0  0  0  0  0  0  0  0  0  0  0
   25.5027  -20.2508  -11.4952 N   0  0  0  0  0  0  0  0  0  0  0  0
   26.4634  -20.3090  -10.3995 C   0  0  1  0  0  0  0  0  0  0  0  0
   25.9745  -19.5119   -9.2313 C   0  0  0  0  0  0  0  0  0  0  0  0
   26.2814  -20.1495   -7.9462 C   0  0  0  0  0  0  0  0  0  0  0  0
   25.6477  -21.2528   -7.3749 C   0  0  0  0  0  0  0  0  0  0  0  0
   26.1861  -21.5193   -6.1799 N   0  0  0  0  0  0  0  0  0  0  0  0
   27.1625  -20.6474   -5.9064 C   0  0  0  0  0  0  0  0  0  0  0  0
   28.0078  -20.5278   -4.8162 C   0  0  0  0  0  0  0  0  0  0  0  0
   28.9380  -19.5224   -4.8370 C   0  0  0  0  0  0  0  0  0  0  0  0
   29.0376  -18.6426   -5.9182 C   0  0  0  0  0  0  0  0  0  0  0  0
   28.1831  -18.7870   -6.9856 C   0  0  0  0  0  0  0  0  0  0  0  0
   27.2393  -19.7890   -6.9879 C   0  0  0  0  0  0  0  0  0  0  0  0
   26.9748  -21.6464  -10.1129 C   0  0  0  0  0  0  0  0  0  0  0  0
   28.3337  -21.7492   -9.7612 O   0  0  0  0  0  0  0  0  0  0  0  0
   26.3306  -22.7210  -10.1530 O   0  0  0  0  0  0  0  0  0  0  0  0
  2  1  1  1
  3  2  1  0
  3  4  1  0
  4  5  2  0
  4  9  1  0
  5  6  1  0
  6  7  2  0
  8  7  1  0
  9  8  2  0
 10  2  1  0
 11 10  2  0
 12 10  1  0
 13 12  1  0
 13 14  1  6
 14 15  1  0
 15 19  1  0
 15 16  2  0
 16 17  1  0
 18 17  1  0
 19 18  2  0
 20 21  2  0
 20 13  1  0
 22 20  1  0
 23 22  1  0
 23 24  1  1
 24 25  1  0
 25 26  2  0
 25 33  1  0
 26 27  1  0
 27 28  1  0
 28 29  2  0
 29 30  1  0
 31 30  2  0
 32 31  1  0
 33 32  2  0
 33 28  1  0
 34 23  1  0
 35 34  1  0
 36 34  2  0
M  END
$$$$
