FHW.pdb
     RDKit          3D

 36 39  0  0  1  0  0  0  0  0999 V2000
   25.5080  -18.2156  -23.5466 N   0  0  0  0  0  0  0  0  0  0  0  0
   24.8663  -17.7590  -22.3513 C   0  0  1  0  0  0  0  0  0  0  0  0
   24.4229  -16.3085  -22.5641 C   0  0  0  0  0  0  0  0  0  0  0  0
   25.6384  -15.4674  -22.7170 C   0  0  0  0  0  0  0  0  0  0  0  0
   26.2267  -15.2656  -23.9489 C   0  0  0  0  0  0  0  0  0  0  0  0
   27.3521  -14.4845  -24.0830 C   0  0  0  0  0  0  0  0  0  0  0  0
   27.9440  -13.8689  -23.0008 C   0  0  0  0  0  0  0  0  0  0  0  0
   27.3552  -14.0706  -21.7660 C   0  0  0  0  0  0  0  0  0  0  0  0
   26.2250  -14.8539  -21.6256 C   0  0  0  0  0  0  0  0  0  0  0  0
   23.6827  -18.5780  -21.9835 C   0  0  0  0  0  0  0  0  0  0  0  0
   22.8224  -18.7616  -22.8946 O   0  0  0  0  0  0  0  0  0  0  0  0
   23.4709  -19.1441  -20.7172 N   0  0  0  0  0  0  0  0  0  0  0  0
   22.2009  -19.8768  -20.4485 C   0  0  1  0  0  0  0  0  0  0  0  0
   22.5855  -21.2332  -19.9734 C   0  0  0  0  0  0  0  0  0  0  0  0
   21.4463  -22.0355  -19.5431 C   0  0  0  0  0  0  0  0  0  0  0  0
   20.6834  -22.8652  -20.3771 C   0  0  0  0  0  0  0  0  0  0  0  0
   19.7379  -23.4182  -19.6036 N   0  0  0  0  0  0  0  0  0  0  0  0
   19.8610  -22.9870  -18.3374 C   0  0  0  0  0  0  0  0  0  0  0  0
   20.9055  -22.1482  -18.3258 N   0  0  0  0  0  0  0  0  0  0  0  0
   21.4561  -19.1126  -19.4400 C   0  0  0  0  0  0  0  0  0  0  0  0
   22.1131  -18.6745  -18.4387 O   0  0  0  0  0  0  0  0  0  0  0  0
   20.0955  -18.8012  -19.4538 N   0  0  0  0  0  0  0  0  0  0  0  0
   19.4699  -18.0441  -18.3757 C   0  0  1  0  0  0  0  0  0  0  0  0
   18.4902  -17.0574  -18.9286 C   0  0  0  0  0  0  0  0  0  0  0  0
   17.2705  -17.6972  -19.4339 C   0  0  0  0  0  0  0  0  0  0  0  0
   16.1183  -18.0123  -18.7138 C   0  0  0  0  0  0  0  0  0  0  0  0
   15.2337  -18.6194  -19.5125 N   0  0  0  0  0  0  0  0  0  0  0  0
   15.7282  -18.7339  -20.7497 C   0  0  0  0  0  0  0  0  0  0  0  0
   15.1893  -19.2681  -21.9080 C   0  0  0  0  0  0  0  0  0  0  0  0
   15.9493  -19.2203  -23.0467 C   0  0  0  0  0  0  0  0  0  0  0  0
   17.2266  -18.6531  -23.0483 C   0  0  0  0  0  0  0  0  0  0  0  0
   17.7340  -18.1317  -21.8817 C   0  0  0  0  0  0  0  0  0  0  0  0
   16.9899  -18.1686  -20.7242 C   0  0  0  0  0  0  0  0  0  0  0  0
   19.0183  -18.8554  -17.2488 C   0  0  0  0  0  0  0  0  0  0  0  0
   19.6542  -18.6409  -16.0116 O   0  0  0  0  0  0  0  0  0  0  0  0
   18.1234  -19.7330  -17.2665 O   0  0  0  0  0  0  0  0  0  0  0  0
  2  1  1  6
  3  2  1  0
  3  4  1  0
  4  5  2  0
  4  9  1  0
  5  6  1  0
  6  7  2  0
  8  7  1  0
  9  8  2  0
 10  2  1  0
 11 10  2  0
 12 10  1  0
 13 12  1  0
 13 14  1  1
 14 15  1  0
 15 19  1  0
 15 16  2  0
 16 17  1  0
 18 17  1  0
 19 18  2  0
 20 21  2  0
 20 13  1  0
 22 20  1  0
 23 22  1  0
 23 24  1  6
 24 25  1  0
 25 26  2  0
 25 33  1  0
 26 27  1  0
 27 28  1  0
 28 29  2  0
 29 30  1  0
 31 30  2  0
 32 31  1  0
 33 32  2  0
 33 28  1  0
 34 23  1  0
 35 34  1  0
 36 34  2  0
M  END
$$$$
