FHW.pdb
     RDKit          3D

 36 39  0  0  1  0  0  0  0  0999 V2000
   28.7873  -21.0577   -9.6716 N   0  0  0  0  0  0  0  0  0  0  0  0
   27.3779  -20.9610   -9.4404 C   0  0  1  0  0  0  0  0  0  0  0  0
   27.1248  -19.7997   -8.4743 C   0  0  0  0  0  0  0  0  0  0  0  0
   27.8199  -20.0978   -7.1952 C   0  0  0  0  0  0  0  0  0  0  0  0
   27.4951  -19.4399   -6.0264 C   0  0  0  0  0  0  0  0  0  0  0  0
   28.1428  -19.7220   -4.8450 C   0  0  0  0  0  0  0  0  0  0  0  0
   29.1416  -20.6692   -4.7707 C   0  0  0  0  0  0  0  0  0  0  0  0
   29.4677  -21.3290   -5.9414 C   0  0  0  0  0  0  0  0  0  0  0  0
   28.8206  -21.0498   -7.1304 C   0  0  0  0  0  0  0  0  0  0  0  0
   26.6037  -20.7309  -10.6872 C   0  0  0  0  0  0  0  0  0  0  0  0
   27.0495  -19.8391  -11.4681 O   0  0  0  0  0  0  0  0  0  0  0  0
   25.4375  -21.4281  -11.0381 N   0  0  0  0  0  0  0  0  0  0  0  0
   24.7805  -21.1403  -12.3448 C   0  0  1  0  0  0  0  0  0  0  0  0
   24.9745  -22.3472  -13.1927 C   0  0  0  0  0  0  0  0  0  0  0  0
   26.2283  -22.3307  -13.9372 C   0  0  0  0  0  0  0  0  0  0  0  0
   26.5024  -21.5049  -15.0367 C   0  0  0  0  0  0  0  0  0  0  0  0
   27.7502  -21.7969  -15.4317 N   0  0  0  0  0  0  0  0  0  0  0  0
   28.2747  -22.7537  -14.6482 C   0  0  0  0  0  0  0  0  0  0  0  0
   27.3315  -23.0616  -13.7480 N   0  0  0  0  0  0  0  0  0  0  0  0
   23.3651  -20.8589  -12.0739 C   0  0  0  0  0  0  0  0  0  0  0  0
   22.8007  -21.5416  -11.1565 O   0  0  0  0  0  0  0  0  0  0  0  0
   22.5572  -19.9141  -12.7087 N   0  0  0  0  0  0  0  0  0  0  0  0
   21.1417  -19.7736  -12.3868 C   0  0  1  0  0  0  0  0  0  0  0  0
   20.5696  -18.5645  -13.0575 C   0  0  0  0  0  0  0  0  0  0  0  0
   20.4621  -18.7249  -14.5118 C   0  0  0  0  0  0  0  0  0  0  0  0
   19.3435  -19.1311  -15.2391 C   0  0  0  0  0  0  0  0  0  0  0  0
   19.6433  -19.1898  -16.5413 N   0  0  0  0  0  0  0  0  0  0  0  0
   20.9189  -18.8406  -16.7395 C   0  0  0  0  0  0  0  0  0  0  0  0
   21.6728  -18.7353  -17.8962 C   0  0  0  0  0  0  0  0  0  0  0  0
   22.9744  -18.3258  -17.7747 C   0  0  0  0  0  0  0  0  0  0  0  0
   23.5307  -18.0224  -16.5291 C   0  0  0  0  0  0  0  0  0  0  0  0
   22.7563  -18.1377  -15.3988 C   0  0  0  0  0  0  0  0  0  0  0  0
   21.4459  -18.5480  -15.4949 C   0  0  0  0  0  0  0  0  0  0  0  0
   20.3708  -21.0091  -12.4934 C   0  0  0  0  0  0  0  0  0  0  0  0
   19.2825  -21.1613  -11.6140 O   0  0  0  0  0  0  0  0  0  0  0  0
   20.5795  -21.9583  -13.2853 O   0  0  0  0  0  0  0  0  0  0  0  0
  2  1  1  6
  3  2  1  0
  3  4  1  0
  4  5  2  0
  4  9  1  0
  5  6  1  0
  6  7  2  0
  8  7  1  0
  9  8  2  0
 10  2  1  0
 11 10  2  0
 12 10  1  0
 13 12  1  0
 13 14  1  6
 14 15  1  0
 15 19  1  0
 15 16  2  0
 16 17  1  0
 18 17  1  0
 19 18  2  0
 20 21  2  0
 20 13  1  0
 22 20  1  0
 23 22  1  0
 23 24  1  6
 24 25  1  0
 25 26  2  0
 25 33  1  0
 26 27  1  0
 27 28  1  0
 28 29  2  0
 29 30  1  0
 31 30  2  0
 32 31  1  0
 33 32  2  0
 33 28  1  0
 34 23  1  0
 35 34  1  0
 36 34  2  0
M  END
$$$$
