FHW.pdb
     RDKit          3D

 36 39  0  0  1  0  0  0  0  0999 V2000
   29.3854  -19.8163  -19.7597 N   0  0  0  0  0  0  0  0  0  0  0  0
   28.9752  -20.1234  -18.4230 C   0  0  1  0  0  0  0  0  0  0  0  0
   28.5302  -18.8249  -17.7434 C   0  0  0  0  0  0  0  0  0  0  0  0
   29.6680  -17.8694  -17.7739 C   0  0  0  0  0  0  0  0  0  0  0  0
   30.9314  -18.2376  -17.3584 C   0  0  0  0  0  0  0  0  0  0  0  0
   31.9808  -17.3473  -17.3902 C   0  0  0  0  0  0  0  0  0  0  0  0
   31.8233  -16.0522  -17.8357 C   0  0  0  0  0  0  0  0  0  0  0  0
   30.5576  -15.6825  -18.2523 C   0  0  0  0  0  0  0  0  0  0  0  0
   29.5004  -16.5723  -18.2224 C   0  0  0  0  0  0  0  0  0  0  0  0
   27.8594  -21.1028  -18.3731 C   0  0  0  0  0  0  0  0  0  0  0  0
   27.0559  -21.0883  -19.3519 O   0  0  0  0  0  0  0  0  0  0  0  0
   27.6522  -22.0183  -17.3301 N   0  0  0  0  0  0  0  0  0  0  0  0
   26.5939  -23.0584  -17.4715 C   0  0  1  0  0  0  0  0  0  0  0  0
   26.9614  -24.1664  -16.5492 C   0  0  0  0  0  0  0  0  0  0  0  0
   27.9851  -25.0511  -17.0934 C   0  0  0  0  0  0  0  0  0  0  0  0
   28.5294  -24.9577  -18.3821 C   0  0  0  0  0  0  0  0  0  0  0  0
   29.4273  -25.9478  -18.4898 N   0  0  0  0  0  0  0  0  0  0  0  0
   29.4796  -26.6552  -17.3491 C   0  0  0  0  0  0  0  0  0  0  0  0
   28.5946  -26.0914  -16.5162 N   0  0  0  0  0  0  0  0  0  0  0  0
   25.3118  -22.4328  -17.1240 C   0  0  0  0  0  0  0  0  0  0  0  0
   25.2694  -21.7506  -16.0474 O   0  0  0  0  0  0  0  0  0  0  0  0
   24.1203  -22.4944  -17.8483 N   0  0  0  0  0  0  0  0  0  0  0  0
   22.8948  -21.8679  -17.3658 C   0  0  1  0  0  0  0  0  0  0  0  0
   22.2280  -21.1050  -18.4669 C   0  0  0  0  0  0  0  0  0  0  0  0
   20.9909  -20.4493  -18.0289 C   0  0  0  0  0  0  0  0  0  0  0  0
   20.8530  -19.1651  -17.5026 C   0  0  0  0  0  0  0  0  0  0  0  0
   19.5731  -18.9361  -17.1890 N   0  0  0  0  0  0  0  0  0  0  0  0
   18.8262  -20.0070  -17.4781 C   0  0  0  0  0  0  0  0  0  0  0  0
   17.4676  -20.2409  -17.3484 C   0  0  0  0  0  0  0  0  0  0  0  0
   16.9871  -21.4565  -17.7584 C   0  0  0  0  0  0  0  0  0  0  0  0
   17.8326  -22.4334  -18.2910 C   0  0  0  0  0  0  0  0  0  0  0  0
   19.1774  -22.1711  -18.4061 C   0  0  0  0  0  0  0  0  0  0  0  0
   19.6844  -20.9573  -18.0003 C   0  0  0  0  0  0  0  0  0  0  0  0
   22.0429  -22.7419  -16.5642 C   0  0  0  0  0  0  0  0  0  0  0  0
   21.5112  -22.2030  -15.3777 O   0  0  0  0  0  0  0  0  0  0  0  0
   21.7374  -23.9309  -16.8178 O   0  0  0  0  0  0  0  0  0  0  0  0
  2  1  1  6
  3  2  1  0
  3  4  1  0
  4  5  2  0
  4  9  1  0
  5  6  1  0
  6  7  2  0
  8  7  1  0
  9  8  2  0
 10  2  1  0
 11 10  2  0
 12 10  1  0
 13 12  1  0
 13 14  1  1
 14 15  1  0
 15 19  1  0
 15 16  2  0
 16 17  1  0
 18 17  1  0
 19 18  2  0
 20 21  2  0
 20 13  1  0
 22 20  1  0
 23 22  1  0
 23 24  1  6
 24 25  1  0
 25 26  2  0
 25 33  1  0
 26 27  1  0
 27 28  1  0
 28 29  2  0
 29 30  1  0
 31 30  2  0
 32 31  1  0
 33 32  2  0
 33 28  1  0
 34 23  1  0
 35 34  1  0
 36 34  2  0
M  END
$$$$
