VGN.pdb
     RDKit          3D

 20 19  0  0  1  0  0  0  0  0999 V2000
    7.4882  -12.6641   18.5560 C   0  0  0  0  0  0  0  0  0  0  0  0
    7.9988  -13.2128   19.8511 C   0  0  1  0  0  0  0  0  0  0  0  0
    7.3306  -12.4799   21.0027 C   0  0  0  0  0  0  0  0  0  0  0  0
    7.6909  -14.6822   20.0112 C   0  0  2  0  0  0  0  0  0  0  0  0
    6.2650  -14.8600   19.7781 N   0  0  0  0  0  0  0  0  0  0  0  0
    8.0726  -15.1734   21.3681 C   0  0  0  0  0  0  0  0  0  0  0  0
    7.2430  -15.0958   22.2855 O   0  0  0  0  0  0  0  0  0  0  0  0
    9.3515  -15.7250   21.6401 N   0  0  0  0  0  0  0  0  0  0  0  0
    9.7201  -16.2707   22.9279 C   0  0  0  0  0  0  0  0  0  0  0  0
   11.1191  -16.7953   22.9159 C   0  0  0  0  0  0  0  0  0  0  0  0
   11.6228  -17.2117   21.8332 O   0  0  0  0  0  0  0  0  0  0  0  0
   16.6164  -15.8303   24.3271 N   0  0  0  0  0  0  0  0  0  0  0  0
   15.5315  -16.2476   23.5058 C   0  0  0  0  0  0  0  0  0  0  0  0
   15.7660  -16.8796   22.4417 O   0  0  0  0  0  0  0  0  0  0  0  0
   14.1605  -15.9151   23.9455 C   0  0  0  0  0  0  0  0  0  0  0  0
   13.3249  -17.1469   24.0876 C   0  0  2  0  0  0  0  0  0  0  0  0
   11.9016  -16.8377   24.0999 N   0  0  0  0  0  0  0  0  0  0  0  0
   13.7203  -17.9313   25.2650 C   0  0  0  0  0  0  0  0  0  0  0  0
   14.4061  -19.1292   25.2236 O   0  0  0  0  0  0  0  0  0  0  0  0
   13.4319  -17.5208   26.4417 O   0  0  0  0  0  0  0  0  0  0  0  0
  2  1  1  6
  3  2  1  0
  4  2  1  0
  4  5  1  1
  6  8  1  0
  6  4  1  0
  7  6  2  0
  9  8  1  0
 10  9  1  0
 11 10  2  0
 13 12  1  0
 14 13  2  0
 15 13  1  0
 16 15  1  1
 16 17  1  0
 17 10  1  0
 18 19  1  0
 18 16  1  0
 20 18  2  0
M  END
$$$$
