VGN.pdb
     RDKit          3D

 20 19  0  0  1  0  0  0  0  0999 V2000
    5.2251  -11.6789   26.9017 C   0  0  0  0  0  0  0  0  0  0  0  0
    6.1703  -12.0817   25.8139 C   0  0  1  0  0  0  0  0  0  0  0  0
    7.5957  -11.8010   26.2607 C   0  0  0  0  0  0  0  0  0  0  0  0
    6.0792  -13.5541   25.4927 C   0  0  2  0  0  0  0  0  0  0  0  0
    6.3182  -14.2884   26.7267 N   0  0  0  0  0  0  0  0  0  0  0  0
    7.0662  -13.9442   24.4430 C   0  0  0  0  0  0  0  0  0  0  0  0
    6.8512  -13.6108   23.2689 O   0  0  0  0  0  0  0  0  0  0  0  0
    8.2396  -14.6826   24.7460 N   0  0  0  0  0  0  0  0  0  0  0  0
    9.2171  -15.0591   23.7485 C   0  0  0  0  0  0  0  0  0  0  0  0
   10.3794  -15.7664   24.3660 C   0  0  0  0  0  0  0  0  0  0  0  0
   11.3487  -16.1309   23.6401 O   0  0  0  0  0  0  0  0  0  0  0  0
   11.6053  -13.7114   27.8929 N   0  0  0  0  0  0  0  0  0  0  0  0
   10.9153  -14.9338   28.1280 C   0  0  0  0  0  0  0  0  0  0  0  0
    9.7255  -14.9054   28.5407 O   0  0  0  0  0  0  0  0  0  0  0  0
   11.6371  -16.1979   27.8738 C   0  0  0  0  0  0  0  0  0  0  0  0
   11.6142  -16.5504   26.4209 C   0  0  2  0  0  0  0  0  0  0  0  0
   10.4213  -16.0410   25.7585 N   0  0  0  0  0  0  0  0  0  0  0  0
   11.7732  -17.9964   26.2164 C   0  0  0  0  0  0  0  0  0  0  0  0
   12.8803  -18.7314   26.5921 O   0  0  0  0  0  0  0  0  0  0  0  0
   10.8475  -18.6749   25.6516 O   0  0  0  0  0  0  0  0  0  0  0  0
  2  1  1  1
  3  2  1  0
  4  2  1  0
  4  5  1  1
  6  8  1  0
  6  4  1  0
  7  6  2  0
  9  8  1  0
 10  9  1  0
 11 10  2  0
 13 12  1  0
 14 13  2  0
 15 13  1  0
 16 15  1  1
 16 17  1  0
 17 10  1  0
 18 19  1  0
 18 16  1  0
 20 18  2  0
M  END
$$$$
