VGN.pdb
     RDKit          3D

 20 19  0  0  1  0  0  0  0  0999 V2000
    6.8990  -13.3008   18.5912 C   0  0  0  0  0  0  0  0  0  0  0  0
    8.1749  -13.7624   19.2222 C   0  0  1  0  0  0  0  0  0  0  0  0
    8.4627  -12.9116   20.4483 C   0  0  0  0  0  0  0  0  0  0  0  0
    8.1009  -15.2001   19.6772 C   0  0  2  0  0  0  0  0  0  0  0  0
    6.9949  -15.3068   20.6177 N   0  0  0  0  0  0  0  0  0  0  0  0
    9.3802  -15.6370   20.3101 C   0  0  0  0  0  0  0  0  0  0  0  0
   10.0826  -16.4711   19.7212 O   0  0  0  0  0  0  0  0  0  0  0  0
    9.8166  -15.1290   21.5613 N   0  0  0  0  0  0  0  0  0  0  0  0
   11.0822  -15.4873   22.1628 C   0  0  0  0  0  0  0  0  0  0  0  0
   10.8925  -16.0517   23.5332 C   0  0  0  0  0  0  0  0  0  0  0  0
   11.9014  -16.2952   24.2558 O   0  0  0  0  0  0  0  0  0  0  0  0
    6.7911  -14.0227   25.3913 N   0  0  0  0  0  0  0  0  0  0  0  0
    8.0258  -14.6181   25.7741 C   0  0  0  0  0  0  0  0  0  0  0  0
    9.0357  -13.8883   25.9593 O   0  0  0  0  0  0  0  0  0  0  0  0
    8.0667  -16.0860   25.9388 C   0  0  0  0  0  0  0  0  0  0  0  0
    9.3615  -16.6491   25.4467 C   0  0  2  0  0  0  0  0  0  0  0  0
    9.5968  -16.3232   24.0467 N   0  0  0  0  0  0  0  0  0  0  0  0
    9.4448  -18.0956   25.6888 C   0  0  0  0  0  0  0  0  0  0  0  0
    9.4072  -18.6928   26.9334 O   0  0  0  0  0  0  0  0  0  0  0  0
    9.5631  -18.9092   24.7088 O   0  0  0  0  0  0  0  0  0  0  0  0
  2  1  1  1
  3  2  1  0
  4  2  1  0
  4  5  1  1
  6  8  1  0
  6  4  1  0
  7  6  2  0
  9  8  1  0
 10  9  1  0
 11 10  2  0
 13 12  1  0
 14 13  2  0
 15 13  1  0
 16 15  1  6
 16 17  1  0
 17 10  1  0
 18 19  1  0
 18 16  1  0
 20 18  2  0
M  END
$$$$
