VGN.pdb
     RDKit          3D

 20 19  0  0  1  0  0  0  0  0999 V2000
    8.5550  -12.5356   19.6418 C   0  0  0  0  0  0  0  0  0  0  0  0
    7.8414  -13.5538   20.4744 C   0  0  1  0  0  0  0  0  0  0  0  0
    6.3886  -13.1378   20.6364 C   0  0  0  0  0  0  0  0  0  0  0  0
    7.8510  -14.9226   19.8373 C   0  0  2  0  0  0  0  0  0  0  0  0
    7.0923  -15.8147   20.7019 N   0  0  0  0  0  0  0  0  0  0  0  0
    9.2438  -15.4246   19.6475 C   0  0  0  0  0  0  0  0  0  0  0  0
    9.9494  -14.9083   18.7692 O   0  0  0  0  0  0  0  0  0  0  0  0
    9.7843  -16.4714   20.4388 N   0  0  0  0  0  0  0  0  0  0  0  0
   11.1358  -16.9631   20.2842 C   0  0  0  0  0  0  0  0  0  0  0  0
   12.0163  -16.4917   21.3955 C   0  0  0  0  0  0  0  0  0  0  0  0
   11.8744  -15.3217   21.8541 O   0  0  0  0  0  0  0  0  0  0  0  0
   15.0563  -16.5998   25.7675 N   0  0  0  0  0  0  0  0  0  0  0  0
   14.1191  -17.6179   25.4347 C   0  0  0  0  0  0  0  0  0  0  0  0
   13.3733  -18.0922   26.3322 O   0  0  0  0  0  0  0  0  0  0  0  0
   14.0637  -18.0783   24.0317 C   0  0  0  0  0  0  0  0  0  0  0  0
   13.8243  -16.9358   23.0972 C   0  0  2  0  0  0  0  0  0  0  0  0
   13.0159  -17.3324   21.9524 N   0  0  0  0  0  0  0  0  0  0  0  0
   15.0861  -16.3098   22.6799 C   0  0  0  0  0  0  0  0  0  0  0  0
   15.8844  -15.5241   23.4878 O   0  0  0  0  0  0  0  0  0  0  0  0
   15.5246  -16.4706   21.4891 O   0  0  0  0  0  0  0  0  0  0  0  0
  2  1  1  6
  3  2  1  0
  4  2  1  0
  4  5  1  1
  6  8  1  0
  6  4  1  0
  7  6  2  0
  9  8  1  0
 10  9  1  0
 11 10  2  0
 13 12  1  0
 14 13  2  0
 15 13  1  0
 16 15  1  6
 16 17  1  0
 17 10  1  0
 18 19  1  0
 18 16  1  0
 20 18  2  0
M  END
$$$$
