VGN.pdb
     RDKit          3D

 20 19  0  0  1  0  0  0  0  0999 V2000
    6.3722  -14.2831   19.7541 C   0  0  0  0  0  0  0  0  0  0  0  0
    7.8372  -14.4577   20.0036 C   0  0  1  0  0  0  0  0  0  0  0  0
    8.4647  -13.0989   20.2682 C   0  0  0  0  0  0  0  0  0  0  0  0
    8.1133  -15.3251   21.2081 C   0  0  2  0  0  0  0  0  0  0  0  0
    7.5559  -14.6510   22.3718 N   0  0  0  0  0  0  0  0  0  0  0  0
    9.5764  -15.5638   21.3829 C   0  0  0  0  0  0  0  0  0  0  0  0
   10.1279  -16.4254   20.6833 O   0  0  0  0  0  0  0  0  0  0  0  0
   10.3538  -14.8374   22.3220 N   0  0  0  0  0  0  0  0  0  0  0  0
   11.7659  -15.0716   22.5298 C   0  0  0  0  0  0  0  0  0  0  0  0
   12.0100  -15.8447   23.7849 C   0  0  0  0  0  0  0  0  0  0  0  0
   13.1709  -16.2772   24.0386 O   0  0  0  0  0  0  0  0  0  0  0  0
   12.0529  -14.3066   26.7138 N   0  0  0  0  0  0  0  0  0  0  0  0
   10.9095  -14.7759   27.4196 C   0  0  0  0  0  0  0  0  0  0  0  0
   10.3809  -14.0463   28.2999 O   0  0  0  0  0  0  0  0  0  0  0  0
   10.3881  -16.1168   27.0824 C   0  0  0  0  0  0  0  0  0  0  0  0
   11.1915  -16.7505   25.9920 C   0  0  2  0  0  0  0  0  0  0  0  0
   10.9615  -16.1072   24.7057 N   0  0  0  0  0  0  0  0  0  0  0  0
   10.9567  -18.1990   25.9243 C   0  0  0  0  0  0  0  0  0  0  0  0
   11.7244  -19.1554   26.5593 O   0  0  0  0  0  0  0  0  0  0  0  0
    9.9822  -18.6645   25.2388 O   0  0  0  0  0  0  0  0  0  0  0  0
  2  1  1  1
  3  2  1  0
  4  2  1  0
  4  5  1  1
  6  8  1  0
  6  4  1  0
  7  6  2  0
  9  8  1  0
 10  9  1  0
 11 10  2  0
 13 12  1  0
 14 13  2  0
 15 13  1  0
 16 15  1  1
 16 17  1  0
 17 10  1  0
 18 19  1  0
 18 16  1  0
 20 18  2  0
M  END
$$$$
