DID.pdb
     RDKit          3D

 25 24  0  0  1  0  0  0  0  0999 V2000
   16.5676  -20.7192    0.9091 N   0  0  0  0  0  0  0  0  0  0  0  0
   15.8754  -20.1495    2.0444 C   0  0  1  0  0  0  0  0  0  0  0  0
   15.3681  -21.3241    2.8813 C   0  0  0  0  0  0  0  0  0  0  0  0
   14.4734  -22.1700    2.0513 C   0  0  0  0  0  0  0  0  0  0  0  0
   13.7162  -21.7217    1.1528 O   0  0  0  0  0  0  0  0  0  0  0  0
   16.7913  -19.3244    2.8740 C   0  0  0  0  0  0  0  0  0  0  0  0
   18.0021  -19.6797    3.0671 O   0  0  0  0  0  0  0  0  0  0  0  0
   14.4659  -23.5298    2.2722 O   0  0  0  0  0  0  0  0  0  0  0  0
   18.6729  -14.6808    1.6388 C   0  0  0  0  0  0  0  0  0  0  0  0
   18.5713  -16.0333    2.3403 C   0  0  0  0  0  0  0  0  0  0  0  0
   17.5070  -15.9718    3.3617 C   0  0  2  0  0  0  0  0  0  0  0  0
   17.8633  -14.8515    4.3485 C   0  0  0  0  0  0  0  0  0  0  0  0
   17.2852  -17.2038    4.1647 C   0  0  2  0  0  0  0  0  0  0  0  0
   16.3824  -18.1126    3.4910 N   0  0  0  0  0  0  0  0  0  0  0  0
   16.8637  -17.0233    5.5367 C   0  0  0  0  0  0  0  0  0  0  0  0
   15.6945  -16.6990    5.9084 O   0  0  0  0  0  0  0  0  0  0  0  0
   17.8093  -17.2168    6.5749 N   0  0  0  0  0  0  0  0  0  0  0  0
   17.4177  -17.0919    7.9854 C   0  0  1  0  0  0  0  0  0  0  0  0
   18.1524  -18.0869    8.8179 C   0  0  0  0  0  0  0  0  0  0  0  0
   17.8262  -18.1185   10.2415 C   0  0  0  0  0  0  0  0  0  0  0  0
   16.8429  -17.3965   10.6314 O   0  0  0  0  0  0  0  0  0  0  0  0
   17.7025  -15.7069    8.4470 C   0  0  0  0  0  0  0  0  0  0  0  0
   18.5679  -14.9774    7.8889 O   0  0  0  0  0  0  0  0  0  0  0  0
   18.4854  -18.8560   11.2067 O   0  0  0  0  0  0  0  0  0  0  0  0
   17.0188  -15.1784    9.5100 O   0  0  0  0  0  0  0  0  0  0  0  0
  2  1  1  6
  3  2  1  0
  3  4  1  0
  4  5  2  0
  6  2  1  0
  6  7  2  0
  8  4  1  0
  9 10  1  0
 10 11  1  0
 11 13  1  0
 11 12  1  1
 13 14  1  6
 14  6  1  0
 15 13  1  0
 15 16  2  0
 17 18  1  0
 17 15  1  0
 18 19  1  1
 19 20  1  0
 20 24  1  0
 21 20  2  0
 22 18  1  0
 23 22  2  0
 25 22  1  0
M  END
$$$$
