DID.pdb
     RDKit          3D

 25 24  0  0  1  0  0  0  0  0999 V2000
   28.0049  -21.5219  -16.3859 N   0  0  0  0  0  0  0  0  0  0  0  0
   27.2605  -20.4510  -15.7600 C   0  0  1  0  0  0  0  0  0  0  0  0
   26.5358  -19.7083  -16.8828 C   0  0  0  0  0  0  0  0  0  0  0  0
   27.5091  -18.8688  -17.6263 C   0  0  0  0  0  0  0  0  0  0  0  0
   28.7531  -18.9065  -17.4446 O   0  0  0  0  0  0  0  0  0  0  0  0
   26.2549  -20.9824  -14.8038 C   0  0  0  0  0  0  0  0  0  0  0  0
   25.5320  -21.9909  -15.1038 O   0  0  0  0  0  0  0  0  0  0  0  0
   27.0292  -17.9924  -18.5747 O   0  0  0  0  0  0  0  0  0  0  0  0
   27.0146  -21.0105   -9.3586 C   0  0  0  0  0  0  0  0  0  0  0  0
   26.6017  -21.4565  -10.7594 C   0  0  0  0  0  0  0  0  0  0  0  0
   25.4291  -20.6714  -11.1931 C   0  0  2  0  0  0  0  0  0  0  0  0
   24.2373  -21.0777  -10.3153 C   0  0  0  0  0  0  0  0  0  0  0  0
   25.0036  -20.8397  -12.6082 C   0  0  2  0  0  0  0  0  0  0  0  0
   26.0411  -20.4109  -13.5216 N   0  0  0  0  0  0  0  0  0  0  0  0
   23.7413  -20.2433  -12.9871 C   0  0  0  0  0  0  0  0  0  0  0  0
   23.4590  -19.0088  -12.9048 O   0  0  0  0  0  0  0  0  0  0  0  0
   22.7145  -21.0779  -13.4957 N   0  0  0  0  0  0  0  0  0  0  0  0
   21.3875  -20.5336  -13.8135 C   0  0  1  0  0  0  0  0  0  0  0  0
   20.8883  -21.1008  -15.0988 C   0  0  0  0  0  0  0  0  0  0  0  0
   19.5696  -20.6561  -15.5429 C   0  0  0  0  0  0  0  0  0  0  0  0
   19.0166  -19.7124  -14.8768 O   0  0  0  0  0  0  0  0  0  0  0  0
   20.4536  -20.8516  -12.7002 C   0  0  0  0  0  0  0  0  0  0  0  0
   20.4154  -21.9914  -12.1602 O   0  0  0  0  0  0  0  0  0  0  0  0
   18.8631  -21.1646  -16.6165 O   0  0  0  0  0  0  0  0  0  0  0  0
   19.5953  -19.8959  -12.2241 O   0  0  0  0  0  0  0  0  0  0  0  0
  2  1  1  6
  3  2  1  0
  3  4  1  0
  4  5  2  0
  6  2  1  0
  6  7  2  0
  8  4  1  0
  9 10  1  0
 10 11  1  0
 11 13  1  0
 11 12  1  1
 13 14  1  6
 14  6  1  0
 15 13  1  0
 15 16  2  0
 17 18  1  0
 17 15  1  0
 18 19  1  6
 19 20  1  0
 20 24  1  0
 21 20  2  0
 22 18  1  0
 23 22  2  0
 25 22  1  0
M  END
$$$$
