DID.pdb
     RDKit          3D

 25 24  0  0  1  0  0  0  0  0999 V2000
   13.5195  -14.4435  -13.5868 N   0  0  0  0  0  0  0  0  0  0  0  0
   14.6407  -13.7458  -12.9961 C   0  0  1  0  0  0  0  0  0  0  0  0
   15.8344  -13.9726  -13.9239 C   0  0  0  0  0  0  0  0  0  0  0  0
   16.3111  -15.3715  -13.7800 C   0  0  0  0  0  0  0  0  0  0  0  0
   15.7636  -16.3610  -14.3304 O   0  0  0  0  0  0  0  0  0  0  0  0
   14.3748  -12.2872  -12.8976 C   0  0  0  0  0  0  0  0  0  0  0  0
   13.6119  -11.7004  -13.7362 O   0  0  0  0  0  0  0  0  0  0  0  0
   17.4201  -15.6092  -12.9981 O   0  0  0  0  0  0  0  0  0  0  0  0
   12.1021  -10.1732   -8.8289 C   0  0  0  0  0  0  0  0  0  0  0  0
   12.5873  -10.3902  -10.2603 C   0  0  0  0  0  0  0  0  0  0  0  0
   13.9484   -9.8357  -10.4010 C   0  0  2  0  0  0  0  0  0  0  0  0
   13.8615   -8.3154  -10.2089 C   0  0  0  0  0  0  0  0  0  0  0  0
   14.6302  -10.0710  -11.7017 C   0  0  2  0  0  0  0  0  0  0  0  0
   14.9432  -11.4724  -11.8830 N   0  0  0  0  0  0  0  0  0  0  0  0
   15.8007   -9.2683  -11.9812 C   0  0  0  0  0  0  0  0  0  0  0  0
   16.9005   -9.3304  -11.3511 O   0  0  0  0  0  0  0  0  0  0  0  0
   15.7485   -8.3259  -13.0389 N   0  0  0  0  0  0  0  0  0  0  0  0
   16.8942   -7.4534  -13.3297 C   0  0  1  0  0  0  0  0  0  0  0  0
   17.5661   -7.8821  -14.5896 C   0  0  0  0  0  0  0  0  0  0  0  0
   18.7012   -7.0769  -15.0336 C   0  0  0  0  0  0  0  0  0  0  0  0
   18.4854   -6.2287  -15.9685 O   0  0  0  0  0  0  0  0  0  0  0  0
   16.4183   -6.0483  -13.4389 C   0  0  0  0  0  0  0  0  0  0  0  0
   15.2750   -5.7593  -13.8883 O   0  0  0  0  0  0  0  0  0  0  0  0
   19.9890   -7.1501  -14.5369 O   0  0  0  0  0  0  0  0  0  0  0  0
   17.2250   -5.0131  -13.0464 O   0  0  0  0  0  0  0  0  0  0  0  0
  2  1  1  6
  3  2  1  0
  3  4  1  0
  4  5  2  0
  6  2  1  0
  6  7  2  0
  8  4  1  0
  9 10  1  0
 10 11  1  0
 11 13  1  0
 11 12  1  6
 13 14  1  1
 14  6  1  0
 15 13  1  0
 15 16  2  0
 17 18  1  0
 17 15  1  0
 18 19  1  6
 19 20  1  0
 20 24  1  0
 21 20  2  0
 22 18  1  0
 23 22  2  0
 25 22  1  0
M  END
$$$$
