DID.pdb
     RDKit          3D

 25 24  0  0  1  0  0  0  0  0999 V2000
   23.3692  -13.5941  -19.6729 N   0  0  0  0  0  0  0  0  0  0  0  0
   23.6243  -12.1719  -19.7453 C   0  0  1  0  0  0  0  0  0  0  0  0
   22.4862  -11.5652  -20.5663 C   0  0  0  0  0  0  0  0  0  0  0  0
   22.5908  -12.0307  -21.9724 C   0  0  0  0  0  0  0  0  0  0  0  0
   23.5414  -12.7256  -22.4141 O   0  0  0  0  0  0  0  0  0  0  0  0
   23.6267  -11.5565  -18.3929 C   0  0  0  0  0  0  0  0  0  0  0  0
   22.8037  -11.9397  -17.4953 O   0  0  0  0  0  0  0  0  0  0  0  0
   21.5899  -11.6850  -22.8538 O   0  0  0  0  0  0  0  0  0  0  0  0
   27.7519  -11.5794  -15.3091 C   0  0  0  0  0  0  0  0  0  0  0  0
   26.3243  -11.5505  -15.8502 C   0  0  0  0  0  0  0  0  0  0  0  0
   25.9193  -10.1490  -16.0771 C   0  0  2  0  0  0  0  0  0  0  0  0
   25.8953   -9.4379  -14.7171 C   0  0  0  0  0  0  0  0  0  0  0  0
   24.5868   -9.9356  -16.7024 C   0  0  2  0  0  0  0  0  0  0  0  0
   24.5282  -10.5234  -18.0237 N   0  0  0  0  0  0  0  0  0  0  0  0
   24.0969   -8.5754  -16.7500 C   0  0  0  0  0  0  0  0  0  0  0  0
   24.6216   -7.6293  -17.4134 O   0  0  0  0  0  0  0  0  0  0  0  0
   22.9380   -8.2383  -16.0065 N   0  0  0  0  0  0  0  0  0  0  0  0
   22.4470   -6.8544  -15.9603 C   0  0  1  0  0  0  0  0  0  0  0  0
   21.1390   -6.7441  -16.6674 C   0  0  0  0  0  0  0  0  0  0  0  0
   20.4659   -5.4493  -16.6019 C   0  0  0  0  0  0  0  0  0  0  0  0
   21.1758   -4.4096  -16.8368 O   0  0  0  0  0  0  0  0  0  0  0  0
   22.3141   -6.4341  -14.5396 C   0  0  0  0  0  0  0  0  0  0  0  0
   22.2101   -7.2689  -13.5990 O   0  0  0  0  0  0  0  0  0  0  0  0
   19.1313   -5.2449  -16.3062 O   0  0  0  0  0  0  0  0  0  0  0  0
   22.3016   -5.1043  -14.2108 O   0  0  0  0  0  0  0  0  0  0  0  0
  2  1  1  1
  3  2  1  0
  3  4  1  0
  4  5  2  0
  6  2  1  0
  6  7  2  0
  8  4  1  0
  9 10  1  0
 10 11  1  0
 11 13  1  0
 11 12  1  1
 13 14  1  6
 14  6  1  0
 15 13  1  0
 15 16  2  0
 17 18  1  0
 17 15  1  0
 18 19  1  1
 19 20  1  0
 20 24  1  0
 21 20  2  0
 22 18  1  0
 23 22  2  0
 25 22  1  0
M  END
$$$$
