DID.pdb
     RDKit          3D

 25 24  0  0  1  0  0  0  0  0999 V2000
   20.4183  -13.6697  -16.1460 N   0  0  0  0  0  0  0  0  0  0  0  0
   20.7371  -12.4990  -16.9338 C   0  0  1  0  0  0  0  0  0  0  0  0
   19.4074  -11.9317  -17.4311 C   0  0  0  0  0  0  0  0  0  0  0  0
   18.7355  -12.9359  -18.2942 C   0  0  0  0  0  0  0  0  0  0  0  0
   17.5497  -13.3219  -18.1315 O   0  0  0  0  0  0  0  0  0  0  0  0
   21.4254  -11.4695  -16.1126 C   0  0  0  0  0  0  0  0  0  0  0  0
   20.9545  -11.1079  -14.9825 O   0  0  0  0  0  0  0  0  0  0  0  0
   19.4470  -13.4833  -19.3393 O   0  0  0  0  0  0  0  0  0  0  0  0
   26.7167  -11.6915  -15.4589 C   0  0  0  0  0  0  0  0  0  0  0  0
   25.2148  -11.5133  -15.2490 C   0  0  0  0  0  0  0  0  0  0  0  0
   24.8134  -10.1746  -15.7245 C   0  0  2  0  0  0  0  0  0  0  0  0
   25.4827   -9.1313  -14.8192 C   0  0  0  0  0  0  0  0  0  0  0  0
   23.3558   -9.8790  -15.7242 C   0  0  2  0  0  0  0  0  0  0  0  0
   22.6270  -10.8369  -16.5279 N   0  0  0  0  0  0  0  0  0  0  0  0
   22.9607   -8.5355  -16.0865 C   0  0  0  0  0  0  0  0  0  0  0  0
   23.1153   -8.0086  -17.2306 O   0  0  0  0  0  0  0  0  0  0  0  0
   22.3481   -7.7139  -15.1070 N   0  0  0  0  0  0  0  0  0  0  0  0
   21.8322   -6.3828  -15.4539 C   0  0  1  0  0  0  0  0  0  0  0  0
   20.3833   -6.2838  -15.1165 C   0  0  0  0  0  0  0  0  0  0  0  0
   19.7176   -5.0267  -15.4489 C   0  0  0  0  0  0  0  0  0  0  0  0
   19.6748   -4.1294  -14.5362 O   0  0  0  0  0  0  0  0  0  0  0  0
   22.6149   -5.3529  -14.7196 C   0  0  0  0  0  0  0  0  0  0  0  0
   23.0395   -5.5418  -13.5463 O   0  0  0  0  0  0  0  0  0  0  0  0
   19.1266   -4.7193  -16.6599 O   0  0  0  0  0  0  0  0  0  0  0  0
   22.9003   -4.1504  -15.3106 O   0  0  0  0  0  0  0  0  0  0  0  0
  2  1  1  1
  3  2  1  0
  3  4  1  0
  4  5  2  0
  6  2  1  0
  6  7  2  0
  8  4  1  0
  9 10  1  0
 10 11  1  0
 11 13  1  0
 11 12  1  1
 13 14  1  6
 14  6  1  0
 15 13  1  0
 15 16  2  0
 17 18  1  0
 17 15  1  0
 18 19  1  1
 19 20  1  0
 20 24  1  0
 21 20  2  0
 22 18  1  0
 23 22  2  0
 25 22  1  0
M  END
$$$$
