DID.pdb
     RDKit          3D

 25 24  0  0  1  0  0  0  0  0999 V2000
   18.3596  -13.0681  -16.2721 N   0  0  0  0  0  0  0  0  0  0  0  0
   18.7086  -11.7901  -16.8533 C   0  0  1  0  0  0  0  0  0  0  0  0
   17.4020  -11.0133  -17.0172 C   0  0  0  0  0  0  0  0  0  0  0  0
   16.5340  -11.7112  -17.9992 C   0  0  0  0  0  0  0  0  0  0  0  0
   15.4173  -12.2160  -17.7165 O   0  0  0  0  0  0  0  0  0  0  0  0
   19.6181  -11.0245  -15.9620 C   0  0  0  0  0  0  0  0  0  0  0  0
   19.3412  -10.8585  -14.7269 O   0  0  0  0  0  0  0  0  0  0  0  0
   16.9705  -11.8169  -19.3016 O   0  0  0  0  0  0  0  0  0  0  0  0
   25.3788  -10.4786  -14.7100 C   0  0  0  0  0  0  0  0  0  0  0  0
   24.0936   -9.6541  -14.6960 C   0  0  0  0  0  0  0  0  0  0  0  0
   23.0756  -10.3275  -15.5264 C   0  0  2  0  0  0  0  0  0  0  0  0
   23.6032  -10.3851  -16.9667 C   0  0  0  0  0  0  0  0  0  0  0  0
   21.7338   -9.6884  -15.5806 C   0  0  2  0  0  0  0  0  0  0  0  0
   20.8285  -10.4415  -16.4219 N   0  0  0  0  0  0  0  0  0  0  0  0
   21.6899   -8.2891  -15.9447 C   0  0  0  0  0  0  0  0  0  0  0  0
   21.5785   -7.8417  -17.1271 O   0  0  0  0  0  0  0  0  0  0  0  0
   21.7761   -7.3119  -14.9214 N   0  0  0  0  0  0  0  0  0  0  0  0
   21.6481   -5.8815  -15.2310 C   0  0  1  0  0  0  0  0  0  0  0  0
   20.2558   -5.5662  -15.6609 C   0  0  0  0  0  0  0  0  0  0  0  0
   19.9467   -4.1586  -15.9000 C   0  0  0  0  0  0  0  0  0  0  0  0
   19.1447   -3.5893  -15.0798 O   0  0  0  0  0  0  0  0  0  0  0  0
   22.0193   -5.0897  -14.0277 C   0  0  0  0  0  0  0  0  0  0  0  0
   22.2023   -3.8420  -14.0747 O   0  0  0  0  0  0  0  0  0  0  0  0
   20.4403   -3.3859  -16.9343 O   0  0  0  0  0  0  0  0  0  0  0  0
   22.1742   -5.7075  -12.8148 O   0  0  0  0  0  0  0  0  0  0  0  0
  2  1  1  1
  3  2  1  0
  3  4  1  0
  4  5  2  0
  6  2  1  0
  6  7  2  0
  8  4  1  0
  9 10  1  0
 10 11  1  0
 11 13  1  0
 11 12  1  6
 13 14  1  6
 14  6  1  0
 15 13  1  0
 15 16  2  0
 17 18  1  0
 17 15  1  0
 18 19  1  1
 19 20  1  0
 20 24  1  0
 21 20  2  0
 22 18  1  0
 23 22  2  0
 25 22  1  0
M  END
$$$$
