DID.pdb
     RDKit          3D

 25 24  0  0  1  0  0  0  0  0999 V2000
   16.9179  -10.3052  -12.8608 N   0  0  0  0  0  0  0  0  0  0  0  0
   17.4208   -9.1988  -12.0762 C   0  0  1  0  0  0  0  0  0  0  0  0
   18.1302   -8.2587  -13.0511 C   0  0  0  0  0  0  0  0  0  0  0  0
   19.3080   -8.9503  -13.6335 C   0  0  0  0  0  0  0  0  0  0  0  0
   20.0742   -9.7044  -12.9807 O   0  0  0  0  0  0  0  0  0  0  0  0
   16.3134   -8.4625  -11.4133 C   0  0  0  0  0  0  0  0  0  0  0  0
   15.2572   -8.1461  -12.0567 O   0  0  0  0  0  0  0  0  0  0  0  0
   19.5858   -8.7603  -14.9694 O   0  0  0  0  0  0  0  0  0  0  0  0
   12.9327  -10.0614   -8.1933 C   0  0  0  0  0  0  0  0  0  0  0  0
   13.6487   -9.1951   -9.2269 C   0  0  0  0  0  0  0  0  0  0  0  0
   14.4802   -8.1942   -8.5295 C   0  0  2  0  0  0  0  0  0  0  0  0
   13.5446   -7.2769   -7.7301 C   0  0  0  0  0  0  0  0  0  0  0  0
   15.3215   -7.3165   -9.3861 C   0  0  2  0  0  0  0  0  0  0  0  0
   16.3623   -8.0732  -10.0486 N   0  0  0  0  0  0  0  0  0  0  0  0
   15.8924   -6.1441   -8.7599 C   0  0  0  0  0  0  0  0  0  0  0  0
   16.9736   -6.1199   -8.0959 O   0  0  0  0  0  0  0  0  0  0  0  0
   15.2140   -4.9051   -8.8786 N   0  0  0  0  0  0  0  0  0  0  0  0
   15.7252   -3.6981   -8.2151 C   0  0  1  0  0  0  0  0  0  0  0  0
   16.8072   -3.0764   -9.0309 C   0  0  0  0  0  0  0  0  0  0  0  0
   17.2973   -1.7742   -8.5860 C   0  0  0  0  0  0  0  0  0  0  0  0
   16.7129   -0.7375   -9.0592 O   0  0  0  0  0  0  0  0  0  0  0  0
   14.6027   -2.7428   -8.0143 C   0  0  0  0  0  0  0  0  0  0  0  0
   14.6654   -1.7986   -7.1794 O   0  0  0  0  0  0  0  0  0  0  0  0
   18.3377   -1.5599   -7.7017 O   0  0  0  0  0  0  0  0  0  0  0  0
   13.4509   -2.8666   -8.7454 O   0  0  0  0  0  0  0  0  0  0  0  0
  2  1  1  6
  3  2  1  0
  3  4  1  0
  4  5  2  0
  6  2  1  0
  6  7  2  0
  8  4  1  0
  9 10  1  0
 10 11  1  0
 11 13  1  0
 11 12  1  6
 13 14  1  1
 14  6  1  0
 15 13  1  0
 15 16  2  0
 17 18  1  0
 17 15  1  0
 18 19  1  6
 19 20  1  0
 20 24  1  0
 21 20  2  0
 22 18  1  0
 23 22  2  0
 25 22  1  0
M  END
$$$$
