DID.pdb
     RDKit          3D

 25 24  0  0  1  0  0  0  0  0999 V2000
   28.0081  -21.9643  -16.1302 N   0  0  0  0  0  0  0  0  0  0  0  0
   27.3374  -20.8068  -15.5794 C   0  0  1  0  0  0  0  0  0  0  0  0
   26.8157  -19.9979  -16.7672 C   0  0  0  0  0  0  0  0  0  0  0  0
   27.9641  -19.4455  -17.5294 C   0  0  0  0  0  0  0  0  0  0  0  0
   27.9634  -19.2730  -18.7752 O   0  0  0  0  0  0  0  0  0  0  0  0
   26.1895  -21.2066  -14.7248 C   0  0  0  0  0  0  0  0  0  0  0  0
   25.4304  -22.1779  -15.0566 O   0  0  0  0  0  0  0  0  0  0  0  0
   29.1039  -19.0982  -16.8379 O   0  0  0  0  0  0  0  0  0  0  0  0
   26.6127  -20.9714   -9.2789 C   0  0  0  0  0  0  0  0  0  0  0  0
   26.3319  -21.4131  -10.7133 C   0  0  0  0  0  0  0  0  0  0  0  0
   25.1306  -20.7136  -11.2104 C   0  0  2  0  0  0  0  0  0  0  0  0
   23.9301  -21.1875  -10.3796 C   0  0  0  0  0  0  0  0  0  0  0  0
   24.7812  -20.9279  -12.6401 C   0  0  2  0  0  0  0  0  0  0  0  0
   25.8730  -20.5443  -13.5093 N   0  0  0  0  0  0  0  0  0  0  0  0
   23.5498  -20.3311  -13.1091 C   0  0  0  0  0  0  0  0  0  0  0  0
   23.2767  -19.0922  -13.0784 O   0  0  0  0  0  0  0  0  0  0  0  0
   22.5454  -21.1705  -13.6532 N   0  0  0  0  0  0  0  0  0  0  0  0
   21.2870  -20.6092  -14.1627 C   0  0  1  0  0  0  0  0  0  0  0  0
   21.0073  -21.1230  -15.5340 C   0  0  0  0  0  0  0  0  0  0  0  0
   20.9827  -22.5745  -15.6975 C   0  0  0  0  0  0  0  0  0  0  0  0
   21.1211  -23.2836  -14.6402 O   0  0  0  0  0  0  0  0  0  0  0  0
   20.1839  -20.9676  -13.2313 C   0  0  0  0  0  0  0  0  0  0  0  0
   20.3163  -21.8535  -12.3425 O   0  0  0  0  0  0  0  0  0  0  0  0
   20.8262  -23.2519  -16.8920 O   0  0  0  0  0  0  0  0  0  0  0  0
   18.9734  -20.3320  -13.3169 O   0  0  0  0  0  0  0  0  0  0  0  0
  2  1  1  6
  3  2  1  0
  3  4  1  0
  4  5  2  0
  6  2  1  0
  6  7  2  0
  8  4  1  0
  9 10  1  0
 10 11  1  0
 11 13  1  0
 11 12  1  1
 13 14  1  6
 14  6  1  0
 15 13  1  0
 15 16  2  0
 17 18  1  0
 17 15  1  0
 18 19  1  6
 19 20  1  0
 20 24  1  0
 21 20  2  0
 22 18  1  0
 23 22  2  0
 25 22  1  0
M  END
$$$$
