DID.pdb
     RDKit          3D

 25 24  0  0  1  0  0  0  0  0999 V2000
   20.8922  -14.2514  -16.6250 N   0  0  0  0  0  0  0  0  0  0  0  0
   21.4488  -13.1860  -17.4300 C   0  0  1  0  0  0  0  0  0  0  0  0
   20.3091  -12.6543  -18.2994 C   0  0  0  0  0  0  0  0  0  0  0  0
   19.8297  -13.7349  -19.1979 C   0  0  0  0  0  0  0  0  0  0  0  0
   18.6282  -14.0965  -19.2839 O   0  0  0  0  0  0  0  0  0  0  0  0
   21.9637  -12.0820  -16.5792 C   0  0  0  0  0  0  0  0  0  0  0  0
   21.2911  -11.6518  -15.5831 O   0  0  0  0  0  0  0  0  0  0  0  0
   20.7502  -14.3865  -19.9892 O   0  0  0  0  0  0  0  0  0  0  0  0
   27.2980  -11.8484  -15.4663 C   0  0  0  0  0  0  0  0  0  0  0  0
   25.7725  -11.8611  -15.4023 C   0  0  0  0  0  0  0  0  0  0  0  0
   25.2559  -10.5600  -15.8712 C   0  0  2  0  0  0  0  0  0  0  0  0
   25.7425   -9.4791  -14.8961 C   0  0  0  0  0  0  0  0  0  0  0  0
   23.7775  -10.4270  -15.9647 C   0  0  2  0  0  0  0  0  0  0  0  0
   23.2126  -11.4501  -16.8184 N   0  0  0  0  0  0  0  0  0  0  0  0
   23.2602   -9.1311  -16.3461 C   0  0  0  0  0  0  0  0  0  0  0  0
   23.4518   -8.5651  -17.4657 O   0  0  0  0  0  0  0  0  0  0  0  0
   22.4709   -8.4079  -15.4168 N   0  0  0  0  0  0  0  0  0  0  0  0
   21.8913   -7.1054  -15.7714 C   0  0  1  0  0  0  0  0  0  0  0  0
   20.4183   -7.2287  -15.9664 C   0  0  0  0  0  0  0  0  0  0  0  0
   19.6917   -5.9972  -16.2658 C   0  0  0  0  0  0  0  0  0  0  0  0
   18.7647   -5.6536  -15.4517 O   0  0  0  0  0  0  0  0  0  0  0  0
   22.1993   -6.1279  -14.6933 C   0  0  0  0  0  0  0  0  0  0  0  0
   21.9878   -4.8911  -14.8273 O   0  0  0  0  0  0  0  0  0  0  0  0
   19.9129   -5.1704  -17.3510 O   0  0  0  0  0  0  0  0  0  0  0  0
   22.7303   -6.5546  -13.5047 O   0  0  0  0  0  0  0  0  0  0  0  0
  2  1  1  1
  3  2  1  0
  3  4  1  0
  4  5  2  0
  6  2  1  0
  6  7  2  0
  8  4  1  0
  9 10  1  0
 10 11  1  0
 11 13  1  0
 11 12  1  1
 13 14  1  6
 14  6  1  0
 15 13  1  0
 15 16  2  0
 17 18  1  0
 17 15  1  0
 18 19  1  1
 19 20  1  0
 20 24  1  0
 21 20  2  0
 22 18  1  0
 23 22  2  0
 25 22  1  0
M  END
$$$$
