DID.pdb
     RDKit          3D

 25 24  0  0  1  0  0  0  0  0999 V2000
   17.6717  -12.1379  -16.6054 N   0  0  0  0  0  0  0  0  0  0  0  0
   18.4114  -11.0159  -17.1411 C   0  0  1  0  0  0  0  0  0  0  0  0
   17.3758  -10.0143  -17.6530 C   0  0  0  0  0  0  0  0  0  0  0  0
   16.6701  -10.5912  -18.8251 C   0  0  0  0  0  0  0  0  0  0  0  0
   15.4469  -10.8837  -18.8353 O   0  0  0  0  0  0  0  0  0  0  0  0
   19.2361  -10.3647  -16.0906 C   0  0  0  0  0  0  0  0  0  0  0  0
   18.7706  -10.1672  -14.9184 O   0  0  0  0  0  0  0  0  0  0  0  0
   17.3913  -10.8235  -19.9757 O   0  0  0  0  0  0  0  0  0  0  0  0
   23.9213  -12.0366  -14.5947 C   0  0  0  0  0  0  0  0  0  0  0  0
   22.5397  -11.3864  -14.6055 C   0  0  0  0  0  0  0  0  0  0  0  0
   22.6586  -10.0015  -15.1027 C   0  0  2  0  0  0  0  0  0  0  0  0
   23.4629   -9.1969  -14.0723 C   0  0  0  0  0  0  0  0  0  0  0  0
   21.3862   -9.2661  -15.3309 C   0  0  2  0  0  0  0  0  0  0  0  0
   20.5680   -9.9305  -16.3228 N   0  0  0  0  0  0  0  0  0  0  0  0
   21.4918   -7.8585  -15.6472 C   0  0  0  0  0  0  0  0  0  0  0  0
   22.0155   -7.3802  -16.6995 O   0  0  0  0  0  0  0  0  0  0  0  0
   20.9782   -6.9094  -14.7279 N   0  0  0  0  0  0  0  0  0  0  0  0
   21.1338   -5.4680  -14.9653 C   0  0  1  0  0  0  0  0  0  0  0  0
   19.8026   -4.7969  -14.9740 C   0  0  0  0  0  0  0  0  0  0  0  0
   19.8018   -3.3448  -15.1332 C   0  0  0  0  0  0  0  0  0  0  0  0
   20.2548   -2.8781  -16.2364 O   0  0  0  0  0  0  0  0  0  0  0  0
   22.0058   -4.8934  -13.9059 C   0  0  0  0  0  0  0  0  0  0  0  0
   22.5536   -3.7630  -14.0266 O   0  0  0  0  0  0  0  0  0  0  0  0
   19.3583   -2.4282  -14.1986 O   0  0  0  0  0  0  0  0  0  0  0  0
   22.2400   -5.5907  -12.7502 O   0  0  0  0  0  0  0  0  0  0  0  0
  2  1  1  1
  3  2  1  0
  3  4  1  0
  4  5  2  0
  6  2  1  0
  6  7  2  0
  8  4  1  0
  9 10  1  0
 10 11  1  0
 11 13  1  0
 11 12  1  1
 13 14  1  6
 14  6  1  0
 15 13  1  0
 15 16  2  0
 17 18  1  0
 17 15  1  0
 18 19  1  1
 19 20  1  0
 20 24  1  0
 21 20  2  0
 22 18  1  0
 23 22  2  0
 25 22  1  0
M  END
$$$$
