VWH.pdb
     RDKit          3D

 32 34  0  0  1  0  0  0  0  0999 V2000
   26.0058  -19.3961  -14.9407 C   0  0  0  0  0  0  0  0  0  0  0  0
   25.4679  -20.1569  -13.7336 C   0  0  2  0  0  0  0  0  0  0  0  0
   24.2995  -19.4172  -13.1178 C   0  0  0  0  0  0  0  0  0  0  0  0
   26.5455  -20.4799  -12.7512 C   0  0  2  0  0  0  0  0  0  0  0  0
   27.5624  -21.2521  -13.4338 N   0  0  0  0  0  0  0  0  0  0  0  0
   26.0850  -21.2405  -11.5740 C   0  0  0  0  0  0  0  0  0  0  0  0
   26.0252  -22.4989  -11.6270 O   0  0  0  0  0  0  0  0  0  0  0  0
   25.7059  -20.5910  -10.3783 N   0  0  0  0  0  0  0  0  0  0  0  0
   25.1936  -21.3304   -9.2003 C   0  0  1  0  0  0  0  0  0  0  0  0
   26.2779  -21.4321   -8.2138 C   0  0  0  0  0  0  0  0  0  0  0  0
   26.7902  -20.2534   -7.5519 C   0  0  0  0  0  0  0  0  0  0  0  0
   26.6357  -18.9255   -7.8812 C   0  0  0  0  0  0  0  0  0  0  0  0
   27.2870  -18.1988   -6.9709 N   0  0  0  0  0  0  0  0  0  0  0  0
   27.8540  -18.9915   -6.0705 C   0  0  0  0  0  0  0  0  0  0  0  0
   28.6206  -18.7203   -4.9266 C   0  0  0  0  0  0  0  0  0  0  0  0
   29.0951  -19.7388   -4.1197 C   0  0  0  0  0  0  0  0  0  0  0  0
   28.8006  -21.0337   -4.4605 C   0  0  0  0  0  0  0  0  0  0  0  0
   28.0503  -21.2923   -5.5811 C   0  0  0  0  0  0  0  0  0  0  0  0
   27.5638  -20.2936   -6.4036 C   0  0  0  0  0  0  0  0  0  0  0  0
   23.8963  -20.8205   -8.8046 C   0  0  0  0  0  0  0  0  0  0  0  0
   23.5069  -19.6644   -9.2104 O   0  0  0  0  0  0  0  0  0  0  0  0
   22.9695  -21.5072   -7.9842 N   0  0  0  0  0  0  0  0  0  0  0  0
   21.5382  -21.5299   -8.3672 C   0  0  1  0  0  0  0  0  0  0  0  0
   21.4459  -22.2218   -9.7321 C   0  0  0  0  0  0  0  0  0  0  0  0
   20.0326  -22.2744  -10.1484 C   0  0  0  0  0  0  0  0  0  0  0  0
   18.9694  -21.7129   -9.4127 C   0  0  0  0  0  0  0  0  0  0  0  0
   17.8312  -21.9367  -10.0677 N   0  0  0  0  0  0  0  0  0  0  0  0
   18.1017  -22.6106  -11.1835 C   0  0  0  0  0  0  0  0  0  0  0  0
   19.4147  -22.8017  -11.2134 N   0  0  0  0  0  0  0  0  0  0  0  0
   20.8262  -22.4045   -7.4061 C   0  0  0  0  0  0  0  0  0  0  0  0
   19.4538  -22.1785   -7.1317 O   0  0  0  0  0  0  0  0  0  0  0  0
   21.3155  -23.3633   -6.7758 O   0  0  0  0  0  0  0  0  0  0  0  0
  2  1  1  6
  2  3  1  0
  4  2  1  0
  4  5  1  6
  6  4  1  0
  6  7  2  0
  8  6  1  0
  9 10  1  1
  9  8  1  0
 11 10  1  0
 11 12  2  0
 13 12  1  0
 14 13  1  0
 15 14  2  0
 16 15  1  0
 17 16  2  0
 17 18  1  0
 18 19  2  0
 19 14  1  0
 19 11  1  0
 20  9  1  0
 21 20  2  0
 22 20  1  0
 23 24  1  6
 23 22  1  0
 24 25  1  0
 25 29  1  0
 26 25  2  0
 26 27  1  0
 27 28  1  0
 29 28  2  0
 30 31  1  0
 30 23  1  0
 32 30  2  0
M  END
$$$$
