VWH.pdb
     RDKit          3D

 32 34  0  0  1  0  0  0  0  0999 V2000
   28.8419  -19.0472  -14.1424 C   0  0  0  0  0  0  0  0  0  0  0  0
   28.4702  -20.2226  -15.0400 C   0  0  2  0  0  0  0  0  0  0  0  0
   28.5815  -19.8325  -16.4984 C   0  0  0  0  0  0  0  0  0  0  0  0
   27.1394  -20.7990  -14.6834 C   0  0  2  0  0  0  0  0  0  0  0  0
   26.1180  -19.8450  -15.0614 N   0  0  0  0  0  0  0  0  0  0  0  0
   26.9808  -21.1191  -13.2520 C   0  0  0  0  0  0  0  0  0  0  0  0
   27.6393  -22.0685  -12.7470 O   0  0  0  0  0  0  0  0  0  0  0  0
   26.1031  -20.3840  -12.4247 N   0  0  0  0  0  0  0  0  0  0  0  0
   25.9205  -20.6934  -10.9867 C   0  0  1  0  0  0  0  0  0  0  0  0
   26.6592  -19.6931  -10.2036 C   0  0  0  0  0  0  0  0  0  0  0  0
   26.5086  -19.6176   -8.7678 C   0  0  0  0  0  0  0  0  0  0  0  0
   25.4090  -19.2641   -8.0184 C   0  0  0  0  0  0  0  0  0  0  0  0
   25.7468  -19.3475   -6.7301 N   0  0  0  0  0  0  0  0  0  0  0  0
   27.0094  -19.7373   -6.6106 C   0  0  0  0  0  0  0  0  0  0  0  0
   27.8164  -19.9855   -5.4895 C   0  0  0  0  0  0  0  0  0  0  0  0
   29.1261  -20.4098   -5.6247 C   0  0  0  0  0  0  0  0  0  0  0  0
   29.6291  -20.5856   -6.8880 C   0  0  0  0  0  0  0  0  0  0  0  0
   28.8344  -20.3407   -7.9807 C   0  0  0  0  0  0  0  0  0  0  0  0
   27.5231  -19.9168   -7.8733 C   0  0  0  0  0  0  0  0  0  0  0  0
   24.5259  -20.9585  -10.6966 C   0  0  0  0  0  0  0  0  0  0  0  0
   23.6037  -20.3604  -11.3636 O   0  0  0  0  0  0  0  0  0  0  0  0
   24.0585  -21.8602   -9.7107 N   0  0  0  0  0  0  0  0  0  0  0  0
   22.6000  -22.0629   -9.5450 C   0  0  1  0  0  0  0  0  0  0  0  0
   22.3633  -22.4786   -8.0885 C   0  0  0  0  0  0  0  0  0  0  0  0
   20.9253  -22.7367   -7.8911 C   0  0  0  0  0  0  0  0  0  0  0  0
   19.9592  -22.6574   -8.9144 C   0  0  0  0  0  0  0  0  0  0  0  0
   18.7660  -22.9501   -8.3994 N   0  0  0  0  0  0  0  0  0  0  0  0
   18.9095  -23.2134   -7.1024 C   0  0  0  0  0  0  0  0  0  0  0  0
   20.1995  -23.0813   -6.8195 N   0  0  0  0  0  0  0  0  0  0  0  0
   21.9377  -20.7487   -9.7175 C   0  0  0  0  0  0  0  0  0  0  0  0
   20.7316  -20.6597  -10.4572 O   0  0  0  0  0  0  0  0  0  0  0  0
   22.3363  -19.6551   -9.2689 O   0  0  0  0  0  0  0  0  0  0  0  0
  2  1  1  1
  2  3  1  0
  4  2  1  0
  4  5  1  1
  6  4  1  0
  6  7  2  0
  8  6  1  0
  9 10  1  1
  9  8  1  0
 11 10  1  0
 11 12  2  0
 13 12  1  0
 14 13  1  0
 15 14  2  0
 16 15  1  0
 17 16  2  0
 17 18  1  0
 18 19  2  0
 19 14  1  0
 19 11  1  0
 20  9  1  0
 21 20  2  0
 22 20  1  0
 23 24  1  1
 23 22  1  0
 24 25  1  0
 25 29  1  0
 26 25  2  0
 26 27  1  0
 27 28  1  0
 29 28  2  0
 30 31  1  0
 30 23  1  0
 32 30  2  0
M  END
$$$$
