VWH.pdb
     RDKit          3D

 32 34  0  0  1  0  0  0  0  0999 V2000
   20.6259  -12.5002  -18.9050 C   0  0  0  0  0  0  0  0  0  0  0  0
   21.6651  -11.6479  -19.6252 C   0  0  2  0  0  0  0  0  0  0  0  0
   22.6605  -12.5266  -20.3521 C   0  0  0  0  0  0  0  0  0  0  0  0
   22.3093  -10.6597  -18.7092 C   0  0  2  0  0  0  0  0  0  0  0  0
   23.1993  -11.3792  -17.8224 N   0  0  0  0  0  0  0  0  0  0  0  0
   21.3592   -9.8790  -17.8942 C   0  0  0  0  0  0  0  0  0  0  0  0
   20.5237   -9.1233  -18.4604 O   0  0  0  0  0  0  0  0  0  0  0  0
   21.3606   -9.9561  -16.4837 N   0  0  0  0  0  0  0  0  0  0  0  0
   20.4640   -9.1289  -15.6418 C   0  0  1  0  0  0  0  0  0  0  0  0
   19.5551  -10.0278  -14.9170 C   0  0  0  0  0  0  0  0  0  0  0  0
   18.4429  -10.6584  -15.5916 C   0  0  0  0  0  0  0  0  0  0  0  0
   18.3353  -11.9321  -16.1033 C   0  0  0  0  0  0  0  0  0  0  0  0
   17.1158  -12.0608  -16.6298 N   0  0  0  0  0  0  0  0  0  0  0  0
   16.4310  -10.9338  -16.4833 C   0  0  0  0  0  0  0  0  0  0  0  0
   15.1242  -10.5720  -16.8454 C   0  0  0  0  0  0  0  0  0  0  0  0
   14.6207   -9.3149  -16.5629 C   0  0  0  0  0  0  0  0  0  0  0  0
   15.4297   -8.4170  -15.9155 C   0  0  0  0  0  0  0  0  0  0  0  0
   16.7074   -8.7772  -15.5643 C   0  0  0  0  0  0  0  0  0  0  0  0
   17.2345  -10.0263  -15.8341 C   0  0  0  0  0  0  0  0  0  0  0  0
   21.2238   -8.1277  -14.9210 C   0  0  0  0  0  0  0  0  0  0  0  0
   22.3429   -8.4402  -14.3706 O   0  0  0  0  0  0  0  0  0  0  0  0
   20.8404   -6.7741  -14.7644 N   0  0  0  0  0  0  0  0  0  0  0  0
   21.7484   -5.8392  -14.0592 C   0  0  1  0  0  0  0  0  0  0  0  0
   22.9954   -5.6721  -14.9352 C   0  0  0  0  0  0  0  0  0  0  0  0
   22.6386   -4.8910  -16.1334 C   0  0  0  0  0  0  0  0  0  0  0  0
   22.5628   -5.4279  -17.4346 C   0  0  0  0  0  0  0  0  0  0  0  0
   22.2152   -4.4570  -18.2780 N   0  0  0  0  0  0  0  0  0  0  0  0
   22.0629   -3.3256  -17.5932 C   0  0  0  0  0  0  0  0  0  0  0  0
   22.3188   -3.6039  -16.3210 N   0  0  0  0  0  0  0  0  0  0  0  0
   21.0879   -4.5135  -14.0151 C   0  0  0  0  0  0  0  0  0  0  0  0
   21.6629   -3.4654  -13.2531 O   0  0  0  0  0  0  0  0  0  0  0  0
   20.0313   -4.1939  -14.5960 O   0  0  0  0  0  0  0  0  0  0  0  0
  2  1  1  1
  2  3  1  0
  4  2  1  0
  4  5  1  1
  6  4  1  0
  6  7  2  0
  8  6  1  0
  9 10  1  1
  9  8  1  0
 11 10  1  0
 11 12  2  0
 13 12  1  0
 14 13  1  0
 15 14  2  0
 16 15  1  0
 17 16  2  0
 17 18  1  0
 18 19  2  0
 19 14  1  0
 19 11  1  0
 20  9  1  0
 21 20  2  0
 22 20  1  0
 23 24  1  6
 23 22  1  0
 24 25  1  0
 25 29  1  0
 26 25  2  0
 26 27  1  0
 27 28  1  0
 29 28  2  0
 30 31  1  0
 30 23  1  0
 32 30  2  0
M  END
$$$$
