VWH.pdb
     RDKit          3D

 32 34  0  0  1  0  0  0  0  0999 V2000
   29.1482  -20.3006  -15.5187 C   0  0  0  0  0  0  0  0  0  0  0  0
   28.3535  -21.0737  -14.4718 C   0  0  2  0  0  0  0  0  0  0  0  0
   28.6116  -22.5598  -14.6005 C   0  0  0  0  0  0  0  0  0  0  0  0
   26.9022  -20.7225  -14.5004 C   0  0  2  0  0  0  0  0  0  0  0  0
   26.7872  -19.2933  -14.7016 N   0  0  0  0  0  0  0  0  0  0  0  0
   26.1653  -21.0882  -13.2758 C   0  0  0  0  0  0  0  0  0  0  0  0
   25.8414  -22.2904  -13.0765 O   0  0  0  0  0  0  0  0  0  0  0  0
   25.8097  -20.1190  -12.3117 N   0  0  0  0  0  0  0  0  0  0  0  0
   25.0598  -20.4613  -11.0799 C   0  0  1  0  0  0  0  0  0  0  0  0
   25.7478  -19.8458   -9.9366 C   0  0  0  0  0  0  0  0  0  0  0  0
   26.9953  -20.3857   -9.4444 C   0  0  0  0  0  0  0  0  0  0  0  0
   27.9347  -21.1553  -10.0932 C   0  0  0  0  0  0  0  0  0  0  0  0
   28.9225  -21.4087   -9.2324 N   0  0  0  0  0  0  0  0  0  0  0  0
   28.6677  -20.8408   -8.0607 C   0  0  0  0  0  0  0  0  0  0  0  0
   29.3889  -20.7995   -6.8574 C   0  0  0  0  0  0  0  0  0  0  0  0
   28.9122  -20.1123   -5.7554 C   0  0  0  0  0  0  0  0  0  0  0  0
   27.7083  -19.4645   -5.8596 C   0  0  0  0  0  0  0  0  0  0  0  0
   27.0075  -19.5091   -7.0397 C   0  0  0  0  0  0  0  0  0  0  0  0
   27.4614  -20.1877   -8.1552 C   0  0  0  0  0  0  0  0  0  0  0  0
   23.6396  -20.2492  -11.2736 C   0  0  0  0  0  0  0  0  0  0  0  0
   23.2269  -19.2711  -11.9989 O   0  0  0  0  0  0  0  0  0  0  0  0
   22.6153  -21.0568  -10.7238 N   0  0  0  0  0  0  0  0  0  0  0  0
   21.3120  -21.1520  -11.4224 C   0  0  1  0  0  0  0  0  0  0  0  0
   21.5549  -21.9101  -12.7325 C   0  0  0  0  0  0  0  0  0  0  0  0
   20.2981  -21.9529  -13.5020 C   0  0  0  0  0  0  0  0  0  0  0  0
   19.4693  -20.8351  -13.7267 C   0  0  0  0  0  0  0  0  0  0  0  0
   18.4223  -21.2189  -14.4555 N   0  0  0  0  0  0  0  0  0  0  0  0
   18.5304  -22.5206  -14.7126 C   0  0  0  0  0  0  0  0  0  0  0  0
   19.6512  -22.9385  -14.1377 N   0  0  0  0  0  0  0  0  0  0  0  0
   20.4209  -22.0072  -10.6037 C   0  0  0  0  0  0  0  0  0  0  0  0
   19.0158  -21.9269  -10.7747 O   0  0  0  0  0  0  0  0  0  0  0  0
   20.7773  -22.8294   -9.7360 O   0  0  0  0  0  0  0  0  0  0  0  0
  2  1  1  6
  2  3  1  0
  4  2  1  0
  4  5  1  1
  6  4  1  0
  6  7  2  0
  8  6  1  0
  9 10  1  1
  9  8  1  0
 11 10  1  0
 11 12  2  0
 13 12  1  0
 14 13  1  0
 15 14  2  0
 16 15  1  0
 17 16  2  0
 17 18  1  0
 18 19  2  0
 19 14  1  0
 19 11  1  0
 20  9  1  0
 21 20  2  0
 22 20  1  0
 23 24  1  6
 23 22  1  0
 24 25  1  0
 25 29  1  0
 26 25  2  0
 26 27  1  0
 27 28  1  0
 29 28  2  0
 30 31  1  0
 30 23  1  0
 32 30  2  0
M  END
$$$$
