VWH.pdb
     RDKit          3D

 32 34  0  0  1  0  0  0  0  0999 V2000
   16.4885  -28.4614   -4.1563 C   0  0  0  0  0  0  0  0  0  0  0  0
   15.5323  -27.3191   -4.4820 C   0  0  2  0  0  0  0  0  0  0  0  0
   15.2672  -27.2572   -5.9711 C   0  0  0  0  0  0  0  0  0  0  0  0
   15.9987  -26.0201   -3.9114 C   0  0  2  0  0  0  0  0  0  0  0  0
   17.1882  -25.6125   -4.6293 N   0  0  0  0  0  0  0  0  0  0  0  0
   16.3095  -26.0673   -2.4700 C   0  0  0  0  0  0  0  0  0  0  0  0
   17.5109  -26.0372   -2.0882 O   0  0  0  0  0  0  0  0  0  0  0  0
   15.2882  -26.1461   -1.4975 N   0  0  0  0  0  0  0  0  0  0  0  0
   15.5691  -26.0849   -0.0434 C   0  0  1  0  0  0  0  0  0  0  0  0
   14.7220  -25.0381    0.5450 C   0  0  0  0  0  0  0  0  0  0  0  0
   15.0297  -23.6392    0.3496 C   0  0  0  0  0  0  0  0  0  0  0  0
   15.1149  -22.9146   -0.8180 C   0  0  0  0  0  0  0  0  0  0  0  0
   15.4208  -21.6557   -0.4979 N   0  0  0  0  0  0  0  0  0  0  0  0
   15.5369  -21.5316    0.8180 C   0  0  0  0  0  0  0  0  0  0  0  0
   15.8247  -20.4298    1.6383 C   0  0  0  0  0  0  0  0  0  0  0  0
   15.8744  -20.5510    3.0155 C   0  0  0  0  0  0  0  0  0  0  0  0
   15.6352  -21.7808    3.5725 C   0  0  0  0  0  0  0  0  0  0  0  0
   15.3546  -22.8548    2.7642 C   0  0  0  0  0  0  0  0  0  0  0  0
   15.2983  -22.7607    1.3863 C   0  0  0  0  0  0  0  0  0  0  0  0
   15.5823  -27.4161    0.5285 C   0  0  0  0  0  0  0  0  0  0  0  0
   14.5919  -28.2121    0.3319 O   0  0  0  0  0  0  0  0  0  0  0  0
   16.6321  -27.9535    1.3113 N   0  0  0  0  0  0  0  0  0  0  0  0
   16.5607  -29.3671    1.7498 C   0  0  1  0  0  0  0  0  0  0  0  0
   17.9969  -29.9020    1.7890 C   0  0  0  0  0  0  0  0  0  0  0  0
   18.4302  -30.2136    0.4147 C   0  0  0  0  0  0  0  0  0  0  0  0
   17.5805  -30.7276   -0.5857 C   0  0  0  0  0  0  0  0  0  0  0  0
   18.2867  -30.8921   -1.7033 N   0  0  0  0  0  0  0  0  0  0  0  0
   19.5430  -30.5130   -1.4787 C   0  0  0  0  0  0  0  0  0  0  0  0
   19.6081  -30.1132   -0.2148 N   0  0  0  0  0  0  0  0  0  0  0  0
   16.0702  -29.3834    3.1479 C   0  0  0  0  0  0  0  0  0  0  0  0
   15.9351  -30.6175    3.8324 O   0  0  0  0  0  0  0  0  0  0  0  0
   15.7430  -28.3905    3.8285 O   0  0  0  0  0  0  0  0  0  0  0  0
  2  1  1  6
  2  3  1  0
  4  2  1  0
  4  5  1  6
  6  4  1  0
  6  7  2  0
  8  6  1  0
  9 10  1  1
  9  8  1  0
 11 10  1  0
 11 12  2  0
 13 12  1  0
 14 13  1  0
 15 14  2  0
 16 15  1  0
 17 16  2  0
 17 18  1  0
 18 19  2  0
 19 14  1  0
 19 11  1  0
 20  9  1  0
 21 20  2  0
 22 20  1  0
 23 24  1  1
 23 22  1  0
 24 25  1  0
 25 29  1  0
 26 25  2  0
 26 27  1  0
 27 28  1  0
 29 28  2  0
 30 31  1  0
 30 23  1  0
 32 30  2  0
M  END
$$$$
