VWH.pdb
     RDKit          3D

 32 34  0  0  1  0  0  0  0  0999 V2000
   23.9335  -19.9028   -8.4364 C   0  0  0  0  0  0  0  0  0  0  0  0
   25.0740  -20.9149   -8.4372 C   0  0  2  0  0  0  0  0  0  0  0  0
   25.5901  -21.1339   -7.0310 C   0  0  0  0  0  0  0  0  0  0  0  0
   26.1470  -20.5468   -9.4087 C   0  0  2  0  0  0  0  0  0  0  0  0
   26.8690  -19.4108   -8.8752 N   0  0  0  0  0  0  0  0  0  0  0  0
   25.6538  -20.2032  -10.7559 C   0  0  0  0  0  0  0  0  0  0  0  0
   25.4148  -18.9996  -11.0460 O   0  0  0  0  0  0  0  0  0  0  0  0
   25.4401  -21.1954  -11.7384 N   0  0  0  0  0  0  0  0  0  0  0  0
   24.9092  -20.8784  -13.0855 C   0  0  1  0  0  0  0  0  0  0  0  0
   25.8810  -21.3447  -14.0842 C   0  0  0  0  0  0  0  0  0  0  0  0
   27.1400  -20.6588  -14.2696 C   0  0  0  0  0  0  0  0  0  0  0  0
   28.3707  -20.9174  -13.7090 C   0  0  0  0  0  0  0  0  0  0  0  0
   29.2349  -20.0187  -14.1848 N   0  0  0  0  0  0  0  0  0  0  0  0
   28.6235  -19.1933  -15.0246 C   0  0  0  0  0  0  0  0  0  0  0  0
   29.0880  -18.1090  -15.7850 C   0  0  0  0  0  0  0  0  0  0  0  0
   28.2423  -17.3991  -16.6184 C   0  0  0  0  0  0  0  0  0  0  0  0
   26.9262  -17.7769  -16.6897 C   0  0  0  0  0  0  0  0  0  0  0  0
   26.4780  -18.8385  -15.9428 C   0  0  0  0  0  0  0  0  0  0  0  0
   27.3019  -19.5645  -15.1032 C   0  0  0  0  0  0  0  0  0  0  0  0
   23.5175  -21.2681  -13.1883 C   0  0  0  0  0  0  0  0  0  0  0  0
   22.9191  -21.7940  -12.1792 O   0  0  0  0  0  0  0  0  0  0  0  0
   22.7130  -21.1105  -14.3422 N   0  0  0  0  0  0  0  0  0  0  0  0
   21.3469  -20.5531  -14.2044 C   0  0  1  0  0  0  0  0  0  0  0  0
   21.4947  -19.1090  -13.7115 C   0  0  0  0  0  0  0  0  0  0  0  0
   20.1594  -18.4888  -13.6367 C   0  0  0  0  0  0  0  0  0  0  0  0
   19.0258  -19.1153  -13.0804 C   0  0  0  0  0  0  0  0  0  0  0  0
   17.9898  -18.2828  -13.1707 N   0  0  0  0  0  0  0  0  0  0  0  0
   18.3925  -17.1557  -13.7537 C   0  0  0  0  0  0  0  0  0  0  0  0
   19.6843  -17.2976  -14.0229 N   0  0  0  0  0  0  0  0  0  0  0  0
   20.7516  -20.4736  -15.5590 C   0  0  0  0  0  0  0  0  0  0  0  0
   19.3958  -20.8390  -15.7548 O   0  0  0  0  0  0  0  0  0  0  0  0
   21.3309  -20.1073  -16.6012 O   0  0  0  0  0  0  0  0  0  0  0  0
  2  1  1  1
  2  3  1  0
  4  2  1  0
  4  5  1  1
  6  4  1  0
  6  7  2  0
  8  6  1  0
  9 10  1  6
  9  8  1  0
 11 10  1  0
 11 12  2  0
 13 12  1  0
 14 13  1  0
 15 14  2  0
 16 15  1  0
 17 16  2  0
 17 18  1  0
 18 19  2  0
 19 14  1  0
 19 11  1  0
 20  9  1  0
 21 20  2  0
 22 20  1  0
 23 24  1  6
 23 22  1  0
 24 25  1  0
 25 29  1  0
 26 25  2  0
 26 27  1  0
 27 28  1  0
 29 28  2  0
 30 31  1  0
 30 23  1  0
 32 30  2  0
M  END
$$$$
