VWH.pdb
     RDKit          3D

 32 34  0  0  1  0  0  0  0  0999 V2000
   21.6313  -13.3364  -16.1742 C   0  0  0  0  0  0  0  0  0  0  0  0
   20.1780  -13.6372  -16.5245 C   0  0  2  0  0  0  0  0  0  0  0  0
   19.8321  -15.0678  -16.1703 C   0  0  0  0  0  0  0  0  0  0  0  0
   19.8607  -13.2870  -17.9412 C   0  0  2  0  0  0  0  0  0  0  0  0
   20.5636  -14.2134  -18.8038 N   0  0  0  0  0  0  0  0  0  0  0  0
   20.2311  -11.9111  -18.3236 C   0  0  0  0  0  0  0  0  0  0  0  0
   21.3555  -11.6896  -18.8494 O   0  0  0  0  0  0  0  0  0  0  0  0
   19.3518  -10.8255  -18.1145 N   0  0  0  0  0  0  0  0  0  0  0  0
   19.7229   -9.4282  -18.4412 C   0  0  1  0  0  0  0  0  0  0  0  0
   18.9818   -9.0248  -19.6443 C   0  0  0  0  0  0  0  0  0  0  0  0
   19.5014   -9.3063  -20.9637 C   0  0  0  0  0  0  0  0  0  0  0  0
   20.2232  -10.3908  -21.4092 C   0  0  0  0  0  0  0  0  0  0  0  0
   20.4755  -10.2103  -22.7071 N   0  0  0  0  0  0  0  0  0  0  0  0
   19.9523   -9.0635  -23.1215 C   0  0  0  0  0  0  0  0  0  0  0  0
   19.9287   -8.4387  -24.3780 C   0  0  0  0  0  0  0  0  0  0  0  0
   19.2905   -7.2260  -24.5673 C   0  0  0  0  0  0  0  0  0  0  0  0
   18.6741   -6.6372  -23.4933 C   0  0  0  0  0  0  0  0  0  0  0  0
   18.7012   -7.2536  -22.2666 C   0  0  0  0  0  0  0  0  0  0  0  0
   19.3311   -8.4650  -22.0508 C   0  0  0  0  0  0  0  0  0  0  0  0
   19.6846   -8.6007  -17.2524 C   0  0  0  0  0  0  0  0  0  0  0  0
   18.6587   -8.6317  -16.4781 O   0  0  0  0  0  0  0  0  0  0  0  0
   20.7186   -7.7279  -16.8367 N   0  0  0  0  0  0  0  0  0  0  0  0
   20.5123   -6.8744  -15.6431 C   0  0  1  0  0  0  0  0  0  0  0  0
   21.7826   -6.9738  -14.7906 C   0  0  0  0  0  0  0  0  0  0  0  0
   21.8885   -8.3395  -14.2454 C   0  0  0  0  0  0  0  0  0  0  0  0
   20.9829   -9.3800  -14.5355 C   0  0  0  0  0  0  0  0  0  0  0  0
   21.3688  -10.4765  -13.8848 N   0  0  0  0  0  0  0  0  0  0  0  0
   22.4718  -10.2005  -13.1922 C   0  0  0  0  0  0  0  0  0  0  0  0
   22.7646   -8.9261  -13.4194 N   0  0  0  0  0  0  0  0  0  0  0  0
   20.4256   -5.4681  -16.1016 C   0  0  0  0  0  0  0  0  0  0  0  0
   20.2128   -4.4317  -15.1579 O   0  0  0  0  0  0  0  0  0  0  0  0
   20.5198   -5.0668  -17.2789 O   0  0  0  0  0  0  0  0  0  0  0  0
  2  1  1  6
  2  3  1  0
  4  2  1  0
  4  5  1  6
  6  4  1  0
  6  7  2  0
  8  6  1  0
  9 10  1  6
  9  8  1  0
 11 10  1  0
 11 12  2  0
 13 12  1  0
 14 13  1  0
 15 14  2  0
 16 15  1  0
 17 16  2  0
 17 18  1  0
 18 19  2  0
 19 14  1  0
 19 11  1  0
 20  9  1  0
 21 20  2  0
 22 20  1  0
 23 24  1  1
 23 22  1  0
 24 25  1  0
 25 29  1  0
 26 25  2  0
 26 27  1  0
 27 28  1  0
 29 28  2  0
 30 31  1  0
 30 23  1  0
 32 30  2  0
M  END
$$$$
