VWH.pdb
     RDKit          3D

 32 34  0  0  1  0  0  0  0  0999 V2000
   29.1895  -18.4547  -15.5741 C   0  0  0  0  0  0  0  0  0  0  0  0
   29.3842  -19.5798  -16.5849 C   0  0  2  0  0  0  0  0  0  0  0  0
   29.8296  -19.0224  -17.9200 C   0  0  0  0  0  0  0  0  0  0  0  0
   28.1793  -20.4566  -16.6841 C   0  0  2  0  0  0  0  0  0  0  0  0
   27.1355  -19.7151  -17.3602 N   0  0  0  0  0  0  0  0  0  0  0  0
   27.6608  -20.9244  -15.3845 C   0  0  0  0  0  0  0  0  0  0  0  0
   28.2832  -21.8172  -14.7479 O   0  0  0  0  0  0  0  0  0  0  0  0
   26.4751  -20.3941  -14.8294 N   0  0  0  0  0  0  0  0  0  0  0  0
   25.9585  -20.8178  -13.5063 C   0  0  1  0  0  0  0  0  0  0  0  0
   26.6194  -20.0078  -12.4735 C   0  0  0  0  0  0  0  0  0  0  0  0
   26.2907  -20.1775  -11.0760 C   0  0  0  0  0  0  0  0  0  0  0  0
   25.0830  -20.0212  -10.4336 C   0  0  0  0  0  0  0  0  0  0  0  0
   25.2685  -20.2924   -9.1402 N   0  0  0  0  0  0  0  0  0  0  0  0
   26.5354  -20.6162   -8.9159 C   0  0  0  0  0  0  0  0  0  0  0  0
   27.2189  -20.9928   -7.7494 C   0  0  0  0  0  0  0  0  0  0  0  0
   28.5662  -21.3058   -7.7735 C   0  0  0  0  0  0  0  0  0  0  0  0
   29.2310  -21.2408   -8.9708 C   0  0  0  0  0  0  0  0  0  0  0  0
   28.5565  -20.8713  -10.1084 C   0  0  0  0  0  0  0  0  0  0  0  0
   27.2110  -20.5542  -10.1118 C   0  0  0  0  0  0  0  0  0  0  0  0
   24.5135  -20.9219  -13.5342 C   0  0  0  0  0  0  0  0  0  0  0  0
   23.8034  -19.9294  -13.9386 O   0  0  0  0  0  0  0  0  0  0  0  0
   23.7741  -22.0662  -13.1503 N   0  0  0  0  0  0  0  0  0  0  0  0
   22.2973  -22.0509  -13.2716 C   0  0  1  0  0  0  0  0  0  0  0  0
   21.7904  -23.4198  -12.8031 C   0  0  0  0  0  0  0  0  0  0  0  0
   20.3413  -23.5078  -13.0593 C   0  0  0  0  0  0  0  0  0  0  0  0
   19.7776  -23.9446  -14.2752 C   0  0  0  0  0  0  0  0  0  0  0  0
   18.4502  -23.9044  -14.1698 N   0  0  0  0  0  0  0  0  0  0  0  0
   18.1277  -23.4663  -12.9547 C   0  0  0  0  0  0  0  0  0  0  0  0
   19.2648  -23.2362  -12.3101 N   0  0  0  0  0  0  0  0  0  0  0  0
   21.7739  -21.0579  -12.3044 C   0  0  0  0  0  0  0  0  0  0  0  0
   20.6930  -20.2180  -12.6730 O   0  0  0  0  0  0  0  0  0  0  0  0
   22.1937  -20.8609  -11.1464 O   0  0  0  0  0  0  0  0  0  0  0  0
  2  1  1  1
  2  3  1  0
  4  2  1  0
  4  5  1  1
  6  4  1  0
  6  7  2  0
  8  6  1  0
  9 10  1  1
  9  8  1  0
 11 10  1  0
 11 12  2  0
 13 12  1  0
 14 13  1  0
 15 14  2  0
 16 15  1  0
 17 16  2  0
 17 18  1  0
 18 19  2  0
 19 14  1  0
 19 11  1  0
 20  9  1  0
 21 20  2  0
 22 20  1  0
 23 24  1  1
 23 22  1  0
 24 25  1  0
 25 29  1  0
 26 25  2  0
 26 27  1  0
 27 28  1  0
 29 28  2  0
 30 31  1  0
 30 23  1  0
 32 30  2  0
M  END
$$$$
