VWH.pdb
     RDKit          3D

 32 34  0  0  1  0  0  0  0  0999 V2000
   26.4262  -18.9545  -15.2917 C   0  0  0  0  0  0  0  0  0  0  0  0
   27.8506  -19.1340  -14.7779 C   0  0  2  0  0  0  0  0  0  0  0  0
   28.8523  -18.7528  -15.8470 C   0  0  0  0  0  0  0  0  0  0  0  0
   28.0751  -20.5010  -14.2198 C   0  0  2  0  0  0  0  0  0  0  0  0
   27.8207  -21.4650  -15.2698 N   0  0  0  0  0  0  0  0  0  0  0  0
   27.2248  -20.8299  -13.0600 C   0  0  0  0  0  0  0  0  0  0  0  0
   26.1893  -21.5307  -13.2227 O   0  0  0  0  0  0  0  0  0  0  0  0
   27.5426  -20.3768  -11.7604 N   0  0  0  0  0  0  0  0  0  0  0  0
   26.6688  -20.6380  -10.5920 C   0  0  1  0  0  0  0  0  0  0  0  0
   27.4090  -20.2787   -9.3745 C   0  0  0  0  0  0  0  0  0  0  0  0
   26.7985  -20.4089   -8.0706 C   0  0  0  0  0  0  0  0  0  0  0  0
   25.5622  -20.9080   -7.7268 C   0  0  0  0  0  0  0  0  0  0  0  0
   25.4429  -20.8295   -6.3999 N   0  0  0  0  0  0  0  0  0  0  0  0
   26.5404  -20.3048   -5.8703 C   0  0  0  0  0  0  0  0  0  0  0  0
   26.9090  -20.0332   -4.5436 C   0  0  0  0  0  0  0  0  0  0  0  0
   28.1426  -19.4879   -4.2362 C   0  0  0  0  0  0  0  0  0  0  0  0
   29.0098  -19.2133   -5.2620 C   0  0  0  0  0  0  0  0  0  0  0  0
   28.6430  -19.4811   -6.5579 C   0  0  0  0  0  0  0  0  0  0  0  0
   27.4174  -20.0261   -6.8921 C   0  0  0  0  0  0  0  0  0  0  0  0
   25.3415  -20.1034  -10.8200 C   0  0  0  0  0  0  0  0  0  0  0  0
   25.1747  -19.1121  -11.6215 O   0  0  0  0  0  0  0  0  0  0  0  0
   24.1546  -20.5951  -10.2256 N   0  0  0  0  0  0  0  0  0  0  0  0
   22.8628  -20.4188  -10.9299 C   0  0  1  0  0  0  0  0  0  0  0  0
   22.8908  -21.3306  -12.1619 C   0  0  0  0  0  0  0  0  0  0  0  0
   23.0527  -20.5004  -13.3693 C   0  0  0  0  0  0  0  0  0  0  0  0
   23.1588  -19.0949  -13.3550 C   0  0  0  0  0  0  0  0  0  0  0  0
   23.2956  -18.6638  -14.6081 N   0  0  0  0  0  0  0  0  0  0  0  0
   23.2836  -19.7124  -15.4281 C   0  0  0  0  0  0  0  0  0  0  0  0
   23.1384  -20.7943  -14.6733 N   0  0  0  0  0  0  0  0  0  0  0  0
   21.7918  -20.9397  -10.0483 C   0  0  0  0  0  0  0  0  0  0  0  0
   20.4717  -20.4378  -10.1720 O   0  0  0  0  0  0  0  0  0  0  0  0
   21.9199  -21.8098   -9.1637 O   0  0  0  0  0  0  0  0  0  0  0  0
  2  1  1  6
  2  3  1  0
  4  2  1  0
  4  5  1  6
  6  4  1  0
  6  7  2  0
  8  6  1  0
  9 10  1  1
  9  8  1  0
 11 10  1  0
 11 12  2  0
 13 12  1  0
 14 13  1  0
 15 14  2  0
 16 15  1  0
 17 16  2  0
 17 18  1  0
 18 19  2  0
 19 14  1  0
 19 11  1  0
 20  9  1  0
 21 20  2  0
 22 20  1  0
 23 24  1  6
 23 22  1  0
 24 25  1  0
 25 29  1  0
 26 25  2  0
 26 27  1  0
 27 28  1  0
 29 28  2  0
 30 31  1  0
 30 23  1  0
 32 30  2  0
M  END
$$$$
