VWH.pdb
     RDKit          3D

 32 34  0  0  1  0  0  0  0  0999 V2000
   21.2775  -26.8415  -16.1474 C   0  0  0  0  0  0  0  0  0  0  0  0
   21.8526  -26.2798  -14.8517 C   0  0  2  0  0  0  0  0  0  0  0  0
   20.7519  -26.0515  -13.8377 C   0  0  0  0  0  0  0  0  0  0  0  0
   22.6935  -25.0692  -15.0921 C   0  0  2  0  0  0  0  0  0  0  0  0
   21.8242  -23.9930  -15.5192 N   0  0  0  0  0  0  0  0  0  0  0  0
   23.7488  -25.2552  -16.1060 C   0  0  0  0  0  0  0  0  0  0  0  0
   23.5145  -24.9705  -17.3118 O   0  0  0  0  0  0  0  0  0  0  0  0
   25.0263  -25.7481  -15.7591 N   0  0  0  0  0  0  0  0  0  0  0  0
   26.0791  -26.0081  -16.7696 C   0  0  1  0  0  0  0  0  0  0  0  0
   27.2910  -25.2801  -16.3689 C   0  0  0  0  0  0  0  0  0  0  0  0
   28.4668  -25.2792  -17.2100 C   0  0  0  0  0  0  0  0  0  0  0  0
   28.8868  -24.3445  -18.1296 C   0  0  0  0  0  0  0  0  0  0  0  0
   30.0344  -24.7752  -18.6571 N   0  0  0  0  0  0  0  0  0  0  0  0
   30.3762  -25.9410  -18.1237 C   0  0  0  0  0  0  0  0  0  0  0  0
   31.4816  -26.7816  -18.3265 C   0  0  0  0  0  0  0  0  0  0  0  0
   31.6264  -27.9633  -17.6220 C   0  0  0  0  0  0  0  0  0  0  0  0
   30.6597  -28.3041  -16.7114 C   0  0  0  0  0  0  0  0  0  0  0  0
   29.5805  -27.4774  -16.5180 C   0  0  0  0  0  0  0  0  0  0  0  0
   29.4122  -26.2915  -17.2080 C   0  0  0  0  0  0  0  0  0  0  0  0
   26.1492  -27.4220  -17.0787 C   0  0  0  0  0  0  0  0  0  0  0  0
   25.8102  -28.2926  -16.1954 O   0  0  0  0  0  0  0  0  0  0  0  0
   26.5654  -27.9626  -18.3189 N   0  0  0  0  0  0  0  0  0  0  0  0
   26.6195  -29.4337  -18.4882 C   0  0  1  0  0  0  0  0  0  0  0  0
   25.6592  -30.0433  -17.4604 C   0  0  0  0  0  0  0  0  0  0  0  0
   26.4238  -30.9097  -16.5448 C   0  0  0  0  0  0  0  0  0  0  0  0
   27.8255  -31.0546  -16.5780 C   0  0  0  0  0  0  0  0  0  0  0  0
   28.1901  -31.9054  -15.6199 N   0  0  0  0  0  0  0  0  0  0  0  0
   27.1022  -32.3163  -14.9719 C   0  0  0  0  0  0  0  0  0  0  0  0
   26.0630  -31.7136  -15.5361 N   0  0  0  0  0  0  0  0  0  0  0  0
   26.0632  -29.7566  -19.8231 C   0  0  0  0  0  0  0  0  0  0  0  0
   26.3003  -31.0319  -20.3951 O   0  0  0  0  0  0  0  0  0  0  0  0
   25.3782  -29.0010  -20.5414 O   0  0  0  0  0  0  0  0  0  0  0  0
  2  1  1  6
  2  3  1  0
  4  2  1  0
  4  5  1  6
  6  4  1  0
  6  7  2  0
  8  6  1  0
  9 10  1  1
  9  8  1  0
 11 10  1  0
 11 12  2  0
 13 12  1  0
 14 13  1  0
 15 14  2  0
 16 15  1  0
 17 16  2  0
 17 18  1  0
 18 19  2  0
 19 14  1  0
 19 11  1  0
 20  9  1  0
 21 20  2  0
 22 20  1  0
 23 24  1  1
 23 22  1  0
 24 25  1  0
 25 29  1  0
 26 25  2  0
 26 27  1  0
 27 28  1  0
 29 28  2  0
 30 31  1  0
 30 23  1  0
 32 30  2  0
M  END
$$$$
