TNK.pdb
     RDKit          3D

 25 24  0  0  1  0  0  0  0  0999 V2000
  152.0932   46.9348    2.3212 C   0  0  0  0  0  0  0  0  0  0  0  0
  153.1297   46.0188    2.9241 C   0  0  1  0  0  0  0  0  0  0  0  0
  152.4839   44.7842    3.1768 O   0  0  0  0  0  0  0  0  0  0  0  0
  154.3121   45.7874    1.9934 C   0  0  2  0  0  0  0  0  0  0  0  0
  153.9224   46.3560    0.6906 N   0  0  0  0  0  0  0  0  0  0  0  0
  154.6396   44.3655    1.8286 C   0  0  0  0  0  0  0  0  0  0  0  0
  154.1800   43.7559    0.7977 O   0  0  0  0  0  0  0  0  0  0  0  0
  153.4702   44.7359    6.3246 N   0  0  0  0  0  0  0  0  0  0  0  0
  153.7558   43.4928    5.7369 C   0  0  0  0  0  0  0  0  0  0  0  0
  152.8079   42.6359    5.7554 O   0  0  0  0  0  0  0  0  0  0  0  0
  155.0299   43.1661    5.1386 C   0  0  0  0  0  0  0  0  0  0  0  0
  155.5275   44.1380    4.1202 C   0  0  2  0  0  0  0  0  0  0  0  0
  155.4408   43.6587    2.7616 N   0  0  0  0  0  0  0  0  0  0  0  0
  156.9184   44.5548    4.4007 C   0  0  0  0  0  0  0  0  0  0  0  0
  157.7207   44.9875    3.5041 O   0  0  0  0  0  0  0  0  0  0  0  0
  157.4937   44.5088    5.7219 N   0  0  0  0  0  0  0  0  0  0  0  0
  158.7593   43.8284    5.9778 C   0  0  1  0  0  0  0  0  0  0  0  0
  159.6465   44.6565    6.8742 C   0  0  0  0  0  0  0  0  0  0  0  0
  160.9691   44.0410    7.1592 C   0  0  0  0  0  0  0  0  0  0  0  0
  161.6211   44.6579    8.3754 C   0  0  0  0  0  0  0  0  0  0  0  0
  161.4896   46.1668    8.3479 C   0  0  0  0  0  0  0  0  0  0  0  0
  161.7420   46.7447    9.6477 N   0  0  0  0  0  0  0  0  0  0  0  0
  158.4744   42.4961    6.5171 C   0  0  0  0  0  0  0  0  0  0  0  0
  158.6613   42.1506    7.8479 O   0  0  0  0  0  0  0  0  0  0  0  0
  158.0366   41.5969    5.7589 O   0  0  0  0  0  0  0  0  0  0  0  0
  2  1  1  6
  3  2  1  0
  4  2  1  0
  4  5  1  6
  6  4  1  0
  6  7  2  0
  9 11  1  0
  9  8  1  0
 10  9  2  0
 12 13  1  0
 12 11  1  1
 13  6  1  0
 14 12  1  0
 15 14  2  0
 16 14  1  0
 17 18  1  1
 17 16  1  0
 19 20  1  0
 19 18  1  0
 20 21  1  0
 21 22  1  0
 23 24  1  0
 23 17  1  0
 25 23  2  0
M  END
$$$$
