TNK.pdb
     RDKit          3D

 25 24  0  0  1  0  0  0  0  0999 V2000
   24.4038  -16.7977  -14.5391 C   0  0  0  0  0  0  0  0  0  0  0  0
   24.8659  -16.4564  -15.9344 C   0  0  1  0  0  0  0  0  0  0  0  0
   24.7717  -17.6460  -16.6965 O   0  0  0  0  0  0  0  0  0  0  0  0
   24.0112  -15.3751  -16.5809 C   0  0  2  0  0  0  0  0  0  0  0  0
   24.4455  -15.2990  -17.9874 N   0  0  0  0  0  0  0  0  0  0  0  0
   24.1757  -14.0611  -15.9462 C   0  0  0  0  0  0  0  0  0  0  0  0
   23.8210  -13.9347  -14.7199 O   0  0  0  0  0  0  0  0  0  0  0  0
   27.3658  -12.7606  -15.1069 N   0  0  0  0  0  0  0  0  0  0  0  0
   27.3225  -11.5632  -15.8396 C   0  0  0  0  0  0  0  0  0  0  0  0
   28.4533  -11.0312  -16.1067 O   0  0  0  0  0  0  0  0  0  0  0  0
   26.0953  -10.9414  -16.2817 C   0  0  0  0  0  0  0  0  0  0  0  0
   24.8442  -11.6853  -15.9491 C   0  0  2  0  0  0  0  0  0  0  0  0
   24.7108  -12.9455  -16.6397 N   0  0  0  0  0  0  0  0  0  0  0  0
   23.6403  -10.8637  -16.2000 C   0  0  0  0  0  0  0  0  0  0  0  0
   23.2928  -10.4558  -17.3609 O   0  0  0  0  0  0  0  0  0  0  0  0
   22.7472  -10.4491  -15.1469 N   0  0  0  0  0  0  0  0  0  0  0  0
   21.5659   -9.6383  -15.4259 C   0  0  1  0  0  0  0  0  0  0  0  0
   20.3012  -10.4252  -15.1852 C   0  0  0  0  0  0  0  0  0  0  0  0
   19.0515   -9.6460  -15.3858 C   0  0  0  0  0  0  0  0  0  0  0  0
   17.8219  -10.4973  -15.1663 C   0  0  0  0  0  0  0  0  0  0  0  0
   16.5623   -9.7034  -15.4456 C   0  0  0  0  0  0  0  0  0  0  0  0
   15.3778  -10.4376  -15.0651 N   0  0  0  0  0  0  0  0  0  0  0  0
   21.6427   -8.4096  -14.6313 C   0  0  0  0  0  0  0  0  0  0  0  0
   22.5893   -8.1946  -13.6398 O   0  0  0  0  0  0  0  0  0  0  0  0
   20.8213   -7.4829  -14.8350 O   0  0  0  0  0  0  0  0  0  0  0  0
  2  1  1  1
  3  2  1  0
  4  2  1  0
  4  5  1  6
  6  4  1  0
  6  7  2  0
  9 11  1  0
  9  8  1  0
 10  9  2  0
 12 13  1  0
 12 11  1  6
 13  6  1  0
 14 12  1  0
 15 14  2  0
 16 14  1  0
 17 18  1  1
 17 16  1  0
 19 20  1  0
 19 18  1  0
 20 21  1  0
 21 22  1  0
 23 24  1  0
 23 17  1  0
 25 23  2  0
M  END
$$$$
