TNK.pdb
     RDKit          3D

 25 24  0  0  1  0  0  0  0  0999 V2000
   12.4234   -9.4365  -13.3868 C   0  0  0  0  0  0  0  0  0  0  0  0
   13.4271  -10.5578  -13.4971 C   0  0  1  0  0  0  0  0  0  0  0  0
   12.8702  -11.5171  -14.3771 O   0  0  0  0  0  0  0  0  0  0  0  0
   14.7660  -10.0866  -14.0478 C   0  0  2  0  0  0  0  0  0  0  0  0
   15.5688  -11.3037  -14.2640 N   0  0  0  0  0  0  0  0  0  0  0  0
   15.4771   -9.1881  -13.1294 C   0  0  0  0  0  0  0  0  0  0  0  0
   15.2320   -9.2906  -11.8744 O   0  0  0  0  0  0  0  0  0  0  0  0
   19.4898   -8.7937  -13.1817 N   0  0  0  0  0  0  0  0  0  0  0  0
   19.4023   -7.4200  -13.4605 C   0  0  0  0  0  0  0  0  0  0  0  0
   20.4347   -6.8929  -13.9984 O   0  0  0  0  0  0  0  0  0  0  0  0
   18.2345   -6.6193  -13.1719 C   0  0  0  0  0  0  0  0  0  0  0  0
   17.0645   -7.3673  -12.6232 C   0  0  2  0  0  0  0  0  0  0  0  0
   16.4158   -8.2268  -13.5841 N   0  0  0  0  0  0  0  0  0  0  0  0
   16.0623   -6.4527  -12.0347 C   0  0  0  0  0  0  0  0  0  0  0  0
   15.1203   -5.9095  -12.7075 O   0  0  0  0  0  0  0  0  0  0  0  0
   16.0616   -6.0926  -10.6387 N   0  0  0  0  0  0  0  0  0  0  0  0
   15.0544   -5.1928  -10.0851 C   0  0  1  0  0  0  0  0  0  0  0  0
   14.3199   -5.8434   -8.9389 C   0  0  0  0  0  0  0  0  0  0  0  0
   13.2589   -4.9952   -8.3355 C   0  0  0  0  0  0  0  0  0  0  0  0
   12.5245   -5.7215   -7.2318 C   0  0  0  0  0  0  0  0  0  0  0  0
   11.4757   -4.8259   -6.6050 C   0  0  0  0  0  0  0  0  0  0  0  0
   10.7928   -5.4895   -5.5186 N   0  0  0  0  0  0  0  0  0  0  0  0
   15.7044   -3.9329   -9.7149 C   0  0  0  0  0  0  0  0  0  0  0  0
   15.0206   -2.7377   -9.5441 O   0  0  0  0  0  0  0  0  0  0  0  0
   16.9461   -3.9009   -9.5358 O   0  0  0  0  0  0  0  0  0  0  0  0
  2  1  1  6
  3  2  1  0
  4  2  1  0
  4  5  1  1
  6  4  1  0
  6  7  2  0
  9 11  1  0
  9  8  1  0
 10  9  2  0
 12 13  1  0
 12 11  1  6
 13  6  1  0
 14 12  1  0
 15 14  2  0
 16 14  1  0
 17 18  1  1
 17 16  1  0
 19 20  1  0
 19 18  1  0
 20 21  1  0
 21 22  1  0
 23 24  1  0
 23 17  1  0
 25 23  2  0
M  END
$$$$
