TNK.pdb
     RDKit          3D

 25 24  0  0  1  0  0  0  0  0999 V2000
   16.6218   -9.1799  -17.6988 C   0  0  0  0  0  0  0  0  0  0  0  0
   16.4085   -9.7433  -16.3153 C   0  0  1  0  0  0  0  0  0  0  0  0
   15.4878  -10.8108  -16.4483 O   0  0  0  0  0  0  0  0  0  0  0  0
   17.6976  -10.2644  -15.6954 C   0  0  2  0  0  0  0  0  0  0  0  0
   17.3148  -10.8687  -14.4067 N   0  0  0  0  0  0  0  0  0  0  0  0
   18.6889   -9.2060  -15.4643 C   0  0  0  0  0  0  0  0  0  0  0  0
   18.4532   -8.3501  -14.5383 O   0  0  0  0  0  0  0  0  0  0  0  0
   21.9335   -9.6816  -13.8274 N   0  0  0  0  0  0  0  0  0  0  0  0
   22.7025   -9.3652  -14.9592 C   0  0  0  0  0  0  0  0  0  0  0  0
   23.8540   -9.9158  -15.0231 O   0  0  0  0  0  0  0  0  0  0  0  0
   22.2537   -8.4770  -16.0068 C   0  0  0  0  0  0  0  0  0  0  0  0
   20.8241   -8.0550  -15.9203 C   0  0  2  0  0  0  0  0  0  0  0  0
   19.8835   -9.1071  -16.2228 N   0  0  0  0  0  0  0  0  0  0  0  0
   20.5474   -6.8910  -16.7896 C   0  0  0  0  0  0  0  0  0  0  0  0
   20.2900   -6.9871  -18.0384 O   0  0  0  0  0  0  0  0  0  0  0  0
   20.5439   -5.5356  -16.2983 N   0  0  0  0  0  0  0  0  0  0  0  0
   19.9904   -4.4407  -17.0890 C   0  0  1  0  0  0  0  0  0  0  0  0
   18.6006   -4.7727  -17.5735 C   0  0  0  0  0  0  0  0  0  0  0  0
   17.9373   -3.6729  -18.3217 C   0  0  0  0  0  0  0  0  0  0  0  0
   16.5718   -4.0835  -18.8232 C   0  0  0  0  0  0  0  0  0  0  0  0
   15.9331   -2.9640  -19.6191 C   0  0  0  0  0  0  0  0  0  0  0  0
   14.6391   -3.3501  -20.1326 N   0  0  0  0  0  0  0  0  0  0  0  0
   20.0471   -3.2122  -16.2925 C   0  0  0  0  0  0  0  0  0  0  0  0
   20.3332   -3.1901  -14.9349 O   0  0  0  0  0  0  0  0  0  0  0  0
   19.8295   -2.1037  -16.8393 O   0  0  0  0  0  0  0  0  0  0  0  0
  2  1  1  6
  3  2  1  0
  4  2  1  0
  4  5  1  1
  6  4  1  0
  6  7  2  0
  9 11  1  0
  9  8  1  0
 10  9  2  0
 12 13  1  0
 12 11  1  6
 13  6  1  0
 14 12  1  0
 15 14  2  0
 16 14  1  0
 17 18  1  1
 17 16  1  0
 19 20  1  0
 19 18  1  0
 20 21  1  0
 21 22  1  0
 23 24  1  0
 23 17  1  0
 25 23  2  0
M  END
$$$$
