TNK.pdb
     RDKit          3D

 25 24  0  0  1  0  0  0  0  0999 V2000
   20.7089  -14.2191  -16.4997 C   0  0  0  0  0  0  0  0  0  0  0  0
   19.2901  -14.5748  -16.8703 C   0  0  1  0  0  0  0  0  0  0  0  0
   19.1447  -15.9638  -16.6367 O   0  0  0  0  0  0  0  0  0  0  0  0
   18.2651  -13.8145  -16.0402 C   0  0  2  0  0  0  0  0  0  0  0  0
   16.9554  -14.4059  -16.3683 N   0  0  0  0  0  0  0  0  0  0  0  0
   18.2414  -12.3769  -16.3384 C   0  0  0  0  0  0  0  0  0  0  0  0
   18.1586  -12.0167  -17.5668 O   0  0  0  0  0  0  0  0  0  0  0  0
   15.3486  -10.1814  -15.7970 N   0  0  0  0  0  0  0  0  0  0  0  0
   15.9628   -9.3567  -14.8404 C   0  0  0  0  0  0  0  0  0  0  0  0
   15.1748   -8.7526  -14.0359 O   0  0  0  0  0  0  0  0  0  0  0  0
   17.3932   -9.1774  -14.7409 C   0  0  0  0  0  0  0  0  0  0  0  0
   18.2089   -9.9970  -15.6856 C   0  0  2  0  0  0  0  0  0  0  0  0
   18.3032  -11.3902  -15.3212 N   0  0  0  0  0  0  0  0  0  0  0  0
   19.5708   -9.4439  -15.8484 C   0  0  0  0  0  0  0  0  0  0  0  0
   20.5589   -9.7689  -15.1049 O   0  0  0  0  0  0  0  0  0  0  0  0
   19.9037   -8.4822  -16.8697 N   0  0  0  0  0  0  0  0  0  0  0  0
   21.2583   -7.9563  -17.0075 C   0  0  1  0  0  0  0  0  0  0  0  0
   21.7274   -8.0396  -18.4391 C   0  0  0  0  0  0  0  0  0  0  0  0
   23.1031   -7.5225  -18.6604 C   0  0  0  0  0  0  0  0  0  0  0  0
   23.5438   -7.7053  -20.0947 C   0  0  0  0  0  0  0  0  0  0  0  0
   24.9412   -7.1578  -20.3010 C   0  0  0  0  0  0  0  0  0  0  0  0
   25.3805   -7.3272  -21.6668 N   0  0  0  0  0  0  0  0  0  0  0  0
   21.2895   -6.5948  -16.4669 C   0  0  0  0  0  0  0  0  0  0  0  0
   22.4252   -6.0098  -15.9252 O   0  0  0  0  0  0  0  0  0  0  0  0
   20.2481   -5.8944  -16.4802 O   0  0  0  0  0  0  0  0  0  0  0  0
  2  1  1  1
  3  2  1  0
  4  2  1  0
  4  5  1  6
  6  4  1  0
  6  7  2  0
  9 11  1  0
  9  8  1  0
 10  9  2  0
 12 13  1  0
 12 11  1  1
 13  6  1  0
 14 12  1  0
 15 14  2  0
 16 14  1  0
 17 18  1  6
 17 16  1  0
 19 20  1  0
 19 18  1  0
 20 21  1  0
 21 22  1  0
 23 24  1  0
 23 17  1  0
 25 23  2  0
M  END
$$$$
