TNK.pdb
     RDKit          3D

 25 24  0  0  1  0  0  0  0  0999 V2000
   14.5721   -9.7047  -14.7365 C   0  0  0  0  0  0  0  0  0  0  0  0
   15.1320  -11.1059  -14.7372 C   0  0  1  0  0  0  0  0  0  0  0  0
   14.5616  -11.7714  -15.8493 O   0  0  0  0  0  0  0  0  0  0  0  0
   16.6491  -11.1250  -14.8626 C   0  0  2  0  0  0  0  0  0  0  0  0
   17.0396  -12.5463  -14.8697 N   0  0  0  0  0  0  0  0  0  0  0  0
   17.3228  -10.4379  -13.7533 C   0  0  0  0  0  0  0  0  0  0  0  0
   17.2446  -10.9596  -12.5840 O   0  0  0  0  0  0  0  0  0  0  0  0
   19.9930   -7.2721  -10.6285 N   0  0  0  0  0  0  0  0  0  0  0  0
   20.3609   -7.0160  -11.9595 C   0  0  0  0  0  0  0  0  0  0  0  0
   21.2717   -6.1353  -12.1270 O   0  0  0  0  0  0  0  0  0  0  0  0
   19.7695   -7.6863  -13.0947 C   0  0  0  0  0  0  0  0  0  0  0  0
   18.6006   -8.5620  -12.7842 C   0  0  2  0  0  0  0  0  0  0  0  0
   18.0493   -9.2335  -13.9365 N   0  0  0  0  0  0  0  0  0  0  0  0
   17.5263   -7.8115  -12.0987 C   0  0  0  0  0  0  0  0  0  0  0  0
   16.7259   -7.0160  -12.6998 O   0  0  0  0  0  0  0  0  0  0  0  0
   17.2872   -7.9144  -10.6807 N   0  0  0  0  0  0  0  0  0  0  0  0
   16.1958   -7.1889  -10.0381 C   0  0  1  0  0  0  0  0  0  0  0  0
   15.1826   -8.1425   -9.4545 C   0  0  0  0  0  0  0  0  0  0  0  0
   14.0291   -7.4769   -8.7946 C   0  0  0  0  0  0  0  0  0  0  0  0
   12.9945   -8.4789   -8.3359 C   0  0  0  0  0  0  0  0  0  0  0  0
   11.7765   -7.7744   -7.7747 C   0  0  0  0  0  0  0  0  0  0  0  0
   10.7263   -8.7110   -7.4475 N   0  0  0  0  0  0  0  0  0  0  0  0
   16.7631   -6.2703   -9.0475 C   0  0  0  0  0  0  0  0  0  0  0  0
   16.1454   -5.0932   -8.6499 O   0  0  0  0  0  0  0  0  0  0  0  0
   17.8668   -6.5349   -8.5117 O   0  0  0  0  0  0  0  0  0  0  0  0
  2  1  1  6
  3  2  1  0
  4  2  1  0
  4  5  1  1
  6  4  1  0
  6  7  2  0
  9 11  1  0
  9  8  1  0
 10  9  2  0
 12 13  1  0
 12 11  1  6
 13  6  1  0
 14 12  1  0
 15 14  2  0
 16 14  1  0
 17 18  1  1
 17 16  1  0
 19 20  1  0
 19 18  1  0
 20 21  1  0
 21 22  1  0
 23 24  1  0
 23 17  1  0
 25 23  2  0
M  END
$$$$
