GCC.pdb
     RDKit          3D

 17 16  0  0  1  0  0  0  0  0999 V2000
   24.7785  -15.2286  -15.6162 N   0  0  0  0  0  0  0  0  0  0  0  0
   23.9809  -14.3917  -14.7791 C   0  0  0  0  0  0  0  0  0  0  0  0
   23.2406  -13.4229  -15.6290 C   0  0  0  0  0  0  0  0  0  0  0  0
   23.3643  -13.4952  -16.8783 O   0  0  0  0  0  0  0  0  0  0  0  0
   22.4014  -12.4212  -15.0947 N   0  0  0  0  0  0  0  0  0  0  0  0
   21.6969  -11.5489  -16.0413 C   0  0  1  0  0  0  0  0  0  0  0  0
   20.1878  -11.7409  -15.8513 C   0  0  0  0  0  0  0  0  0  0  0  0
   19.2632  -10.4788  -16.7102 S   0  0  0  0  0  0  0  0  0  0  0  0
   22.0134  -10.1658  -15.6049 C   0  0  0  0  0  0  0  0  0  0  0  0
   21.9885   -9.8476  -14.3588 O   0  0  0  0  0  0  0  0  0  0  0  0
   22.3631   -9.1005  -16.4818 N   0  0  0  0  0  0  0  0  0  0  0  0
   22.6820   -7.7637  -15.9502 C   0  0  1  0  0  0  0  0  0  0  0  0
   23.6559   -7.0577  -16.8698 C   0  0  0  0  0  0  0  0  0  0  0  0
   25.2391   -7.9334  -16.9409 S   0  0  0  0  0  0  0  0  0  0  0  0
   21.4280   -7.0148  -15.7581 C   0  0  0  0  0  0  0  0  0  0  0  0
   21.3057   -6.0813  -14.7553 O   0  0  0  0  0  0  0  0  0  0  0  0
   20.4622   -7.2293  -16.5153 O   0  0  0  0  0  0  0  0  0  0  0  0
  1  2  1  0
  2  3  1  0
  3  4  2  0
  3  5  1  0
  5  6  1  0
  6  7  1  1
  8  7  1  0
  9 11  1  0
  9  6  1  0
 10  9  2  0
 12 11  1  0
 12 15  1  0
 12 13  1  6
 14 13  1  0
 15 16  1  0
 17 15  2  0
M  END
$$$$
