GCC.pdb
     RDKit          3D

 17 16  0  0  1  0  0  0  0  0999 V2000
   24.5424  -21.5963   -8.9265 N   0  0  0  0  0  0  0  0  0  0  0  0
   24.0742  -20.4010   -9.5506 C   0  0  0  0  0  0  0  0  0  0  0  0
   24.0309  -20.6090  -11.0216 C   0  0  0  0  0  0  0  0  0  0  0  0
   24.5714  -21.6367  -11.5042 O   0  0  0  0  0  0  0  0  0  0  0  0
   23.4077  -19.7010  -11.9049 N   0  0  0  0  0  0  0  0  0  0  0  0
   23.3948  -20.0418  -13.3321 C   0  0  1  0  0  0  0  0  0  0  0  0
   21.9765  -19.8252  -13.8725 C   0  0  0  0  0  0  0  0  0  0  0  0
   21.9590  -19.8233  -15.6573 S   0  0  0  0  0  0  0  0  0  0  0  0
   24.2629  -19.0280  -13.9819 C   0  0  0  0  0  0  0  0  0  0  0  0
   24.1106  -17.7753  -13.7326 O   0  0  0  0  0  0  0  0  0  0  0  0
   25.3060  -19.3266  -14.9031 N   0  0  0  0  0  0  0  0  0  0  0  0
   26.1118  -18.2476  -15.5012 C   0  0  1  0  0  0  0  0  0  0  0  0
   27.5700  -18.4230  -15.1329 C   0  0  0  0  0  0  0  0  0  0  0  0
   28.6137  -17.2344  -16.0139 S   0  0  0  0  0  0  0  0  0  0  0  0
   25.8851  -18.2332  -16.9568 C   0  0  0  0  0  0  0  0  0  0  0  0
   25.3633  -19.3289  -17.6043 O   0  0  0  0  0  0  0  0  0  0  0  0
   26.1701  -17.2132  -17.6129 O   0  0  0  0  0  0  0  0  0  0  0  0
  1  2  1  0
  2  3  1  0
  3  4  2  0
  3  5  1  0
  5  6  1  0
  6  7  1  6
  8  7  1  0
  9 11  1  0
  9  6  1  0
 10  9  2  0
 12 11  1  0
 12 15  1  0
 12 13  1  6
 14 13  1  0
 15 16  1  0
 17 15  2  0
M  END
$$$$
