GCC.pdb
     RDKit          3D

 17 16  0  0  1  0  0  0  0  0999 V2000
   16.3304  -16.6667  -16.9657 N   0  0  0  0  0  0  0  0  0  0  0  0
   16.7604  -15.5861  -17.7931 C   0  0  0  0  0  0  0  0  0  0  0  0
   17.4898  -14.5976  -16.9566 C   0  0  0  0  0  0  0  0  0  0  0  0
   17.2704  -14.5726  -15.7187 O   0  0  0  0  0  0  0  0  0  0  0  0
   18.4215  -13.6817  -17.4915 N   0  0  0  0  0  0  0  0  0  0  0  0
   18.9921  -12.6827  -16.5806 C   0  0  1  0  0  0  0  0  0  0  0  0
   20.4999  -12.5893  -16.8417 C   0  0  0  0  0  0  0  0  0  0  0  0
   21.2513  -11.3187  -15.8384 S   0  0  0  0  0  0  0  0  0  0  0  0
   18.4007  -11.3884  -17.0032 C   0  0  0  0  0  0  0  0  0  0  0  0
   18.1971  -11.1338  -18.2475 O   0  0  0  0  0  0  0  0  0  0  0  0
   18.0143  -10.3464  -16.1139 N   0  0  0  0  0  0  0  0  0  0  0  0
   17.4925   -9.0700  -16.6337 C   0  0  1  0  0  0  0  0  0  0  0  0
   15.9834   -9.0388  -16.5147 C   0  0  0  0  0  0  0  0  0  0  0  0
   15.2563   -7.9031  -17.7229 S   0  0  0  0  0  0  0  0  0  0  0  0
   18.1477   -7.9604  -15.9197 C   0  0  0  0  0  0  0  0  0  0  0  0
   18.1395   -6.6840  -16.4323 O   0  0  0  0  0  0  0  0  0  0  0  0
   18.7187   -8.1802  -14.8344 O   0  0  0  0  0  0  0  0  0  0  0  0
  1  2  1  0
  2  3  1  0
  3  4  2  0
  3  5  1  0
  5  6  1  0
  6  7  1  6
  8  7  1  0
  9 11  1  0
  9  6  1  0
 10  9  2  0
 12 11  1  0
 12 15  1  0
 12 13  1  1
 14 13  1  0
 15 16  1  0
 17 15  2  0
M  END
$$$$
