GCC.pdb
     RDKit          3D

 17 16  0  0  1  0  0  0  0  0999 V2000
   21.7946  -11.1888  -19.1906 N   0  0  0  0  0  0  0  0  0  0  0  0
   22.0050   -9.8141  -19.5120 C   0  0  0  0  0  0  0  0  0  0  0  0
   22.6145   -9.1318  -18.3406 C   0  0  0  0  0  0  0  0  0  0  0  0
   22.7110   -9.7607  -17.2560 O   0  0  0  0  0  0  0  0  0  0  0  0
   23.0918   -7.8041  -18.3912 N   0  0  0  0  0  0  0  0  0  0  0  0
   23.6897   -7.2500  -17.1710 C   0  0  1  0  0  0  0  0  0  0  0  0
   24.7320   -6.1998  -17.5721 C   0  0  0  0  0  0  0  0  0  0  0  0
   25.3910   -5.3643  -16.1392 S   0  0  0  0  0  0  0  0  0  0  0  0
   22.5866   -6.5249  -16.4922 C   0  0  0  0  0  0  0  0  0  0  0  0
   21.7292   -5.8477  -17.1713 O   0  0  0  0  0  0  0  0  0  0  0  0
   22.3744   -6.5082  -15.0849 N   0  0  0  0  0  0  0  0  0  0  0  0
   21.1885   -5.8477  -14.5116 C   0  0  1  0  0  0  0  0  0  0  0  0
   20.4454   -6.8081  -13.6072 C   0  0  0  0  0  0  0  0  0  0  0  0
   21.4784   -7.3237  -12.2124 S   0  0  0  0  0  0  0  0  0  0  0  0
   21.6146   -4.6196  -13.8184 C   0  0  0  0  0  0  0  0  0  0  0  0
   20.6936   -3.7662  -13.2566 O   0  0  0  0  0  0  0  0  0  0  0  0
   22.8280   -4.3484  -13.7389 O   0  0  0  0  0  0  0  0  0  0  0  0
  1  2  1  0
  2  3  1  0
  3  4  2  0
  3  5  1  0
  5  6  1  0
  6  7  1  6
  8  7  1  0
  9 11  1  0
  9  6  1  0
 10  9  2  0
 12 11  1  0
 12 15  1  0
 12 13  1  1
 14 13  1  0
 15 16  1  0
 17 15  2  0
M  END
$$$$
