GCC.pdb
     RDKit          3D

 17 16  0  0  1  0  0  0  0  0999 V2000
   23.3634  -12.3288  -19.3073 N   0  0  0  0  0  0  0  0  0  0  0  0
   22.5082  -12.1696  -18.1757 C   0  0  0  0  0  0  0  0  0  0  0  0
   23.1554  -11.2468  -17.2069 C   0  0  0  0  0  0  0  0  0  0  0  0
   22.5759  -11.0097  -16.1164 O   0  0  0  0  0  0  0  0  0  0  0  0
   24.3965  -10.6221  -17.4568 N   0  0  0  0  0  0  0  0  0  0  0  0
   24.9184   -9.7126  -16.4303 C   0  0  1  0  0  0  0  0  0  0  0  0
   26.4470   -9.6773  -16.5415 C   0  0  0  0  0  0  0  0  0  0  0  0
   27.2169  -10.0295  -14.9702 S   0  0  0  0  0  0  0  0  0  0  0  0
   24.4271   -8.3664  -16.8174 C   0  0  0  0  0  0  0  0  0  0  0  0
   24.5996   -7.9221  -18.0122 O   0  0  0  0  0  0  0  0  0  0  0  0
   23.7441   -7.4724  -15.9454 N   0  0  0  0  0  0  0  0  0  0  0  0
   23.2526   -6.1729  -16.4363 C   0  0  1  0  0  0  0  0  0  0  0  0
   21.8722   -6.3332  -17.0375 C   0  0  0  0  0  0  0  0  0  0  0  0
   20.7583   -7.1908  -15.8964 S   0  0  0  0  0  0  0  0  0  0  0  0
   23.2875   -5.2007  -15.3301 C   0  0  0  0  0  0  0  0  0  0  0  0
   22.8468   -3.9096  -15.5062 O   0  0  0  0  0  0  0  0  0  0  0  0
   23.7229   -5.5520  -14.2169 O   0  0  0  0  0  0  0  0  0  0  0  0
  1  2  1  0
  2  3  1  0
  3  4  2  0
  3  5  1  0
  5  6  1  0
  6  7  1  6
  8  7  1  0
  9 11  1  0
  9  6  1  0
 10  9  2  0
 12 11  1  0
 12 15  1  0
 12 13  1  1
 14 13  1  0
 15 16  1  0
 17 15  2  0
M  END
$$$$
