GCC.pdb
     RDKit          3D

 17 16  0  0  1  0  0  0  0  0999 V2000
   26.1316  -16.0733  -18.3499 N   0  0  0  0  0  0  0  0  0  0  0  0
   26.3380  -14.7321  -18.7926 C   0  0  0  0  0  0  0  0  0  0  0  0
   26.2119  -13.8147  -17.6301 C   0  0  0  0  0  0  0  0  0  0  0  0
   25.6158  -14.2207  -16.6000 O   0  0  0  0  0  0  0  0  0  0  0  0
   26.7335  -12.5028  -17.6303 N   0  0  0  0  0  0  0  0  0  0  0  0
   26.5494  -11.6983  -16.4170 C   0  0  1  0  0  0  0  0  0  0  0  0
   27.8777  -11.0098  -16.0822 C   0  0  0  0  0  0  0  0  0  0  0  0
   27.7178   -9.9622  -14.6459 S   0  0  0  0  0  0  0  0  0  0  0  0
   25.5945  -10.6285  -16.8009 C   0  0  0  0  0  0  0  0  0  0  0  0
   25.6402  -10.0953  -17.9706 O   0  0  0  0  0  0  0  0  0  0  0  0
   24.5762  -10.1099  -15.9524 N   0  0  0  0  0  0  0  0  0  0  0  0
   23.6504   -9.0714  -16.4379 C   0  0  1  0  0  0  0  0  0  0  0  0
   22.2409   -9.3744  -15.9751 C   0  0  0  0  0  0  0  0  0  0  0  0
   21.1319   -7.9814  -16.3035 S   0  0  0  0  0  0  0  0  0  0  0  0
   24.1319   -7.7541  -15.9871 C   0  0  0  0  0  0  0  0  0  0  0  0
   23.5594   -6.5927  -16.4512 O   0  0  0  0  0  0  0  0  0  0  0  0
   25.0724   -7.6896  -15.1726 O   0  0  0  0  0  0  0  0  0  0  0  0
  1  2  1  0
  2  3  1  0
  3  4  2  0
  3  5  1  0
  5  6  1  0
  6  7  1  6
  8  7  1  0
  9 11  1  0
  9  6  1  0
 10  9  2  0
 12 11  1  0
 12 15  1  0
 12 13  1  1
 14 13  1  0
 15 16  1  0
 17 15  2  0
M  END
$$$$
