QYE.pdb
     RDKit          3D

 31 31  0  0  1  0  0  0  0  0999 V2000
   19.5980  -12.9994  -19.6233 N   0  0  0  0  0  0  0  0  0  0  0  0
   20.8961  -12.6274  -20.0314 C   0  0  0  0  0  0  0  0  0  0  0  0
   21.5655  -13.4419  -20.7171 O   0  0  0  0  0  0  0  0  0  0  0  0
   21.5013  -11.3063  -19.6792 C   0  0  0  0  0  0  0  0  0  0  0  0
   20.5730  -10.5100  -18.8161 C   0  0  0  0  0  0  0  0  0  0  0  0
   21.1373   -9.1434  -18.4882 C   0  0  2  0  0  0  0  0  0  0  0  0
   22.5762   -9.1927  -18.2922 N   0  0  0  0  0  0  0  0  0  0  0  0
   20.5397   -8.6249  -17.2335 C   0  0  0  0  0  0  0  0  0  0  0  0
   19.2828   -8.5731  -17.0435 O   0  0  0  0  0  0  0  0  0  0  0  0
   19.3775   -5.7799   -8.9737 O   0  0  0  0  0  0  0  0  0  0  0  0
   19.9325   -6.3104  -10.1442 C   0  0  0  0  0  0  0  0  0  0  0  0
   20.7767   -5.5214  -10.8900 C   0  0  0  0  0  0  0  0  0  0  0  0
   21.3344   -6.0240  -12.0466 C   0  0  0  0  0  0  0  0  0  0  0  0
   21.0609   -7.3213  -12.4813 C   0  0  0  0  0  0  0  0  0  0  0  0
   21.6768   -7.8206  -13.7287 C   0  0  0  0  0  0  0  0  0  0  0  0
   20.7747   -7.6582  -14.9086 C   0  0  2  0  0  0  0  0  0  0  0  0
   21.3090   -8.1442  -16.1422 N   0  0  0  0  0  0  0  0  0  0  0  0
   20.2957   -6.2915  -15.1102 C   0  0  0  0  0  0  0  0  0  0  0  0
   21.0687   -5.4051  -15.5894 O   0  0  0  0  0  0  0  0  0  0  0  0
   20.2164   -8.0890  -11.7214 C   0  0  0  0  0  0  0  0  0  0  0  0
   19.6558   -7.5975  -10.5671 C   0  0  0  0  0  0  0  0  0  0  0  0
   18.9761   -5.8505  -14.8006 N   0  0  0  0  0  0  0  0  0  0  0  0
   18.5865   -4.4892  -14.9646 C   0  0  1  0  0  0  0  0  0  0  0  0
   17.8260   -4.1371  -16.1833 C   0  0  0  0  0  0  0  0  0  0  0  0
   17.3872   -2.7528  -16.4003 C   0  0  0  0  0  0  0  0  0  0  0  0
   16.6170   -2.5523  -17.6420 C   0  0  0  0  0  0  0  0  0  0  0  0
   16.3446   -3.5155  -18.4325 O   0  0  0  0  0  0  0  0  0  0  0  0
   17.8013   -4.0891  -13.7649 C   0  0  0  0  0  0  0  0  0  0  0  0
   17.6223   -2.7583  -13.4278 O   0  0  0  0  0  0  0  0  0  0  0  0
   16.1505   -1.3009  -18.0097 O   0  0  0  0  0  0  0  0  0  0  0  0
   17.2778   -4.9571  -13.0235 O   0  0  0  0  0  0  0  0  0  0  0  0
  2  3  2  0
  2  1  1  0
  4  2  1  0
  5  4  1  0
  6  5  1  0
  6  7  1  1
  8  6  1  0
  9  8  2  0
 10 11  1  0
 11 12  2  0
 12 13  1  0
 14 15  1  0
 14 13  2  0
 16 15  1  1
 16 17  1  0
 17  8  1  0
 18 19  2  0
 18 16  1  0
 20 14  1  0
 21 20  2  0
 21 11  1  0
 22 18  1  0
 23 22  1  0
 23 24  1  6
 25 24  1  0
 26 25  1  0
 26 27  2  0
 28 23  1  0
 29 28  1  0
 30 26  1  0
 31 28  2  0
M  END
$$$$
