QYE.pdb
     RDKit          3D

 31 31  0  0  1  0  0  0  0  0999 V2000
   24.8303  -20.7090   -9.7109 N   0  0  0  0  0  0  0  0  0  0  0  0
   26.2357  -20.8300   -9.7257 C   0  0  0  0  0  0  0  0  0  0  0  0
   26.7968  -21.4194   -8.7668 O   0  0  0  0  0  0  0  0  0  0  0  0
   27.0774  -20.2850  -10.8348 C   0  0  0  0  0  0  0  0  0  0  0  0
   26.2346  -19.5471  -11.8278 C   0  0  0  0  0  0  0  0  0  0  0  0
   25.3794  -20.4859  -12.6530 C   0  0  2  0  0  0  0  0  0  0  0  0
   26.1930  -21.3839  -13.4548 N   0  0  0  0  0  0  0  0  0  0  0  0
   24.5213  -19.7170  -13.5871 C   0  0  0  0  0  0  0  0  0  0  0  0
   23.8825  -18.6758  -13.2315 O   0  0  0  0  0  0  0  0  0  0  0  0
   29.1034  -16.8877  -17.6619 O   0  0  0  0  0  0  0  0  0  0  0  0
   27.8325  -17.4671  -17.5691 C   0  0  0  0  0  0  0  0  0  0  0  0
   27.7394  -18.8299  -17.4089 C   0  0  0  0  0  0  0  0  0  0  0  0
   26.4974  -19.4214  -17.3153 C   0  0  0  0  0  0  0  0  0  0  0  0
   25.3259  -18.6663  -17.3800 C   0  0  0  0  0  0  0  0  0  0  0  0
   24.0142  -19.3399  -17.2788 C   0  0  0  0  0  0  0  0  0  0  0  0
   23.5021  -19.3718  -15.8755 C   0  0  2  0  0  0  0  0  0  0  0  0
   24.3371  -20.0703  -14.9491 N   0  0  0  0  0  0  0  0  0  0  0  0
   22.1358  -19.8773  -15.7500 C   0  0  0  0  0  0  0  0  0  0  0  0
   21.9195  -21.1256  -15.6608 O   0  0  0  0  0  0  0  0  0  0  0  0
   25.4439  -17.3097  -17.5400 C   0  0  0  0  0  0  0  0  0  0  0  0
   26.6769  -16.7106  -17.6340 C   0  0  0  0  0  0  0  0  0  0  0  0
   20.9749  -19.0510  -15.7179 N   0  0  0  0  0  0  0  0  0  0  0  0
   19.6730  -19.6001  -15.5300 C   0  0  1  0  0  0  0  0  0  0  0  0
   19.1688  -19.7064  -14.1436 C   0  0  0  0  0  0  0  0  0  0  0  0
   18.1920  -18.7321  -13.6410 C   0  0  0  0  0  0  0  0  0  0  0  0
   17.5841  -19.0999  -12.3486 C   0  0  0  0  0  0  0  0  0  0  0  0
   18.1428  -18.8254  -11.2353 O   0  0  0  0  0  0  0  0  0  0  0  0
   18.7154  -18.7972  -16.3389 C   0  0  0  0  0  0  0  0  0  0  0  0
   17.4189  -19.2277  -16.5631 O   0  0  0  0  0  0  0  0  0  0  0  0
   16.3704  -19.7643  -12.2832 O   0  0  0  0  0  0  0  0  0  0  0  0
   19.0641  -17.7004  -16.8415 O   0  0  0  0  0  0  0  0  0  0  0  0
  2  3  2  0
  2  1  1  0
  4  2  1  0
  5  4  1  0
  6  5  1  0
  6  7  1  6
  8  6  1  0
  9  8  2  0
 10 11  1  0
 11 12  2  0
 12 13  1  0
 14 15  1  0
 14 13  2  0
 16 15  1  6
 16 17  1  0
 17  8  1  0
 18 19  2  0
 18 16  1  0
 20 14  1  0
 21 20  2  0
 21 11  1  0
 22 18  1  0
 23 22  1  0
 23 24  1  1
 25 24  1  0
 26 25  1  0
 26 27  2  0
 28 23  1  0
 29 28  1  0
 30 26  1  0
 31 28  2  0
M  END
$$$$
