QYE.pdb
     RDKit          3D

 31 31  0  0  1  0  0  0  0  0999 V2000
   21.5633  -28.2719  -11.5270 N   0  0  0  0  0  0  0  0  0  0  0  0
   20.7212  -27.5982  -12.4364 C   0  0  0  0  0  0  0  0  0  0  0  0
   20.7548  -26.3413  -12.4663 O   0  0  0  0  0  0  0  0  0  0  0  0
   19.7948  -28.3215  -13.3607 C   0  0  0  0  0  0  0  0  0  0  0  0
   19.9179  -29.8028  -13.1840 C   0  0  0  0  0  0  0  0  0  0  0  0
   21.1068  -30.3657  -13.9346 C   0  0  2  0  0  0  0  0  0  0  0  0
   20.8667  -30.3994  -15.3672 N   0  0  0  0  0  0  0  0  0  0  0  0
   21.3798  -31.7577  -13.5011 C   0  0  0  0  0  0  0  0  0  0  0  0
   20.5690  -32.7141  -13.7169 O   0  0  0  0  0  0  0  0  0  0  0  0
   23.4240  -32.4687  -18.6815 O   0  0  0  0  0  0  0  0  0  0  0  0
   23.5042  -32.9170  -17.3578 C   0  0  0  0  0  0  0  0  0  0  0  0
   24.3261  -32.2456  -16.4830 C   0  0  0  0  0  0  0  0  0  0  0  0
   24.4202  -32.6702  -15.1746 C   0  0  0  0  0  0  0  0  0  0  0  0
   23.6978  -33.7715  -14.7140 C   0  0  0  0  0  0  0  0  0  0  0  0
   23.8296  -34.1960  -13.3044 C   0  0  0  0  0  0  0  0  0  0  0  0
   22.8754  -33.4780  -12.4064 C   0  0  2  0  0  0  0  0  0  0  0  0
   22.5589  -32.1445  -12.8128 N   0  0  0  0  0  0  0  0  0  0  0  0
   23.2787  -33.4575  -11.0011 C   0  0  0  0  0  0  0  0  0  0  0  0
   23.7093  -32.3858  -10.4729 O   0  0  0  0  0  0  0  0  0  0  0  0
   22.8851  -34.4248  -15.6044 C   0  0  0  0  0  0  0  0  0  0  0  0
   22.7842  -34.0094  -16.9103 C   0  0  0  0  0  0  0  0  0  0  0  0
   23.2272  -34.5888  -10.1356 N   0  0  0  0  0  0  0  0  0  0  0  0
   23.6605  -34.5116   -8.7798 C   0  0  1  0  0  0  0  0  0  0  0  0
   22.7174  -33.9452   -7.7912 C   0  0  0  0  0  0  0  0  0  0  0  0
   23.0525  -33.9653   -6.3618 C   0  0  0  0  0  0  0  0  0  0  0  0
   23.7417  -32.7508   -5.8872 C   0  0  0  0  0  0  0  0  0  0  0  0
   24.9301  -32.7837   -5.4253 O   0  0  0  0  0  0  0  0  0  0  0  0
   24.0604  -35.8787   -8.3474 C   0  0  0  0  0  0  0  0  0  0  0  0
   23.6730  -37.0038   -9.0551 O   0  0  0  0  0  0  0  0  0  0  0  0
   23.1266  -31.5100   -5.9216 O   0  0  0  0  0  0  0  0  0  0  0  0
   24.7650  -36.0454   -7.3213 O   0  0  0  0  0  0  0  0  0  0  0  0
  2  3  2  0
  2  1  1  0
  4  2  1  0
  5  4  1  0
  6  5  1  0
  6  7  1  6
  8  6  1  0
  9  8  2  0
 10 11  1  0
 11 12  2  0
 12 13  1  0
 14 15  1  0
 14 13  2  0
 16 15  1  6
 16 17  1  0
 17  8  1  0
 18 19  2  0
 18 16  1  0
 20 14  1  0
 21 20  2  0
 21 11  1  0
 22 18  1  0
 23 22  1  0
 23 24  1  1
 25 24  1  0
 26 25  1  0
 26 27  2  0
 28 23  1  0
 29 28  1  0
 30 26  1  0
 31 28  2  0
M  END
$$$$
