QYE.pdb
     RDKit          3D

 31 31  0  0  1  0  0  0  0  0999 V2000
   23.3077  -35.6153   -7.6913 N   0  0  0  0  0  0  0  0  0  0  0  0
   22.9239  -35.6883   -9.0468 C   0  0  0  0  0  0  0  0  0  0  0  0
   21.7167  -35.4913   -9.3396 O   0  0  0  0  0  0  0  0  0  0  0  0
   23.8961  -35.9904  -10.1419 C   0  0  0  0  0  0  0  0  0  0  0  0
   25.2523  -36.2859   -9.5815 C   0  0  0  0  0  0  0  0  0  0  0  0
   26.0855  -35.0311   -9.4242 C   0  0  2  0  0  0  0  0  0  0  0  0
   26.4472  -34.4650  -10.7126 N   0  0  0  0  0  0  0  0  0  0  0  0
   27.3479  -35.3354   -8.7072 C   0  0  0  0  0  0  0  0  0  0  0  0
   28.1827  -36.1993   -9.1260 O   0  0  0  0  0  0  0  0  0  0  0  0
   34.1606  -35.2125   -3.1277 O   0  0  0  0  0  0  0  0  0  0  0  0
   33.0225  -34.8619   -3.8634 C   0  0  0  0  0  0  0  0  0  0  0  0
   33.1351  -34.7261   -5.2273 C   0  0  0  0  0  0  0  0  0  0  0  0
   32.0266  -34.3813   -5.9713 C   0  0  0  0  0  0  0  0  0  0  0  0
   30.7861  -34.1651   -5.3702 C   0  0  0  0  0  0  0  0  0  0  0  0
   29.6234  -33.7937   -6.2037 C   0  0  0  0  0  0  0  0  0  0  0  0
   28.9190  -34.9900   -6.7560 C   0  0  2  0  0  0  0  0  0  0  0  0
   27.7344  -34.6966   -7.5004 N   0  0  0  0  0  0  0  0  0  0  0  0
   28.6056  -36.0117   -5.7580 C   0  0  0  0  0  0  0  0  0  0  0  0
   27.5897  -35.8840   -5.0066 O   0  0  0  0  0  0  0  0  0  0  0  0
   30.6984  -34.3063   -4.0092 C   0  0  0  0  0  0  0  0  0  0  0  0
   31.7971  -34.6498   -3.2589 C   0  0  0  0  0  0  0  0  0  0  0  0
   29.3780  -37.1910   -5.5480 N   0  0  0  0  0  0  0  0  0  0  0  0
   28.9940  -38.1739   -4.5897 C   0  0  1  0  0  0  0  0  0  0  0  0
   29.5948  -39.5199   -4.7117 C   0  0  0  0  0  0  0  0  0  0  0  0
   29.2427  -40.5708   -3.7486 C   0  0  0  0  0  0  0  0  0  0  0  0
   29.9333  -41.8538   -3.9772 C   0  0  0  0  0  0  0  0  0  0  0  0
   30.8959  -41.9660   -4.8064 O   0  0  0  0  0  0  0  0  0  0  0  0
   29.2823  -37.6302   -3.2343 C   0  0  0  0  0  0  0  0  0  0  0  0
   29.3794  -36.2681   -3.0065 O   0  0  0  0  0  0  0  0  0  0  0  0
   29.5665  -43.0038   -3.2976 O   0  0  0  0  0  0  0  0  0  0  0  0
   29.4456  -38.4010   -2.2564 O   0  0  0  0  0  0  0  0  0  0  0  0
  2  3  2  0
  2  1  1  0
  4  2  1  0
  5  4  1  0
  6  5  1  0
  6  7  1  6
  8  6  1  0
  9  8  2  0
 10 11  1  0
 11 12  2  0
 12 13  1  0
 14 15  1  0
 14 13  2  0
 16 15  1  1
 16 17  1  0
 17  8  1  0
 18 19  2  0
 18 16  1  0
 20 14  1  0
 21 20  2  0
 21 11  1  0
 22 18  1  0
 23 22  1  0
 23 24  1  6
 25 24  1  0
 26 25  1  0
 26 27  2  0
 28 23  1  0
 29 28  1  0
 30 26  1  0
 31 28  2  0
M  END
$$$$
