QYE.pdb
     RDKit          3D

 31 31  0  0  1  0  0  0  0  0999 V2000
   26.2225  -22.8961  -20.1269 N   0  0  0  0  0  0  0  0  0  0  0  0
   27.0506  -21.7580  -20.2219 C   0  0  0  0  0  0  0  0  0  0  0  0
   27.6482  -21.5402  -21.3069 O   0  0  0  0  0  0  0  0  0  0  0  0
   27.2425  -20.8068  -19.0843 C   0  0  0  0  0  0  0  0  0  0  0  0
   26.3998  -21.2035  -17.9124 C   0  0  0  0  0  0  0  0  0  0  0  0
   27.1842  -22.0093  -16.8980 C   0  0  2  0  0  0  0  0  0  0  0  0
   27.3394  -23.3915  -17.3185 N   0  0  0  0  0  0  0  0  0  0  0  0
   26.4801  -22.0228  -15.5925 C   0  0  0  0  0  0  0  0  0  0  0  0
   25.3851  -22.6447  -15.4110 O   0  0  0  0  0  0  0  0  0  0  0  0
   24.1486  -20.2139   -7.2471 O   0  0  0  0  0  0  0  0  0  0  0  0
   24.8669  -20.3711   -8.4383 C   0  0  0  0  0  0  0  0  0  0  0  0
   25.5942  -19.3057   -8.9151 C   0  0  0  0  0  0  0  0  0  0  0  0
   26.3090  -19.4388  -10.0867 C   0  0  0  0  0  0  0  0  0  0  0  0
   26.3120  -20.6353  -10.8045 C   0  0  0  0  0  0  0  0  0  0  0  0
   27.0891  -20.7352  -12.0578 C   0  0  0  0  0  0  0  0  0  0  0  0
   26.2683  -21.2584  -13.1914 C   0  0  2  0  0  0  0  0  0  0  0  0
   26.9597  -21.3493  -14.4392 N   0  0  0  0  0  0  0  0  0  0  0  0
   25.0129  -20.5387  -13.4013 C   0  0  0  0  0  0  0  0  0  0  0  0
   25.0095  -19.4132  -13.9896 O   0  0  0  0  0  0  0  0  0  0  0  0
   25.5796  -21.6833  -10.3095 C   0  0  0  0  0  0  0  0  0  0  0  0
   24.8641  -21.5609   -9.1428 C   0  0  0  0  0  0  0  0  0  0  0  0
   23.7362  -21.0147  -12.9830 N   0  0  0  0  0  0  0  0  0  0  0  0
   22.5607  -20.2211  -13.1247 C   0  0  1  0  0  0  0  0  0  0  0  0
   22.0632  -19.9738  -14.4955 C   0  0  0  0  0  0  0  0  0  0  0  0
   20.7984  -19.2564  -14.6990 C   0  0  0  0  0  0  0  0  0  0  0  0
   20.7228  -18.5176  -15.9732 C   0  0  0  0  0  0  0  0  0  0  0  0
   21.6783  -18.5255  -16.8179 O   0  0  0  0  0  0  0  0  0  0  0  0
   21.4806  -20.8531  -12.3186 C   0  0  0  0  0  0  0  0  0  0  0  0
   21.6077  -22.1381  -11.8193 O   0  0  0  0  0  0  0  0  0  0  0  0
   19.6033  -17.7763  -16.3141 O   0  0  0  0  0  0  0  0  0  0  0  0
   20.4189  -20.2300  -12.0700 O   0  0  0  0  0  0  0  0  0  0  0  0
  2  3  2  0
  2  1  1  0
  4  2  1  0
  5  4  1  0
  6  5  1  0
  6  7  1  6
  8  6  1  0
  9  8  2  0
 10 11  1  0
 11 12  2  0
 12 13  1  0
 14 15  1  0
 14 13  2  0
 16 15  1  1
 16 17  1  0
 17  8  1  0
 18 19  2  0
 18 16  1  0
 20 14  1  0
 21 20  2  0
 21 11  1  0
 22 18  1  0
 23 22  1  0
 23 24  1  6
 25 24  1  0
 26 25  1  0
 26 27  2  0
 28 23  1  0
 29 28  1  0
 30 26  1  0
 31 28  2  0
M  END
$$$$
