QYE.pdb
     RDKit          3D

 31 31  0  0  1  0  0  0  0  0999 V2000
   17.9245  -20.6414  -12.7751 N   0  0  0  0  0  0  0  0  0  0  0  0
   18.7573  -21.7678  -12.9415 C   0  0  0  0  0  0  0  0  0  0  0  0
   18.2668  -22.9097  -12.7488 O   0  0  0  0  0  0  0  0  0  0  0  0
   20.1949  -21.6528  -13.3363 C   0  0  0  0  0  0  0  0  0  0  0  0
   21.0872  -22.1555  -12.2446 C   0  0  0  0  0  0  0  0  0  0  0  0
   21.6531  -21.0252  -11.4105 C   0  0  2  0  0  0  0  0  0  0  0  0
   20.7988  -19.8507  -11.4528 N   0  0  0  0  0  0  0  0  0  0  0  0
   22.9843  -20.6200  -11.9243 C   0  0  0  0  0  0  0  0  0  0  0  0
   23.1865  -19.5021  -12.4971 O   0  0  0  0  0  0  0  0  0  0  0  0
   26.4352  -19.1701   -6.2622 O   0  0  0  0  0  0  0  0  0  0  0  0
   26.4826  -19.7328   -7.5431 C   0  0  0  0  0  0  0  0  0  0  0  0
   25.8549  -20.9376   -7.7575 C   0  0  0  0  0  0  0  0  0  0  0  0
   25.8892  -21.5098   -9.0115 C   0  0  0  0  0  0  0  0  0  0  0  0
   26.5496  -20.8926  -10.0744 C   0  0  0  0  0  0  0  0  0  0  0  0
   26.5654  -21.5412  -11.4024 C   0  0  0  0  0  0  0  0  0  0  0  0
   25.4480  -21.0696  -12.2749 C   0  0  2  0  0  0  0  0  0  0  0  0
   24.1415  -21.4353  -11.8246 N   0  0  0  0  0  0  0  0  0  0  0  0
   25.5850  -21.4524  -13.6794 C   0  0  0  0  0  0  0  0  0  0  0  0
   25.2297  -22.6086  -14.0667 O   0  0  0  0  0  0  0  0  0  0  0  0
   27.1681  -19.6922   -9.8365 C   0  0  0  0  0  0  0  0  0  0  0  0
   27.1394  -19.1136   -8.5905 C   0  0  0  0  0  0  0  0  0  0  0  0
   26.1067  -20.5999  -14.6956 N   0  0  0  0  0  0  0  0  0  0  0  0
   26.2032  -21.0279  -16.0519 C   0  0  1  0  0  0  0  0  0  0  0  0
   26.5543  -20.0110  -17.0669 C   0  0  0  0  0  0  0  0  0  0  0  0
   27.9638  -19.7121  -17.3495 C   0  0  0  0  0  0  0  0  0  0  0  0
   28.2317  -18.2918  -17.6429 C   0  0  0  0  0  0  0  0  0  0  0  0
   27.3082  -17.4122  -17.6304 O   0  0  0  0  0  0  0  0  0  0  0  0
   27.1896  -22.1410  -16.1126 C   0  0  0  0  0  0  0  0  0  0  0  0
   27.0721  -23.1624  -17.0397 O   0  0  0  0  0  0  0  0  0  0  0  0
   29.5068  -17.8441  -17.9472 O   0  0  0  0  0  0  0  0  0  0  0  0
   28.1607  -22.1803  -15.3171 O   0  0  0  0  0  0  0  0  0  0  0  0
  2  3  2  0
  2  1  1  0
  4  2  1  0
  5  4  1  0
  6  5  1  0
  6  7  1  6
  8  6  1  0
  9  8  2  0
 10 11  1  0
 11 12  2  0
 12 13  1  0
 14 15  1  0
 14 13  2  0
 16 15  1  1
 16 17  1  0
 17  8  1  0
 18 19  2  0
 18 16  1  0
 20 14  1  0
 21 20  2  0
 21 11  1  0
 22 18  1  0
 23 22  1  0
 23 24  1  6
 25 24  1  0
 26 25  1  0
 26 27  2  0
 28 23  1  0
 29 28  1  0
 30 26  1  0
 31 28  2  0
M  END
$$$$
