QYE.pdb
     RDKit          3D

 31 31  0  0  1  0  0  0  0  0999 V2000
   20.2728  -15.0388  -17.8961 N   0  0  0  0  0  0  0  0  0  0  0  0
   21.3703  -14.7402  -18.7306 C   0  0  0  0  0  0  0  0  0  0  0  0
   22.1976  -15.6533  -18.9828 O   0  0  0  0  0  0  0  0  0  0  0  0
   21.5840  -13.3838  -19.3224 C   0  0  0  0  0  0  0  0  0  0  0  0
   22.4084  -12.5302  -18.4100 C   0  0  0  0  0  0  0  0  0  0  0  0
   22.1916  -11.0535  -18.6668 C   0  0  2  0  0  0  0  0  0  0  0  0
   22.9136  -10.6047  -19.8452 N   0  0  0  0  0  0  0  0  0  0  0  0
   22.6812  -10.2518  -17.5188 C   0  0  0  0  0  0  0  0  0  0  0  0
   22.2087  -10.3774  -16.3443 O   0  0  0  0  0  0  0  0  0  0  0  0
   28.3498  -13.3154  -16.6215 O   0  0  0  0  0  0  0  0  0  0  0  0
   27.6795  -12.0880  -16.5612 C   0  0  0  0  0  0  0  0  0  0  0  0
   27.6985  -11.2713  -17.6676 C   0  0  0  0  0  0  0  0  0  0  0  0
   27.0448  -10.0578  -17.6299 C   0  0  0  0  0  0  0  0  0  0  0  0
   26.3607   -9.6358  -16.4893 C   0  0  0  0  0  0  0  0  0  0  0  0
   25.6756   -8.3262  -16.4892 C   0  0  0  0  0  0  0  0  0  0  0  0
   24.1894   -8.4660  -16.5541 C   0  0  2  0  0  0  0  0  0  0  0  0
   23.7110   -9.2814  -17.6263 N   0  0  0  0  0  0  0  0  0  0  0  0
   23.4705   -7.1930  -16.5752 C   0  0  0  0  0  0  0  0  0  0  0  0
   23.1341   -6.6646  -17.6800 O   0  0  0  0  0  0  0  0  0  0  0  0
   26.3558  -10.4669  -15.3988 C   0  0  0  0  0  0  0  0  0  0  0  0
   27.0040  -11.6782  -15.4264 C   0  0  0  0  0  0  0  0  0  0  0  0
   23.0988   -6.4626  -15.4090 N   0  0  0  0  0  0  0  0  0  0  0  0
   22.2503   -5.3196  -15.4831 C   0  0  1  0  0  0  0  0  0  0  0  0
   20.9267   -5.4901  -16.1208 C   0  0  0  0  0  0  0  0  0  0  0  0
   19.9618   -4.3834  -16.1162 C   0  0  0  0  0  0  0  0  0  0  0  0
   18.6517   -4.7237  -16.7019 C   0  0  0  0  0  0  0  0  0  0  0  0
   17.6749   -3.9035  -16.6981 O   0  0  0  0  0  0  0  0  0  0  0  0
   22.0646   -4.7958  -14.1022 C   0  0  0  0  0  0  0  0  0  0  0  0
   22.1526   -5.6239  -12.9962 O   0  0  0  0  0  0  0  0  0  0  0  0
   18.4197   -5.9575  -17.2875 O   0  0  0  0  0  0  0  0  0  0  0  0
   21.8217   -3.5794  -13.9058 O   0  0  0  0  0  0  0  0  0  0  0  0
  2  3  2  0
  2  1  1  0
  4  2  1  0
  5  4  1  0
  6  5  1  0
  6  7  1  6
  8  6  1  0
  9  8  2  0
 10 11  1  0
 11 12  2  0
 12 13  1  0
 14 15  1  0
 14 13  2  0
 16 15  1  6
 16 17  1  0
 17  8  1  0
 18 19  2  0
 18 16  1  0
 20 14  1  0
 21 20  2  0
 21 11  1  0
 22 18  1  0
 23 22  1  0
 23 24  1  1
 25 24  1  0
 26 25  1  0
 26 27  2  0
 28 23  1  0
 29 28  1  0
 30 26  1  0
 31 28  2  0
M  END
$$$$
