QYE.pdb
     RDKit          3D

 31 31  0  0  1  0  0  0  0  0999 V2000
   21.5339  -14.6274  -17.2004 N   0  0  0  0  0  0  0  0  0  0  0  0
   20.1395  -14.7655  -17.3633 C   0  0  0  0  0  0  0  0  0  0  0  0
   19.6982  -15.8230  -17.8819 O   0  0  0  0  0  0  0  0  0  0  0  0
   19.1727  -13.7048  -16.9439 C   0  0  0  0  0  0  0  0  0  0  0  0
   19.8902  -12.5494  -16.3186 C   0  0  0  0  0  0  0  0  0  0  0  0
   19.5828  -11.2442  -17.0226 C   0  0  2  0  0  0  0  0  0  0  0  0
   20.1179  -11.2270  -18.3734 N   0  0  0  0  0  0  0  0  0  0  0  0
   20.1941  -10.1068  -16.2925 C   0  0  0  0  0  0  0  0  0  0  0  0
   19.9302   -9.8534  -15.0740 O   0  0  0  0  0  0  0  0  0  0  0  0
   26.1517  -12.7323  -15.6646 O   0  0  0  0  0  0  0  0  0  0  0  0
   25.4260  -11.5606  -15.9091 C   0  0  0  0  0  0  0  0  0  0  0  0
   25.1432  -10.7275  -14.8519 C   0  0  0  0  0  0  0  0  0  0  0  0
   24.4295   -9.5681  -15.0703 C   0  0  0  0  0  0  0  0  0  0  0  0
   23.9843   -9.2178  -16.3454 C   0  0  0  0  0  0  0  0  0  0  0  0
   23.2194   -7.9676  -16.5360 C   0  0  0  0  0  0  0  0  0  0  0  0
   21.7728   -8.1335  -16.2007 C   0  0  2  0  0  0  0  0  0  0  0  0
   21.1196   -9.2070  -16.8821 N   0  0  0  0  0  0  0  0  0  0  0  0
   20.9779   -6.9178  -16.3685 C   0  0  0  0  0  0  0  0  0  0  0  0
   20.4564   -6.6427  -17.4934 O   0  0  0  0  0  0  0  0  0  0  0  0
   24.2782  -10.0639  -17.3835 C   0  0  0  0  0  0  0  0  0  0  0  0
   24.9890  -11.2215  -17.1764 C   0  0  0  0  0  0  0  0  0  0  0  0
   20.7279   -5.9736  -15.3305 N   0  0  0  0  0  0  0  0  0  0  0  0
   19.9295   -4.8139  -15.5529 C   0  0  1  0  0  0  0  0  0  0  0  0
   18.5832   -4.7824  -14.9410 C   0  0  0  0  0  0  0  0  0  0  0  0
   17.7666   -3.5651  -15.0263 C   0  0  0  0  0  0  0  0  0  0  0  0
   16.3402   -3.8147  -15.3063 C   0  0  0  0  0  0  0  0  0  0  0  0
   15.8818   -4.9910  -15.4877 O   0  0  0  0  0  0  0  0  0  0  0  0
   20.7040   -3.6287  -15.0932 C   0  0  0  0  0  0  0  0  0  0  0  0
   21.8140   -3.7618  -14.2766 O   0  0  0  0  0  0  0  0  0  0  0  0
   15.4263   -2.7767  -15.3854 O   0  0  0  0  0  0  0  0  0  0  0  0
   20.3659   -2.4695  -15.4385 O   0  0  0  0  0  0  0  0  0  0  0  0
  2  3  2  0
  2  1  1  0
  4  2  1  0
  5  4  1  0
  6  5  1  0
  6  7  1  6
  8  6  1  0
  9  8  2  0
 10 11  1  0
 11 12  2  0
 12 13  1  0
 14 15  1  0
 14 13  2  0
 16 15  1  6
 16 17  1  0
 17  8  1  0
 18 19  2  0
 18 16  1  0
 20 14  1  0
 21 20  2  0
 21 11  1  0
 22 18  1  0
 23 22  1  0
 23 24  1  1
 25 24  1  0
 26 25  1  0
 26 27  2  0
 28 23  1  0
 29 28  1  0
 30 26  1  0
 31 28  2  0
M  END
$$$$
