QYE.pdb
     RDKit          3D

 31 31  0  0  1  0  0  0  0  0999 V2000
   33.8007  -28.0704  -17.8761 N   0  0  0  0  0  0  0  0  0  0  0  0
   34.0478  -28.1711  -19.2613 C   0  0  0  0  0  0  0  0  0  0  0  0
   35.0769  -28.7848  -19.6437 O   0  0  0  0  0  0  0  0  0  0  0  0
   33.1349  -27.5768  -20.2856 C   0  0  0  0  0  0  0  0  0  0  0  0
   31.9989  -26.8556  -19.6299 C   0  0  0  0  0  0  0  0  0  0  0  0
   32.2273  -25.3591  -19.5880 C   0  0  2  0  0  0  0  0  0  0  0  0
   33.2090  -24.9966  -18.5799 N   0  0  0  0  0  0  0  0  0  0  0  0
   30.9674  -24.6532  -19.2493 C   0  0  0  0  0  0  0  0  0  0  0  0
   29.9127  -24.7581  -19.9530 O   0  0  0  0  0  0  0  0  0  0  0  0
   26.9499  -28.6995  -16.0210 O   0  0  0  0  0  0  0  0  0  0  0  0
   27.4671  -27.4017  -16.1077 C   0  0  0  0  0  0  0  0  0  0  0  0
   28.8135  -27.2133  -15.8999 C   0  0  0  0  0  0  0  0  0  0  0  0
   29.3440  -25.9431  -15.9804 C   0  0  0  0  0  0  0  0  0  0  0  0
   28.5429  -24.8377  -16.2690 C   0  0  0  0  0  0  0  0  0  0  0  0
   29.1507  -23.4925  -16.3429 C   0  0  0  0  0  0  0  0  0  0  0  0
   29.6155  -23.1575  -17.7229 C   0  0  2  0  0  0  0  0  0  0  0  0
   30.8264  -23.8050  -18.1204 N   0  0  0  0  0  0  0  0  0  0  0  0
   29.7441  -21.7235  -17.9778 C   0  0  0  0  0  0  0  0  0  0  0  0
   30.7619  -21.0871  -17.5633 O   0  0  0  0  0  0  0  0  0  0  0  0
   27.2037  -25.0503  -16.4722 C   0  0  0  0  0  0  0  0  0  0  0  0
   26.6654  -26.3121  -16.3944 C   0  0  0  0  0  0  0  0  0  0  0  0
   28.7809  -20.9451  -18.6834 N   0  0  0  0  0  0  0  0  0  0  0  0
   28.9279  -19.5355  -18.8366 C   0  0  1  0  0  0  0  0  0  0  0  0
   29.7519  -19.0522  -19.9657 C   0  0  0  0  0  0  0  0  0  0  0  0
   29.6080  -19.6624  -21.2934 C   0  0  0  0  0  0  0  0  0  0  0  0
   30.7460  -19.4131  -22.1979 C   0  0  0  0  0  0  0  0  0  0  0  0
   31.7765  -18.7605  -21.8251 O   0  0  0  0  0  0  0  0  0  0  0  0
   27.5669  -18.9403  -18.9338 C   0  0  0  0  0  0  0  0  0  0  0  0
   26.4334  -19.7325  -18.9970 O   0  0  0  0  0  0  0  0  0  0  0  0
   30.7488  -19.8793  -23.5023 O   0  0  0  0  0  0  0  0  0  0  0  0
   27.4134  -17.6942  -18.9608 O   0  0  0  0  0  0  0  0  0  0  0  0
  2  3  2  0
  2  1  1  0
  4  2  1  0
  5  4  1  0
  6  5  1  0
  6  7  1  1
  8  6  1  0
  9  8  2  0
 10 11  1  0
 11 12  2  0
 12 13  1  0
 14 15  1  0
 14 13  2  0
 16 15  1  1
 16 17  1  0
 17  8  1  0
 18 19  2  0
 18 16  1  0
 20 14  1  0
 21 20  2  0
 21 11  1  0
 22 18  1  0
 23 22  1  0
 23 24  1  6
 25 24  1  0
 26 25  1  0
 26 27  2  0
 28 23  1  0
 29 28  1  0
 30 26  1  0
 31 28  2  0
M  END
$$$$
