KFE.pdb
     RDKit          3D

 30 30  0  0  1  0  0  0  0  0999 V2000
   20.6141   -2.7407  -13.4399 N   0  0  0  0  0  0  0  0  0  0  0  0
   21.2286   -1.5511  -13.9463 C   0  0  1  0  0  0  0  0  0  0  0  0
   20.1312   -0.6296  -14.4406 C   0  0  0  0  0  0  0  0  0  0  0  0
   19.7709   -1.0436  -15.8399 C   0  0  0  0  0  0  0  0  0  0  0  0
   20.9578   -0.9261  -16.7823 C   0  0  0  0  0  0  0  0  0  0  0  0
   20.4258   -1.1442  -18.1837 C   0  0  0  0  0  0  0  0  0  0  0  0
   21.5461   -1.0397  -19.0899 N   0  0  0  0  0  0  0  0  0  0  0  0
   22.0289   -0.8478  -12.8781 C   0  0  0  0  0  0  0  0  0  0  0  0
   21.5287   -0.6500  -11.7480 O   0  0  0  0  0  0  0  0  0  0  0  0
   23.3495   -0.4072  -13.1457 N   0  0  0  0  0  0  0  0  0  0  0  0
   24.1063    0.2569  -12.1089 C   0  0  1  0  0  0  0  0  0  0  0  0
   25.4200   -0.4206  -11.8065 C   0  0  0  0  0  0  0  0  0  0  0  0
   25.4017   -1.2775  -10.6054 C   0  0  0  0  0  0  0  0  0  0  0  0
   25.7118   -0.8056   -9.3514 C   0  0  0  0  0  0  0  0  0  0  0  0
   25.6766   -1.6248   -8.2282 C   0  0  0  0  0  0  0  0  0  0  0  0
   25.3230   -2.9447   -8.3664 C   0  0  0  0  0  0  0  0  0  0  0  0
   25.0107   -3.4291   -9.6143 C   0  0  0  0  0  0  0  0  0  0  0  0
   25.0505   -2.6039  -10.7175 C   0  0  0  0  0  0  0  0  0  0  0  0
   24.1841    1.7075  -12.3089 C   0  0  0  0  0  0  0  0  0  0  0  0
   24.4082    2.2396  -13.4339 O   0  0  0  0  0  0  0  0  0  0  0  0
   24.0135    2.6420  -11.2448 N   0  0  0  0  0  0  0  0  0  0  0  0
   24.1455    4.1149  -11.4935 C   0  0  1  0  0  0  0  0  0  0  0  0
   22.9645    4.7568  -10.8798 C   0  0  0  0  0  0  0  0  0  0  0  0
   21.7206    4.8226  -11.6482 C   0  0  0  0  0  0  0  0  0  0  0  0
   20.5402    5.4606  -11.0521 C   0  0  0  0  0  0  0  0  0  0  0  0
   20.5194    5.9082   -9.8534 O   0  0  0  0  0  0  0  0  0  0  0  0
   25.4641    4.4544  -10.9451 C   0  0  0  0  0  0  0  0  0  0  0  0
   25.9202    5.7932  -10.9214 O   0  0  0  0  0  0  0  0  0  0  0  0
   19.3387    5.6289  -11.7643 O   0  0  0  0  0  0  0  0  0  0  0  0
   26.2824    3.6402  -10.4655 O   0  0  0  0  0  0  0  0  0  0  0  0
  2  1  1  1
  2  3  1  0
  4  5  1  0
  4  3  1  0
  6  5  1  0
  7  6  1  0
  8  9  2  0
  8  2  1  0
 10  8  1  0
 11 10  1  0
 11 12  1  6
 13 12  1  0
 13 14  2  0
 15 14  1  0
 16 15  2  0
 17 18  2  0
 17 16  1  0
 18 13  1  0
 19 21  1  0
 19 11  1  0
 20 19  2  0
 22 21  1  0
 22 27  1  0
 22 23  1  1
 23 24  1  0
 24 25  1  0
 25 26  2  0
 25 29  1  0
 27 28  1  0
 30 27  2  0
M  END
$$$$
