KFE.pdb
     RDKit          3D

 30 30  0  0  1  0  0  0  0  0999 V2000
   27.6150  -21.9566  -14.0152 N   0  0  0  0  0  0  0  0  0  0  0  0
   27.8545  -20.8725  -13.1114 C   0  0  1  0  0  0  0  0  0  0  0  0
   26.9714  -19.7122  -13.5254 C   0  0  0  0  0  0  0  0  0  0  0  0
   27.2429  -19.4141  -14.9734 C   0  0  0  0  0  0  0  0  0  0  0  0
   28.0610  -18.1438  -15.1403 C   0  0  0  0  0  0  0  0  0  0  0  0
   27.1913  -17.1605  -15.8960 C   0  0  0  0  0  0  0  0  0  0  0  0
   27.5652  -17.2383  -17.2892 N   0  0  0  0  0  0  0  0  0  0  0  0
   27.5352  -21.2615  -11.6891 C   0  0  0  0  0  0  0  0  0  0  0  0
   26.4819  -21.8863  -11.4312 O   0  0  0  0  0  0  0  0  0  0  0  0
   28.4235  -20.9230  -10.6373 N   0  0  0  0  0  0  0  0  0  0  0  0
   27.9283  -20.8371   -9.2822 C   0  0  1  0  0  0  0  0  0  0  0  0
   28.9378  -20.2677   -8.3164 C   0  0  0  0  0  0  0  0  0  0  0  0
   28.4515  -20.1437   -6.9289 C   0  0  0  0  0  0  0  0  0  0  0  0
   28.5233  -21.1747   -6.0216 C   0  0  0  0  0  0  0  0  0  0  0  0
   28.0718  -21.0358   -4.7136 C   0  0  0  0  0  0  0  0  0  0  0  0
   27.5373  -19.8374   -4.3079 C   0  0  0  0  0  0  0  0  0  0  0  0
   27.4597  -18.7987   -5.2048 C   0  0  0  0  0  0  0  0  0  0  0  0
   27.9117  -18.9529   -6.4978 C   0  0  0  0  0  0  0  0  0  0  0  0
   26.5897  -20.2430   -9.2077 C   0  0  0  0  0  0  0  0  0  0  0  0
   26.2928  -19.1372   -9.7445 O   0  0  0  0  0  0  0  0  0  0  0  0
   25.5075  -20.8667   -8.5190 N   0  0  0  0  0  0  0  0  0  0  0  0
   24.1143  -20.3242   -8.6353 C   0  0  1  0  0  0  0  0  0  0  0  0
   23.7375  -20.4235  -10.0607 C   0  0  0  0  0  0  0  0  0  0  0  0
   22.3569  -20.1274  -10.4458 C   0  0  0  0  0  0  0  0  0  0  0  0
   21.9583  -20.2615  -11.8525 C   0  0  0  0  0  0  0  0  0  0  0  0
   21.6691  -19.2597  -12.5944 O   0  0  0  0  0  0  0  0  0  0  0  0
   23.3397  -21.1157   -7.6719 C   0  0  0  0  0  0  0  0  0  0  0  0
   21.9714  -20.8428   -7.4383 O   0  0  0  0  0  0  0  0  0  0  0  0
   21.8680  -21.5121  -12.4905 O   0  0  0  0  0  0  0  0  0  0  0  0
   23.7822  -22.0655   -6.9903 O   0  0  0  0  0  0  0  0  0  0  0  0
  2  1  1  6
  2  3  1  0
  4  5  1  0
  4  3  1  0
  6  5  1  0
  7  6  1  0
  8  9  2  0
  8  2  1  0
 10  8  1  0
 11 10  1  0
 11 12  1  1
 13 12  1  0
 13 14  2  0
 15 14  1  0
 16 15  2  0
 17 18  2  0
 17 16  1  0
 18 13  1  0
 19 21  1  0
 19 11  1  0
 20 19  2  0
 22 21  1  0
 22 27  1  0
 22 23  1  6
 23 24  1  0
 24 25  1  0
 25 26  2  0
 25 29  1  0
 27 28  1  0
 30 27  2  0
M  END
$$$$
