KFE.pdb
     RDKit          3D

 30 30  0  0  1  0  0  0  0  0999 V2000
   26.6217  -19.6624  -13.2080 N   0  0  0  0  0  0  0  0  0  0  0  0
   26.4062  -21.0335  -12.8570 C   0  0  1  0  0  0  0  0  0  0  0  0
   27.4339  -21.8728  -13.5896 C   0  0  0  0  0  0  0  0  0  0  0  0
   27.3638  -21.5247  -15.0501 C   0  0  0  0  0  0  0  0  0  0  0  0
   27.5441  -20.0329  -15.2801 C   0  0  0  0  0  0  0  0  0  0  0  0
   27.5908  -19.8248  -16.7797 C   0  0  0  0  0  0  0  0  0  0  0  0
   27.7172  -18.4047  -17.0129 N   0  0  0  0  0  0  0  0  0  0  0  0
   26.5507  -21.2501  -11.3710 C   0  0  0  0  0  0  0  0  0  0  0  0
   26.3097  -22.3735  -10.8747 O   0  0  0  0  0  0  0  0  0  0  0  0
   26.9593  -20.1859  -10.5283 N   0  0  0  0  0  0  0  0  0  0  0  0
   26.9572  -20.3672   -9.0944 C   0  0  1  0  0  0  0  0  0  0  0  0
   28.1324  -19.7123   -8.4116 C   0  0  0  0  0  0  0  0  0  0  0  0
   28.0847  -19.7589   -6.9376 C   0  0  0  0  0  0  0  0  0  0  0  0
   27.7111  -18.6793   -6.1720 C   0  0  0  0  0  0  0  0  0  0  0  0
   27.6592  -18.7453   -4.7839 C   0  0  0  0  0  0  0  0  0  0  0  0
   27.9892  -19.9189   -4.1512 C   0  0  0  0  0  0  0  0  0  0  0  0
   28.3644  -21.0055   -4.9047 C   0  0  0  0  0  0  0  0  0  0  0  0
   28.4107  -20.9235   -6.2798 C   0  0  0  0  0  0  0  0  0  0  0  0
   25.6500  -20.0859   -8.4924 C   0  0  0  0  0  0  0  0  0  0  0  0
   25.0962  -18.9500   -8.5407 O   0  0  0  0  0  0  0  0  0  0  0  0
   24.8926  -21.0755   -7.7985 N   0  0  0  0  0  0  0  0  0  0  0  0
   23.5453  -20.7454   -7.2287 C   0  0  1  0  0  0  0  0  0  0  0  0
   22.7022  -20.3048   -8.3594 C   0  0  0  0  0  0  0  0  0  0  0  0
   22.1383  -21.3174   -9.2531 C   0  0  0  0  0  0  0  0  0  0  0  0
   21.2800  -20.8955  -10.3671 C   0  0  0  0  0  0  0  0  0  0  0  0
   20.7447  -21.7199  -11.1866 O   0  0  0  0  0  0  0  0  0  0  0  0
   23.1462  -21.9678   -6.5206 C   0  0  0  0  0  0  0  0  0  0  0  0
   24.0003  -23.0945   -6.4748 O   0  0  0  0  0  0  0  0  0  0  0  0
   20.9805  -19.5430  -10.6126 O   0  0  0  0  0  0  0  0  0  0  0  0
   22.0661  -22.1357   -5.9143 O   0  0  0  0  0  0  0  0  0  0  0  0
  2  1  1  1
  2  3  1  0
  4  5  1  0
  4  3  1  0
  6  5  1  0
  7  6  1  0
  8  9  2  0
  8  2  1  0
 10  8  1  0
 11 10  1  0
 11 12  1  1
 13 12  1  0
 13 14  2  0
 15 14  1  0
 16 15  2  0
 17 18  2  0
 17 16  1  0
 18 13  1  0
 19 21  1  0
 19 11  1  0
 20 19  2  0
 22 21  1  0
 22 27  1  0
 22 23  1  6
 23 24  1  0
 24 25  1  0
 25 26  2  0
 25 29  1  0
 27 28  1  0
 30 27  2  0
M  END
$$$$
