KFE.pdb
     RDKit          3D

 30 30  0  0  1  0  0  0  0  0999 V2000
   20.8320  -27.9876  -11.2787 N   0  0  0  0  0  0  0  0  0  0  0  0
   19.6567  -28.2530  -10.5056 C   0  0  1  0  0  0  0  0  0  0  0  0
   19.8728  -29.5510   -9.7532 C   0  0  0  0  0  0  0  0  0  0  0  0
   19.9739  -30.6618  -10.7607 C   0  0  0  0  0  0  0  0  0  0  0  0
   20.1786  -32.0103  -10.0897 C   0  0  0  0  0  0  0  0  0  0  0  0
   20.2890  -33.0371  -11.1978 C   0  0  0  0  0  0  0  0  0  0  0  0
   20.4492  -34.3293  -10.5720 N   0  0  0  0  0  0  0  0  0  0  0  0
   19.3840  -27.1433   -9.5205 C   0  0  0  0  0  0  0  0  0  0  0  0
   20.3348  -26.5018   -9.0195 O   0  0  0  0  0  0  0  0  0  0  0  0
   18.0527  -26.8199   -9.1561 N   0  0  0  0  0  0  0  0  0  0  0  0
   17.7959  -25.6487   -8.3492 C   0  0  1  0  0  0  0  0  0  0  0  0
   17.1800  -24.5138   -9.1294 C   0  0  0  0  0  0  0  0  0  0  0  0
   18.0267  -23.9938  -10.2202 C   0  0  0  0  0  0  0  0  0  0  0  0
   18.0358  -24.5443  -11.4805 C   0  0  0  0  0  0  0  0  0  0  0  0
   18.8307  -24.0328  -12.5004 C   0  0  0  0  0  0  0  0  0  0  0  0
   19.6330  -22.9464  -12.2504 C   0  0  0  0  0  0  0  0  0  0  0  0
   19.6334  -22.3866  -10.9951 C   0  0  0  0  0  0  0  0  0  0  0  0
   18.8395  -22.9057   -9.9950 C   0  0  0  0  0  0  0  0  0  0  0  0
   17.1277  -25.9709   -7.0843 C   0  0  0  0  0  0  0  0  0  0  0  0
   16.0733  -26.6657   -7.0164 O   0  0  0  0  0  0  0  0  0  0  0  0
   17.6145  -25.5237   -5.8203 N   0  0  0  0  0  0  0  0  0  0  0  0
   16.8539  -25.8174   -4.5617 C   0  0  1  0  0  0  0  0  0  0  0  0
   17.8546  -25.9576   -3.4836 C   0  0  0  0  0  0  0  0  0  0  0  0
   18.7466  -27.1179   -3.4979 C   0  0  0  0  0  0  0  0  0  0  0  0
   18.8407  -27.9672   -2.3040 C   0  0  0  0  0  0  0  0  0  0  0  0
   18.3816  -27.6184   -1.1615 O   0  0  0  0  0  0  0  0  0  0  0  0
   15.8938  -24.7121   -4.4568 C   0  0  0  0  0  0  0  0  0  0  0  0
   14.7951  -24.7837   -3.5687 O   0  0  0  0  0  0  0  0  0  0  0  0
   19.4454  -29.2371   -2.3327 O   0  0  0  0  0  0  0  0  0  0  0  0
   15.9411  -23.6453   -5.1066 O   0  0  0  0  0  0  0  0  0  0  0  0
  2  1  1  1
  2  3  1  0
  4  5  1  0
  4  3  1  0
  6  5  1  0
  7  6  1  0
  8  9  2  0
  8  2  1  0
 10  8  1  0
 11 10  1  0
 11 12  1  6
 13 12  1  0
 13 14  2  0
 15 14  1  0
 16 15  2  0
 17 18  2  0
 17 16  1  0
 18 13  1  0
 19 21  1  0
 19 11  1  0
 20 19  2  0
 22 21  1  0
 22 27  1  0
 22 23  1  1
 23 24  1  0
 24 25  1  0
 25 26  2  0
 25 29  1  0
 27 28  1  0
 30 27  2  0
M  END
$$$$
