KFE.pdb
     RDKit          3D

 30 30  0  0  1  0  0  0  0  0999 V2000
   27.6225  -35.9160   -7.3222 N   0  0  0  0  0  0  0  0  0  0  0  0
   26.3765  -36.0497   -6.6300 C   0  0  1  0  0  0  0  0  0  0  0  0
   26.1341  -37.5249   -6.3802 C   0  0  0  0  0  0  0  0  0  0  0  0
   26.9777  -38.3058   -7.3485 C   0  0  0  0  0  0  0  0  0  0  0  0
   26.6612  -39.7917   -7.2960 C   0  0  0  0  0  0  0  0  0  0  0  0
   27.5493  -40.4639   -8.3225 C   0  0  0  0  0  0  0  0  0  0  0  0
   27.1768  -41.8590   -8.3656 N   0  0  0  0  0  0  0  0  0  0  0  0
   26.3981  -35.3160   -5.3119 C   0  0  0  0  0  0  0  0  0  0  0  0
   27.4358  -35.3140   -4.6122 O   0  0  0  0  0  0  0  0  0  0  0  0
   25.2464  -34.6255   -4.8574 N   0  0  0  0  0  0  0  0  0  0  0  0
   25.3096  -33.8540   -3.6369 C   0  0  1  0  0  0  0  0  0  0  0  0
   24.8883  -32.4170   -3.8205 C   0  0  0  0  0  0  0  0  0  0  0  0
   24.7019  -31.6707   -2.5614 C   0  0  0  0  0  0  0  0  0  0  0  0
   25.7431  -31.3708   -1.7145 C   0  0  0  0  0  0  0  0  0  0  0  0
   25.5507  -30.6549   -0.5379 C   0  0  0  0  0  0  0  0  0  0  0  0
   24.2875  -30.2313   -0.2045 C   0  0  0  0  0  0  0  0  0  0  0  0
   23.2380  -30.5243   -1.0423 C   0  0  0  0  0  0  0  0  0  0  0  0
   23.4456  -31.2350   -2.2049 C   0  0  0  0  0  0  0  0  0  0  0  0
   24.6915  -34.5449   -2.5007 C   0  0  0  0  0  0  0  0  0  0  0  0
   23.5059  -34.9842   -2.5200 O   0  0  0  0  0  0  0  0  0  0  0  0
   25.3804  -34.7781   -1.2737 N   0  0  0  0  0  0  0  0  0  0  0  0
   24.7074  -35.5014   -0.1455 C   0  0  1  0  0  0  0  0  0  0  0  0
   25.7040  -36.4390    0.4124 C   0  0  0  0  0  0  0  0  0  0  0  0
   25.3171  -37.2883    1.5398 C   0  0  0  0  0  0  0  0  0  0  0  0
   26.3151  -38.1795    2.1444 C   0  0  0  0  0  0  0  0  0  0  0  0
   27.5705  -37.9311    2.1329 O   0  0  0  0  0  0  0  0  0  0  0  0
   24.2214  -34.4278    0.7295 C   0  0  0  0  0  0  0  0  0  0  0  0
   23.3993  -33.3931    0.2249 O   0  0  0  0  0  0  0  0  0  0  0  0
   25.9581  -39.3788    2.7872 O   0  0  0  0  0  0  0  0  0  0  0  0
   24.4685  -34.3180    1.9499 O   0  0  0  0  0  0  0  0  0  0  0  0
  2  1  1  1
  2  3  1  0
  4  5  1  0
  4  3  1  0
  6  5  1  0
  7  6  1  0
  8  9  2  0
  8  2  1  0
 10  8  1  0
 11 10  1  0
 11 12  1  6
 13 12  1  0
 13 14  2  0
 15 14  1  0
 16 15  2  0
 17 18  2  0
 17 16  1  0
 18 13  1  0
 19 21  1  0
 19 11  1  0
 20 19  2  0
 22 21  1  0
 22 27  1  0
 22 23  1  1
 23 24  1  0
 24 25  1  0
 25 26  2  0
 25 29  1  0
 27 28  1  0
 30 27  2  0
M  END
$$$$
