KFE.pdb
     RDKit          3D

 30 30  0  0  1  0  0  0  0  0999 V2000
   26.6934  -22.3168  -17.1271 N   0  0  0  0  0  0  0  0  0  0  0  0
   27.0426  -21.2800  -16.2038 C   0  0  1  0  0  0  0  0  0  0  0  0
   26.5517  -19.9624  -16.7698 C   0  0  0  0  0  0  0  0  0  0  0  0
   26.5493  -20.0717  -18.2689 C   0  0  0  0  0  0  0  0  0  0  0  0
   27.8445  -19.5516  -18.8709 C   0  0  0  0  0  0  0  0  0  0  0  0
   27.6881  -19.6276  -20.3756 C   0  0  0  0  0  0  0  0  0  0  0  0
   28.9463  -19.2239  -20.9596 N   0  0  0  0  0  0  0  0  0  0  0  0
   26.4111  -21.5105  -14.8531 C   0  0  0  0  0  0  0  0  0  0  0  0
   25.3321  -22.1385  -14.7643 O   0  0  0  0  0  0  0  0  0  0  0  0
   27.0334  -21.0189  -13.6781 N   0  0  0  0  0  0  0  0  0  0  0  0
   26.3064  -21.0204  -12.4290 C   0  0  1  0  0  0  0  0  0  0  0  0
   27.1602  -20.6401  -11.2447 C   0  0  0  0  0  0  0  0  0  0  0  0
   26.4147  -20.4818   -9.9813 C   0  0  0  0  0  0  0  0  0  0  0  0
   25.8110  -21.5368   -9.3379 C   0  0  0  0  0  0  0  0  0  0  0  0
   25.1234  -21.3714   -8.1405 C   0  0  0  0  0  0  0  0  0  0  0  0
   25.0397  -20.1214   -7.5775 C   0  0  0  0  0  0  0  0  0  0  0  0
   25.6386  -19.0584   -8.2104 C   0  0  0  0  0  0  0  0  0  0  0  0
   26.3165  -19.2393   -9.3967 C   0  0  0  0  0  0  0  0  0  0  0  0
   25.0223  -20.3185  -12.5232 C   0  0  0  0  0  0  0  0  0  0  0  0
   24.8878  -19.1955  -13.0887 O   0  0  0  0  0  0  0  0  0  0  0  0
   23.8138  -20.8475  -11.9809 N   0  0  0  0  0  0  0  0  0  0  0  0
   22.5075  -20.1432  -12.1965 C   0  0  1  0  0  0  0  0  0  0  0  0
   22.1577  -20.3235  -13.6208 C   0  0  0  0  0  0  0  0  0  0  0  0
   20.8118  -19.9601  -14.0663 C   0  0  0  0  0  0  0  0  0  0  0  0
   20.6410  -19.2748  -15.3535 C   0  0  0  0  0  0  0  0  0  0  0  0
   21.5419  -19.2622  -16.2623 O   0  0  0  0  0  0  0  0  0  0  0  0
   21.6110  -20.7367  -11.1972 C   0  0  0  0  0  0  0  0  0  0  0  0
   21.9402  -21.9532  -10.5547 O   0  0  0  0  0  0  0  0  0  0  0  0
   19.4629  -18.5799  -15.6826 O   0  0  0  0  0  0  0  0  0  0  0  0
   20.5181  -20.2567  -10.8262 O   0  0  0  0  0  0  0  0  0  0  0  0
  2  1  1  6
  2  3  1  0
  4  5  1  0
  4  3  1  0
  6  5  1  0
  7  6  1  0
  8  9  2  0
  8  2  1  0
 10  8  1  0
 11 10  1  0
 11 12  1  1
 13 12  1  0
 13 14  2  0
 15 14  1  0
 16 15  2  0
 17 18  2  0
 17 16  1  0
 18 13  1  0
 19 21  1  0
 19 11  1  0
 20 19  2  0
 22 21  1  0
 22 27  1  0
 22 23  1  6
 23 24  1  0
 24 25  1  0
 25 26  2  0
 25 29  1  0
 27 28  1  0
 30 27  2  0
M  END
$$$$
