KFE.pdb
     RDKit          3D

 30 30  0  0  1  0  0  0  0  0999 V2000
   28.0910  -22.5437  -16.8057 N   0  0  0  0  0  0  0  0  0  0  0  0
   27.4050  -21.3163  -16.5370 C   0  0  1  0  0  0  0  0  0  0  0  0
   26.5973  -20.9510  -17.7665 C   0  0  0  0  0  0  0  0  0  0  0  0
   27.4907  -21.0863  -18.9676 C   0  0  0  0  0  0  0  0  0  0  0  0
   26.9642  -22.1259  -19.9436 C   0  0  0  0  0  0  0  0  0  0  0  0
   27.8739  -22.0887  -21.1542 C   0  0  0  0  0  0  0  0  0  0  0  0
   27.4053  -23.0981  -22.0753 N   0  0  0  0  0  0  0  0  0  0  0  0
   26.4801  -21.4508  -15.3527 C   0  0  0  0  0  0  0  0  0  0  0  0
   25.9589  -22.5572  -15.0865 O   0  0  0  0  0  0  0  0  0  0  0  0
   26.1953  -20.3283  -14.5350 N   0  0  0  0  0  0  0  0  0  0  0  0
   25.3726  -20.4908  -13.3578 C   0  0  1  0  0  0  0  0  0  0  0  0
   25.9149  -19.7671  -12.1502 C   0  0  0  0  0  0  0  0  0  0  0  0
   27.1144  -20.3873  -11.5556 C   0  0  0  0  0  0  0  0  0  0  0  0
   27.1059  -20.9823  -10.3157 C   0  0  0  0  0  0  0  0  0  0  0  0
   28.2430  -21.5738   -9.7764 C   0  0  0  0  0  0  0  0  0  0  0  0
   29.4128  -21.5678  -10.4960 C   0  0  0  0  0  0  0  0  0  0  0  0
   29.4350  -20.9764  -11.7366 C   0  0  0  0  0  0  0  0  0  0  0  0
   28.2990  -20.3944  -12.2569 C   0  0  0  0  0  0  0  0  0  0  0  0
   23.9488  -20.2696  -13.6302 C   0  0  0  0  0  0  0  0  0  0  0  0
   23.4971  -19.1952  -14.1209 O   0  0  0  0  0  0  0  0  0  0  0  0
   22.9514  -21.2532  -13.3616 N   0  0  0  0  0  0  0  0  0  0  0  0
   21.5216  -21.0159  -13.7467 C   0  0  1  0  0  0  0  0  0  0  0  0
   21.0020  -22.2994  -14.2627 C   0  0  0  0  0  0  0  0  0  0  0  0
   20.4808  -23.2813  -13.3108 C   0  0  0  0  0  0  0  0  0  0  0  0
   19.9075  -24.5360  -13.8134 C   0  0  0  0  0  0  0  0  0  0  0  0
   19.5293  -25.4874  -13.0456 O   0  0  0  0  0  0  0  0  0  0  0  0
   20.9069  -20.4759  -12.5279 C   0  0  0  0  0  0  0  0  0  0  0  0
   19.6733  -19.7855  -12.5789 O   0  0  0  0  0  0  0  0  0  0  0  0
   19.7291  -24.7818  -15.1870 O   0  0  0  0  0  0  0  0  0  0  0  0
   21.3822  -20.5632  -11.3751 O   0  0  0  0  0  0  0  0  0  0  0  0
  2  1  1  6
  2  3  1  0
  4  5  1  0
  4  3  1  0
  6  5  1  0
  7  6  1  0
  8  9  2  0
  8  2  1  0
 10  8  1  0
 11 10  1  0
 11 12  1  1
 13 12  1  0
 13 14  2  0
 15 14  1  0
 16 15  2  0
 17 18  2  0
 17 16  1  0
 18 13  1  0
 19 21  1  0
 19 11  1  0
 20 19  2  0
 22 21  1  0
 22 27  1  0
 22 23  1  1
 23 24  1  0
 24 25  1  0
 25 26  2  0
 25 29  1  0
 27 28  1  0
 30 27  2  0
M  END
$$$$
