MSR.pdb
     RDKit          3D

 26 25  0  0  1  0  0  0  0  0999 V2000
   24.9492  -20.7187   -7.7200 C   0  0  0  0  0  0  0  0  0  0  0  0
   26.5945  -19.9453   -7.9331 S   0  0  0  0  0  0  0  0  0  0  0  0
   27.2520  -20.4602   -9.5643 C   0  0  0  0  0  0  0  0  0  0  0  0
   26.0748  -20.7419  -10.4546 C   0  0  0  0  0  0  0  0  0  0  0  0
   26.4112  -21.2845  -11.8021 C   0  0  2  0  0  0  0  0  0  0  0  0
   27.4190  -20.4493  -12.4662 N   0  0  0  0  0  0  0  0  0  0  0  0
   25.2256  -21.3124  -12.6816 C   0  0  0  0  0  0  0  0  0  0  0  0
   24.6011  -20.2315  -12.9471 O   0  0  0  0  0  0  0  0  0  0  0  0
   23.9427  -24.7110  -14.7990 O   0  0  0  0  0  0  0  0  0  0  0  0
   23.8346  -23.4336  -15.3035 C   0  0  0  0  0  0  0  0  0  0  0  0
   23.6105  -22.4741  -14.1462 C   0  0  2  0  0  0  0  0  0  0  0  0
   24.7548  -22.5025  -13.2439 N   0  0  0  0  0  0  0  0  0  0  0  0
   22.3531  -22.7160  -13.4199 C   0  0  0  0  0  0  0  0  0  0  0  0
   22.4479  -23.1252  -12.2230 O   0  0  0  0  0  0  0  0  0  0  0  0
   18.6137  -24.4078   -7.3406 N   0  0  0  0  0  0  0  0  0  0  0  0
   18.0431  -24.8538   -8.5592 C   0  0  0  0  0  0  0  0  0  0  0  0
   17.4672  -26.0082   -8.5569 N   0  0  0  0  0  0  0  0  0  0  0  0
   18.1248  -24.0287   -9.7149 N   0  0  0  0  0  0  0  0  0  0  0  0
   18.8565  -22.8060   -9.6668 C   0  0  0  0  0  0  0  0  0  0  0  0
   18.8007  -21.9538  -10.8827 C   0  0  0  0  0  0  0  0  0  0  0  0
   19.9687  -21.9620  -11.7852 C   0  0  0  0  0  0  0  0  0  0  0  0
   19.8379  -22.6557  -13.0887 C   0  0  2  0  0  0  0  0  0  0  0  0
   21.0449  -22.5419  -13.9099 N   0  0  0  0  0  0  0  0  0  0  0  0
   18.6082  -22.4011  -13.8557 C   0  0  0  0  0  0  0  0  0  0  0  0
   18.6255  -21.5022  -14.7301 O   0  0  0  0  0  0  0  0  0  0  0  0
   17.4246  -23.0906  -13.6805 O   0  0  0  0  0  0  0  0  0  0  0  0
  2  1  1  0
  3  2  1  0
  3  4  1  0
  4  5  1  0
  5  7  1  0
  5  6  1  6
  7  8  2  0
  9 10  1  0
 11 10  1  6
 12 11  1  0
 12  7  1  0
 13 11  1  0
 14 13  2  0
 16 15  1  0
 17 16  2  0
 18 16  1  0
 19 20  1  0
 19 18  1  0
 20 21  1  0
 22 21  1  1
 22 23  1  0
 23 13  1  0
 24 26  1  0
 24 22  1  0
 25 24  2  0
M  END
$$$$
