MSR.pdb
     RDKit          3D

 26 25  0  0  1  0  0  0  0  0999 V2000
   28.6115  -14.2276  -14.6663 C   0  0  0  0  0  0  0  0  0  0  0  0
   27.7208  -15.7809  -14.2862 S   0  0  0  0  0  0  0  0  0  0  0  0
   26.9921  -16.4087  -15.8461 C   0  0  0  0  0  0  0  0  0  0  0  0
   26.3480  -17.7315  -15.5407 C   0  0  0  0  0  0  0  0  0  0  0  0
   27.2290  -18.7279  -14.8668 C   0  0  2  0  0  0  0  0  0  0  0  0
   28.2454  -19.2397  -15.7937 N   0  0  0  0  0  0  0  0  0  0  0  0
   26.4563  -19.8913  -14.3877 C   0  0  0  0  0  0  0  0  0  0  0  0
   26.3382  -20.9272  -15.1238 O   0  0  0  0  0  0  0  0  0  0  0  0
   24.6479  -20.2417  -10.5462 O   0  0  0  0  0  0  0  0  0  0  0  0
   25.2395  -21.2881  -11.2193 C   0  0  0  0  0  0  0  0  0  0  0  0
   25.0678  -21.0612  -12.7124 C   0  0  2  0  0  0  0  0  0  0  0  0
   25.8387  -19.8981  -13.1336 N   0  0  0  0  0  0  0  0  0  0  0  0
   23.6606  -20.9475  -13.1295 C   0  0  0  0  0  0  0  0  0  0  0  0
   23.2240  -19.7819  -13.3743 O   0  0  0  0  0  0  0  0  0  0  0  0
   17.9543  -25.6091  -13.5556 N   0  0  0  0  0  0  0  0  0  0  0  0
   17.0215  -25.0256  -14.4493 C   0  0  0  0  0  0  0  0  0  0  0  0
   15.7686  -25.1946  -14.1926 N   0  0  0  0  0  0  0  0  0  0  0  0
   17.4921  -24.2905  -15.5724 N   0  0  0  0  0  0  0  0  0  0  0  0
   18.8861  -24.0303  -15.7200 C   0  0  0  0  0  0  0  0  0  0  0  0
   19.4248  -22.8671  -14.9686 C   0  0  0  0  0  0  0  0  0  0  0  0
   20.8113  -22.9506  -14.4690 C   0  0  0  0  0  0  0  0  0  0  0  0
   21.3392  -21.8100  -13.6830 C   0  0  2  0  0  0  0  0  0  0  0  0
   22.7369  -21.9977  -13.2889 N   0  0  0  0  0  0  0  0  0  0  0  0
   20.5018  -21.3227  -12.5756 C   0  0  0  0  0  0  0  0  0  0  0  0
   20.7893  -21.6793  -11.4082 O   0  0  0  0  0  0  0  0  0  0  0  0
   19.4113  -20.4901  -12.7323 O   0  0  0  0  0  0  0  0  0  0  0  0
  2  1  1  0
  3  2  1  0
  3  4  1  0
  4  5  1  0
  5  7  1  0
  5  6  1  6
  7  8  2  0
  9 10  1  0
 11 10  1  1
 12 11  1  0
 12  7  1  0
 13 11  1  0
 14 13  2  0
 16 15  1  0
 17 16  2  0
 18 16  1  0
 19 20  1  0
 19 18  1  0
 20 21  1  0
 22 21  1  1
 22 23  1  0
 23 13  1  0
 24 26  1  0
 24 22  1  0
 25 24  2  0
M  END
$$$$
