MSR.pdb
     RDKit          3D

 26 25  0  0  1  0  0  0  0  0999 V2000
   12.1318   -9.7242   -8.8428 C   0  0  0  0  0  0  0  0  0  0  0  0
   13.6365   -9.1944   -9.7406 S   0  0  0  0  0  0  0  0  0  0  0  0
   13.1795   -8.9221  -11.4943 C   0  0  0  0  0  0  0  0  0  0  0  0
   14.3939   -8.3833  -12.1965 C   0  0  0  0  0  0  0  0  0  0  0  0
   14.1708   -7.9360  -13.6012 C   0  0  2  0  0  0  0  0  0  0  0  0
   13.9358   -9.0838  -14.4852 N   0  0  0  0  0  0  0  0  0  0  0  0
   15.3474   -7.2174  -14.1298 C   0  0  0  0  0  0  0  0  0  0  0  0
   16.2176   -7.8404  -14.8251 O   0  0  0  0  0  0  0  0  0  0  0  0
   16.0635   -3.2283  -13.3278 O   0  0  0  0  0  0  0  0  0  0  0  0
   16.3550   -3.6646  -14.6015 C   0  0  0  0  0  0  0  0  0  0  0  0
   16.6431   -5.1560  -14.5478 C   0  0  2  0  0  0  0  0  0  0  0  0
   15.5450   -5.8543  -13.8911 N   0  0  0  0  0  0  0  0  0  0  0  0
   17.9335   -5.4809  -13.9183 C   0  0  0  0  0  0  0  0  0  0  0  0
   17.9061   -5.8561  -12.7069 O   0  0  0  0  0  0  0  0  0  0  0  0
   23.6716  -11.5518  -14.7453 N   0  0  0  0  0  0  0  0  0  0  0  0
   22.2860  -11.2550  -14.7094 C   0  0  0  0  0  0  0  0  0  0  0  0
   21.4743  -12.1595  -15.1422 N   0  0  0  0  0  0  0  0  0  0  0  0
   21.8513   -9.9972  -14.2074 N   0  0  0  0  0  0  0  0  0  0  0  0
   22.7592   -8.8990  -14.1549 C   0  0  0  0  0  0  0  0  0  0  0  0
   22.2101   -7.6104  -13.6592 C   0  0  0  0  0  0  0  0  0  0  0  0
   20.9404   -7.1322  -14.2405 C   0  0  0  0  0  0  0  0  0  0  0  0
   20.4508   -5.7919  -13.8391 C   0  0  2  0  0  0  0  0  0  0  0  0
   19.2064   -5.4216  -14.5165 N   0  0  0  0  0  0  0  0  0  0  0  0
   21.4363   -4.6992  -13.8337 C   0  0  0  0  0  0  0  0  0  0  0  0
   21.2398   -3.7145  -14.5851 O   0  0  0  0  0  0  0  0  0  0  0  0
   22.5732   -4.6802  -13.0501 O   0  0  0  0  0  0  0  0  0  0  0  0
  2  1  1  0
  3  2  1  0
  3  4  1  0
  4  5  1  0
  5  7  1  0
  5  6  1  6
  7  8  2  0
  9 10  1  0
 11 10  1  1
 12 11  1  0
 12  7  1  0
 13 11  1  0
 14 13  2  0
 16 15  1  0
 17 16  2  0
 18 16  1  0
 19 20  1  0
 19 18  1  0
 20 21  1  0
 22 21  1  6
 22 23  1  0
 23 13  1  0
 24 26  1  0
 24 22  1  0
 25 24  2  0
M  END
$$$$
