MSR.pdb
     RDKit          3D

 26 25  0  0  1  0  0  0  0  0999 V2000
   25.3802  -27.9232  -17.2953 C   0  0  0  0  0  0  0  0  0  0  0  0
   25.9722  -28.5758  -18.8997 S   0  0  0  0  0  0  0  0  0  0  0  0
   24.8886  -29.9761  -19.3728 C   0  0  0  0  0  0  0  0  0  0  0  0
   25.0606  -31.0481  -18.3340 C   0  0  0  0  0  0  0  0  0  0  0  0
   26.3266  -31.8300  -18.4298 C   0  0  2  0  0  0  0  0  0  0  0  0
   26.3062  -32.7184  -19.5979 N   0  0  0  0  0  0  0  0  0  0  0  0
   26.5223  -32.6837  -17.2410 C   0  0  0  0  0  0  0  0  0  0  0  0
   25.8766  -33.7787  -17.1272 O   0  0  0  0  0  0  0  0  0  0  0  0
   28.5085  -31.4279  -13.8057 O   0  0  0  0  0  0  0  0  0  0  0  0
   28.7120  -32.7331  -14.1964 C   0  0  0  0  0  0  0  0  0  0  0  0
   27.5268  -33.1763  -15.0385 C   0  0  2  0  0  0  0  0  0  0  0  0
   27.4059  -32.3283  -16.2178 N   0  0  0  0  0  0  0  0  0  0  0  0
   26.2616  -33.2281  -14.2875 C   0  0  0  0  0  0  0  0  0  0  0  0
   25.6272  -32.1383  -14.1506 O   0  0  0  0  0  0  0  0  0  0  0  0
   19.0990  -34.9799  -16.8238 N   0  0  0  0  0  0  0  0  0  0  0  0
   19.4649  -34.0346  -15.8328 C   0  0  0  0  0  0  0  0  0  0  0  0
   18.7081  -32.9993  -15.6926 N   0  0  0  0  0  0  0  0  0  0  0  0
   20.6286  -34.2585  -15.0462 N   0  0  0  0  0  0  0  0  0  0  0  0
   21.5497  -35.2831  -15.4127 C   0  0  0  0  0  0  0  0  0  0  0  0
   22.7700  -35.4062  -14.5739 C   0  0  0  0  0  0  0  0  0  0  0  0
   23.2296  -34.2079  -13.8446 C   0  0  0  0  0  0  0  0  0  0  0  0
   24.4095  -34.3415  -12.9573 C   0  0  2  0  0  0  0  0  0  0  0  0
   25.6717  -34.3629  -13.6994 N   0  0  0  0  0  0  0  0  0  0  0  0
   24.3467  -35.3850  -11.9217 C   0  0  0  0  0  0  0  0  0  0  0  0
   23.3777  -35.3782  -11.1255 O   0  0  0  0  0  0  0  0  0  0  0  0
   25.2880  -36.3829  -11.7642 O   0  0  0  0  0  0  0  0  0  0  0  0
  2  1  1  0
  3  2  1  0
  3  4  1  0
  4  5  1  0
  5  7  1  0
  5  6  1  6
  7  8  2  0
  9 10  1  0
 11 10  1  1
 12 11  1  0
 12  7  1  0
 13 11  1  0
 14 13  2  0
 16 15  1  0
 17 16  2  0
 18 16  1  0
 19 20  1  0
 19 18  1  0
 20 21  1  0
 22 21  1  6
 22 23  1  0
 23 13  1  0
 24 26  1  0
 24 22  1  0
 25 24  2  0
M  END
$$$$
