MSR.pdb
     RDKit          3D

 26 25  0  0  1  0  0  0  0  0999 V2000
   29.7889  -20.2854   -8.9955 C   0  0  0  0  0  0  0  0  0  0  0  0
   28.2470  -20.4662   -8.0257 S   0  0  0  0  0  0  0  0  0  0  0  0
   27.2118  -21.7372   -8.8453 C   0  0  0  0  0  0  0  0  0  0  0  0
   26.3892  -21.0400   -9.8918 C   0  0  0  0  0  0  0  0  0  0  0  0
   26.5464  -21.5644  -11.2787 C   0  0  2  0  0  0  0  0  0  0  0  0
   27.9173  -21.3624  -11.7625 N   0  0  0  0  0  0  0  0  0  0  0  0
   25.6486  -20.8681  -12.2216 C   0  0  0  0  0  0  0  0  0  0  0  0
   26.0010  -19.7544  -12.7357 O   0  0  0  0  0  0  0  0  0  0  0  0
   24.9100  -21.7885  -15.1961 O   0  0  0  0  0  0  0  0  0  0  0  0
   24.3615  -20.5670  -14.8725 C   0  0  0  0  0  0  0  0  0  0  0  0
   23.5865  -20.7138  -13.5733 C   0  0  2  0  0  0  0  0  0  0  0  0
   24.4038  -21.3955  -12.5774 N   0  0  0  0  0  0  0  0  0  0  0  0
   22.2842  -21.3797  -13.7403 C   0  0  0  0  0  0  0  0  0  0  0  0
   22.1246  -22.4907  -13.1493 O   0  0  0  0  0  0  0  0  0  0  0  0
   18.8601  -23.7101   -8.5357 N   0  0  0  0  0  0  0  0  0  0  0  0
   17.9998  -24.3985   -9.4275 C   0  0  0  0  0  0  0  0  0  0  0  0
   17.1166  -25.1845   -8.9115 N   0  0  0  0  0  0  0  0  0  0  0  0
   18.1394  -24.2006  -10.8291 N   0  0  0  0  0  0  0  0  0  0  0  0
   19.0597  -23.2302  -11.3233 C   0  0  0  0  0  0  0  0  0  0  0  0
   18.5064  -22.2016  -12.2417 C   0  0  0  0  0  0  0  0  0  0  0  0
   19.4371  -21.1983  -12.7949 C   0  0  0  0  0  0  0  0  0  0  0  0
   19.7957  -21.2962  -14.2299 C   0  0  2  0  0  0  0  0  0  0  0  0
   21.1860  -20.9167  -14.4893 N   0  0  0  0  0  0  0  0  0  0  0  0
   18.8583  -20.6942  -15.1911 C   0  0  0  0  0  0  0  0  0  0  0  0
   18.6270  -19.4643  -15.1089 O   0  0  0  0  0  0  0  0  0  0  0  0
   18.2098  -21.3946  -16.1890 O   0  0  0  0  0  0  0  0  0  0  0  0
  2  1  1  0
  3  2  1  0
  3  4  1  0
  4  5  1  0
  5  7  1  0
  5  6  1  6
  7  8  2  0
  9 10  1  0
 11 10  1  6
 12 11  1  0
 12  7  1  0
 13 11  1  0
 14 13  2  0
 16 15  1  0
 17 16  2  0
 18 16  1  0
 19 20  1  0
 19 18  1  0
 20 21  1  0
 22 21  1  1
 22 23  1  0
 23 13  1  0
 24 26  1  0
 24 22  1  0
 25 24  2  0
M  END
$$$$
