MSR.pdb
     RDKit          3D

 26 25  0  0  1  0  0  0  0  0999 V2000
   27.7201  -20.1196   -7.2864 C   0  0  0  0  0  0  0  0  0  0  0  0
   29.2839  -20.5806   -8.1186 S   0  0  0  0  0  0  0  0  0  0  0  0
   28.8594  -21.3972   -9.7034 C   0  0  0  0  0  0  0  0  0  0  0  0
   27.6316  -20.7195  -10.2431 C   0  0  0  0  0  0  0  0  0  0  0  0
   27.1287  -21.2532  -11.5413 C   0  0  2  0  0  0  0  0  0  0  0  0
   28.1639  -21.1688  -12.5784 N   0  0  0  0  0  0  0  0  0  0  0  0
   25.9674  -20.4810  -12.0262 C   0  0  0  0  0  0  0  0  0  0  0  0
   26.0258  -19.2074  -12.0843 O   0  0  0  0  0  0  0  0  0  0  0  0
   24.5479  -20.5501  -15.3039 O   0  0  0  0  0  0  0  0  0  0  0  0
   24.3286  -19.6200  -14.3117 C   0  0  0  0  0  0  0  0  0  0  0  0
   23.7480  -20.3323  -13.1010 C   0  0  2  0  0  0  0  0  0  0  0  0
   24.7851  -21.1072  -12.4314 N   0  0  0  0  0  0  0  0  0  0  0  0
   22.5790  -21.1690  -13.4186 C   0  0  0  0  0  0  0  0  0  0  0  0
   22.8072  -22.3522  -13.8148 O   0  0  0  0  0  0  0  0  0  0  0  0
   16.7861  -23.9617   -9.9046 N   0  0  0  0  0  0  0  0  0  0  0  0
   17.9942  -24.6932   -9.7834 C   0  0  0  0  0  0  0  0  0  0  0  0
   17.9006  -25.9662   -9.5963 N   0  0  0  0  0  0  0  0  0  0  0  0
   19.2389  -24.0104   -9.8711 N   0  0  0  0  0  0  0  0  0  0  0  0
   19.3305  -22.7869  -10.5974 C   0  0  0  0  0  0  0  0  0  0  0  0
   18.7180  -22.7742  -11.9511 C   0  0  0  0  0  0  0  0  0  0  0  0
   18.9660  -21.5992  -12.8095 C   0  0  0  0  0  0  0  0  0  0  0  0
   20.1100  -21.6521  -13.7506 C   0  0  2  0  0  0  0  0  0  0  0  0
   21.2237  -20.7991  -13.3303 N   0  0  0  0  0  0  0  0  0  0  0  0
   19.7996  -21.5094  -15.1818 C   0  0  0  0  0  0  0  0  0  0  0  0
   18.9354  -22.2672  -15.6835 O   0  0  0  0  0  0  0  0  0  0  0  0
   20.3974  -20.5890  -16.0200 O   0  0  0  0  0  0  0  0  0  0  0  0
  2  1  1  0
  3  2  1  0
  3  4  1  0
  4  5  1  0
  5  7  1  0
  5  6  1  6
  7  8  2  0
  9 10  1  0
 11 10  1  6
 12 11  1  0
 12  7  1  0
 13 11  1  0
 14 13  2  0
 16 15  1  0
 17 16  2  0
 18 16  1  0
 19 20  1  0
 19 18  1  0
 20 21  1  0
 22 21  1  1
 22 23  1  0
 23 13  1  0
 24 26  1  0
 24 22  1  0
 25 24  2  0
M  END
$$$$
