MSR.pdb
     RDKit          3D

 26 25  0  0  1  0  0  0  0  0999 V2000
   18.6774  -18.0996  -20.2127 C   0  0  0  0  0  0  0  0  0  0  0  0
   19.0832  -16.7432  -19.0525 S   0  0  0  0  0  0  0  0  0  0  0  0
   20.6896  -17.1383  -18.2638 C   0  0  0  0  0  0  0  0  0  0  0  0
   21.0404  -15.9905  -17.3597 C   0  0  0  0  0  0  0  0  0  0  0  0
   22.3751  -16.0836  -16.7015 C   0  0  2  0  0  0  0  0  0  0  0  0
   22.4002  -17.1751  -15.7207 N   0  0  0  0  0  0  0  0  0  0  0  0
   22.7034  -14.8414  -15.9740 C   0  0  0  0  0  0  0  0  0  0  0  0
   22.1474  -14.5913  -14.8527 O   0  0  0  0  0  0  0  0  0  0  0  0
   25.8424  -12.2835  -17.0333 O   0  0  0  0  0  0  0  0  0  0  0  0
   25.4587  -12.4974  -15.7276 C   0  0  0  0  0  0  0  0  0  0  0  0
   23.9571  -12.7308  -15.6970 C   0  0  2  0  0  0  0  0  0  0  0  0
   23.6184  -13.9132  -16.4792 N   0  0  0  0  0  0  0  0  0  0  0  0
   23.1738  -11.5624  -16.1312 C   0  0  0  0  0  0  0  0  0  0  0  0
   22.8197  -11.5255  -17.3487 O   0  0  0  0  0  0  0  0  0  0  0  0
   17.7283  -12.2807  -17.3349 N   0  0  0  0  0  0  0  0  0  0  0  0
   16.9092  -11.3100  -16.7056 C   0  0  0  0  0  0  0  0  0  0  0  0
   15.6882  -11.6393  -16.4509 N   0  0  0  0  0  0  0  0  0  0  0  0
   17.4531  -10.0355  -16.3848 N   0  0  0  0  0  0  0  0  0  0  0  0
   18.3238   -9.3807  -17.3045 C   0  0  0  0  0  0  0  0  0  0  0  0
   19.6107   -8.8808  -16.7552 C   0  0  0  0  0  0  0  0  0  0  0  0
   20.6413   -9.8754  -16.3981 C   0  0  0  0  0  0  0  0  0  0  0  0
   21.9115   -9.3841  -15.8130 C   0  0  2  0  0  0  0  0  0  0  0  0
   22.7698  -10.4715  -15.3385 N   0  0  0  0  0  0  0  0  0  0  0  0
   21.8135   -8.2801  -14.8452 C   0  0  0  0  0  0  0  0  0  0  0  0
   22.0262   -8.5273  -13.6342 O   0  0  0  0  0  0  0  0  0  0  0  0
   21.5025   -6.9769  -15.1798 O   0  0  0  0  0  0  0  0  0  0  0  0
  2  1  1  0
  3  2  1  0
  3  4  1  0
  4  5  1  0
  5  7  1  0
  5  6  1  1
  7  8  2  0
  9 10  1  0
 11 10  1  6
 12 11  1  0
 12  7  1  0
 13 11  1  0
 14 13  2  0
 16 15  1  0
 17 16  2  0
 18 16  1  0
 19 20  1  0
 19 18  1  0
 20 21  1  0
 22 21  1  1
 22 23  1  0
 23 13  1  0
 24 26  1  0
 24 22  1  0
 25 24  2  0
M  END
$$$$
