MSR.pdb
     RDKit          3D

 26 25  0  0  1  0  0  0  0  0999 V2000
   23.3921  -22.6503  -21.6828 C   0  0  0  0  0  0  0  0  0  0  0  0
   24.5323  -21.8337  -22.8590 S   0  0  0  0  0  0  0  0  0  0  0  0
   25.9007  -21.0900  -21.8930 C   0  0  0  0  0  0  0  0  0  0  0  0
   25.3590  -20.7540  -20.5322 C   0  0  0  0  0  0  0  0  0  0  0  0
   25.9406  -19.5361  -19.8986 C   0  0  2  0  0  0  0  0  0  0  0  0
   27.3797  -19.7042  -19.6642 N   0  0  0  0  0  0  0  0  0  0  0  0
   25.3184  -19.2629  -18.5877 C   0  0  0  0  0  0  0  0  0  0  0  0
   25.8389  -19.7349  -17.5223 O   0  0  0  0  0  0  0  0  0  0  0  0
   21.6093  -17.3281  -18.0364 O   0  0  0  0  0  0  0  0  0  0  0  0
   22.6722  -17.0163  -17.2175 C   0  0  0  0  0  0  0  0  0  0  0  0
   23.6010  -18.2176  -17.1521 C   0  0  2  0  0  0  0  0  0  0  0  0
   24.1585  -18.4915  -18.4707 N   0  0  0  0  0  0  0  0  0  0  0  0
   22.9670  -19.4177  -16.5819 C   0  0  0  0  0  0  0  0  0  0  0  0
   23.1171  -20.5059  -17.2162 O   0  0  0  0  0  0  0  0  0  0  0  0
   22.0265  -25.7828  -13.4187 N   0  0  0  0  0  0  0  0  0  0  0  0
   22.9626  -25.8668  -14.4798 C   0  0  0  0  0  0  0  0  0  0  0  0
   22.8029  -26.8168  -15.3379 N   0  0  0  0  0  0  0  0  0  0  0  0
   24.0210  -24.9198  -14.5574 N   0  0  0  0  0  0  0  0  0  0  0  0
   24.0388  -23.7978  -13.6778 C   0  0  0  0  0  0  0  0  0  0  0  0
   22.8798  -22.8719  -13.7636 C   0  0  0  0  0  0  0  0  0  0  0  0
   23.0685  -21.5949  -14.4795 C   0  0  0  0  0  0  0  0  0  0  0  0
   21.8776  -20.7436  -14.7125 C   0  0  2  0  0  0  0  0  0  0  0  0
   22.2061  -19.4931  -15.4000 N   0  0  0  0  0  0  0  0  0  0  0  0
   20.9746  -20.5378  -13.5691 C   0  0  0  0  0  0  0  0  0  0  0  0
   20.2776  -21.5041  -13.1775 O   0  0  0  0  0  0  0  0  0  0  0  0
   20.8403  -19.3440  -12.8882 O   0  0  0  0  0  0  0  0  0  0  0  0
  2  1  1  0
  3  2  1  0
  3  4  1  0
  4  5  1  0
  5  7  1  0
  5  6  1  1
  7  8  2  0
  9 10  1  0
 11 10  1  6
 12 11  1  0
 12  7  1  0
 13 11  1  0
 14 13  2  0
 16 15  1  0
 17 16  2  0
 18 16  1  0
 19 20  1  0
 19 18  1  0
 20 21  1  0
 22 21  1  1
 22 23  1  0
 23 13  1  0
 24 26  1  0
 24 22  1  0
 25 24  2  0
M  END
$$$$
