MSR.pdb
     RDKit          3D

 26 25  0  0  1  0  0  0  0  0999 V2000
   30.6769  -23.5441  -11.4003 C   0  0  0  0  0  0  0  0  0  0  0  0
   30.6479  -21.8504  -10.7068 S   0  0  0  0  0  0  0  0  0  0  0  0
   28.9349  -21.4939  -10.1619 C   0  0  0  0  0  0  0  0  0  0  0  0
   28.1082  -21.2701  -11.3966 C   0  0  0  0  0  0  0  0  0  0  0  0
   28.6762  -20.2996  -12.3757 C   0  0  2  0  0  0  0  0  0  0  0  0
   29.2956  -19.1618  -11.6859 N   0  0  0  0  0  0  0  0  0  0  0  0
   27.6276  -19.7508  -13.2585 C   0  0  0  0  0  0  0  0  0  0  0  0
   26.8073  -18.8807  -12.8125 O   0  0  0  0  0  0  0  0  0  0  0  0
   26.8894  -21.0919  -17.1659 O   0  0  0  0  0  0  0  0  0  0  0  0
   26.8554  -19.7394  -16.9060 C   0  0  0  0  0  0  0  0  0  0  0  0
   26.4947  -19.5370  -15.4435 C   0  0  2  0  0  0  0  0  0  0  0  0
   27.4996  -20.1581  -14.5897 N   0  0  0  0  0  0  0  0  0  0  0  0
   25.1419  -20.0077  -15.1033 C   0  0  0  0  0  0  0  0  0  0  0  0
   25.0575  -21.0196  -14.3431 O   0  0  0  0  0  0  0  0  0  0  0  0
   20.6408  -20.7148   -8.8199 N   0  0  0  0  0  0  0  0  0  0  0  0
   19.6998  -21.2218   -9.7511 C   0  0  0  0  0  0  0  0  0  0  0  0
   18.5567  -21.6035   -9.2910 N   0  0  0  0  0  0  0  0  0  0  0  0
   20.0441  -21.2889  -11.1295 N   0  0  0  0  0  0  0  0  0  0  0  0
   21.3210  -20.8303  -11.5679 C   0  0  0  0  0  0  0  0  0  0  0  0
   21.3344  -19.9698  -12.7791 C   0  0  0  0  0  0  0  0  0  0  0  0
   22.6206  -19.7838  -13.4791 C   0  0  0  0  0  0  0  0  0  0  0  0
   22.6167  -19.8015  -14.9613 C   0  0  2  0  0  0  0  0  0  0  0  0
   23.9202  -19.4546  -15.5313 N   0  0  0  0  0  0  0  0  0  0  0  0
   21.5058  -19.1064  -15.6307 C   0  0  0  0  0  0  0  0  0  0  0  0
   21.7285  -17.9865  -16.1495 O   0  0  0  0  0  0  0  0  0  0  0  0
   20.2224  -19.6062  -15.7309 O   0  0  0  0  0  0  0  0  0  0  0  0
  2  1  1  0
  3  2  1  0
  3  4  1  0
  4  5  1  0
  5  7  1  0
  5  6  1  1
  7  8  2  0
  9 10  1  0
 11 10  1  6
 12 11  1  0
 12  7  1  0
 13 11  1  0
 14 13  2  0
 16 15  1  0
 17 16  2  0
 18 16  1  0
 19 20  1  0
 19 18  1  0
 20 21  1  0
 22 21  1  1
 22 23  1  0
 23 13  1  0
 24 26  1  0
 24 22  1  0
 25 24  2  0
M  END
$$$$
