LNY.pdb
     RDKit          3D

 29 29  0  0  1  0  0  0  0  0999 V2000
   27.1980  -20.9567   -6.0441 C   0  0  0  0  0  0  0  0  0  0  0  0
   28.1427  -20.1898   -6.9096 C   0  0  2  0  0  0  0  0  0  0  0  0
   28.7817  -19.0059   -6.2023 C   0  0  0  0  0  0  0  0  0  0  0  0
   27.3700  -19.7335   -8.1482 C   0  0  0  0  0  0  0  0  0  0  0  0
   27.4200  -20.9176   -9.1261 C   0  0  2  0  0  0  0  0  0  0  0  0
   28.8368  -21.2801   -9.1974 N   0  0  0  0  0  0  0  0  0  0  0  0
   26.9331  -20.4913  -10.4664 C   0  0  0  0  0  0  0  0  0  0  0  0
   27.5005  -19.5133  -11.0240 O   0  0  0  0  0  0  0  0  0  0  0  0
   27.9703  -20.4248  -13.3171 N   0  0  0  0  0  0  0  0  0  0  0  0
   27.2345  -21.5170  -13.8456 C   0  0  0  0  0  0  0  0  0  0  0  0
   27.7906  -22.2589  -14.6846 O   0  0  0  0  0  0  0  0  0  0  0  0
   25.8593  -21.7565  -13.4104 C   0  0  0  0  0  0  0  0  0  0  0  0
   25.3519  -20.7650  -12.3669 C   0  0  2  0  0  0  0  0  0  0  0  0
   25.8582  -21.2058  -11.0499 N   0  0  0  0  0  0  0  0  0  0  0  0
   23.8983  -20.7073  -12.2387 C   0  0  0  0  0  0  0  0  0  0  0  0
   23.3446  -20.4812  -11.1031 O   0  0  0  0  0  0  0  0  0  0  0  0
   15.7558  -18.3310  -12.2884 O   0  0  0  0  0  0  0  0  0  0  0  0
   17.1195  -18.5836  -12.3120 C   0  0  0  0  0  0  0  0  0  0  0  0
   17.8027  -18.5435  -13.5066 C   0  0  0  0  0  0  0  0  0  0  0  0
   19.1658  -18.7902  -13.5744 C   0  0  0  0  0  0  0  0  0  0  0  0
   19.9089  -19.0890  -12.4488 C   0  0  0  0  0  0  0  0  0  0  0  0
   21.3656  -19.3528  -12.5412 C   0  0  0  0  0  0  0  0  0  0  0  0
   21.5529  -20.7410  -13.1326 C   0  0  2  0  0  0  0  0  0  0  0  0
   23.0092  -20.8873  -13.3319 N   0  0  0  0  0  0  0  0  0  0  0  0
   20.8669  -20.9556  -14.3974 C   0  0  0  0  0  0  0  0  0  0  0  0
   19.6416  -21.5943  -14.4736 O   0  0  0  0  0  0  0  0  0  0  0  0
   19.2055  -19.1265  -11.2454 C   0  0  0  0  0  0  0  0  0  0  0  0
   17.8514  -18.8809  -11.1807 C   0  0  0  0  0  0  0  0  0  0  0  0
   21.3500  -20.5722  -15.4947 O   0  0  0  0  0  0  0  0  0  0  0  0
  2  1  1  1
  2  3  1  0
  4  2  1  0
  5  4  1  0
  5  6  1  6
  7  5  1  0
  8  7  2  0
  9 10  1  0
 10 12  1  0
 10 11  2  0
 13 12  1  6
 13 14  1  0
 14  7  1  0
 15 13  1  0
 15 24  1  0
 16 15  2  0
 17 18  1  0
 18 28  2  0
 19 20  2  0
 19 18  1  0
 20 21  1  0
 21 22  1  0
 21 27  2  0
 23 22  1  6
 23 24  1  0
 23 25  1  0
 25 26  1  0
 28 27  1  0
 29 25  2  0
M  END
$$$$
