LNY.pdb
     RDKit          3D

 29 29  0  0  1  0  0  0  0  0999 V2000
   34.3204  -25.1634  -17.0559 C   0  0  0  0  0  0  0  0  0  0  0  0
   33.3499  -25.7342  -18.0366 C   0  0  2  0  0  0  0  0  0  0  0  0
   34.0042  -26.2146  -19.3216 C   0  0  0  0  0  0  0  0  0  0  0  0
   32.2994  -24.6612  -18.3270 C   0  0  0  0  0  0  0  0  0  0  0  0
   31.7797  -24.2088  -16.9536 C   0  0  2  0  0  0  0  0  0  0  0  0
   31.2743  -25.4318  -16.3272 N   0  0  0  0  0  0  0  0  0  0  0  0
   30.6738  -23.2278  -17.1261 C   0  0  0  0  0  0  0  0  0  0  0  0
   30.9371  -22.1213  -17.6698 O   0  0  0  0  0  0  0  0  0  0  0  0
   28.0521  -24.0090  -20.1083 N   0  0  0  0  0  0  0  0  0  0  0  0
   27.9086  -22.8874  -19.2508 C   0  0  0  0  0  0  0  0  0  0  0  0
   28.2600  -21.7650  -19.6751 O   0  0  0  0  0  0  0  0  0  0  0  0
   27.3616  -23.0558  -17.9053 C   0  0  0  0  0  0  0  0  0  0  0  0
   28.2930  -22.5914  -16.7889 C   0  0  2  0  0  0  0  0  0  0  0  0
   29.3804  -23.5860  -16.6730 N   0  0  0  0  0  0  0  0  0  0  0  0
   27.6724  -22.5205  -15.4688 C   0  0  0  0  0  0  0  0  0  0  0  0
   27.6589  -23.5409  -14.6904 O   0  0  0  0  0  0  0  0  0  0  0  0
   24.9019  -20.0730   -7.6113 O   0  0  0  0  0  0  0  0  0  0  0  0
   25.5308  -20.1954   -8.8417 C   0  0  0  0  0  0  0  0  0  0  0  0
   24.8861  -19.7789   -9.9847 C   0  0  0  0  0  0  0  0  0  0  0  0
   25.4787  -19.8838  -11.2341 C   0  0  0  0  0  0  0  0  0  0  0  0
   26.7451  -20.4110  -11.3978 C   0  0  0  0  0  0  0  0  0  0  0  0
   27.3617  -20.5179  -12.7426 C   0  0  0  0  0  0  0  0  0  0  0  0
   26.4430  -21.3609  -13.6127 C   0  0  2  0  0  0  0  0  0  0  0  0
   27.0566  -21.3474  -14.9563 N   0  0  0  0  0  0  0  0  0  0  0  0
   25.0762  -20.8701  -13.6995 C   0  0  0  0  0  0  0  0  0  0  0  0
   24.0727  -21.3288  -12.8643 O   0  0  0  0  0  0  0  0  0  0  0  0
   27.3874  -20.8290  -10.2329 C   0  0  0  0  0  0  0  0  0  0  0  0
   26.7965  -20.7237   -8.9928 C   0  0  0  0  0  0  0  0  0  0  0  0
   24.7293  -19.9998  -14.5402 O   0  0  0  0  0  0  0  0  0  0  0  0
  2  1  1  1
  2  3  1  0
  4  2  1  0
  5  4  1  0
  5  6  1  6
  7  5  1  0
  8  7  2  0
  9 10  1  0
 10 12  1  0
 10 11  2  0
 13 12  1  6
 13 14  1  0
 14  7  1  0
 15 13  1  0
 15 24  1  0
 16 15  2  0
 17 18  1  0
 18 28  2  0
 19 20  2  0
 19 18  1  0
 20 21  1  0
 21 22  1  0
 21 27  2  0
 23 22  1  1
 23 24  1  0
 23 25  1  0
 25 26  1  0
 28 27  1  0
 29 25  2  0
M  END
$$$$
