LNY.pdb
     RDKit          3D

 29 29  0  0  1  0  0  0  0  0999 V2000
   23.3678  -13.6274  -14.7522 C   0  0  0  0  0  0  0  0  0  0  0  0
   23.1038  -14.2242  -16.0952 C   0  0  2  0  0  0  0  0  0  0  0  0
   24.3255  -14.8863  -16.7109 C   0  0  0  0  0  0  0  0  0  0  0  0
   22.5716  -13.1118  -17.0001 C   0  0  0  0  0  0  0  0  0  0  0  0
   21.3299  -12.5562  -16.2857 C   0  0  2  0  0  0  0  0  0  0  0  0
   20.2763  -13.5359  -16.5576 N   0  0  0  0  0  0  0  0  0  0  0  0
   20.9604  -11.2345  -16.8618 C   0  0  0  0  0  0  0  0  0  0  0  0
   20.7632  -11.1595  -18.1047 O   0  0  0  0  0  0  0  0  0  0  0  0
   19.8798   -8.0643  -19.1903 N   0  0  0  0  0  0  0  0  0  0  0  0
   18.7859   -8.5759  -18.4451 C   0  0  0  0  0  0  0  0  0  0  0  0
   17.6651   -8.6332  -18.9963 O   0  0  0  0  0  0  0  0  0  0  0  0
   18.9799   -9.0212  -17.0659 C   0  0  0  0  0  0  0  0  0  0  0  0
   20.4008   -8.8322  -16.5417 C   0  0  2  0  0  0  0  0  0  0  0  0
   20.8467  -10.1272  -15.9858 N   0  0  0  0  0  0  0  0  0  0  0  0
   20.5244   -7.8653  -15.4542 C   0  0  0  0  0  0  0  0  0  0  0  0
   20.0095   -8.0988  -14.3020 O   0  0  0  0  0  0  0  0  0  0  0  0
   26.5355   -5.1102  -17.9626 O   0  0  0  0  0  0  0  0  0  0  0  0
   25.6009   -5.3530  -16.9667 C   0  0  0  0  0  0  0  0  0  0  0  0
   25.0635   -4.3002  -16.2607 C   0  0  0  0  0  0  0  0  0  0  0  0
   24.1271   -4.4991  -15.2572 C   0  0  0  0  0  0  0  0  0  0  0  0
   23.6848   -5.7619  -14.9133 C   0  0  0  0  0  0  0  0  0  0  0  0
   22.6847   -5.9553  -13.8352 C   0  0  0  0  0  0  0  0  0  0  0  0
   21.3056   -5.7120  -14.4273 C   0  0  2  0  0  0  0  0  0  0  0  0
   21.2096   -6.6275  -15.5826 N   0  0  0  0  0  0  0  0  0  0  0  0
   21.0717   -4.3463  -14.8708 C   0  0  0  0  0  0  0  0  0  0  0  0
   20.8062   -4.0346  -16.1927 O   0  0  0  0  0  0  0  0  0  0  0  0
   24.2365   -6.8194  -15.6356 C   0  0  0  0  0  0  0  0  0  0  0  0
   25.1665   -6.6192  -16.6320 C   0  0  0  0  0  0  0  0  0  0  0  0
   21.0978   -3.3704  -14.0760 O   0  0  0  0  0  0  0  0  0  0  0  0
  2  1  1  1
  2  3  1  0
  4  2  1  0
  5  4  1  0
  5  6  1  6
  7  5  1  0
  8  7  2  0
  9 10  1  0
 10 12  1  0
 10 11  2  0
 13 12  1  1
 13 14  1  0
 14  7  1  0
 15 13  1  0
 15 24  1  0
 16 15  2  0
 17 18  1  0
 18 28  2  0
 19 20  2  0
 19 18  1  0
 20 21  1  0
 21 22  1  0
 21 27  2  0
 23 22  1  6
 23 24  1  0
 23 25  1  0
 25 26  1  0
 28 27  1  0
 29 25  2  0
M  END
$$$$
