LNY.pdb
     RDKit          3D

 29 29  0  0  1  0  0  0  0  0999 V2000
   27.7984  -14.6204  -15.7133 C   0  0  0  0  0  0  0  0  0  0  0  0
   27.1972  -13.7921  -16.8006 C   0  0  2  0  0  0  0  0  0  0  0  0
   26.9165  -12.3586  -16.3806 C   0  0  0  0  0  0  0  0  0  0  0  0
   25.9144  -14.4881  -17.2579 C   0  0  0  0  0  0  0  0  0  0  0  0
   26.3416  -15.8984  -17.6930 C   0  0  2  0  0  0  0  0  0  0  0  0
   27.1677  -15.6850  -18.8829 N   0  0  0  0  0  0  0  0  0  0  0  0
   25.1426  -16.7085  -18.0414 C   0  0  0  0  0  0  0  0  0  0  0  0
   24.4470  -16.3500  -19.0298 O   0  0  0  0  0  0  0  0  0  0  0  0
   25.1137  -19.9635  -19.4678 N   0  0  0  0  0  0  0  0  0  0  0  0
   24.7345  -20.6966  -18.3135 C   0  0  0  0  0  0  0  0  0  0  0  0
   25.1323  -21.8766  -18.2005 O   0  0  0  0  0  0  0  0  0  0  0  0
   23.8976  -20.0738  -17.2889 C   0  0  0  0  0  0  0  0  0  0  0  0
   23.6044  -18.5961  -17.5341 C   0  0  2  0  0  0  0  0  0  0  0  0
   24.8431  -17.8423  -17.2471 N   0  0  0  0  0  0  0  0  0  0  0  0
   22.5783  -18.0271  -16.6647 C   0  0  0  0  0  0  0  0  0  0  0  0
   22.8820  -17.5407  -15.5163 O   0  0  0  0  0  0  0  0  0  0  0  0
   17.0247  -12.0168  -14.3102 O   0  0  0  0  0  0  0  0  0  0  0  0
   17.9743  -12.9275  -14.7496 C   0  0  0  0  0  0  0  0  0  0  0  0
   18.2361  -13.0480  -16.0959 C   0  0  0  0  0  0  0  0  0  0  0  0
   19.1769  -13.9460  -16.5771 C   0  0  0  0  0  0  0  0  0  0  0  0
   19.9001  -14.7660  -15.7325 C   0  0  0  0  0  0  0  0  0  0  0  0
   20.9003  -15.7226  -16.2658 C   0  0  0  0  0  0  0  0  0  0  0  0
   20.2802  -17.1106  -16.2401 C   0  0  2  0  0  0  0  0  0  0  0  0
   21.2030  -17.9650  -17.0150 N   0  0  0  0  0  0  0  0  0  0  0  0
   18.9478  -17.1870  -16.8191 C   0  0  0  0  0  0  0  0  0  0  0  0
   18.7398  -17.4660  -18.1585 O   0  0  0  0  0  0  0  0  0  0  0  0
   19.6258  -14.6344  -14.3717 C   0  0  0  0  0  0  0  0  0  0  0  0
   18.6907  -13.7414  -13.8962 C   0  0  0  0  0  0  0  0  0  0  0  0
   17.9081  -17.0034  -16.1335 O   0  0  0  0  0  0  0  0  0  0  0  0
  2  1  1  1
  2  3  1  0
  4  2  1  0
  5  4  1  0
  5  6  1  6
  7  5  1  0
  8  7  2  0
  9 10  1  0
 10 12  1  0
 10 11  2  0
 13 12  1  1
 13 14  1  0
 14  7  1  0
 15 13  1  0
 15 24  1  0
 16 15  2  0
 17 18  1  0
 18 28  2  0
 19 20  2  0
 19 18  1  0
 20 21  1  0
 21 22  1  0
 21 27  2  0
 23 22  1  6
 23 24  1  0
 23 25  1  0
 25 26  1  0
 28 27  1  0
 29 25  2  0
M  END
$$$$
