LNY.pdb
     RDKit          3D

 29 29  0  0  1  0  0  0  0  0999 V2000
   22.3422  -17.7627  -20.6083 C   0  0  0  0  0  0  0  0  0  0  0  0
   22.4349  -16.4105  -19.9820 C   0  0  2  0  0  0  0  0  0  0  0  0
   23.5103  -15.5324  -20.6006 C   0  0  0  0  0  0  0  0  0  0  0  0
   22.6858  -16.6087  -18.4863 C   0  0  0  0  0  0  0  0  0  0  0  0
   21.5952  -17.5803  -18.0093 C   0  0  2  0  0  0  0  0  0  0  0  0
   20.3791  -16.7677  -17.9403 N   0  0  0  0  0  0  0  0  0  0  0  0
   21.9367  -18.1053  -16.6591 C   0  0  0  0  0  0  0  0  0  0  0  0
   22.0735  -17.2808  -15.7154 O   0  0  0  0  0  0  0  0  0  0  0  0
   21.8087  -23.3927  -13.5845 N   0  0  0  0  0  0  0  0  0  0  0  0
   21.7687  -21.9780  -13.6873 C   0  0  0  0  0  0  0  0  0  0  0  0
   21.8747  -21.3019  -12.6409 O   0  0  0  0  0  0  0  0  0  0  0  0
   21.6063  -21.3400  -14.9930 C   0  0  0  0  0  0  0  0  0  0  0  0
   22.3787  -20.0331  -15.1508 C   0  0  2  0  0  0  0  0  0  0  0  0
   22.0894  -19.5046  -16.5006 N   0  0  0  0  0  0  0  0  0  0  0  0
   23.8306  -20.1720  -15.0775 C   0  0  0  0  0  0  0  0  0  0  0  0
   24.5032  -20.6080  -16.0800 O   0  0  0  0  0  0  0  0  0  0  0  0
   23.8852  -21.2733   -8.0653 O   0  0  0  0  0  0  0  0  0  0  0  0
   24.5047  -20.7742   -9.2017 C   0  0  0  0  0  0  0  0  0  0  0  0
   25.7975  -21.1453   -9.4958 C   0  0  0  0  0  0  0  0  0  0  0  0
   26.4535  -20.6692  -10.6211 C   0  0  0  0  0  0  0  0  0  0  0  0
   25.8456  -19.7989  -11.5051 C   0  0  0  0  0  0  0  0  0  0  0  0
   26.5641  -19.2979  -12.7021 C   0  0  0  0  0  0  0  0  0  0  0  0
   26.0506  -20.0645  -13.9106 C   0  0  2  0  0  0  0  0  0  0  0  0
   24.5907  -19.8397  -13.9242 N   0  0  0  0  0  0  0  0  0  0  0  0
   26.3204  -21.4937  -13.8779 C   0  0  0  0  0  0  0  0  0  0  0  0
   25.3087  -22.4342  -13.7942 O   0  0  0  0  0  0  0  0  0  0  0  0
   24.5365  -19.4308  -11.1962 C   0  0  0  0  0  0  0  0  0  0  0  0
   23.8871  -19.9052  -10.0777 C   0  0  0  0  0  0  0  0  0  0  0  0
   27.4905  -21.9555  -13.9237 O   0  0  0  0  0  0  0  0  0  0  0  0
  2  1  1  6
  2  3  1  0
  4  2  1  0
  5  4  1  0
  5  6  1  1
  7  5  1  0
  8  7  2  0
  9 10  1  0
 10 12  1  0
 10 11  2  0
 13 12  1  6
 13 14  1  0
 14  7  1  0
 15 13  1  0
 15 24  1  0
 16 15  2  0
 17 18  1  0
 18 28  2  0
 19 20  2  0
 19 18  1  0
 20 21  1  0
 21 22  1  0
 21 27  2  0
 23 22  1  1
 23 24  1  0
 23 25  1  0
 25 26  1  0
 28 27  1  0
 29 25  2  0
M  END
$$$$
