LNY.pdb
     RDKit          3D

 29 29  0  0  1  0  0  0  0  0999 V2000
   27.0467  -19.7229  -17.8801 C   0  0  0  0  0  0  0  0  0  0  0  0
   25.5929  -19.9689  -17.6445 C   0  0  2  0  0  0  0  0  0  0  0  0
   24.7085  -19.4893  -18.7837 C   0  0  0  0  0  0  0  0  0  0  0  0
   25.2133  -19.2814  -16.3321 C   0  0  0  0  0  0  0  0  0  0  0  0
   26.0561  -19.9685  -15.2465 C   0  0  2  0  0  0  0  0  0  0  0  0
   26.0665  -21.3829  -15.6250 N   0  0  0  0  0  0  0  0  0  0  0  0
   25.4086  -19.7997  -13.9170 C   0  0  0  0  0  0  0  0  0  0  0  0
   25.1331  -18.6314  -13.5316 O   0  0  0  0  0  0  0  0  0  0  0  0
   21.9524  -19.9134  -13.0176 N   0  0  0  0  0  0  0  0  0  0  0  0
   21.9662  -21.2315  -12.4922 C   0  0  0  0  0  0  0  0  0  0  0  0
   20.9036  -21.8902  -12.5091 O   0  0  0  0  0  0  0  0  0  0  0  0
   23.2014  -21.7927  -11.9468 C   0  0  0  0  0  0  0  0  0  0  0  0
   24.3667  -20.8082  -11.8961 C   0  0  2  0  0  0  0  0  0  0  0  0
   25.1325  -20.9590  -13.1514 N   0  0  0  0  0  0  0  0  0  0  0  0
   25.3185  -21.0473  -10.8147 C   0  0  0  0  0  0  0  0  0  0  0  0
   25.9936  -22.1375  -10.7589 O   0  0  0  0  0  0  0  0  0  0  0  0
   29.8532  -20.1238   -3.3043 O   0  0  0  0  0  0  0  0  0  0  0  0
   29.2558  -19.9500   -4.5441 C   0  0  0  0  0  0  0  0  0  0  0  0
   28.2068  -19.0689   -4.6813 C   0  0  0  0  0  0  0  0  0  0  0  0
   27.5814  -18.8659   -5.9023 C   0  0  0  0  0  0  0  0  0  0  0  0
   27.9771  -19.5359   -7.0438 C   0  0  0  0  0  0  0  0  0  0  0  0
   27.2943  -19.3079   -8.3406 C   0  0  0  0  0  0  0  0  0  0  0  0
   26.3980  -20.5053   -8.6142 C   0  0  2  0  0  0  0  0  0  0  0  0
   25.5678  -20.1152   -9.7720 N   0  0  0  0  0  0  0  0  0  0  0  0
   25.5356  -20.8796   -7.5039 C   0  0  0  0  0  0  0  0  0  0  0  0
   24.2038  -20.5083   -7.4459 O   0  0  0  0  0  0  0  0  0  0  0  0
   29.0403  -20.4252   -6.8918 C   0  0  0  0  0  0  0  0  0  0  0  0
   29.6599  -20.6250   -5.6777 C   0  0  0  0  0  0  0  0  0  0  0  0
   25.9531  -21.5629   -6.5326 O   0  0  0  0  0  0  0  0  0  0  0  0
  2  1  1  6
  2  3  1  0
  4  2  1  0
  5  4  1  0
  5  6  1  6
  7  5  1  0
  8  7  2  0
  9 10  1  0
 10 12  1  0
 10 11  2  0
 13 12  1  6
 13 14  1  0
 14  7  1  0
 15 13  1  0
 15 24  1  0
 16 15  2  0
 17 18  1  0
 18 28  2  0
 19 20  2  0
 19 18  1  0
 20 21  1  0
 21 22  1  0
 21 27  2  0
 23 22  1  1
 23 24  1  0
 23 25  1  0
 25 26  1  0
 28 27  1  0
 29 25  2  0
M  END
$$$$
