LNY.pdb
     RDKit          3D

 29 29  0  0  1  0  0  0  0  0999 V2000
   20.9096  -11.7527  -14.3398 C   0  0  0  0  0  0  0  0  0  0  0  0
   20.7924  -10.7878  -15.4732 C   0  0  2  0  0  0  0  0  0  0  0  0
   22.1305  -10.4244  -16.0958 C   0  0  0  0  0  0  0  0  0  0  0  0
   20.0780   -9.5413  -14.9487 C   0  0  0  0  0  0  0  0  0  0  0  0
   18.7148  -10.0309  -14.4362 C   0  0  2  0  0  0  0  0  0  0  0  0
   18.0285  -10.5317  -15.6287 N   0  0  0  0  0  0  0  0  0  0  0  0
   17.9545   -8.8947  -13.8478 C   0  0  0  0  0  0  0  0  0  0  0  0
   17.4930   -8.0182  -14.6276 O   0  0  0  0  0  0  0  0  0  0  0  0
   15.8068   -7.0726   -8.3764 N   0  0  0  0  0  0  0  0  0  0  0  0
   15.8854   -6.9881   -9.7907 C   0  0  0  0  0  0  0  0  0  0  0  0
   15.4528   -5.9570  -10.3503 O   0  0  0  0  0  0  0  0  0  0  0  0
   16.4607   -8.0889  -10.5622 C   0  0  0  0  0  0  0  0  0  0  0  0
   17.1720   -7.6523  -11.8401 C   0  0  2  0  0  0  0  0  0  0  0  0
   17.7853   -8.8550  -12.4421 N   0  0  0  0  0  0  0  0  0  0  0  0
   18.2645   -6.7051  -11.6350 C   0  0  0  0  0  0  0  0  0  0  0  0
   19.0745   -6.8358  -10.6481 O   0  0  0  0  0  0  0  0  0  0  0  0
   22.8117   -6.0985  -17.4980 O   0  0  0  0  0  0  0  0  0  0  0  0
   22.3294   -6.0031  -16.2009 C   0  0  0  0  0  0  0  0  0  0  0  0
   22.3902   -4.7999  -15.5345 C   0  0  0  0  0  0  0  0  0  0  0  0
   21.9199   -4.6616  -14.2372 C   0  0  0  0  0  0  0  0  0  0  0  0
   21.3663   -5.7219  -13.5460 C   0  0  0  0  0  0  0  0  0  0  0  0
   20.8710   -5.5557  -12.1579 C   0  0  0  0  0  0  0  0  0  0  0  0
   19.6305   -4.6779  -12.2059 C   0  0  2  0  0  0  0  0  0  0  0  0
   18.5113   -5.5988  -12.4914 N   0  0  0  0  0  0  0  0  0  0  0  0
   19.6689   -3.6338  -13.2182 C   0  0  0  0  0  0  0  0  0  0  0  0
   20.5159   -2.5437  -13.1227 O   0  0  0  0  0  0  0  0  0  0  0  0
   21.3103   -6.9348  -14.2318 C   0  0  0  0  0  0  0  0  0  0  0  0
   21.7783   -7.0696  -15.5206 C   0  0  0  0  0  0  0  0  0  0  0  0
   18.9329   -3.6635  -14.2391 O   0  0  0  0  0  0  0  0  0  0  0  0
  2  1  1  1
  2  3  1  0
  4  2  1  0
  5  4  1  0
  5  6  1  6
  7  5  1  0
  8  7  2  0
  9 10  1  0
 10 12  1  0
 10 11  2  0
 13 12  1  1
 13 14  1  0
 14  7  1  0
 15 13  1  0
 15 24  1  0
 16 15  2  0
 17 18  1  0
 18 28  2  0
 19 20  2  0
 19 18  1  0
 20 21  1  0
 21 22  1  0
 21 27  2  0
 23 22  1  6
 23 24  1  0
 23 25  1  0
 25 26  1  0
 28 27  1  0
 29 25  2  0
M  END
$$$$
