LNY.pdb
     RDKit          3D

 29 29  0  0  1  0  0  0  0  0999 V2000
   26.7819  -24.9551  -15.6055 C   0  0  0  0  0  0  0  0  0  0  0  0
   26.2805  -24.3961  -16.8961 C   0  0  2  0  0  0  0  0  0  0  0  0
   27.1259  -23.2489  -17.4246 C   0  0  0  0  0  0  0  0  0  0  0  0
   24.8333  -23.9521  -16.6777 C   0  0  0  0  0  0  0  0  0  0  0  0
   24.0915  -25.1968  -16.1666 C   0  0  2  0  0  0  0  0  0  0  0  0
   24.1929  -26.1643  -17.2608 N   0  0  0  0  0  0  0  0  0  0  0  0
   22.6637  -24.8670  -15.9061 C   0  0  0  0  0  0  0  0  0  0  0  0
   22.1727  -23.8533  -16.4724 O   0  0  0  0  0  0  0  0  0  0  0  0
   20.0562  -24.6003  -17.4940 N   0  0  0  0  0  0  0  0  0  0  0  0
   19.5377  -25.8712  -17.1340 C   0  0  0  0  0  0  0  0  0  0  0  0
   18.9290  -26.5335  -18.0024 O   0  0  0  0  0  0  0  0  0  0  0  0
   19.7183  -26.3811  -15.7754 C   0  0  0  0  0  0  0  0  0  0  0  0
   20.4853  -25.4395  -14.8509 C   0  0  2  0  0  0  0  0  0  0  0  0
   21.9268  -25.7085  -15.0371 N   0  0  0  0  0  0  0  0  0  0  0  0
   20.2215  -25.6356  -13.4280 C   0  0  0  0  0  0  0  0  0  0  0  0
   20.7772  -26.5940  -12.7799 O   0  0  0  0  0  0  0  0  0  0  0  0
   16.9027  -24.6641   -5.3109 O   0  0  0  0  0  0  0  0  0  0  0  0
   17.4120  -24.4450   -6.5825 C   0  0  0  0  0  0  0  0  0  0  0  0
   16.5578  -24.1477   -7.6204 C   0  0  0  0  0  0  0  0  0  0  0  0
   17.0254  -23.9221   -8.9064 C   0  0  0  0  0  0  0  0  0  0  0  0
   18.3709  -23.9837   -9.2135 C   0  0  0  0  0  0  0  0  0  0  0  0
   18.8523  -23.7423  -10.5956 C   0  0  0  0  0  0  0  0  0  0  0  0
   19.1085  -25.0933  -11.2443 C   0  0  2  0  0  0  0  0  0  0  0  0
   19.3568  -24.8007  -12.6707 N   0  0  0  0  0  0  0  0  0  0  0  0
   18.0076  -26.0370  -11.1279 C   0  0  0  0  0  0  0  0  0  0  0  0
   17.9471  -26.9797  -10.1166 O   0  0  0  0  0  0  0  0  0  0  0  0
   19.2256  -24.2855   -8.1539 C   0  0  0  0  0  0  0  0  0  0  0  0
   18.7585  -24.5091   -6.8772 C   0  0  0  0  0  0  0  0  0  0  0  0
   17.0472  -26.0493  -11.9416 O   0  0  0  0  0  0  0  0  0  0  0  0
  2  1  1  1
  2  3  1  0
  4  2  1  0
  5  4  1  0
  5  6  1  6
  7  5  1  0
  8  7  2  0
  9 10  1  0
 10 12  1  0
 10 11  2  0
 13 12  1  6
 13 14  1  0
 14  7  1  0
 15 13  1  0
 15 24  1  0
 16 15  2  0
 17 18  1  0
 18 28  2  0
 19 20  2  0
 19 18  1  0
 20 21  1  0
 21 22  1  0
 21 27  2  0
 23 22  1  1
 23 24  1  0
 23 25  1  0
 25 26  1  0
 28 27  1  0
 29 25  2  0
M  END
$$$$
