KIF.pdb
     RDKit          3D

 29 29  0  0  1  0  0  0  0  0999 V2000
    9.2057  -19.2565   18.9458 N   0  0  0  0  0  0  0  0  0  0  0  0
    8.4679  -18.8546   20.1198 C   0  0  1  0  0  0  0  0  0  0  0  0
    8.4146  -19.8715   21.1849 C   0  0  0  0  0  0  0  0  0  0  0  0
    9.1883  -21.1056   21.0913 C   0  0  0  0  0  0  0  0  0  0  0  0
   10.0246  -21.6106   22.1805 C   0  0  0  0  0  0  0  0  0  0  0  0
    9.9412  -23.0290   22.5983 C   0  0  0  0  0  0  0  0  0  0  0  0
    8.7777  -23.5994   21.8514 N   0  0  0  0  0  0  0  0  0  0  0  0
    9.2000  -17.6445   20.6558 C   0  0  0  0  0  0  0  0  0  0  0  0
   10.4205  -17.5569   20.3756 O   0  0  0  0  0  0  0  0  0  0  0  0
    6.8300  -12.8980   19.9905 C   0  0  0  0  0  0  0  0  0  0  0  0
    7.9389  -13.8593   20.1663 C   0  0  0  0  0  0  0  0  0  0  0  0
    8.3376  -14.2907   21.4993 C   0  0  2  0  0  0  0  0  0  0  0  0
    8.7413  -13.0500   22.3233 C   0  0  0  0  0  0  0  0  0  0  0  0
    9.3378  -15.3771   21.6715 C   0  0  2  0  0  0  0  0  0  0  0  0
    8.5898  -16.6638   21.4191 N   0  0  0  0  0  0  0  0  0  0  0  0
    9.9034  -15.4671   23.0175 C   0  0  0  0  0  0  0  0  0  0  0  0
   10.7021  -14.5340   23.4326 O   0  0  0  0  0  0  0  0  0  0  0  0
    9.6693  -16.4864   23.9854 N   0  0  0  0  0  0  0  0  0  0  0  0
   10.2147  -16.3687   25.3322 C   0  0  1  0  0  0  0  0  0  0  0  0
   10.5398  -14.8859   25.6078 C   0  0  0  0  0  0  0  0  0  0  0  0
    9.4723  -14.2796   26.4445 C   0  0  0  0  0  0  0  0  0  0  0  0
    8.3232  -13.8649   25.7936 C   0  0  0  0  0  0  0  0  0  0  0  0
    7.2826  -13.2929   26.4773 C   0  0  0  0  0  0  0  0  0  0  0  0
    7.4040  -13.1390   27.8276 C   0  0  0  0  0  0  0  0  0  0  0  0
    8.5400  -13.5428   28.5114 C   0  0  0  0  0  0  0  0  0  0  0  0
    9.5770  -14.1179   27.7965 C   0  0  0  0  0  0  0  0  0  0  0  0
    9.2556  -16.7689   26.3360 C   0  0  0  0  0  0  0  0  0  0  0  0
    8.0665  -17.0193   25.9920 O   0  0  0  0  0  0  0  0  0  0  0  0
    9.5703  -16.8956   27.6604 O   0  0  0  0  0  0  0  0  0  0  0  0
  2  3  1  0
  2  1  1  6
  3  4  1  0
  4  5  1  0
  5  6  1  0
  6  7  1  0
  8  2  1  0
  9  8  2  0
 11 10  1  0
 12 11  1  0
 12 14  1  0
 12 13  1  6
 14 15  1  1
 15  8  1  0
 16 14  1  0
 16 17  2  0
 18 16  1  0
 19 20  1  1
 19 18  1  0
 20 21  1  0
 21 26  2  0
 21 22  1  0
 22 23  2  0
 23 24  1  0
 25 24  2  0
 26 25  1  0
 27 19  1  0
 28 27  2  0
 29 27  1  0
M  END
$$$$
