KIF.pdb
     RDKit          3D

 29 29  0  0  1  0  0  0  0  0999 V2000
    8.6415  -15.7096   19.5818 N   0  0  0  0  0  0  0  0  0  0  0  0
    7.9152  -16.3211   20.6692 C   0  0  1  0  0  0  0  0  0  0  0  0
    8.0635  -17.7846   20.7556 C   0  0  0  0  0  0  0  0  0  0  0  0
    7.6029  -18.6561   19.6790 C   0  0  0  0  0  0  0  0  0  0  0  0
    7.5413  -20.1129   19.7993 C   0  0  0  0  0  0  0  0  0  0  0  0
    7.1441  -20.9478   18.6423 C   0  0  0  0  0  0  0  0  0  0  0  0
    8.3609  -21.0396   17.7775 N   0  0  0  0  0  0  0  0  0  0  0  0
    8.4923  -15.7109   21.9271 C   0  0  0  0  0  0  0  0  0  0  0  0
    9.7101  -15.4081   21.8966 O   0  0  0  0  0  0  0  0  0  0  0  0
    5.3938  -12.5343   25.1665 C   0  0  0  0  0  0  0  0  0  0  0  0
    6.5664  -13.0836   24.4541 C   0  0  0  0  0  0  0  0  0  0  0  0
    7.3327  -14.1806   25.0296 C   0  0  2  0  0  0  0  0  0  0  0  0
    7.8431  -13.7537   26.4219 C   0  0  0  0  0  0  0  0  0  0  0  0
    8.4225  -14.8273   24.2522 C   0  0  2  0  0  0  0  0  0  0  0  0
    7.7477  -15.4832   23.0719 N   0  0  0  0  0  0  0  0  0  0  0  0
    9.1367  -15.8787   24.9763 C   0  0  0  0  0  0  0  0  0  0  0  0
    8.6974  -17.0972   24.9199 O   0  0  0  0  0  0  0  0  0  0  0  0
   10.3175  -15.7364   25.7613 N   0  0  0  0  0  0  0  0  0  0  0  0
   11.0390  -16.9116   26.2342 C   0  0  1  0  0  0  0  0  0  0  0  0
   12.1700  -16.4525   27.1778 C   0  0  0  0  0  0  0  0  0  0  0  0
   11.6150  -15.5908   28.2533 C   0  0  0  0  0  0  0  0  0  0  0  0
   11.4647  -16.1651   29.5038 C   0  0  0  0  0  0  0  0  0  0  0  0
   10.9606  -15.4530   30.5602 C   0  0  0  0  0  0  0  0  0  0  0  0
   10.6061  -14.1519   30.3518 C   0  0  0  0  0  0  0  0  0  0  0  0
   10.7432  -13.5452   29.1131 C   0  0  0  0  0  0  0  0  0  0  0  0
   11.2551  -14.2874   28.0623 C   0  0  0  0  0  0  0  0  0  0  0  0
   10.1900  -17.7854   27.0109 C   0  0  0  0  0  0  0  0  0  0  0  0
    9.0411  -17.3889   27.3540 O   0  0  0  0  0  0  0  0  0  0  0  0
   10.5675  -19.0406   27.3996 O   0  0  0  0  0  0  0  0  0  0  0  0
  2  3  1  0
  2  1  1  6
  3  4  1  0
  4  5  1  0
  5  6  1  0
  6  7  1  0
  8  2  1  0
  9  8  2  0
 11 10  1  0
 12 11  1  0
 12 14  1  0
 12 13  1  1
 14 15  1  6
 15  8  1  0
 16 14  1  0
 16 17  2  0
 18 16  1  0
 19 20  1  1
 19 18  1  0
 20 21  1  0
 21 26  2  0
 21 22  1  0
 22 23  2  0
 23 24  1  0
 25 24  2  0
 26 25  1  0
 27 19  1  0
 28 27  2  0
 29 27  1  0
M  END
$$$$
