KIF.pdb
     RDKit          3D

 29 29  0  0  1  0  0  0  0  0999 V2000
    6.1531  -20.1629   21.9397 N   0  0  0  0  0  0  0  0  0  0  0  0
    6.1732  -19.2417   23.0509 C   0  0  1  0  0  0  0  0  0  0  0  0
    6.5804  -19.8415   24.3338 C   0  0  0  0  0  0  0  0  0  0  0  0
    5.7264  -20.8035   25.0235 C   0  0  0  0  0  0  0  0  0  0  0  0
    5.9645  -22.2469   24.9992 C   0  0  0  0  0  0  0  0  0  0  0  0
    6.3177  -22.9728   26.2409 C   0  0  0  0  0  0  0  0  0  0  0  0
    5.0188  -23.2399   26.9326 N   0  0  0  0  0  0  0  0  0  0  0  0
    7.1907  -18.1872   22.6763 C   0  0  0  0  0  0  0  0  0  0  0  0
    8.1610  -18.5670   21.9762 O   0  0  0  0  0  0  0  0  0  0  0  0
    6.0269  -13.7720   20.2426 C   0  0  0  0  0  0  0  0  0  0  0  0
    6.7983  -14.9007   20.8041 C   0  0  0  0  0  0  0  0  0  0  0  0
    7.5306  -14.7453   22.0537 C   0  0  2  0  0  0  0  0  0  0  0  0
    8.5197  -13.5699   21.9073 C   0  0  0  0  0  0  0  0  0  0  0  0
    8.2007  -15.9132   22.6842 C   0  0  2  0  0  0  0  0  0  0  0  0
    7.0911  -16.8626   23.0664 N   0  0  0  0  0  0  0  0  0  0  0  0
    8.9352  -15.5970   23.9091 C   0  0  0  0  0  0  0  0  0  0  0  0
    8.6533  -14.5079   24.5534 O   0  0  0  0  0  0  0  0  0  0  0  0
    9.9589  -16.3730   24.5259 N   0  0  0  0  0  0  0  0  0  0  0  0
   10.6021  -15.9121   25.7502 C   0  0  1  0  0  0  0  0  0  0  0  0
    9.5406  -15.8274   26.8666 C   0  0  0  0  0  0  0  0  0  0  0  0
    8.9039  -14.4851   26.8604 C   0  0  0  0  0  0  0  0  0  0  0  0
    9.6340  -13.4409   27.4015 C   0  0  0  0  0  0  0  0  0  0  0  0
    9.1333  -12.1662   27.4430 C   0  0  0  0  0  0  0  0  0  0  0  0
    7.8866  -11.9451   26.9343 C   0  0  0  0  0  0  0  0  0  0  0  0
    7.1281  -12.9669   26.3851 C   0  0  0  0  0  0  0  0  0  0  0  0
    7.6577  -14.2459   26.3557 C   0  0  0  0  0  0  0  0  0  0  0  0
   11.6057  -16.8434   26.2121 C   0  0  0  0  0  0  0  0  0  0  0  0
   12.7719  -16.4259   26.4582 O   0  0  0  0  0  0  0  0  0  0  0  0
   11.3574  -18.1742   26.4028 O   0  0  0  0  0  0  0  0  0  0  0  0
  2  3  1  0
  2  1  1  6
  3  4  1  0
  4  5  1  0
  5  6  1  0
  6  7  1  0
  8  2  1  0
  9  8  2  0
 11 10  1  0
 12 11  1  0
 12 14  1  0
 12 13  1  6
 14 15  1  1
 15  8  1  0
 16 14  1  0
 16 17  2  0
 18 16  1  0
 19 20  1  1
 19 18  1  0
 20 21  1  0
 21 26  2  0
 21 22  1  0
 22 23  2  0
 23 24  1  0
 25 24  2  0
 26 25  1  0
 27 19  1  0
 28 27  2  0
 29 27  1  0
M  END
$$$$
