KIF.pdb
     RDKit          3D

 29 29  0  0  1  0  0  0  0  0999 V2000
    7.2744  -17.3687   20.3371 N   0  0  0  0  0  0  0  0  0  0  0  0
    7.1466  -17.4915   21.7698 C   0  0  1  0  0  0  0  0  0  0  0  0
    7.6043  -18.7818   22.3150 C   0  0  0  0  0  0  0  0  0  0  0  0
    6.9978  -20.0397   21.8904 C   0  0  0  0  0  0  0  0  0  0  0  0
    7.3739  -21.3385   22.4494 C   0  0  0  0  0  0  0  0  0  0  0  0
    6.7896  -22.5880   21.9101 C   0  0  0  0  0  0  0  0  0  0  0  0
    7.2394  -22.6587   20.4854 N   0  0  0  0  0  0  0  0  0  0  0  0
    8.0201  -16.3979   22.3432 C   0  0  0  0  0  0  0  0  0  0  0  0
    9.0647  -16.1209   21.7047 O   0  0  0  0  0  0  0  0  0  0  0  0
    5.9493  -12.4763   25.6350 C   0  0  0  0  0  0  0  0  0  0  0  0
    6.7445  -13.2224   24.6372 C   0  0  0  0  0  0  0  0  0  0  0  0
    7.9783  -13.8915   25.0273 C   0  0  2  0  0  0  0  0  0  0  0  0
    8.9201  -12.8572   25.6789 C   0  0  0  0  0  0  0  0  0  0  0  0
    8.7224  -14.7289   24.0498 C   0  0  2  0  0  0  0  0  0  0  0  0
    7.7161  -15.7155   23.5088 N   0  0  0  0  0  0  0  0  0  0  0  0
    9.8152  -15.5072   24.6326 C   0  0  0  0  0  0  0  0  0  0  0  0
   11.0148  -15.0153   24.6301 O   0  0  0  0  0  0  0  0  0  0  0  0
    9.7290  -16.7905   25.2462 N   0  0  0  0  0  0  0  0  0  0  0  0
   10.8658  -17.3423   25.9730 C   0  0  1  0  0  0  0  0  0  0  0  0
   10.4613  -17.5423   27.4484 C   0  0  0  0  0  0  0  0  0  0  0  0
   10.3966  -16.2286   28.1393 C   0  0  0  0  0  0  0  0  0  0  0  0
    9.1570  -15.6170   28.2114 C   0  0  0  0  0  0  0  0  0  0  0  0
    8.9945  -14.4037   28.8270 C   0  0  0  0  0  0  0  0  0  0  0  0
   10.0919  -13.8046   29.3734 C   0  0  0  0  0  0  0  0  0  0  0  0
   11.3478  -14.3885   29.3196 C   0  0  0  0  0  0  0  0  0  0  0  0
   11.4844  -15.6148   28.6915 C   0  0  0  0  0  0  0  0  0  0  0  0
   11.2407  -18.6450   25.4731 C   0  0  0  0  0  0  0  0  0  0  0  0
   12.1951  -19.2669   26.0185 O   0  0  0  0  0  0  0  0  0  0  0  0
   10.6069  -19.2531   24.4255 O   0  0  0  0  0  0  0  0  0  0  0  0
  2  3  1  0
  2  1  1  6
  3  4  1  0
  4  5  1  0
  5  6  1  0
  6  7  1  0
  8  2  1  0
  9  8  2  0
 11 10  1  0
 12 11  1  0
 12 14  1  0
 12 13  1  6
 14 15  1  1
 15  8  1  0
 16 14  1  0
 16 17  2  0
 18 16  1  0
 19 20  1  1
 19 18  1  0
 20 21  1  0
 21 26  2  0
 21 22  1  0
 22 23  2  0
 23 24  1  0
 25 24  2  0
 26 25  1  0
 27 19  1  0
 28 27  2  0
 29 27  1  0
M  END
$$$$
