KIF.pdb
     RDKit          3D

 29 29  0  0  1  0  0  0  0  0999 V2000
   10.5326  -18.1030   18.4804 N   0  0  0  0  0  0  0  0  0  0  0  0
    9.3842  -18.0182   19.3510 C   0  0  1  0  0  0  0  0  0  0  0  0
    9.2088  -19.1768   20.2445 C   0  0  0  0  0  0  0  0  0  0  0  0
    8.6365  -20.4278   19.7568 C   0  0  0  0  0  0  0  0  0  0  0  0
    9.0451  -21.0595   18.5019 C   0  0  0  0  0  0  0  0  0  0  0  0
    8.4290  -22.3333   18.0647 C   0  0  0  0  0  0  0  0  0  0  0  0
    8.9367  -23.3712   19.0143 N   0  0  0  0  0  0  0  0  0  0  0  0
    9.6209  -16.7924   20.2048 C   0  0  0  0  0  0  0  0  0  0  0  0
   10.8153  -16.5222   20.4804 O   0  0  0  0  0  0  0  0  0  0  0  0
    7.3456  -12.0577   19.3745 C   0  0  0  0  0  0  0  0  0  0  0  0
    8.3023  -13.0662   19.8764 C   0  0  0  0  0  0  0  0  0  0  0  0
    8.0913  -13.7054   21.1683 C   0  0  2  0  0  0  0  0  0  0  0  0
    8.0533  -12.6166   22.2612 C   0  0  0  0  0  0  0  0  0  0  0  0
    8.9498  -14.8414   21.5957 C   0  0  2  0  0  0  0  0  0  0  0  0
    8.5990  -15.9861   20.6765 N   0  0  0  0  0  0  0  0  0  0  0  0
    8.7056  -15.2995   22.9633 C   0  0  0  0  0  0  0  0  0  0  0  0
    7.6503  -16.0095   23.2145 O   0  0  0  0  0  0  0  0  0  0  0  0
    9.5217  -15.0702   24.1088 N   0  0  0  0  0  0  0  0  0  0  0  0
    9.1326  -15.5936   25.4126 C   0  0  1  0  0  0  0  0  0  0  0  0
    7.6058  -15.4405   25.5729 C   0  0  0  0  0  0  0  0  0  0  0  0
    7.2853  -14.0963   26.1183 C   0  0  0  0  0  0  0  0  0  0  0  0
    8.3428  -13.2202   26.2922 C   0  0  0  0  0  0  0  0  0  0  0  0
    8.1497  -11.9583   26.7897 C   0  0  0  0  0  0  0  0  0  0  0  0
    6.8797  -11.5790   27.1137 C   0  0  0  0  0  0  0  0  0  0  0  0
    5.7978  -12.4303   26.9525 C   0  0  0  0  0  0  0  0  0  0  0  0
    6.0205  -13.7002   26.4477 C   0  0  0  0  0  0  0  0  0  0  0  0
    9.4150  -17.0057   25.5296 C   0  0  0  0  0  0  0  0  0  0  0  0
    9.8680  -17.6319   24.5307 O   0  0  0  0  0  0  0  0  0  0  0  0
    9.2176  -17.7133   26.6826 O   0  0  0  0  0  0  0  0  0  0  0  0
  2  3  1  0
  2  1  1  6
  3  4  1  0
  4  5  1  0
  5  6  1  0
  6  7  1  0
  8  2  1  0
  9  8  2  0
 11 10  1  0
 12 11  1  0
 12 14  1  0
 12 13  1  1
 14 15  1  6
 15  8  1  0
 16 14  1  0
 16 17  2  0
 18 16  1  0
 19 20  1  6
 19 18  1  0
 20 21  1  0
 21 26  2  0
 21 22  1  0
 22 23  2  0
 23 24  1  0
 25 24  2  0
 26 25  1  0
 27 19  1  0
 28 27  2  0
 29 27  1  0
M  END
$$$$
