KIF.pdb
     RDKit          3D

 29 29  0  0  1  0  0  0  0  0999 V2000
    8.4049  -17.8642   19.6265 N   0  0  0  0  0  0  0  0  0  0  0  0
    7.9335  -17.8972   20.9906 C   0  0  1  0  0  0  0  0  0  0  0  0
    8.1462  -19.1826   21.6790 C   0  0  0  0  0  0  0  0  0  0  0  0
    8.4873  -20.3912   20.9351 C   0  0  0  0  0  0  0  0  0  0  0  0
    9.8384  -20.6802   20.4535 C   0  0  0  0  0  0  0  0  0  0  0  0
   10.1510  -21.9847   19.8259 C   0  0  0  0  0  0  0  0  0  0  0  0
    9.5310  -21.9342   18.4657 N   0  0  0  0  0  0  0  0  0  0  0  0
    8.7305  -16.8344   21.7137 C   0  0  0  0  0  0  0  0  0  0  0  0
    9.9013  -16.6364   21.3066 O   0  0  0  0  0  0  0  0  0  0  0  0
    6.3107  -13.2103   25.4775 C   0  0  0  0  0  0  0  0  0  0  0  0
    7.1313  -14.2664   24.8485 C   0  0  0  0  0  0  0  0  0  0  0  0
    8.0629  -13.9381   23.7778 C   0  0  2  0  0  0  0  0  0  0  0  0
    7.2692  -13.3550   22.5898 C   0  0  0  0  0  0  0  0  0  0  0  0
    9.0477  -14.9448   23.3012 C   0  0  2  0  0  0  0  0  0  0  0  0
    8.2290  -16.0979   22.7733 N   0  0  0  0  0  0  0  0  0  0  0  0
    9.9166  -15.4802   24.3491 C   0  0  0  0  0  0  0  0  0  0  0  0
   10.6774  -14.6700   25.0165 O   0  0  0  0  0  0  0  0  0  0  0  0
   10.0319  -16.8387   24.7638 N   0  0  0  0  0  0  0  0  0  0  0  0
   10.5909  -17.1703   26.0686 C   0  0  1  0  0  0  0  0  0  0  0  0
    9.5227  -16.9010   27.1488 C   0  0  0  0  0  0  0  0  0  0  0  0
    9.8667  -15.6703   27.9066 C   0  0  0  0  0  0  0  0  0  0  0  0
    9.4348  -14.4658   27.3785 C   0  0  0  0  0  0  0  0  0  0  0  0
    9.7027  -13.2758   28.0026 C   0  0  0  0  0  0  0  0  0  0  0  0
   10.4118  -13.3031   29.1681 C   0  0  0  0  0  0  0  0  0  0  0  0
   10.8596  -14.4907   29.7251 C   0  0  0  0  0  0  0  0  0  0  0  0
   10.5752  -15.6791   29.0740 C   0  0  0  0  0  0  0  0  0  0  0  0
   10.9262  -18.5722   26.1678 C   0  0  0  0  0  0  0  0  0  0  0  0
   11.4584  -19.0086   27.2267 O   0  0  0  0  0  0  0  0  0  0  0  0
   10.6931  -19.4683   25.1620 O   0  0  0  0  0  0  0  0  0  0  0  0
  2  3  1  0
  2  1  1  6
  3  4  1  0
  4  5  1  0
  5  6  1  0
  6  7  1  0
  8  2  1  0
  9  8  2  0
 11 10  1  0
 12 11  1  0
 12 14  1  0
 12 13  1  6
 14 15  1  1
 15  8  1  0
 16 14  1  0
 16 17  2  0
 18 16  1  0
 19 20  1  1
 19 18  1  0
 20 21  1  0
 21 26  2  0
 21 22  1  0
 22 23  2  0
 23 24  1  0
 25 24  2  0
 26 25  1  0
 27 19  1  0
 28 27  2  0
 29 27  1  0
M  END
$$$$
