KIF.pdb
     RDKit          3D

 29 29  0  0  1  0  0  0  0  0999 V2000
   10.3888  -18.1950   18.5946 N   0  0  0  0  0  0  0  0  0  0  0  0
    9.3221  -18.1665   19.5668 C   0  0  1  0  0  0  0  0  0  0  0  0
    9.2826  -19.3348   20.4640 C   0  0  0  0  0  0  0  0  0  0  0  0
    9.3155  -20.6951   19.9358 C   0  0  0  0  0  0  0  0  0  0  0  0
    9.2884  -21.8851   20.7866 C   0  0  0  0  0  0  0  0  0  0  0  0
    9.4818  -23.2325   20.2030 C   0  0  0  0  0  0  0  0  0  0  0  0
    9.4967  -24.1744   21.3647 N   0  0  0  0  0  0  0  0  0  0  0  0
    9.5791  -16.9338   20.4046 C   0  0  0  0  0  0  0  0  0  0  0  0
   10.7734  -16.5600   20.5019 O   0  0  0  0  0  0  0  0  0  0  0  0
    7.2529  -12.3550   19.6085 C   0  0  0  0  0  0  0  0  0  0  0  0
    8.1927  -13.3900   20.0881 C   0  0  0  0  0  0  0  0  0  0  0  0
    8.0744  -13.9264   21.4372 C   0  0  2  0  0  0  0  0  0  0  0  0
    8.1208  -12.7570   22.4430 C   0  0  0  0  0  0  0  0  0  0  0  0
    8.9576  -15.0346   21.8872 C   0  0  2  0  0  0  0  0  0  0  0  0
    8.5753  -16.2281   21.0458 N   0  0  0  0  0  0  0  0  0  0  0  0
    8.7746  -15.4202   23.2863 C   0  0  0  0  0  0  0  0  0  0  0  0
    7.7041  -16.0655   23.6307 O   0  0  0  0  0  0  0  0  0  0  0  0
    9.6677  -15.1821   24.3709 N   0  0  0  0  0  0  0  0  0  0  0  0
    9.3490  -15.6579   25.7115 C   0  0  1  0  0  0  0  0  0  0  0  0
    7.8396  -15.4602   25.9621 C   0  0  0  0  0  0  0  0  0  0  0  0
    7.5565  -14.0308   26.2521 C   0  0  0  0  0  0  0  0  0  0  0  0
    6.2710  -13.5819   26.0032 C   0  0  0  0  0  0  0  0  0  0  0  0
    5.9116  -12.2805   26.2373 C   0  0  0  0  0  0  0  0  0  0  0  0
    6.8576  -11.4272   26.7262 C   0  0  0  0  0  0  0  0  0  0  0  0
    8.1539  -11.8428   26.9868 C   0  0  0  0  0  0  0  0  0  0  0  0
    8.4907  -13.1632   26.7414 C   0  0  0  0  0  0  0  0  0  0  0  0
    9.6035  -17.0731   25.8528 C   0  0  0  0  0  0  0  0  0  0  0  0
   10.0072  -17.7328   24.8544 O   0  0  0  0  0  0  0  0  0  0  0  0
    9.4306  -17.7487   27.0287 O   0  0  0  0  0  0  0  0  0  0  0  0
  2  3  1  0
  2  1  1  6
  3  4  1  0
  4  5  1  0
  5  6  1  0
  6  7  1  0
  8  2  1  0
  9  8  2  0
 11 10  1  0
 12 11  1  0
 12 14  1  0
 12 13  1  1
 14 15  1  6
 15  8  1  0
 16 14  1  0
 16 17  2  0
 18 16  1  0
 19 20  1  6
 19 18  1  0
 20 21  1  0
 21 26  2  0
 21 22  1  0
 22 23  2  0
 23 24  1  0
 25 24  2  0
 26 25  1  0
 27 19  1  0
 28 27  2  0
 29 27  1  0
M  END
$$$$
