VTF.pdb
     RDKit          3D

 26 26  0  0  1  0  0  0  0  0999 V2000
   27.1397  -16.3686  -13.5106 C   0  0  0  0  0  0  0  0  0  0  0  0
   26.3010  -16.4973  -14.7438 C   0  0  1  0  0  0  0  0  0  0  0  0
   26.8919  -15.6881  -15.8627 C   0  0  0  0  0  0  0  0  0  0  0  0
   26.0445  -17.9331  -15.1377 C   0  0  2  0  0  0  0  0  0  0  0  0
   25.2588  -17.9378  -16.3355 N   0  0  0  0  0  0  0  0  0  0  0  0
   25.3703  -18.6962  -14.0749 C   0  0  0  0  0  0  0  0  0  0  0  0
   24.1263  -18.6530  -13.8876 O   0  0  0  0  0  0  0  0  0  0  0  0
   26.7790  -22.3791  -13.0692 C   0  0  0  0  0  0  0  0  0  0  0  0
   25.4292  -21.8143  -12.7882 C   0  0  1  0  0  0  0  0  0  0  0  0
   24.8025  -22.6340  -11.8504 O   0  0  0  0  0  0  0  0  0  0  0  0
   25.4773  -20.4087  -12.2334 C   0  0  2  0  0  0  0  0  0  0  0  0
   26.1157  -19.5316  -13.1976 N   0  0  0  0  0  0  0  0  0  0  0  0
   26.1513  -20.3541  -10.9164 C   0  0  0  0  0  0  0  0  0  0  0  0
   27.3251  -19.9259  -10.8102 O   0  0  0  0  0  0  0  0  0  0  0  0
   25.5129  -20.7774   -9.7245 N   0  0  0  0  0  0  0  0  0  0  0  0
   26.2466  -20.7564   -8.4630 C   0  0  1  0  0  0  0  0  0  0  0  0
   26.7189  -19.3881   -8.1264 C   0  0  0  0  0  0  0  0  0  0  0  0
   27.4405  -19.3723   -6.8273 C   0  0  0  0  0  0  0  0  0  0  0  0
   26.7613  -19.6944   -5.6772 C   0  0  0  0  0  0  0  0  0  0  0  0
   27.4235  -19.6875   -4.4745 C   0  0  0  0  0  0  0  0  0  0  0  0
   28.7606  -19.3594   -4.4222 C   0  0  0  0  0  0  0  0  0  0  0  0
   29.4400  -19.0373   -5.5703 C   0  0  0  0  0  0  0  0  0  0  0  0
   28.7832  -19.0451   -6.7571 C   0  0  0  0  0  0  0  0  0  0  0  0
   25.3501  -21.2742   -7.4317 C   0  0  0  0  0  0  0  0  0  0  0  0
   24.1189  -21.0902   -7.5220 O   0  0  0  0  0  0  0  0  0  0  0  0
   25.8268  -21.9726   -6.3482 O   0  0  0  0  0  0  0  0  0  0  0  0
  2  1  1  1
  3  2  1  0
  4  6  1  0
  4  2  1  0
  4  5  1  6
  6  7  2  0
  9  8  1  1
  9 11  1  0
 10  9  1  0
 11 13  1  0
 11 12  1  6
 12  6  1  0
 13 14  2  0
 13 15  1  0
 15 16  1  0
 16 24  1  0
 16 17  1  1
 18 17  1  0
 19 18  2  0
 20 19  1  0
 21 20  2  0
 21 22  1  0
 22 23  2  0
 23 18  1  0
 24 25  2  0
 24 26  1  0
M  END
$$$$
