VTF.pdb
     RDKit          3D

 26 26  0  0  1  0  0  0  0  0999 V2000
   29.2095  -18.8030  -14.2062 C   0  0  0  0  0  0  0  0  0  0  0  0
   28.1127  -18.5168  -15.1838 C   0  0  1  0  0  0  0  0  0  0  0  0
   28.6279  -18.6214  -16.5907 C   0  0  0  0  0  0  0  0  0  0  0  0
   26.8795  -19.3584  -14.9526 C   0  0  2  0  0  0  0  0  0  0  0  0
   25.9461  -19.0881  -16.0052 N   0  0  0  0  0  0  0  0  0  0  0  0
   26.2642  -19.1061  -13.6395 C   0  0  0  0  0  0  0  0  0  0  0  0
   25.8584  -17.9691  -13.2829 O   0  0  0  0  0  0  0  0  0  0  0  0
   23.2542  -19.5924  -12.5872 C   0  0  0  0  0  0  0  0  0  0  0  0
   23.9862  -20.3637  -11.5435 C   0  0  1  0  0  0  0  0  0  0  0  0
   23.9272  -21.7151  -11.8816 O   0  0  0  0  0  0  0  0  0  0  0  0
   25.4402  -19.9675  -11.4228 C   0  0  2  0  0  0  0  0  0  0  0  0
   26.1006  -20.1618  -12.7005 N   0  0  0  0  0  0  0  0  0  0  0  0
   26.1276  -20.7017  -10.3363 C   0  0  0  0  0  0  0  0  0  0  0  0
   27.0722  -21.4876  -10.5866 O   0  0  0  0  0  0  0  0  0  0  0  0
   25.7581  -20.5557   -8.9763 N   0  0  0  0  0  0  0  0  0  0  0  0
   26.4470  -21.3331   -7.9510 C   0  0  1  0  0  0  0  0  0  0  0  0
   27.8606  -20.9020   -7.7938 C   0  0  0  0  0  0  0  0  0  0  0  0
   28.0775  -20.2366   -6.4828 C   0  0  0  0  0  0  0  0  0  0  0  0
   28.4862  -20.9877   -5.4074 C   0  0  0  0  0  0  0  0  0  0  0  0
   28.6941  -20.3780   -4.1949 C   0  0  0  0  0  0  0  0  0  0  0  0
   28.4938  -19.0217   -4.0584 C   0  0  0  0  0  0  0  0  0  0  0  0
   28.0854  -18.2706   -5.1319 C   0  0  0  0  0  0  0  0  0  0  0  0
   27.8809  -18.8756   -6.3287 C   0  0  0  0  0  0  0  0  0  0  0  0
   25.7018  -21.1642   -6.7055 C   0  0  0  0  0  0  0  0  0  0  0  0
   24.8451  -20.2620   -6.6055 O   0  0  0  0  0  0  0  0  0  0  0  0
   25.9149  -21.9832   -5.6226 O   0  0  0  0  0  0  0  0  0  0  0  0
  2  1  1  1
  3  2  1  0
  4  6  1  0
  4  2  1  0
  4  5  1  6
  6  7  2  0
  9  8  1  6
  9 11  1  0
 10  9  1  0
 11 13  1  0
 11 12  1  6
 12  6  1  0
 13 14  2  0
 13 15  1  0
 15 16  1  0
 16 24  1  0
 16 17  1  1
 18 17  1  0
 19 18  2  0
 20 19  1  0
 21 20  2  0
 21 22  1  0
 22 23  2  0
 23 18  1  0
 24 25  2  0
 24 26  1  0
M  END
$$$$
