VTF.pdb
     RDKit          3D

 26 26  0  0  1  0  0  0  0  0999 V2000
   24.5760  -25.0755  -14.9495 C   0  0  0  0  0  0  0  0  0  0  0  0
   25.7994  -24.3803  -15.4602 C   0  0  1  0  0  0  0  0  0  0  0  0
   26.6816  -25.3494  -16.1939 C   0  0  0  0  0  0  0  0  0  0  0  0
   25.4829  -23.1495  -16.2772 C   0  0  2  0  0  0  0  0  0  0  0  0
   26.7145  -22.6022  -16.7625 N   0  0  0  0  0  0  0  0  0  0  0  0
   24.7369  -22.1403  -15.5081 C   0  0  0  0  0  0  0  0  0  0  0  0
   25.2839  -21.3839  -14.6636 O   0  0  0  0  0  0  0  0  0  0  0  0
   23.1202  -19.1696  -16.6669 C   0  0  0  0  0  0  0  0  0  0  0  0
   22.0450  -19.9542  -15.9973 C   0  0  1  0  0  0  0  0  0  0  0  0
   21.3390  -20.6483  -16.9791 O   0  0  0  0  0  0  0  0  0  0  0  0
   22.5759  -20.9555  -14.9967 C   0  0  2  0  0  0  0  0  0  0  0  0
   23.3362  -21.9767  -15.6937 N   0  0  0  0  0  0  0  0  0  0  0  0
   21.4951  -21.5459  -14.1749 C   0  0  0  0  0  0  0  0  0  0  0  0
   21.1424  -22.7387  -14.3342 O   0  0  0  0  0  0  0  0  0  0  0  0
   20.8133  -20.8031  -13.1795 N   0  0  0  0  0  0  0  0  0  0  0  0
   19.7805  -21.4478  -12.3748 C   0  0  1  0  0  0  0  0  0  0  0  0
   19.4562  -20.6538  -11.1610 C   0  0  0  0  0  0  0  0  0  0  0  0
   19.1113  -19.2514  -11.5116 C   0  0  0  0  0  0  0  0  0  0  0  0
   20.1092  -18.3090  -11.5724 C   0  0  0  0  0  0  0  0  0  0  0  0
   19.7981  -17.0129  -11.9016 C   0  0  0  0  0  0  0  0  0  0  0  0
   18.4933  -16.6604  -12.1688 C   0  0  0  0  0  0  0  0  0  0  0  0
   17.4956  -17.6010  -12.1082 C   0  0  0  0  0  0  0  0  0  0  0  0
   17.8060  -18.8808  -11.7829 C   0  0  0  0  0  0  0  0  0  0  0  0
   18.6056  -21.6116  -13.2280 C   0  0  0  0  0  0  0  0  0  0  0  0
   17.6222  -22.2638  -12.8215 O   0  0  0  0  0  0  0  0  0  0  0  0
   18.5460  -21.0582  -14.4847 O   0  0  0  0  0  0  0  0  0  0  0  0
  2  1  1  6
  3  2  1  0
  4  6  1  0
  4  2  1  0
  4  5  1  1
  6  7  2  0
  9  8  1  6
  9 11  1  0
 10  9  1  0
 11 13  1  0
 11 12  1  6
 12  6  1  0
 13 14  2  0
 13 15  1  0
 15 16  1  0
 16 24  1  0
 16 17  1  1
 18 17  1  0
 19 18  2  0
 20 19  1  0
 21 20  2  0
 21 22  1  0
 22 23  2  0
 23 18  1  0
 24 25  2  0
 24 26  1  0
M  END
$$$$
