VTF.pdb
     RDKit          3D

 26 26  0  0  1  0  0  0  0  0999 V2000
   29.0854  -18.6592  -13.9770 C   0  0  0  0  0  0  0  0  0  0  0  0
   28.1291  -18.3534  -15.0874 C   0  0  1  0  0  0  0  0  0  0  0  0
   28.8573  -18.2887  -16.3994 C   0  0  0  0  0  0  0  0  0  0  0  0
   26.9463  -19.2925  -15.1250 C   0  0  2  0  0  0  0  0  0  0  0  0
   26.1439  -18.9606  -16.2643 N   0  0  0  0  0  0  0  0  0  0  0  0
   26.1428  -19.2349  -13.8930 C   0  0  0  0  0  0  0  0  0  0  0  0
   25.1276  -18.5003  -13.7739 O   0  0  0  0  0  0  0  0  0  0  0  0
   23.6961  -20.0158  -13.1832 C   0  0  0  0  0  0  0  0  0  0  0  0
   24.2964  -20.7090  -12.0088 C   0  0  1  0  0  0  0  0  0  0  0  0
   24.4831  -22.0492  -12.3449 O   0  0  0  0  0  0  0  0  0  0  0  0
   25.6319  -20.1320  -11.5975 C   0  0  2  0  0  0  0  0  0  0  0  0
   26.4905  -20.0255  -12.7629 N   0  0  0  0  0  0  0  0  0  0  0  0
   26.2702  -20.9218  -10.5202 C   0  0  0  0  0  0  0  0  0  0  0  0
   27.4067  -21.4276  -10.6784 O   0  0  0  0  0  0  0  0  0  0  0  0
   25.6378  -21.1435   -9.2719 N   0  0  0  0  0  0  0  0  0  0  0  0
   26.4267  -21.1116   -8.0444 C   0  0  1  0  0  0  0  0  0  0  0  0
   27.1866  -19.8410   -7.9142 C   0  0  0  0  0  0  0  0  0  0  0  0
   27.8883  -19.7654   -6.6063 C   0  0  0  0  0  0  0  0  0  0  0  0
   28.7785  -20.7540   -6.2631 C   0  0  0  0  0  0  0  0  0  0  0  0
   29.4345  -20.6870   -5.0589 C   0  0  0  0  0  0  0  0  0  0  0  0
   29.2009  -19.6348   -4.2006 C   0  0  0  0  0  0  0  0  0  0  0  0
   28.3117  -18.6468   -4.5424 C   0  0  0  0  0  0  0  0  0  0  0  0
   27.6651  -18.7156   -5.7329 C   0  0  0  0  0  0  0  0  0  0  0  0
   25.4998  -21.2893   -6.9288 C   0  0  0  0  0  0  0  0  0  0  0  0
   24.3482  -20.8118   -6.9891 O   0  0  0  0  0  0  0  0  0  0  0  0
   25.8601  -21.9803   -5.7967 O   0  0  0  0  0  0  0  0  0  0  0  0
  2  1  1  1
  3  2  1  0
  4  6  1  0
  4  2  1  0
  4  5  1  6
  6  7  2  0
  9  8  1  6
  9 11  1  0
 10  9  1  0
 11 13  1  0
 11 12  1  6
 12  6  1  0
 13 14  2  0
 13 15  1  0
 15 16  1  0
 16 24  1  0
 16 17  1  1
 18 17  1  0
 19 18  2  0
 20 19  1  0
 21 20  2  0
 21 22  1  0
 22 23  2  0
 23 18  1  0
 24 25  2  0
 24 26  1  0
M  END
$$$$
