VTF.pdb
     RDKit          3D

 26 26  0  0  1  0  0  0  0  0999 V2000
   28.6095  -16.9377  -15.8377 C   0  0  0  0  0  0  0  0  0  0  0  0
   27.7279  -17.3009  -14.6837 C   0  0  1  0  0  0  0  0  0  0  0  0
   26.8356  -16.1469  -14.3261 C   0  0  0  0  0  0  0  0  0  0  0  0
   26.9592  -18.5823  -14.9067 C   0  0  2  0  0  0  0  0  0  0  0  0
   26.1950  -18.4452  -16.1105 N   0  0  0  0  0  0  0  0  0  0  0  0
   26.0817  -18.9165  -13.7732 C   0  0  0  0  0  0  0  0  0  0  0  0
   25.0400  -18.2644  -13.5010 O   0  0  0  0  0  0  0  0  0  0  0  0
   24.0408  -21.7176  -13.4390 C   0  0  0  0  0  0  0  0  0  0  0  0
   24.8792  -21.7691  -12.2083 C   0  0  1  0  0  0  0  0  0  0  0  0
   25.9092  -22.6840  -12.4230 O   0  0  0  0  0  0  0  0  0  0  0  0
   25.4955  -20.4349  -11.8534 C   0  0  2  0  0  0  0  0  0  0  0  0
   26.3838  -20.0148  -12.9215 N   0  0  0  0  0  0  0  0  0  0  0  0
   26.1928  -20.4749  -10.5479 C   0  0  0  0  0  0  0  0  0  0  0  0
   27.4186  -20.2241  -10.4640 O   0  0  0  0  0  0  0  0  0  0  0  0
   25.5195  -20.7942   -9.3430 N   0  0  0  0  0  0  0  0  0  0  0  0
   26.2665  -20.8578   -8.0907 C   0  0  1  0  0  0  0  0  0  0  0  0
   26.8959  -19.5524   -7.7612 C   0  0  0  0  0  0  0  0  0  0  0  0
   27.5897  -19.6058   -6.4480 C   0  0  0  0  0  0  0  0  0  0  0  0
   26.9123  -20.0748   -5.3485 C   0  0  0  0  0  0  0  0  0  0  0  0
   27.5493  -20.1323   -4.1337 C   0  0  0  0  0  0  0  0  0  0  0  0
   28.8595  -19.7219   -4.0187 C   0  0  0  0  0  0  0  0  0  0  0  0
   29.5371  -19.2530   -5.1163 C   0  0  0  0  0  0  0  0  0  0  0  0
   28.9052  -19.1975   -6.3153 C   0  0  0  0  0  0  0  0  0  0  0  0
   25.3299  -21.2707   -7.0479 C   0  0  0  0  0  0  0  0  0  0  0  0
   24.1006  -21.2387   -7.2616 O   0  0  0  0  0  0  0  0  0  0  0  0
   25.7665  -21.7042   -5.8189 O   0  0  0  0  0  0  0  0  0  0  0  0
  2  1  1  6
  3  2  1  0
  4  6  1  0
  4  2  1  0
  4  5  1  6
  6  7  2  0
  9  8  1  6
  9 11  1  0
 10  9  1  0
 11 13  1  0
 11 12  1  6
 12  6  1  0
 13 14  2  0
 13 15  1  0
 15 16  1  0
 16 24  1  0
 16 17  1  1
 18 17  1  0
 19 18  2  0
 20 19  1  0
 21 20  2  0
 21 22  1  0
 22 23  2  0
 23 18  1  0
 24 25  2  0
 24 26  1  0
M  END
$$$$
