VTF.pdb
     RDKit          3D

 26 26  0  0  1  0  0  0  0  0999 V2000
   28.2353  -17.6118  -19.6967 C   0  0  0  0  0  0  0  0  0  0  0  0
   27.5746  -17.4206  -18.3672 C   0  0  1  0  0  0  0  0  0  0  0  0
   26.1016  -17.1880  -18.5458 C   0  0  0  0  0  0  0  0  0  0  0  0
   27.8728  -18.5357  -17.3924 C   0  0  2  0  0  0  0  0  0  0  0  0
   27.4050  -19.7656  -17.9585 N   0  0  0  0  0  0  0  0  0  0  0  0
   27.2606  -18.3085  -16.0733 C   0  0  0  0  0  0  0  0  0  0  0  0
   27.6120  -17.3714  -15.3099 O   0  0  0  0  0  0  0  0  0  0  0  0
   23.8821  -17.4026  -15.3962 C   0  0  0  0  0  0  0  0  0  0  0  0
   24.0948  -18.6310  -14.5801 C   0  0  1  0  0  0  0  0  0  0  0  0
   23.5353  -19.7090  -15.2649 O   0  0  0  0  0  0  0  0  0  0  0  0
   25.5550  -18.9329  -14.3308 C   0  0  2  0  0  0  0  0  0  0  0  0
   26.2239  -19.1590  -15.5989 N   0  0  0  0  0  0  0  0  0  0  0  0
   25.7361  -20.0758  -13.4072 C   0  0  0  0  0  0  0  0  0  0  0  0
   26.0870  -21.2010  -13.8351 O   0  0  0  0  0  0  0  0  0  0  0  0
   25.5250  -19.9578  -12.0112 N   0  0  0  0  0  0  0  0  0  0  0  0
   25.6810  -21.1284  -11.1536 C   0  0  1  0  0  0  0  0  0  0  0  0
   26.9856  -21.1163  -10.4418 C   0  0  0  0  0  0  0  0  0  0  0  0
   26.9306  -20.2547   -9.2322 C   0  0  0  0  0  0  0  0  0  0  0  0
   27.4316  -18.9768   -9.2939 C   0  0  0  0  0  0  0  0  0  0  0  0
   27.3785  -18.1737   -8.1816 C   0  0  0  0  0  0  0  0  0  0  0  0
   26.8263  -18.6470   -7.0114 C   0  0  0  0  0  0  0  0  0  0  0  0
   26.3258  -19.9234   -6.9486 C   0  0  0  0  0  0  0  0  0  0  0  0
   26.3795  -20.7146   -8.0491 C   0  0  0  0  0  0  0  0  0  0  0  0
   24.5649  -21.1265  -10.2105 C   0  0  0  0  0  0  0  0  0  0  0  0
   24.4007  -22.0884   -9.4323 O   0  0  0  0  0  0  0  0  0  0  0  0
   23.6763  -20.0798  -10.1491 O   0  0  0  0  0  0  0  0  0  0  0  0
  2  1  1  6
  3  2  1  0
  4  6  1  0
  4  2  1  0
  4  5  1  6
  6  7  2  0
  9  8  1  6
  9 11  1  0
 10  9  1  0
 11 13  1  0
 11 12  1  6
 12  6  1  0
 13 14  2  0
 13 15  1  0
 15 16  1  0
 16 24  1  0
 16 17  1  1
 18 17  1  0
 19 18  2  0
 20 19  1  0
 21 20  2  0
 21 22  1  0
 22 23  2  0
 23 18  1  0
 24 25  2  0
 24 26  1  0
M  END
$$$$
