VTF.pdb
     RDKit          3D

 26 26  0  0  1  0  0  0  0  0999 V2000
   17.3088  -11.3953  -18.3721 C   0  0  0  0  0  0  0  0  0  0  0  0
   18.2584  -10.5385  -17.5943 C   0  0  1  0  0  0  0  0  0  0  0  0
   17.8003  -10.4139  -16.1693 C   0  0  0  0  0  0  0  0  0  0  0  0
   19.6942  -10.9952  -17.7052 C   0  0  2  0  0  0  0  0  0  0  0  0
   19.7715  -12.3517  -17.2516 N   0  0  0  0  0  0  0  0  0  0  0  0
   20.6169  -10.1413  -16.9397 C   0  0  0  0  0  0  0  0  0  0  0  0
   20.9295  -10.3753  -15.7429 O   0  0  0  0  0  0  0  0  0  0  0  0
   24.1211   -9.1542  -17.9709 C   0  0  0  0  0  0  0  0  0  0  0  0
   23.3611   -7.9057  -17.6813 C   0  0  1  0  0  0  0  0  0  0  0  0
   22.9457   -7.3593  -18.8950 O   0  0  0  0  0  0  0  0  0  0  0  0
   22.1389   -8.1401  -16.8229 C   0  0  2  0  0  0  0  0  0  0  0  0
   21.2049   -8.9919  -17.5362 N   0  0  0  0  0  0  0  0  0  0  0  0
   21.5055   -6.8705  -16.3997 C   0  0  0  0  0  0  0  0  0  0  0  0
   20.6233   -6.3243  -17.1039 O   0  0  0  0  0  0  0  0  0  0  0  0
   21.8592   -6.2168  -15.1936 N   0  0  0  0  0  0  0  0  0  0  0  0
   21.2302   -4.9462  -14.8469 C   0  0  1  0  0  0  0  0  0  0  0  0
   19.8549   -5.1417  -14.3186 C   0  0  0  0  0  0  0  0  0  0  0  0
   19.8687   -5.9375  -13.0636 C   0  0  0  0  0  0  0  0  0  0  0  0
   19.8376   -7.3091  -13.1370 C   0  0  0  0  0  0  0  0  0  0  0  0
   19.8561   -8.0502  -11.9814 C   0  0  0  0  0  0  0  0  0  0  0  0
   19.9052   -7.4217  -10.7564 C   0  0  0  0  0  0  0  0  0  0  0  0
   19.9360   -6.0516  -10.6818 C   0  0  0  0  0  0  0  0  0  0  0  0
   19.9178   -5.3220  -11.8252 C   0  0  0  0  0  0  0  0  0  0  0  0
   22.0873   -4.2936  -13.8597 C   0  0  0  0  0  0  0  0  0  0  0  0
   23.0501   -4.9110  -13.3602 O   0  0  0  0  0  0  0  0  0  0  0  0
   21.8657   -2.9977  -13.4587 O   0  0  0  0  0  0  0  0  0  0  0  0
  2  1  1  6
  3  2  1  0
  4  6  1  0
  4  2  1  0
  4  5  1  1
  6  7  2  0
  9  8  1  6
  9 11  1  0
 10  9  1  0
 11 13  1  0
 11 12  1  6
 12  6  1  0
 13 14  2  0
 13 15  1  0
 15 16  1  0
 16 24  1  0
 16 17  1  1
 18 17  1  0
 19 18  2  0
 20 19  1  0
 21 20  2  0
 21 22  1  0
 22 23  2  0
 23 18  1  0
 24 25  2  0
 24 26  1  0
M  END
$$$$
