YSF.pdb
     RDKit          3D

 30 31  0  0  1  0  0  0  0  0999 V2000
   12.7229  -16.1496   14.3724 O   0  0  0  0  0  0  0  0  0  0  0  0
   12.0325  -15.7054   15.4845 C   0  0  0  0  0  0  0  0  0  0  0  0
   12.6848  -15.4452   16.6591 C   0  0  0  0  0  0  0  0  0  0  0  0
   12.0137  -15.0045   17.7692 C   0  0  0  0  0  0  0  0  0  0  0  0
   10.6400  -14.8231   17.6830 C   0  0  0  0  0  0  0  0  0  0  0  0
    9.9658  -14.3416   18.9253 C   0  0  0  0  0  0  0  0  0  0  0  0
    8.4411  -14.3611   18.7561 C   0  0  2  0  0  0  0  0  0  0  0  0
    8.0393  -13.0300   18.3298 N   0  0  0  0  0  0  0  0  0  0  0  0
    7.8673  -14.5874   20.1077 C   0  0  0  0  0  0  0  0  0  0  0  0
    7.8651  -13.5719   20.8813 O   0  0  0  0  0  0  0  0  0  0  0  0
    9.9518  -15.0743   16.5202 C   0  0  0  0  0  0  0  0  0  0  0  0
   10.6594  -15.5159   15.4252 C   0  0  0  0  0  0  0  0  0  0  0  0
    6.6672  -18.2332   21.6224 O   0  0  0  0  0  0  0  0  0  0  0  0
    5.8758  -17.1467   21.8625 C   0  0  0  0  0  0  0  0  0  0  0  0
    6.7431  -15.8912   21.8629 C   0  0  2  0  0  0  0  0  0  0  0  0
    7.3485  -15.8267   20.5467 N   0  0  0  0  0  0  0  0  0  0  0  0
    7.7534  -16.0257   22.9197 C   0  0  0  0  0  0  0  0  0  0  0  0
    9.0028  -15.9244   22.6874 O   0  0  0  0  0  0  0  0  0  0  0  0
    7.3366  -16.2753   24.2499 N   0  0  0  0  0  0  0  0  0  0  0  0
    8.3047  -16.4238   25.3345 C   0  0  1  0  0  0  0  0  0  0  0  0
    9.1745  -15.1865   25.3418 C   0  0  0  0  0  0  0  0  0  0  0  0
    8.3629  -13.9968   25.6493 C   0  0  0  0  0  0  0  0  0  0  0  0
    7.8651  -13.2091   24.6345 C   0  0  0  0  0  0  0  0  0  0  0  0
    7.0851  -12.0872   24.8883 C   0  0  0  0  0  0  0  0  0  0  0  0
    6.7807  -11.7229   26.1947 C   0  0  0  0  0  0  0  0  0  0  0  0
    7.2790  -12.5110   27.2050 C   0  0  0  0  0  0  0  0  0  0  0  0
    8.0515  -13.6211   26.9364 C   0  0  0  0  0  0  0  0  0  0  0  0
    7.6437  -16.6815   26.6158 C   0  0  0  0  0  0  0  0  0  0  0  0
    8.3691  -16.9390   27.6283 O   0  0  0  0  0  0  0  0  0  0  0  0
    6.2788  -16.6673   26.8227 O   0  0  0  0  0  0  0  0  0  0  0  0
  2  1  1  0
  2  3  2  0
  4  3  1  0
  5  4  2  0
  6  5  1  0
  7  6  1  0
  7  8  1  1
  9 10  2  0
  9  7  1  0
 11 12  2  0
 11  5  1  0
 12  2  1  0
 13 14  1  0
 15 14  1  6
 15 16  1  0
 16  9  1  0
 17 18  2  0
 17 15  1  0
 19 17  1  0
 20 21  1  1
 20 19  1  0
 22 21  1  0
 22 23  2  0
 24 23  1  0
 25 24  2  0
 26 27  2  0
 26 25  1  0
 27 22  1  0
 28 20  1  0
 29 28  2  0
 30 28  1  0
M  END
$$$$
