YSF.pdb
     RDKit          3D

 30 31  0  0  1  0  0  0  0  0999 V2000
    8.1385  -13.0574   15.9205 O   0  0  0  0  0  0  0  0  0  0  0  0
    8.0481  -13.5759   17.1986 C   0  0  0  0  0  0  0  0  0  0  0  0
    7.9688  -12.7510   18.2877 C   0  0  0  0  0  0  0  0  0  0  0  0
    7.8788  -13.2506   19.5602 C   0  0  0  0  0  0  0  0  0  0  0  0
    7.8689  -14.6283   19.7306 C   0  0  0  0  0  0  0  0  0  0  0  0
    7.7691  -15.1111   21.1401 C   0  0  0  0  0  0  0  0  0  0  0  0
    7.6093  -16.6364   21.1799 C   0  0  2  0  0  0  0  0  0  0  0  0
    6.1871  -16.9221   21.0758 N   0  0  0  0  0  0  0  0  0  0  0  0
    8.0533  -17.0744   22.5283 C   0  0  0  0  0  0  0  0  0  0  0  0
    7.1671  -17.0151   23.4453 O   0  0  0  0  0  0  0  0  0  0  0  0
    7.9469  -15.4871   18.6606 C   0  0  0  0  0  0  0  0  0  0  0  0
    8.0362  -14.9490   17.3968 C   0  0  0  0  0  0  0  0  0  0  0  0
   11.7177  -18.8143   23.4697 O   0  0  0  0  0  0  0  0  0  0  0  0
   10.5507  -19.1380   24.1004 C   0  0  0  0  0  0  0  0  0  0  0  0
    9.6719  -17.8936   24.1876 C   0  0  2  0  0  0  0  0  0  0  0  0
    9.3586  -17.5323   22.8186 N   0  0  0  0  0  0  0  0  0  0  0  0
   10.4305  -16.8368   24.8685 C   0  0  0  0  0  0  0  0  0  0  0  0
   11.2306  -16.0622   24.2480 O   0  0  0  0  0  0  0  0  0  0  0  0
   10.2743  -16.6608   26.2650 N   0  0  0  0  0  0  0  0  0  0  0  0
   11.0187  -15.6329   26.9894 C   0  0  1  0  0  0  0  0  0  0  0  0
   10.7233  -14.3050   26.3283 C   0  0  0  0  0  0  0  0  0  0  0  0
    9.3405  -13.8896   26.6181 C   0  0  0  0  0  0  0  0  0  0  0  0
    9.0795  -12.9791   27.6187 C   0  0  0  0  0  0  0  0  0  0  0  0
    7.7884  -12.5553   27.9103 C   0  0  0  0  0  0  0  0  0  0  0  0
    6.7069  -13.0466   27.1884 C   0  0  0  0  0  0  0  0  0  0  0  0
    6.9707  -13.9549   26.1906 C   0  0  0  0  0  0  0  0  0  0  0  0
    8.2577  -14.3652   25.9139 C   0  0  0  0  0  0  0  0  0  0  0  0
   10.7127  -15.6539   28.4215 C   0  0  0  0  0  0  0  0  0  0  0  0
    9.8019  -16.4407   28.8327 O   0  0  0  0  0  0  0  0  0  0  0  0
   11.3391  -14.8816   29.3792 O   0  0  0  0  0  0  0  0  0  0  0  0
  2  1  1  0
  2  3  2  0
  4  3  1  0
  5  4  2  0
  6  5  1  0
  7  6  1  0
  7  8  1  1
  9 10  2  0
  9  7  1  0
 11 12  2  0
 11  5  1  0
 12  2  1  0
 13 14  1  0
 15 14  1  6
 15 16  1  0
 16  9  1  0
 17 18  2  0
 17 15  1  0
 19 17  1  0
 20 21  1  6
 20 19  1  0
 22 21  1  0
 22 23  2  0
 24 23  1  0
 25 24  2  0
 26 27  2  0
 26 25  1  0
 27 22  1  0
 28 20  1  0
 29 28  2  0
 30 28  1  0
M  END
$$$$
