YSF.pdb
     RDKit          3D

 30 31  0  0  1  0  0  0  0  0999 V2000
    7.8080  -12.8412   15.7940 O   0  0  0  0  0  0  0  0  0  0  0  0
    7.8966  -13.3523   17.0752 C   0  0  0  0  0  0  0  0  0  0  0  0
    7.0478  -12.9281   18.0614 C   0  0  0  0  0  0  0  0  0  0  0  0
    7.1239  -13.4258   19.3356 C   0  0  0  0  0  0  0  0  0  0  0  0
    8.0905  -14.3821   19.6154 C   0  0  0  0  0  0  0  0  0  0  0  0
    8.1233  -14.8854   21.0209 C   0  0  0  0  0  0  0  0  0  0  0  0
    8.0867  -16.4189   21.0478 C   0  0  2  0  0  0  0  0  0  0  0  0
    6.8440  -16.8300   20.4140 N   0  0  0  0  0  0  0  0  0  0  0  0
    8.0095  -16.8163   22.4773 C   0  0  0  0  0  0  0  0  0  0  0  0
    6.9829  -17.5017   22.8028 O   0  0  0  0  0  0  0  0  0  0  0  0
    8.9597  -14.8317   18.6505 C   0  0  0  0  0  0  0  0  0  0  0  0
    8.8535  -14.3090   17.3816 C   0  0  0  0  0  0  0  0  0  0  0  0
   10.2430  -19.6649   24.4847 O   0  0  0  0  0  0  0  0  0  0  0  0
    9.8838  -18.6706   23.6204 C   0  0  0  0  0  0  0  0  0  0  0  0
    9.3593  -17.4823   24.4212 C   0  0  2  0  0  0  0  0  0  0  0  0
    8.9847  -16.4792   23.4432 N   0  0  0  0  0  0  0  0  0  0  0  0
   10.4327  -17.0073   25.3032 C   0  0  0  0  0  0  0  0  0  0  0  0
   11.6056  -16.7506   24.8748 O   0  0  0  0  0  0  0  0  0  0  0  0
   10.1666  -16.8218   26.6817 N   0  0  0  0  0  0  0  0  0  0  0  0
   10.9116  -15.8468   27.4751 C   0  0  1  0  0  0  0  0  0  0  0  0
   10.9078  -14.5404   26.7128 C   0  0  0  0  0  0  0  0  0  0  0  0
    9.5736  -13.9200   26.7746 C   0  0  0  0  0  0  0  0  0  0  0  0
    8.6097  -14.2418   25.8443 C   0  0  0  0  0  0  0  0  0  0  0  0
    7.3366  -13.6855   25.8805 C   0  0  0  0  0  0  0  0  0  0  0  0
    6.9952  -12.7740   26.8729 C   0  0  0  0  0  0  0  0  0  0  0  0
    7.9593  -12.4551   27.7996 C   0  0  0  0  0  0  0  0  0  0  0  0
    9.2179  -13.0161   27.7497 C   0  0  0  0  0  0  0  0  0  0  0  0
   10.3745  -15.7330   28.8329 C   0  0  0  0  0  0  0  0  0  0  0  0
   10.9488  -14.9401   29.6448 O   0  0  0  0  0  0  0  0  0  0  0  0
    9.2798  -16.4226   29.3146 O   0  0  0  0  0  0  0  0  0  0  0  0
  2  1  1  0
  2  3  2  0
  4  3  1  0
  5  4  2  0
  6  5  1  0
  7  6  1  0
  7  8  1  6
  9 10  2  0
  9  7  1  0
 11 12  2  0
 11  5  1  0
 12  2  1  0
 13 14  1  0
 15 14  1  6
 15 16  1  0
 16  9  1  0
 17 18  2  0
 17 15  1  0
 19 17  1  0
 20 21  1  6
 20 19  1  0
 22 21  1  0
 22 23  2  0
 24 23  1  0
 25 24  2  0
 26 27  2  0
 26 25  1  0
 27 22  1  0
 28 20  1  0
 29 28  2  0
 30 28  1  0
M  END
$$$$
