YSF.pdb
     RDKit          3D

 30 31  0  0  1  0  0  0  0  0999 V2000
    8.5726  -12.9015   16.5007 O   0  0  0  0  0  0  0  0  0  0  0  0
    8.3509  -13.3947   17.7729 C   0  0  0  0  0  0  0  0  0  0  0  0
    9.2475  -14.2431   18.3638 C   0  0  0  0  0  0  0  0  0  0  0  0
    9.0410  -14.7398   19.6239 C   0  0  0  0  0  0  0  0  0  0  0  0
    7.8902  -14.3631   20.3028 C   0  0  0  0  0  0  0  0  0  0  0  0
    7.7219  -14.9371   21.6710 C   0  0  0  0  0  0  0  0  0  0  0  0
    7.3567  -16.4251   21.5928 C   0  0  2  0  0  0  0  0  0  0  0  0
    5.9145  -16.5049   21.4236 N   0  0  0  0  0  0  0  0  0  0  0  0
    7.6821  -17.0120   22.9182 C   0  0  0  0  0  0  0  0  0  0  0  0
    6.8809  -16.7100   23.8651 O   0  0  0  0  0  0  0  0  0  0  0  0
    6.9679  -13.5132   19.7409 C   0  0  0  0  0  0  0  0  0  0  0  0
    7.2089  -13.0341   18.4732 C   0  0  0  0  0  0  0  0  0  0  0  0
   10.9612  -19.3094   23.5847 O   0  0  0  0  0  0  0  0  0  0  0  0
    9.9265  -19.4848   24.4583 C   0  0  0  0  0  0  0  0  0  0  0  0
    9.1128  -18.1959   24.5294 C   0  0  2  0  0  0  0  0  0  0  0  0
    8.7933  -17.8522   23.1572 N   0  0  0  0  0  0  0  0  0  0  0  0
    9.9356  -17.1628   25.1709 C   0  0  0  0  0  0  0  0  0  0  0  0
   10.7331  -16.4178   24.5120 O   0  0  0  0  0  0  0  0  0  0  0  0
    9.8472  -16.9767   26.5720 N   0  0  0  0  0  0  0  0  0  0  0  0
   10.7837  -16.1100   27.2841 C   0  0  1  0  0  0  0  0  0  0  0  0
   10.7546  -14.7562   26.6104 C   0  0  0  0  0  0  0  0  0  0  0  0
    9.4509  -14.1074   26.8299 C   0  0  0  0  0  0  0  0  0  0  0  0
    8.4132  -14.3076   25.9460 C   0  0  0  0  0  0  0  0  0  0  0  0
    7.1663  -13.7217   26.1294 C   0  0  0  0  0  0  0  0  0  0  0  0
    6.9280  -12.9041   27.2280 C   0  0  0  0  0  0  0  0  0  0  0  0
    7.9656  -12.7064   28.1081 C   0  0  0  0  0  0  0  0  0  0  0  0
    9.1969  -13.2952   27.9117 C   0  0  0  0  0  0  0  0  0  0  0  0
   10.4860  -16.0565   28.7171 C   0  0  0  0  0  0  0  0  0  0  0  0
   11.2473  -15.3663   29.4666 O   0  0  0  0  0  0  0  0  0  0  0  0
    9.4320  -16.7002   29.3342 O   0  0  0  0  0  0  0  0  0  0  0  0
  2  1  1  0
  2  3  2  0
  4  3  1  0
  5  4  2  0
  6  5  1  0
  7  6  1  0
  7  8  1  1
  9 10  2  0
  9  7  1  0
 11 12  2  0
 11  5  1  0
 12  2  1  0
 13 14  1  0
 15 14  1  6
 15 16  1  0
 16  9  1  0
 17 18  2  0
 17 15  1  0
 19 17  1  0
 20 21  1  6
 20 19  1  0
 22 21  1  0
 22 23  2  0
 24 23  1  0
 25 24  2  0
 26 27  2  0
 26 25  1  0
 27 22  1  0
 28 20  1  0
 29 28  2  0
 30 28  1  0
M  END
$$$$
