YSF.pdb
     RDKit          3D

 30 31  0  0  1  0  0  0  0  0999 V2000
    7.6051  -12.0721   16.9844 O   0  0  0  0  0  0  0  0  0  0  0  0
    7.6958  -12.7626   18.1785 C   0  0  0  0  0  0  0  0  0  0  0  0
    6.5779  -13.2683   18.7846 C   0  0  0  0  0  0  0  0  0  0  0  0
    6.6526  -13.9546   19.9680 C   0  0  0  0  0  0  0  0  0  0  0  0
    7.8994  -14.1321   20.5520 C   0  0  0  0  0  0  0  0  0  0  0  0
    7.9155  -14.8877   21.8399 C   0  0  0  0  0  0  0  0  0  0  0  0
    8.4716  -16.3021   21.6308 C   0  0  2  0  0  0  0  0  0  0  0  0
    7.4457  -17.0696   20.9428 N   0  0  0  0  0  0  0  0  0  0  0  0
    8.6398  -16.8958   22.9823 C   0  0  0  0  0  0  0  0  0  0  0  0
    7.5583  -17.2086   23.5840 O   0  0  0  0  0  0  0  0  0  0  0  0
    9.0434  -13.6384   19.9721 C   0  0  0  0  0  0  0  0  0  0  0  0
    8.9296  -12.9541   18.7833 C   0  0  0  0  0  0  0  0  0  0  0  0
   12.0473  -18.3596   24.2172 O   0  0  0  0  0  0  0  0  0  0  0  0
   10.9532  -18.7835   24.9155 C   0  0  0  0  0  0  0  0  0  0  0  0
    9.9150  -17.6654   24.9383 C   0  0  2  0  0  0  0  0  0  0  0  0
    9.8937  -17.1163   23.5963 N   0  0  0  0  0  0  0  0  0  0  0  0
   10.3327  -16.6647   25.9283 C   0  0  0  0  0  0  0  0  0  0  0  0
   11.1750  -15.7467   25.6582 O   0  0  0  0  0  0  0  0  0  0  0  0
    9.7853  -16.7099   27.2335 N   0  0  0  0  0  0  0  0  0  0  0  0
   10.2641  -15.8206   28.2897 C   0  0  1  0  0  0  0  0  0  0  0  0
    9.0660  -15.0782   28.8384 C   0  0  0  0  0  0  0  0  0  0  0  0
    8.5223  -14.1663   27.8179 C   0  0  0  0  0  0  0  0  0  0  0  0
    7.3821  -14.4991   27.1198 C   0  0  0  0  0  0  0  0  0  0  0  0
    6.8344  -13.6567   26.1596 C   0  0  0  0  0  0  0  0  0  0  0  0
    7.4319  -12.4349   25.8725 C   0  0  0  0  0  0  0  0  0  0  0  0
    8.5694  -12.1059   26.5709 C   0  0  0  0  0  0  0  0  0  0  0  0
    9.1001  -12.9530   27.5207 C   0  0  0  0  0  0  0  0  0  0  0  0
   11.0165  -16.5526   29.3110 C   0  0  0  0  0  0  0  0  0  0  0  0
   10.9337  -17.8217   29.3282 O   0  0  0  0  0  0  0  0  0  0  0  0
   11.8220  -15.9741   30.2715 O   0  0  0  0  0  0  0  0  0  0  0  0
  2  1  1  0
  2  3  2  0
  4  3  1  0
  5  4  2  0
  6  5  1  0
  7  6  1  0
  7  8  1  6
  9 10  2  0
  9  7  1  0
 11 12  2  0
 11  5  1  0
 12  2  1  0
 13 14  1  0
 15 14  1  6
 15 16  1  0
 16  9  1  0
 17 18  2  0
 17 15  1  0
 19 17  1  0
 20 21  1  1
 20 19  1  0
 22 21  1  0
 22 23  2  0
 24 23  1  0
 25 24  2  0
 26 27  2  0
 26 25  1  0
 27 22  1  0
 28 20  1  0
 29 28  2  0
 30 28  1  0
M  END
$$$$
