YSF.pdb
     RDKit          3D

 30 31  0  0  1  0  0  0  0  0999 V2000
    8.9286  -12.2316   17.4537 O   0  0  0  0  0  0  0  0  0  0  0  0
    8.4068  -12.9695   18.4997 C   0  0  0  0  0  0  0  0  0  0  0  0
    7.1739  -12.6795   19.0179 C   0  0  0  0  0  0  0  0  0  0  0  0
    6.6441  -13.4020   20.0544 C   0  0  0  0  0  0  0  0  0  0  0  0
    7.3889  -14.4494   20.5792 C   0  0  0  0  0  0  0  0  0  0  0  0
    6.7581  -15.1985   21.7065 C   0  0  0  0  0  0  0  0  0  0  0  0
    7.0895  -16.6936   21.6155 C   0  0  2  0  0  0  0  0  0  0  0  0
    5.9232  -17.3587   21.0565 N   0  0  0  0  0  0  0  0  0  0  0  0
    7.2514  -17.1779   23.0107 C   0  0  0  0  0  0  0  0  0  0  0  0
    6.1667  -17.3665   23.6568 O   0  0  0  0  0  0  0  0  0  0  0  0
    8.6304  -14.7693   20.0842 C   0  0  0  0  0  0  0  0  0  0  0  0
    9.1305  -14.0213   19.0425 C   0  0  0  0  0  0  0  0  0  0  0  0
   10.2981  -19.1474   24.4323 O   0  0  0  0  0  0  0  0  0  0  0  0
    9.1522  -19.1003   25.1733 C   0  0  0  0  0  0  0  0  0  0  0  0
    8.5317  -17.7126   25.0403 C   0  0  2  0  0  0  0  0  0  0  0  0
    8.5030  -17.4254   23.6192 N   0  0  0  0  0  0  0  0  0  0  0  0
    9.3727  -16.7564   25.7711 C   0  0  0  0  0  0  0  0  0  0  0  0
   10.3786  -16.1838   25.2368 O   0  0  0  0  0  0  0  0  0  0  0  0
    9.0639  -16.4497   27.1187 N   0  0  0  0  0  0  0  0  0  0  0  0
    9.9794  -15.6711   27.9500 C   0  0  1  0  0  0  0  0  0  0  0  0
    9.1886  -14.5335   28.5568 C   0  0  0  0  0  0  0  0  0  0  0  0
    8.5653  -13.7252   27.4953 C   0  0  0  0  0  0  0  0  0  0  0  0
    9.2262  -12.6390   26.9649 C   0  0  0  0  0  0  0  0  0  0  0  0
    8.6733  -11.8624   25.9536 C   0  0  0  0  0  0  0  0  0  0  0  0
    7.4173  -12.1653   25.4409 C   0  0  0  0  0  0  0  0  0  0  0  0
    6.7604  -13.2499   25.9723 C   0  0  0  0  0  0  0  0  0  0  0  0
    7.3230  -14.0103   26.9756 C   0  0  0  0  0  0  0  0  0  0  0  0
   10.6521  -16.5108   28.9436 C   0  0  0  0  0  0  0  0  0  0  0  0
   11.4946  -15.9648   29.7245 O   0  0  0  0  0  0  0  0  0  0  0  0
   10.4461  -17.8659   29.1090 O   0  0  0  0  0  0  0  0  0  0  0  0
  2  1  1  0
  2  3  2  0
  4  3  1  0
  5  4  2  0
  6  5  1  0
  7  6  1  0
  7  8  1  1
  9 10  2  0
  9  7  1  0
 11 12  2  0
 11  5  1  0
 12  2  1  0
 13 14  1  0
 15 14  1  6
 15 16  1  0
 16  9  1  0
 17 18  2  0
 17 15  1  0
 19 17  1  0
 20 21  1  1
 20 19  1  0
 22 21  1  0
 22 23  2  0
 24 23  1  0
 25 24  2  0
 26 27  2  0
 26 25  1  0
 27 22  1  0
 28 20  1  0
 29 28  2  0
 30 28  1  0
M  END
$$$$
