YSF.pdb
     RDKit          3D

 30 31  0  0  1  0  0  0  0  0999 V2000
    8.5963  -13.0036   15.8501 O   0  0  0  0  0  0  0  0  0  0  0  0
    8.2841  -13.4077   17.1347 C   0  0  0  0  0  0  0  0  0  0  0  0
    9.1786  -14.1235   17.8831 C   0  0  0  0  0  0  0  0  0  0  0  0
    8.8830  -14.5307   19.1575 C   0  0  0  0  0  0  0  0  0  0  0  0
    7.6425  -14.2008   19.6861 C   0  0  0  0  0  0  0  0  0  0  0  0
    7.3797  -14.6725   21.0783 C   0  0  0  0  0  0  0  0  0  0  0  0
    7.3321  -16.2050   21.1307 C   0  0  2  0  0  0  0  0  0  0  0  0
    6.2231  -16.6292   20.2908 N   0  0  0  0  0  0  0  0  0  0  0  0
    6.9951  -16.5713   22.5306 C   0  0  0  0  0  0  0  0  0  0  0  0
    6.0942  -17.4659   22.6633 O   0  0  0  0  0  0  0  0  0  0  0  0
    6.7193  -13.4832   18.9639 C   0  0  0  0  0  0  0  0  0  0  0  0
    7.0514  -13.0911   17.6869 C   0  0  0  0  0  0  0  0  0  0  0  0
    8.3667  -18.8653   25.6481 O   0  0  0  0  0  0  0  0  0  0  0  0
    8.4879  -17.9863   24.6103 C   0  0  0  0  0  0  0  0  0  0  0  0
    7.6308  -16.7571   24.8982 C   0  0  2  0  0  0  0  0  0  0  0  0
    7.6066  -15.9928   23.6660 N   0  0  0  0  0  0  0  0  0  0  0  0
    8.2541  -16.0032   25.9932 C   0  0  0  0  0  0  0  0  0  0  0  0
    8.1009  -14.7451   26.1301 O   0  0  0  0  0  0  0  0  0  0  0  0
    9.0553  -16.6882   26.9388 N   0  0  0  0  0  0  0  0  0  0  0  0
    9.7802  -15.9688   27.9839 C   0  0  1  0  0  0  0  0  0  0  0  0
    8.7771  -15.1200   28.7328 C   0  0  0  0  0  0  0  0  0  0  0  0
    8.2755  -14.0414   27.8646 C   0  0  0  0  0  0  0  0  0  0  0  0
    7.0770  -14.1803   27.1993 C   0  0  0  0  0  0  0  0  0  0  0  0
    6.5677  -13.1777   26.3827 C   0  0  0  0  0  0  0  0  0  0  0  0
    7.2651  -11.9874   26.2119 C   0  0  0  0  0  0  0  0  0  0  0  0
    8.4606  -11.8521   26.8772 C   0  0  0  0  0  0  0  0  0  0  0  0
    8.9521  -12.8565   27.6839 C   0  0  0  0  0  0  0  0  0  0  0  0
   10.5317  -16.8834   28.8463 C   0  0  0  0  0  0  0  0  0  0  0  0
   11.2786  -16.3864   29.7478 O   0  0  0  0  0  0  0  0  0  0  0  0
   10.4975  -18.2611   28.7642 O   0  0  0  0  0  0  0  0  0  0  0  0
  2  1  1  0
  2  3  2  0
  4  3  1  0
  5  4  2  0
  6  5  1  0
  7  6  1  0
  7  8  1  6
  9 10  2  0
  9  7  1  0
 11 12  2  0
 11  5  1  0
 12  2  1  0
 13 14  1  0
 15 14  1  6
 15 16  1  0
 16  9  1  0
 17 18  2  0
 17 15  1  0
 19 17  1  0
 20 21  1  1
 20 19  1  0
 22 21  1  0
 22 23  2  0
 24 23  1  0
 25 24  2  0
 26 27  2  0
 26 25  1  0
 27 22  1  0
 28 20  1  0
 29 28  2  0
 30 28  1  0
M  END
$$$$
