YSF.pdb
     RDKit          3D

 30 31  0  0  1  0  0  0  0  0999 V2000
    7.7947  -13.0073   15.5640 O   0  0  0  0  0  0  0  0  0  0  0  0
    7.7679  -13.4151   16.8846 C   0  0  0  0  0  0  0  0  0  0  0  0
    8.4986  -12.7589   17.8377 C   0  0  0  0  0  0  0  0  0  0  0  0
    8.4818  -13.1516   19.1501 C   0  0  0  0  0  0  0  0  0  0  0  0
    7.6998  -14.2427   19.5039 C   0  0  0  0  0  0  0  0  0  0  0  0
    7.7232  -14.6219   20.9481 C   0  0  0  0  0  0  0  0  0  0  0  0
    9.0049  -15.3951   21.2841 C   0  0  2  0  0  0  0  0  0  0  0  0
    9.0666  -16.5359   20.3842 N   0  0  0  0  0  0  0  0  0  0  0  0
    8.8322  -15.9242   22.6616 C   0  0  0  0  0  0  0  0  0  0  0  0
    7.6799  -15.7426   23.1801 O   0  0  0  0  0  0  0  0  0  0  0  0
    6.9531  -14.9257   18.5740 C   0  0  0  0  0  0  0  0  0  0  0  0
    6.9948  -14.5024   17.2649 C   0  0  0  0  0  0  0  0  0  0  0  0
   11.5299  -18.2902   24.3560 O   0  0  0  0  0  0  0  0  0  0  0  0
   10.2589  -18.4230   24.8372 C   0  0  0  0  0  0  0  0  0  0  0  0
    9.5380  -17.0840   24.7112 C   0  0  2  0  0  0  0  0  0  0  0  0
    9.8489  -16.5894   23.3840 N   0  0  0  0  0  0  0  0  0  0  0  0
   10.0417  -16.1858   25.7577 C   0  0  0  0  0  0  0  0  0  0  0  0
   11.0056  -15.3759   25.5572 O   0  0  0  0  0  0  0  0  0  0  0  0
    9.4415  -16.2097   27.0402 N   0  0  0  0  0  0  0  0  0  0  0  0
    9.8977  -15.3242   28.1094 C   0  0  1  0  0  0  0  0  0  0  0  0
    8.6857  -14.5959   28.6464 C   0  0  0  0  0  0  0  0  0  0  0  0
    8.1093  -13.7309   27.6032 C   0  0  0  0  0  0  0  0  0  0  0  0
    6.8087  -13.9113   27.1858 C   0  0  0  0  0  0  0  0  0  0  0  0
    6.2289  -13.1053   26.2134 C   0  0  0  0  0  0  0  0  0  0  0  0
    6.9574  -12.0779   25.6253 C   0  0  0  0  0  0  0  0  0  0  0  0
    8.2548  -11.9005   26.0440 C   0  0  0  0  0  0  0  0  0  0  0  0
    8.8153  -12.7090   27.0102 C   0  0  0  0  0  0  0  0  0  0  0  0
   10.6417  -16.0572   29.1361 C   0  0  0  0  0  0  0  0  0  0  0  0
   10.6027  -17.3284   29.1180 O   0  0  0  0  0  0  0  0  0  0  0  0
   11.3951  -15.4776   30.1373 O   0  0  0  0  0  0  0  0  0  0  0  0
  2  1  1  0
  2  3  2  0
  4  3  1  0
  5  4  2  0
  6  5  1  0
  7  6  1  0
  7  8  1  6
  9 10  2  0
  9  7  1  0
 11 12  2  0
 11  5  1  0
 12  2  1  0
 13 14  1  0
 15 14  1  1
 15 16  1  0
 16  9  1  0
 17 18  2  0
 17 15  1  0
 19 17  1  0
 20 21  1  1
 20 19  1  0
 22 21  1  0
 22 23  2  0
 24 23  1  0
 25 24  2  0
 26 27  2  0
 26 25  1  0
 27 22  1  0
 28 20  1  0
 29 28  2  0
 30 28  1  0
M  END
$$$$
