THH.pdb
     RDKit          3D

 28 29  0  0  1  0  0  0  0  0999 V2000
    9.3124  -11.8837   19.1854 C   0  0  0  0  0  0  0  0  0  0  0  0
    9.2038  -12.8916   20.3197 C   0  0  1  0  0  0  0  0  0  0  0  0
    8.0230  -12.7545   21.0212 O   0  0  0  0  0  0  0  0  0  0  0  0
    9.3072  -14.2767   19.6718 C   0  0  2  0  0  0  0  0  0  0  0  0
    8.1262  -14.5317   18.8711 N   0  0  0  0  0  0  0  0  0  0  0  0
    9.4024  -15.3425   20.6967 C   0  0  0  0  0  0  0  0  0  0  0  0
    8.3825  -16.0384   20.9986 O   0  0  0  0  0  0  0  0  0  0  0  0
   10.5820  -15.6586   21.3916 N   0  0  0  0  0  0  0  0  0  0  0  0
   10.6197  -16.7547   22.4131 C   0  0  1  0  0  0  0  0  0  0  0  0
   11.4421  -17.7964   21.7438 C   0  0  0  0  0  0  0  0  0  0  0  0
   10.8748  -18.5199   20.6169 C   0  0  0  0  0  0  0  0  0  0  0  0
    9.7310  -19.3332   20.7838 C   0  0  0  0  0  0  0  0  0  0  0  0
    9.3889  -19.8962   19.6233 N   0  0  0  0  0  0  0  0  0  0  0  0
   10.2913  -19.4603   18.7123 C   0  0  0  0  0  0  0  0  0  0  0  0
   11.1622  -18.6449   19.3278 N   0  0  0  0  0  0  0  0  0  0  0  0
   11.2097  -16.1297   23.6101 C   0  0  0  0  0  0  0  0  0  0  0  0
   12.4781  -16.3145   23.7695 O   0  0  0  0  0  0  0  0  0  0  0  0
   10.5694  -15.3623   24.5866 N   0  0  0  0  0  0  0  0  0  0  0  0
    9.9590  -16.0241   25.7907 C   0  0  1  0  0  0  0  0  0  0  0  0
    8.5474  -16.3078   25.4519 C   0  0  0  0  0  0  0  0  0  0  0  0
    7.6766  -15.1543   25.3118 C   0  0  0  0  0  0  0  0  0  0  0  0
    7.8820  -13.8013   25.4175 C   0  0  0  0  0  0  0  0  0  0  0  0
    6.7340  -13.1215   25.1249 N   0  0  0  0  0  0  0  0  0  0  0  0
    5.8170  -14.0413   24.8368 C   0  0  0  0  0  0  0  0  0  0  0  0
    6.3561  -15.2505   24.9416 N   0  0  0  0  0  0  0  0  0  0  0  0
   10.7824  -17.2392   26.0524 C   0  0  0  0  0  0  0  0  0  0  0  0
   11.7344  -17.7736   25.2339 O   0  0  0  0  0  0  0  0  0  0  0  0
   10.6098  -17.8795   27.1536 O   0  0  0  0  0  0  0  0  0  0  0  0
  2  4  1  0
  2  1  1  6
  3  2  1  0
  4  6  1  0
  4  5  1  1
  6  7  2  0
  8  6  1  0
  8  9  1  0
  9 16  1  0
  9 10  1  6
 10 11  1  0
 11 12  2  0
 12 13  1  0
 14 13  1  0
 15 11  1  0
 15 14  2  0
 16 17  2  0
 18 19  1  0
 18 16  1  0
 19 26  1  0
 19 20  1  6
 21 20  1  0
 22 21  2  0
 23 22  1  0
 24 23  1  0
 24 25  2  0
 25 21  1  0
 26 28  2  0
 26 27  1  0
M  END
$$$$
