THH.pdb
     RDKit          3D

 28 29  0  0  1  0  0  0  0  0999 V2000
    9.8824  -17.9661   17.2137 C   0  0  0  0  0  0  0  0  0  0  0  0
   10.3491  -17.7454   15.7827 C   0  0  1  0  0  0  0  0  0  0  0  0
    9.5969  -18.4661   14.8773 O   0  0  0  0  0  0  0  0  0  0  0  0
   10.2362  -16.2390   15.5240 C   0  0  2  0  0  0  0  0  0  0  0  0
   10.6348  -15.9454   14.1617 N   0  0  0  0  0  0  0  0  0  0  0  0
   11.1187  -15.4710   16.4332 C   0  0  0  0  0  0  0  0  0  0  0  0
   12.3544  -15.3351   16.1682 O   0  0  0  0  0  0  0  0  0  0  0  0
   10.6788  -14.8543   17.6165 N   0  0  0  0  0  0  0  0  0  0  0  0
   11.6280  -14.1288   18.5216 C   0  0  1  0  0  0  0  0  0  0  0  0
   10.8103  -12.9844   19.0025 C   0  0  0  0  0  0  0  0  0  0  0  0
    9.4128  -13.2126   19.3345 C   0  0  0  0  0  0  0  0  0  0  0  0
    8.8091  -14.4671   19.0912 C   0  0  0  0  0  0  0  0  0  0  0  0
    7.5302  -14.4480   19.4718 N   0  0  0  0  0  0  0  0  0  0  0  0
    7.2995  -13.2043   19.9557 C   0  0  0  0  0  0  0  0  0  0  0  0
    8.4329  -12.4910   19.8627 N   0  0  0  0  0  0  0  0  0  0  0  0
   12.0123  -15.1258   19.5364 C   0  0  0  0  0  0  0  0  0  0  0  0
   11.2251  -16.1441   19.6455 O   0  0  0  0  0  0  0  0  0  0  0  0
   13.1200  -15.1068   20.3878 N   0  0  0  0  0  0  0  0  0  0  0  0
   13.8156  -16.3882   20.7549 C   0  0  1  0  0  0  0  0  0  0  0  0
   14.2063  -17.0402   19.4860 C   0  0  0  0  0  0  0  0  0  0  0  0
   14.9090  -18.3053   19.6042 C   0  0  0  0  0  0  0  0  0  0  0  0
   15.1816  -19.1354   20.6628 C   0  0  0  0  0  0  0  0  0  0  0  0
   15.8285  -20.2589   20.2322 N   0  0  0  0  0  0  0  0  0  0  0  0
   15.9588  -20.1341   18.9142 C   0  0  0  0  0  0  0  0  0  0  0  0
   15.4205  -18.9844   18.5238 N   0  0  0  0  0  0  0  0  0  0  0  0
   14.9638  -15.9977   21.6221 C   0  0  0  0  0  0  0  0  0  0  0  0
   15.3090  -14.7334   22.0015 O   0  0  0  0  0  0  0  0  0  0  0  0
   15.7336  -16.9184   22.0830 O   0  0  0  0  0  0  0  0  0  0  0  0
  2  4  1  0
  2  1  1  1
  3  2  1  0
  4  6  1  0
  4  5  1  6
  6  7  2  0
  8  6  1  0
  8  9  1  0
  9 16  1  0
  9 10  1  1
 10 11  1  0
 11 12  2  0
 12 13  1  0
 14 13  1  0
 15 11  1  0
 15 14  2  0
 16 17  2  0
 18 19  1  0
 18 16  1  0
 19 26  1  0
 19 20  1  6
 21 20  1  0
 22 21  2  0
 23 22  1  0
 24 23  1  0
 24 25  2  0
 25 21  1  0
 26 28  2  0
 26 27  1  0
M  END
$$$$
