THH.pdb
     RDKit          3D

 28 29  0  0  1  0  0  0  0  0999 V2000
    9.0979  -12.7206   20.5461 C   0  0  0  0  0  0  0  0  0  0  0  0
    8.0614  -13.0235   19.4746 C   0  0  1  0  0  0  0  0  0  0  0  0
    7.8113  -11.9277   18.6735 O   0  0  0  0  0  0  0  0  0  0  0  0
    8.6210  -14.1929   18.6572 C   0  0  2  0  0  0  0  0  0  0  0  0
    7.6268  -14.6431   17.7032 N   0  0  0  0  0  0  0  0  0  0  0  0
    8.9684  -15.3393   19.5293 C   0  0  0  0  0  0  0  0  0  0  0  0
    8.0856  -16.1965   19.8480 O   0  0  0  0  0  0  0  0  0  0  0  0
   10.2520  -15.5636   20.0548 N   0  0  0  0  0  0  0  0  0  0  0  0
   10.5532  -16.7629   20.9019 C   0  0  1  0  0  0  0  0  0  0  0  0
   11.9183  -17.1442   20.4541 C   0  0  0  0  0  0  0  0  0  0  0  0
   12.0603  -17.9748   19.2686 C   0  0  0  0  0  0  0  0  0  0  0  0
   11.1427  -19.0167   19.0037 C   0  0  0  0  0  0  0  0  0  0  0  0
   11.4655  -19.6418   17.8697 N   0  0  0  0  0  0  0  0  0  0  0  0
   12.5740  -19.0215   17.3998 C   0  0  0  0  0  0  0  0  0  0  0  0
   12.9062  -18.0360   18.2486 N   0  0  0  0  0  0  0  0  0  0  0  0
   10.4347  -16.2797   22.2890 C   0  0  0  0  0  0  0  0  0  0  0  0
   11.0571  -15.1789   22.5524 O   0  0  0  0  0  0  0  0  0  0  0  0
    9.7321  -16.8611   23.3475 N   0  0  0  0  0  0  0  0  0  0  0  0
    9.7511  -16.2250   24.7097 C   0  0  1  0  0  0  0  0  0  0  0  0
    8.3402  -16.0390   25.1134 C   0  0  0  0  0  0  0  0  0  0  0  0
    7.7589  -14.7381   24.8340 C   0  0  0  0  0  0  0  0  0  0  0  0
    8.2720  -13.5633   24.3437 C   0  0  0  0  0  0  0  0  0  0  0  0
    7.2813  -12.6336   24.2024 N   0  0  0  0  0  0  0  0  0  0  0  0
    6.1562  -13.2219   24.5997 C   0  0  0  0  0  0  0  0  0  0  0  0
    6.4185  -14.4680   24.9769 N   0  0  0  0  0  0  0  0  0  0  0  0
   10.5216  -17.1537   25.5854 C   0  0  0  0  0  0  0  0  0  0  0  0
   11.1071  -18.3294   25.2155 O   0  0  0  0  0  0  0  0  0  0  0  0
   10.6752  -16.8521   26.8255 O   0  0  0  0  0  0  0  0  0  0  0  0
  2  4  1  0
  2  1  1  1
  3  2  1  0
  4  6  1  0
  4  5  1  6
  6  7  2  0
  8  6  1  0
  8  9  1  0
  9 16  1  0
  9 10  1  6
 10 11  1  0
 11 12  2  0
 12 13  1  0
 14 13  1  0
 15 11  1  0
 15 14  2  0
 16 17  2  0
 18 19  1  0
 18 16  1  0
 19 26  1  0
 19 20  1  1
 21 20  1  0
 22 21  2  0
 23 22  1  0
 24 23  1  0
 24 25  2  0
 25 21  1  0
 26 28  2  0
 26 27  1  0
M  END
$$$$
