THH.pdb
     RDKit          3D

 28 29  0  0  1  0  0  0  0  0999 V2000
    8.8729  -12.6978   19.8727 C   0  0  0  0  0  0  0  0  0  0  0  0
    8.0393  -13.7451   19.1498 C   0  0  1  0  0  0  0  0  0  0  0  0
    6.7633  -13.2934   18.8800 O   0  0  0  0  0  0  0  0  0  0  0  0
    8.7957  -14.0765   17.8587 C   0  0  2  0  0  0  0  0  0  0  0  0
    7.9976  -14.9664   17.0388 N   0  0  0  0  0  0  0  0  0  0  0  0
   10.0812  -14.7538   18.1489 C   0  0  0  0  0  0  0  0  0  0  0  0
   10.1398  -16.0217   18.2180 O   0  0  0  0  0  0  0  0  0  0  0  0
   11.2933  -14.0761   18.3630 N   0  0  0  0  0  0  0  0  0  0  0  0
   12.5650  -14.8164   18.6478 C   0  0  1  0  0  0  0  0  0  0  0  0
   13.6083  -13.8581   18.1973 C   0  0  0  0  0  0  0  0  0  0  0  0
   14.9987  -14.2847   18.1984 C   0  0  0  0  0  0  0  0  0  0  0  0
   15.3557  -15.5796   18.6381 C   0  0  0  0  0  0  0  0  0  0  0  0
   16.6763  -15.7510   18.5521 N   0  0  0  0  0  0  0  0  0  0  0  0
   17.1761  -14.5903   18.0651 C   0  0  0  0  0  0  0  0  0  0  0  0
   16.1596  -13.7368   17.8638 N   0  0  0  0  0  0  0  0  0  0  0  0
   12.5189  -15.0956   20.0940 C   0  0  0  0  0  0  0  0  0  0  0  0
   12.0144  -14.1601   20.8280 O   0  0  0  0  0  0  0  0  0  0  0  0
   12.9480  -16.2439   20.7646 N   0  0  0  0  0  0  0  0  0  0  0  0
   12.7774  -16.3598   22.2539 C   0  0  1  0  0  0  0  0  0  0  0  0
   11.5821  -17.2008   22.4822 C   0  0  0  0  0  0  0  0  0  0  0  0
   10.3022  -16.5153   22.4650 C   0  0  0  0  0  0  0  0  0  0  0  0
    9.9371  -15.2082   22.2595 C   0  0  0  0  0  0  0  0  0  0  0  0
    8.5768  -15.0853   22.2807 N   0  0  0  0  0  0  0  0  0  0  0  0
    8.0937  -16.3059   22.4963 C   0  0  0  0  0  0  0  0  0  0  0  0
    9.0996  -17.1659   22.6078 N   0  0  0  0  0  0  0  0  0  0  0  0
   14.0475  -16.9479   22.7677 C   0  0  0  0  0  0  0  0  0  0  0  0
   15.1362  -17.3134   22.0308 O   0  0  0  0  0  0  0  0  0  0  0  0
   14.1718  -17.1467   24.0316 O   0  0  0  0  0  0  0  0  0  0  0  0
  2  4  1  0
  2  1  1  6
  3  2  1  0
  4  6  1  0
  4  5  1  6
  6  7  2  0
  8  6  1  0
  8  9  1  0
  9 16  1  0
  9 10  1  1
 10 11  1  0
 11 12  2  0
 12 13  1  0
 14 13  1  0
 15 11  1  0
 15 14  2  0
 16 17  2  0
 18 19  1  0
 18 16  1  0
 19 26  1  0
 19 20  1  6
 21 20  1  0
 22 21  2  0
 23 22  1  0
 24 23  1  0
 24 25  2  0
 25 21  1  0
 26 28  2  0
 26 27  1  0
M  END
$$$$
