THH.pdb
     RDKit          3D

 28 29  0  0  1  0  0  0  0  0999 V2000
    9.6219  -12.5273   19.5110 C   0  0  0  0  0  0  0  0  0  0  0  0
    8.7338  -13.4663   18.7087 C   0  0  1  0  0  0  0  0  0  0  0  0
    7.5478  -12.8651   18.3384 O   0  0  0  0  0  0  0  0  0  0  0  0
    9.5517  -13.8837   17.4817 C   0  0  2  0  0  0  0  0  0  0  0  0
    8.7442  -14.7216   16.6174 N   0  0  0  0  0  0  0  0  0  0  0  0
   10.7524  -14.6575   17.8752 C   0  0  0  0  0  0  0  0  0  0  0  0
   10.6894  -15.9200   18.0092 O   0  0  0  0  0  0  0  0  0  0  0  0
   12.0097  -14.0814   18.1229 N   0  0  0  0  0  0  0  0  0  0  0  0
   13.1678  -14.9037   18.6015 C   0  0  1  0  0  0  0  0  0  0  0  0
   14.3276  -14.2501   17.9403 C   0  0  0  0  0  0  0  0  0  0  0  0
   14.8709  -14.8455   16.7297 C   0  0  0  0  0  0  0  0  0  0  0  0
   14.5102  -16.1573   16.3464 C   0  0  0  0  0  0  0  0  0  0  0  0
   15.1246  -16.4941   15.2106 N   0  0  0  0  0  0  0  0  0  0  0  0
   15.8742  -15.4233   14.8557 C   0  0  0  0  0  0  0  0  0  0  0  0
   15.7057  -14.4587   15.7740 N   0  0  0  0  0  0  0  0  0  0  0  0
   13.1152  -14.8036   20.0707 C   0  0  0  0  0  0  0  0  0  0  0  0
   12.9957  -13.6083   20.5456 O   0  0  0  0  0  0  0  0  0  0  0  0
   13.1742  -15.8381   21.0082 N   0  0  0  0  0  0  0  0  0  0  0  0
   12.3413  -15.7761   22.2584 C   0  0  1  0  0  0  0  0  0  0  0  0
   10.9288  -15.6966   21.8265 C   0  0  0  0  0  0  0  0  0  0  0  0
    9.9321  -15.7325   22.8817 C   0  0  0  0  0  0  0  0  0  0  0  0
   10.0073  -15.6642   24.2505 C   0  0  0  0  0  0  0  0  0  0  0  0
    8.7555  -15.6757   24.7971 N   0  0  0  0  0  0  0  0  0  0  0  0
    7.9028  -15.7491   23.7786 C   0  0  0  0  0  0  0  0  0  0  0  0
    8.5802  -15.7833   22.6367 N   0  0  0  0  0  0  0  0  0  0  0  0
   12.6762  -17.0036   23.0356 C   0  0  0  0  0  0  0  0  0  0  0  0
   12.9861  -18.2324   22.5298 O   0  0  0  0  0  0  0  0  0  0  0  0
   12.6868  -16.9407   24.3195 O   0  0  0  0  0  0  0  0  0  0  0  0
  2  4  1  0
  2  1  1  6
  3  2  1  0
  4  6  1  0
  4  5  1  6
  6  7  2  0
  8  6  1  0
  8  9  1  0
  9 16  1  0
  9 10  1  6
 10 11  1  0
 11 12  2  0
 12 13  1  0
 14 13  1  0
 15 11  1  0
 15 14  2  0
 16 17  2  0
 18 19  1  0
 18 16  1  0
 19 26  1  0
 19 20  1  6
 21 20  1  0
 22 21  2  0
 23 22  1  0
 24 23  1  0
 24 25  2  0
 25 21  1  0
 26 28  2  0
 26 27  1  0
M  END
$$$$
