THH.pdb
     RDKit          3D

 28 29  0  0  1  0  0  0  0  0999 V2000
    9.1302  -12.4977   19.8951 C   0  0  0  0  0  0  0  0  0  0  0  0
    8.2558  -13.5193   19.1837 C   0  0  1  0  0  0  0  0  0  0  0  0
    7.0403  -12.9853   18.8064 O   0  0  0  0  0  0  0  0  0  0  0  0
    9.0566  -13.9927   17.9657 C   0  0  2  0  0  0  0  0  0  0  0  0
    8.2176  -14.8178   17.1192 N   0  0  0  0  0  0  0  0  0  0  0  0
   10.2278  -14.8024   18.3755 C   0  0  0  0  0  0  0  0  0  0  0  0
   10.1229  -16.0615   18.5153 O   0  0  0  0  0  0  0  0  0  0  0  0
   11.5005  -14.2656   18.6329 N   0  0  0  0  0  0  0  0  0  0  0  0
   12.6487  -15.1355   19.0469 C   0  0  1  0  0  0  0  0  0  0  0  0
   13.8172  -14.4427   18.4434 C   0  0  0  0  0  0  0  0  0  0  0  0
   14.3306  -14.9167   17.1679 C   0  0  0  0  0  0  0  0  0  0  0  0
   13.8983  -16.1500   16.6296 C   0  0  0  0  0  0  0  0  0  0  0  0
   14.4969  -16.3808   15.4595 N   0  0  0  0  0  0  0  0  0  0  0  0
   15.3066  -15.3187   15.2345 C   0  0  0  0  0  0  0  0  0  0  0  0
   15.1892  -14.4645   16.2634 N   0  0  0  0  0  0  0  0  0  0  0  0
   12.5920  -15.1532   20.5193 C   0  0  0  0  0  0  0  0  0  0  0  0
   11.6244  -14.4814   21.0495 O   0  0  0  0  0  0  0  0  0  0  0  0
   13.4496  -15.8074   21.4075 N   0  0  0  0  0  0  0  0  0  0  0  0
   12.9288  -16.3299   22.7175 C   0  0  1  0  0  0  0  0  0  0  0  0
   11.7482  -17.1645   22.4050 C   0  0  0  0  0  0  0  0  0  0  0  0
   10.4516  -16.5403   22.5982 C   0  0  0  0  0  0  0  0  0  0  0  0
   10.0572  -15.2542   22.8711 C   0  0  0  0  0  0  0  0  0  0  0  0
    8.6940  -15.1690   22.8927 N   0  0  0  0  0  0  0  0  0  0  0  0
    8.2382  -16.3918   22.6340 C   0  0  0  0  0  0  0  0  0  0  0  0
    9.2634  -17.2171   22.4565 N   0  0  0  0  0  0  0  0  0  0  0  0
   14.0594  -17.0764   23.3400 C   0  0  0  0  0  0  0  0  0  0  0  0
   14.3495  -17.1607   24.6706 O   0  0  0  0  0  0  0  0  0  0  0  0
   14.8687  -17.7233   22.5789 O   0  0  0  0  0  0  0  0  0  0  0  0
  2  4  1  0
  2  1  1  6
  3  2  1  0
  4  6  1  0
  4  5  1  6
  6  7  2  0
  8  6  1  0
  8  9  1  0
  9 16  1  0
  9 10  1  1
 10 11  1  0
 11 12  2  0
 12 13  1  0
 14 13  1  0
 15 11  1  0
 15 14  2  0
 16 17  2  0
 18 19  1  0
 18 16  1  0
 19 26  1  0
 19 20  1  6
 21 20  1  0
 22 21  2  0
 23 22  1  0
 24 23  1  0
 24 25  2  0
 25 21  1  0
 26 28  2  0
 26 27  1  0
M  END
$$$$
