THH.pdb
     RDKit          3D

 28 29  0  0  1  0  0  0  0  0999 V2000
    6.9059  -21.0734   17.8243 C   0  0  0  0  0  0  0  0  0  0  0  0
    7.6796  -19.7661   17.7427 C   0  0  1  0  0  0  0  0  0  0  0  0
    7.0040  -18.8111   17.0102 O   0  0  0  0  0  0  0  0  0  0  0  0
    7.8959  -19.3067   19.1887 C   0  0  2  0  0  0  0  0  0  0  0  0
    6.6141  -19.0975   19.8326 N   0  0  0  0  0  0  0  0  0  0  0  0
    8.6456  -18.0296   19.2393 C   0  0  0  0  0  0  0  0  0  0  0  0
    9.7763  -17.9238   18.6684 O   0  0  0  0  0  0  0  0  0  0  0  0
    8.1856  -16.8763   19.8969 N   0  0  0  0  0  0  0  0  0  0  0  0
    9.0684  -15.6806   20.0913 C   0  0  1  0  0  0  0  0  0  0  0  0
    8.1622  -14.5491   19.7628 C   0  0  0  0  0  0  0  0  0  0  0  0
    8.0249  -14.1421   18.3733 C   0  0  0  0  0  0  0  0  0  0  0  0
    8.8194  -14.7352   17.3660 C   0  0  0  0  0  0  0  0  0  0  0  0
    8.5251  -14.2114   16.1745 N   0  0  0  0  0  0  0  0  0  0  0  0
    7.5556  -13.2919   16.3961 C   0  0  0  0  0  0  0  0  0  0  0  0
    7.2771  -13.2705   17.7092 N   0  0  0  0  0  0  0  0  0  0  0  0
    9.5156  -15.7704   21.4925 C   0  0  0  0  0  0  0  0  0  0  0  0
    8.5758  -15.8504   22.3751 O   0  0  0  0  0  0  0  0  0  0  0  0
   10.8247  -15.7835   21.9807 N   0  0  0  0  0  0  0  0  0  0  0  0
   11.1218  -16.3594   23.3374 C   0  0  1  0  0  0  0  0  0  0  0  0
   10.6583  -17.7639   23.3155 C   0  0  0  0  0  0  0  0  0  0  0  0
   10.9239  -18.5461   24.5096 C   0  0  0  0  0  0  0  0  0  0  0  0
   11.4297  -18.2334   25.7466 C   0  0  0  0  0  0  0  0  0  0  0  0
   11.4190  -19.3330   26.5570 N   0  0  0  0  0  0  0  0  0  0  0  0
   10.9091  -20.3263   25.8337 C   0  0  0  0  0  0  0  0  0  0  0  0
   10.6096  -19.8800   24.6192 N   0  0  0  0  0  0  0  0  0  0  0  0
   12.5909  -16.2020   23.5371 C   0  0  0  0  0  0  0  0  0  0  0  0
   13.2758  -16.3371   24.7094 O   0  0  0  0  0  0  0  0  0  0  0  0
   13.3263  -15.9099   22.5240 O   0  0  0  0  0  0  0  0  0  0  0  0
  2  4  1  0
  2  1  1  1
  3  2  1  0
  4  6  1  0
  4  5  1  6
  6  7  2  0
  8  6  1  0
  8  9  1  0
  9 16  1  0
  9 10  1  1
 10 11  1  0
 11 12  2  0
 12 13  1  0
 14 13  1  0
 15 11  1  0
 15 14  2  0
 16 17  2  0
 18 19  1  0
 18 16  1  0
 19 26  1  0
 19 20  1  6
 21 20  1  0
 22 21  2  0
 23 22  1  0
 24 23  1  0
 24 25  2  0
 25 21  1  0
 26 28  2  0
 26 27  1  0
M  END
$$$$
