THH.pdb
     RDKit          3D

 28 29  0  0  1  0  0  0  0  0999 V2000
    8.8295  -19.0163   16.6405 C   0  0  0  0  0  0  0  0  0  0  0  0
    8.5668  -18.4436   18.0252 C   0  0  1  0  0  0  0  0  0  0  0  0
    8.1528  -17.1280   17.9700 O   0  0  0  0  0  0  0  0  0  0  0  0
    7.4957  -19.3366   18.6608 C   0  0  2  0  0  0  0  0  0  0  0  0
    6.3034  -19.3329   17.8365 N   0  0  0  0  0  0  0  0  0  0  0  0
    7.1203  -18.8479   20.0082 C   0  0  0  0  0  0  0  0  0  0  0  0
    6.3114  -17.8760   20.1384 O   0  0  0  0  0  0  0  0  0  0  0  0
    7.6088  -19.3974   21.2056 N   0  0  0  0  0  0  0  0  0  0  0  0
    7.2208  -18.8371   22.5405 C   0  0  1  0  0  0  0  0  0  0  0  0
    7.3560  -20.0128   23.4398 C   0  0  0  0  0  0  0  0  0  0  0  0
    7.2000  -19.8203   24.8729 C   0  0  0  0  0  0  0  0  0  0  0  0
    6.8735  -18.5497   25.3987 C   0  0  0  0  0  0  0  0  0  0  0  0
    6.7813  -18.6078   26.7287 N   0  0  0  0  0  0  0  0  0  0  0  0
    7.0424  -19.8925   27.0689 C   0  0  0  0  0  0  0  0  0  0  0  0
    7.2877  -20.5911   25.9490 N   0  0  0  0  0  0  0  0  0  0  0  0
    8.1662  -17.7302   22.7700 C   0  0  0  0  0  0  0  0  0  0  0  0
    9.3863  -17.9535   22.4096 O   0  0  0  0  0  0  0  0  0  0  0  0
    7.9051  -16.4739   23.3230 N   0  0  0  0  0  0  0  0  0  0  0  0
    9.0299  -15.5091   23.5768 C   0  0  1  0  0  0  0  0  0  0  0  0
    8.5292  -14.1652   23.2146 C   0  0  0  0  0  0  0  0  0  0  0  0
    8.4492  -13.8711   21.7950 C   0  0  0  0  0  0  0  0  0  0  0  0
    8.7686  -14.5841   20.6664 C   0  0  0  0  0  0  0  0  0  0  0  0
    8.4385  -13.8752   19.5464 N   0  0  0  0  0  0  0  0  0  0  0  0
    7.9152  -12.7278   19.9700 C   0  0  0  0  0  0  0  0  0  0  0  0
    7.9127  -12.7070   21.2980 N   0  0  0  0  0  0  0  0  0  0  0  0
    9.3854  -15.6630   25.0166 C   0  0  0  0  0  0  0  0  0  0  0  0
   10.5508  -15.2836   25.6161 O   0  0  0  0  0  0  0  0  0  0  0  0
    8.5318  -16.2037   25.8113 O   0  0  0  0  0  0  0  0  0  0  0  0
  2  4  1  0
  2  1  1  6
  3  2  1  0
  4  6  1  0
  4  5  1  6
  6  7  2  0
  8  6  1  0
  8  9  1  0
  9 16  1  0
  9 10  1  1
 10 11  1  0
 11 12  2  0
 12 13  1  0
 14 13  1  0
 15 11  1  0
 15 14  2  0
 16 17  2  0
 18 19  1  0
 18 16  1  0
 19 26  1  0
 19 20  1  1
 21 20  1  0
 22 21  2  0
 23 22  1  0
 24 23  1  0
 24 25  2  0
 25 21  1  0
 26 28  2  0
 26 27  1  0
M  END
$$$$
