THH.pdb
     RDKit          3D

 28 29  0  0  1  0  0  0  0  0999 V2000
   12.7981  -18.4849   18.1590 C   0  0  0  0  0  0  0  0  0  0  0  0
   13.3693  -17.5250   17.1263 C   0  0  1  0  0  0  0  0  0  0  0  0
   13.7185  -18.1714   15.9578 O   0  0  0  0  0  0  0  0  0  0  0  0
   12.2843  -16.4720   16.8755 C   0  0  2  0  0  0  0  0  0  0  0  0
   12.6693  -15.6286   15.7613 N   0  0  0  0  0  0  0  0  0  0  0  0
   12.0955  -15.6035   18.0611 C   0  0  0  0  0  0  0  0  0  0  0  0
   12.8067  -14.5615   18.2157 O   0  0  0  0  0  0  0  0  0  0  0  0
   11.1515  -15.8514   19.0718 N   0  0  0  0  0  0  0  0  0  0  0  0
   10.9831  -14.9182   20.2325 C   0  0  1  0  0  0  0  0  0  0  0  0
    9.5171  -14.9593   20.4744 C   0  0  0  0  0  0  0  0  0  0  0  0
    8.6379  -14.2287   19.5752 C   0  0  0  0  0  0  0  0  0  0  0  0
    9.1639  -13.5119   18.4765 C   0  0  0  0  0  0  0  0  0  0  0  0
    8.1805  -12.9228   17.7934 N   0  0  0  0  0  0  0  0  0  0  0  0
    7.0311  -13.2472   18.4320 C   0  0  0  0  0  0  0  0  0  0  0  0
    7.3304  -14.0228   19.4861 N   0  0  0  0  0  0  0  0  0  0  0  0
   11.8338  -15.4849   21.2940 C   0  0  0  0  0  0  0  0  0  0  0  0
   11.8063  -14.8614   22.4249 O   0  0  0  0  0  0  0  0  0  0  0  0
   12.6590  -16.6106   21.2287 N   0  0  0  0  0  0  0  0  0  0  0  0
   13.4338  -17.0534   22.4387 C   0  0  1  0  0  0  0  0  0  0  0  0
   13.0598  -18.4618   22.6928 C   0  0  0  0  0  0  0  0  0  0  0  0
   11.7758  -18.6791   23.3350 C   0  0  0  0  0  0  0  0  0  0  0  0
   10.7830  -17.8343   23.7644 C   0  0  0  0  0  0  0  0  0  0  0  0
    9.7268  -18.5502   24.2519 N   0  0  0  0  0  0  0  0  0  0  0  0
   10.0548  -19.8335   24.1275 C   0  0  0  0  0  0  0  0  0  0  0  0
   11.2639  -19.9300   23.5865 N   0  0  0  0  0  0  0  0  0  0  0  0
   14.8720  -16.8527   22.1009 C   0  0  0  0  0  0  0  0  0  0  0  0
   15.9238  -16.8528   22.9701 O   0  0  0  0  0  0  0  0  0  0  0  0
   15.1989  -16.6572   20.8731 O   0  0  0  0  0  0  0  0  0  0  0  0
  2  4  1  0
  2  1  1  1
  3  2  1  0
  4  6  1  0
  4  5  1  6
  6  7  2  0
  8  6  1  0
  8  9  1  0
  9 16  1  0
  9 10  1  1
 10 11  1  0
 11 12  2  0
 12 13  1  0
 14 13  1  0
 15 11  1  0
 15 14  2  0
 16 17  2  0
 18 19  1  0
 18 16  1  0
 19 26  1  0
 19 20  1  6
 21 20  1  0
 22 21  2  0
 23 22  1  0
 24 23  1  0
 24 25  2  0
 25 21  1  0
 26 28  2  0
 26 27  1  0
M  END
$$$$
