ILQ.pdb
     RDKit          3D

 26 25  0  0  1  0  0  0  0  0999 V2000
    8.3633  -19.7905   20.2068 C   0  0  0  0  0  0  0  0  0  0  0  0
    8.4137  -18.2774   20.1119 C   0  0  0  0  0  0  0  0  0  0  0  0
    8.6955  -17.7450   21.5036 C   0  0  2  0  0  0  0  0  0  0  0  0
    7.6473  -18.3015   22.4253 C   0  0  0  0  0  0  0  0  0  0  0  0
    8.6636  -16.2350   21.4095 C   0  0  2  0  0  0  0  0  0  0  0  0
    9.6182  -15.8559   20.3857 N   0  0  0  0  0  0  0  0  0  0  0  0
    9.0169  -15.5944   22.7017 C   0  0  0  0  0  0  0  0  0  0  0  0
   10.1855  -15.6149   23.1273 O   0  0  0  0  0  0  0  0  0  0  0  0
    8.4747  -12.4642   26.9468 C   0  0  0  0  0  0  0  0  0  0  0  0
    7.2679  -12.3032   26.0202 C   0  0  2  0  0  0  0  0  0  0  0  0
    6.0092  -11.9578   26.7215 C   0  0  0  0  0  0  0  0  0  0  0  0
    7.2229  -13.3059   24.9468 C   0  0  0  0  0  0  0  0  0  0  0  0
    8.3130  -14.2732   24.7540 C   0  0  2  0  0  0  0  0  0  0  0  0
    8.0169  -14.9509   23.4639 N   0  0  0  0  0  0  0  0  0  0  0  0
    8.6593  -15.2439   25.7582 C   0  0  0  0  0  0  0  0  0  0  0  0
    7.7167  -16.0171   26.1706 O   0  0  0  0  0  0  0  0  0  0  0  0
   12.1063  -19.6525   23.9311 N   0  0  0  0  0  0  0  0  0  0  0  0
   12.1651  -18.8585   25.1076 C   0  0  0  0  0  0  0  0  0  0  0  0
   13.2403  -18.7741   25.7494 O   0  0  0  0  0  0  0  0  0  0  0  0
   10.9273  -18.1228   25.5730 C   0  0  0  0  0  0  0  0  0  0  0  0
   11.2416  -17.4284   26.8468 C   0  0  0  0  0  0  0  0  0  0  0  0
   10.0755  -16.5790   27.3435 C   0  0  2  0  0  0  0  0  0  0  0  0
    9.9129  -15.4833   26.3653 N   0  0  0  0  0  0  0  0  0  0  0  0
   10.3888  -15.9970   28.6441 C   0  0  0  0  0  0  0  0  0  0  0  0
   10.5337  -16.6789   29.7025 O   0  0  0  0  0  0  0  0  0  0  0  0
   10.5481  -14.6391   28.7896 O   0  0  0  0  0  0  0  0  0  0  0  0
  2  1  1  0
  3  2  1  0
  3  5  1  0
  3  4  1  1
  5  6  1  6
  7  5  1  0
  7  8  2  0
 10  9  1  1
 10 11  1  0
 10 12  1  0
 13 14  1  0
 13 12  1  1
 14  7  1  0
 15 13  1  0
 16 15  2  0
 17 18  1  0
 18 19  2  0
 20 18  1  0
 20 21  1  0
 22 21  1  6
 22 23  1  0
 23 15  1  0
 24 26  1  0
 24 22  1  0
 25 24  2  0
M  END
$$$$
