ILQ.pdb
     RDKit          3D

 26 25  0  0  1  0  0  0  0  0999 V2000
    7.4915  -18.5550   18.4532 C   0  0  0  0  0  0  0  0  0  0  0  0
    7.8502  -17.1056   18.7204 C   0  0  0  0  0  0  0  0  0  0  0  0
    7.9745  -16.9387   20.2225 C   0  0  2  0  0  0  0  0  0  0  0  0
    6.6786  -17.3842   20.8392 C   0  0  0  0  0  0  0  0  0  0  0  0
    8.2836  -15.4795   20.4770 C   0  0  2  0  0  0  0  0  0  0  0  0
    9.3822  -15.1218   19.6003 N   0  0  0  0  0  0  0  0  0  0  0  0
    8.6574  -15.2338   21.8929 C   0  0  0  0  0  0  0  0  0  0  0  0
    9.7392  -15.6445   22.3494 O   0  0  0  0  0  0  0  0  0  0  0  0
    5.6105  -12.2701   26.3904 C   0  0  0  0  0  0  0  0  0  0  0  0
    6.9349  -12.9570   26.0512 C   0  0  2  0  0  0  0  0  0  0  0  0
    8.1156  -12.3538   26.7127 C   0  0  0  0  0  0  0  0  0  0  0  0
    7.0420  -13.3446   24.6378 C   0  0  0  0  0  0  0  0  0  0  0  0
    8.0803  -14.2763   24.1740 C   0  0  2  0  0  0  0  0  0  0  0  0
    7.7770  -14.5244   22.7395 N   0  0  0  0  0  0  0  0  0  0  0  0
    8.3478  -15.5189   24.8484 C   0  0  0  0  0  0  0  0  0  0  0  0
    7.4306  -16.4202   24.7947 O   0  0  0  0  0  0  0  0  0  0  0  0
   12.0976  -19.0799   22.9881 N   0  0  0  0  0  0  0  0  0  0  0  0
   11.9383  -19.8328   24.1822 C   0  0  0  0  0  0  0  0  0  0  0  0
   12.5175  -20.9397   24.3030 O   0  0  0  0  0  0  0  0  0  0  0  0
   11.0703  -19.2891   25.2961 C   0  0  0  0  0  0  0  0  0  0  0  0
   10.5698  -17.9506   24.8944 C   0  0  0  0  0  0  0  0  0  0  0  0
    9.6949  -17.3152   25.9710 C   0  0  2  0  0  0  0  0  0  0  0  0
    9.4996  -15.9064   25.5700 N   0  0  0  0  0  0  0  0  0  0  0  0
   10.3773  -17.3402   27.2602 C   0  0  0  0  0  0  0  0  0  0  0  0
   10.6446  -18.4052   27.8932 O   0  0  0  0  0  0  0  0  0  0  0  0
   10.7770  -16.1744   27.8698 O   0  0  0  0  0  0  0  0  0  0  0  0
  2  1  1  0
  3  2  1  0
  3  5  1  0
  3  4  1  1
  5  6  1  6
  7  5  1  0
  7  8  2  0
 10  9  1  6
 10 11  1  0
 10 12  1  0
 13 14  1  0
 13 12  1  1
 14  7  1  0
 15 13  1  0
 16 15  2  0
 17 18  1  0
 18 19  2  0
 20 18  1  0
 20 21  1  0
 22 21  1  6
 22 23  1  0
 23 15  1  0
 24 26  1  0
 24 22  1  0
 25 24  2  0
M  END
$$$$
