ILQ.pdb
     RDKit          3D

 26 25  0  0  1  0  0  0  0  0999 V2000
    8.3512  -19.5591   19.8420 C   0  0  0  0  0  0  0  0  0  0  0  0
    8.0322  -18.0763   19.8209 C   0  0  0  0  0  0  0  0  0  0  0  0
    8.4766  -17.4979   21.1503 C   0  0  2  0  0  0  0  0  0  0  0  0
    7.7686  -18.2568   22.2369 C   0  0  0  0  0  0  0  0  0  0  0  0
    8.1254  -16.0262   21.1269 C   0  0  2  0  0  0  0  0  0  0  0  0
    8.7521  -15.4616   19.9472 N   0  0  0  0  0  0  0  0  0  0  0  0
    8.6036  -15.3257   22.3458 C   0  0  0  0  0  0  0  0  0  0  0  0
    9.8128  -15.0874   22.5136 O   0  0  0  0  0  0  0  0  0  0  0  0
    5.6051  -12.1334   26.6446 C   0  0  0  0  0  0  0  0  0  0  0  0
    6.9894  -12.6520   26.2498 C   0  0  2  0  0  0  0  0  0  0  0  0
    8.0927  -11.7036   26.5302 C   0  0  0  0  0  0  0  0  0  0  0  0
    6.9939  -13.3789   24.9727 C   0  0  0  0  0  0  0  0  0  0  0  0
    8.1013  -14.2720   24.6020 C   0  0  2  0  0  0  0  0  0  0  0  0
    7.6779  -14.9214   23.3330 N   0  0  0  0  0  0  0  0  0  0  0  0
    8.6278  -15.2542   25.5123 C   0  0  0  0  0  0  0  0  0  0  0  0
    7.8741  -16.2620   25.7818 O   0  0  0  0  0  0  0  0  0  0  0  0
   13.9827  -17.8544   25.7499 N   0  0  0  0  0  0  0  0  0  0  0  0
   12.9028  -18.0160   24.8412 C   0  0  0  0  0  0  0  0  0  0  0  0
   13.1064  -18.5366   23.7174 O   0  0  0  0  0  0  0  0  0  0  0  0
   11.5172  -17.5573   25.2408 C   0  0  0  0  0  0  0  0  0  0  0  0
   11.6002  -16.9104   26.5742 C   0  0  0  0  0  0  0  0  0  0  0  0
   10.2441  -16.4006   27.0532 C   0  0  2  0  0  0  0  0  0  0  0  0
    9.8829  -15.2790   26.1616 N   0  0  0  0  0  0  0  0  0  0  0  0
   10.3449  -15.8946   28.4179 C   0  0  0  0  0  0  0  0  0  0  0  0
   10.2384  -14.6689   28.7224 O   0  0  0  0  0  0  0  0  0  0  0  0
   10.5658  -16.7484   29.4726 O   0  0  0  0  0  0  0  0  0  0  0  0
  2  1  1  0
  3  2  1  0
  3  5  1  0
  3  4  1  1
  5  6  1  6
  7  5  1  0
  7  8  2  0
 10  9  1  6
 10 11  1  0
 10 12  1  0
 13 14  1  0
 13 12  1  1
 14  7  1  0
 15 13  1  0
 16 15  2  0
 17 18  1  0
 18 19  2  0
 20 18  1  0
 20 21  1  0
 22 21  1  6
 22 23  1  0
 23 15  1  0
 24 26  1  0
 24 22  1  0
 25 24  2  0
M  END
$$$$
