ILQ.pdb
     RDKit          3D

 26 25  0  0  1  0  0  0  0  0999 V2000
    7.4794  -15.7254   18.0012 C   0  0  0  0  0  0  0  0  0  0  0  0
    7.6758  -14.4722   18.8329 C   0  0  0  0  0  0  0  0  0  0  0  0
    7.9208  -14.9112   20.2635 C   0  0  2  0  0  0  0  0  0  0  0  0
    6.7780  -15.7983   20.6700 C   0  0  0  0  0  0  0  0  0  0  0  0
    8.0219  -13.6521   21.0968 C   0  0  2  0  0  0  0  0  0  0  0  0
    9.0462  -12.8250   20.4888 N   0  0  0  0  0  0  0  0  0  0  0  0
    8.3758  -13.9514   22.5075 C   0  0  0  0  0  0  0  0  0  0  0  0
    9.5582  -14.1410   22.8439 O   0  0  0  0  0  0  0  0  0  0  0  0
    7.9254  -11.9955   26.7593 C   0  0  0  0  0  0  0  0  0  0  0  0
    6.5981  -12.3897   26.1082 C   0  0  2  0  0  0  0  0  0  0  0  0
    5.4051  -11.8102   26.7688 C   0  0  0  0  0  0  0  0  0  0  0  0
    6.5546  -13.7964   25.6855 C   0  0  0  0  0  0  0  0  0  0  0  0
    7.6424  -14.3954   24.8988 C   0  0  2  0  0  0  0  0  0  0  0  0
    7.3605  -14.0236   23.4868 N   0  0  0  0  0  0  0  0  0  0  0  0
    7.9703  -15.7936   24.9895 C   0  0  0  0  0  0  0  0  0  0  0  0
    7.0137  -16.6306   24.7873 O   0  0  0  0  0  0  0  0  0  0  0  0
   12.4689  -19.2534   22.5379 N   0  0  0  0  0  0  0  0  0  0  0  0
   12.5919  -18.2478   23.5337 C   0  0  0  0  0  0  0  0  0  0  0  0
   13.4343  -17.3285   23.3906 O   0  0  0  0  0  0  0  0  0  0  0  0
   11.7031  -18.2979   24.7575 C   0  0  0  0  0  0  0  0  0  0  0  0
   10.2874  -18.3268   24.3121 C   0  0  0  0  0  0  0  0  0  0  0  0
    9.3294  -17.8627   25.4053 C   0  0  2  0  0  0  0  0  0  0  0  0
    9.2187  -16.3957   25.2659 N   0  0  0  0  0  0  0  0  0  0  0  0
    9.8786  -18.1633   26.7231 C   0  0  0  0  0  0  0  0  0  0  0  0
   10.2218  -17.2759   27.5603 O   0  0  0  0  0  0  0  0  0  0  0  0
   10.0550  -19.4633   27.1342 O   0  0  0  0  0  0  0  0  0  0  0  0
  2  1  1  0
  3  2  1  0
  3  5  1  0
  3  4  1  1
  5  6  1  6
  7  5  1  0
  7  8  2  0
 10  9  1  1
 10 11  1  0
 10 12  1  0
 13 14  1  0
 13 12  1  1
 14  7  1  0
 15 13  1  0
 16 15  2  0
 17 18  1  0
 18 19  2  0
 20 18  1  0
 20 21  1  0
 22 21  1  6
 22 23  1  0
 23 15  1  0
 24 26  1  0
 24 22  1  0
 25 24  2  0
M  END
$$$$
