ILQ.pdb
     RDKit          3D

 26 25  0  0  1  0  0  0  0  0999 V2000
    9.9248  -22.2376   16.4088 C   0  0  0  0  0  0  0  0  0  0  0  0
    8.8251  -21.2109   16.6023 C   0  0  0  0  0  0  0  0  0  0  0  0
    9.4913  -19.8905   16.9373 C   0  0  2  0  0  0  0  0  0  0  0  0
   10.3886  -20.1201   18.1206 C   0  0  0  0  0  0  0  0  0  0  0  0
    8.3827  -18.8988   17.2151 C   0  0  2  0  0  0  0  0  0  0  0  0
    7.5694  -18.8283   16.0165 N   0  0  0  0  0  0  0  0  0  0  0  0
    8.9168  -17.5546   17.5514 C   0  0  0  0  0  0  0  0  0  0  0  0
    9.7364  -16.9875   16.8072 O   0  0  0  0  0  0  0  0  0  0  0  0
    7.0259  -13.2287   21.4940 C   0  0  0  0  0  0  0  0  0  0  0  0
    8.1188  -13.6019   20.4905 C   0  0  2  0  0  0  0  0  0  0  0  0
    8.4771  -12.5114   19.5535 C   0  0  0  0  0  0  0  0  0  0  0  0
    7.9797  -14.9661   19.9621 C   0  0  0  0  0  0  0  0  0  0  0  0
    9.0393  -15.5881   19.1548 C   0  0  2  0  0  0  0  0  0  0  0  0
    8.4927  -16.9047   18.7316 N   0  0  0  0  0  0  0  0  0  0  0  0
   10.3831  -15.7416   19.6460 C   0  0  0  0  0  0  0  0  0  0  0  0
   10.6166  -16.7618   20.3951 O   0  0  0  0  0  0  0  0  0  0  0  0
   17.1397  -13.4329   18.6122 N   0  0  0  0  0  0  0  0  0  0  0  0
   16.1354  -14.4374   18.6293 C   0  0  0  0  0  0  0  0  0  0  0  0
   16.0162  -15.2163   17.6524 O   0  0  0  0  0  0  0  0  0  0  0  0
   15.2198  -14.5558   19.8283 C   0  0  0  0  0  0  0  0  0  0  0  0
   13.8285  -14.2822   19.3890 C   0  0  0  0  0  0  0  0  0  0  0  0
   12.8416  -15.3167   19.9220 C   0  0  2  0  0  0  0  0  0  0  0  0
   11.5111  -14.9224   19.4141 N   0  0  0  0  0  0  0  0  0  0  0  0
   12.8097  -15.2842   21.3802 C   0  0  0  0  0  0  0  0  0  0  0  0
   11.9789  -14.6004   22.0498 O   0  0  0  0  0  0  0  0  0  0  0  0
   13.7059  -16.0169   22.1221 O   0  0  0  0  0  0  0  0  0  0  0  0
  2  1  1  0
  3  2  1  0
  3  5  1  0
  3  4  1  1
  5  6  1  6
  7  5  1  0
  7  8  2  0
 10  9  1  6
 10 11  1  0
 10 12  1  0
 13 14  1  0
 13 12  1  1
 14  7  1  0
 15 13  1  0
 16 15  2  0
 17 18  1  0
 18 19  2  0
 20 18  1  0
 20 21  1  0
 22 21  1  6
 22 23  1  0
 23 15  1  0
 24 26  1  0
 24 22  1  0
 25 24  2  0
M  END
$$$$
