ILQ.pdb
     RDKit          3D

 26 25  0  0  1  0  0  0  0  0999 V2000
    8.5331  -19.8890   20.1334 C   0  0  0  0  0  0  0  0  0  0  0  0
    7.8891  -18.5180   20.0524 C   0  0  0  0  0  0  0  0  0  0  0  0
    8.3505  -17.7281   21.2618 C   0  0  2  0  0  0  0  0  0  0  0  0
    7.9530  -18.4995   22.4886 C   0  0  0  0  0  0  0  0  0  0  0  0
    7.6913  -16.3688   21.1746 C   0  0  2  0  0  0  0  0  0  0  0  0
    7.9363  -15.8662   19.8365 N   0  0  0  0  0  0  0  0  0  0  0  0
    8.2366  -15.4257   22.1837 C   0  0  0  0  0  0  0  0  0  0  0  0
    9.3802  -14.9514   22.0636 O   0  0  0  0  0  0  0  0  0  0  0  0
    5.5877  -12.7553   27.0457 C   0  0  0  0  0  0  0  0  0  0  0  0
    6.8479  -12.7189   26.1789 C   0  0  2  0  0  0  0  0  0  0  0  0
    7.4484  -11.3713   26.0416 C   0  0  0  0  0  0  0  0  0  0  0  0
    6.7569  -13.5734   24.9868 C   0  0  0  0  0  0  0  0  0  0  0  0
    7.9565  -14.1497   24.3623 C   0  0  2  0  0  0  0  0  0  0  0  0
    7.4513  -15.0576   23.2985 N   0  0  0  0  0  0  0  0  0  0  0  0
    8.9783  -14.8067   25.1336 C   0  0  0  0  0  0  0  0  0  0  0  0
    9.6474  -14.0768   25.9558 O   0  0  0  0  0  0  0  0  0  0  0  0
    9.1508  -19.2445   28.9728 N   0  0  0  0  0  0  0  0  0  0  0  0
    9.3348  -19.8274   27.6905 C   0  0  0  0  0  0  0  0  0  0  0  0
    9.1393  -21.0569   27.5308 O   0  0  0  0  0  0  0  0  0  0  0  0
    9.7652  -18.9562   26.5304 C   0  0  0  0  0  0  0  0  0  0  0  0
    9.8958  -17.5584   27.0126 C   0  0  0  0  0  0  0  0  0  0  0  0
   10.4899  -16.6359   25.9523 C   0  0  2  0  0  0  0  0  0  0  0  0
    9.3575  -16.1682   25.1262 N   0  0  0  0  0  0  0  0  0  0  0  0
   11.4142  -17.3733   25.0976 C   0  0  0  0  0  0  0  0  0  0  0  0
   11.1612  -17.6881   23.8963 O   0  0  0  0  0  0  0  0  0  0  0  0
   12.6427  -17.7741   25.5674 O   0  0  0  0  0  0  0  0  0  0  0  0
  2  1  1  0
  3  2  1  0
  3  5  1  0
  3  4  1  1
  5  6  1  6
  7  5  1  0
  7  8  2  0
 10  9  1  6
 10 11  1  0
 10 12  1  0
 13 14  1  0
 13 12  1  1
 14  7  1  0
 15 13  1  0
 16 15  2  0
 17 18  1  0
 18 19  2  0
 20 18  1  0
 20 21  1  0
 22 21  1  1
 22 23  1  0
 23 15  1  0
 24 26  1  0
 24 22  1  0
 25 24  2  0
M  END
$$$$
