ILQ.pdb
     RDKit          3D

 26 25  0  0  1  0  0  0  0  0999 V2000
    8.2590  -19.2563   19.4057 C   0  0  0  0  0  0  0  0  0  0  0  0
    8.0324  -17.7569   19.4409 C   0  0  0  0  0  0  0  0  0  0  0  0
    8.4500  -17.2673   20.8140 C   0  0  2  0  0  0  0  0  0  0  0  0
    7.7052  -18.0814   21.8340 C   0  0  0  0  0  0  0  0  0  0  0  0
    8.1178  -15.7921   20.8726 C   0  0  2  0  0  0  0  0  0  0  0  0
    8.7886  -15.1637   19.7508 N   0  0  0  0  0  0  0  0  0  0  0  0
    8.5655  -15.1763   22.1474 C   0  0  0  0  0  0  0  0  0  0  0  0
    9.7714  -14.9646   22.3667 O   0  0  0  0  0  0  0  0  0  0  0  0
    7.9196  -12.9037   27.0597 C   0  0  0  0  0  0  0  0  0  0  0  0
    6.9461  -12.4606   25.9657 C   0  0  2  0  0  0  0  0  0  0  0  0
    5.7019  -11.8407   26.4785 C   0  0  0  0  0  0  0  0  0  0  0  0
    6.8494  -13.4163   24.8536 C   0  0  0  0  0  0  0  0  0  0  0  0
    8.0026  -14.2263   24.4352 C   0  0  2  0  0  0  0  0  0  0  0  0
    7.6141  -14.8234   23.1299 N   0  0  0  0  0  0  0  0  0  0  0  0
    8.5812  -15.2297   25.2891 C   0  0  0  0  0  0  0  0  0  0  0  0
    7.7899  -16.1410   25.7362 O   0  0  0  0  0  0  0  0  0  0  0  0
   13.8704  -15.9771   24.5003 N   0  0  0  0  0  0  0  0  0  0  0  0
   12.9796  -16.8414   23.8093 C   0  0  0  0  0  0  0  0  0  0  0  0
   13.1918  -17.1211   22.6043 O   0  0  0  0  0  0  0  0  0  0  0  0
   11.7833  -17.4154   24.5369 C   0  0  0  0  0  0  0  0  0  0  0  0
   11.7756  -16.8863   25.9238 C   0  0  0  0  0  0  0  0  0  0  0  0
   10.3636  -16.5886   26.4195 C   0  0  2  0  0  0  0  0  0  0  0  0
    9.9228  -15.3689   25.7112 N   0  0  0  0  0  0  0  0  0  0  0  0
   10.3756  -16.3142   27.8523 C   0  0  0  0  0  0  0  0  0  0  0  0
   10.6540  -17.1832   28.7318 O   0  0  0  0  0  0  0  0  0  0  0  0
   10.0774  -15.0612   28.3334 O   0  0  0  0  0  0  0  0  0  0  0  0
  2  1  1  0
  3  2  1  0
  3  5  1  0
  3  4  1  1
  5  6  1  6
  7  5  1  0
  7  8  2  0
 10  9  1  1
 10 11  1  0
 10 12  1  0
 13 14  1  0
 13 12  1  1
 14  7  1  0
 15 13  1  0
 16 15  2  0
 17 18  1  0
 18 19  2  0
 20 18  1  0
 20 21  1  0
 22 21  1  6
 22 23  1  0
 23 15  1  0
 24 26  1  0
 24 22  1  0
 25 24  2  0
M  END
$$$$
