ILQ.pdb
     RDKit          3D

 26 25  0  0  1  0  0  0  0  0999 V2000
    9.1108  -18.8815   30.7170 C   0  0  0  0  0  0  0  0  0  0  0  0
    9.7049  -18.4451   29.3912 C   0  0  0  0  0  0  0  0  0  0  0  0
    8.5517  -18.1834   28.4419 C   0  0  2  0  0  0  0  0  0  0  0  0
    7.7577  -19.4541   28.3283 C   0  0  0  0  0  0  0  0  0  0  0  0
    9.1580  -17.7415   27.1277 C   0  0  2  0  0  0  0  0  0  0  0  0
   10.0870  -16.6700   27.4309 N   0  0  0  0  0  0  0  0  0  0  0  0
    8.1228  -17.2674   26.1746 C   0  0  0  0  0  0  0  0  0  0  0  0
    7.2100  -18.0220   25.7942 O   0  0  0  0  0  0  0  0  0  0  0  0
    6.1308  -12.9261   27.2931 C   0  0  0  0  0  0  0  0  0  0  0  0
    7.1222  -13.4657   26.2601 C   0  0  2  0  0  0  0  0  0  0  0  0
    8.1234  -12.4720   25.8067 C   0  0  0  0  0  0  0  0  0  0  0  0
    6.4978  -14.3423   25.2595 C   0  0  0  0  0  0  0  0  0  0  0  0
    7.2408  -15.4476   24.6372 C   0  0  2  0  0  0  0  0  0  0  0  0
    8.1688  -15.9420   25.6887 N   0  0  0  0  0  0  0  0  0  0  0  0
    7.9403  -15.2907   23.3895 C   0  0  0  0  0  0  0  0  0  0  0  0
    7.2278  -15.0225   22.3518 O   0  0  0  0  0  0  0  0  0  0  0  0
   10.5401  -13.4428   18.8015 N   0  0  0  0  0  0  0  0  0  0  0  0
   11.5880  -13.5933   19.7487 C   0  0  0  0  0  0  0  0  0  0  0  0
   12.6946  -13.0362   19.5478 O   0  0  0  0  0  0  0  0  0  0  0  0
   11.3559  -14.4256   20.9911 C   0  0  0  0  0  0  0  0  0  0  0  0
   10.0531  -15.1239   20.8552 C   0  0  0  0  0  0  0  0  0  0  0  0
    9.8260  -16.1425   21.9683 C   0  0  2  0  0  0  0  0  0  0  0  0
    9.3271  -15.3817   23.1327 N   0  0  0  0  0  0  0  0  0  0  0  0
   11.0848  -16.7816   22.3366 C   0  0  0  0  0  0  0  0  0  0  0  0
   11.6539  -16.6190   23.4573 O   0  0  0  0  0  0  0  0  0  0  0  0
   11.7345  -17.6179   21.4598 O   0  0  0  0  0  0  0  0  0  0  0  0
  2  1  1  0
  3  2  1  0
  3  5  1  0
  3  4  1  6
  5  6  1  1
  7  5  1  0
  7  8  2  0
 10  9  1  6
 10 11  1  0
 10 12  1  0
 13 14  1  0
 13 12  1  1
 14  7  1  0
 15 13  1  0
 16 15  2  0
 17 18  1  0
 18 19  2  0
 20 18  1  0
 20 21  1  0
 22 21  1  6
 22 23  1  0
 23 15  1  0
 24 26  1  0
 24 22  1  0
 25 24  2  0
M  END
$$$$
