CHG.pdb
     RDKit          3D

 21 21  0  0  1  0  0  0  0  0999 V2000
   17.7963  -12.6411  -15.8901 N   0  0  0  0  0  0  0  0  0  0  0  0
   17.7470  -11.1847  -15.9090 C   0  0  1  0  0  0  0  0  0  0  0  0
   16.7089  -10.7085  -14.9307 C   0  0  0  0  0  0  0  0  0  0  0  0
   15.0814  -10.9224  -15.7165 S   0  0  0  0  0  0  0  0  0  0  0  0
   19.0854  -10.6242  -15.6654 C   0  0  0  0  0  0  0  0  0  0  0  0
   19.7771  -11.0642  -14.6840 O   0  0  0  0  0  0  0  0  0  0  0  0
   19.5882   -9.6075  -16.5192 N   0  0  0  0  0  0  0  0  0  0  0  0
   20.8716   -8.9802  -16.2892 C   0  0  1  0  0  0  0  0  0  0  0  0
   21.5648   -8.6466  -17.5537 C   0  0  0  0  0  0  0  0  0  0  0  0
   22.8806   -8.0230  -17.4608 C   0  0  0  0  0  0  0  0  0  0  0  0
   23.8867   -8.2054  -16.5423 C   0  0  0  0  0  0  0  0  0  0  0  0
   24.9555   -7.3995  -16.8293 N   0  0  0  0  0  0  0  0  0  0  0  0
   24.5812   -6.7305  -17.9299 C   0  0  0  0  0  0  0  0  0  0  0  0
   23.3679   -7.0752  -18.3242 N   0  0  0  0  0  0  0  0  0  0  0  0
   20.5866   -7.6526  -15.6197 C   0  0  0  0  0  0  0  0  0  0  0  0
   19.6880   -6.9350  -16.1058 O   0  0  0  0  0  0  0  0  0  0  0  0
   21.2862   -7.2051  -14.4879 N   0  0  0  0  0  0  0  0  0  0  0  0
   21.0746   -5.9465  -13.8316 C   0  0  0  0  0  0  0  0  0  0  0  0
   21.7778   -4.8279  -14.5084 C   0  0  0  0  0  0  0  0  0  0  0  0
   21.2738   -3.5489  -14.6381 O   0  0  0  0  0  0  0  0  0  0  0  0
   22.9084   -5.0663  -14.9946 O   0  0  0  0  0  0  0  0  0  0  0  0
  2  1  1  1
  3  4  1  0
  3  2  1  0
  5  6  2  0
  5  2  1  0
  7  5  1  0
  8 15  1  0
  8  7  1  0
  8  9  1  6
 10  9  1  0
 11 10  2  0
 12 11  1  0
 13 12  1  0
 13 14  2  0
 14 10  1  0
 15 17  1  0
 16 15  2  0
 17 18  1  0
 18 19  1  0
 19 20  1  0
 21 19  2  0
M  END
$$$$
