CHG.pdb
     RDKit          3D

 21 21  0  0  1  0  0  0  0  0999 V2000
   26.2748  -11.4472  -17.5372 N   0  0  0  0  0  0  0  0  0  0  0  0
   25.7570  -10.8185  -16.3287 C   0  0  1  0  0  0  0  0  0  0  0  0
   26.8604  -10.0508  -15.6544 C   0  0  0  0  0  0  0  0  0  0  0  0
   28.0265  -11.2660  -14.9649 S   0  0  0  0  0  0  0  0  0  0  0  0
   24.5774   -9.9977  -16.6442 C   0  0  0  0  0  0  0  0  0  0  0  0
   24.4646   -9.4902  -17.8125 O   0  0  0  0  0  0  0  0  0  0  0  0
   23.5853   -9.7813  -15.6520 N   0  0  0  0  0  0  0  0  0  0  0  0
   22.4007   -8.9926  -15.9132 C   0  0  1  0  0  0  0  0  0  0  0  0
   21.1582   -9.7218  -15.5735 C   0  0  0  0  0  0  0  0  0  0  0  0
   19.8897   -9.0302  -15.7769 C   0  0  0  0  0  0  0  0  0  0  0  0
   18.9747   -8.5663  -14.8622 C   0  0  0  0  0  0  0  0  0  0  0  0
   17.9096   -7.9847  -15.4958 N   0  0  0  0  0  0  0  0  0  0  0  0
   18.1939   -8.1042  -16.8012 C   0  0  0  0  0  0  0  0  0  0  0  0
   19.3498   -8.7139  -16.9975 N   0  0  0  0  0  0  0  0  0  0  0  0
   22.4521   -7.8138  -14.9647 C   0  0  0  0  0  0  0  0  0  0  0  0
   22.8308   -8.0233  -13.7936 O   0  0  0  0  0  0  0  0  0  0  0  0
   22.0945   -6.5117  -15.3485 N   0  0  0  0  0  0  0  0  0  0  0  0
   22.1139   -5.3634  -14.4880 C   0  0  0  0  0  0  0  0  0  0  0  0
   21.7580   -4.1120  -15.2030 C   0  0  0  0  0  0  0  0  0  0  0  0
   21.6199   -2.8770  -14.6009 O   0  0  0  0  0  0  0  0  0  0  0  0
   21.5708   -4.1870  -16.4403 O   0  0  0  0  0  0  0  0  0  0  0  0
  2  1  1  6
  3  4  1  0
  3  2  1  0
  5  6  2  0
  5  2  1  0
  7  5  1  0
  8 15  1  0
  8  7  1  0
  8  9  1  1
 10  9  1  0
 11 10  2  0
 12 11  1  0
 13 12  1  0
 13 14  2  0
 14 10  1  0
 15 17  1  0
 16 15  2  0
 17 18  1  0
 18 19  1  0
 19 20  1  0
 21 19  2  0
M  END
$$$$
