CHG.pdb
     RDKit          3D

 21 21  0  0  1  0  0  0  0  0999 V2000
   27.0878  -20.6999   -9.5028 N   0  0  0  0  0  0  0  0  0  0  0  0
   25.8109  -21.1127  -10.0713 C   0  0  1  0  0  0  0  0  0  0  0  0
   24.6929  -20.4282   -9.3344 C   0  0  0  0  0  0  0  0  0  0  0  0
   24.9617  -20.7073   -7.5562 S   0  0  0  0  0  0  0  0  0  0  0  0
   25.7943  -20.8694  -11.5222 C   0  0  0  0  0  0  0  0  0  0  0  0
   26.1527  -19.7254  -11.9674 O   0  0  0  0  0  0  0  0  0  0  0  0
   25.3826  -21.9031  -12.4040 N   0  0  0  0  0  0  0  0  0  0  0  0
   25.4007  -21.7356  -13.8411 C   0  0  1  0  0  0  0  0  0  0  0  0
   25.8815  -22.9494  -14.5387 C   0  0  0  0  0  0  0  0  0  0  0  0
   25.8899  -22.9336  -15.9977 C   0  0  0  0  0  0  0  0  0  0  0  0
   26.7785  -22.3581  -16.8742 C   0  0  0  0  0  0  0  0  0  0  0  0
   26.3935  -22.5806  -18.1689 N   0  0  0  0  0  0  0  0  0  0  0  0
   25.2638  -23.2957  -18.0614 C   0  0  0  0  0  0  0  0  0  0  0  0
   24.9429  -23.5186  -16.7990 N   0  0  0  0  0  0  0  0  0  0  0  0
   23.9594  -21.5638  -14.2714 C   0  0  0  0  0  0  0  0  0  0  0  0
   23.7284  -21.4092  -15.4885 O   0  0  0  0  0  0  0  0  0  0  0  0
   22.8881  -21.5719  -13.3644 N   0  0  0  0  0  0  0  0  0  0  0  0
   21.5061  -21.4165  -13.7187 C   0  0  0  0  0  0  0  0  0  0  0  0
   20.9236  -20.1561  -13.1934 C   0  0  0  0  0  0  0  0  0  0  0  0
   19.6156  -19.7569  -13.3855 O   0  0  0  0  0  0  0  0  0  0  0  0
   21.6760  -19.4047  -12.5294 O   0  0  0  0  0  0  0  0  0  0  0  0
  2  1  1  1
  3  4  1  0
  3  2  1  0
  5  6  2  0
  5  2  1  0
  7  5  1  0
  8 15  1  0
  8  7  1  0
  8  9  1  6
 10  9  1  0
 11 10  2  0
 12 11  1  0
 13 12  1  0
 13 14  2  0
 14 10  1  0
 15 17  1  0
 16 15  2  0
 17 18  1  0
 18 19  1  0
 19 20  1  0
 21 19  2  0
M  END
$$$$
