CHG.pdb
     RDKit          3D

 21 21  0  0  1  0  0  0  0  0999 V2000
   16.7722  -11.3851  -14.2986 N   0  0  0  0  0  0  0  0  0  0  0  0
   18.0171  -10.6401  -14.4367 C   0  0  1  0  0  0  0  0  0  0  0  0
   18.4334  -10.6289  -15.8817 C   0  0  0  0  0  0  0  0  0  0  0  0
   19.1483  -12.2604  -16.2550 S   0  0  0  0  0  0  0  0  0  0  0  0
   17.8762   -9.2961  -13.8550 C   0  0  0  0  0  0  0  0  0  0  0  0
   16.7886   -8.6483  -14.0367 O   0  0  0  0  0  0  0  0  0  0  0  0
   18.9443   -8.7393  -13.1036 N   0  0  0  0  0  0  0  0  0  0  0  0
   18.9092   -7.3772  -12.6168 C   0  0  1  0  0  0  0  0  0  0  0  0
   18.7852   -7.3139  -11.1432 C   0  0  0  0  0  0  0  0  0  0  0  0
   17.4486   -7.4325  -10.5702 C   0  0  0  0  0  0  0  0  0  0  0  0
   16.2212   -7.4964  -11.1856 C   0  0  0  0  0  0  0  0  0  0  0  0
   15.2193   -7.5923  -10.2576 N   0  0  0  0  0  0  0  0  0  0  0  0
   15.8574   -7.5852   -9.0778 C   0  0  0  0  0  0  0  0  0  0  0  0
   17.1669   -7.4922   -9.2292 N   0  0  0  0  0  0  0  0  0  0  0  0
   20.2594   -6.7721  -12.9372 C   0  0  0  0  0  0  0  0  0  0  0  0
   21.2749   -7.4684  -12.7304 O   0  0  0  0  0  0  0  0  0  0  0  0
   20.4094   -5.4744  -13.4511 N   0  0  0  0  0  0  0  0  0  0  0  0
   21.6649   -4.8377  -13.7305 C   0  0  0  0  0  0  0  0  0  0  0  0
   21.4984   -3.5243  -14.4021 C   0  0  0  0  0  0  0  0  0  0  0  0
   22.5208   -2.6240  -14.6281 O   0  0  0  0  0  0  0  0  0  0  0  0
   20.3468   -3.2154  -14.7894 O   0  0  0  0  0  0  0  0  0  0  0  0
  2  1  1  6
  3  4  1  0
  3  2  1  0
  5  6  2  0
  5  2  1  0
  7  5  1  0
  8 15  1  0
  8  7  1  0
  8  9  1  1
 10  9  1  0
 11 10  2  0
 12 11  1  0
 13 12  1  0
 13 14  2  0
 14 10  1  0
 15 17  1  0
 16 15  2  0
 17 18  1  0
 18 19  1  0
 19 20  1  0
 21 19  2  0
M  END
$$$$
