CHG.pdb
     RDKit          3D

 21 21  0  0  1  0  0  0  0  0999 V2000
   25.1693  -11.5353  -17.4450 N   0  0  0  0  0  0  0  0  0  0  0  0
   24.9089  -10.6543  -16.3136 C   0  0  1  0  0  0  0  0  0  0  0  0
   26.1044   -9.7712  -16.0842 C   0  0  0  0  0  0  0  0  0  0  0  0
   27.4039  -10.7990  -15.3311 S   0  0  0  0  0  0  0  0  0  0  0  0
   23.6584   -9.9080  -16.5235 C   0  0  0  0  0  0  0  0  0  0  0  0
   23.3749   -9.4821  -17.6956 O   0  0  0  0  0  0  0  0  0  0  0  0
   22.7876   -9.6721  -15.4273 N   0  0  0  0  0  0  0  0  0  0  0  0
   21.5312   -8.9719  -15.5848 C   0  0  1  0  0  0  0  0  0  0  0  0
   20.3824   -9.7708  -15.1021 C   0  0  0  0  0  0  0  0  0  0  0  0
   19.9111  -10.8605  -15.9503 C   0  0  0  0  0  0  0  0  0  0  0  0
   20.3418  -11.2714  -17.1892 C   0  0  0  0  0  0  0  0  0  0  0  0
   19.6036  -12.3371  -17.6290 N   0  0  0  0  0  0  0  0  0  0  0  0
   18.7243  -12.5624  -16.6414 C   0  0  0  0  0  0  0  0  0  0  0  0
   18.8804  -11.7114  -15.6425 N   0  0  0  0  0  0  0  0  0  0  0  0
   21.5964   -7.7635  -14.6751 C   0  0  0  0  0  0  0  0  0  0  0  0
   22.2071   -7.8805  -13.5924 O   0  0  0  0  0  0  0  0  0  0  0  0
   21.0033   -6.5333  -14.9999 N   0  0  0  0  0  0  0  0  0  0  0  0
   21.1284   -5.3285  -14.2303 C   0  0  0  0  0  0  0  0  0  0  0  0
   22.3728   -4.5818  -14.5427 C   0  0  0  0  0  0  0  0  0  0  0  0
   23.6122   -4.8618  -14.0018 O   0  0  0  0  0  0  0  0  0  0  0  0
   22.2874   -3.6310  -15.3553 O   0  0  0  0  0  0  0  0  0  0  0  0
  2  1  1  6
  3  4  1  0
  3  2  1  0
  5  6  2  0
  5  2  1  0
  7  5  1  0
  8 15  1  0
  8  7  1  0
  8  9  1  1
 10  9  1  0
 11 10  2  0
 12 11  1  0
 13 12  1  0
 13 14  2  0
 14 10  1  0
 15 17  1  0
 16 15  2  0
 17 18  1  0
 18 19  1  0
 19 20  1  0
 21 19  2  0
M  END
$$$$
