CHG.pdb
     RDKit          3D

 21 21  0  0  1  0  0  0  0  0999 V2000
   27.0117  -21.1367  -12.3639 N   0  0  0  0  0  0  0  0  0  0  0  0
   25.6820  -21.4095  -11.8335 C   0  0  1  0  0  0  0  0  0  0  0  0
   25.5311  -20.7369  -10.4970 C   0  0  0  0  0  0  0  0  0  0  0  0
   26.8129  -21.4159   -9.3979 S   0  0  0  0  0  0  0  0  0  0  0  0
   24.6520  -21.0179  -12.8084 C   0  0  0  0  0  0  0  0  0  0  0  0
   24.6016  -19.8047  -13.2097 O   0  0  0  0  0  0  0  0  0  0  0  0
   23.7326  -21.9875  -13.2881 N   0  0  0  0  0  0  0  0  0  0  0  0
   22.7825  -21.6882  -14.3374 C   0  0  1  0  0  0  0  0  0  0  0  0
   23.2170  -22.2145  -15.6509 C   0  0  0  0  0  0  0  0  0  0  0  0
   24.4095  -21.6291  -16.2544 C   0  0  0  0  0  0  0  0  0  0  0  0
   25.5788  -22.2226  -16.6663 C   0  0  0  0  0  0  0  0  0  0  0  0
   26.4443  -21.2887  -17.1689 N   0  0  0  0  0  0  0  0  0  0  0  0
   25.7831  -20.1273  -17.0546 C   0  0  0  0  0  0  0  0  0  0  0  0
   24.5857  -20.2953  -16.5211 N   0  0  0  0  0  0  0  0  0  0  0  0
   21.5149  -22.4426  -13.9967 C   0  0  0  0  0  0  0  0  0  0  0  0
   21.6189  -23.6464  -13.6826 O   0  0  0  0  0  0  0  0  0  0  0  0
   20.2444  -21.8462  -14.0208 N   0  0  0  0  0  0  0  0  0  0  0  0
   19.0111  -22.5200  -13.7298 C   0  0  0  0  0  0  0  0  0  0  0  0
   17.8463  -21.5996  -13.7349 C   0  0  0  0  0  0  0  0  0  0  0  0
   17.9160  -20.2481  -14.0099 O   0  0  0  0  0  0  0  0  0  0  0  0
   16.7227  -22.0885  -13.4705 O   0  0  0  0  0  0  0  0  0  0  0  0
  2  1  1  6
  3  4  1  0
  3  2  1  0
  5  6  2  0
  5  2  1  0
  7  5  1  0
  8 15  1  0
  8  7  1  0
  8  9  1  6
 10  9  1  0
 11 10  2  0
 12 11  1  0
 13 12  1  0
 13 14  2  0
 14 10  1  0
 15 17  1  0
 16 15  2  0
 17 18  1  0
 18 19  1  0
 19 20  1  0
 21 19  2  0
M  END
$$$$
