CHG.pdb
     RDKit          3D

 21 21  0  0  1  0  0  0  0  0999 V2000
   25.6785  -11.9355  -17.5740 N   0  0  0  0  0  0  0  0  0  0  0  0
   25.5200  -10.9683  -16.4954 C   0  0  1  0  0  0  0  0  0  0  0  0
   26.7874  -10.1721  -16.3498 C   0  0  0  0  0  0  0  0  0  0  0  0
   28.0487  -11.2800  -15.6471 S   0  0  0  0  0  0  0  0  0  0  0  0
   24.3270  -10.1381  -16.7240 C   0  0  0  0  0  0  0  0  0  0  0  0
   23.9330   -9.9282  -17.9224 O   0  0  0  0  0  0  0  0  0  0  0  0
   23.6330   -9.5839  -15.6164 N   0  0  0  0  0  0  0  0  0  0  0  0
   22.4414   -8.7804  -15.7840 C   0  0  1  0  0  0  0  0  0  0  0  0
   21.2389   -9.4428  -15.2309 C   0  0  0  0  0  0  0  0  0  0  0  0
   20.7889  -10.6744  -15.8711 C   0  0  0  0  0  0  0  0  0  0  0  0
   20.1867  -10.8722  -17.0907 C   0  0  0  0  0  0  0  0  0  0  0  0
   19.9209  -12.2004  -17.2890 N   0  0  0  0  0  0  0  0  0  0  0  0
   20.3696  -12.7989  -16.1756 C   0  0  0  0  0  0  0  0  0  0  0  0
   20.8845  -11.9287  -15.3247 N   0  0  0  0  0  0  0  0  0  0  0  0
   22.6415   -7.5359  -14.9455 C   0  0  0  0  0  0  0  0  0  0  0  0
   22.9427   -7.6847  -13.7431 O   0  0  0  0  0  0  0  0  0  0  0  0
   22.5027   -6.2386  -15.4635 N   0  0  0  0  0  0  0  0  0  0  0  0
   22.7520   -5.0280  -14.7341 C   0  0  0  0  0  0  0  0  0  0  0  0
   21.5480   -4.5397  -14.0159 C   0  0  0  0  0  0  0  0  0  0  0  0
   21.5195   -3.4258  -13.2002 O   0  0  0  0  0  0  0  0  0  0  0  0
   20.4849   -5.1874  -14.1636 O   0  0  0  0  0  0  0  0  0  0  0  0
  2  1  1  6
  3  4  1  0
  3  2  1  0
  5  6  2  0
  5  2  1  0
  7  5  1  0
  8 15  1  0
  8  7  1  0
  8  9  1  1
 10  9  1  0
 11 10  2  0
 12 11  1  0
 13 12  1  0
 13 14  2  0
 14 10  1  0
 15 17  1  0
 16 15  2  0
 17 18  1  0
 18 19  1  0
 19 20  1  0
 21 19  2  0
M  END
$$$$
