CHG.pdb
     RDKit          3D

 21 21  0  0  1  0  0  0  0  0999 V2000
   20.6802  -20.2571  -14.5197 N   0  0  0  0  0  0  0  0  0  0  0  0
   19.6684  -19.2507  -14.8150 C   0  0  1  0  0  0  0  0  0  0  0  0
   18.5789  -19.3211  -13.7807 C   0  0  0  0  0  0  0  0  0  0  0  0
   17.6806  -20.8823  -14.0417 S   0  0  0  0  0  0  0  0  0  0  0  0
   20.2873  -17.9206  -14.9272 C   0  0  0  0  0  0  0  0  0  0  0  0
   21.2069  -17.5885  -14.1030 O   0  0  0  0  0  0  0  0  0  0  0  0
   19.8571  -17.0283  -15.9442 N   0  0  0  0  0  0  0  0  0  0  0  0
   20.5804  -15.8138  -16.2530 C   0  0  1  0  0  0  0  0  0  0  0  0
   21.1481  -15.8341  -17.6199 C   0  0  0  0  0  0  0  0  0  0  0  0
   22.2641  -16.7383  -17.8766 C   0  0  0  0  0  0  0  0  0  0  0  0
   23.5979  -16.6118  -17.5696 C   0  0  0  0  0  0  0  0  0  0  0  0
   24.3009  -17.7009  -18.0098 N   0  0  0  0  0  0  0  0  0  0  0  0
   23.3755  -18.4833  -18.5850 C   0  0  0  0  0  0  0  0  0  0  0  0
   22.1704  -17.9447  -18.5223 N   0  0  0  0  0  0  0  0  0  0  0  0
   19.5604  -14.6951  -16.2534 C   0  0  0  0  0  0  0  0  0  0  0  0
   18.3882  -14.9744  -16.5801 O   0  0  0  0  0  0  0  0  0  0  0  0
   19.8800  -13.3734  -15.9047 N   0  0  0  0  0  0  0  0  0  0  0  0
   18.9505  -12.2803  -15.8749 C   0  0  0  0  0  0  0  0  0  0  0  0
   19.6069  -10.9851  -15.5661 C   0  0  0  0  0  0  0  0  0  0  0  0
   20.9623  -10.8231  -15.3570 O   0  0  0  0  0  0  0  0  0  0  0  0
   18.8751   -9.9701  -15.4911 O   0  0  0  0  0  0  0  0  0  0  0  0
  2  1  1  1
  3  4  1  0
  3  2  1  0
  5  6  2  0
  5  2  1  0
  7  5  1  0
  8 15  1  0
  8  7  1  0
  8  9  1  6
 10  9  1  0
 11 10  2  0
 12 11  1  0
 13 12  1  0
 13 14  2  0
 14 10  1  0
 15 17  1  0
 16 15  2  0
 17 18  1  0
 18 19  1  0
 19 20  1  0
 21 19  2  0
M  END
$$$$
