CHG.pdb
     RDKit          3D

 21 21  0  0  1  0  0  0  0  0999 V2000
   25.4460  -13.5657  -16.3804 N   0  0  0  0  0  0  0  0  0  0  0  0
   25.5020  -12.3139  -15.6362 C   0  0  1  0  0  0  0  0  0  0  0  0
   26.7661  -11.5800  -15.9899 C   0  0  0  0  0  0  0  0  0  0  0  0
   28.1597  -12.5472  -15.3305 S   0  0  0  0  0  0  0  0  0  0  0  0
   24.2809  -11.5264  -15.8672 C   0  0  0  0  0  0  0  0  0  0  0  0
   23.7183  -11.5692  -17.0148 O   0  0  0  0  0  0  0  0  0  0  0  0
   23.7462  -10.7335  -14.8178 N   0  0  0  0  0  0  0  0  0  0  0  0
   22.5387   -9.9545  -14.9861 C   0  0  1  0  0  0  0  0  0  0  0  0
   21.3801  -10.5640  -14.2951 C   0  0  0  0  0  0  0  0  0  0  0  0
   20.9926  -11.9153  -14.6857 C   0  0  0  0  0  0  0  0  0  0  0  0
   21.1820  -13.1145  -14.0414 C   0  0  0  0  0  0  0  0  0  0  0  0
   20.6648  -14.1462  -14.7777 N   0  0  0  0  0  0  0  0  0  0  0  0
   20.1627  -13.5545  -15.8718 C   0  0  0  0  0  0  0  0  0  0  0  0
   20.3402  -12.2452  -15.8462 N   0  0  0  0  0  0  0  0  0  0  0  0
   22.7793   -8.6333  -14.2872 C   0  0  0  0  0  0  0  0  0  0  0  0
   23.4221   -8.6479  -13.2170 O   0  0  0  0  0  0  0  0  0  0  0  0
   22.3127   -7.4092  -14.7916 N   0  0  0  0  0  0  0  0  0  0  0  0
   22.5836   -6.1227  -14.2162 C   0  0  0  0  0  0  0  0  0  0  0  0
   21.4604   -5.1699  -14.4014 C   0  0  0  0  0  0  0  0  0  0  0  0
   21.4233   -3.8909  -13.8820 O   0  0  0  0  0  0  0  0  0  0  0  0
   20.4789   -5.5585  -15.0775 O   0  0  0  0  0  0  0  0  0  0  0  0
  2  1  1  6
  3  4  1  0
  3  2  1  0
  5  6  2  0
  5  2  1  0
  7  5  1  0
  8 15  1  0
  8  7  1  0
  8  9  1  1
 10  9  1  0
 11 10  2  0
 12 11  1  0
 13 12  1  0
 13 14  2  0
 14 10  1  0
 15 17  1  0
 16 15  2  0
 17 18  1  0
 18 19  1  0
 19 20  1  0
 21 19  2  0
M  END
$$$$
