CSS.pdb
     RDKit          3D

 19 18  0  0  1  0  0  0  0  0999 V2000
    9.8571  -19.2076   20.4644 N   0  0  0  0  0  0  0  0  0  0  0  0
   10.8806  -18.7158   19.5893 C   0  0  1  0  0  0  0  0  0  0  0  0
   10.2437  -18.0725   18.3760 C   0  0  0  0  0  0  0  0  0  0  0  0
    8.8718  -19.0535   17.7355 S   0  0  0  0  0  0  0  0  0  0  0  0
   11.6971  -17.7113   20.3054 C   0  0  0  0  0  0  0  0  0  0  0  0
   12.6594  -17.1473   19.7120 O   0  0  0  0  0  0  0  0  0  0  0  0
   10.9126  -16.5622   24.3876 O   0  0  0  0  0  0  0  0  0  0  0  0
   11.3579  -15.6536   23.4360 C   0  0  0  0  0  0  0  0  0  0  0  0
   12.2023  -16.3738   22.3797 C   0  0  2  0  0  0  0  0  0  0  0  0
   11.4277  -17.3541   21.6654 N   0  0  0  0  0  0  0  0  0  0  0  0
   13.4261  -16.9437   22.9808 C   0  0  0  0  0  0  0  0  0  0  0  0
   13.3657  -18.0534   23.5695 O   0  0  0  0  0  0  0  0  0  0  0  0
   17.1426  -15.4259   22.1573 O   0  0  0  0  0  0  0  0  0  0  0  0
   17.0393  -16.7743   22.5425 C   0  0  0  0  0  0  0  0  0  0  0  0
   15.8746  -16.8826   23.5309 C   0  0  2  0  0  0  0  0  0  0  0  0
   14.6906  -16.3076   22.9364 N   0  0  0  0  0  0  0  0  0  0  0  0
   16.2868  -16.2024   24.7613 C   0  0  0  0  0  0  0  0  0  0  0  0
   17.3694  -16.6511   25.5017 O   0  0  0  0  0  0  0  0  0  0  0  0
   15.6694  -15.1943   25.1774 O   0  0  0  0  0  0  0  0  0  0  0  0
  2  3  1  0
  2  1  1  1
  3  4  1  0
  5  6  2  0
  5  2  1  0
  7  8  1  0
  9  8  1  1
  9 10  1  0
 10  5  1  0
 11  9  1  0
 11 12  2  0
 13 14  1  0
 15 14  1  6
 15 16  1  0
 16 11  1  0
 17 15  1  0
 18 17  1  0
 19 17  2  0
M  END
$$$$
