CSS.pdb
     RDKit          3D

 19 18  0  0  1  0  0  0  0  0999 V2000
    9.9800  -17.2224   17.8885 N   0  0  0  0  0  0  0  0  0  0  0  0
    9.1317  -16.9253   19.0052 C   0  0  1  0  0  0  0  0  0  0  0  0
    8.4443  -18.1913   19.4703 C   0  0  0  0  0  0  0  0  0  0  0  0
    9.6144  -19.3783   20.1610 S   0  0  0  0  0  0  0  0  0  0  0  0
    9.9490  -16.3767   20.1097 C   0  0  0  0  0  0  0  0  0  0  0  0
   11.1994  -16.2642   19.9682 O   0  0  0  0  0  0  0  0  0  0  0  0
    8.3211  -15.5266   23.9997 O   0  0  0  0  0  0  0  0  0  0  0  0
    9.2585  -14.6719   23.4338 C   0  0  0  0  0  0  0  0  0  0  0  0
   10.1364  -15.4413   22.4413 C   0  0  2  0  0  0  0  0  0  0  0  0
    9.3604  -15.9647   21.3480 N   0  0  0  0  0  0  0  0  0  0  0  0
   10.9231  -16.4848   23.1313 C   0  0  0  0  0  0  0  0  0  0  0  0
   10.5135  -17.6739   23.1224 O   0  0  0  0  0  0  0  0  0  0  0  0
   14.7605  -15.7762   24.2977 O   0  0  0  0  0  0  0  0  0  0  0  0
   14.3914  -17.1010   24.0046 C   0  0  0  0  0  0  0  0  0  0  0  0
   12.9276  -17.2736   24.4201 C   0  0  2  0  0  0  0  0  0  0  0  0
   12.1350  -16.2275   23.8172 N   0  0  0  0  0  0  0  0  0  0  0  0
   12.8882  -17.2514   25.8845 C   0  0  0  0  0  0  0  0  0  0  0  0
   13.5736  -18.1935   26.6357 O   0  0  0  0  0  0  0  0  0  0  0  0
   12.2320  -16.3774   26.4976 O   0  0  0  0  0  0  0  0  0  0  0  0
  2  3  1  0
  2  1  1  6
  3  4  1  0
  5  6  2  0
  5  2  1  0
  7  8  1  0
  9  8  1  1
  9 10  1  0
 10  5  1  0
 11  9  1  0
 11 12  2  0
 13 14  1  0
 15 14  1  1
 15 16  1  0
 16 11  1  0
 17 15  1  0
 18 17  1  0
 19 17  2  0
M  END
$$$$
