CSS.pdb
     RDKit          3D

 19 18  0  0  1  0  0  0  0  0999 V2000
    8.8566  -17.4665   16.2258 N   0  0  0  0  0  0  0  0  0  0  0  0
    8.2766  -17.8543   17.4781 C   0  0  1  0  0  0  0  0  0  0  0  0
    8.6087  -19.3034   17.7632 C   0  0  0  0  0  0  0  0  0  0  0  0
    8.0259  -19.8205   19.3904 S   0  0  0  0  0  0  0  0  0  0  0  0
    8.8256  -17.0038   18.5570 C   0  0  0  0  0  0  0  0  0  0  0  0
   10.0563  -16.7180   18.5652 O   0  0  0  0  0  0  0  0  0  0  0  0
    6.5971  -15.9754   22.0719 O   0  0  0  0  0  0  0  0  0  0  0  0
    7.3741  -15.0019   21.4574 C   0  0  0  0  0  0  0  0  0  0  0  0
    8.5077  -15.6605   20.6644 C   0  0  2  0  0  0  0  0  0  0  0  0
    7.9964  -16.4886   19.6043 N   0  0  0  0  0  0  0  0  0  0  0  0
    9.4262  -16.3897   21.5634 C   0  0  0  0  0  0  0  0  0  0  0  0
    9.2445  -17.6172   21.7683 O   0  0  0  0  0  0  0  0  0  0  0  0
   13.6314  -16.5843   23.9021 O   0  0  0  0  0  0  0  0  0  0  0  0
   12.6988  -15.7241   23.2957 C   0  0  0  0  0  0  0  0  0  0  0  0
   11.3981  -16.5114   23.1120 C   0  0  2  0  0  0  0  0  0  0  0  0
   10.5222  -15.7832   22.2240 N   0  0  0  0  0  0  0  0  0  0  0  0
   10.8239  -16.7149   24.4444 C   0  0  0  0  0  0  0  0  0  0  0  0
    9.7076  -16.0065   24.8611 O   0  0  0  0  0  0  0  0  0  0  0  0
   11.3287  -17.5372   25.2442 O   0  0  0  0  0  0  0  0  0  0  0  0
  2  3  1  0
  2  1  1  6
  3  4  1  0
  5  6  2  0
  5  2  1  0
  7  8  1  0
  9  8  1  1
  9 10  1  0
 10  5  1  0
 11  9  1  0
 11 12  2  0
 13 14  1  0
 15 14  1  1
 15 16  1  0
 16 11  1  0
 17 15  1  0
 18 17  1  0
 19 17  2  0
M  END
$$$$
