CSS.pdb
     RDKit          3D

 19 18  0  0  1  0  0  0  0  0999 V2000
    8.1973  -13.0292   17.1173 N   0  0  0  0  0  0  0  0  0  0  0  0
    8.0026  -14.2912   17.7689 C   0  0  1  0  0  0  0  0  0  0  0  0
    8.7806  -15.3643   17.0377 C   0  0  0  0  0  0  0  0  0  0  0  0
    7.9819  -15.8402   15.4916 S   0  0  0  0  0  0  0  0  0  0  0  0
    8.4838  -14.2016   19.1650 C   0  0  0  0  0  0  0  0  0  0  0  0
    9.5981  -13.6593   19.4104 O   0  0  0  0  0  0  0  0  0  0  0  0
    6.5354  -16.2227   22.4361 O   0  0  0  0  0  0  0  0  0  0  0  0
    7.0575  -14.9479   22.6135 C   0  0  0  0  0  0  0  0  0  0  0  0
    8.1953  -14.7048   21.6166 C   0  0  2  0  0  0  0  0  0  0  0  0
    7.7172  -14.7163   20.2592 N   0  0  0  0  0  0  0  0  0  0  0  0
    9.3032  -15.6575   21.8376 C   0  0  0  0  0  0  0  0  0  0  0  0
    9.4447  -16.6321   21.0554 O   0  0  0  0  0  0  0  0  0  0  0  0
   13.6743  -16.7129   22.9660 O   0  0  0  0  0  0  0  0  0  0  0  0
   12.6547  -15.7448   22.9398 C   0  0  0  0  0  0  0  0  0  0  0  0
   11.3190  -16.4792   23.0877 C   0  0  2  0  0  0  0  0  0  0  0  0
   10.2367  -15.5421   22.8962 N   0  0  0  0  0  0  0  0  0  0  0  0
   11.3117  -17.1006   24.4144 C   0  0  0  0  0  0  0  0  0  0  0  0
   12.1706  -18.1438   24.7235 O   0  0  0  0  0  0  0  0  0  0  0  0
   10.5263  -16.7038   25.3068 O   0  0  0  0  0  0  0  0  0  0  0  0
  2  3  1  0
  2  1  1  6
  3  4  1  0
  5  6  2  0
  5  2  1  0
  7  8  1  0
  9  8  1  1
  9 10  1  0
 10  5  1  0
 11  9  1  0
 11 12  2  0
 13 14  1  0
 15 14  1  1
 15 16  1  0
 16 11  1  0
 17 15  1  0
 18 17  1  0
 19 17  2  0
M  END
$$$$
