CSS.pdb
     RDKit          3D

 19 18  0  0  1  0  0  0  0  0999 V2000
    8.2315  -12.9496   17.0331 N   0  0  0  0  0  0  0  0  0  0  0  0
    7.9995  -14.1691   17.7501 C   0  0  1  0  0  0  0  0  0  0  0  0
    8.5840  -15.3311   16.9760 C   0  0  0  0  0  0  0  0  0  0  0  0
    7.3397  -16.1643   15.9698 S   0  0  0  0  0  0  0  0  0  0  0  0
    8.6476  -14.0883   19.0775 C   0  0  0  0  0  0  0  0  0  0  0  0
    9.7969  -13.5743   19.1838 O   0  0  0  0  0  0  0  0  0  0  0  0
    6.7506  -15.5436   22.6494 O   0  0  0  0  0  0  0  0  0  0  0  0
    7.6103  -14.4532   22.6797 C   0  0  0  0  0  0  0  0  0  0  0  0
    8.6401  -14.5671   21.5509 C   0  0  2  0  0  0  0  0  0  0  0  0
    8.0058  -14.5801   20.2591 N   0  0  0  0  0  0  0  0  0  0  0  0
    9.5270  -15.7304   21.7610 C   0  0  0  0  0  0  0  0  0  0  0  0
    9.2898  -16.8054   21.1528 O   0  0  0  0  0  0  0  0  0  0  0  0
   13.2888  -15.4347   23.0455 O   0  0  0  0  0  0  0  0  0  0  0  0
   12.8813  -16.6628   22.4950 C   0  0  0  0  0  0  0  0  0  0  0  0
   11.4272  -16.8957   22.9153 C   0  0  2  0  0  0  0  0  0  0  0  0
   10.6515  -15.7134   22.6215 N   0  0  0  0  0  0  0  0  0  0  0  0
   11.4380  -17.2352   24.3405 C   0  0  0  0  0  0  0  0  0  0  0  0
   12.1150  -18.3511   24.8077 O   0  0  0  0  0  0  0  0  0  0  0  0
   10.8338  -16.5234   25.1764 O   0  0  0  0  0  0  0  0  0  0  0  0
  2  3  1  0
  2  1  1  6
  3  4  1  0
  5  6  2  0
  5  2  1  0
  7  8  1  0
  9  8  1  1
  9 10  1  0
 10  5  1  0
 11  9  1  0
 11 12  2  0
 13 14  1  0
 15 14  1  1
 15 16  1  0
 16 11  1  0
 17 15  1  0
 18 17  1  0
 19 17  2  0
M  END
$$$$
