IIK.pdb
     RDKit          3D

 26 25  0  0  1  0  0  0  0  0999 V2000
    6.0934  -22.0395   25.4683 C   0  0  0  0  0  0  0  0  0  0  0  0
    5.3234  -20.7867   25.1455 C   0  0  0  0  0  0  0  0  0  0  0  0
    6.2532  -19.6188   24.8667 C   0  0  2  0  0  0  0  0  0  0  0  0
    7.3071  -19.4847   25.9144 C   0  0  0  0  0  0  0  0  0  0  0  0
    5.4261  -18.3368   24.6953 C   0  0  2  0  0  0  0  0  0  0  0  0
    4.6122  -18.6170   23.4915 N   0  0  0  0  0  0  0  0  0  0  0  0
    6.3080  -17.1886   24.3531 C   0  0  0  0  0  0  0  0  0  0  0  0
    6.7703  -17.1127   23.1748 O   0  0  0  0  0  0  0  0  0  0  0  0
    5.6606  -12.4588   26.7675 C   0  0  0  0  0  0  0  0  0  0  0  0
    6.0778  -13.3676   25.6108 C   0  0  0  0  0  0  0  0  0  0  0  0
    7.3877  -14.0233   25.8838 C   0  0  2  0  0  0  0  0  0  0  0  0
    8.4995  -12.9977   25.9529 C   0  0  0  0  0  0  0  0  0  0  0  0
    7.6987  -15.1616   24.9798 C   0  0  2  0  0  0  0  0  0  0  0  0
    6.6561  -16.1779   25.2703 N   0  0  0  0  0  0  0  0  0  0  0  0
    9.0241  -15.7522   25.0609 C   0  0  0  0  0  0  0  0  0  0  0  0
    9.4189  -16.4412   26.0685 O   0  0  0  0  0  0  0  0  0  0  0  0
    9.9901  -15.6240   24.0318 N   0  0  0  0  0  0  0  0  0  0  0  0
   11.1126  -16.5816   23.9062 C   0  0  1  0  0  0  0  0  0  0  0  0
   11.4245  -16.7805   22.4466 C   0  0  0  0  0  0  0  0  0  0  0  0
   12.5763  -17.7019   22.1794 C   0  0  0  0  0  0  0  0  0  0  0  0
   12.7726  -17.8576   20.6596 C   0  0  0  0  0  0  0  0  0  0  0  0
   13.7911  -18.9657   20.4104 C   0  0  0  0  0  0  0  0  0  0  0  0
   14.0345  -19.0633   18.9913 N   0  0  0  0  0  0  0  0  0  0  0  0
   12.2545  -16.1590   24.7109 C   0  0  0  0  0  0  0  0  0  0  0  0
   12.2846  -14.8979   25.3003 O   0  0  0  0  0  0  0  0  0  0  0  0
   13.2463  -16.8943   24.9086 O   0  0  0  0  0  0  0  0  0  0  0  0
  2  1  1  0
  3  5  1  0
  3  2  1  0
  3  4  1  1
  5  6  1  6
  7  5  1  0
  7  8  2  0
 10  9  1  0
 11 10  1  0
 11 13  1  0
 11 12  1  6
 13 14  1  1
 14  7  1  0
 15 13  1  0
 15 17  1  0
 16 15  2  0
 18 17  1  0
 18 24  1  0
 18 19  1  6
 20 19  1  0
 21 22  1  0
 21 20  1  0
 22 23  1  0
 24 25  1  0
 26 24  2  0
M  END
$$$$
