IIK.pdb
     RDKit          3D

 26 25  0  0  1  0  0  0  0  0999 V2000
    7.6487  -11.6767   20.1016 C   0  0  0  0  0  0  0  0  0  0  0  0
    7.5367  -12.8694   21.0135 C   0  0  0  0  0  0  0  0  0  0  0  0
    8.0884  -14.1236   20.3586 C   0  0  2  0  0  0  0  0  0  0  0  0
    7.4701  -14.3717   19.0235 C   0  0  0  0  0  0  0  0  0  0  0  0
    7.9240  -15.3136   21.3146 C   0  0  2  0  0  0  0  0  0  0  0  0
    6.4575  -15.4071   21.4903 N   0  0  0  0  0  0  0  0  0  0  0  0
    8.4915  -14.9914   22.6514 C   0  0  0  0  0  0  0  0  0  0  0  0
    9.7413  -14.8000   22.7466 O   0  0  0  0  0  0  0  0  0  0  0  0
    5.7862  -11.8943   25.9795 C   0  0  0  0  0  0  0  0  0  0  0  0
    6.9452  -12.5793   25.2547 C   0  0  0  0  0  0  0  0  0  0  0  0
    7.3032  -13.8703   25.9069 C   0  0  2  0  0  0  0  0  0  0  0  0
    7.6713  -13.6558   27.3599 C   0  0  0  0  0  0  0  0  0  0  0  0
    8.3103  -14.6702   25.1614 C   0  0  2  0  0  0  0  0  0  0  0  0
    7.7119  -14.8857   23.8198 N   0  0  0  0  0  0  0  0  0  0  0  0
    8.7382  -15.9335   25.7385 C   0  0  0  0  0  0  0  0  0  0  0  0
    7.9363  -16.9146   25.9389 O   0  0  0  0  0  0  0  0  0  0  0  0
   10.0779  -16.1920   26.1219 N   0  0  0  0  0  0  0  0  0  0  0  0
   10.4846  -17.5119   26.6559 C   0  0  1  0  0  0  0  0  0  0  0  0
   11.5761  -18.0762   25.7856 C   0  0  0  0  0  0  0  0  0  0  0  0
   12.0706  -19.4262   26.2097 C   0  0  0  0  0  0  0  0  0  0  0  0
   13.2519  -19.8487   25.3160 C   0  0  0  0  0  0  0  0  0  0  0  0
   13.6340  -21.2852   25.6595 C   0  0  0  0  0  0  0  0  0  0  0  0
   14.5670  -21.7677   24.6700 N   0  0  0  0  0  0  0  0  0  0  0  0
   10.8330  -17.4202   28.0702 C   0  0  0  0  0  0  0  0  0  0  0  0
   10.9297  -18.5647   28.8572 O   0  0  0  0  0  0  0  0  0  0  0  0
   11.0580  -16.3288   28.6375 O   0  0  0  0  0  0  0  0  0  0  0  0
  2  1  1  0
  3  5  1  0
  3  2  1  0
  3  4  1  6
  5  6  1  1
  7  5  1  0
  7  8  2  0
 10  9  1  0
 11 10  1  0
 11 13  1  0
 11 12  1  1
 13 14  1  6
 14  7  1  0
 15 13  1  0
 15 17  1  0
 16 15  2  0
 18 17  1  0
 18 24  1  0
 18 19  1  6
 20 19  1  0
 21 22  1  0
 21 20  1  0
 22 23  1  0
 24 25  1  0
 26 24  2  0
M  END
$$$$
