IIK.pdb
     RDKit          3D

 26 25  0  0  1  0  0  0  0  0999 V2000
    9.5357  -21.5934   26.4799 C   0  0  0  0  0  0  0  0  0  0  0  0
    8.8708  -20.4816   27.2469 C   0  0  0  0  0  0  0  0  0  0  0  0
    8.3431  -19.4029   26.3173 C   0  0  2  0  0  0  0  0  0  0  0  0
    9.3928  -18.9207   25.3728 C   0  0  0  0  0  0  0  0  0  0  0  0
    7.7313  -18.2665   27.1486 C   0  0  2  0  0  0  0  0  0  0  0  0
    6.5559  -18.9047   27.7819 N   0  0  0  0  0  0  0  0  0  0  0  0
    7.2050  -17.1953   26.2605 C   0  0  0  0  0  0  0  0  0  0  0  0
    6.1936  -17.4513   25.5398 O   0  0  0  0  0  0  0  0  0  0  0  0
    6.8493  -12.1487   27.7882 C   0  0  0  0  0  0  0  0  0  0  0  0
    6.5149  -13.4086   26.9892 C   0  0  0  0  0  0  0  0  0  0  0  0
    7.4601  -13.5948   25.8525 C   0  0  2  0  0  0  0  0  0  0  0  0
    7.3940  -12.4201   24.8992 C   0  0  0  0  0  0  0  0  0  0  0  0
    7.3388  -14.9092   25.1689 C   0  0  2  0  0  0  0  0  0  0  0  0
    7.7708  -15.9079   26.1789 N   0  0  0  0  0  0  0  0  0  0  0  0
    8.0627  -15.0971   23.9228 C   0  0  0  0  0  0  0  0  0  0  0  0
    9.3112  -15.3890   23.8800 O   0  0  0  0  0  0  0  0  0  0  0  0
    7.4502  -14.9818   22.6499 N   0  0  0  0  0  0  0  0  0  0  0  0
    8.2150  -15.2162   21.4037 C   0  0  1  0  0  0  0  0  0  0  0  0
    7.7191  -14.2719   20.3408 C   0  0  0  0  0  0  0  0  0  0  0  0
    8.5007  -14.3129   19.0624 C   0  0  0  0  0  0  0  0  0  0  0  0
    7.8672  -13.3533   18.0376 C   0  0  0  0  0  0  0  0  0  0  0  0
    8.6340  -13.4673   16.7237 C   0  0  0  0  0  0  0  0  0  0  0  0
    8.1936  -12.4186   15.8355 N   0  0  0  0  0  0  0  0  0  0  0  0
    9.6518  -15.1416   21.6487 C   0  0  0  0  0  0  0  0  0  0  0  0
   10.5197  -16.0800   21.0968 O   0  0  0  0  0  0  0  0  0  0  0  0
   10.1676  -14.2475   22.3544 O   0  0  0  0  0  0  0  0  0  0  0  0
  2  1  1  0
  3  5  1  0
  3  2  1  0
  3  4  1  1
  5  6  1  6
  7  5  1  0
  7  8  2  0
 10  9  1  0
 11 10  1  0
 11 13  1  0
 11 12  1  6
 13 14  1  1
 14  7  1  0
 15 13  1  0
 15 17  1  0
 16 15  2  0
 18 17  1  0
 18 24  1  0
 18 19  1  6
 20 19  1  0
 21 22  1  0
 21 20  1  0
 22 23  1  0
 24 25  1  0
 26 24  2  0
M  END
$$$$
