IIK.pdb
     RDKit          3D

 26 25  0  0  1  0  0  0  0  0999 V2000
    7.1011  -18.5211   19.4144 C   0  0  0  0  0  0  0  0  0  0  0  0
    6.9396  -17.0695   19.7797 C   0  0  0  0  0  0  0  0  0  0  0  0
    7.6542  -16.7403   21.0787 C   0  0  2  0  0  0  0  0  0  0  0  0
    7.3717  -17.7502   22.1401 C   0  0  0  0  0  0  0  0  0  0  0  0
    7.2932  -15.3126   21.5127 C   0  0  2  0  0  0  0  0  0  0  0  0
    7.7927  -14.4819   20.3945 N   0  0  0  0  0  0  0  0  0  0  0  0
    8.0754  -14.9192   22.7154 C   0  0  0  0  0  0  0  0  0  0  0  0
    9.3274  -14.7581   22.5952 O   0  0  0  0  0  0  0  0  0  0  0  0
    6.1023  -11.5449   26.2564 C   0  0  0  0  0  0  0  0  0  0  0  0
    7.1446  -12.3017   25.4326 C   0  0  0  0  0  0  0  0  0  0  0  0
    7.4887  -13.6069   26.0638 C   0  0  2  0  0  0  0  0  0  0  0  0
    8.0770  -13.3995   27.4435 C   0  0  0  0  0  0  0  0  0  0  0  0
    8.3118  -14.4995   25.2061 C   0  0  2  0  0  0  0  0  0  0  0  0
    7.4974  -14.7142   23.9835 N   0  0  0  0  0  0  0  0  0  0  0  0
    8.7416  -15.7712   25.7632 C   0  0  0  0  0  0  0  0  0  0  0  0
    7.9199  -16.6968   26.1008 O   0  0  0  0  0  0  0  0  0  0  0  0
   10.1039  -16.1001   25.9738 N   0  0  0  0  0  0  0  0  0  0  0  0
   10.5028  -17.4223   26.5081 C   0  0  1  0  0  0  0  0  0  0  0  0
   11.7138  -17.9082   25.7567 C   0  0  0  0  0  0  0  0  0  0  0  0
   12.3268  -19.1583   26.3120 C   0  0  0  0  0  0  0  0  0  0  0  0
   13.6276  -19.4786   25.5519 C   0  0  0  0  0  0  0  0  0  0  0  0
   14.1597  -20.8224   26.0402 C   0  0  0  0  0  0  0  0  0  0  0  0
   15.3792  -21.1256   25.3307 N   0  0  0  0  0  0  0  0  0  0  0  0
   10.6766  -17.3714   27.9563 C   0  0  0  0  0  0  0  0  0  0  0  0
   10.6754  -18.5377   28.7168 O   0  0  0  0  0  0  0  0  0  0  0  0
   10.8322  -16.2973   28.5772 O   0  0  0  0  0  0  0  0  0  0  0  0
  2  1  1  0
  3  5  1  0
  3  2  1  0
  3  4  1  1
  5  6  1  6
  7  5  1  0
  7  8  2  0
 10  9  1  0
 11 10  1  0
 11 13  1  0
 11 12  1  1
 13 14  1  6
 14  7  1  0
 15 13  1  0
 15 17  1  0
 16 15  2  0
 18 17  1  0
 18 24  1  0
 18 19  1  6
 20 19  1  0
 21 22  1  0
 21 20  1  0
 22 23  1  0
 24 25  1  0
 26 24  2  0
M  END
$$$$
