KCP.pdb
     RDKit          3D

 23 23  0  0  1  0  0  0  0  0999 V2000
    7.7162  -16.1127   20.1349 N   0  0  0  0  0  0  0  0  0  0  0  0
    8.4009  -15.0129   20.7959 C   0  0  1  0  0  0  0  0  0  0  0  0
    8.1147  -13.7248   20.1011 C   0  0  0  0  0  0  0  0  0  0  0  0
    7.8305  -13.6882   18.6728 C   0  0  0  0  0  0  0  0  0  0  0  0
    8.8831  -13.6595   17.6423 C   0  0  0  0  0  0  0  0  0  0  0  0
    8.5273  -13.7040   16.2101 C   0  0  0  0  0  0  0  0  0  0  0  0
    9.7673  -13.6659   15.3958 N   0  0  0  0  0  0  0  0  0  0  0  0
    7.8457  -14.8618   22.1984 C   0  0  0  0  0  0  0  0  0  0  0  0
    7.0416  -13.9364   22.4640 O   0  0  0  0  0  0  0  0  0  0  0  0
    8.1962  -15.7345   23.2547 N   0  0  0  0  0  0  0  0  0  0  0  0
    7.8131  -15.5010   24.6348 C   0  0  1  0  0  0  0  0  0  0  0  0
    6.8032  -16.5406   25.0941 C   0  0  0  0  0  0  0  0  0  0  0  0
    7.5006  -18.2188   24.9247 S   0  0  0  0  0  0  0  0  0  0  0  0
    9.0151  -15.6556   25.4799 C   0  0  0  0  0  0  0  0  0  0  0  0
   10.0549  -16.1283   24.8931 O   0  0  0  0  0  0  0  0  0  0  0  0
    9.0693  -15.3167   26.8590 N   0  0  0  0  0  0  0  0  0  0  0  0
    8.0149  -14.9238   27.7398 C   0  0  0  0  0  0  0  0  0  0  0  0
    8.6953  -13.8885   28.6421 C   0  0  0  0  0  0  0  0  0  0  0  0
   10.1761  -14.0005   28.3728 C   0  0  0  0  0  0  0  0  0  0  0  0
   10.2770  -15.3227   27.6442 C   0  0  1  0  0  0  0  0  0  0  0  0
   10.2975  -16.3978   28.6723 C   0  0  0  0  0  0  0  0  0  0  0  0
    9.3443  -17.1832   28.9010 O   0  0  0  0  0  0  0  0  0  0  0  0
   11.4346  -16.5709   29.4494 O   0  0  0  0  0  0  0  0  0  0  0  0
  2  1  1  6
  2  3  1  0
  4  3  1  0
  5  4  1  0
  6  7  1  0
  6  5  1  0
  8 10  1  0
  8  2  1  0
  9  8  2  0
 11 10  1  0
 12 13  1  0
 11 12  1  1
 14 11  1  0
 14 15  2  0
 16 14  1  0
 17 18  1  0
 17 16  1  0
 18 19  1  0
 20 16  1  0
 20 19  1  0
 20 21  1  1
 22 21  2  0
 23 21  1  0
M  END
$$$$
