KCP.pdb
     RDKit          3D

 23 23  0  0  1  0  0  0  0  0999 V2000
    7.0327  -18.1480   20.0828 N   0  0  0  0  0  0  0  0  0  0  0  0
    8.2126  -17.8354   20.8737 C   0  0  1  0  0  0  0  0  0  0  0  0
    9.1738  -17.0177   20.0792 C   0  0  0  0  0  0  0  0  0  0  0  0
   10.1294  -17.6467   19.1771 C   0  0  0  0  0  0  0  0  0  0  0  0
   10.3174  -17.2221   17.7789 C   0  0  0  0  0  0  0  0  0  0  0  0
   11.2444  -17.9554   16.8941 C   0  0  0  0  0  0  0  0  0  0  0  0
   11.1383  -17.4137   15.5166 N   0  0  0  0  0  0  0  0  0  0  0  0
    7.8006  -16.9695   22.0478 C   0  0  0  0  0  0  0  0  0  0  0  0
    7.0140  -16.0071   21.8786 O   0  0  0  0  0  0  0  0  0  0  0  0
    8.2696  -17.1956   23.3628 N   0  0  0  0  0  0  0  0  0  0  0  0
    7.7533  -16.4883   24.5201 C   0  0  1  0  0  0  0  0  0  0  0  0
    6.8864  -17.4065   25.3668 C   0  0  0  0  0  0  0  0  0  0  0  0
    5.6616  -18.2640   24.3199 S   0  0  0  0  0  0  0  0  0  0  0  0
    8.8985  -16.0740   25.3564 C   0  0  0  0  0  0  0  0  0  0  0  0
   10.0502  -16.4976   24.9781 O   0  0  0  0  0  0  0  0  0  0  0  0
    8.7862  -15.2585   26.5150 N   0  0  0  0  0  0  0  0  0  0  0  0
    7.6189  -14.7079   27.1283 C   0  0  0  0  0  0  0  0  0  0  0  0
    8.1085  -13.3427   27.6237 C   0  0  0  0  0  0  0  0  0  0  0  0
    9.6126  -13.3617   27.4989 C   0  0  0  0  0  0  0  0  0  0  0  0
    9.9069  -14.8343   27.3146 C   0  0  1  0  0  0  0  0  0  0  0  0
    9.9273  -15.4574   28.6653 C   0  0  0  0  0  0  0  0  0  0  0  0
    9.0283  -16.2096   29.1165 O   0  0  0  0  0  0  0  0  0  0  0  0
   11.0008  -15.2099   29.5097 O   0  0  0  0  0  0  0  0  0  0  0  0
  2  1  1  6
  2  3  1  0
  4  3  1  0
  5  4  1  0
  6  7  1  0
  6  5  1  0
  8 10  1  0
  8  2  1  0
  9  8  2  0
 11 10  1  0
 12 13  1  0
 11 12  1  1
 14 11  1  0
 14 15  2  0
 16 14  1  0
 17 18  1  0
 17 16  1  0
 18 19  1  0
 20 16  1  0
 20 19  1  0
 20 21  1  1
 22 21  2  0
 23 21  1  0
M  END
$$$$
