KCP.pdb
     RDKit          3D

 23 23  0  0  1  0  0  0  0  0999 V2000
    8.5513  -15.9866   20.5497 N   0  0  0  0  0  0  0  0  0  0  0  0
    8.9433  -14.6338   20.9122 C   0  0  1  0  0  0  0  0  0  0  0  0
    8.1306  -13.6342   20.1611 C   0  0  0  0  0  0  0  0  0  0  0  0
    8.4134  -13.3324   18.7642 C   0  0  0  0  0  0  0  0  0  0  0  0
    7.6366  -13.8939   17.6453 C   0  0  0  0  0  0  0  0  0  0  0  0
    7.9681  -13.5351   16.2520 C   0  0  0  0  0  0  0  0  0  0  0  0
    6.9758  -14.1529   15.3377 N   0  0  0  0  0  0  0  0  0  0  0  0
    8.6294  -14.4086   22.3781 C   0  0  0  0  0  0  0  0  0  0  0  0
    8.8765  -13.3022   22.9150 O   0  0  0  0  0  0  0  0  0  0  0  0
    8.0559  -15.4090   23.1969 N   0  0  0  0  0  0  0  0  0  0  0  0
    7.8133  -15.2277   24.6161 C   0  0  1  0  0  0  0  0  0  0  0  0
    6.7333  -16.1812   25.1015 C   0  0  0  0  0  0  0  0  0  0  0  0
    6.7280  -16.2566   26.9252 S   0  0  0  0  0  0  0  0  0  0  0  0
    9.0543  -15.5657   25.3432 C   0  0  0  0  0  0  0  0  0  0  0  0
    9.8468  -16.3824   24.7483 O   0  0  0  0  0  0  0  0  0  0  0  0
    9.3965  -15.0464   26.6211 N   0  0  0  0  0  0  0  0  0  0  0  0
    8.6603  -14.1627   27.4691 C   0  0  0  0  0  0  0  0  0  0  0  0
    9.7616  -13.3061   28.1034 C   0  0  0  0  0  0  0  0  0  0  0  0
   11.0688  -13.9835   27.7711 C   0  0  0  0  0  0  0  0  0  0  0  0
   10.6200  -15.3549   27.3159 C   0  0  1  0  0  0  0  0  0  0  0  0
   10.4052  -16.1810   28.5343 C   0  0  0  0  0  0  0  0  0  0  0  0
   11.2712  -16.3800   29.4220 O   0  0  0  0  0  0  0  0  0  0  0  0
    9.1726  -16.7876   28.7332 O   0  0  0  0  0  0  0  0  0  0  0  0
  2  1  1  6
  2  3  1  0
  4  3  1  0
  5  4  1  0
  6  7  1  0
  6  5  1  0
  8 10  1  0
  8  2  1  0
  9  8  2  0
 11 10  1  0
 12 13  1  0
 11 12  1  1
 14 11  1  0
 14 15  2  0
 16 14  1  0
 17 18  1  0
 17 16  1  0
 18 19  1  0
 20 16  1  0
 20 19  1  0
 20 21  1  1
 22 21  2  0
 23 21  1  0
M  END
$$$$
