KCP.pdb
     RDKit          3D

 23 23  0  0  1  0  0  0  0  0999 V2000
    9.5710  -15.4881   20.4890 N   0  0  0  0  0  0  0  0  0  0  0  0
    8.9181  -16.1788   21.5900 C   0  0  1  0  0  0  0  0  0  0  0  0
    9.6187  -17.4599   21.8932 C   0  0  0  0  0  0  0  0  0  0  0  0
    9.0370  -18.7418   21.5180 C   0  0  0  0  0  0  0  0  0  0  0  0
    7.7532  -18.8665   20.8061 C   0  0  0  0  0  0  0  0  0  0  0  0
    7.1995  -20.1990   20.4929 C   0  0  0  0  0  0  0  0  0  0  0  0
    8.0203  -20.8334   19.4317 N   0  0  0  0  0  0  0  0  0  0  0  0
    9.0396  -15.3316   22.8412 C   0  0  0  0  0  0  0  0  0  0  0  0
   10.1639  -14.9311   23.2272 O   0  0  0  0  0  0  0  0  0  0  0  0
    7.9196  -14.9575   23.6197 N   0  0  0  0  0  0  0  0  0  0  0  0
    8.0340  -14.2648   24.8897 C   0  0  1  0  0  0  0  0  0  0  0  0
    6.6634  -13.8459   25.3972 C   0  0  0  0  0  0  0  0  0  0  0  0
    6.7684  -13.3164   27.1408 S   0  0  0  0  0  0  0  0  0  0  0  0
    8.5980  -15.2057   25.8793 C   0  0  0  0  0  0  0  0  0  0  0  0
    8.5309  -16.4502   25.5701 O   0  0  0  0  0  0  0  0  0  0  0  0
    9.1892  -14.8096   27.1096 N   0  0  0  0  0  0  0  0  0  0  0  0
    8.9252  -13.6594   27.9153 C   0  0  0  0  0  0  0  0  0  0  0  0
   10.3122  -13.3019   28.4604 C   0  0  0  0  0  0  0  0  0  0  0  0
   11.2078  -14.4737   28.1398 C   0  0  0  0  0  0  0  0  0  0  0  0
   10.2135  -15.5594   27.7906 C   0  0  1  0  0  0  0  0  0  0  0  0
    9.7431  -16.1606   29.0674 C   0  0  0  0  0  0  0  0  0  0  0  0
   10.4712  -16.8055   29.8622 O   0  0  0  0  0  0  0  0  0  0  0  0
    8.4121  -16.0167   29.4345 O   0  0  0  0  0  0  0  0  0  0  0  0
  2  1  1  6
  2  3  1  0
  4  3  1  0
  5  4  1  0
  6  7  1  0
  6  5  1  0
  8 10  1  0
  8  2  1  0
  9  8  2  0
 11 10  1  0
 12 13  1  0
 11 12  1  1
 14 11  1  0
 14 15  2  0
 16 14  1  0
 17 18  1  0
 17 16  1  0
 18 19  1  0
 20 16  1  0
 20 19  1  0
 20 21  1  1
 22 21  2  0
 23 21  1  0
M  END
$$$$
