KCP.pdb
     RDKit          3D

 23 23  0  0  1  0  0  0  0  0999 V2000
    7.9848  -13.7385   20.3153 N   0  0  0  0  0  0  0  0  0  0  0  0
    7.7462  -14.7747   21.3076 C   0  0  1  0  0  0  0  0  0  0  0  0
    8.6079  -15.9624   21.0418 C   0  0  0  0  0  0  0  0  0  0  0  0
    8.0870  -17.1265   20.3374 C   0  0  0  0  0  0  0  0  0  0  0  0
    8.8950  -18.3257   20.0553 C   0  0  0  0  0  0  0  0  0  0  0  0
    8.2703  -19.5239   19.4603 C   0  0  0  0  0  0  0  0  0  0  0  0
    9.2860  -20.5997   19.3448 N   0  0  0  0  0  0  0  0  0  0  0  0
    8.1625  -14.2547   22.6693 C   0  0  0  0  0  0  0  0  0  0  0  0
    9.3100  -13.7780   22.8405 O   0  0  0  0  0  0  0  0  0  0  0  0
    7.3004  -14.2791   23.7903 N   0  0  0  0  0  0  0  0  0  0  0  0
    7.6853  -13.7763   25.0961 C   0  0  1  0  0  0  0  0  0  0  0  0
    6.4590  -13.3630   25.8941 C   0  0  0  0  0  0  0  0  0  0  0  0
    6.8973  -13.1229   27.6496 S   0  0  0  0  0  0  0  0  0  0  0  0
    8.3408  -14.8730   25.8379 C   0  0  0  0  0  0  0  0  0  0  0  0
    8.1764  -16.0517   25.3556 O   0  0  0  0  0  0  0  0  0  0  0  0
    9.1156  -14.6880   27.0150 N   0  0  0  0  0  0  0  0  0  0  0  0
    9.0350  -13.6587   28.0028 C   0  0  0  0  0  0  0  0  0  0  0  0
   10.5025  -13.4451   28.3901 C   0  0  0  0  0  0  0  0  0  0  0  0
   11.2714  -14.5943   27.7849 C   0  0  0  0  0  0  0  0  0  0  0  0
   10.1729  -15.5731   27.4320 C   0  0  1  0  0  0  0  0  0  0  0  0
    9.8413  -16.3350   28.6660 C   0  0  0  0  0  0  0  0  0  0  0  0
    8.7752  -16.2069   29.3176 O   0  0  0  0  0  0  0  0  0  0  0  0
   10.7528  -17.2596   29.1571 O   0  0  0  0  0  0  0  0  0  0  0  0
  2  1  1  6
  2  3  1  0
  4  3  1  0
  5  4  1  0
  6  7  1  0
  6  5  1  0
  8 10  1  0
  8  2  1  0
  9  8  2  0
 11 10  1  0
 12 13  1  0
 11 12  1  1
 14 11  1  0
 14 15  2  0
 16 14  1  0
 17 18  1  0
 17 16  1  0
 18 19  1  0
 20 16  1  0
 20 19  1  0
 20 21  1  1
 22 21  2  0
 23 21  1  0
M  END
$$$$
