KCP.pdb
     RDKit          3D

 23 23  0  0  1  0  0  0  0  0999 V2000
    4.4856  -20.3286   22.9858 N   0  0  0  0  0  0  0  0  0  0  0  0
    5.5945  -19.8550   23.7991 C   0  0  1  0  0  0  0  0  0  0  0  0
    6.8681  -20.5068   23.3784 C   0  0  0  0  0  0  0  0  0  0  0  0
    7.0210  -21.0647   22.0413 C   0  0  0  0  0  0  0  0  0  0  0  0
    8.2539  -21.7269   21.5807 C   0  0  0  0  0  0  0  0  0  0  0  0
    8.3682  -22.2073   20.1892 C   0  0  0  0  0  0  0  0  0  0  0  0
    9.6869  -22.8623   20.0040 N   0  0  0  0  0  0  0  0  0  0  0  0
    5.7847  -18.3714   23.5525 C   0  0  0  0  0  0  0  0  0  0  0  0
    5.3555  -17.8455   22.4977 O   0  0  0  0  0  0  0  0  0  0  0  0
    6.4399  -17.5235   24.4757 N   0  0  0  0  0  0  0  0  0  0  0  0
    6.7739  -16.1420   24.1827 C   0  0  1  0  0  0  0  0  0  0  0  0
    7.2885  -15.4390   25.4287 C   0  0  0  0  0  0  0  0  0  0  0  0
    7.9193  -13.7797   25.0046 S   0  0  0  0  0  0  0  0  0  0  0  0
    7.8692  -16.1325   23.1912 C   0  0  0  0  0  0  0  0  0  0  0  0
    8.5750  -17.2033   23.1265 O   0  0  0  0  0  0  0  0  0  0  0  0
    8.1639  -15.0341   22.3389 N   0  0  0  0  0  0  0  0  0  0  0  0
    7.7118  -13.6805   22.4128 C   0  0  0  0  0  0  0  0  0  0  0  0
    7.5514  -13.2959   20.9379 C   0  0  0  0  0  0  0  0  0  0  0  0
    8.2144  -14.3923   20.1401 C   0  0  0  0  0  0  0  0  0  0  0  0
    9.0300  -15.1137   21.1906 C   0  0  1  0  0  0  0  0  0  0  0  0
   10.2996  -14.3584   21.3657 C   0  0  0  0  0  0  0  0  0  0  0  0
   10.5808  -13.6610   22.3717 O   0  0  0  0  0  0  0  0  0  0  0  0
   11.2609  -14.4074   20.3654 O   0  0  0  0  0  0  0  0  0  0  0  0
  2  1  1  6
  2  3  1  0
  4  3  1  0
  5  4  1  0
  6  7  1  0
  6  5  1  0
  8 10  1  0
  8  2  1  0
  9  8  2  0
 11 10  1  0
 12 13  1  0
 11 12  1  1
 14 11  1  0
 14 15  2  0
 16 14  1  0
 17 18  1  0
 17 16  1  0
 18 19  1  0
 20 16  1  0
 20 19  1  0
 20 21  1  1
 22 21  2  0
 23 21  1  0
M  END
$$$$
