KCP.pdb
     RDKit          3D

 23 23  0  0  1  0  0  0  0  0999 V2000
    8.1544  -14.9576   20.5723 N   0  0  0  0  0  0  0  0  0  0  0  0
    8.4574  -15.8191   21.7043 C   0  0  1  0  0  0  0  0  0  0  0  0
    9.7466  -16.5362   21.4860 C   0  0  0  0  0  0  0  0  0  0  0  0
    9.8398  -17.6459   20.5467 C   0  0  0  0  0  0  0  0  0  0  0  0
    8.6632  -18.2658   19.9126 C   0  0  0  0  0  0  0  0  0  0  0  0
    8.8285  -19.3916   18.9717 C   0  0  0  0  0  0  0  0  0  0  0  0
    8.2782  -20.6264   19.5838 N   0  0  0  0  0  0  0  0  0  0  0  0
    8.6633  -14.9577   22.9346 C   0  0  0  0  0  0  0  0  0  0  0  0
    9.8160  -14.5855   23.2604 O   0  0  0  0  0  0  0  0  0  0  0  0
    7.5932  -14.5390   23.7592 N   0  0  0  0  0  0  0  0  0  0  0  0
    7.7885  -13.9433   25.0680 C   0  0  1  0  0  0  0  0  0  0  0  0
    6.4596  -13.5005   25.6592 C   0  0  0  0  0  0  0  0  0  0  0  0
    6.6700  -13.0339   27.4111 S   0  0  0  0  0  0  0  0  0  0  0  0
    8.3447  -14.9758   25.9666 C   0  0  0  0  0  0  0  0  0  0  0  0
    8.0940  -16.1930   25.6435 O   0  0  0  0  0  0  0  0  0  0  0  0
    9.1154  -14.6922   27.1266 N   0  0  0  0  0  0  0  0  0  0  0  0
    9.1202  -13.5249   27.9507 C   0  0  0  0  0  0  0  0  0  0  0  0
   10.5952  -13.3955   28.3462 C   0  0  0  0  0  0  0  0  0  0  0  0
   11.2577  -14.6889   27.9385 C   0  0  0  0  0  0  0  0  0  0  0  0
   10.0746  -15.6013   27.6998 C   0  0  1  0  0  0  0  0  0  0  0  0
    9.6511  -16.1373   29.0213 C   0  0  0  0  0  0  0  0  0  0  0  0
    8.5918  -15.8152   29.6145 O   0  0  0  0  0  0  0  0  0  0  0  0
   10.4611  -17.0594   29.6699 O   0  0  0  0  0  0  0  0  0  0  0  0
  2  1  1  6
  2  3  1  0
  4  3  1  0
  5  4  1  0
  6  7  1  0
  6  5  1  0
  8 10  1  0
  8  2  1  0
  9  8  2  0
 11 10  1  0
 12 13  1  0
 11 12  1  1
 14 11  1  0
 14 15  2  0
 16 14  1  0
 17 18  1  0
 17 16  1  0
 18 19  1  0
 20 16  1  0
 20 19  1  0
 20 21  1  1
 22 21  2  0
 23 21  1  0
M  END
$$$$
