KCP.pdb
     RDKit          3D

 23 23  0  0  1  0  0  0  0  0999 V2000
    0.7454  -26.5495   24.1768 N   0  0  0  0  0  0  0  0  0  0  0  0
    0.0492  -26.5340   25.4536 C   0  0  1  0  0  0  0  0  0  0  0  0
    0.8915  -25.8884   26.5013 C   0  0  0  0  0  0  0  0  0  0  0  0
    2.1302  -26.5059   26.9559 C   0  0  0  0  0  0  0  0  0  0  0  0
    2.1695  -27.6131   27.9270 C   0  0  0  0  0  0  0  0  0  0  0  0
    3.4585  -28.2171   28.3189 C   0  0  0  0  0  0  0  0  0  0  0  0
    4.2944  -27.1930   28.9932 N   0  0  0  0  0  0  0  0  0  0  0  0
   -1.1904  -25.6707   25.3257 C   0  0  0  0  0  0  0  0  0  0  0  0
   -1.1459  -24.5904   24.6899 O   0  0  0  0  0  0  0  0  0  0  0  0
   -2.4312  -26.0291   25.9022 N   0  0  0  0  0  0  0  0  0  0  0  0
   -3.6300  -25.2227   25.7658 C   0  0  1  0  0  0  0  0  0  0  0  0
   -4.8734  -26.0947   25.8352 C   0  0  0  0  0  0  0  0  0  0  0  0
   -6.3633  -25.0586   26.0309 S   0  0  0  0  0  0  0  0  0  0  0  0
   -3.6883  -24.2860   26.9069 C   0  0  0  0  0  0  0  0  0  0  0  0
   -3.1310  -24.6893   27.9911 O   0  0  0  0  0  0  0  0  0  0  0  0
   -4.3087  -23.0083   26.8589 N   0  0  0  0  0  0  0  0  0  0  0  0
   -5.0087  -22.3784   25.7841 C   0  0  0  0  0  0  0  0  0  0  0  0
   -4.6175  -20.9050   25.9423 C   0  0  0  0  0  0  0  0  0  0  0  0
   -3.9487  -20.7872   27.2902 C   0  0  0  0  0  0  0  0  0  0  0  0
   -4.3394  -22.0845   27.9637 C   0  0  1  0  0  0  0  0  0  0  0  0
   -5.7025  -21.8998   28.5303 C   0  0  0  0  0  0  0  0  0  0  0  0
   -6.7589  -22.3201   27.9966 O   0  0  0  0  0  0  0  0  0  0  0  0
   -5.8509  -21.2198   29.7314 O   0  0  0  0  0  0  0  0  0  0  0  0
  2  1  1  6
  2  3  1  0
  4  3  1  0
  5  4  1  0
  6  7  1  0
  6  5  1  0
  8 10  1  0
  8  2  1  0
  9  8  2  0
 11 10  1  0
 12 13  1  0
 11 12  1  1
 14 11  1  0
 14 15  2  0
 16 14  1  0
 17 18  1  0
 17 16  1  0
 18 19  1  0
 20 16  1  0
 20 19  1  0
 20 21  1  6
 22 21  2  0
 23 21  1  0
M  END
$$$$
