KCP.pdb
     RDKit          3D

 23 23  0  0  1  0  0  0  0  0999 V2000
    7.4495  -13.8990   20.4448 N   0  0  0  0  0  0  0  0  0  0  0  0
    7.6242  -14.9698   21.4134 C   0  0  1  0  0  0  0  0  0  0  0  0
    8.7260  -15.8821   20.9921 C   0  0  0  0  0  0  0  0  0  0  0  0
    8.4735  -17.0011   20.0940 C   0  0  0  0  0  0  0  0  0  0  0  0
    8.3091  -18.3884   20.5618 C   0  0  0  0  0  0  0  0  0  0  0  0
    8.0931  -19.4821   19.5937 C   0  0  0  0  0  0  0  0  0  0  0  0
    7.7485  -20.7250   20.3277 N   0  0  0  0  0  0  0  0  0  0  0  0
    8.0631  -14.3692   22.7343 C   0  0  0  0  0  0  0  0  0  0  0  0
    9.1013  -13.6680   22.7964 O   0  0  0  0  0  0  0  0  0  0  0  0
    7.3430  -14.5631   23.9361 N   0  0  0  0  0  0  0  0  0  0  0  0
    7.7834  -14.0400   25.2161 C   0  0  1  0  0  0  0  0  0  0  0  0
    6.6517  -14.0819   26.2304 C   0  0  0  0  0  0  0  0  0  0  0  0
    5.6725  -12.5437   26.1505 S   0  0  0  0  0  0  0  0  0  0  0  0
    8.8602  -14.9139   25.7258 C   0  0  0  0  0  0  0  0  0  0  0  0
    9.3544  -15.7444   24.8803 O   0  0  0  0  0  0  0  0  0  0  0  0
    9.3542  -14.8765   27.0578 N   0  0  0  0  0  0  0  0  0  0  0  0
    8.8845  -14.1268   28.1799 C   0  0  0  0  0  0  0  0  0  0  0  0
   10.1809  -13.7681   28.9144 C   0  0  0  0  0  0  0  0  0  0  0  0
   11.2682  -14.6065   28.2876 C   0  0  0  0  0  0  0  0  0  0  0  0
   10.4794  -15.6466   27.5227 C   0  0  1  0  0  0  0  0  0  0  0  0
   10.0964  -16.7133   28.4863 C   0  0  0  0  0  0  0  0  0  0  0  0
    8.9329  -16.8942   28.9236 O   0  0  0  0  0  0  0  0  0  0  0  0
   11.0697  -17.5858   28.9537 O   0  0  0  0  0  0  0  0  0  0  0  0
  2  1  1  6
  2  3  1  0
  4  3  1  0
  5  4  1  0
  6  7  1  0
  6  5  1  0
  8 10  1  0
  8  2  1  0
  9  8  2  0
 11 10  1  0
 12 13  1  0
 11 12  1  1
 14 11  1  0
 14 15  2  0
 16 14  1  0
 17 18  1  0
 17 16  1  0
 18 19  1  0
 20 16  1  0
 20 19  1  0
 20 21  1  1
 22 21  2  0
 23 21  1  0
M  END
$$$$
