CFL.pdb
     RDKit          3D

 26 26  0  0  1  0  0  0  0  0999 V2000
   15.0370  -21.4955    0.1345 N   0  0  0  0  0  0  0  0  0  0  0  0
   14.8307  -20.9805    1.4651 C   0  0  1  0  0  0  0  0  0  0  0  0
   14.7008  -22.1137    2.4357 C   0  0  0  0  0  0  0  0  0  0  0  0
   13.3182  -23.1988    2.0730 S   0  0  0  0  0  0  0  0  0  0  0  0
   15.9944  -20.1464    1.9120 C   0  0  0  0  0  0  0  0  0  0  0  0
   17.1574  -20.4588    1.6185 O   0  0  0  0  0  0  0  0  0  0  0  0
   15.7438  -18.9978    2.6736 N   0  0  0  0  0  0  0  0  0  0  0  0
   16.7595  -18.0427    3.0670 C   0  0  1  0  0  0  0  0  0  0  0  0
   16.1980  -16.6512    2.8725 C   0  0  0  0  0  0  0  0  0  0  0  0
   17.1399  -15.5725    3.2091 C   0  0  0  0  0  0  0  0  0  0  0  0
   18.3518  -15.4921    2.5643 C   0  0  0  0  0  0  0  0  0  0  0  0
   19.2641  -14.4755    2.8617 C   0  0  0  0  0  0  0  0  0  0  0  0
   18.9611  -13.5345    3.8099 C   0  0  0  0  0  0  0  0  0  0  0  0
   17.7547  -13.5994    4.4642 C   0  0  0  0  0  0  0  0  0  0  0  0
   16.8483  -14.6225    4.1578 C   0  0  0  0  0  0  0  0  0  0  0  0
   17.1385  -18.3354    4.4644 C   0  0  0  0  0  0  0  0  0  0  0  0
   16.2685  -18.7275    5.2728 O   0  0  0  0  0  0  0  0  0  0  0  0
   18.9156  -21.4586    6.8157 C   0  0  0  0  0  0  0  0  0  0  0  0
   19.9824  -20.6562    6.0732 C   0  0  2  0  0  0  0  0  0  0  0  0
   21.2411  -21.4071    5.8993 C   0  0  0  0  0  0  0  0  0  0  0  0
   20.0324  -19.2291    6.4272 C   0  0  0  0  0  0  0  0  0  0  0  0
   18.7503  -18.4596    6.3388 C   0  0  2  0  0  0  0  0  0  0  0  0
   18.4651  -18.1840    4.9170 N   0  0  0  0  0  0  0  0  0  0  0  0
   18.8496  -17.1515    6.9798 C   0  0  0  0  0  0  0  0  0  0  0  0
   19.3976  -16.1948    6.3939 O   0  0  0  0  0  0  0  0  0  0  0  0
   18.3523  -16.8915    8.2539 O   0  0  0  0  0  0  0  0  0  0  0  0
  2  5  1  0
  2  1  1  6
  3  2  1  0
  4  3  1  0
  5  6  2  0
  7  8  1  0
  7  5  1  0
  9 10  1  0
  8  9  1  1
 10 11  2  0
 11 12  1  0
 13 12  2  0
 14 13  1  0
 15 14  2  0
 15 10  1  0
 16  8  1  0
 17 16  2  0
 19 18  1  1
 19 21  1  0
 20 19  1  0
 22 21  1  6
 22 24  1  0
 22 23  1  0
 23 16  1  0
 24 26  1  0
 25 24  2  0
M  END
$$$$
