CFL.pdb
     RDKit          3D

 26 26  0  0  1  0  0  0  0  0999 V2000
   27.4943  -22.7903  -16.0879 N   0  0  0  0  0  0  0  0  0  0  0  0
   26.1464  -23.1270  -16.4729 C   0  0  1  0  0  0  0  0  0  0  0  0
   25.8364  -24.5345  -16.0651 C   0  0  0  0  0  0  0  0  0  0  0  0
   27.0138  -25.7294  -16.7026 S   0  0  0  0  0  0  0  0  0  0  0  0
   25.1482  -22.2390  -15.7913 C   0  0  0  0  0  0  0  0  0  0  0  0
   25.3509  -21.8059  -14.6476 O   0  0  0  0  0  0  0  0  0  0  0  0
   23.9719  -21.9035  -16.4739 N   0  0  0  0  0  0  0  0  0  0  0  0
   22.9736  -20.9808  -15.9733 C   0  0  1  0  0  0  0  0  0  0  0  0
   22.9175  -19.7939  -16.9102 C   0  0  0  0  0  0  0  0  0  0  0  0
   21.8584  -18.8253  -16.5874 C   0  0  0  0  0  0  0  0  0  0  0  0
   22.0496  -17.9074  -15.5814 C   0  0  0  0  0  0  0  0  0  0  0  0
   21.0617  -16.9734  -15.2562 C   0  0  0  0  0  0  0  0  0  0  0  0
   19.8761  -16.9585  -15.9421 C   0  0  0  0  0  0  0  0  0  0  0  0
   19.6679  -17.8683  -16.9503 C   0  0  0  0  0  0  0  0  0  0  0  0
   20.6649  -18.7996  -17.2675 C   0  0  0  0  0  0  0  0  0  0  0  0
   21.6939  -21.7113  -15.8702 C   0  0  0  0  0  0  0  0  0  0  0  0
   21.3098  -22.4251  -16.8227 O   0  0  0  0  0  0  0  0  0  0  0  0
   20.0543  -25.2447  -14.8593 C   0  0  0  0  0  0  0  0  0  0  0  0
   20.2057  -24.4757  -13.5482 C   0  0  2  0  0  0  0  0  0  0  0  0
   20.1792  -25.3575  -12.3650 C   0  0  0  0  0  0  0  0  0  0  0  0
   19.4967  -23.1872  -13.5085 C   0  0  0  0  0  0  0  0  0  0  0  0
   19.5845  -22.3230  -14.7288 C   0  0  2  0  0  0  0  0  0  0  0  0
   20.8856  -21.6262  -14.7182 N   0  0  0  0  0  0  0  0  0  0  0  0
   18.5746  -21.2685  -14.7287 C   0  0  0  0  0  0  0  0  0  0  0  0
   18.8442  -20.1281  -14.2978 O   0  0  0  0  0  0  0  0  0  0  0  0
   17.2777  -21.4602  -15.1973 O   0  0  0  0  0  0  0  0  0  0  0  0
  2  5  1  0
  2  1  1  1
  3  2  1  0
  4  3  1  0
  5  6  2  0
  7  8  1  0
  7  5  1  0
  9 10  1  0
  8  9  1  6
 10 11  2  0
 11 12  1  0
 13 12  2  0
 14 13  1  0
 15 14  2  0
 15 10  1  0
 16  8  1  0
 17 16  2  0
 19 18  1  6
 19 21  1  0
 20 19  1  0
 22 21  1  1
 22 24  1  0
 22 23  1  0
 23 16  1  0
 24 26  1  0
 25 24  2  0
M  END
$$$$
