CFL.pdb
     RDKit          3D

 26 26  0  0  1  0  0  0  0  0999 V2000
   24.1556  -20.7770  -15.5163 N   0  0  0  0  0  0  0  0  0  0  0  0
   23.8893  -19.8838  -14.4165 C   0  0  1  0  0  0  0  0  0  0  0  0
   22.4208  -19.6006  -14.3340 C   0  0  0  0  0  0  0  0  0  0  0  0
   21.8955  -18.2749  -15.4234 S   0  0  0  0  0  0  0  0  0  0  0  0
   24.2960  -20.4951  -13.1086 C   0  0  0  0  0  0  0  0  0  0  0  0
   24.0352  -21.6778  -12.8450 O   0  0  0  0  0  0  0  0  0  0  0  0
   24.9819  -19.7007  -12.1809 N   0  0  0  0  0  0  0  0  0  0  0  0
   25.4229  -20.1624  -10.8805 C   0  0  1  0  0  0  0  0  0  0  0  0
   26.5611  -19.2747  -10.4267 C   0  0  0  0  0  0  0  0  0  0  0  0
   27.0848  -19.6067   -9.0927 C   0  0  0  0  0  0  0  0  0  0  0  0
   27.8932  -20.7065   -8.9257 C   0  0  0  0  0  0  0  0  0  0  0  0
   28.4075  -21.0430   -7.6702 C   0  0  0  0  0  0  0  0  0  0  0  0
   28.1106  -20.2741   -6.5761 C   0  0  0  0  0  0  0  0  0  0  0  0
   27.3045  -19.1715   -6.7245 C   0  0  0  0  0  0  0  0  0  0  0  0
   26.7948  -18.8439   -7.9874 C   0  0  0  0  0  0  0  0  0  0  0  0
   24.2579  -20.1373   -9.9728 C   0  0  0  0  0  0  0  0  0  0  0  0
   23.5613  -19.1020   -9.8876 O   0  0  0  0  0  0  0  0  0  0  0  0
   20.2990  -20.0729   -9.5127 C   0  0  0  0  0  0  0  0  0  0  0  0
   20.7682  -21.5109   -9.7257 C   0  0  2  0  0  0  0  0  0  0  0  0
   19.7033  -22.3843  -10.2562 C   0  0  0  0  0  0  0  0  0  0  0  0
   21.6722  -22.0210   -8.6831 C   0  0  0  0  0  0  0  0  0  0  0  0
   22.7836  -21.1181   -8.2432 C   0  0  2  0  0  0  0  0  0  0  0  0
   23.9054  -21.2574   -9.1924 N   0  0  0  0  0  0  0  0  0  0  0  0
   23.3211  -21.5029   -6.9413 C   0  0  0  0  0  0  0  0  0  0  0  0
   24.1667  -22.4164   -6.8458 O   0  0  0  0  0  0  0  0  0  0  0  0
   22.9359  -20.8918   -5.7511 O   0  0  0  0  0  0  0  0  0  0  0  0
  2  5  1  0
  2  1  1  6
  3  2  1  0
  4  3  1  0
  5  6  2  0
  7  8  1  0
  7  5  1  0
  9 10  1  0
  8  9  1  1
 10 11  2  0
 11 12  1  0
 13 12  2  0
 14 13  1  0
 15 14  2  0
 15 10  1  0
 16  8  1  0
 17 16  2  0
 19 18  1  1
 19 21  1  0
 20 19  1  0
 22 21  1  6
 22 24  1  0
 22 23  1  0
 23 16  1  0
 24 26  1  0
 25 24  2  0
M  END
$$$$
