CFL.pdb
     RDKit          3D

 26 26  0  0  1  0  0  0  0  0999 V2000
   28.3847  -22.5936  -17.2859 N   0  0  0  0  0  0  0  0  0  0  0  0
   27.7414  -21.4253  -16.7386 C   0  0  1  0  0  0  0  0  0  0  0  0
   26.9068  -20.7629  -17.7913 C   0  0  0  0  0  0  0  0  0  0  0  0
   27.8717  -20.1498  -19.1745 S   0  0  0  0  0  0  0  0  0  0  0  0
   26.8231  -21.7886  -15.6098 C   0  0  0  0  0  0  0  0  0  0  0  0
   26.2003  -22.8603  -15.6094 O   0  0  0  0  0  0  0  0  0  0  0  0
   26.6789  -20.8891  -14.5457 N   0  0  0  0  0  0  0  0  0  0  0  0
   25.8436  -21.1252  -13.3859 C   0  0  1  0  0  0  0  0  0  0  0  0
   26.4834  -20.4410  -12.1976 C   0  0  0  0  0  0  0  0  0  0  0  0
   25.6963  -20.5323  -10.9582 C   0  0  0  0  0  0  0  0  0  0  0  0
   24.4082  -20.0520  -10.9249 C   0  0  0  0  0  0  0  0  0  0  0  0
   23.6366  -20.1292   -9.7618 C   0  0  0  0  0  0  0  0  0  0  0  0
   24.1577  -20.6903   -8.6261 C   0  0  0  0  0  0  0  0  0  0  0  0
   25.4431  -21.1754   -8.6412 C   0  0  0  0  0  0  0  0  0  0  0  0
   26.2070  -21.0927   -9.8124 C   0  0  0  0  0  0  0  0  0  0  0  0
   24.4886  -20.6249  -13.6950 C   0  0  0  0  0  0  0  0  0  0  0  0
   24.3475  -19.4863  -14.1928 O   0  0  0  0  0  0  0  0  0  0  0  0
   19.2676  -21.1519  -14.9548 C   0  0  0  0  0  0  0  0  0  0  0  0
   20.4727  -20.8577  -15.8461 C   0  0  2  0  0  0  0  0  0  0  0  0
   20.2023  -21.1188  -17.2733 C   0  0  0  0  0  0  0  0  0  0  0  0
   21.7696  -21.2469  -15.2706 C   0  0  0  0  0  0  0  0  0  0  0  0
   22.0290  -20.8560  -13.8480 C   0  0  2  0  0  0  0  0  0  0  0  0
   23.3392  -21.4014  -13.4426 N   0  0  0  0  0  0  0  0  0  0  0  0
   21.0577  -21.4454  -12.9308 C   0  0  0  0  0  0  0  0  0  0  0  0
   21.1361  -22.6485  -12.6065 O   0  0  0  0  0  0  0  0  0  0  0  0
   20.0072  -20.7229  -12.3715 O   0  0  0  0  0  0  0  0  0  0  0  0
  2  5  1  0
  2  1  1  6
  3  2  1  0
  4  3  1  0
  5  6  2  0
  7  8  1  0
  7  5  1  0
  9 10  1  0
  8  9  1  1
 10 11  2  0
 11 12  1  0
 13 12  2  0
 14 13  1  0
 15 14  2  0
 15 10  1  0
 16  8  1  0
 17 16  2  0
 19 18  1  1
 19 21  1  0
 20 19  1  0
 22 21  1  6
 22 24  1  0
 22 23  1  0
 23 16  1  0
 24 26  1  0
 25 24  2  0
M  END
$$$$
