CFL.pdb
     RDKit          3D

 26 26  0  0  1  0  0  0  0  0999 V2000
   28.4032  -22.8205  -16.9111 N   0  0  0  0  0  0  0  0  0  0  0  0
   27.5238  -21.6938  -16.7227 C   0  0  1  0  0  0  0  0  0  0  0  0
   26.5819  -21.5830  -17.8819 C   0  0  0  0  0  0  0  0  0  0  0  0
   27.4099  -21.2187  -19.4317 S   0  0  0  0  0  0  0  0  0  0  0  0
   26.6883  -21.8564  -15.4878 C   0  0  0  0  0  0  0  0  0  0  0  0
   26.4639  -22.9773  -15.0085 O   0  0  0  0  0  0  0  0  0  0  0  0
   26.1605  -20.7107  -14.8787 N   0  0  0  0  0  0  0  0  0  0  0  0
   25.4464  -20.7129  -13.6182 C   0  0  1  0  0  0  0  0  0  0  0  0
   26.1225  -19.7254  -12.6923 C   0  0  0  0  0  0  0  0  0  0  0  0
   27.3710  -20.2229  -12.0941 C   0  0  0  0  0  0  0  0  0  0  0  0
   27.3321  -20.9516  -10.9285 C   0  0  0  0  0  0  0  0  0  0  0  0
   28.5026  -21.4395  -10.3404 C   0  0  0  0  0  0  0  0  0  0  0  0
   29.7185  -21.1965  -10.9226 C   0  0  0  0  0  0  0  0  0  0  0  0
   29.7762  -20.4702  -12.0874 C   0  0  0  0  0  0  0  0  0  0  0  0
   28.5968  -19.9863  -12.6678 C   0  0  0  0  0  0  0  0  0  0  0  0
   24.0334  -20.3860  -13.8984 C   0  0  0  0  0  0  0  0  0  0  0  0
   23.7478  -19.3090  -14.4665 O   0  0  0  0  0  0  0  0  0  0  0  0
   20.9467  -20.6055  -16.7327 C   0  0  0  0  0  0  0  0  0  0  0  0
   21.1116  -21.9648  -16.0557 C   0  0  2  0  0  0  0  0  0  0  0  0
   20.5372  -23.0690  -16.8487 C   0  0  0  0  0  0  0  0  0  0  0  0
   20.9280  -21.9484  -14.5960 C   0  0  0  0  0  0  0  0  0  0  0  0
   21.6024  -20.8473  -13.8366 C   0  0  2  0  0  0  0  0  0  0  0  0
   22.9878  -21.2613  -13.5403 N   0  0  0  0  0  0  0  0  0  0  0  0
   20.9768  -20.6126  -12.5383 C   0  0  0  0  0  0  0  0  0  0  0  0
   19.8297  -20.1255  -12.4625 O   0  0  0  0  0  0  0  0  0  0  0  0
   21.6022  -20.9091  -11.3303 O   0  0  0  0  0  0  0  0  0  0  0  0
  2  5  1  0
  2  1  1  6
  3  2  1  0
  4  3  1  0
  5  6  2  0
  7  8  1  0
  7  5  1  0
  9 10  1  0
  8  9  1  1
 10 11  2  0
 11 12  1  0
 13 12  2  0
 14 13  1  0
 15 14  2  0
 15 10  1  0
 16  8  1  0
 17 16  2  0
 19 18  1  6
 19 21  1  0
 20 19  1  0
 22 21  1  1
 22 24  1  0
 22 23  1  0
 23 16  1  0
 24 26  1  0
 25 24  2  0
M  END
$$$$
