CFL.pdb
     RDKit          3D

 26 26  0  0  1  0  0  0  0  0999 V2000
   31.1486  -21.8097  -14.1493 N   0  0  0  0  0  0  0  0  0  0  0  0
   30.6664  -22.1269  -12.8283 C   0  0  1  0  0  0  0  0  0  0  0  0
   31.8208  -22.2677  -11.8845 C   0  0  0  0  0  0  0  0  0  0  0  0
   32.7729  -23.7651  -12.1527 S   0  0  0  0  0  0  0  0  0  0  0  0
   29.7882  -21.0351  -12.2931 C   0  0  0  0  0  0  0  0  0  0  0  0
   30.1888  -19.8639  -12.2281 O   0  0  0  0  0  0  0  0  0  0  0  0
   28.4958  -21.3630  -11.8638 N   0  0  0  0  0  0  0  0  0  0  0  0
   27.5033  -20.3922  -11.4499 C   0  0  1  0  0  0  0  0  0  0  0  0
   26.5062  -20.2288  -12.5762 C   0  0  0  0  0  0  0  0  0  0  0  0
   26.9705  -19.3562  -13.6657 C   0  0  0  0  0  0  0  0  0  0  0  0
   27.0768  -18.0003  -13.4626 C   0  0  0  0  0  0  0  0  0  0  0  0
   27.5187  -17.1484  -14.4791 C   0  0  0  0  0  0  0  0  0  0  0  0
   27.8560  -17.6571  -15.7054 C   0  0  0  0  0  0  0  0  0  0  0  0
   27.7560  -19.0095  -15.9260 C   0  0  0  0  0  0  0  0  0  0  0  0
   27.3120  -19.8535  -14.9001 C   0  0  0  0  0  0  0  0  0  0  0  0
   26.8975  -20.8732  -10.1915 C   0  0  0  0  0  0  0  0  0  0  0  0
   26.5626  -22.0735  -10.0846 O   0  0  0  0  0  0  0  0  0  0  0  0
   28.4686  -20.1833   -6.1591 C   0  0  0  0  0  0  0  0  0  0  0  0
   27.4448  -19.0696   -6.3708 C   0  0  2  0  0  0  0  0  0  0  0  0
   27.5509  -17.9993   -5.3602 C   0  0  0  0  0  0  0  0  0  0  0  0
   26.1159  -19.5328   -6.7998 C   0  0  0  0  0  0  0  0  0  0  0  0
   26.0715  -20.5720   -7.8777 C   0  0  2  0  0  0  0  0  0  0  0  0
   26.6839  -20.0100   -9.0975 N   0  0  0  0  0  0  0  0  0  0  0  0
   24.7030  -20.9191   -8.2498 C   0  0  0  0  0  0  0  0  0  0  0  0
   24.2220  -20.5376   -9.3370 O   0  0  0  0  0  0  0  0  0  0  0  0
   23.8656  -21.6790   -7.4377 O   0  0  0  0  0  0  0  0  0  0  0  0
  2  5  1  0
  2  1  1  6
  3  2  1  0
  4  3  1  0
  5  6  2  0
  7  8  1  0
  7  5  1  0
  9 10  1  0
  8  9  1  6
 10 11  2  0
 11 12  1  0
 13 12  2  0
 14 13  1  0
 15 14  2  0
 15 10  1  0
 16  8  1  0
 17 16  2  0
 19 18  1  1
 19 21  1  0
 20 19  1  0
 22 21  1  1
 22 24  1  0
 22 23  1  0
 23 16  1  0
 24 26  1  0
 25 24  2  0
M  END
$$$$
