CFL.pdb
     RDKit          3D

 26 26  0  0  1  0  0  0  0  0999 V2000
   28.7648  -21.7357  -14.0740 N   0  0  0  0  0  0  0  0  0  0  0  0
   28.7901  -20.6697  -13.1038 C   0  0  1  0  0  0  0  0  0  0  0  0
   27.9410  -19.5301  -13.5766 C   0  0  0  0  0  0  0  0  0  0  0  0
   28.6483  -18.6557  -14.9750 S   0  0  0  0  0  0  0  0  0  0  0  0
   28.2323  -21.1200  -11.7863 C   0  0  0  0  0  0  0  0  0  0  0  0
   27.3555  -21.9941  -11.7263 O   0  0  0  0  0  0  0  0  0  0  0  0
   28.7226  -20.5317  -10.6135 N   0  0  0  0  0  0  0  0  0  0  0  0
   28.1609  -20.7488   -9.2959 C   0  0  1  0  0  0  0  0  0  0  0  0
   29.0874  -20.1184   -8.2792 C   0  0  0  0  0  0  0  0  0  0  0  0
   28.5327  -20.0603   -6.9180 C   0  0  0  0  0  0  0  0  0  0  0  0
   28.7402  -21.1033   -6.0461 C   0  0  0  0  0  0  0  0  0  0  0  0
   28.2278  -21.0727   -4.7458 C   0  0  0  0  0  0  0  0  0  0  0  0
   27.5038  -19.9920   -4.3165 C   0  0  0  0  0  0  0  0  0  0  0  0
   27.2867  -18.9409   -5.1742 C   0  0  0  0  0  0  0  0  0  0  0  0
   27.8051  -18.9824   -6.4749 C   0  0  0  0  0  0  0  0  0  0  0  0
   26.7985  -20.1781   -9.2855 C   0  0  0  0  0  0  0  0  0  0  0  0
   26.6061  -19.0263   -9.7334 O   0  0  0  0  0  0  0  0  0  0  0  0
   22.7325  -21.2517  -12.7021 C   0  0  0  0  0  0  0  0  0  0  0  0
   22.8934  -20.6588  -11.3035 C   0  0  2  0  0  0  0  0  0  0  0  0
   22.3091  -19.3085  -11.1871 C   0  0  0  0  0  0  0  0  0  0  0  0
   24.1846  -20.9482  -10.6605 C   0  0  0  0  0  0  0  0  0  0  0  0
   24.3474  -20.5188   -9.2347 C   0  0  2  0  0  0  0  0  0  0  0  0
   25.6986  -20.9012   -8.7804 N   0  0  0  0  0  0  0  0  0  0  0  0
   23.4225  -21.2128   -8.3431 C   0  0  0  0  0  0  0  0  0  0  0  0
   23.8055  -22.1841   -7.6585 O   0  0  0  0  0  0  0  0  0  0  0  0
   22.0868  -20.8465   -8.2013 O   0  0  0  0  0  0  0  0  0  0  0  0
  2  5  1  0
  2  1  1  6
  3  2  1  0
  4  3  1  0
  5  6  2  0
  7  8  1  0
  7  5  1  0
  9 10  1  0
  8  9  1  1
 10 11  2  0
 11 12  1  0
 13 12  2  0
 14 13  1  0
 15 14  2  0
 15 10  1  0
 16  8  1  0
 17 16  2  0
 19 18  1  6
 19 21  1  0
 20 19  1  0
 22 21  1  6
 22 24  1  0
 22 23  1  0
 23 16  1  0
 24 26  1  0
 25 24  2  0
M  END
$$$$
