CFL.pdb
     RDKit          3D

 26 26  0  0  1  0  0  0  0  0999 V2000
   22.7682  -19.3582  -15.1186 N   0  0  0  0  0  0  0  0  0  0  0  0
   23.2781  -19.4217  -13.7717 C   0  0  1  0  0  0  0  0  0  0  0  0
   22.3638  -20.2464  -12.9190 C   0  0  0  0  0  0  0  0  0  0  0  0
   20.9735  -19.3156  -12.2701 S   0  0  0  0  0  0  0  0  0  0  0  0
   24.6283  -20.0737  -13.7315 C   0  0  0  0  0  0  0  0  0  0  0  0
   24.8596  -21.1092  -14.3724 O   0  0  0  0  0  0  0  0  0  0  0  0
   25.6334  -19.4884  -12.9509 N   0  0  0  0  0  0  0  0  0  0  0  0
   26.9706  -20.0265  -12.8061 C   0  0  1  0  0  0  0  0  0  0  0  0
   27.9583  -18.9158  -13.0896 C   0  0  0  0  0  0  0  0  0  0  0  0
   27.8987  -18.3975  -14.4650 C   0  0  0  0  0  0  0  0  0  0  0  0
   28.6107  -19.0176  -15.4648 C   0  0  0  0  0  0  0  0  0  0  0  0
   28.5693  -18.5485  -16.7810 C   0  0  0  0  0  0  0  0  0  0  0  0
   27.8110  -17.4526  -17.0977 C   0  0  0  0  0  0  0  0  0  0  0  0
   27.0931  -16.8206  -16.1114 C   0  0  0  0  0  0  0  0  0  0  0  0
   27.1420  -17.2995  -14.7960 C   0  0  0  0  0  0  0  0  0  0  0  0
   27.0879  -20.5862  -11.4442 C   0  0  0  0  0  0  0  0  0  0  0  0
   28.1370  -21.1772  -11.1058 O   0  0  0  0  0  0  0  0  0  0  0  0
   27.4791  -19.0373   -6.0805 C   0  0  0  0  0  0  0  0  0  0  0  0
   27.3128  -20.2800   -6.9531 C   0  0  2  0  0  0  0  0  0  0  0  0
   28.2239  -21.3742   -6.5646 C   0  0  0  0  0  0  0  0  0  0  0  0
   27.0815  -20.0007   -8.3789 C   0  0  0  0  0  0  0  0  0  0  0  0
   26.2675  -20.9976   -9.1454 C   0  0  2  0  0  0  0  0  0  0  0  0
   26.0415  -20.4724  -10.5062 N   0  0  0  0  0  0  0  0  0  0  0  0
   24.9383  -21.1802   -8.5695 C   0  0  0  0  0  0  0  0  0  0  0  0
   24.8005  -21.6496   -7.4208 O   0  0  0  0  0  0  0  0  0  0  0  0
   23.7668  -20.8512   -9.2461 O   0  0  0  0  0  0  0  0  0  0  0  0
  2  5  1  0
  2  1  1  6
  3  2  1  0
  4  3  1  0
  5  6  2  0
  7  8  1  0
  7  5  1  0
  9 10  1  0
  8  9  1  1
 10 11  2  0
 11 12  1  0
 13 12  2  0
 14 13  1  0
 15 14  2  0
 15 10  1  0
 16  8  1  0
 17 16  2  0
 19 18  1  1
 19 21  1  0
 20 19  1  0
 22 21  1  1
 22 24  1  0
 22 23  1  0
 23 16  1  0
 24 26  1  0
 25 24  2  0
M  END
$$$$
