CFL.pdb
     RDKit          3D

 26 26  0  0  1  0  0  0  0  0999 V2000
   26.9270  -22.2409  -14.1349 N   0  0  0  0  0  0  0  0  0  0  0  0
   27.3362  -21.1594  -13.2739 C   0  0  1  0  0  0  0  0  0  0  0  0
   26.7422  -19.8717  -13.7559 C   0  0  0  0  0  0  0  0  0  0  0  0
   25.0322  -20.0339  -14.2752 S   0  0  0  0  0  0  0  0  0  0  0  0
   26.8544  -21.3704  -11.8693 C   0  0  0  0  0  0  0  0  0  0  0  0
   25.9208  -22.1471  -11.6215 O   0  0  0  0  0  0  0  0  0  0  0  0
   27.4823  -20.6691  -10.8319 N   0  0  0  0  0  0  0  0  0  0  0  0
   27.0603  -20.7118   -9.4467 C   0  0  1  0  0  0  0  0  0  0  0  0
   28.1754  -20.1427   -8.5969 C   0  0  0  0  0  0  0  0  0  0  0  0
   27.8433  -20.0323   -7.1681 C   0  0  0  0  0  0  0  0  0  0  0  0
   28.3186  -18.9726   -6.4318 C   0  0  0  0  0  0  0  0  0  0  0  0
   28.0156  -18.8411   -5.0734 C   0  0  0  0  0  0  0  0  0  0  0  0
   27.2325  -19.7758   -4.4492 C   0  0  0  0  0  0  0  0  0  0  0  0
   26.7489  -20.8411   -5.1695 C   0  0  0  0  0  0  0  0  0  0  0  0
   27.0590  -20.9626   -6.5301 C   0  0  0  0  0  0  0  0  0  0  0  0
   25.7932  -19.9607   -9.3366 C   0  0  0  0  0  0  0  0  0  0  0  0
   25.7428  -18.7715   -9.7207 O   0  0  0  0  0  0  0  0  0  0  0  0
   21.2072  -19.1701  -10.9766 C   0  0  0  0  0  0  0  0  0  0  0  0
   22.0378  -20.3167  -11.5499 C   0  0  2  0  0  0  0  0  0  0  0  0
   21.2048  -21.4238  -12.0587 C   0  0  0  0  0  0  0  0  0  0  0  0
   23.2655  -20.6193  -10.7979 C   0  0  0  0  0  0  0  0  0  0  0  0
   23.3258  -20.1537   -9.3755 C   0  0  2  0  0  0  0  0  0  0  0  0
   24.6281  -20.5514   -8.8059 N   0  0  0  0  0  0  0  0  0  0  0  0
   22.3182  -20.8032   -8.5419 C   0  0  0  0  0  0  0  0  0  0  0  0
   21.1136  -20.4890   -8.6371 O   0  0  0  0  0  0  0  0  0  0  0  0
   22.6265  -21.7904   -7.6099 O   0  0  0  0  0  0  0  0  0  0  0  0
  2  5  1  0
  2  1  1  6
  3  2  1  0
  4  3  1  0
  5  6  2  0
  7  8  1  0
  7  5  1  0
  9 10  1  0
  8  9  1  1
 10 11  2  0
 11 12  1  0
 13 12  2  0
 14 13  1  0
 15 14  2  0
 15 10  1  0
 16  8  1  0
 17 16  2  0
 19 18  1  1
 19 21  1  0
 20 19  1  0
 22 21  1  6
 22 24  1  0
 22 23  1  0
 23 16  1  0
 24 26  1  0
 25 24  2  0
M  END
$$$$
