CFL.pdb
     RDKit          3D

 26 26  0  0  1  0  0  0  0  0999 V2000
   25.2032  -19.2125  -13.0361 N   0  0  0  0  0  0  0  0  0  0  0  0
   25.0124  -20.0744  -11.8963 C   0  0  1  0  0  0  0  0  0  0  0  0
   24.9457  -21.5025  -12.3428 C   0  0  0  0  0  0  0  0  0  0  0  0
   23.3146  -21.9886  -12.9117 S   0  0  0  0  0  0  0  0  0  0  0  0
   26.1574  -19.9649  -10.9338 C   0  0  0  0  0  0  0  0  0  0  0  0
   27.3256  -19.8641  -11.3358 O   0  0  0  0  0  0  0  0  0  0  0  0
   25.8833  -19.9783   -9.5602 N   0  0  0  0  0  0  0  0  0  0  0  0
   26.8925  -19.8720   -8.5263 C   0  0  1  0  0  0  0  0  0  0  0  0
   26.2077  -19.4651   -7.2398 C   0  0  0  0  0  0  0  0  0  0  0  0
   27.1067  -19.3992   -6.0773 C   0  0  0  0  0  0  0  0  0  0  0  0
   27.9977  -18.3589   -5.9555 C   0  0  0  0  0  0  0  0  0  0  0  0
   28.8608  -18.2695   -4.8595 C   0  0  0  0  0  0  0  0  0  0  0  0
   28.8315  -19.2271   -3.8804 C   0  0  0  0  0  0  0  0  0  0  0  0
   27.9476  -20.2735   -3.9857 C   0  0  0  0  0  0  0  0  0  0  0  0
   27.0874  -20.3528   -5.0884 C   0  0  0  0  0  0  0  0  0  0  0  0
   27.5883  -21.1720   -8.4380 C   0  0  0  0  0  0  0  0  0  0  0  0
   26.9364  -22.2327   -8.5573 O   0  0  0  0  0  0  0  0  0  0  0  0
   30.9021  -23.0216  -10.7126 C   0  0  0  0  0  0  0  0  0  0  0  0
   31.5258  -22.1637   -9.6134 C   0  0  2  0  0  0  0  0  0  0  0  0
   32.9574  -21.8917   -9.8471 C   0  0  0  0  0  0  0  0  0  0  0  0
   31.0597  -22.4767   -8.2535 C   0  0  0  0  0  0  0  0  0  0  0  0
   29.5800  -22.5892   -8.0492 C   0  0  2  0  0  0  0  0  0  0  0  0
   28.9791  -21.2521   -8.2211 N   0  0  0  0  0  0  0  0  0  0  0  0
   29.2431  -22.9989   -6.6889 C   0  0  0  0  0  0  0  0  0  0  0  0
   29.0286  -22.1472   -5.8015 O   0  0  0  0  0  0  0  0  0  0  0  0
   29.1413  -24.3323   -6.3016 O   0  0  0  0  0  0  0  0  0  0  0  0
  2  5  1  0
  2  1  1  6
  3  2  1  0
  4  3  1  0
  5  6  2  0
  7  8  1  0
  7  5  1  0
  9 10  1  0
  8  9  1  1
 10 11  2  0
 11 12  1  0
 13 12  2  0
 14 13  1  0
 15 14  2  0
 15 10  1  0
 16  8  1  0
 17 16  2  0
 19 18  1  6
 19 21  1  0
 20 19  1  0
 22 21  1  1
 22 24  1  0
 22 23  1  0
 23 16  1  0
 24 26  1  0
 25 24  2  0
M  END
$$$$
