CFL.pdb
     RDKit          3D

 26 26  0  0  1  0  0  0  0  0999 V2000
   29.0978  -23.2635  -17.3006 N   0  0  0  0  0  0  0  0  0  0  0  0
   28.1014  -22.2294  -17.1735 C   0  0  1  0  0  0  0  0  0  0  0  0
   27.2186  -22.2208  -18.3834 C   0  0  0  0  0  0  0  0  0  0  0  0
   25.9171  -20.9883  -18.2986 S   0  0  0  0  0  0  0  0  0  0  0  0
   27.2193  -22.4673  -15.9840 C   0  0  0  0  0  0  0  0  0  0  0  0
   26.8153  -23.6048  -15.7025 O   0  0  0  0  0  0  0  0  0  0  0  0
   26.8557  -21.3731  -15.1884 N   0  0  0  0  0  0  0  0  0  0  0  0
   26.0154  -21.4640  -14.0120 C   0  0  1  0  0  0  0  0  0  0  0  0
   26.5543  -20.5049  -12.9731 C   0  0  0  0  0  0  0  0  0  0  0  0
   25.8615  -20.5739  -11.6772 C   0  0  0  0  0  0  0  0  0  0  0  0
   24.6484  -19.9479  -11.5120 C   0  0  0  0  0  0  0  0  0  0  0  0
   23.9667  -20.0004  -10.2927 C   0  0  0  0  0  0  0  0  0  0  0  0
   24.5027  -20.6835   -9.2333 C   0  0  0  0  0  0  0  0  0  0  0  0
   25.7140  -21.3150   -9.3804 C   0  0  0  0  0  0  0  0  0  0  0  0
   26.3881  -21.2557  -10.6068 C   0  0  0  0  0  0  0  0  0  0  0  0
   24.6278  -21.1685  -14.4234 C   0  0  0  0  0  0  0  0  0  0  0  0
   24.3740  -20.1012  -15.0241 O   0  0  0  0  0  0  0  0  0  0  0  0
   22.2247  -24.2376  -17.0880 C   0  0  0  0  0  0  0  0  0  0  0  0
   21.7130  -22.8729  -16.6308 C   0  0  2  0  0  0  0  0  0  0  0  0
   22.3354  -21.7557  -17.3675 C   0  0  0  0  0  0  0  0  0  0  0  0
   21.4974  -22.7542  -15.1803 C   0  0  0  0  0  0  0  0  0  0  0  0
   22.1970  -21.6320  -14.4767 C   0  0  2  0  0  0  0  0  0  0  0  0
   23.5716  -22.0633  -14.1559 N   0  0  0  0  0  0  0  0  0  0  0  0
   21.5755  -21.3159  -13.1939 C   0  0  0  0  0  0  0  0  0  0  0  0
   20.5954  -20.5447  -13.1335 O   0  0  0  0  0  0  0  0  0  0  0  0
   22.0233  -21.8402  -11.9844 O   0  0  0  0  0  0  0  0  0  0  0  0
  2  5  1  0
  2  1  1  6
  3  2  1  0
  4  3  1  0
  5  6  2  0
  7  8  1  0
  7  5  1  0
  9 10  1  0
  8  9  1  1
 10 11  2  0
 11 12  1  0
 13 12  2  0
 14 13  1  0
 15 14  2  0
 15 10  1  0
 16  8  1  0
 17 16  2  0
 19 18  1  1
 19 21  1  0
 20 19  1  0
 22 21  1  1
 22 24  1  0
 22 23  1  0
 23 16  1  0
 24 26  1  0
 25 24  2  0
M  END
$$$$
