CFL.pdb
     RDKit          3D

 26 26  0  0  1  0  0  0  0  0999 V2000
   26.1073  -21.6719  -13.3757 N   0  0  0  0  0  0  0  0  0  0  0  0
   25.6137  -20.6858  -12.4472 C   0  0  1  0  0  0  0  0  0  0  0  0
   24.1455  -20.4776  -12.6575 C   0  0  0  0  0  0  0  0  0  0  0  0
   23.7744  -19.4700  -14.0953 S   0  0  0  0  0  0  0  0  0  0  0  0
   25.7980  -21.1348  -11.0280 C   0  0  0  0  0  0  0  0  0  0  0  0
   25.6833  -22.3282  -10.7130 O   0  0  0  0  0  0  0  0  0  0  0  0
   26.1046  -20.1752  -10.0548 N   0  0  0  0  0  0  0  0  0  0  0  0
   26.4184  -20.4848   -8.6748 C   0  0  1  0  0  0  0  0  0  0  0  0
   27.4748  -19.5102   -8.2019 C   0  0  0  0  0  0  0  0  0  0  0  0
   27.8807  -19.6997   -6.8007 C   0  0  0  0  0  0  0  0  0  0  0  0
   28.6416  -20.7891   -6.4468 C   0  0  0  0  0  0  0  0  0  0  0  0
   29.0443  -20.9917   -5.1236 C   0  0  0  0  0  0  0  0  0  0  0  0
   28.6832  -20.0986   -4.1497 C   0  0  0  0  0  0  0  0  0  0  0  0
   27.9232  -19.0044   -4.4854 C   0  0  0  0  0  0  0  0  0  0  0  0
   27.5255  -18.8115   -5.8145 C   0  0  0  0  0  0  0  0  0  0  0  0
   25.1632  -20.4156   -7.8991 C   0  0  0  0  0  0  0  0  0  0  0  0
   24.4051  -19.4301   -8.0345 O   0  0  0  0  0  0  0  0  0  0  0  0
   21.0197  -21.4291   -7.6753 C   0  0  0  0  0  0  0  0  0  0  0  0
   21.8560  -22.6606   -7.3326 C   0  0  2  0  0  0  0  0  0  0  0  0
   21.0967  -23.9192   -7.4658 C   0  0  0  0  0  0  0  0  0  0  0  0
   22.7706  -22.4824   -6.1941 C   0  0  0  0  0  0  0  0  0  0  0  0
   23.5916  -21.2298   -6.1689 C   0  0  2  0  0  0  0  0  0  0  0  0
   24.7919  -21.4381   -7.0023 N   0  0  0  0  0  0  0  0  0  0  0  0
   24.0908  -20.9272   -4.8305 C   0  0  0  0  0  0  0  0  0  0  0  0
   23.3678  -20.3413   -3.9981 O   0  0  0  0  0  0  0  0  0  0  0  0
   25.3731  -21.2637   -4.4053 O   0  0  0  0  0  0  0  0  0  0  0  0
  2  5  1  0
  2  1  1  6
  3  2  1  0
  4  3  1  0
  5  6  2  0
  7  8  1  0
  7  5  1  0
  9 10  1  0
  8  9  1  1
 10 11  2  0
 11 12  1  0
 13 12  2  0
 14 13  1  0
 15 14  2  0
 15 10  1  0
 16  8  1  0
 17 16  2  0
 19 18  1  1
 19 21  1  0
 20 19  1  0
 22 21  1  1
 22 24  1  0
 22 23  1  0
 23 16  1  0
 24 26  1  0
 25 24  2  0
M  END
$$$$
