ADE.pdb
     RDKit          3D

 23 22  0  0  1  0  0  0  0  0999 V2000
   14.5127  -13.8756  -14.1357 C   0  0  0  0  0  0  0  0  0  0  0  0
   14.5269  -12.6146  -15.0049 C   0  0  2  0  0  0  0  0  0  0  0  0
   14.4031  -12.9186  -16.3943 N   0  0  0  0  0  0  0  0  0  0  0  0
   15.7717  -11.8759  -14.6725 C   0  0  0  0  0  0  0  0  0  0  0  0
   16.6855  -12.4860  -14.1038 O   0  0  0  0  0  0  0  0  0  0  0  0
   15.9811  -10.5104  -14.9667 N   0  0  0  0  0  0  0  0  0  0  0  0
   17.2472   -9.8511  -14.9154 C   0  0  1  0  0  0  0  0  0  0  0  0
   18.3426  -10.5544  -15.6687 C   0  0  0  0  0  0  0  0  0  0  0  0
   19.6125   -9.8154  -15.6077 C   0  0  0  0  0  0  0  0  0  0  0  0
   20.1995   -9.6715  -14.5168 O   0  0  0  0  0  0  0  0  0  0  0  0
   17.1564   -8.4151  -15.3178 C   0  0  0  0  0  0  0  0  0  0  0  0
   16.9829   -8.1466  -16.5282 O   0  0  0  0  0  0  0  0  0  0  0  0
   20.1483   -9.2838  -16.7619 O   0  0  0  0  0  0  0  0  0  0  0  0
   17.2569   -7.3488  -14.3986 N   0  0  0  0  0  0  0  0  0  0  0  0
   17.1172   -5.9367  -14.7689 C   0  0  1  0  0  0  0  0  0  0  0  0
   18.3025   -5.4204  -15.4900 C   0  0  0  0  0  0  0  0  0  0  0  0
   18.1226   -4.0209  -15.9462 C   0  0  0  0  0  0  0  0  0  0  0  0
   19.2516   -3.4031  -16.6337 C   0  0  0  0  0  0  0  0  0  0  0  0
   19.7395   -2.3620  -16.0815 O   0  0  0  0  0  0  0  0  0  0  0  0
   15.8140   -5.6960  -15.4254 C   0  0  0  0  0  0  0  0  0  0  0  0
   14.9679   -4.6408  -15.1911 O   0  0  0  0  0  0  0  0  0  0  0  0
   19.8549   -3.7974  -17.7964 O   0  0  0  0  0  0  0  0  0  0  0  0
   15.4307   -6.5386  -16.2879 O   0  0  0  0  0  0  0  0  0  0  0  0
  2  4  1  0
  2  3  1  0
  2  1  1  1
  4  5  2  0
  6  7  1  0
  6  4  1  0
  7 11  1  0
  8  9  1  0
  7  8  1  6
  9 10  2  0
 11 12  2  0
 11 14  1  0
 13  9  1  0
 14 15  1  0
 15 16  1  6
 16 17  1  0
 17 18  1  0
 18 22  1  0
 19 18  2  0
 20 21  1  0
 20 15  1  0
 23 20  2  0
M  END
$$$$
