ADE.pdb
     RDKit          3D

 23 22  0  0  1  0  0  0  0  0999 V2000
   19.3748  -11.8944  -15.1961 C   0  0  0  0  0  0  0  0  0  0  0  0
   19.2006  -10.7538  -16.2033 C   0  0  2  0  0  0  0  0  0  0  0  0
   20.1018  -10.8676  -17.3047 N   0  0  0  0  0  0  0  0  0  0  0  0
   19.3520   -9.4843  -15.4475 C   0  0  0  0  0  0  0  0  0  0  0  0
   18.5845   -9.2656  -14.5023 O   0  0  0  0  0  0  0  0  0  0  0  0
   20.3244   -8.5027  -15.7410 N   0  0  0  0  0  0  0  0  0  0  0  0
   20.5131   -7.2963  -14.9998 C   0  0  1  0  0  0  0  0  0  0  0  0
   21.9303   -7.0572  -14.5567 C   0  0  0  0  0  0  0  0  0  0  0  0
   22.0508   -5.8439  -13.7344 C   0  0  0  0  0  0  0  0  0  0  0  0
   21.5711   -5.8193  -12.5835 O   0  0  0  0  0  0  0  0  0  0  0  0
   19.9647   -6.1018  -15.7102 C   0  0  0  0  0  0  0  0  0  0  0  0
   20.4253   -5.8180  -16.8392 O   0  0  0  0  0  0  0  0  0  0  0  0
   22.6960   -4.7365  -14.2435 O   0  0  0  0  0  0  0  0  0  0  0  0
   18.9533   -5.2796  -15.1688 N   0  0  0  0  0  0  0  0  0  0  0  0
   18.4192   -4.0922  -15.8435 C   0  0  1  0  0  0  0  0  0  0  0  0
   16.9513   -3.9691  -15.6956 C   0  0  0  0  0  0  0  0  0  0  0  0
   16.2211   -5.0830  -16.3476 C   0  0  0  0  0  0  0  0  0  0  0  0
   15.0291   -5.5760  -15.6658 C   0  0  0  0  0  0  0  0  0  0  0  0
   13.9344   -5.4753  -16.3125 O   0  0  0  0  0  0  0  0  0  0  0  0
   19.2016   -2.8904  -15.4819 C   0  0  0  0  0  0  0  0  0  0  0  0
   20.2350   -2.8337  -14.5802 O   0  0  0  0  0  0  0  0  0  0  0  0
   14.9344   -6.1331  -14.4200 O   0  0  0  0  0  0  0  0  0  0  0  0
   18.8973   -1.8027  -16.0520 O   0  0  0  0  0  0  0  0  0  0  0  0
  2  4  1  0
  2  3  1  0
  2  1  1  1
  4  5  2  0
  6  7  1  0
  6  4  1  0
  7 11  1  0
  8  9  1  0
  7  8  1  6
  9 10  2  0
 11 12  2  0
 11 14  1  0
 13  9  1  0
 14 15  1  0
 15 16  1  1
 16 17  1  0
 17 18  1  0
 18 22  1  0
 19 18  2  0
 20 21  1  0
 20 15  1  0
 23 20  2  0
M  END
$$$$
