ADE.pdb
     RDKit          3D

 23 22  0  0  1  0  0  0  0  0999 V2000
   18.9160  -13.1953  -20.0406 C   0  0  0  0  0  0  0  0  0  0  0  0
   19.6036  -13.0050  -18.6853 C   0  0  2  0  0  0  0  0  0  0  0  0
   19.5572  -14.1888  -17.8886 N   0  0  0  0  0  0  0  0  0  0  0  0
   18.9613  -11.8334  -18.0368 C   0  0  0  0  0  0  0  0  0  0  0  0
   19.0706  -10.7263  -18.5779 O   0  0  0  0  0  0  0  0  0  0  0  0
   18.2273  -11.9028  -16.8319 N   0  0  0  0  0  0  0  0  0  0  0  0
   17.6741  -10.7765  -16.1494 C   0  0  1  0  0  0  0  0  0  0  0  0
   16.3233  -11.0260  -15.5369 C   0  0  0  0  0  0  0  0  0  0  0  0
   15.2742  -11.1618  -16.5585 C   0  0  0  0  0  0  0  0  0  0  0  0
   14.3666  -12.0047  -16.4133 O   0  0  0  0  0  0  0  0  0  0  0  0
   18.6194  -10.1999  -15.1463 C   0  0  0  0  0  0  0  0  0  0  0  0
   19.1778  -10.9778  -14.3398 O   0  0  0  0  0  0  0  0  0  0  0  0
   15.3010  -10.3531  -17.6752 O   0  0  0  0  0  0  0  0  0  0  0  0
   18.9117   -8.8216  -15.0656 N   0  0  0  0  0  0  0  0  0  0  0  0
   19.8163   -8.2365  -14.0705 C   0  0  1  0  0  0  0  0  0  0  0  0
   20.6180   -7.1203  -14.6210 C   0  0  0  0  0  0  0  0  0  0  0  0
   21.5823   -6.5756  -13.6349 C   0  0  0  0  0  0  0  0  0  0  0  0
   22.3237   -5.3827  -14.0300 C   0  0  0  0  0  0  0  0  0  0  0  0
   23.1255   -5.5235  -15.0119 O   0  0  0  0  0  0  0  0  0  0  0  0
   19.0920   -7.9453  -12.8145 C   0  0  0  0  0  0  0  0  0  0  0  0
   17.8391   -7.3947  -12.7070 O   0  0  0  0  0  0  0  0  0  0  0  0
   22.2696   -4.1305  -13.4818 O   0  0  0  0  0  0  0  0  0  0  0  0
   19.6742   -8.2256  -11.7267 O   0  0  0  0  0  0  0  0  0  0  0  0
  2  4  1  0
  2  3  1  0
  2  1  1  6
  4  5  2  0
  6  7  1  0
  6  4  1  0
  7 11  1  0
  8  9  1  0
  7  8  1  1
  9 10  2  0
 11 12  2  0
 11 14  1  0
 13  9  1  0
 14 15  1  0
 15 16  1  6
 16 17  1  0
 17 18  1  0
 18 22  1  0
 19 18  2  0
 20 21  1  0
 20 15  1  0
 23 20  2  0
M  END
$$$$
