ADE.pdb
     RDKit          3D

 23 22  0  0  1  0  0  0  0  0999 V2000
   19.3091  -12.1551  -15.2722 C   0  0  0  0  0  0  0  0  0  0  0  0
   17.9074  -12.0732  -15.8843 C   0  0  2  0  0  0  0  0  0  0  0  0
   17.7909  -12.8640  -17.0672 N   0  0  0  0  0  0  0  0  0  0  0  0
   17.6179  -10.6337  -16.1075 C   0  0  0  0  0  0  0  0  0  0  0  0
   18.0137  -10.1082  -17.1552 O   0  0  0  0  0  0  0  0  0  0  0  0
   16.9137   -9.8196  -15.1930 N   0  0  0  0  0  0  0  0  0  0  0  0
   16.6423   -8.4299  -15.3813 C   0  0  1  0  0  0  0  0  0  0  0  0
   15.2262   -8.0283  -15.0725 C   0  0  0  0  0  0  0  0  0  0  0  0
   14.9728   -6.6167  -15.3980 C   0  0  0  0  0  0  0  0  0  0  0  0
   15.2871   -6.1680  -16.5184 O   0  0  0  0  0  0  0  0  0  0  0  0
   17.6166   -7.5580  -14.6584 C   0  0  0  0  0  0  0  0  0  0  0  0
   18.3011   -8.0648  -13.7408 O   0  0  0  0  0  0  0  0  0  0  0  0
   14.3871   -5.7947  -14.4583 O   0  0  0  0  0  0  0  0  0  0  0  0
   17.8012   -6.1919  -14.9611 N   0  0  0  0  0  0  0  0  0  0  0  0
   19.0142   -5.4389  -14.6262 C   0  0  1  0  0  0  0  0  0  0  0  0
   20.2512   -6.1748  -14.9723 C   0  0  0  0  0  0  0  0  0  0  0  0
   21.4771   -5.4074  -14.6444 C   0  0  0  0  0  0  0  0  0  0  0  0
   22.7519   -6.0197  -15.0034 C   0  0  0  0  0  0  0  0  0  0  0  0
   22.9124   -7.2307  -14.6365 O   0  0  0  0  0  0  0  0  0  0  0  0
   18.9279   -4.0550  -15.1406 C   0  0  0  0  0  0  0  0  0  0  0  0
   18.8316   -3.6817  -16.4581 O   0  0  0  0  0  0  0  0  0  0  0  0
   23.7989   -5.4611  -15.6839 O   0  0  0  0  0  0  0  0  0  0  0  0
   18.9446   -3.1154  -14.2936 O   0  0  0  0  0  0  0  0  0  0  0  0
  2  4  1  0
  2  3  1  0
  2  1  1  6
  4  5  2  0
  6  7  1  0
  6  4  1  0
  7 11  1  0
  8  9  1  0
  7  8  1  1
  9 10  2  0
 11 12  2  0
 11 14  1  0
 13  9  1  0
 14 15  1  0
 15 16  1  6
 16 17  1  0
 17 18  1  0
 18 22  1  0
 19 18  2  0
 20 21  1  0
 20 15  1  0
 23 20  2  0
M  END
$$$$
