ADE.pdb
     RDKit          3D

 23 22  0  0  1  0  0  0  0  0999 V2000
   15.8162  -11.7501  -12.5472 C   0  0  0  0  0  0  0  0  0  0  0  0
   14.9215  -10.8864  -11.6531 C   0  0  2  0  0  0  0  0  0  0  0  0
   13.5780  -10.8292  -12.1329 N   0  0  0  0  0  0  0  0  0  0  0  0
   15.5687   -9.5534  -11.5546 C   0  0  0  0  0  0  0  0  0  0  0  0
   15.6260   -8.8491  -12.5700 O   0  0  0  0  0  0  0  0  0  0  0  0
   16.1275   -9.0338  -10.3659 N   0  0  0  0  0  0  0  0  0  0  0  0
   16.7364   -7.7471  -10.2469 C   0  0  1  0  0  0  0  0  0  0  0  0
   16.6300   -7.1361   -8.8767 C   0  0  0  0  0  0  0  0  0  0  0  0
   17.2412   -5.7997   -8.8229 C   0  0  0  0  0  0  0  0  0  0  0  0
   18.2480   -5.6015   -8.1141 O   0  0  0  0  0  0  0  0  0  0  0  0
   18.1509   -7.7415  -10.7281 C   0  0  0  0  0  0  0  0  0  0  0  0
   18.8261   -8.7881  -10.6016 O   0  0  0  0  0  0  0  0  0  0  0  0
   16.6948   -4.7698   -9.5595 O   0  0  0  0  0  0  0  0  0  0  0  0
   18.7604   -6.6133  -11.3176 N   0  0  0  0  0  0  0  0  0  0  0  0
   20.0187   -6.6653  -12.0690 C   0  0  1  0  0  0  0  0  0  0  0  0
   20.0309   -7.7477  -13.0788 C   0  0  0  0  0  0  0  0  0  0  0  0
   21.3106   -7.8112  -13.8254 C   0  0  0  0  0  0  0  0  0  0  0  0
   21.4019   -8.8042  -14.8905 C   0  0  0  0  0  0  0  0  0  0  0  0
   20.9091   -8.4624  -16.0161 O   0  0  0  0  0  0  0  0  0  0  0  0
   20.3850   -5.3218  -12.5668 C   0  0  0  0  0  0  0  0  0  0  0  0
   21.6559   -4.8626  -12.8083 O   0  0  0  0  0  0  0  0  0  0  0  0
   21.9488  -10.0570  -14.8370 O   0  0  0  0  0  0  0  0  0  0  0  0
   19.4441   -4.5074  -12.7949 O   0  0  0  0  0  0  0  0  0  0  0  0
  2  4  1  0
  2  3  1  0
  2  1  1  6
  4  5  2  0
  6  7  1  0
  6  4  1  0
  7 11  1  0
  8  9  1  0
  7  8  1  1
  9 10  2  0
 11 12  2  0
 11 14  1  0
 13  9  1  0
 14 15  1  0
 15 16  1  6
 16 17  1  0
 17 18  1  0
 18 22  1  0
 19 18  2  0
 20 21  1  0
 20 15  1  0
 23 20  2  0
M  END
$$$$
