ADE.pdb
     RDKit          3D

 23 22  0  0  1  0  0  0  0  0999 V2000
   20.3072  -12.0782  -19.3758 C   0  0  0  0  0  0  0  0  0  0  0  0
   20.6990  -11.8867  -17.9076 C   0  0  2  0  0  0  0  0  0  0  0  0
   20.1582  -12.9084  -17.0698 N   0  0  0  0  0  0  0  0  0  0  0  0
   20.2679  -10.5190  -17.5212 C   0  0  0  0  0  0  0  0  0  0  0  0
   20.0941   -9.6810  -18.4146 O   0  0  0  0  0  0  0  0  0  0  0  0
   20.0414  -10.1103  -16.1882 N   0  0  0  0  0  0  0  0  0  0  0  0
   19.4848   -8.8517  -15.8057 C   0  0  1  0  0  0  0  0  0  0  0  0
   18.3653   -8.9480  -14.8059 C   0  0  0  0  0  0  0  0  0  0  0  0
   17.8045   -7.6278  -14.4813 C   0  0  0  0  0  0  0  0  0  0  0  0
   18.0269   -7.1114  -13.3682 O   0  0  0  0  0  0  0  0  0  0  0  0
   20.5283   -7.8841  -15.3507 C   0  0  0  0  0  0  0  0  0  0  0  0
   21.4473   -8.3045  -14.6118 O   0  0  0  0  0  0  0  0  0  0  0  0
   17.0330   -6.9667  -15.4138 O   0  0  0  0  0  0  0  0  0  0  0  0
   20.5264   -6.5204  -15.7143 N   0  0  0  0  0  0  0  0  0  0  0  0
   21.6037   -5.5846  -15.3764 C   0  0  1  0  0  0  0  0  0  0  0  0
   21.6955   -4.4577  -16.3320 C   0  0  0  0  0  0  0  0  0  0  0  0
   22.8237   -3.5455  -16.0252 C   0  0  0  0  0  0  0  0  0  0  0  0
   22.9949   -2.3929  -16.9034 C   0  0  0  0  0  0  0  0  0  0  0  0
   22.8955   -2.6242  -18.1537 O   0  0  0  0  0  0  0  0  0  0  0  0
   21.5388   -5.2081  -13.9477 C   0  0  0  0  0  0  0  0  0  0  0  0
   20.4202   -5.2250  -13.1522 O   0  0  0  0  0  0  0  0  0  0  0  0
   23.2490   -1.0939  -16.5575 O   0  0  0  0  0  0  0  0  0  0  0  0
   22.6121   -4.8311  -13.3942 O   0  0  0  0  0  0  0  0  0  0  0  0
  2  4  1  0
  2  3  1  0
  2  1  1  6
  4  5  2  0
  6  7  1  0
  6  4  1  0
  7 11  1  0
  8  9  1  0
  7  8  1  1
  9 10  2  0
 11 12  2  0
 11 14  1  0
 13  9  1  0
 14 15  1  0
 15 16  1  6
 16 17  1  0
 17 18  1  0
 18 22  1  0
 19 18  2  0
 20 21  1  0
 20 15  1  0
 23 20  2  0
M  END
$$$$
