ADE.pdb
     RDKit          3D

 23 22  0  0  1  0  0  0  0  0999 V2000
   16.1378  -14.2563  -14.9815 C   0  0  0  0  0  0  0  0  0  0  0  0
   16.0661  -12.7904  -15.4195 C   0  0  2  0  0  0  0  0  0  0  0  0
   15.3311  -12.6277  -16.6325 N   0  0  0  0  0  0  0  0  0  0  0  0
   17.4645  -12.2979  -15.5079 C   0  0  0  0  0  0  0  0  0  0  0  0
   18.1399  -12.2513  -14.4724 O   0  0  0  0  0  0  0  0  0  0  0  0
   18.0778  -11.8761  -16.7083 N   0  0  0  0  0  0  0  0  0  0  0  0
   19.4258  -11.4161  -16.8161 C   0  0  1  0  0  0  0  0  0  0  0  0
   20.1592  -11.9262  -18.0260 C   0  0  0  0  0  0  0  0  0  0  0  0
   21.5807  -11.5499  -18.0051 C   0  0  0  0  0  0  0  0  0  0  0  0
   22.2413  -11.5457  -19.0629 O   0  0  0  0  0  0  0  0  0  0  0  0
   19.5282   -9.9290  -16.7145 C   0  0  0  0  0  0  0  0  0  0  0  0
   18.8094   -9.2309  -17.4650 O   0  0  0  0  0  0  0  0  0  0  0  0
   22.1767  -11.2028  -16.8109 O   0  0  0  0  0  0  0  0  0  0  0  0
   20.3961   -9.2756  -15.8136 N   0  0  0  0  0  0  0  0  0  0  0  0
   20.5189   -7.8178  -15.7115 C   0  0  1  0  0  0  0  0  0  0  0  0
   21.3508   -7.3988  -14.5609 C   0  0  0  0  0  0  0  0  0  0  0  0
   21.3041   -5.9344  -14.3319 C   0  0  0  0  0  0  0  0  0  0  0  0
   22.1689   -5.4050  -13.2826 C   0  0  0  0  0  0  0  0  0  0  0  0
   22.6426   -6.2615  -12.4648 O   0  0  0  0  0  0  0  0  0  0  0  0
   20.8923   -7.2329  -17.0175 C   0  0  0  0  0  0  0  0  0  0  0  0
   21.9040   -7.6607  -17.8408 O   0  0  0  0  0  0  0  0  0  0  0  0
   22.5374   -4.1061  -13.0627 O   0  0  0  0  0  0  0  0  0  0  0  0
   20.2218   -6.2407  -17.4257 O   0  0  0  0  0  0  0  0  0  0  0  0
  2  4  1  0
  2  3  1  0
  2  1  1  6
  4  5  2  0
  6  7  1  0
  6  4  1  0
  7 11  1  0
  8  9  1  0
  7  8  1  6
  9 10  2  0
 11 12  2  0
 11 14  1  0
 13  9  1  0
 14 15  1  0
 15 16  1  1
 16 17  1  0
 17 18  1  0
 18 22  1  0
 19 18  2  0
 20 21  1  0
 20 15  1  0
 23 20  2  0
M  END
$$$$
