FDM.pdb
     RDKit          3D

 28 28  0  0  1  0  0  0  0  0999 V2000
   25.2655  -13.5583  -18.9804 N   0  0  0  0  0  0  0  0  0  0  0  0
   25.5864  -14.7661  -18.2737 C   0  0  1  0  0  0  0  0  0  0  0  0
   25.9050  -14.3508  -16.8318 C   0  0  0  0  0  0  0  0  0  0  0  0
   27.1768  -13.5674  -16.8783 C   0  0  0  0  0  0  0  0  0  0  0  0
   28.3897  -14.1908  -17.1715 C   0  0  0  0  0  0  0  0  0  0  0  0
   29.5770  -13.4991  -17.2227 C   0  0  0  0  0  0  0  0  0  0  0  0
   29.5898  -12.1492  -16.9801 C   0  0  0  0  0  0  0  0  0  0  0  0
   28.4136  -11.5127  -16.6900 C   0  0  0  0  0  0  0  0  0  0  0  0
   27.2293  -12.2108  -16.6404 C   0  0  0  0  0  0  0  0  0  0  0  0
   24.5194  -15.7717  -18.3237 C   0  0  0  0  0  0  0  0  0  0  0  0
   23.3232  -15.3950  -18.3069 O   0  0  0  0  0  0  0  0  0  0  0  0
   24.7908  -17.1557  -18.3905 N   0  0  0  0  0  0  0  0  0  0  0  0
   23.7780  -18.1758  -18.5362 C   0  0  1  0  0  0  0  0  0  0  0  0
   24.3196  -19.2834  -19.3920 C   0  0  0  0  0  0  0  0  0  0  0  0
   24.5119  -18.9326  -20.7927 C   0  0  0  0  0  0  0  0  0  0  0  0
   23.6021  -18.3349  -21.4138 O   0  0  0  0  0  0  0  0  0  0  0  0
   23.4512  -18.6926  -17.1883 C   0  0  0  0  0  0  0  0  0  0  0  0
   24.3578  -19.0718  -16.4051 O   0  0  0  0  0  0  0  0  0  0  0  0
   25.6802  -19.2443  -21.4587 O   0  0  0  0  0  0  0  0  0  0  0  0
   19.8128  -15.6823  -13.4566 C   0  0  0  0  0  0  0  0  0  0  0  0
   19.9152  -17.1095  -12.3752 S   0  0  0  0  0  0  0  0  0  0  0  0
   20.8068  -18.4974  -13.1407 C   0  0  0  0  0  0  0  0  0  0  0  0
   21.1152  -18.1069  -14.5558 C   0  0  0  0  0  0  0  0  0  0  0  0
   21.7877  -19.1905  -15.3471 C   0  0  2  0  0  0  0  0  0  0  0  0
   22.1128  -18.7940  -16.6949 N   0  0  0  0  0  0  0  0  0  0  0  0
   20.9158  -20.3913  -15.4008 C   0  0  0  0  0  0  0  0  0  0  0  0
   21.2319  -21.5300  -14.6860 O   0  0  0  0  0  0  0  0  0  0  0  0
   19.8580  -20.4260  -16.0943 O   0  0  0  0  0  0  0  0  0  0  0  0
  2  1  1  6
  2 10  1  0
  3  2  1  0
  4  3  1  0
  4  9  2  0
  5  4  1  0
  6  5  2  0
  6  7  1  0
  7  8  2  0
  8  9  1  0
 10 11  2  0
 12 10  1  0
 12 13  1  0
 13 14  1  6
 14 15  1  0
 15 19  1  0
 16 15  2  0
 17 25  1  0
 17 13  1  0
 18 17  2  0
 20 21  1  0
 22 21  1  0
 23 22  1  0
 24 23  1  6
 24 25  1  0
 26 27  1  0
 26 24  1  0
 28 26  2  0
M  END
$$$$
