FDM.pdb
     RDKit          3D

 28 28  0  0  1  0  0  0  0  0999 V2000
   25.6551  -11.1851  -18.2117 N   0  0  0  0  0  0  0  0  0  0  0  0
   25.2197  -10.6244  -16.9638 C   0  0  1  0  0  0  0  0  0  0  0  0
   26.4091   -9.8300  -16.4092 C   0  0  0  0  0  0  0  0  0  0  0  0
   27.5089  -10.8120  -16.1652 C   0  0  0  0  0  0  0  0  0  0  0  0
   28.7116  -10.7265  -16.8664 C   0  0  0  0  0  0  0  0  0  0  0  0
   29.7431  -11.6133  -16.6654 C   0  0  0  0  0  0  0  0  0  0  0  0
   29.6038  -12.6235  -15.7481 C   0  0  0  0  0  0  0  0  0  0  0  0
   28.4338  -12.7302  -15.0463 C   0  0  0  0  0  0  0  0  0  0  0  0
   27.4059  -11.8396  -15.2524 C   0  0  0  0  0  0  0  0  0  0  0  0
   24.0210   -9.7877  -17.0874 C   0  0  0  0  0  0  0  0  0  0  0  0
   23.7985   -9.1947  -18.1699 O   0  0  0  0  0  0  0  0  0  0  0  0
   23.1033   -9.6246  -16.0269 N   0  0  0  0  0  0  0  0  0  0  0  0
   21.8929   -8.8403  -16.1138 C   0  0  1  0  0  0  0  0  0  0  0  0
   20.9673   -9.2455  -15.0040 C   0  0  0  0  0  0  0  0  0  0  0  0
   19.6802   -8.5637  -15.0046 C   0  0  0  0  0  0  0  0  0  0  0  0
   19.3223   -7.9132  -16.0144 O   0  0  0  0  0  0  0  0  0  0  0  0
   22.2601   -7.4137  -15.9697 C   0  0  0  0  0  0  0  0  0  0  0  0
   22.9735   -7.0245  -15.0112 O   0  0  0  0  0  0  0  0  0  0  0  0
   18.8375   -8.6162  -13.9123 O   0  0  0  0  0  0  0  0  0  0  0  0
   25.1338   -3.8639  -20.0049 C   0  0  0  0  0  0  0  0  0  0  0  0
   24.1093   -2.5328  -19.3762 S   0  0  0  0  0  0  0  0  0  0  0  0
   23.2174   -2.9997  -17.8618 C   0  0  0  0  0  0  0  0  0  0  0  0
   22.8515   -4.4491  -17.9852 C   0  0  0  0  0  0  0  0  0  0  0  0
   22.1909   -5.0104  -16.7599 C   0  0  2  0  0  0  0  0  0  0  0  0
   21.8390   -6.4028  -16.8893 N   0  0  0  0  0  0  0  0  0  0  0  0
   20.9631   -4.2354  -16.4488 C   0  0  0  0  0  0  0  0  0  0  0  0
   19.7151   -4.8219  -16.5272 O   0  0  0  0  0  0  0  0  0  0  0  0
   21.0031   -3.0191  -16.1024 O   0  0  0  0  0  0  0  0  0  0  0  0
  2  1  1  6
  2 10  1  0
  3  2  1  0
  4  3  1  0
  4  9  2  0
  5  4  1  0
  6  5  2  0
  6  7  1  0
  7  8  2  0
  8  9  1  0
 10 11  2  0
 12 10  1  0
 12 13  1  0
 13 14  1  1
 14 15  1  0
 15 19  1  0
 16 15  2  0
 17 25  1  0
 17 13  1  0
 18 17  2  0
 20 21  1  0
 22 21  1  0
 23 22  1  0
 24 23  1  6
 24 25  1  0
 26 27  1  0
 26 24  1  0
 28 26  2  0
M  END
$$$$
