FDM.pdb
     RDKit          3D

 28 28  0  0  1  0  0  0  0  0999 V2000
   25.3309  -18.1309  -15.8191 N   0  0  0  0  0  0  0  0  0  0  0  0
   26.2020  -18.4921  -14.7366 C   0  0  1  0  0  0  0  0  0  0  0  0
   26.9198  -17.2046  -14.3122 C   0  0  0  0  0  0  0  0  0  0  0  0
   27.8633  -16.8514  -15.4161 C   0  0  0  0  0  0  0  0  0  0  0  0
   28.9139  -17.7029  -15.7579 C   0  0  0  0  0  0  0  0  0  0  0  0
   29.7988  -17.4079  -16.7682 C   0  0  0  0  0  0  0  0  0  0  0  0
   29.6603  -16.2410  -17.4758 C   0  0  0  0  0  0  0  0  0  0  0  0
   28.6379  -15.3876  -17.1608 C   0  0  0  0  0  0  0  0  0  0  0  0
   27.7562  -15.6889  -16.1489 C   0  0  0  0  0  0  0  0  0  0  0  0
   25.5023  -19.1180  -13.6094 C   0  0  0  0  0  0  0  0  0  0  0  0
   24.5441  -18.5125  -13.0725 O   0  0  0  0  0  0  0  0  0  0  0  0
   25.8696  -20.3840  -13.1036 N   0  0  0  0  0  0  0  0  0  0  0  0
   25.1896  -21.0537  -12.0188 C   0  0  1  0  0  0  0  0  0  0  0  0
   24.9104  -22.4730  -12.4191 C   0  0  0  0  0  0  0  0  0  0  0  0
   23.9632  -22.6216  -13.5156 C   0  0  0  0  0  0  0  0  0  0  0  0
   22.8608  -22.0271  -13.4690 O   0  0  0  0  0  0  0  0  0  0  0  0
   26.0786  -21.0281  -10.8357 C   0  0  0  0  0  0  0  0  0  0  0  0
   27.2082  -21.5778  -10.8651 O   0  0  0  0  0  0  0  0  0  0  0  0
   24.2511  -23.4070  -14.6138 O   0  0  0  0  0  0  0  0  0  0  0  0
   29.5660  -18.6676   -4.3766 C   0  0  0  0  0  0  0  0  0  0  0  0
   28.6557  -18.3979   -5.8983 S   0  0  0  0  0  0  0  0  0  0  0  0
   27.7328  -19.8735   -6.4255 C   0  0  0  0  0  0  0  0  0  0  0  0
   27.1464  -19.5780   -7.7742 C   0  0  0  0  0  0  0  0  0  0  0  0
   26.3336  -20.7066   -8.3383 C   0  0  2  0  0  0  0  0  0  0  0  0
   25.7227  -20.3910   -9.6059 N   0  0  0  0  0  0  0  0  0  0  0  0
   25.2679  -21.0901   -7.3781 C   0  0  0  0  0  0  0  0  0  0  0  0
   25.5833  -21.6321   -6.1476 O   0  0  0  0  0  0  0  0  0  0  0  0
   24.0389  -20.9403   -7.6395 O   0  0  0  0  0  0  0  0  0  0  0  0
  2  1  1  6
  2 10  1  0
  3  2  1  0
  4  3  1  0
  4  9  2  0
  5  4  1  0
  6  5  2  0
  6  7  1  0
  7  8  2  0
  8  9  1  0
 10 11  2  0
 12 10  1  0
 12 13  1  0
 13 14  1  6
 14 15  1  0
 15 19  1  0
 16 15  2  0
 17 25  1  0
 17 13  1  0
 18 17  2  0
 20 21  1  0
 22 21  1  0
 23 22  1  0
 24 23  1  1
 24 25  1  0
 26 27  1  0
 26 24  1  0
 28 26  2  0
M  END
$$$$
