FDM.pdb
     RDKit          3D

 28 28  0  0  1  0  0  0  0  0999 V2000
   24.9064  -14.0368  -18.4879 N   0  0  0  0  0  0  0  0  0  0  0  0
   24.3672  -13.5157  -17.2636 C   0  0  1  0  0  0  0  0  0  0  0  0
   25.5682  -13.1983  -16.3636 C   0  0  0  0  0  0  0  0  0  0  0  0
   26.1787  -14.5071  -15.9797 C   0  0  0  0  0  0  0  0  0  0  0  0
   27.2694  -15.0202  -16.6817 C   0  0  0  0  0  0  0  0  0  0  0  0
   27.8545  -16.2206  -16.3539 C   0  0  0  0  0  0  0  0  0  0  0  0
   27.3632  -16.9534  -15.3037 C   0  0  0  0  0  0  0  0  0  0  0  0
   26.2937  -16.4730  -14.5979 C   0  0  0  0  0  0  0  0  0  0  0  0
   25.7131  -15.2713  -14.9313 C   0  0  0  0  0  0  0  0  0  0  0  0
   23.5110  -12.3403  -17.4575 C   0  0  0  0  0  0  0  0  0  0  0  0
   23.7938  -11.5210  -18.3640 O   0  0  0  0  0  0  0  0  0  0  0  0
   22.3740  -12.0959  -16.6569 N   0  0  0  0  0  0  0  0  0  0  0  0
   21.4601  -10.9950  -16.8586 C   0  0  1  0  0  0  0  0  0  0  0  0
   20.1097  -11.3773  -16.3269 C   0  0  0  0  0  0  0  0  0  0  0  0
   19.4283  -12.4173  -17.0856 C   0  0  0  0  0  0  0  0  0  0  0  0
   19.2040  -13.5293  -16.5525 O   0  0  0  0  0  0  0  0  0  0  0  0
   21.9821   -9.8248  -16.1176 C   0  0  0  0  0  0  0  0  0  0  0  0
   22.4743   -9.9554  -14.9688 O   0  0  0  0  0  0  0  0  0  0  0  0
   19.0198  -12.2078  -18.3876 O   0  0  0  0  0  0  0  0  0  0  0  0
   26.0235   -3.1490  -16.8264 C   0  0  0  0  0  0  0  0  0  0  0  0
   25.2730   -4.6568  -17.4428 S   0  0  0  0  0  0  0  0  0  0  0  0
   24.1563   -5.4225  -16.2289 C   0  0  0  0  0  0  0  0  0  0  0  0
   23.5201   -6.6091  -16.8902 C   0  0  0  0  0  0  0  0  0  0  0  0
   22.5878   -7.3707  -15.9938 C   0  0  2  0  0  0  0  0  0  0  0  0
   21.9633   -8.4957  -16.6448 N   0  0  0  0  0  0  0  0  0  0  0  0
   21.5266   -6.4659  -15.4838 C   0  0  0  0  0  0  0  0  0  0  0  0
   21.6701   -5.8155  -14.2739 O   0  0  0  0  0  0  0  0  0  0  0  0
   20.4570   -6.2523  -16.1252 O   0  0  0  0  0  0  0  0  0  0  0  0
  2  1  1  6
  2 10  1  0
  3  2  1  0
  4  3  1  0
  4  9  2  0
  5  4  1  0
  6  5  2  0
  6  7  1  0
  7  8  2  0
  8  9  1  0
 10 11  2  0
 12 10  1  0
 12 13  1  0
 13 14  1  1
 14 15  1  0
 15 19  1  0
 16 15  2  0
 17 25  1  0
 17 13  1  0
 18 17  2  0
 20 21  1  0
 22 21  1  0
 23 22  1  0
 24 23  1  6
 24 25  1  0
 26 27  1  0
 26 24  1  0
 28 26  2  0
M  END
$$$$
