FDM.pdb
     RDKit          3D

 28 28  0  0  1  0  0  0  0  0999 V2000
   18.2227  -15.3352    6.9601 N   0  0  0  0  0  0  0  0  0  0  0  0
   17.8481  -16.4078    6.0822 C   0  0  1  0  0  0  0  0  0  0  0  0
   18.6537  -16.2105    4.7917 C   0  0  0  0  0  0  0  0  0  0  0  0
   18.2092  -14.9129    4.1984 C   0  0  0  0  0  0  0  0  0  0  0  0
   16.9319  -14.7761    3.6550 C   0  0  0  0  0  0  0  0  0  0  0  0
   16.4919  -13.5964    3.1022 C   0  0  0  0  0  0  0  0  0  0  0  0
   17.3228  -12.5055    3.0747 C   0  0  0  0  0  0  0  0  0  0  0  0
   18.5815  -12.6126    3.6012 C   0  0  0  0  0  0  0  0  0  0  0  0
   19.0152  -13.7957    4.1527 C   0  0  0  0  0  0  0  0  0  0  0  0
   18.0692  -17.7380    6.6598 C   0  0  0  0  0  0  0  0  0  0  0  0
   19.1708  -17.9935    7.2022 O   0  0  0  0  0  0  0  0  0  0  0  0
   17.0821  -18.7471    6.6276 N   0  0  0  0  0  0  0  0  0  0  0  0
   17.2915  -20.1028    7.0813 C   0  0  1  0  0  0  0  0  0  0  0  0
   16.2600  -20.4354    8.1195 C   0  0  0  0  0  0  0  0  0  0  0  0
   16.3754  -21.7722    8.6866 C   0  0  0  0  0  0  0  0  0  0  0  0
   17.3124  -22.5218    8.3244 O   0  0  0  0  0  0  0  0  0  0  0  0
   17.1444  -21.0036    5.9161 C   0  0  0  0  0  0  0  0  0  0  0  0
   16.0408  -21.1218    5.3270 O   0  0  0  0  0  0  0  0  0  0  0  0
   15.4717  -22.2382    9.6203 O   0  0  0  0  0  0  0  0  0  0  0  0
   22.1286  -24.4646    3.4726 C   0  0  0  0  0  0  0  0  0  0  0  0
   20.9115  -24.7550    2.1877 S   0  0  0  0  0  0  0  0  0  0  0  0
   19.2375  -24.2542    2.6917 C   0  0  0  0  0  0  0  0  0  0  0  0
   19.3829  -23.2494    3.7959 C   0  0  0  0  0  0  0  0  0  0  0  0
   18.0742  -22.7196    4.3049 C   0  0  2  0  0  0  0  0  0  0  0  0
   18.2222  -21.7837    5.3919 N   0  0  0  0  0  0  0  0  0  0  0  0
   17.2165  -23.8440    4.7577 C   0  0  0  0  0  0  0  0  0  0  0  0
   16.0138  -24.1142    4.1347 O   0  0  0  0  0  0  0  0  0  0  0  0
   17.5434  -24.5957    5.7216 O   0  0  0  0  0  0  0  0  0  0  0  0
  2  1  1  1
  2 10  1  0
  3  2  1  0
  4  3  1  0
  4  9  2  0
  5  4  1  0
  6  5  2  0
  6  7  1  0
  7  8  2  0
  8  9  1  0
 10 11  2  0
 12 10  1  0
 12 13  1  0
 13 14  1  1
 14 15  1  0
 15 19  1  0
 16 15  2  0
 17 25  1  0
 17 13  1  0
 18 17  2  0
 20 21  1  0
 22 21  1  0
 23 22  1  0
 24 23  1  1
 24 25  1  0
 26 27  1  0
 26 24  1  0
 28 26  2  0
M  END
$$$$
