FDM.pdb
     RDKit          3D

 28 28  0  0  1  0  0  0  0  0999 V2000
   24.8798  -20.5508  -14.1480 N   0  0  0  0  0  0  0  0  0  0  0  0
   24.4783  -20.8449  -12.8013 C   0  0  1  0  0  0  0  0  0  0  0  0
   25.2687  -19.8905  -11.8971 C   0  0  0  0  0  0  0  0  0  0  0  0
   26.7165  -20.1979  -12.1045 C   0  0  0  0  0  0  0  0  0  0  0  0
   27.3207  -21.2694  -11.4469 C   0  0  0  0  0  0  0  0  0  0  0  0
   28.6497  -21.5792  -11.6160 C   0  0  0  0  0  0  0  0  0  0  0  0
   29.4244  -20.8205  -12.4560 C   0  0  0  0  0  0  0  0  0  0  0  0
   28.8564  -19.7633  -13.1137 C   0  0  0  0  0  0  0  0  0  0  0  0
   27.5263  -19.4589  -12.9399 C   0  0  0  0  0  0  0  0  0  0  0  0
   23.0326  -20.7227  -12.5842 C   0  0  0  0  0  0  0  0  0  0  0  0
   22.5647  -19.6297  -12.1849 O   0  0  0  0  0  0  0  0  0  0  0  0
   22.1434  -21.7960  -12.8093 N   0  0  0  0  0  0  0  0  0  0  0  0
   20.7163  -21.7273  -12.5940 C   0  0  1  0  0  0  0  0  0  0  0  0
   20.0348  -21.4848  -13.9090 C   0  0  0  0  0  0  0  0  0  0  0  0
   20.0007  -20.0906  -14.3295 C   0  0  0  0  0  0  0  0  0  0  0  0
   19.5756  -19.2141  -13.5409 O   0  0  0  0  0  0  0  0  0  0  0  0
   20.2756  -23.0219  -12.0277 C   0  0  0  0  0  0  0  0  0  0  0  0
   20.6658  -24.1090  -12.5226 O   0  0  0  0  0  0  0  0  0  0  0  0
   20.4282  -19.7070  -15.5849 O   0  0  0  0  0  0  0  0  0  0  0  0
   18.3618  -24.4255   -5.8691 C   0  0  0  0  0  0  0  0  0  0  0  0
   17.1437  -25.3061   -6.8477 S   0  0  0  0  0  0  0  0  0  0  0  0
   17.6940  -25.5783   -8.5594 C   0  0  0  0  0  0  0  0  0  0  0  0
   18.2377  -24.2763   -9.0685 C   0  0  0  0  0  0  0  0  0  0  0  0
   18.8319  -24.3678  -10.4437 C   0  0  2  0  0  0  0  0  0  0  0  0
   19.3962  -23.1234  -10.9047 N   0  0  0  0  0  0  0  0  0  0  0  0
   17.7969  -24.8097  -11.4123 C   0  0  0  0  0  0  0  0  0  0  0  0
   17.7368  -26.1226  -11.8366 O   0  0  0  0  0  0  0  0  0  0  0  0
   16.9344  -24.0147  -11.8870 O   0  0  0  0  0  0  0  0  0  0  0  0
  2  1  1  6
  2 10  1  0
  3  2  1  0
  4  3  1  0
  4  9  2  0
  5  4  1  0
  6  5  2  0
  6  7  1  0
  7  8  2  0
  8  9  1  0
 10 11  2  0
 12 10  1  0
 12 13  1  0
 13 14  1  6
 14 15  1  0
 15 19  1  0
 16 15  2  0
 17 25  1  0
 17 13  1  0
 18 17  2  0
 20 21  1  0
 22 21  1  0
 23 22  1  0
 24 23  1  1
 24 25  1  0
 26 27  1  0
 26 24  1  0
 28 26  2  0
M  END
$$$$
