DMS.pdb
     RDKit          3D

 23 22  0  0  1  0  0  0  0  0999 V2000
    7.1991  -16.3911   20.6708 N   0  0  0  0  0  0  0  0  0  0  0  0
    8.5956  -16.0436   20.7352 C   0  0  1  0  0  0  0  0  0  0  0  0
    8.8515  -14.9948   19.6749 C   0  0  0  0  0  0  0  0  0  0  0  0
    8.8634  -15.6524   18.3402 C   0  0  0  0  0  0  0  0  0  0  0  0
    8.6462  -16.8819   18.2469 O   0  0  0  0  0  0  0  0  0  0  0  0
    9.0074  -15.6031   22.0801 C   0  0  0  0  0  0  0  0  0  0  0  0
   10.1756  -15.2475   22.3682 O   0  0  0  0  0  0  0  0  0  0  0  0
    9.1120  -14.9414   17.1569 O   0  0  0  0  0  0  0  0  0  0  0  0
    6.3176  -10.6723   26.3933 C   0  0  0  0  0  0  0  0  0  0  0  0
    6.3853  -12.4778   26.5148 S   0  0  0  0  0  0  0  0  0  0  0  0
    7.3174  -13.1821   25.1143 C   0  0  0  0  0  0  0  0  0  0  0  0
    7.3377  -14.6884   25.3090 C   0  0  0  0  0  0  0  0  0  0  0  0
    8.4297  -15.3386   24.4909 C   0  0  2  0  0  0  0  0  0  0  0  0
    8.0579  -15.5669   23.1304 N   0  0  0  0  0  0  0  0  0  0  0  0
    8.9655  -16.5517   25.1566 C   0  0  0  0  0  0  0  0  0  0  0  0
    8.2350  -17.5691   25.2278 O   0  0  0  0  0  0  0  0  0  0  0  0
   12.4523  -17.8553   24.6281 O   0  0  0  0  0  0  0  0  0  0  0  0
   12.2673  -18.0421   25.9999 C   0  0  0  0  0  0  0  0  0  0  0  0
   10.7893  -17.8799   26.2783 C   0  0  2  0  0  0  0  0  0  0  0  0
   10.2591  -16.6594   25.7295 N   0  0  0  0  0  0  0  0  0  0  0  0
   10.5504  -17.8833   27.7379 C   0  0  0  0  0  0  0  0  0  0  0  0
   10.9168  -18.9540   28.5391 O   0  0  0  0  0  0  0  0  0  0  0  0
   10.0002  -16.9106   28.3273 O   0  0  0  0  0  0  0  0  0  0  0  0
  2  1  1  1
  3  2  1  0
  4  3  1  0
  5  4  2  0
  6  2  1  0
  7  6  2  0
  8  4  1  0
 10  9  1  0
 10 11  1  0
 11 12  1  0
 13 12  1  1
 13 15  1  0
 13 14  1  0
 14  6  1  0
 15 20  1  0
 16 15  2  0
 18 17  1  0
 19 18  1  1
 19 21  1  0
 20 19  1  0
 21 23  2  0
 21 22  1  0
M  END
$$$$
