DMS.pdb
     RDKit          3D

 23 22  0  0  1  0  0  0  0  0999 V2000
    7.6010  -16.7843   20.7964 N   0  0  0  0  0  0  0  0  0  0  0  0
    8.7746  -15.9493   20.7686 C   0  0  1  0  0  0  0  0  0  0  0  0
    8.7167  -15.1274   19.4994 C   0  0  0  0  0  0  0  0  0  0  0  0
    8.7742  -16.0443   18.3290 C   0  0  0  0  0  0  0  0  0  0  0  0
    7.7794  -16.1636   17.5784 O   0  0  0  0  0  0  0  0  0  0  0  0
    8.9055  -15.1172   21.9780 C   0  0  0  0  0  0  0  0  0  0  0  0
    8.8740  -13.8630   21.9663 O   0  0  0  0  0  0  0  0  0  0  0  0
    9.9177  -16.7968   18.0224 O   0  0  0  0  0  0  0  0  0  0  0  0
    7.2716  -11.8357   27.4052 C   0  0  0  0  0  0  0  0  0  0  0  0
    7.8161  -12.8140   25.9820 S   0  0  0  0  0  0  0  0  0  0  0  0
    6.5820  -14.0921   25.5701 C   0  0  0  0  0  0  0  0  0  0  0  0
    7.0783  -14.8002   24.3213 C   0  0  0  0  0  0  0  0  0  0  0  0
    8.5355  -15.1827   24.4427 C   0  0  2  0  0  0  0  0  0  0  0  0
    9.0780  -15.7339   23.2414 N   0  0  0  0  0  0  0  0  0  0  0  0
    8.7821  -16.0329   25.6335 C   0  0  0  0  0  0  0  0  0  0  0  0
    7.8133  -16.6436   26.1458 O   0  0  0  0  0  0  0  0  0  0  0  0
   12.5172  -17.1465   26.1007 O   0  0  0  0  0  0  0  0  0  0  0  0
   11.5876  -18.1086   26.5021 C   0  0  0  0  0  0  0  0  0  0  0  0
   10.3849  -17.3694   27.0456 C   0  0  2  0  0  0  0  0  0  0  0  0
   10.0456  -16.2171   26.2524 N   0  0  0  0  0  0  0  0  0  0  0  0
   10.6525  -16.9259   28.4309 C   0  0  0  0  0  0  0  0  0  0  0  0
   11.0683  -17.8080   29.4166 O   0  0  0  0  0  0  0  0  0  0  0  0
   10.5152  -15.7209   28.7852 O   0  0  0  0  0  0  0  0  0  0  0  0
  2  1  1  1
  3  2  1  0
  4  3  1  0
  5  4  2  0
  6  2  1  0
  7  6  2  0
  8  4  1  0
 10  9  1  0
 10 11  1  0
 11 12  1  0
 13 12  1  6
 13 15  1  0
 13 14  1  0
 14  6  1  0
 15 20  1  0
 16 15  2  0
 18 17  1  0
 19 18  1  6
 19 21  1  0
 20 19  1  0
 21 23  2  0
 21 22  1  0
M  END
$$$$
