DMS.pdb
     RDKit          3D

 23 22  0  0  1  0  0  0  0  0999 V2000
    8.5815  -14.9000   19.8825 N   0  0  0  0  0  0  0  0  0  0  0  0
    8.4921  -16.0184   20.7861 C   0  0  1  0  0  0  0  0  0  0  0  0
    9.4232  -17.0939   20.2703 C   0  0  0  0  0  0  0  0  0  0  0  0
    9.0338  -17.4398   18.8765 C   0  0  0  0  0  0  0  0  0  0  0  0
    9.7778  -17.1203   17.9217 O   0  0  0  0  0  0  0  0  0  0  0  0
    8.7781  -15.6419   22.1821 C   0  0  0  0  0  0  0  0  0  0  0  0
    9.8806  -15.8451   22.7454 O   0  0  0  0  0  0  0  0  0  0  0  0
    7.8454  -18.1227   18.5782 O   0  0  0  0  0  0  0  0  0  0  0  0
    8.6631  -11.6260   27.4154 C   0  0  0  0  0  0  0  0  0  0  0  0
    7.0309  -12.0852   26.7794 S   0  0  0  0  0  0  0  0  0  0  0  0
    6.9394  -13.8820   26.4806 C   0  0  0  0  0  0  0  0  0  0  0  0
    6.7497  -14.0729   24.9857 C   0  0  0  0  0  0  0  0  0  0  0  0
    7.9138  -14.8141   24.3692 C   0  0  2  0  0  0  0  0  0  0  0  0
    7.7758  -15.0140   22.9613 N   0  0  0  0  0  0  0  0  0  0  0  0
    8.2188  -16.0660   25.1051 C   0  0  0  0  0  0  0  0  0  0  0  0
    7.3317  -16.9501   25.1784 O   0  0  0  0  0  0  0  0  0  0  0  0
   11.8407  -17.5702   25.3664 O   0  0  0  0  0  0  0  0  0  0  0  0
   10.7711  -18.4194   25.6590 C   0  0  0  0  0  0  0  0  0  0  0  0
    9.7395  -17.6000   26.4024 C   0  0  2  0  0  0  0  0  0  0  0  0
    9.4528  -16.3524   25.7441 N   0  0  0  0  0  0  0  0  0  0  0  0
   10.2196  -17.3113   27.7712 C   0  0  0  0  0  0  0  0  0  0  0  0
   10.5517  -18.3217   28.6609 O   0  0  0  0  0  0  0  0  0  0  0  0
   10.3507  -16.1295   28.1981 O   0  0  0  0  0  0  0  0  0  0  0  0
  2  1  1  6
  3  2  1  0
  4  3  1  0
  5  4  2  0
  6  2  1  0
  7  6  2  0
  8  4  1  0
 10  9  1  0
 10 11  1  0
 11 12  1  0
 13 12  1  1
 13 15  1  0
 13 14  1  0
 14  6  1  0
 15 20  1  0
 16 15  2  0
 18 17  1  0
 19 18  1  6
 19 21  1  0
 20 19  1  0
 21 23  2  0
 21 22  1  0
M  END
$$$$
