DMS.pdb
     RDKit          3D

 23 22  0  0  1  0  0  0  0  0999 V2000
    9.3183  -15.5866   19.4549 N   0  0  0  0  0  0  0  0  0  0  0  0
    8.5672  -16.2477   20.4912 C   0  0  1  0  0  0  0  0  0  0  0  0
    8.7104  -17.7385   20.2746 C   0  0  0  0  0  0  0  0  0  0  0  0
    8.0511  -18.1042   18.9919 C   0  0  0  0  0  0  0  0  0  0  0  0
    8.7306  -18.2021   17.9450 O   0  0  0  0  0  0  0  0  0  0  0  0
    8.9785  -15.8286   21.8430 C   0  0  0  0  0  0  0  0  0  0  0  0
   10.1654  -15.8555   22.2486 O   0  0  0  0  0  0  0  0  0  0  0  0
    6.6729  -18.3495   18.9012 O   0  0  0  0  0  0  0  0  0  0  0  0
    7.1759  -10.9576   26.9047 C   0  0  0  0  0  0  0  0  0  0  0  0
    6.4209  -12.6003   26.8017 S   0  0  0  0  0  0  0  0  0  0  0  0
    7.6307  -13.8280   26.2056 C   0  0  0  0  0  0  0  0  0  0  0  0
    7.2881  -14.1184   24.7546 C   0  0  0  0  0  0  0  0  0  0  0  0
    8.3355  -14.9907   24.1014 C   0  0  2  0  0  0  0  0  0  0  0  0
    8.0061  -15.3640   22.7623 N   0  0  0  0  0  0  0  0  0  0  0  0
    8.6938  -16.1504   24.9549 C   0  0  0  0  0  0  0  0  0  0  0  0
    7.7997  -16.9819   25.2434 O   0  0  0  0  0  0  0  0  0  0  0  0
   12.6010  -17.0913   25.7820 O   0  0  0  0  0  0  0  0  0  0  0  0
   11.6935  -18.1504   25.7068 C   0  0  0  0  0  0  0  0  0  0  0  0
   10.3497  -17.6211   26.1565 C   0  0  2  0  0  0  0  0  0  0  0  0
    9.9870  -16.4026   25.4814 N   0  0  0  0  0  0  0  0  0  0  0  0
   10.3735  -17.3640   27.6128 C   0  0  0  0  0  0  0  0  0  0  0  0
   10.0918  -16.1137   28.1421 O   0  0  0  0  0  0  0  0  0  0  0  0
   10.6522  -18.2708   28.4471 O   0  0  0  0  0  0  0  0  0  0  0  0
  2  1  1  6
  3  2  1  0
  4  3  1  0
  5  4  2  0
  6  2  1  0
  7  6  2  0
  8  4  1  0
 10  9  1  0
 10 11  1  0
 11 12  1  0
 13 12  1  1
 13 15  1  0
 13 14  1  0
 14  6  1  0
 15 20  1  0
 16 15  2  0
 18 17  1  0
 19 18  1  6
 19 21  1  0
 20 19  1  0
 21 23  2  0
 21 22  1  0
M  END
$$$$
