DMS.pdb
     RDKit          3D

 23 22  0  0  1  0  0  0  0  0999 V2000
    8.0758  -15.3845   19.2196 N   0  0  0  0  0  0  0  0  0  0  0  0
    8.1336  -16.3805   20.2587 C   0  0  1  0  0  0  0  0  0  0  0  0
    8.9481  -17.5411   19.7300 C   0  0  0  0  0  0  0  0  0  0  0  0
    8.2750  -18.0909   18.5223 C   0  0  0  0  0  0  0  0  0  0  0  0
    8.9520  -18.4025   17.5163 O   0  0  0  0  0  0  0  0  0  0  0  0
    8.6636  -15.8459   21.5258 C   0  0  0  0  0  0  0  0  0  0  0  0
    9.8881  -15.7342   21.7756 O   0  0  0  0  0  0  0  0  0  0  0  0
    6.8866  -18.2801   18.4593 O   0  0  0  0  0  0  0  0  0  0  0  0
    6.9600  -11.2744   27.7151 C   0  0  0  0  0  0  0  0  0  0  0  0
    6.3271  -12.3979   26.4436 S   0  0  0  0  0  0  0  0  0  0  0  0
    7.6770  -13.4082   25.7485 C   0  0  0  0  0  0  0  0  0  0  0  0
    7.1635  -13.9969   24.4459 C   0  0  0  0  0  0  0  0  0  0  0  0
    8.2206  -14.8313   23.7597 C   0  0  2  0  0  0  0  0  0  0  0  0
    7.7699  -15.4251   22.5409 N   0  0  0  0  0  0  0  0  0  0  0  0
    8.8350  -15.8112   24.6892 C   0  0  0  0  0  0  0  0  0  0  0  0
    8.1225  -16.7416   25.1370 O   0  0  0  0  0  0  0  0  0  0  0  0
   12.7592  -17.7553   26.7680 O   0  0  0  0  0  0  0  0  0  0  0  0
   12.2883  -16.6743   26.0191 C   0  0  0  0  0  0  0  0  0  0  0  0
   10.7838  -16.8086   25.9366 C   0  0  2  0  0  0  0  0  0  0  0  0
   10.1862  -15.7837   25.1215 N   0  0  0  0  0  0  0  0  0  0  0  0
   10.1983  -16.7336   27.2926 C   0  0  0  0  0  0  0  0  0  0  0  0
    9.7911  -15.5314   27.8508 O   0  0  0  0  0  0  0  0  0  0  0  0
   10.0403  -17.7614   28.0102 O   0  0  0  0  0  0  0  0  0  0  0  0
  2  1  1  6
  3  2  1  0
  4  3  1  0
  5  4  2  0
  6  2  1  0
  7  6  2  0
  8  4  1  0
 10  9  1  0
 10 11  1  0
 11 12  1  0
 13 12  1  1
 13 15  1  0
 13 14  1  0
 14  6  1  0
 15 20  1  0
 16 15  2  0
 18 17  1  0
 19 18  1  1
 19 21  1  0
 20 19  1  0
 21 23  2  0
 21 22  1  0
M  END
$$$$
