DMS.pdb
     RDKit          3D

 23 22  0  0  1  0  0  0  0  0999 V2000
    8.1122  -16.6884   20.6257 N   0  0  0  0  0  0  0  0  0  0  0  0
    9.4937  -16.6466   21.0317 C   0  0  1  0  0  0  0  0  0  0  0  0
   10.2679  -15.9476   19.9354 C   0  0  0  0  0  0  0  0  0  0  0  0
   10.2694  -16.8094   18.7225 C   0  0  0  0  0  0  0  0  0  0  0  0
    9.2193  -16.9531   18.0561 O   0  0  0  0  0  0  0  0  0  0  0  0
    9.6770  -16.0117   22.3492 C   0  0  0  0  0  0  0  0  0  0  0  0
   10.7995  -15.7817   22.8603 O   0  0  0  0  0  0  0  0  0  0  0  0
   11.4191  -17.4821   18.2829 O   0  0  0  0  0  0  0  0  0  0  0  0
    7.0378  -10.9405   25.9639 C   0  0  0  0  0  0  0  0  0  0  0  0
    6.4373  -12.5179   26.6201 S   0  0  0  0  0  0  0  0  0  0  0  0
    7.6589  -13.8411   26.3321 C   0  0  0  0  0  0  0  0  0  0  0  0
    7.5369  -14.2462   24.8732 C   0  0  0  0  0  0  0  0  0  0  0  0
    8.6464  -15.1876   24.4645 C   0  0  2  0  0  0  0  0  0  0  0  0
    8.5452  -15.6269   23.1087 N   0  0  0  0  0  0  0  0  0  0  0  0
    8.7984  -16.3071   25.4265 C   0  0  0  0  0  0  0  0  0  0  0  0
    7.8121  -17.0523   25.6405 O   0  0  0  0  0  0  0  0  0  0  0  0
   12.3474  -18.0436   26.2069 O   0  0  0  0  0  0  0  0  0  0  0  0
   11.1587  -18.7507   26.4014 C   0  0  0  0  0  0  0  0  0  0  0  0
   10.1465  -17.7781   26.9651 C   0  0  2  0  0  0  0  0  0  0  0  0
    9.9881  -16.6111   26.1374 N   0  0  0  0  0  0  0  0  0  0  0  0
   10.5654  -17.3448   28.3157 C   0  0  0  0  0  0  0  0  0  0  0  0
   10.7248  -18.2445   29.3587 O   0  0  0  0  0  0  0  0  0  0  0  0
   10.7986  -16.1330   28.5864 O   0  0  0  0  0  0  0  0  0  0  0  0
  2  1  1  6
  3  2  1  0
  4  3  1  0
  5  4  2  0
  6  2  1  0
  7  6  2  0
  8  4  1  0
 10  9  1  0
 10 11  1  0
 11 12  1  0
 13 12  1  1
 13 15  1  0
 13 14  1  0
 14  6  1  0
 15 20  1  0
 16 15  2  0
 18 17  1  0
 19 18  1  6
 19 21  1  0
 20 19  1  0
 21 23  2  0
 21 22  1  0
M  END
$$$$
