DGA.pdb
     RDKit          3D

 18 17  0  0  1  0  0  0  0  0999 V2000
    8.7806  -17.5764   20.8283 N   0  0  0  0  0  0  0  0  0  0  0  0
    8.3074  -16.2360   20.7660 C   0  0  1  0  0  0  0  0  0  0  0  0
    7.1810  -16.1332   19.7643 C   0  0  0  0  0  0  0  0  0  0  0  0
    7.5760  -16.4883   18.4096 C   0  0  0  0  0  0  0  0  0  0  0  0
    8.2762  -15.7245   17.7103 O   0  0  0  0  0  0  0  0  0  0  0  0
    7.8824  -15.7008   22.0861 C   0  0  0  0  0  0  0  0  0  0  0  0
    7.6617  -14.4743   22.2502 O   0  0  0  0  0  0  0  0  0  0  0  0
    7.1726  -17.6958   17.8747 O   0  0  0  0  0  0  0  0  0  0  0  0
    7.7044  -16.5403   23.2241 N   0  0  0  0  0  0  0  0  0  0  0  0
    7.2922  -16.0927   24.5182 C   0  0  0  0  0  0  0  0  0  0  0  0
    8.2803  -15.3777   25.3118 C   0  0  0  0  0  0  0  0  0  0  0  0
    9.4822  -15.4330   24.9443 O   0  0  0  0  0  0  0  0  0  0  0  0
    8.4555  -12.7255   27.9386 C   0  0  0  0  0  0  0  0  0  0  0  0
    9.0171  -13.8961   27.1627 C   0  0  2  0  0  0  0  0  0  0  0  0
    7.9818  -14.6250   26.4634 N   0  0  0  0  0  0  0  0  0  0  0  0
    9.6856  -14.8118   28.1203 C   0  0  0  0  0  0  0  0  0  0  0  0
   10.8128  -14.4029   28.7779 O   0  0  0  0  0  0  0  0  0  0  0  0
    9.2153  -15.9701   28.3300 O   0  0  0  0  0  0  0  0  0  0  0  0
  2  1  1  1
  2  3  1  0
  3  4  1  0
  4  5  2  0
  4  8  1  0
  6  7  2  0
  6  2  1  0
  9  6  1  0
 10 11  1  0
 10  9  1  0
 11 12  2  0
 14 13  1  1
 15 14  1  0
 15 11  1  0
 16 17  1  0
 16 14  1  0
 18 16  2  0
M  END
$$$$
