DGA.pdb
     RDKit          3D

 18 17  0  0  1  0  0  0  0  0999 V2000
   10.2226  -18.6446   21.5993 N   0  0  0  0  0  0  0  0  0  0  0  0
   11.1149  -17.5378   21.6557 C   0  0  1  0  0  0  0  0  0  0  0  0
   11.2283  -16.8973   20.2921 C   0  0  0  0  0  0  0  0  0  0  0  0
   11.8422  -17.7612   19.2951 C   0  0  0  0  0  0  0  0  0  0  0  0
   11.3104  -17.9559   18.1807 O   0  0  0  0  0  0  0  0  0  0  0  0
   10.7340  -16.5273   22.6772 C   0  0  0  0  0  0  0  0  0  0  0  0
   11.4320  -15.4994   22.8671 O   0  0  0  0  0  0  0  0  0  0  0  0
   13.0411  -18.3857   19.5775 O   0  0  0  0  0  0  0  0  0  0  0  0
    9.5696  -16.6681   23.4871 N   0  0  0  0  0  0  0  0  0  0  0  0
    9.1348  -15.7255   24.4707 C   0  0  0  0  0  0  0  0  0  0  0  0
    9.9049  -15.6597   25.7036 C   0  0  0  0  0  0  0  0  0  0  0  0
   10.8994  -16.4217   25.8176 O   0  0  0  0  0  0  0  0  0  0  0  0
   10.1666  -13.5362   28.8055 C   0  0  0  0  0  0  0  0  0  0  0  0
   10.4848  -14.7283   27.9307 C   0  0  2  0  0  0  0  0  0  0  0  0
    9.6136  -14.7983   26.7781 N   0  0  0  0  0  0  0  0  0  0  0  0
   10.3100  -15.9598   28.7400 C   0  0  0  0  0  0  0  0  0  0  0  0
   11.2143  -16.2634   29.7199 O   0  0  0  0  0  0  0  0  0  0  0  0
    9.3262  -16.7300   28.5259 O   0  0  0  0  0  0  0  0  0  0  0  0
  2  1  1  6
  2  3  1  0
  3  4  1  0
  4  5  2  0
  4  8  1  0
  6  7  2  0
  6  2  1  0
  9  6  1  0
 10 11  1  0
 10  9  1  0
 11 12  2  0
 14 13  1  1
 15 14  1  0
 15 11  1  0
 16 17  1  0
 16 14  1  0
 18 16  2  0
M  END
$$$$
