DGA.pdb
     RDKit          3D

 18 17  0  0  1  0  0  0  0  0999 V2000
    8.4706  -18.2727   20.1628 N   0  0  0  0  0  0  0  0  0  0  0  0
    9.4105  -17.6772   21.0497 C   0  0  1  0  0  0  0  0  0  0  0  0
   10.4872  -16.9698   20.2604 C   0  0  0  0  0  0  0  0  0  0  0  0
   11.4613  -17.8746   19.6690 C   0  0  0  0  0  0  0  0  0  0  0  0
   11.3782  -19.1132   19.8160 O   0  0  0  0  0  0  0  0  0  0  0  0
    8.7873  -16.7498   22.0302 C   0  0  0  0  0  0  0  0  0  0  0  0
    8.3538  -15.6243   21.6762 O   0  0  0  0  0  0  0  0  0  0  0  0
   12.5062  -17.3622   18.9256 O   0  0  0  0  0  0  0  0  0  0  0  0
    8.6495  -17.0832   23.4090 N   0  0  0  0  0  0  0  0  0  0  0  0
    7.9811  -16.2798   24.3852 C   0  0  0  0  0  0  0  0  0  0  0  0
    8.8211  -15.4941   25.2765 C   0  0  0  0  0  0  0  0  0  0  0  0
   10.0687  -15.6144   25.1676 O   0  0  0  0  0  0  0  0  0  0  0  0
    8.5417  -12.6644   27.7348 C   0  0  0  0  0  0  0  0  0  0  0  0
    9.2379  -13.8335   27.0745 C   0  0  2  0  0  0  0  0  0  0  0  0
    8.3319  -14.6053   26.2524 N   0  0  0  0  0  0  0  0  0  0  0  0
    9.7859  -14.7108   28.1386 C   0  0  0  0  0  0  0  0  0  0  0  0
   10.8432  -14.2842   28.8938 O   0  0  0  0  0  0  0  0  0  0  0  0
    9.2773  -15.8526   28.3492 O   0  0  0  0  0  0  0  0  0  0  0  0
  2  1  1  6
  2  3  1  0
  3  4  1  0
  4  5  2  0
  4  8  1  0
  6  7  2  0
  6  2  1  0
  9  6  1  0
 10 11  1  0
 10  9  1  0
 11 12  2  0
 14 13  1  1
 15 14  1  0
 15 11  1  0
 16 17  1  0
 16 14  1  0
 18 16  2  0
M  END
$$$$
