DGA.pdb
     RDKit          3D

 18 17  0  0  1  0  0  0  0  0999 V2000
    6.9812  -17.7740   19.2836 N   0  0  0  0  0  0  0  0  0  0  0  0
    8.1412  -16.9702   19.1027 C   0  0  1  0  0  0  0  0  0  0  0  0
    8.1657  -16.4092   17.7001 C   0  0  0  0  0  0  0  0  0  0  0  0
    8.4590  -17.4066   16.6820 C   0  0  0  0  0  0  0  0  0  0  0  0
    8.9504  -18.5176   16.9762 O   0  0  0  0  0  0  0  0  0  0  0  0
    8.2614  -15.8781   20.1040 C   0  0  0  0  0  0  0  0  0  0  0  0
    9.3488  -15.2721   20.2782 O   0  0  0  0  0  0  0  0  0  0  0  0
    8.1914  -17.1284   15.3561 O   0  0  0  0  0  0  0  0  0  0  0  0
    7.1623  -15.4640   20.9114 N   0  0  0  0  0  0  0  0  0  0  0  0
    7.2146  -14.4373   21.9054 C   0  0  0  0  0  0  0  0  0  0  0  0
    7.8600  -14.7746   23.1652 C   0  0  0  0  0  0  0  0  0  0  0  0
    7.3292  -14.3603   24.2279 O   0  0  0  0  0  0  0  0  0  0  0  0
    9.2165  -17.3059   24.9629 C   0  0  0  0  0  0  0  0  0  0  0  0
    9.5752  -15.8895   24.5720 C   0  0  2  0  0  0  0  0  0  0  0  0
    9.0387  -15.5362   23.2760 N   0  0  0  0  0  0  0  0  0  0  0  0
   11.0544  -15.7798   24.5252 C   0  0  0  0  0  0  0  0  0  0  0  0
   11.7734  -15.7812   25.6885 O   0  0  0  0  0  0  0  0  0  0  0  0
   11.6525  -15.6849   23.4115 O   0  0  0  0  0  0  0  0  0  0  0  0
  2  1  1  1
  2  3  1  0
  3  4  1  0
  4  5  2  0
  4  8  1  0
  6  7  2  0
  6  2  1  0
  9  6  1  0
 10 11  1  0
 10  9  1  0
 11 12  2  0
 14 13  1  6
 15 14  1  0
 15 11  1  0
 16 17  1  0
 16 14  1  0
 18 16  2  0
M  END
$$$$
