DGA.pdb
     RDKit          3D

 18 17  0  0  1  0  0  0  0  0999 V2000
    7.2107  -18.8681   21.9516 N   0  0  0  0  0  0  0  0  0  0  0  0
    6.3877  -17.8355   22.4816 C   0  0  1  0  0  0  0  0  0  0  0  0
    5.6453  -18.3408   23.6966 C   0  0  0  0  0  0  0  0  0  0  0  0
    5.8520  -19.7579   23.9542 C   0  0  0  0  0  0  0  0  0  0  0  0
    5.1341  -20.6318   23.4215 O   0  0  0  0  0  0  0  0  0  0  0  0
    7.1384  -16.5945   22.8072 C   0  0  0  0  0  0  0  0  0  0  0  0
    6.5420  -15.5047   22.9982 O   0  0  0  0  0  0  0  0  0  0  0  0
    6.8630  -20.1571   24.8060 O   0  0  0  0  0  0  0  0  0  0  0  0
    8.5592  -16.5739   22.9192 N   0  0  0  0  0  0  0  0  0  0  0  0
    9.3502  -15.3993   23.1178 C   0  0  0  0  0  0  0  0  0  0  0  0
    9.0423  -14.5896   24.2870 C   0  0  0  0  0  0  0  0  0  0  0  0
    8.4946  -13.4723   24.1015 O   0  0  0  0  0  0  0  0  0  0  0  0
    7.8621  -13.5092   26.9397 C   0  0  0  0  0  0  0  0  0  0  0  0
    9.2680  -14.0077   26.6900 C   0  0  2  0  0  0  0  0  0  0  0  0
    9.3139  -14.9733   25.6139 N   0  0  0  0  0  0  0  0  0  0  0  0
    9.7618  -14.6506   27.9330 C   0  0  0  0  0  0  0  0  0  0  0  0
    9.9448  -13.8989   29.0607 O   0  0  0  0  0  0  0  0  0  0  0  0
   10.0141  -15.8927   27.9524 O   0  0  0  0  0  0  0  0  0  0  0  0
  2  1  1  1
  2  3  1  0
  3  4  1  0
  4  5  2  0
  4  8  1  0
  6  7  2  0
  6  2  1  0
  9  6  1  0
 10 11  1  0
 10  9  1  0
 11 12  2  0
 14 13  1  1
 15 14  1  0
 15 11  1  0
 16 17  1  0
 16 14  1  0
 18 16  2  0
M  END
$$$$
