DGA.pdb
     RDKit          3D

 18 17  0  0  1  0  0  0  0  0999 V2000
   10.0801  -17.4393   21.0657 N   0  0  0  0  0  0  0  0  0  0  0  0
    9.5861  -16.3420   20.3065 C   0  0  1  0  0  0  0  0  0  0  0  0
    9.0432  -16.8328   18.9847 C   0  0  0  0  0  0  0  0  0  0  0  0
    9.7393  -18.0026   18.4708 C   0  0  0  0  0  0  0  0  0  0  0  0
   10.9864  -18.0850   18.4937 O   0  0  0  0  0  0  0  0  0  0  0  0
    8.5609  -15.5427   21.0276 C   0  0  0  0  0  0  0  0  0  0  0  0
    7.9700  -14.5853   20.4671 O   0  0  0  0  0  0  0  0  0  0  0  0
    9.0136  -19.0523   17.9430 O   0  0  0  0  0  0  0  0  0  0  0  0
    8.1970  -15.8159   22.3782 N   0  0  0  0  0  0  0  0  0  0  0  0
    7.2263  -15.0839   23.1312 C   0  0  0  0  0  0  0  0  0  0  0  0
    7.7277  -14.2407   24.2059 C   0  0  0  0  0  0  0  0  0  0  0  0
    8.9667  -14.2401   24.4243 O   0  0  0  0  0  0  0  0  0  0  0  0
    6.4805  -11.6849   26.6901 C   0  0  0  0  0  0  0  0  0  0  0  0
    7.5002  -12.6101   26.0642 C   0  0  2  0  0  0  0  0  0  0  0  0
    6.9196  -13.4225   25.0177 N   0  0  0  0  0  0  0  0  0  0  0  0
    8.0327  -13.5017   27.1244 C   0  0  0  0  0  0  0  0  0  0  0  0
    8.8820  -12.9999   28.0715 O   0  0  0  0  0  0  0  0  0  0  0  0
    7.7028  -14.7253   27.1544 O   0  0  0  0  0  0  0  0  0  0  0  0
  2  1  1  1
  2  3  1  0
  3  4  1  0
  4  5  2  0
  4  8  1  0
  6  7  2  0
  6  2  1  0
  9  6  1  0
 10 11  1  0
 10  9  1  0
 11 12  2  0
 14 13  1  1
 15 14  1  0
 15 11  1  0
 16 17  1  0
 16 14  1  0
 18 16  2  0
M  END
$$$$
