DGA.pdb
     RDKit          3D

 18 17  0  0  1  0  0  0  0  0999 V2000
    9.2142  -17.4525   20.5769 N   0  0  0  0  0  0  0  0  0  0  0  0
    8.5384  -16.2470   20.2382 C   0  0  1  0  0  0  0  0  0  0  0  0
    7.6978  -16.4578   19.0006 C   0  0  0  0  0  0  0  0  0  0  0  0
    8.4842  -16.6803   17.7968 C   0  0  0  0  0  0  0  0  0  0  0  0
    9.4729  -17.4452   17.7927 O   0  0  0  0  0  0  0  0  0  0  0  0
    7.7088  -15.7068   21.3471 C   0  0  0  0  0  0  0  0  0  0  0  0
    7.2493  -14.5376   21.3057 O   0  0  0  0  0  0  0  0  0  0  0  0
    8.1380  -16.0356   16.6257 O   0  0  0  0  0  0  0  0  0  0  0  0
    7.3933  -16.4771   22.5040 N   0  0  0  0  0  0  0  0  0  0  0  0
    6.7092  -15.9825   23.6583 C   0  0  0  0  0  0  0  0  0  0  0  0
    7.3266  -14.8677   24.3606 C   0  0  0  0  0  0  0  0  0  0  0  0
    8.4827  -14.5180   24.0086 O   0  0  0  0  0  0  0  0  0  0  0  0
    6.3319  -11.9753   26.4690 C   0  0  0  0  0  0  0  0  0  0  0  0
    7.3484  -12.9788   25.9718 C   0  0  2  0  0  0  0  0  0  0  0  0
    6.7163  -14.1511   25.4074 N   0  0  0  0  0  0  0  0  0  0  0  0
    8.1925  -13.3943   27.1195 C   0  0  0  0  0  0  0  0  0  0  0  0
    8.2122  -14.7049   27.5096 O   0  0  0  0  0  0  0  0  0  0  0  0
    8.8943  -12.5390   27.7382 O   0  0  0  0  0  0  0  0  0  0  0  0
  2  1  1  1
  2  3  1  0
  3  4  1  0
  4  5  2  0
  4  8  1  0
  6  7  2  0
  6  2  1  0
  9  6  1  0
 10 11  1  0
 10  9  1  0
 11 12  2  0
 14 13  1  1
 15 14  1  0
 15 11  1  0
 16 17  1  0
 16 14  1  0
 18 16  2  0
M  END
$$$$
