DGA.pdb
     RDKit          3D

 18 17  0  0  1  0  0  0  0  0999 V2000
   10.4260  -17.8266   20.2049 N   0  0  0  0  0  0  0  0  0  0  0  0
   11.0951  -17.7428   21.4579 C   0  0  1  0  0  0  0  0  0  0  0  0
   12.5446  -17.3742   21.2444 C   0  0  0  0  0  0  0  0  0  0  0  0
   13.2813  -18.3516   20.4576 C   0  0  0  0  0  0  0  0  0  0  0  0
   13.3641  -19.5480   20.8104 O   0  0  0  0  0  0  0  0  0  0  0  0
   10.4501  -16.7972   22.4064 C   0  0  0  0  0  0  0  0  0  0  0  0
   10.3598  -15.5716   22.1425 O   0  0  0  0  0  0  0  0  0  0  0  0
   13.9076  -17.9578   19.2915 O   0  0  0  0  0  0  0  0  0  0  0  0
    9.9055  -17.2247   23.6522 N   0  0  0  0  0  0  0  0  0  0  0  0
    9.2094  -16.3837   24.5758 C   0  0  0  0  0  0  0  0  0  0  0  0
    9.9668  -15.8930   25.7172 C   0  0  0  0  0  0  0  0  0  0  0  0
   11.1422  -16.3149   25.8690 O   0  0  0  0  0  0  0  0  0  0  0  0
    9.7512  -13.2450   28.3781 C   0  0  0  0  0  0  0  0  0  0  0  0
   10.3121  -14.4968   27.7410 C   0  0  2  0  0  0  0  0  0  0  0  0
    9.4737  -14.9747   26.6634 N   0  0  0  0  0  0  0  0  0  0  0  0
   10.4013  -15.5498   28.7829 C   0  0  0  0  0  0  0  0  0  0  0  0
   11.3136  -15.4297   29.7945 O   0  0  0  0  0  0  0  0  0  0  0  0
    9.6353  -16.5588   28.7377 O   0  0  0  0  0  0  0  0  0  0  0  0
  2  1  1  6
  2  3  1  0
  3  4  1  0
  4  5  2  0
  4  8  1  0
  6  7  2  0
  6  2  1  0
  9  6  1  0
 10 11  1  0
 10  9  1  0
 11 12  2  0
 14 13  1  1
 15 14  1  0
 15 11  1  0
 16 17  1  0
 16 14  1  0
 18 16  2  0
M  END
$$$$
