DGA.pdb
     RDKit          3D

 18 17  0  0  1  0  0  0  0  0999 V2000
    8.2864  -17.5621   19.3030 N   0  0  0  0  0  0  0  0  0  0  0  0
    7.4424  -17.8252   20.4178 C   0  0  1  0  0  0  0  0  0  0  0  0
    6.6698  -19.1032   20.1890 C   0  0  0  0  0  0  0  0  0  0  0  0
    6.1861  -19.2516   18.8247 C   0  0  0  0  0  0  0  0  0  0  0  0
    5.8449  -18.2631   18.1398 O   0  0  0  0  0  0  0  0  0  0  0  0
    8.1759  -17.8828   21.7095 C   0  0  0  0  0  0  0  0  0  0  0  0
    8.4270  -18.9812   22.2665 O   0  0  0  0  0  0  0  0  0  0  0  0
    6.0983  -20.5106   18.2641 O   0  0  0  0  0  0  0  0  0  0  0  0
    8.6288  -16.7086   22.3784 N   0  0  0  0  0  0  0  0  0  0  0  0
    9.3385  -16.6928   23.6198 C   0  0  0  0  0  0  0  0  0  0  0  0
    8.6007  -17.1065   24.8038 C   0  0  0  0  0  0  0  0  0  0  0  0
    7.5611  -16.4646   25.1036 O   0  0  0  0  0  0  0  0  0  0  0  0
    7.4651  -19.7081   26.8225 C   0  0  0  0  0  0  0  0  0  0  0  0
    8.2721  -18.4301   26.8785 C   0  0  2  0  0  0  0  0  0  0  0  0
    8.9705  -18.1794   25.6368 N   0  0  0  0  0  0  0  0  0  0  0  0
    9.2675  -18.5554   27.9720 C   0  0  0  0  0  0  0  0  0  0  0  0
    8.8434  -18.7243   29.2612 O   0  0  0  0  0  0  0  0  0  0  0  0
   10.5078  -18.5063   27.7149 O   0  0  0  0  0  0  0  0  0  0  0  0
  2  1  1  6
  2  3  1  0
  3  4  1  0
  4  5  2  0
  4  8  1  0
  6  7  2  0
  6  2  1  0
  9  6  1  0
 10 11  1  0
 10  9  1  0
 11 12  2  0
 14 13  1  6
 15 14  1  0
 15 11  1  0
 16 17  1  0
 16 14  1  0
 18 16  2  0
M  END
$$$$
