DGA.pdb
     RDKit          3D

 18 17  0  0  1  0  0  0  0  0999 V2000
   10.3806  -16.5484   20.8266 N   0  0  0  0  0  0  0  0  0  0  0  0
    9.0965  -16.7637   20.2528 C   0  0  1  0  0  0  0  0  0  0  0  0
    8.8240  -18.2455   20.1408 C   0  0  0  0  0  0  0  0  0  0  0  0
    9.6742  -18.9194   19.1711 C   0  0  0  0  0  0  0  0  0  0  0  0
   10.6963  -19.5480   19.5215 O   0  0  0  0  0  0  0  0  0  0  0  0
    8.0006  -16.0859   20.9941 C   0  0  0  0  0  0  0  0  0  0  0  0
    6.8148  -16.1223   20.5786 O   0  0  0  0  0  0  0  0  0  0  0  0
    9.3525  -18.8690   17.8290 O   0  0  0  0  0  0  0  0  0  0  0  0
    8.2328  -15.3664   22.2022 N   0  0  0  0  0  0  0  0  0  0  0  0
    7.2187  -14.7430   22.9946 C   0  0  0  0  0  0  0  0  0  0  0  0
    7.6586  -14.0381   24.1891 C   0  0  0  0  0  0  0  0  0  0  0  0
    8.8826  -14.0758   24.4775 O   0  0  0  0  0  0  0  0  0  0  0  0
    6.2832  -11.6677   26.7836 C   0  0  0  0  0  0  0  0  0  0  0  0
    7.3414  -12.5359   26.1403 C   0  0  2  0  0  0  0  0  0  0  0  0
    6.8067  -13.3136   25.0441 N   0  0  0  0  0  0  0  0  0  0  0  0
    7.8739  -13.4617   27.1707 C   0  0  0  0  0  0  0  0  0  0  0  0
    8.7286  -12.9925   28.1296 O   0  0  0  0  0  0  0  0  0  0  0  0
    7.5392  -14.6843   27.1644 O   0  0  0  0  0  0  0  0  0  0  0  0
  2  1  1  1
  2  3  1  0
  3  4  1  0
  4  5  2  0
  4  8  1  0
  6  7  2  0
  6  2  1  0
  9  6  1  0
 10 11  1  0
 10  9  1  0
 11 12  2  0
 14 13  1  1
 15 14  1  0
 15 11  1  0
 16 17  1  0
 16 14  1  0
 18 16  2  0
M  END
$$$$
