YQP.pdb
     RDKit          3D

 29 30  0  0  1  0  0  0  0  0999 V2000
    9.7207  -13.5113   16.3741 O   0  0  0  0  0  0  0  0  0  0  0  0
    9.0320  -13.7075   17.5718 C   0  0  0  0  0  0  0  0  0  0  0  0
    7.6624  -13.6958   17.6204 C   0  0  0  0  0  0  0  0  0  0  0  0
    6.9970  -13.8935   18.8244 C   0  0  0  0  0  0  0  0  0  0  0  0
    7.6850  -14.1081   20.0114 C   0  0  0  0  0  0  0  0  0  0  0  0
    6.9714  -14.3179   21.2900 C   0  0  0  0  0  0  0  0  0  0  0  0
    6.9613  -15.8266   21.5428 C   0  0  2  0  0  0  0  0  0  0  0  0
    5.9023  -16.3718   20.7325 N   0  0  0  0  0  0  0  0  0  0  0  0
    6.7807  -16.1088   22.9961 C   0  0  0  0  0  0  0  0  0  0  0  0
    5.6483  -15.8705   23.4666 O   0  0  0  0  0  0  0  0  0  0  0  0
    9.0712  -14.1128   19.9204 C   0  0  0  0  0  0  0  0  0  0  0  0
    9.7427  -13.9202   18.7456 C   0  0  0  0  0  0  0  0  0  0  0  0
    7.0525  -20.8556   25.8041 N   0  0  0  0  0  0  0  0  0  0  0  0
    7.0663  -20.0624   27.0109 C   0  0  0  0  0  0  0  0  0  0  0  0
    6.8916  -20.6831   28.0654 O   0  0  0  0  0  0  0  0  0  0  0  0
    7.2885  -18.6239   26.8349 C   0  0  0  0  0  0  0  0  0  0  0  0
    7.5163  -18.1430   25.4655 C   0  0  0  0  0  0  0  0  0  0  0  0
    7.7852  -16.7039   25.2082 C   0  0  2  0  0  0  0  0  0  0  0  0
    7.8719  -16.6143   23.7294 N   0  0  0  0  0  0  0  0  0  0  0  0
    8.8887  -16.0515   25.8672 C   0  0  0  0  0  0  0  0  0  0  0  0
   10.0234  -16.6421   25.8135 O   0  0  0  0  0  0  0  0  0  0  0  0
    8.8717  -14.8075   26.5744 N   0  0  0  0  0  0  0  0  0  0  0  0
    7.7297  -13.9227   26.5308 C   0  0  0  0  0  0  0  0  0  0  0  0
    7.7949  -13.1594   27.8225 C   0  0  0  0  0  0  0  0  0  0  0  0
    9.3049  -12.8418   27.8358 C   0  0  0  0  0  0  0  0  0  0  0  0
    9.8457  -14.2380   27.4456 C   0  0  1  0  0  0  0  0  0  0  0  0
   10.0359  -14.9955   28.6969 C   0  0  0  0  0  0  0  0  0  0  0  0
    9.2616  -15.9267   28.9776 O   0  0  0  0  0  0  0  0  0  0  0  0
   11.0613  -14.6798   29.5511 O   0  0  0  0  0  0  0  0  0  0  0  0
  2  1  1  0
  3  2  2  0
  4  3  1  0
  5  4  2  0
  5 11  1  0
  6  5  1  0
  7  8  1  6
  7  6  1  0
  9  7  1  0
  9 19  1  0
 10  9  2  0
 11 12  2  0
 12  2  1  0
 14 16  1  0
 14 13  1  0
 15 14  2  0
 17 16  1  0
 18 19  1  0
 18 17  1  6
 20 18  1  0
 21 20  2  0
 22 20  1  0
 23 22  1  0
 24 25  1  0
 24 23  1  0
 25 26  1  0
 26 22  1  0
 26 27  1  1
 27 29  1  0
 28 27  2  0
M  END
$$$$
