YQP.pdb
     RDKit          3D

 29 30  0  0  1  0  0  0  0  0999 V2000
    9.5348  -14.0745   15.5923 O   0  0  0  0  0  0  0  0  0  0  0  0
    8.9710  -14.1242   16.8678 C   0  0  0  0  0  0  0  0  0  0  0  0
    9.4926  -14.9243   17.8506 C   0  0  0  0  0  0  0  0  0  0  0  0
    8.9148  -14.9582   19.1141 C   0  0  0  0  0  0  0  0  0  0  0  0
    7.7996  -14.1921   19.4271 C   0  0  0  0  0  0  0  0  0  0  0  0
    7.1889  -14.2323   20.7737 C   0  0  0  0  0  0  0  0  0  0  0  0
    7.0354  -15.7095   21.1404 C   0  0  2  0  0  0  0  0  0  0  0  0
    5.9986  -16.2380   20.2912 N   0  0  0  0  0  0  0  0  0  0  0  0
    6.7240  -15.8551   22.5916 C   0  0  0  0  0  0  0  0  0  0  0  0
    5.5795  -15.5023   22.9471 O   0  0  0  0  0  0  0  0  0  0  0  0
    7.3011  -13.3949   18.4044 C   0  0  0  0  0  0  0  0  0  0  0  0
    7.8559  -13.3485   17.1561 C   0  0  0  0  0  0  0  0  0  0  0  0
    8.0907  -20.4011   26.3105 N   0  0  0  0  0  0  0  0  0  0  0  0
    7.1749  -19.5535   27.0377 C   0  0  0  0  0  0  0  0  0  0  0  0
    6.4403  -20.1265   27.8500 O   0  0  0  0  0  0  0  0  0  0  0  0
    7.2331  -18.1225   26.7241 C   0  0  0  0  0  0  0  0  0  0  0  0
    7.4353  -17.7517   25.3170 C   0  0  0  0  0  0  0  0  0  0  0  0
    7.5124  -16.3216   24.9191 C   0  0  2  0  0  0  0  0  0  0  0  0
    7.7157  -16.3688   23.4498 N   0  0  0  0  0  0  0  0  0  0  0  0
    8.4459  -15.4432   25.5784 C   0  0  0  0  0  0  0  0  0  0  0  0
    9.6784  -15.7887   25.5549 O   0  0  0  0  0  0  0  0  0  0  0  0
    8.1605  -14.2154   26.2559 N   0  0  0  0  0  0  0  0  0  0  0  0
    6.8851  -13.5494   26.1196 C   0  0  0  0  0  0  0  0  0  0  0  0
    6.7265  -12.7741   27.3960 C   0  0  0  0  0  0  0  0  0  0  0  0
    8.1517  -12.1917   27.4998 C   0  0  0  0  0  0  0  0  0  0  0  0
    8.9569  -13.4724   27.1756 C   0  0  1  0  0  0  0  0  0  0  0  0
    9.1940  -14.1714   28.4527 C   0  0  0  0  0  0  0  0  0  0  0  0
    9.9840  -13.6885   29.2823 O   0  0  0  0  0  0  0  0  0  0  0  0
    8.5483  -15.3490   28.7306 O   0  0  0  0  0  0  0  0  0  0  0  0
  2  1  1  0
  3  2  2  0
  4  3  1  0
  5  4  2  0
  5 11  1  0
  6  5  1  0
  7  8  1  6
  7  6  1  0
  9  7  1  0
  9 19  1  0
 10  9  2  0
 11 12  2  0
 12  2  1  0
 14 16  1  0
 14 13  1  0
 15 14  2  0
 17 16  1  0
 18 19  1  0
 18 17  1  1
 20 18  1  0
 21 20  2  0
 22 20  1  0
 23 22  1  0
 24 25  1  0
 24 23  1  0
 25 26  1  0
 26 22  1  0
 26 27  1  1
 27 29  1  0
 28 27  2  0
M  END
$$$$
