YQP.pdb
     RDKit          3D

 29 30  0  0  1  0  0  0  0  0999 V2000
    9.8629  -15.3172   30.0973 O   0  0  0  0  0  0  0  0  0  0  0  0
   10.5755  -15.5771   28.9259 C   0  0  0  0  0  0  0  0  0  0  0  0
   11.0924  -16.8189   28.6629 C   0  0  0  0  0  0  0  0  0  0  0  0
   11.7988  -17.0554   27.4897 C   0  0  0  0  0  0  0  0  0  0  0  0
   12.0065  -16.0552   26.5489 C   0  0  0  0  0  0  0  0  0  0  0  0
   12.7593  -16.3129   25.3020 C   0  0  0  0  0  0  0  0  0  0  0  0
   11.7758  -16.9555   24.3222 C   0  0  2  0  0  0  0  0  0  0  0  0
   12.5549  -17.4174   23.2019 N   0  0  0  0  0  0  0  0  0  0  0  0
   10.7208  -15.9777   23.9285 C   0  0  0  0  0  0  0  0  0  0  0  0
   10.9542  -15.2975   22.9070 O   0  0  0  0  0  0  0  0  0  0  0  0
   11.4672  -14.8114   26.8522 C   0  0  0  0  0  0  0  0  0  0  0  0
   10.7697  -14.5602   28.0006 C   0  0  0  0  0  0  0  0  0  0  0  0
    6.6860  -14.3120   20.9193 N   0  0  0  0  0  0  0  0  0  0  0  0
    8.0382  -14.7916   21.0842 C   0  0  0  0  0  0  0  0  0  0  0  0
    8.9251  -14.0790   20.6012 O   0  0  0  0  0  0  0  0  0  0  0  0
    8.1895  -16.0594   21.8050 C   0  0  0  0  0  0  0  0  0  0  0  0
    7.7708  -16.0847   23.2130 C   0  0  0  0  0  0  0  0  0  0  0  0
    8.3764  -15.1476   24.1952 C   0  0  2  0  0  0  0  0  0  0  0  0
    9.5553  -15.8847   24.7140 N   0  0  0  0  0  0  0  0  0  0  0  0
    7.5655  -14.5902   25.2486 C   0  0  0  0  0  0  0  0  0  0  0  0
    6.9446  -15.4206   25.9995 O   0  0  0  0  0  0  0  0  0  0  0  0
    7.3748  -13.2077   25.5651 N   0  0  0  0  0  0  0  0  0  0  0  0
    7.8175  -12.1556   24.6785 C   0  0  0  0  0  0  0  0  0  0  0  0
    6.9014  -11.0030   24.9744 C   0  0  0  0  0  0  0  0  0  0  0  0
    6.9107  -11.0807   26.5155 C   0  0  0  0  0  0  0  0  0  0  0  0
    6.7178  -12.6071   26.6785 C   0  0  1  0  0  0  0  0  0  0  0  0
    5.2651  -12.8600   26.7158 C   0  0  0  0  0  0  0  0  0  0  0  0
    4.7165  -13.4445   25.7655 O   0  0  0  0  0  0  0  0  0  0  0  0
    4.5167  -12.4556   27.7915 O   0  0  0  0  0  0  0  0  0  0  0  0
  2  1  1  0
  3  2  2  0
  4  3  1  0
  5  4  2  0
  5 11  1  0
  6  5  1  0
  7  8  1  6
  7  6  1  0
  9  7  1  0
  9 19  1  0
 10  9  2  0
 11 12  2  0
 12  2  1  0
 14 16  1  0
 14 13  1  0
 15 14  2  0
 17 16  1  0
 18 19  1  0
 18 17  1  1
 20 18  1  0
 21 20  2  0
 22 20  1  0
 23 22  1  0
 24 25  1  0
 24 23  1  0
 25 26  1  0
 26 22  1  0
 26 27  1  6
 27 29  1  0
 28 27  2  0
M  END
$$$$
