YQP.pdb
     RDKit          3D

 29 30  0  0  1  0  0  0  0  0999 V2000
    5.8937  -10.1069   27.6513 O   0  0  0  0  0  0  0  0  0  0  0  0
    6.4556  -11.2680   27.1188 C   0  0  0  0  0  0  0  0  0  0  0  0
    7.2484  -12.0916   27.8748 C   0  0  0  0  0  0  0  0  0  0  0  0
    7.7977  -13.2432   27.3239 C   0  0  0  0  0  0  0  0  0  0  0  0
    7.5680  -13.6006   26.0018 C   0  0  0  0  0  0  0  0  0  0  0  0
    8.1554  -14.8276   25.4209 C   0  0  0  0  0  0  0  0  0  0  0  0
    6.9991  -15.6164   24.8040 C   0  0  2  0  0  0  0  0  0  0  0  0
    6.6092  -16.6034   25.7783 N   0  0  0  0  0  0  0  0  0  0  0  0
    7.4158  -16.2196   23.5053 C   0  0  0  0  0  0  0  0  0  0  0  0
    7.6939  -17.4373   23.5279 O   0  0  0  0  0  0  0  0  0  0  0  0
    6.7598  -12.7404   25.2692 C   0  0  0  0  0  0  0  0  0  0  0  0
    6.2110  -11.6038   25.7939 C   0  0  0  0  0  0  0  0  0  0  0  0
    8.3369  -12.4473   18.5064 N   0  0  0  0  0  0  0  0  0  0  0  0
    8.2927  -13.7562   17.8978 C   0  0  0  0  0  0  0  0  0  0  0  0
    8.0841  -13.7770   16.6797 O   0  0  0  0  0  0  0  0  0  0  0  0
    8.5035  -14.8938   18.7985 C   0  0  0  0  0  0  0  0  0  0  0  0
    7.9422  -14.7905   20.1522 C   0  0  0  0  0  0  0  0  0  0  0  0
    8.0995  -15.9083   21.1195 C   0  0  2  0  0  0  0  0  0  0  0  0
    7.4684  -15.3984   22.3621 N   0  0  0  0  0  0  0  0  0  0  0  0
    9.4037  -16.4753   21.3543 C   0  0  0  0  0  0  0  0  0  0  0  0
   10.2410  -15.7500   21.9961 O   0  0  0  0  0  0  0  0  0  0  0  0
    9.8784  -17.7665   20.9602 N   0  0  0  0  0  0  0  0  0  0  0  0
    9.0359  -18.7041   20.2532 C   0  0  0  0  0  0  0  0  0  0  0  0
    9.9938  -19.5547   19.4693 C   0  0  0  0  0  0  0  0  0  0  0  0
   11.0530  -19.7932   20.5659 C   0  0  0  0  0  0  0  0  0  0  0  0
   11.1732  -18.3462   21.1001 C   0  0  1  0  0  0  0  0  0  0  0  0
   12.2132  -17.6726   20.2999 C   0  0  0  0  0  0  0  0  0  0  0  0
   13.3967  -17.6989   20.6796 O   0  0  0  0  0  0  0  0  0  0  0  0
   11.8832  -17.0190   19.1403 O   0  0  0  0  0  0  0  0  0  0  0  0
  2  1  1  0
  3  2  2  0
  4  3  1  0
  5  4  2  0
  5 11  1  0
  6  5  1  0
  7  8  1  1
  7  6  1  0
  9  7  1  0
  9 19  1  0
 10  9  2  0
 11 12  2  0
 12  2  1  0
 14 16  1  0
 14 13  1  0
 15 14  2  0
 17 16  1  0
 18 19  1  0
 18 17  1  6
 20 18  1  0
 21 20  2  0
 22 20  1  0
 23 22  1  0
 24 25  1  0
 24 23  1  0
 25 26  1  0
 26 22  1  0
 26 27  1  6
 27 29  1  0
 28 27  2  0
M  END
$$$$
