YQP.pdb
     RDKit          3D

 29 30  0  0  1  0  0  0  0  0999 V2000
   10.9621  -16.8239   31.3930 O   0  0  0  0  0  0  0  0  0  0  0  0
   10.7270  -16.1124   30.2158 C   0  0  0  0  0  0  0  0  0  0  0  0
   10.0168  -14.9403   30.2172 C   0  0  0  0  0  0  0  0  0  0  0  0
    9.7946  -14.2480   29.0328 C   0  0  0  0  0  0  0  0  0  0  0  0
   10.2775  -14.7107   27.8158 C   0  0  0  0  0  0  0  0  0  0  0  0
   10.0378  -13.9696   26.5583 C   0  0  0  0  0  0  0  0  0  0  0  0
    9.3259  -14.9359   25.6100 C   0  0  2  0  0  0  0  0  0  0  0  0
    9.9279  -16.2289   25.8131 N   0  0  0  0  0  0  0  0  0  0  0  0
    9.4401  -14.4602   24.2011 C   0  0  0  0  0  0  0  0  0  0  0  0
    8.8592  -13.3870   23.9336 O   0  0  0  0  0  0  0  0  0  0  0  0
   10.9920  -15.9014   27.8563 C   0  0  0  0  0  0  0  0  0  0  0  0
   11.2204  -16.5959   29.0112 C   0  0  0  0  0  0  0  0  0  0  0  0
   14.4381  -14.7210   21.2848 N   0  0  0  0  0  0  0  0  0  0  0  0
   13.6808  -14.6620   20.0566 C   0  0  0  0  0  0  0  0  0  0  0  0
   14.3287  -14.4032   19.0362 O   0  0  0  0  0  0  0  0  0  0  0  0
   12.2421  -14.9189   20.1729 C   0  0  0  0  0  0  0  0  0  0  0  0
   11.7148  -15.1853   21.5181 C   0  0  0  0  0  0  0  0  0  0  0  0
   10.3400  -14.7562   21.8862 C   0  0  2  0  0  0  0  0  0  0  0  0
   10.1779  -15.2320   23.2825 N   0  0  0  0  0  0  0  0  0  0  0  0
    9.2265  -15.1187   21.0458 C   0  0  0  0  0  0  0  0  0  0  0  0
    8.7205  -16.2805   21.2279 O   0  0  0  0  0  0  0  0  0  0  0  0
    8.6065  -14.3266   20.0278 N   0  0  0  0  0  0  0  0  0  0  0  0
    9.0199  -12.9671   19.7638 C   0  0  0  0  0  0  0  0  0  0  0  0
    8.6754  -12.7422   18.3194 C   0  0  0  0  0  0  0  0  0  0  0  0
    7.2700  -13.3794   18.3076 C   0  0  0  0  0  0  0  0  0  0  0  0
    7.5886  -14.6741   19.0925 C   0  0  1  0  0  0  0  0  0  0  0  0
    8.0109  -15.6869   18.1068 C   0  0  0  0  0  0  0  0  0  0  0  0
    9.2119  -15.9947   18.0151 O   0  0  0  0  0  0  0  0  0  0  0  0
    7.0877  -16.2914   17.2924 O   0  0  0  0  0  0  0  0  0  0  0  0
  2  1  1  0
  3  2  2  0
  4  3  1  0
  5  4  2  0
  5 11  1  0
  6  5  1  0
  7  8  1  6
  7  6  1  0
  9  7  1  0
  9 19  1  0
 10  9  2  0
 11 12  2  0
 12  2  1  0
 14 16  1  0
 14 13  1  0
 15 14  2  0
 17 16  1  0
 18 19  1  0
 18 17  1  6
 20 18  1  0
 21 20  2  0
 22 20  1  0
 23 22  1  0
 24 25  1  0
 24 23  1  0
 25 26  1  0
 26 22  1  0
 26 27  1  6
 27 29  1  0
 28 27  2  0
M  END
$$$$
