CLE.pdb
     RDKit          3D

 24 23  0  0  1  0  0  0  0  0999 V2000
   10.0991  -18.7212   17.7488 N   0  0  0  0  0  0  0  0  0  0  0  0
    9.3897  -18.4885   18.9746 C   0  0  1  0  0  0  0  0  0  0  0  0
    9.5123  -19.6638   19.9123 C   0  0  0  0  0  0  0  0  0  0  0  0
   10.3404  -21.0108   19.0203 S   0  0  0  0  0  0  0  0  0  0  0  0
    9.8869  -17.2503   19.6193 C   0  0  0  0  0  0  0  0  0  0  0  0
   11.0363  -16.8283   19.3152 O   0  0  0  0  0  0  0  0  0  0  0  0
    8.3156  -12.9246   19.5703 C   0  0  0  0  0  0  0  0  0  0  0  0
    7.4562  -13.9547   20.3204 C   0  0  2  0  0  0  0  0  0  0  0  0
    6.1934  -13.2559   20.7023 C   0  0  0  0  0  0  0  0  0  0  0  0
    8.2950  -14.4347   21.4568 C   0  0  0  0  0  0  0  0  0  0  0  0
    9.4771  -15.2625   21.0911 C   0  0  2  0  0  0  0  0  0  0  0  0
    9.1037  -16.5515   20.5518 N   0  0  0  0  0  0  0  0  0  0  0  0
   10.2478  -15.5318   22.3602 C   0  0  0  0  0  0  0  0  0  0  0  0
    9.6802  -15.2435   23.4618 O   0  0  0  0  0  0  0  0  0  0  0  0
   11.5413  -16.0783   22.3478 N   0  0  0  0  0  0  0  0  0  0  0  0
   12.2359  -16.3732   23.6401 C   0  0  1  0  0  0  0  0  0  0  0  0
   11.3154  -17.1925   24.4450 C   0  0  0  0  0  0  0  0  0  0  0  0
   11.5712  -18.6564   24.4441 C   0  0  0  0  0  0  0  0  0  0  0  0
   10.9987  -19.4404   25.5423 C   0  0  0  0  0  0  0  0  0  0  0  0
    9.8941  -20.0097   25.4069 O   0  0  0  0  0  0  0  0  0  0  0  0
   13.5685  -16.8725   23.3815 C   0  0  0  0  0  0  0  0  0  0  0  0
   14.4355  -17.1126   24.2412 O   0  0  0  0  0  0  0  0  0  0  0  0
   11.6761  -19.5620   26.7354 O   0  0  0  0  0  0  0  0  0  0  0  0
   13.9462  -17.1189   22.0379 O   0  0  0  0  0  0  0  0  0  0  0  0
  2  3  1  0
  2  1  1  6
  4  3  1  0
  5  2  1  0
  5  6  2  0
  8  7  1  1
  8 10  1  0
  8  9  1  0
 11 10  1  1
 11 13  1  0
 12 11  1  0
 12  5  1  0
 13 14  2  0
 13 15  1  0
 15 16  1  0
 16 21  1  0
 16 17  1  6
 18 17  1  0
 19 18  1  0
 20 19  2  0
 21 22  2  0
 21 24  1  0
 23 19  1  0
M  END
$$$$
