CLE.pdb
     RDKit          3D

 24 23  0  0  1  0  0  0  0  0999 V2000
    8.9798  -14.7950   20.1552 N   0  0  0  0  0  0  0  0  0  0  0  0
    7.9847  -15.2146   21.1006 C   0  0  1  0  0  0  0  0  0  0  0  0
    7.6123  -16.6627   20.9004 C   0  0  0  0  0  0  0  0  0  0  0  0
    7.0785  -16.8731   19.1780 S   0  0  0  0  0  0  0  0  0  0  0  0
    8.4704  -14.9850   22.4817 C   0  0  0  0  0  0  0  0  0  0  0  0
    9.7110  -15.0411   22.7048 O   0  0  0  0  0  0  0  0  0  0  0  0
    7.7113  -11.7145   25.8941 C   0  0  0  0  0  0  0  0  0  0  0  0
    6.5203  -12.5895   25.4720 C   0  0  2  0  0  0  0  0  0  0  0  0
    5.3351  -12.0856   26.2271 C   0  0  0  0  0  0  0  0  0  0  0  0
    6.9224  -13.9952   25.7688 C   0  0  0  0  0  0  0  0  0  0  0  0
    7.9951  -14.5629   24.9067 C   0  0  2  0  0  0  0  0  0  0  0  0
    7.5778  -14.7097   23.5297 N   0  0  0  0  0  0  0  0  0  0  0  0
    8.2957  -15.9506   25.4175 C   0  0  0  0  0  0  0  0  0  0  0  0
    7.5198  -16.8900   25.0507 O   0  0  0  0  0  0  0  0  0  0  0  0
    9.3833  -16.2161   26.2652 N   0  0  0  0  0  0  0  0  0  0  0  0
    9.8013  -17.6308   26.5169 C   0  0  1  0  0  0  0  0  0  0  0  0
   10.3667  -18.1419   25.2577 C   0  0  0  0  0  0  0  0  0  0  0  0
   11.6561  -17.5409   24.8277 C   0  0  0  0  0  0  0  0  0  0  0  0
   12.4817  -18.3144   23.8959 C   0  0  0  0  0  0  0  0  0  0  0  0
   12.1217  -19.4520   23.5232 O   0  0  0  0  0  0  0  0  0  0  0  0
   10.6013  -17.7026   27.7198 C   0  0  0  0  0  0  0  0  0  0  0  0
   11.0306  -18.7446   28.2474 O   0  0  0  0  0  0  0  0  0  0  0  0
   13.6626  -17.7922   23.4165 O   0  0  0  0  0  0  0  0  0  0  0  0
   10.9406  -16.4930   28.3758 O   0  0  0  0  0  0  0  0  0  0  0  0
  2  3  1  0
  2  1  1  6
  4  3  1  0
  5  2  1  0
  5  6  2  0
  8  7  1  1
  8 10  1  0
  8  9  1  0
 11 10  1  1
 11 13  1  0
 12 11  1  0
 12  5  1  0
 13 14  2  0
 13 15  1  0
 15 16  1  0
 16 21  1  0
 16 17  1  6
 18 17  1  0
 19 18  1  0
 20 19  2  0
 21 22  2  0
 21 24  1  0
 23 19  1  0
M  END
$$$$
