CLE.pdb
     RDKit          3D

 24 23  0  0  1  0  0  0  0  0999 V2000
    5.3864  -20.1928   22.4608 N   0  0  0  0  0  0  0  0  0  0  0  0
    5.4562  -18.8458   22.9516 C   0  0  1  0  0  0  0  0  0  0  0  0
    5.7393  -18.8145   24.4330 C   0  0  0  0  0  0  0  0  0  0  0  0
    7.4326  -19.4146   24.6947 S   0  0  0  0  0  0  0  0  0  0  0  0
    6.4884  -18.0884   22.2052 C   0  0  0  0  0  0  0  0  0  0  0  0
    7.0610  -18.6455   21.2288 O   0  0  0  0  0  0  0  0  0  0  0  0
    8.0582  -12.1362   21.9174 C   0  0  0  0  0  0  0  0  0  0  0  0
    8.2862  -13.5136   21.2749 C   0  0  2  0  0  0  0  0  0  0  0  0
    7.9142  -13.3773   19.8355 C   0  0  0  0  0  0  0  0  0  0  0  0
    7.4608  -14.4730   22.0648 C   0  0  0  0  0  0  0  0  0  0  0  0
    7.6471  -15.9142   21.7414 C   0  0  2  0  0  0  0  0  0  0  0  0
    6.8310  -16.7761   22.5678 N   0  0  0  0  0  0  0  0  0  0  0  0
    9.0845  -16.2608   22.0429 C   0  0  0  0  0  0  0  0  0  0  0  0
    9.9735  -15.8088   21.2528 O   0  0  0  0  0  0  0  0  0  0  0  0
    9.4478  -17.0497   23.1464 N   0  0  0  0  0  0  0  0  0  0  0  0
   10.8946  -17.2875   23.4457 C   0  0  1  0  0  0  0  0  0  0  0  0
   11.6561  -16.8367   22.2696 C   0  0  0  0  0  0  0  0  0  0  0  0
   12.4392  -15.5849   22.4375 C   0  0  0  0  0  0  0  0  0  0  0  0
   13.7600  -15.5272   21.8046 C   0  0  0  0  0  0  0  0  0  0  0  0
   14.7742  -15.9293   22.4148 O   0  0  0  0  0  0  0  0  0  0  0  0
   11.2268  -16.7401   24.7427 C   0  0  0  0  0  0  0  0  0  0  0  0
   10.4962  -16.0050   25.4314 O   0  0  0  0  0  0  0  0  0  0  0  0
   13.8963  -15.0331   20.5261 O   0  0  0  0  0  0  0  0  0  0  0  0
   12.4908  -17.0533   25.3019 O   0  0  0  0  0  0  0  0  0  0  0  0
  2  3  1  0
  2  1  1  6
  4  3  1  0
  5  2  1  0
  5  6  2  0
  8  7  1  1
  8 10  1  0
  8  9  1  0
 11 10  1  1
 11 13  1  0
 12 11  1  0
 12  5  1  0
 13 14  2  0
 13 15  1  0
 15 16  1  0
 16 21  1  0
 16 17  1  6
 18 17  1  0
 19 18  1  0
 20 19  2  0
 21 22  2  0
 21 24  1  0
 23 19  1  0
M  END
$$$$
