CLE.pdb
     RDKit          3D

 24 23  0  0  1  0  0  0  0  0999 V2000
    8.1082  -19.4396   17.0073 N   0  0  0  0  0  0  0  0  0  0  0  0
    7.7839  -19.2449   18.3918 C   0  0  1  0  0  0  0  0  0  0  0  0
    8.1180  -20.4663   19.2117 C   0  0  0  0  0  0  0  0  0  0  0  0
    6.7106  -21.6092   19.1172 S   0  0  0  0  0  0  0  0  0  0  0  0
    8.4931  -18.0533   18.9146 C   0  0  0  0  0  0  0  0  0  0  0  0
    9.6576  -17.8087   18.4949 O   0  0  0  0  0  0  0  0  0  0  0  0
    7.0310  -13.2674   22.5133 C   0  0  0  0  0  0  0  0  0  0  0  0
    8.1498  -13.8641   21.6447 C   0  0  2  0  0  0  0  0  0  0  0  0
    8.5851  -12.7828   20.7120 C   0  0  0  0  0  0  0  0  0  0  0  0
    7.5624  -15.0736   20.9984 C   0  0  0  0  0  0  0  0  0  0  0  0
    8.5317  -16.0157   20.3745 C   0  0  2  0  0  0  0  0  0  0  0  0
    7.8918  -17.2056   19.8584 N   0  0  0  0  0  0  0  0  0  0  0  0
    9.4789  -16.4697   21.4579 C   0  0  0  0  0  0  0  0  0  0  0  0
    9.1055  -17.4386   22.1933 O   0  0  0  0  0  0  0  0  0  0  0  0
   10.7273  -15.8604   21.6633 N   0  0  0  0  0  0  0  0  0  0  0  0
   11.7185  -16.4910   22.5902 C   0  0  1  0  0  0  0  0  0  0  0  0
   13.0514  -16.0241   22.1756 C   0  0  0  0  0  0  0  0  0  0  0  0
   14.1889  -16.4460   23.0340 C   0  0  0  0  0  0  0  0  0  0  0  0
   15.5384  -16.0920   22.5849 C   0  0  0  0  0  0  0  0  0  0  0  0
   15.9313  -16.4120   21.4422 O   0  0  0  0  0  0  0  0  0  0  0  0
   11.3065  -16.2931   23.9625 C   0  0  0  0  0  0  0  0  0  0  0  0
   10.5244  -15.4143   24.3682 O   0  0  0  0  0  0  0  0  0  0  0  0
   16.3873  -15.3970   23.4177 O   0  0  0  0  0  0  0  0  0  0  0  0
   11.8249  -17.1637   24.9534 O   0  0  0  0  0  0  0  0  0  0  0  0
  2  3  1  0
  2  1  1  6
  4  3  1  0
  5  2  1  0
  5  6  2  0
  8  7  1  1
  8 10  1  0
  8  9  1  0
 11 10  1  1
 11 13  1  0
 12 11  1  0
 12  5  1  0
 13 14  2  0
 13 15  1  0
 15 16  1  0
 16 21  1  0
 16 17  1  1
 18 17  1  0
 19 18  1  0
 20 19  2  0
 21 22  2  0
 21 24  1  0
 23 19  1  0
M  END
$$$$
