CLE.pdb
     RDKit          3D

 24 23  0  0  1  0  0  0  0  0999 V2000
    8.3022  -14.6022   20.3919 N   0  0  0  0  0  0  0  0  0  0  0  0
    7.6000  -15.2131   21.4845 C   0  0  1  0  0  0  0  0  0  0  0  0
    7.5190  -16.7101   21.3176 C   0  0  0  0  0  0  0  0  0  0  0  0
    6.9072  -17.0571   19.6439 S   0  0  0  0  0  0  0  0  0  0  0  0
    8.2569  -14.8640   22.7662 C   0  0  0  0  0  0  0  0  0  0  0  0
    9.5134  -14.7534   22.7927 O   0  0  0  0  0  0  0  0  0  0  0  0
    7.2563  -11.5387   25.9603 C   0  0  0  0  0  0  0  0  0  0  0  0
    6.2837  -12.7270   25.8968 C   0  0  2  0  0  0  0  0  0  0  0  0
    5.1725  -12.4169   26.8444 C   0  0  0  0  0  0  0  0  0  0  0  0
    7.0941  -13.9348   26.2285 C   0  0  0  0  0  0  0  0  0  0  0  0
    8.1043  -14.3417   25.2134 C   0  0  2  0  0  0  0  0  0  0  0  0
    7.5067  -14.6578   23.9348 N   0  0  0  0  0  0  0  0  0  0  0  0
    8.7567  -15.6083   25.7105 C   0  0  0  0  0  0  0  0  0  0  0  0
    8.0105  -16.6260   25.8729 O   0  0  0  0  0  0  0  0  0  0  0  0
   10.1311  -15.6819   25.9890 N   0  0  0  0  0  0  0  0  0  0  0  0
   10.7369  -16.9867   26.4014 C   0  0  1  0  0  0  0  0  0  0  0  0
   11.8112  -17.2840   25.4402 C   0  0  0  0  0  0  0  0  0  0  0  0
   12.9635  -16.3455   25.4355 C   0  0  0  0  0  0  0  0  0  0  0  0
   14.0356  -16.6008   24.4692 C   0  0  0  0  0  0  0  0  0  0  0  0
   13.9719  -17.5800   23.6948 O   0  0  0  0  0  0  0  0  0  0  0  0
   11.0523  -16.9603   27.8128 C   0  0  0  0  0  0  0  0  0  0  0  0
   11.5322  -17.9023   28.4692 O   0  0  0  0  0  0  0  0  0  0  0  0
   15.1240  -15.7594   24.4012 O   0  0  0  0  0  0  0  0  0  0  0  0
   10.8022  -15.7677   28.5364 O   0  0  0  0  0  0  0  0  0  0  0  0
  2  3  1  0
  2  1  1  6
  4  3  1  0
  5  2  1  0
  5  6  2  0
  8  7  1  1
  8 10  1  0
  8  9  1  0
 11 10  1  1
 11 13  1  0
 12 11  1  0
 12  5  1  0
 13 14  2  0
 13 15  1  0
 15 16  1  0
 16 21  1  0
 16 17  1  6
 18 17  1  0
 19 18  1  0
 20 19  2  0
 21 22  2  0
 21 24  1  0
 23 19  1  0
M  END
$$$$
