CLE.pdb
     RDKit          3D

 24 23  0  0  1  0  0  0  0  0999 V2000
    7.4491  -14.5313   19.9045 N   0  0  0  0  0  0  0  0  0  0  0  0
    6.7978  -14.8886   21.1326 C   0  0  1  0  0  0  0  0  0  0  0  0
    6.3318  -16.3232   21.1104 C   0  0  0  0  0  0  0  0  0  0  0  0
    7.7984  -17.3896   21.0222 S   0  0  0  0  0  0  0  0  0  0  0  0
    7.7101  -14.6521   22.2762 C   0  0  0  0  0  0  0  0  0  0  0  0
    8.9451  -14.5275   22.0504 O   0  0  0  0  0  0  0  0  0  0  0  0
    7.9975  -11.5105   25.9461 C   0  0  0  0  0  0  0  0  0  0  0  0
    6.7637  -12.4218   25.8496 C   0  0  2  0  0  0  0  0  0  0  0  0
    5.8537  -12.0232   26.9640 C   0  0  0  0  0  0  0  0  0  0  0  0
    7.2834  -13.8188   25.9116 C   0  0  0  0  0  0  0  0  0  0  0  0
    8.0637  -14.2777   24.7297 C   0  0  2  0  0  0  0  0  0  0  0  0
    7.2218  -14.5663   23.5897 N   0  0  0  0  0  0  0  0  0  0  0  0
    8.7357  -15.5742   25.1100 C   0  0  0  0  0  0  0  0  0  0  0  0
    7.9919  -16.5944   25.2677 O   0  0  0  0  0  0  0  0  0  0  0  0
   10.1251  -15.6722   25.2879 N   0  0  0  0  0  0  0  0  0  0  0  0
   10.7413  -16.9969   25.6122 C   0  0  1  0  0  0  0  0  0  0  0  0
   12.1462  -16.9347   25.1778 C   0  0  0  0  0  0  0  0  0  0  0  0
   12.6116  -18.0453   24.3067 C   0  0  0  0  0  0  0  0  0  0  0  0
   13.7901  -17.7969   23.4714 C   0  0  0  0  0  0  0  0  0  0  0  0
   14.9403  -17.9707   23.9291 O   0  0  0  0  0  0  0  0  0  0  0  0
   10.4510  -17.3539   26.9835 C   0  0  0  0  0  0  0  0  0  0  0  0
   10.2955  -16.5565   27.9260 O   0  0  0  0  0  0  0  0  0  0  0  0
   13.6415  -17.3735   22.1692 O   0  0  0  0  0  0  0  0  0  0  0  0
   10.3278  -18.7275   27.3099 O   0  0  0  0  0  0  0  0  0  0  0  0
  2  3  1  0
  2  1  1  6
  4  3  1  0
  5  2  1  0
  5  6  2  0
  8  7  1  1
  8 10  1  0
  8  9  1  0
 11 10  1  1
 11 13  1  0
 12 11  1  0
 12  5  1  0
 13 14  2  0
 13 15  1  0
 15 16  1  0
 16 21  1  0
 16 17  1  1
 18 17  1  0
 19 18  1  0
 20 19  2  0
 21 22  2  0
 21 24  1  0
 23 19  1  0
M  END
$$$$
