CLE.pdb
     RDKit          3D

 24 23  0  0  1  0  0  0  0  0999 V2000
    8.9340  -15.9230   20.2087 N   0  0  0  0  0  0  0  0  0  0  0  0
    8.1675  -16.3366   21.3496 C   0  0  1  0  0  0  0  0  0  0  0  0
    8.3401  -17.8101   21.6229 C   0  0  0  0  0  0  0  0  0  0  0  0
    7.3076  -18.2415   23.0525 S   0  0  0  0  0  0  0  0  0  0  0  0
    8.5530  -15.5355   22.5352 C   0  0  0  0  0  0  0  0  0  0  0  0
    9.7641  -15.2134   22.6811 O   0  0  0  0  0  0  0  0  0  0  0  0
    5.5595  -12.6186   27.0842 C   0  0  0  0  0  0  0  0  0  0  0  0
    6.9519  -13.0025   26.5587 C   0  0  2  0  0  0  0  0  0  0  0  0
    7.7158  -11.7283   26.4112 C   0  0  0  0  0  0  0  0  0  0  0  0
    6.7157  -13.7611   25.2961 C   0  0  0  0  0  0  0  0  0  0  0  0
    7.9238  -14.3411   24.6476 C   0  0  2  0  0  0  0  0  0  0  0  0
    7.5986  -15.1368   23.4845 N   0  0  0  0  0  0  0  0  0  0  0  0
    8.5650  -15.2749   25.6446 C   0  0  0  0  0  0  0  0  0  0  0  0
    7.8500  -16.2225   26.1026 O   0  0  0  0  0  0  0  0  0  0  0  0
    9.8965  -15.1216   26.0637 N   0  0  0  0  0  0  0  0  0  0  0  0
   10.5007  -16.1206   26.9998 C   0  0  1  0  0  0  0  0  0  0  0  0
   11.8662  -16.3876   26.5198 C   0  0  0  0  0  0  0  0  0  0  0  0
   11.9839  -17.3123   25.3623 C   0  0  0  0  0  0  0  0  0  0  0  0
   13.1618  -17.1672   24.5021 C   0  0  0  0  0  0  0  0  0  0  0  0
   14.1913  -16.5993   24.9264 O   0  0  0  0  0  0  0  0  0  0  0  0
   10.3147  -15.6903   28.3682 C   0  0  0  0  0  0  0  0  0  0  0  0
    9.8273  -14.6040   28.7298 O   0  0  0  0  0  0  0  0  0  0  0  0
   13.1477  -17.6611   23.2164 O   0  0  0  0  0  0  0  0  0  0  0  0
   10.7149  -16.5648   29.4092 O   0  0  0  0  0  0  0  0  0  0  0  0
  2  3  1  0
  2  1  1  6
  4  3  1  0
  5  2  1  0
  5  6  2  0
  8  7  1  6
  8 10  1  0
  8  9  1  0
 11 10  1  1
 11 13  1  0
 12 11  1  0
 12  5  1  0
 13 14  2  0
 13 15  1  0
 15 16  1  0
 16 21  1  0
 16 17  1  6
 18 17  1  0
 19 18  1  0
 20 19  2  0
 21 22  2  0
 21 24  1  0
 23 19  1  0
M  END
$$$$
