CLE.pdb
     RDKit          3D

 24 23  0  0  1  0  0  0  0  0999 V2000
    8.0216  -15.3130   20.0971 N   0  0  0  0  0  0  0  0  0  0  0  0
    7.1115  -15.3151   21.2070 C   0  0  1  0  0  0  0  0  0  0  0  0
    6.2634  -16.5626   21.2201 C   0  0  0  0  0  0  0  0  0  0  0  0
    7.3588  -17.9843   21.4935 S   0  0  0  0  0  0  0  0  0  0  0  0
    7.8627  -15.1793   22.4772 C   0  0  0  0  0  0  0  0  0  0  0  0
    9.1066  -15.3900   22.4710 O   0  0  0  0  0  0  0  0  0  0  0  0
    8.0960  -11.6843   25.5900 C   0  0  0  0  0  0  0  0  0  0  0  0
    6.7664  -12.4539   25.5445 C   0  0  2  0  0  0  0  0  0  0  0  0
    5.8361  -11.7490   26.4753 C   0  0  0  0  0  0  0  0  0  0  0  0
    7.0981  -13.8618   25.9100 C   0  0  0  0  0  0  0  0  0  0  0  0
    7.9131  -14.6182   24.9200 C   0  0  2  0  0  0  0  0  0  0  0  0
    7.2142  -14.8237   23.6705 N   0  0  0  0  0  0  0  0  0  0  0  0
    8.1708  -15.9867   25.5013 C   0  0  0  0  0  0  0  0  0  0  0  0
    7.1651  -16.7454   25.6799 O   0  0  0  0  0  0  0  0  0  0  0  0
    9.4616  -16.4248   25.8387 N   0  0  0  0  0  0  0  0  0  0  0  0
    9.6721  -17.8338   26.2967 C   0  0  1  0  0  0  0  0  0  0  0  0
   10.5141  -18.4928   25.2852 C   0  0  0  0  0  0  0  0  0  0  0  0
   11.8927  -17.9592   25.1329 C   0  0  0  0  0  0  0  0  0  0  0  0
   12.7410  -18.5696   24.1052 C   0  0  0  0  0  0  0  0  0  0  0  0
   12.9630  -17.9733   23.0292 O   0  0  0  0  0  0  0  0  0  0  0  0
   10.1037  -17.8449   27.6772 C   0  0  0  0  0  0  0  0  0  0  0  0
   10.2962  -18.8593   28.3716 O   0  0  0  0  0  0  0  0  0  0  0  0
   13.3075  -19.8071   24.3174 O   0  0  0  0  0  0  0  0  0  0  0  0
   10.3352  -16.6032   28.3201 O   0  0  0  0  0  0  0  0  0  0  0  0
  2  3  1  0
  2  1  1  6
  4  3  1  0
  5  2  1  0
  5  6  2  0
  8  7  1  1
  8 10  1  0
  8  9  1  0
 11 10  1  1
 11 13  1  0
 12 11  1  0
 12  5  1  0
 13 14  2  0
 13 15  1  0
 15 16  1  0
 16 21  1  0
 16 17  1  6
 18 17  1  0
 19 18  1  0
 20 19  2  0
 21 22  2  0
 21 24  1  0
 23 19  1  0
M  END
$$$$
