CLE.pdb
     RDKit          3D

 24 23  0  0  1  0  0  0  0  0999 V2000
    9.0605  -15.2206   19.6166 N   0  0  0  0  0  0  0  0  0  0  0  0
    7.9595  -15.2013   20.5372 C   0  0  1  0  0  0  0  0  0  0  0  0
    7.2145  -16.5130   20.5306 C   0  0  0  0  0  0  0  0  0  0  0  0
    8.3524  -17.8089   21.0979 S   0  0  0  0  0  0  0  0  0  0  0  0
    8.4455  -14.8821   21.9003 C   0  0  0  0  0  0  0  0  0  0  0  0
    9.6625  -15.0763   22.1706 O   0  0  0  0  0  0  0  0  0  0  0  0
    6.0139  -12.4734   27.0565 C   0  0  0  0  0  0  0  0  0  0  0  0
    7.2866  -13.0734   26.4381 C   0  0  2  0  0  0  0  0  0  0  0  0
    8.3595  -12.0474   26.5964 C   0  0  0  0  0  0  0  0  0  0  0  0
    6.9310  -13.4210   25.0316 C   0  0  0  0  0  0  0  0  0  0  0  0
    7.9940  -14.0965   24.2378 C   0  0  2  0  0  0  0  0  0  0  0  0
    7.5786  -14.3730   22.8802 N   0  0  0  0  0  0  0  0  0  0  0  0
    8.2615  -15.4316   24.8883 C   0  0  0  0  0  0  0  0  0  0  0  0
    7.7586  -16.4623   24.3371 O   0  0  0  0  0  0  0  0  0  0  0  0
    9.0320  -15.5535   26.0559 N   0  0  0  0  0  0  0  0  0  0  0  0
    9.8716  -16.7740   26.2682 C   0  0  1  0  0  0  0  0  0  0  0  0
   10.7993  -16.8604   25.1288 C   0  0  0  0  0  0  0  0  0  0  0  0
   10.9984  -18.2139   24.5482 C   0  0  0  0  0  0  0  0  0  0  0  0
   11.9603  -18.3401   23.4495 C   0  0  0  0  0  0  0  0  0  0  0  0
   11.6267  -18.8810   22.3731 O   0  0  0  0  0  0  0  0  0  0  0  0
   10.4132  -16.7733   27.6094 C   0  0  0  0  0  0  0  0  0  0  0  0
   10.8455  -17.7674   28.2204 O   0  0  0  0  0  0  0  0  0  0  0  0
   13.2429  -17.8582   23.5907 O   0  0  0  0  0  0  0  0  0  0  0  0
   10.4680  -15.5441   28.3127 O   0  0  0  0  0  0  0  0  0  0  0  0
  2  3  1  0
  2  1  1  6
  4  3  1  0
  5  2  1  0
  5  6  2  0
  8  7  1  6
  8 10  1  0
  8  9  1  0
 11 10  1  1
 11 13  1  0
 12 11  1  0
 12  5  1  0
 13 14  2  0
 13 15  1  0
 15 16  1  0
 16 21  1  0
 16 17  1  6
 18 17  1  0
 19 18  1  0
 20 19  2  0
 21 22  2  0
 21 24  1  0
 23 19  1  0
M  END
$$$$
