CLE.pdb
     RDKit          3D

 24 23  0  0  1  0  0  0  0  0999 V2000
    8.1130  -14.4432   20.0264 N   0  0  0  0  0  0  0  0  0  0  0  0
    7.4479  -15.0934   21.1195 C   0  0  1  0  0  0  0  0  0  0  0  0
    7.3514  -16.5823   20.8971 C   0  0  0  0  0  0  0  0  0  0  0  0
    6.1671  -16.8744   19.5525 S   0  0  0  0  0  0  0  0  0  0  0  0
    8.1540  -14.7983   22.3886 C   0  0  0  0  0  0  0  0  0  0  0  0
    9.4138  -14.7300   22.3793 O   0  0  0  0  0  0  0  0  0  0  0  0
    7.6612  -11.5896   25.8579 C   0  0  0  0  0  0  0  0  0  0  0  0
    6.5238  -12.6112   25.7002 C   0  0  2  0  0  0  0  0  0  0  0  0
    5.4673  -12.2248   26.6817 C   0  0  0  0  0  0  0  0  0  0  0  0
    7.1456  -13.9497   25.9176 C   0  0  0  0  0  0  0  0  0  0  0  0
    8.0925  -14.4081   24.8643 C   0  0  2  0  0  0  0  0  0  0  0  0
    7.4462  -14.5968   23.5842 N   0  0  0  0  0  0  0  0  0  0  0  0
    8.6165  -15.7586   25.2871 C   0  0  0  0  0  0  0  0  0  0  0  0
    7.8318  -16.7533   25.1706 O   0  0  0  0  0  0  0  0  0  0  0  0
    9.9153  -15.9322   25.7918 N   0  0  0  0  0  0  0  0  0  0  0  0
   10.4352  -17.3120   26.0471 C   0  0  1  0  0  0  0  0  0  0  0  0
   11.4861  -17.5664   25.0484 C   0  0  0  0  0  0  0  0  0  0  0  0
   12.8054  -16.9345   25.3112 C   0  0  0  0  0  0  0  0  0  0  0  0
   13.8558  -17.1273   24.3074 C   0  0  0  0  0  0  0  0  0  0  0  0
   14.2009  -18.2784   23.9630 O   0  0  0  0  0  0  0  0  0  0  0  0
   10.7540  -17.4679   27.4493 C   0  0  0  0  0  0  0  0  0  0  0  0
   10.6946  -16.5741   28.3131 O   0  0  0  0  0  0  0  0  0  0  0  0
   14.4711  -16.0395   23.7284 O   0  0  0  0  0  0  0  0  0  0  0  0
   11.1741  -18.7419   27.9066 O   0  0  0  0  0  0  0  0  0  0  0  0
  2  3  1  0
  2  1  1  6
  4  3  1  0
  5  2  1  0
  5  6  2  0
  8  7  1  1
  8 10  1  0
  8  9  1  0
 11 10  1  1
 11 13  1  0
 12 11  1  0
 12  5  1  0
 13 14  2  0
 13 15  1  0
 15 16  1  0
 16 21  1  0
 16 17  1  6
 18 17  1  0
 19 18  1  0
 20 19  2  0
 21 22  2  0
 21 24  1  0
 23 19  1  0
M  END
$$$$
