CLE.pdb
     RDKit          3D

 24 23  0  0  1  0  0  0  0  0999 V2000
    8.4880  -16.7666   20.4437 N   0  0  0  0  0  0  0  0  0  0  0  0
    7.8601  -16.8801   21.7294 C   0  0  1  0  0  0  0  0  0  0  0  0
    8.1288  -18.2260   22.3555 C   0  0  0  0  0  0  0  0  0  0  0  0
    7.5554  -19.5066   21.2036 S   0  0  0  0  0  0  0  0  0  0  0  0
    8.3241  -15.7878   22.6170 C   0  0  0  0  0  0  0  0  0  0  0  0
    9.5071  -15.3673   22.4927 O   0  0  0  0  0  0  0  0  0  0  0  0
    5.7646  -12.1636   26.9174 C   0  0  0  0  0  0  0  0  0  0  0  0
    7.0985  -12.5764   26.2753 C   0  0  2  0  0  0  0  0  0  0  0  0
    7.7597  -11.3164   25.8234 C   0  0  0  0  0  0  0  0  0  0  0  0
    6.7482  -13.5428   25.1941 C   0  0  0  0  0  0  0  0  0  0  0  0
    7.8955  -14.1917   24.5021 C   0  0  2  0  0  0  0  0  0  0  0  0
    7.4734  -15.2237   23.5809 N   0  0  0  0  0  0  0  0  0  0  0  0
    8.7321  -14.8711   25.5584 C   0  0  0  0  0  0  0  0  0  0  0  0
    9.3671  -14.1257   26.3709 O   0  0  0  0  0  0  0  0  0  0  0  0
    8.8201  -16.2691   25.6578 N   0  0  0  0  0  0  0  0  0  0  0  0
    9.6803  -16.8862   26.7155 C   0  0  1  0  0  0  0  0  0  0  0  0
    8.8448  -17.8632   27.4323 C   0  0  0  0  0  0  0  0  0  0  0  0
    8.3177  -18.9924   26.6226 C   0  0  0  0  0  0  0  0  0  0  0  0
    7.5964  -20.0516   27.3341 C   0  0  0  0  0  0  0  0  0  0  0  0
    8.2078  -21.0468   27.7796 O   0  0  0  0  0  0  0  0  0  0  0  0
   10.9307  -17.3289   26.1387 C   0  0  0  0  0  0  0  0  0  0  0  0
   11.2184  -17.3175   24.9281 O   0  0  0  0  0  0  0  0  0  0  0  0
    6.2354  -19.9582   27.5238 O   0  0  0  0  0  0  0  0  0  0  0  0
   11.9349  -17.8243   27.0075 O   0  0  0  0  0  0  0  0  0  0  0  0
  2  3  1  0
  2  1  1  6
  4  3  1  0
  5  2  1  0
  5  6  2  0
  8  7  1  6
  8 10  1  0
  8  9  1  0
 11 10  1  1
 11 13  1  0
 12 11  1  0
 12  5  1  0
 13 14  2  0
 13 15  1  0
 15 16  1  0
 16 21  1  0
 16 17  1  6
 18 17  1  0
 19 18  1  0
 20 19  2  0
 21 22  2  0
 21 24  1  0
 23 19  1  0
M  END
$$$$
