NNV.pdb
     RDKit          3D

 24 23  0  0  1  0  0  0  0  0999 V2000
    8.5695  -12.4601   17.4536 N   0  0  0  0  0  0  0  0  0  0  0  0
    7.9665  -13.7329   17.6515 C   0  0  0  0  0  0  0  0  0  0  0  0
    8.0359  -14.5424   16.6852 O   0  0  0  0  0  0  0  0  0  0  0  0
    7.2829  -14.1352   18.9034 C   0  0  0  0  0  0  0  0  0  0  0  0
    8.3114  -14.3910   19.9522 C   0  0  2  0  0  0  0  0  0  0  0  0
    9.1730  -15.4770   19.5324 N   0  0  0  0  0  0  0  0  0  0  0  0
    7.7154  -14.6938   21.2890 C   0  0  0  0  0  0  0  0  0  0  0  0
    6.7982  -13.9207   21.7074 O   0  0  0  0  0  0  0  0  0  0  0  0
    7.5201  -19.2416   21.8343 N   0  0  0  0  0  0  0  0  0  0  0  0
    6.9017  -18.3691   22.7892 C   0  0  0  0  0  0  0  0  0  0  0  0
    5.6423  -18.3770   22.7911 O   0  0  0  0  0  0  0  0  0  0  0  0
    7.7353  -17.5432   23.6811 C   0  0  0  0  0  0  0  0  0  0  0  0
    7.6818  -16.0774   23.3592 C   0  0  2  0  0  0  0  0  0  0  0  0
    8.1753  -15.7974   22.0258 N   0  0  0  0  0  0  0  0  0  0  0  0
    8.3673  -15.2234   24.3596 C   0  0  0  0  0  0  0  0  0  0  0  0
    9.6157  -15.1264   24.4316 O   0  0  0  0  0  0  0  0  0  0  0  0
    6.9860  -11.6512   25.5791 C   0  0  0  0  0  0  0  0  0  0  0  0
    7.3800  -12.4852   26.7781 C   0  0  1  0  0  0  0  0  0  0  0  0
    6.0940  -12.9891   27.4049 C   0  0  0  0  0  0  0  0  0  0  0  0
    8.2415  -13.6087   26.3193 C   0  0  2  0  0  0  0  0  0  0  0  0
    7.6227  -14.4469   25.3179 N   0  0  0  0  0  0  0  0  0  0  0  0
    8.7562  -14.3772   27.4624 C   0  0  0  0  0  0  0  0  0  0  0  0
    9.6547  -13.7846   28.3283 O   0  0  0  0  0  0  0  0  0  0  0  0
    8.4007  -15.5560   27.6726 O   0  0  0  0  0  0  0  0  0  0  0  0
  1  2  1  0
  2  3  2  0
  4  5  1  0
  4  2  1  0
  5  6  1  6
  7  5  1  0
  8  7  2  0
  9 10  1  0
 10 11  2  0
 10 12  1  0
 13 12  1  1
 13 15  1  0
 13 14  1  0
 14  7  1  0
 15 21  1  0
 16 15  2  0
 18 17  1  6
 19 18  1  0
 20 18  1  0
 20 22  1  0
 20 21  1  6
 22 24  2  0
 22 23  1  0
M  END
$$$$
