NNV.pdb
     RDKit          3D

 24 23  0  0  1  0  0  0  0  0999 V2000
    7.0622  -14.1656   16.0729 N   0  0  0  0  0  0  0  0  0  0  0  0
    7.9627  -13.8166   17.1169 C   0  0  0  0  0  0  0  0  0  0  0  0
    9.1930  -13.8915   16.8444 O   0  0  0  0  0  0  0  0  0  0  0  0
    7.5310  -13.3829   18.4667 C   0  0  0  0  0  0  0  0  0  0  0  0
    8.6428  -13.6287   19.4293 C   0  0  2  0  0  0  0  0  0  0  0  0
    9.6595  -14.4449   18.7984 N   0  0  0  0  0  0  0  0  0  0  0  0
    8.1817  -14.2701   20.6982 C   0  0  0  0  0  0  0  0  0  0  0  0
    7.1978  -13.7354   21.2980 O   0  0  0  0  0  0  0  0  0  0  0  0
    9.7402  -18.6786   24.5923 N   0  0  0  0  0  0  0  0  0  0  0  0
    8.6770  -18.0584   23.8573 C   0  0  0  0  0  0  0  0  0  0  0  0
    7.5469  -18.0905   24.4122 O   0  0  0  0  0  0  0  0  0  0  0  0
    8.9491  -17.4416   22.5465 C   0  0  0  0  0  0  0  0  0  0  0  0
    8.4692  -16.0224   22.4441 C   0  0  2  0  0  0  0  0  0  0  0  0
    8.8337  -15.4173   21.1788 N   0  0  0  0  0  0  0  0  0  0  0  0
    8.9002  -15.1657   23.5757 C   0  0  0  0  0  0  0  0  0  0  0  0
   10.0874  -14.7945   23.7356 O   0  0  0  0  0  0  0  0  0  0  0  0
    6.0548  -13.2102   26.3019 C   0  0  0  0  0  0  0  0  0  0  0  0
    7.4073  -12.6937   25.8636 C   0  0  1  0  0  0  0  0  0  0  0  0
    7.8995  -11.7660   26.9579 C   0  0  0  0  0  0  0  0  0  0  0  0
    8.3245  -13.8503   25.6738 C   0  0  2  0  0  0  0  0  0  0  0  0
    7.9618  -14.7071   24.5680 N   0  0  0  0  0  0  0  0  0  0  0  0
    8.5024  -14.5920   26.9309 C   0  0  0  0  0  0  0  0  0  0  0  0
    9.2642  -14.0394   27.9421 O   0  0  0  0  0  0  0  0  0  0  0  0
    7.9802  -15.7125   27.1099 O   0  0  0  0  0  0  0  0  0  0  0  0
  1  2  1  0
  2  3  2  0
  4  5  1  0
  4  2  1  0
  5  6  1  6
  7  5  1  0
  8  7  2  0
  9 10  1  0
 10 11  2  0
 10 12  1  0
 13 12  1  1
 13 15  1  0
 13 14  1  0
 14  7  1  0
 15 21  1  0
 16 15  2  0
 18 17  1  1
 19 18  1  0
 20 18  1  0
 20 22  1  0
 20 21  1  6
 22 24  2  0
 22 23  1  0
M  END
$$$$
