NNV.pdb
     RDKit          3D

 24 23  0  0  1  0  0  0  0  0999 V2000
    8.6714  -12.1211   17.9533 N   0  0  0  0  0  0  0  0  0  0  0  0
    8.0508  -13.3996   17.8992 C   0  0  0  0  0  0  0  0  0  0  0  0
    8.0148  -13.9578   16.7674 O   0  0  0  0  0  0  0  0  0  0  0  0
    7.4640  -14.0813   19.0770 C   0  0  0  0  0  0  0  0  0  0  0  0
    8.4219  -15.1168   19.5601 C   0  0  2  0  0  0  0  0  0  0  0  0
    8.4414  -16.2299   18.6334 N   0  0  0  0  0  0  0  0  0  0  0  0
    8.1083  -15.6004   20.9391 C   0  0  0  0  0  0  0  0  0  0  0  0
    6.8831  -15.6725   21.2674 O   0  0  0  0  0  0  0  0  0  0  0  0
    8.4580  -17.4214   25.7246 N   0  0  0  0  0  0  0  0  0  0  0  0
    9.4205  -18.0906   24.8991 C   0  0  0  0  0  0  0  0  0  0  0  0
   10.0050  -19.0685   25.4360 O   0  0  0  0  0  0  0  0  0  0  0  0
    9.6662  -17.6201   23.5241 C   0  0  0  0  0  0  0  0  0  0  0  0
    8.8913  -16.3836   23.1695 C   0  0  2  0  0  0  0  0  0  0  0  0
    9.1516  -15.9524   21.8107 N   0  0  0  0  0  0  0  0  0  0  0  0
    9.0919  -15.2630   24.1203 C   0  0  0  0  0  0  0  0  0  0  0  0
   10.2038  -14.7103   24.2972 O   0  0  0  0  0  0  0  0  0  0  0  0
    5.7943  -13.3550   26.4254 C   0  0  0  0  0  0  0  0  0  0  0  0
    7.0217  -12.6914   25.8410 C   0  0  1  0  0  0  0  0  0  0  0  0
    7.3197  -11.4803   26.7040 C   0  0  0  0  0  0  0  0  0  0  0  0
    8.1474  -13.6648   25.8573 C   0  0  2  0  0  0  0  0  0  0  0  0
    8.0016  -14.7413   24.9044 N   0  0  0  0  0  0  0  0  0  0  0  0
    8.4056  -14.1471   27.2222 C   0  0  0  0  0  0  0  0  0  0  0  0
    8.9407  -13.2822   28.1570 O   0  0  0  0  0  0  0  0  0  0  0  0
    8.1521  -15.3225   27.5605 O   0  0  0  0  0  0  0  0  0  0  0  0
  1  2  1  0
  2  3  2  0
  4  5  1  0
  4  2  1  0
  5  6  1  6
  7  5  1  0
  8  7  2  0
  9 10  1  0
 10 11  2  0
 10 12  1  0
 13 12  1  1
 13 15  1  0
 13 14  1  0
 14  7  1  0
 15 21  1  0
 16 15  2  0
 18 17  1  1
 19 18  1  0
 20 18  1  0
 20 22  1  0
 20 21  1  6
 22 24  2  0
 22 23  1  0
M  END
$$$$
