NNV.pdb
     RDKit          3D

 24 23  0  0  1  0  0  0  0  0999 V2000
    8.3024  -12.3862   17.4535 N   0  0  0  0  0  0  0  0  0  0  0  0
    7.9788  -13.7543   17.6683 C   0  0  0  0  0  0  0  0  0  0  0  0
    8.3096  -14.5589   16.7535 O   0  0  0  0  0  0  0  0  0  0  0  0
    7.2921  -14.2581   18.8811 C   0  0  0  0  0  0  0  0  0  0  0  0
    8.3157  -14.5653   19.9208 C   0  0  2  0  0  0  0  0  0  0  0  0
    9.1889  -15.6188   19.4459 N   0  0  0  0  0  0  0  0  0  0  0  0
    7.7135  -14.9485   21.2340 C   0  0  0  0  0  0  0  0  0  0  0  0
    6.8711  -14.1467   21.7455 O   0  0  0  0  0  0  0  0  0  0  0  0
    5.9829  -18.5830   25.1180 N   0  0  0  0  0  0  0  0  0  0  0  0
    7.3660  -18.3714   24.8052 C   0  0  0  0  0  0  0  0  0  0  0  0
    8.1676  -18.5400   25.7619 O   0  0  0  0  0  0  0  0  0  0  0  0
    7.7618  -17.9839   23.4393 C   0  0  0  0  0  0  0  0  0  0  0  0
    7.6005  -16.5163   23.1654 C   0  0  2  0  0  0  0  0  0  0  0  0
    8.0870  -16.1543   21.8493 N   0  0  0  0  0  0  0  0  0  0  0  0
    8.2069  -15.6474   24.2033 C   0  0  0  0  0  0  0  0  0  0  0  0
    9.4438  -15.4645   24.3012 O   0  0  0  0  0  0  0  0  0  0  0  0
    7.6481  -12.1541   27.6594 C   0  0  0  0  0  0  0  0  0  0  0  0
    6.9352  -13.1226   26.7418 C   0  0  1  0  0  0  0  0  0  0  0  0
    6.2837  -12.2955   25.6501 C   0  0  0  0  0  0  0  0  0  0  0  0
    7.9314  -14.0771   26.1837 C   0  0  2  0  0  0  0  0  0  0  0  0
    7.3933  -14.9559   25.1706 N   0  0  0  0  0  0  0  0  0  0  0  0
    8.6204  -14.8063   27.2588 C   0  0  0  0  0  0  0  0  0  0  0  0
    9.7143  -14.2307   27.8754 O   0  0  0  0  0  0  0  0  0  0  0  0
    8.2408  -15.9365   27.6314 O   0  0  0  0  0  0  0  0  0  0  0  0
  1  2  1  0
  2  3  2  0
  4  5  1  0
  4  2  1  0
  5  6  1  6
  7  5  1  0
  8  7  2  0
  9 10  1  0
 10 11  2  0
 10 12  1  0
 13 12  1  1
 13 15  1  0
 13 14  1  0
 14  7  1  0
 15 21  1  0
 16 15  2  0
 18 17  1  1
 19 18  1  0
 20 18  1  0
 20 22  1  0
 20 21  1  6
 22 24  2  0
 22 23  1  0
M  END
$$$$
