NNV.pdb
     RDKit          3D

 24 23  0  0  1  0  0  0  0  0999 V2000
    8.2481  -16.7698   17.3876 N   0  0  0  0  0  0  0  0  0  0  0  0
    7.1675  -17.4018   18.0625 C   0  0  0  0  0  0  0  0  0  0  0  0
    6.3965  -18.1044   17.3514 O   0  0  0  0  0  0  0  0  0  0  0  0
    6.9171  -17.2742   19.5176 C   0  0  0  0  0  0  0  0  0  0  0  0
    7.8892  -16.2987   20.0892 C   0  0  2  0  0  0  0  0  0  0  0  0
    9.2242  -16.6153   19.6250 N   0  0  0  0  0  0  0  0  0  0  0  0
    7.8598  -16.2565   21.5829 C   0  0  0  0  0  0  0  0  0  0  0  0
    6.7476  -15.9926   22.1373 O   0  0  0  0  0  0  0  0  0  0  0  0
    8.6318  -19.6414   24.3273 N   0  0  0  0  0  0  0  0  0  0  0  0
    9.8101  -18.9678   23.8652 C   0  0  0  0  0  0  0  0  0  0  0  0
   10.5690  -19.6518   23.1287 O   0  0  0  0  0  0  0  0  0  0  0  0
   10.0622  -17.5699   24.2588 C   0  0  0  0  0  0  0  0  0  0  0  0
    9.0199  -16.6121   23.7576 C   0  0  2  0  0  0  0  0  0  0  0  0
    9.0339  -16.5038   22.3126 N   0  0  0  0  0  0  0  0  0  0  0  0
    9.0967  -15.2691   24.3825 C   0  0  0  0  0  0  0  0  0  0  0  0
   10.1590  -14.6050   24.4418 O   0  0  0  0  0  0  0  0  0  0  0  0
    5.6804  -13.3898   26.5204 C   0  0  0  0  0  0  0  0  0  0  0  0
    6.7056  -12.6467   25.6926 C   0  0  1  0  0  0  0  0  0  0  0  0
    6.8666  -11.2751   26.3198 C   0  0  0  0  0  0  0  0  0  0  0  0
    7.9830  -13.4101   25.7119 C   0  0  2  0  0  0  0  0  0  0  0  0
    7.9354  -14.6459   24.9644 N   0  0  0  0  0  0  0  0  0  0  0  0
    8.4619  -13.5989   27.0893 C   0  0  0  0  0  0  0  0  0  0  0  0
    8.5639  -14.8775   27.6022 O   0  0  0  0  0  0  0  0  0  0  0  0
    8.7808  -12.6302   27.8105 O   0  0  0  0  0  0  0  0  0  0  0  0
  1  2  1  0
  2  3  2  0
  4  5  1  0
  4  2  1  0
  5  6  1  1
  7  5  1  0
  8  7  2  0
  9 10  1  0
 10 11  2  0
 10 12  1  0
 13 12  1  1
 13 15  1  0
 13 14  1  0
 14  7  1  0
 15 21  1  0
 16 15  2  0
 18 17  1  1
 19 18  1  0
 20 18  1  0
 20 22  1  0
 20 21  1  1
 22 24  2  0
 22 23  1  0
M  END
$$$$
