NNV.pdb
     RDKit          3D

 24 23  0  0  1  0  0  0  0  0999 V2000
    8.6597  -12.1690   18.0553 N   0  0  0  0  0  0  0  0  0  0  0  0
    7.9496  -13.4006   18.0172 C   0  0  0  0  0  0  0  0  0  0  0  0
    7.7755  -13.9122   16.8763 O   0  0  0  0  0  0  0  0  0  0  0  0
    7.4231  -14.0859   19.2212 C   0  0  0  0  0  0  0  0  0  0  0  0
    8.4029  -15.1245   19.6506 C   0  0  2  0  0  0  0  0  0  0  0  0
    8.3508  -16.2478   18.7378 N   0  0  0  0  0  0  0  0  0  0  0  0
    8.1792  -15.5899   21.0532 C   0  0  0  0  0  0  0  0  0  0  0  0
    6.9767  -15.6795   21.4532 O   0  0  0  0  0  0  0  0  0  0  0  0
   10.6319  -19.3042   21.7766 N   0  0  0  0  0  0  0  0  0  0  0  0
    9.6529  -18.7655   22.6749 C   0  0  0  0  0  0  0  0  0  0  0  0
    8.5454  -19.3651   22.6889 O   0  0  0  0  0  0  0  0  0  0  0  0
    9.9785  -17.5885   23.5002 C   0  0  0  0  0  0  0  0  0  0  0  0
    9.1020  -16.4020   23.2189 C   0  0  2  0  0  0  0  0  0  0  0  0
    9.2779  -15.9068   21.8684 N   0  0  0  0  0  0  0  0  0  0  0  0
    9.2560  -15.3024   24.2023 C   0  0  0  0  0  0  0  0  0  0  0  0
   10.3285  -14.6705   24.3554 O   0  0  0  0  0  0  0  0  0  0  0  0
    7.3293  -11.8590   27.0973 C   0  0  0  0  0  0  0  0  0  0  0  0
    7.0443  -13.0077   26.1552 C   0  0  1  0  0  0  0  0  0  0  0  0
    6.6576  -12.3971   24.8218 C   0  0  0  0  0  0  0  0  0  0  0  0
    8.2675  -13.8474   26.0379 C   0  0  2  0  0  0  0  0  0  0  0  0
    8.1631  -14.8951   25.0481 N   0  0  0  0  0  0  0  0  0  0  0  0
    8.6878  -14.3508   27.3540 C   0  0  0  0  0  0  0  0  0  0  0  0
    9.4366  -13.5383   28.1831 O   0  0  0  0  0  0  0  0  0  0  0  0
    8.3840  -15.4978   27.7441 O   0  0  0  0  0  0  0  0  0  0  0  0
  1  2  1  0
  2  3  2  0
  4  5  1  0
  4  2  1  0
  5  6  1  6
  7  5  1  0
  8  7  2  0
  9 10  1  0
 10 11  2  0
 10 12  1  0
 13 12  1  1
 13 15  1  0
 13 14  1  0
 14  7  1  0
 15 21  1  0
 16 15  2  0
 18 17  1  1
 19 18  1  0
 20 18  1  0
 20 22  1  0
 20 21  1  6
 22 24  2  0
 22 23  1  0
M  END
$$$$
