NNV.pdb
     RDKit          3D

 24 23  0  0  1  0  0  0  0  0999 V2000
    7.9453  -12.4303   17.1648 N   0  0  0  0  0  0  0  0  0  0  0  0
    7.9383  -13.8162   17.4835 C   0  0  0  0  0  0  0  0  0  0  0  0
    8.3948  -14.5964   16.6023 O   0  0  0  0  0  0  0  0  0  0  0  0
    7.4341  -14.3646   18.7648 C   0  0  0  0  0  0  0  0  0  0  0  0
    8.5537  -14.3942   19.7490 C   0  0  2  0  0  0  0  0  0  0  0  0
    9.5984  -15.2753   19.2694 N   0  0  0  0  0  0  0  0  0  0  0  0
    8.1152  -14.8115   21.1156 C   0  0  0  0  0  0  0  0  0  0  0  0
    7.1109  -14.2139   21.6138 O   0  0  0  0  0  0  0  0  0  0  0  0
   11.0330  -18.3221   22.2400 N   0  0  0  0  0  0  0  0  0  0  0  0
   10.4349  -17.7015   23.3857 C   0  0  0  0  0  0  0  0  0  0  0  0
   11.2429  -17.2836   24.2567 O   0  0  0  0  0  0  0  0  0  0  0  0
    8.9683  -17.5893   23.4816 C   0  0  0  0  0  0  0  0  0  0  0  0
    8.4514  -16.2213   23.1407 C   0  0  2  0  0  0  0  0  0  0  0  0
    8.8091  -15.8274   21.7928 N   0  0  0  0  0  0  0  0  0  0  0  0
    8.8507  -15.1752   24.1135 C   0  0  0  0  0  0  0  0  0  0  0  0
    9.9669  -14.6042   24.0802 O   0  0  0  0  0  0  0  0  0  0  0  0
    7.2618  -11.9473   24.8475 C   0  0  0  0  0  0  0  0  0  0  0  0
    7.3259  -12.6170   26.2024 C   0  0  1  0  0  0  0  0  0  0  0  0
    5.9270  -13.1133   26.5143 C   0  0  0  0  0  0  0  0  0  0  0  0
    8.3022  -13.7385   26.1380 C   0  0  2  0  0  0  0  0  0  0  0  0
    7.9624  -14.7525   25.1661 N   0  0  0  0  0  0  0  0  0  0  0  0
    8.5512  -14.2962   27.4756 C   0  0  0  0  0  0  0  0  0  0  0  0
    8.2516  -15.6217   27.7239 O   0  0  0  0  0  0  0  0  0  0  0  0
    9.0291  -13.6009   28.3966 O   0  0  0  0  0  0  0  0  0  0  0  0
  1  2  1  0
  2  3  2  0
  4  5  1  0
  4  2  1  0
  5  6  1  6
  7  5  1  0
  8  7  2  0
  9 10  1  0
 10 11  2  0
 10 12  1  0
 13 12  1  1
 13 15  1  0
 13 14  1  0
 14  7  1  0
 15 21  1  0
 16 15  2  0
 18 17  1  6
 19 18  1  0
 20 18  1  0
 20 22  1  0
 20 21  1  6
 22 24  2  0
 22 23  1  0
M  END
$$$$
