NNV.pdb
     RDKit          3D

 24 23  0  0  1  0  0  0  0  0999 V2000
    8.5388  -12.5121   17.1220 N   0  0  0  0  0  0  0  0  0  0  0  0
    8.1211  -13.8371   17.4265 C   0  0  0  0  0  0  0  0  0  0  0  0
    8.4526  -14.7329   16.6012 O   0  0  0  0  0  0  0  0  0  0  0  0
    7.3388  -14.1978   18.6324 C   0  0  0  0  0  0  0  0  0  0  0  0
    8.2830  -14.5671   19.7257 C   0  0  2  0  0  0  0  0  0  0  0  0
    9.0189  -15.7568   19.3501 N   0  0  0  0  0  0  0  0  0  0  0  0
    7.5991  -14.7775   21.0379 C   0  0  0  0  0  0  0  0  0  0  0  0
    6.8924  -13.8221   21.4871 O   0  0  0  0  0  0  0  0  0  0  0  0
    5.3872  -17.7602   21.6082 N   0  0  0  0  0  0  0  0  0  0  0  0
    6.1797  -18.4231   22.6022 C   0  0  0  0  0  0  0  0  0  0  0  0
    5.9827  -19.6622   22.7115 O   0  0  0  0  0  0  0  0  0  0  0  0
    7.1428  -17.6537   23.4104 C   0  0  0  0  0  0  0  0  0  0  0  0
    7.2008  -16.1986   23.0436 C   0  0  2  0  0  0  0  0  0  0  0  0
    7.7537  -15.9954   21.7196 N   0  0  0  0  0  0  0  0  0  0  0  0
    7.9123  -15.3619   24.0405 C   0  0  0  0  0  0  0  0  0  0  0  0
    9.1623  -15.3343   24.1389 O   0  0  0  0  0  0  0  0  0  0  0  0
    5.8233  -12.9912   27.1201 C   0  0  0  0  0  0  0  0  0  0  0  0
    6.9908  -12.4750   26.3084 C   0  0  1  0  0  0  0  0  0  0  0  0
    7.7534  -11.5121   27.1982 C   0  0  0  0  0  0  0  0  0  0  0  0
    7.8377  -13.6282   25.8985 C   0  0  2  0  0  0  0  0  0  0  0  0
    7.1928  -14.5225   24.9643 N   0  0  0  0  0  0  0  0  0  0  0  0
    8.3767  -14.3286   27.0737 C   0  0  0  0  0  0  0  0  0  0  0  0
    9.4096  -13.7553   27.7897 O   0  0  0  0  0  0  0  0  0  0  0  0
    7.9232  -15.4320   27.4437 O   0  0  0  0  0  0  0  0  0  0  0  0
  1  2  1  0
  2  3  2  0
  4  5  1  0
  4  2  1  0
  5  6  1  6
  7  5  1  0
  8  7  2  0
  9 10  1  0
 10 11  2  0
 10 12  1  0
 13 12  1  1
 13 15  1  0
 13 14  1  0
 14  7  1  0
 15 21  1  0
 16 15  2  0
 18 17  1  1
 19 18  1  0
 20 18  1  0
 20 22  1  0
 20 21  1  1
 22 24  2  0
 22 23  1  0
M  END
$$$$
