NGG.pdb
     RDKit          3D

 17 16  0  0  1  0  0  0  0  0999 V2000
   16.5988  -14.6411  -16.9528 N   0  0  0  0  0  0  0  0  0  0  0  0
   17.3136  -14.0076  -15.9158 C   0  0  0  0  0  0  0  0  0  0  0  0
   18.1550  -14.6338  -15.2645 O   0  0  0  0  0  0  0  0  0  0  0  0
   17.0447  -12.5822  -15.6152 C   0  0  0  0  0  0  0  0  0  0  0  0
   18.1287  -11.6998  -16.2024 C   0  0  2  0  0  0  0  0  0  0  0  0
   19.3696  -12.0260  -15.5403 N   0  0  0  0  0  0  0  0  0  0  0  0
   17.8152  -10.2757  -15.9617 C   0  0  0  0  0  0  0  0  0  0  0  0
   16.7756   -9.7385  -16.4405 O   0  0  0  0  0  0  0  0  0  0  0  0
   18.7018   -9.4720  -15.1682 N   0  0  0  0  0  0  0  0  0  0  0  0
   18.3378   -8.1080  -14.8934 C   0  0  0  0  0  0  0  0  0  0  0  0
   19.3752   -7.4843  -14.0377 C   0  0  0  0  0  0  0  0  0  0  0  0
   19.9863   -8.1446  -13.1314 O   0  0  0  0  0  0  0  0  0  0  0  0
   19.7543   -6.1155  -14.1719 N   0  0  0  0  0  0  0  0  0  0  0  0
   20.7640   -5.5448  -13.3223 C   0  0  0  0  0  0  0  0  0  0  0  0
   22.0569   -5.5707  -14.0451 C   0  0  0  0  0  0  0  0  0  0  0  0
   23.1934   -4.9269  -13.5403 O   0  0  0  0  0  0  0  0  0  0  0  0
   22.1914   -6.1644  -15.1305 O   0  0  0  0  0  0  0  0  0  0  0  0
  1  2  1  0
  2  3  2  0
  4  2  1  0
  5  4  1  0
  5  6  1  1
  7  8  2  0
  7  5  1  0
  9  7  1  0
 10 11  1  0
 10  9  1  0
 11 13  1  0
 12 11  2  0
 13 14  1  0
 14 15  1  0
 15 16  1  0
 17 15  2  0
M  END
$$$$
