NGG.pdb
     RDKit          3D

 17 16  0  0  1  0  0  0  0  0999 V2000
   17.0314   -9.8762  -17.3208 N   0  0  0  0  0  0  0  0  0  0  0  0
   17.8096  -10.5992  -16.3936 C   0  0  0  0  0  0  0  0  0  0  0  0
   17.9893  -10.1610  -15.2536 O   0  0  0  0  0  0  0  0  0  0  0  0
   18.4097  -11.8906  -16.8016 C   0  0  0  0  0  0  0  0  0  0  0  0
   19.8595  -11.9665  -16.3646 C   0  0  2  0  0  0  0  0  0  0  0  0
   19.9235  -11.5684  -14.9782 N   0  0  0  0  0  0  0  0  0  0  0  0
   20.6853  -11.0418  -17.1690 C   0  0  0  0  0  0  0  0  0  0  0  0
   20.8899  -11.2408  -18.4007 O   0  0  0  0  0  0  0  0  0  0  0  0
   21.2747   -9.8872  -16.5514 N   0  0  0  0  0  0  0  0  0  0  0  0
   22.1822   -9.0798  -17.3214 C   0  0  0  0  0  0  0  0  0  0  0  0
   22.6542   -7.9441  -16.4938 C   0  0  0  0  0  0  0  0  0  0  0  0
   23.4395   -7.0518  -16.9608 O   0  0  0  0  0  0  0  0  0  0  0  0
   22.2633   -7.7771  -15.1320 N   0  0  0  0  0  0  0  0  0  0  0  0
   22.5469   -6.5552  -14.4294 C   0  0  0  0  0  0  0  0  0  0  0  0
   21.2823   -5.8005  -14.2685 C   0  0  0  0  0  0  0  0  0  0  0  0
   21.1942   -4.6867  -13.4242 O   0  0  0  0  0  0  0  0  0  0  0  0
   20.2440   -6.1210  -14.8748 O   0  0  0  0  0  0  0  0  0  0  0  0
  1  2  1  0
  2  3  2  0
  4  2  1  0
  5  4  1  0
  5  6  1  1
  7  8  2  0
  7  5  1  0
  9  7  1  0
 10 11  1  0
 10  9  1  0
 11 13  1  0
 12 11  2  0
 13 14  1  0
 14 15  1  0
 15 16  1  0
 17 15  2  0
M  END
$$$$
