NGG.pdb
     RDKit          3D

 17 16  0  0  1  0  0  0  0  0999 V2000
   17.2565  -14.0122  -17.6287 N   0  0  0  0  0  0  0  0  0  0  0  0
   18.1561  -13.5120  -18.5921 C   0  0  0  0  0  0  0  0  0  0  0  0
   18.6002  -14.2518  -19.4750 O   0  0  0  0  0  0  0  0  0  0  0  0
   18.5633  -12.0888  -18.5342 C   0  0  0  0  0  0  0  0  0  0  0  0
   20.0611  -11.9707  -18.3313 C   0  0  2  0  0  0  0  0  0  0  0  0
   20.3714  -12.4951  -17.0224 N   0  0  0  0  0  0  0  0  0  0  0  0
   20.4753  -10.5534  -18.3920 C   0  0  0  0  0  0  0  0  0  0  0  0
   20.5179   -9.9244  -19.4881 O   0  0  0  0  0  0  0  0  0  0  0  0
   20.8401   -9.8622  -17.1875 N   0  0  0  0  0  0  0  0  0  0  0  0
   21.3055   -8.5047  -17.2842 C   0  0  0  0  0  0  0  0  0  0  0  0
   21.6682   -8.0113  -15.9342 C   0  0  0  0  0  0  0  0  0  0  0  0
   21.1196   -8.4748  -14.8783 O   0  0  0  0  0  0  0  0  0  0  0  0
   22.6472   -6.9937  -15.7307 N   0  0  0  0  0  0  0  0  0  0  0  0
   23.0439   -6.6091  -14.4033 C   0  0  0  0  0  0  0  0  0  0  0  0
   22.1388   -5.5341  -13.9345 C   0  0  0  0  0  0  0  0  0  0  0  0
   22.3012   -4.9322  -12.6806 O   0  0  0  0  0  0  0  0  0  0  0  0
   21.1959   -5.1181  -14.6320 O   0  0  0  0  0  0  0  0  0  0  0  0
  1  2  1  0
  2  3  2  0
  4  2  1  0
  5  4  1  0
  5  6  1  1
  7  8  2  0
  7  5  1  0
  9  7  1  0
 10 11  1  0
 10  9  1  0
 11 13  1  0
 12 11  2  0
 13 14  1  0
 14 15  1  0
 15 16  1  0
 17 15  2  0
M  END
$$$$
