NGG.pdb
     RDKit          3D

 17 16  0  0  1  0  0  0  0  0999 V2000
   17.9789  -14.3025  -17.6029 N   0  0  0  0  0  0  0  0  0  0  0  0
   18.5608  -13.6084  -16.5225 C   0  0  0  0  0  0  0  0  0  0  0  0
   19.1114  -14.2270  -15.6070 O   0  0  0  0  0  0  0  0  0  0  0  0
   18.5047  -12.1283  -16.4970 C   0  0  0  0  0  0  0  0  0  0  0  0
   19.7847  -11.5366  -17.0539 C   0  0  2  0  0  0  0  0  0  0  0  0
   20.8656  -11.9191  -16.1765 N   0  0  0  0  0  0  0  0  0  0  0  0
   19.6933  -10.0619  -17.0896 C   0  0  0  0  0  0  0  0  0  0  0  0
   18.9077   -9.4682  -17.8827 O   0  0  0  0  0  0  0  0  0  0  0  0
   20.5087   -9.2729  -16.2097 N   0  0  0  0  0  0  0  0  0  0  0  0
   20.3082   -7.8492  -16.1736 C   0  0  0  0  0  0  0  0  0  0  0  0
   21.2158   -7.2494  -15.1667 C   0  0  0  0  0  0  0  0  0  0  0  0
   21.6346   -7.9122  -14.1586 O   0  0  0  0  0  0  0  0  0  0  0  0
   21.6759   -5.9022  -15.2596 N   0  0  0  0  0  0  0  0  0  0  0  0
   22.6053   -5.3740  -14.2981 C   0  0  0  0  0  0  0  0  0  0  0  0
   21.8665   -5.0583  -13.0535 C   0  0  0  0  0  0  0  0  0  0  0  0
   22.5235   -4.5953  -11.9068 O   0  0  0  0  0  0  0  0  0  0  0  0
   20.6318   -5.1896  -12.9709 O   0  0  0  0  0  0  0  0  0  0  0  0
  1  2  1  0
  2  3  2  0
  4  2  1  0
  5  4  1  0
  5  6  1  1
  7  8  2  0
  7  5  1  0
  9  7  1  0
 10 11  1  0
 10  9  1  0
 11 13  1  0
 12 11  2  0
 13 14  1  0
 14 15  1  0
 15 16  1  0
 17 15  2  0
M  END
$$$$
