NGG.pdb
     RDKit          3D

 17 16  0  0  1  0  0  0  0  0999 V2000
   19.1181  -14.6857  -16.2146 N   0  0  0  0  0  0  0  0  0  0  0  0
   18.8283  -13.3422  -15.9003 C   0  0  0  0  0  0  0  0  0  0  0  0
   17.6588  -12.9716  -15.7626 O   0  0  0  0  0  0  0  0  0  0  0  0
   19.9420  -12.3792  -15.7369 C   0  0  0  0  0  0  0  0  0  0  0  0
   19.4340  -10.9543  -15.8385 C   0  0  2  0  0  0  0  0  0  0  0  0
   19.2617  -10.6464  -17.2385 N   0  0  0  0  0  0  0  0  0  0  0  0
   20.4186  -10.0176  -15.2578 C   0  0  0  0  0  0  0  0  0  0  0  0
   20.6574   -9.9966  -14.0164 O   0  0  0  0  0  0  0  0  0  0  0  0
   21.1277   -9.1054  -16.1103 N   0  0  0  0  0  0  0  0  0  0  0  0
   22.1150   -8.2387  -15.5250 C   0  0  0  0  0  0  0  0  0  0  0  0
   21.4557   -7.0097  -15.0227 C   0  0  0  0  0  0  0  0  0  0  0  0
   22.1284   -6.0091  -14.6018 O   0  0  0  0  0  0  0  0  0  0  0  0
   20.0368   -6.8679  -14.9782 N   0  0  0  0  0  0  0  0  0  0  0  0
   19.4305   -5.7305  -14.3412 C   0  0  0  0  0  0  0  0  0  0  0  0
   19.2789   -4.6533  -15.3468 C   0  0  0  0  0  0  0  0  0  0  0  0
   19.1929   -3.3065  -14.9730 O   0  0  0  0  0  0  0  0  0  0  0  0
   19.2215   -4.8957  -16.5661 O   0  0  0  0  0  0  0  0  0  0  0  0
  1  2  1  0
  2  3  2  0
  4  2  1  0
  5  4  1  0
  5  6  1  6
  7  8  2  0
  7  5  1  0
  9  7  1  0
 10 11  1  0
 10  9  1  0
 11 13  1  0
 12 11  2  0
 13 14  1  0
 14 15  1  0
 15 16  1  0
 17 15  2  0
M  END
$$$$
