NGG.pdb
     RDKit          3D

 17 16  0  0  1  0  0  0  0  0999 V2000
   15.4680  -11.4622  -15.9672 N   0  0  0  0  0  0  0  0  0  0  0  0
   16.4758  -10.6870  -15.3580 C   0  0  0  0  0  0  0  0  0  0  0  0
   17.0761  -11.1114  -14.3662 O   0  0  0  0  0  0  0  0  0  0  0  0
   16.8071   -9.3571  -15.9202 C   0  0  0  0  0  0  0  0  0  0  0  0
   18.1709   -9.3829  -16.5822 C   0  0  2  0  0  0  0  0  0  0  0  0
   19.1565   -9.6126  -15.5525 N   0  0  0  0  0  0  0  0  0  0  0  0
   18.4484   -8.0851  -17.2325 C   0  0  0  0  0  0  0  0  0  0  0  0
   17.7516   -7.6705  -18.2026 O   0  0  0  0  0  0  0  0  0  0  0  0
   19.5302   -7.2661  -16.7626 N   0  0  0  0  0  0  0  0  0  0  0  0
   19.7330   -5.9767  -17.3667 C   0  0  0  0  0  0  0  0  0  0  0  0
   20.8048   -5.2555  -16.6398 C   0  0  0  0  0  0  0  0  0  0  0  0
   21.1498   -4.0671  -16.9552 O   0  0  0  0  0  0  0  0  0  0  0  0
   21.5142   -5.8399  -15.5487 N   0  0  0  0  0  0  0  0  0  0  0  0
   22.5031   -5.0868  -14.8260 C   0  0  0  0  0  0  0  0  0  0  0  0
   22.2659   -5.2691  -13.3751 C   0  0  0  0  0  0  0  0  0  0  0  0
   22.7111   -6.4098  -12.6959 O   0  0  0  0  0  0  0  0  0  0  0  0
   21.6622   -4.4189  -12.6960 O   0  0  0  0  0  0  0  0  0  0  0  0
  1  2  1  0
  2  3  2  0
  4  2  1  0
  5  4  1  0
  5  6  1  1
  7  8  2  0
  7  5  1  0
  9  7  1  0
 10 11  1  0
 10  9  1  0
 11 13  1  0
 12 11  2  0
 13 14  1  0
 14 15  1  0
 15 16  1  0
 17 15  2  0
M  END
$$$$
