NGG.pdb
     RDKit          3D

 17 16  0  0  1  0  0  0  0  0999 V2000
   18.0712  -13.2095  -17.4593 N   0  0  0  0  0  0  0  0  0  0  0  0
   18.1561  -11.9758  -16.7821 C   0  0  0  0  0  0  0  0  0  0  0  0
   17.2735  -11.6377  -15.9879 O   0  0  0  0  0  0  0  0  0  0  0  0
   19.3157  -11.0889  -17.0334 C   0  0  0  0  0  0  0  0  0  0  0  0
   20.0460  -10.7866  -15.7396 C   0  0  2  0  0  0  0  0  0  0  0  0
   19.1828   -9.9609  -14.9287 N   0  0  0  0  0  0  0  0  0  0  0  0
   21.2953  -10.0478  -16.0180 C   0  0  0  0  0  0  0  0  0  0  0  0
   22.2056  -10.5403  -16.7444 O   0  0  0  0  0  0  0  0  0  0  0  0
   21.4937   -8.7406  -15.4581 N   0  0  0  0  0  0  0  0  0  0  0  0
   22.6660   -7.9981  -15.8360 C   0  0  0  0  0  0  0  0  0  0  0  0
   22.5950   -6.6363  -15.2547 C   0  0  0  0  0  0  0  0  0  0  0  0
   23.4828   -5.7521  -15.5013 O   0  0  0  0  0  0  0  0  0  0  0  0
   21.5368   -6.2300  -14.3883 N   0  0  0  0  0  0  0  0  0  0  0  0
   21.4414   -4.8704  -13.9305 C   0  0  0  0  0  0  0  0  0  0  0  0
   20.5170   -4.1362  -14.8254 C   0  0  0  0  0  0  0  0  0  0  0  0
   20.0782   -2.8408  -14.5250 O   0  0  0  0  0  0  0  0  0  0  0  0
   20.0899   -4.6359  -15.8820 O   0  0  0  0  0  0  0  0  0  0  0  0
  1  2  1  0
  2  3  2  0
  4  2  1  0
  5  4  1  0
  5  6  1  1
  7  8  2  0
  7  5  1  0
  9  7  1  0
 10 11  1  0
 10  9  1  0
 11 13  1  0
 12 11  2  0
 13 14  1  0
 14 15  1  0
 15 16  1  0
 17 15  2  0
M  END
$$$$
