NGG.pdb
     RDKit          3D

 17 16  0  0  1  0  0  0  0  0999 V2000
   27.7018  -10.7487  -16.3362 N   0  0  0  0  0  0  0  0  0  0  0  0
   26.9749  -11.8846  -15.9250 C   0  0  0  0  0  0  0  0  0  0  0  0
   27.5608  -12.9385  -15.6603 O   0  0  0  0  0  0  0  0  0  0  0  0
   25.5001  -11.8006  -15.8139 C   0  0  0  0  0  0  0  0  0  0  0  0
   25.0285  -10.3776  -16.0402 C   0  0  2  0  0  0  0  0  0  0  0  0
   25.4332   -9.5921  -14.8984 N   0  0  0  0  0  0  0  0  0  0  0  0
   23.5555  -10.3387  -16.1530 C   0  0  0  0  0  0  0  0  0  0  0  0
   22.9571  -10.8224  -17.1563 O   0  0  0  0  0  0  0  0  0  0  0  0
   22.7733   -9.7417  -15.1073 N   0  0  0  0  0  0  0  0  0  0  0  0
   21.3405   -9.7384  -15.2327 C   0  0  0  0  0  0  0  0  0  0  0  0
   20.8108   -8.4256  -14.7928 C   0  0  0  0  0  0  0  0  0  0  0  0
   19.5605   -8.2261  -14.6261 O   0  0  0  0  0  0  0  0  0  0  0  0
   21.6590   -7.3092  -14.5295 N   0  0  0  0  0  0  0  0  0  0  0  0
   21.1047   -6.0332  -14.1667 C   0  0  0  0  0  0  0  0  0  0  0  0
   22.2164   -5.0704  -13.9889 C   0  0  0  0  0  0  0  0  0  0  0  0
   22.3206   -3.9156  -14.7742 O   0  0  0  0  0  0  0  0  0  0  0  0
   23.1057   -5.2435  -13.1358 O   0  0  0  0  0  0  0  0  0  0  0  0
  1  2  1  0
  2  3  2  0
  4  2  1  0
  5  4  1  0
  5  6  1  1
  7  8  2  0
  7  5  1  0
  9  7  1  0
 10 11  1  0
 10  9  1  0
 11 13  1  0
 12 11  2  0
 13 14  1  0
 14 15  1  0
 15 16  1  0
 17 15  2  0
M  END
$$$$
