EMN.pdb
     RDKit          3D

 26 25  0  0  1  0  0  0  0  0999 V2000
    6.4273  -17.2187   20.2715 N   0  0  0  0  0  0  0  0  0  0  0  0
    7.5564  -16.3629   19.9937 C   0  0  1  0  0  0  0  0  0  0  0  0
    7.1528  -15.4853   18.8449 C   0  0  0  0  0  0  0  0  0  0  0  0
    8.2628  -15.0506   17.9532 C   0  0  0  0  0  0  0  0  0  0  0  0
    8.3623  -15.7641   16.6751 C   0  0  0  0  0  0  0  0  0  0  0  0
    7.5677  -15.6648   15.7113 O   0  0  0  0  0  0  0  0  0  0  0  0
    8.0653  -15.6640   21.1674 C   0  0  0  0  0  0  0  0  0  0  0  0
    9.2383  -15.2152   21.1484 O   0  0  0  0  0  0  0  0  0  0  0  0
    9.4389  -16.6340   16.5143 O   0  0  0  0  0  0  0  0  0  0  0  0
    7.4114  -11.6431   27.9230 C   0  0  0  0  0  0  0  0  0  0  0  0
    6.5642  -12.3523   26.4837 S   0  0  0  0  0  0  0  0  0  0  0  0
    7.6759  -13.4529   25.5729 C   0  0  0  0  0  0  0  0  0  0  0  0
    7.0303  -13.9877   24.3173 C   0  0  0  0  0  0  0  0  0  0  0  0
    7.9495  -14.8625   23.5295 C   0  0  2  0  0  0  0  0  0  0  0  0
    7.3258  -15.4419   22.3650 N   0  0  0  0  0  0  0  0  0  0  0  0
    8.5773  -15.9256   24.3691 C   0  0  0  0  0  0  0  0  0  0  0  0
    7.7979  -16.7758   24.8529 O   0  0  0  0  0  0  0  0  0  0  0  0
   13.1729  -17.6586   27.3887 N   0  0  0  0  0  0  0  0  0  0  0  0
   12.9531  -17.8230   26.0057 C   0  0  0  0  0  0  0  0  0  0  0  0
   13.3952  -18.8320   25.4226 O   0  0  0  0  0  0  0  0  0  0  0  0
   12.2002  -16.8002   25.2509 C   0  0  0  0  0  0  0  0  0  0  0  0
   10.6845  -17.0010   25.3488 C   0  0  2  0  0  0  0  0  0  0  0  0
    9.9488  -15.9894   24.6149 N   0  0  0  0  0  0  0  0  0  0  0  0
   10.3523  -16.9733   26.7674 C   0  0  0  0  0  0  0  0  0  0  0  0
   10.2099  -18.0752   27.3899 O   0  0  0  0  0  0  0  0  0  0  0  0
   10.1731  -15.8278   27.5176 O   0  0  0  0  0  0  0  0  0  0  0  0
  2  1  1  1
  2  7  1  0
  3  2  1  0
  3  4  1  0
  4  5  1  0
  5  9  1  0
  6  5  2  0
  7  8  2  0
 10 11  1  0
 11 12  1  0
 12 13  1  0
 14 13  1  1
 14 16  1  0
 15  7  1  0
 15 14  1  0
 16 17  2  0
 18 19  1  0
 19 20  2  0
 21 19  1  0
 22 21  1  1
 22 24  1  0
 23 22  1  0
 23 16  1  0
 24 25  2  0
 24 26  1  0
M  END
$$$$
