EMN.pdb
     RDKit          3D

 26 25  0  0  1  0  0  0  0  0999 V2000
    7.5417  -17.4198   20.6442 N   0  0  0  0  0  0  0  0  0  0  0  0
    8.8829  -16.9152   20.8200 C   0  0  1  0  0  0  0  0  0  0  0  0
    9.2063  -16.1267   19.5845 C   0  0  0  0  0  0  0  0  0  0  0  0
    8.3480  -16.4125   18.4021 C   0  0  0  0  0  0  0  0  0  0  0  0
    8.7041  -15.6923   17.1746 C   0  0  0  0  0  0  0  0  0  0  0  0
    8.1442  -14.6605   16.7362 O   0  0  0  0  0  0  0  0  0  0  0  0
    9.0848  -16.2135   22.0818 C   0  0  0  0  0  0  0  0  0  0  0  0
   10.1865  -15.6495   22.2958 O   0  0  0  0  0  0  0  0  0  0  0  0
    9.7627  -16.1995   16.4237 O   0  0  0  0  0  0  0  0  0  0  0  0
    6.1419  -11.0167   25.9753 C   0  0  0  0  0  0  0  0  0  0  0  0
    6.2516  -12.8026   26.2775 S   0  0  0  0  0  0  0  0  0  0  0  0
    7.2371  -13.6040   24.9878 C   0  0  0  0  0  0  0  0  0  0  0  0
    7.3566  -15.0915   25.2169 C   0  0  0  0  0  0  0  0  0  0  0  0
    8.4854  -15.6993   24.4507 C   0  0  2  0  0  0  0  0  0  0  0  0
    8.1134  -16.1115   23.1192 N   0  0  0  0  0  0  0  0  0  0  0  0
    9.1264  -16.8289   25.1871 C   0  0  0  0  0  0  0  0  0  0  0  0
    8.4655  -17.8888   25.2510 O   0  0  0  0  0  0  0  0  0  0  0  0
   13.4597  -16.4077   24.3020 N   0  0  0  0  0  0  0  0  0  0  0  0
   12.9720  -17.6069   24.8606 C   0  0  0  0  0  0  0  0  0  0  0  0
   12.8375  -18.6166   24.1421 O   0  0  0  0  0  0  0  0  0  0  0  0
   12.6216  -17.6647   26.2946 C   0  0  0  0  0  0  0  0  0  0  0  0
   11.1089  -17.7470   26.5226 C   0  0  2  0  0  0  0  0  0  0  0  0
   10.3862  -16.7337   25.7781 N   0  0  0  0  0  0  0  0  0  0  0  0
   10.8963  -17.6032   27.9570 C   0  0  0  0  0  0  0  0  0  0  0  0
   10.2270  -16.6079   28.3854 O   0  0  0  0  0  0  0  0  0  0  0  0
   11.3686  -18.4733   28.9198 O   0  0  0  0  0  0  0  0  0  0  0  0
  2  1  1  6
  2  7  1  0
  3  2  1  0
  3  4  1  0
  4  5  1  0
  5  9  1  0
  6  5  2  0
  7  8  2  0
 10 11  1  0
 11 12  1  0
 12 13  1  0
 14 13  1  1
 14 16  1  0
 15  7  1  0
 15 14  1  0
 16 17  2  0
 18 19  1  0
 19 20  2  0
 21 19  1  0
 22 21  1  1
 22 24  1  0
 23 22  1  0
 23 16  1  0
 24 25  2  0
 24 26  1  0
M  END
$$$$
