EMN.pdb
     RDKit          3D

 26 25  0  0  1  0  0  0  0  0999 V2000
    7.9479  -17.1402   20.5624 N   0  0  0  0  0  0  0  0  0  0  0  0
    9.3303  -16.9984   20.9540 C   0  0  1  0  0  0  0  0  0  0  0  0
   10.0828  -16.5937   19.7200 C   0  0  0  0  0  0  0  0  0  0  0  0
    9.5645  -17.1566   18.4430 C   0  0  0  0  0  0  0  0  0  0  0  0
   10.3872  -16.8934   17.2571 C   0  0  0  0  0  0  0  0  0  0  0  0
   10.0715  -16.1651   16.2875 O   0  0  0  0  0  0  0  0  0  0  0  0
    9.5256  -16.1407   22.1165 C   0  0  0  0  0  0  0  0  0  0  0  0
   10.6954  -15.8555   22.4736 O   0  0  0  0  0  0  0  0  0  0  0  0
   11.6360  -17.5088   17.1998 O   0  0  0  0  0  0  0  0  0  0  0  0
    5.8163  -11.8240   26.0835 C   0  0  0  0  0  0  0  0  0  0  0  0
    7.5077  -12.2431   26.5894 S   0  0  0  0  0  0  0  0  0  0  0  0
    7.8438  -13.9958   26.2860 C   0  0  0  0  0  0  0  0  0  0  0  0
    7.5980  -14.3722   24.8446 C   0  0  0  0  0  0  0  0  0  0  0  0
    8.6850  -15.2295   24.2841 C   0  0  2  0  0  0  0  0  0  0  0  0
    8.4745  -15.5852   22.9020 N   0  0  0  0  0  0  0  0  0  0  0  0
    8.9235  -16.4520   25.1074 C   0  0  0  0  0  0  0  0  0  0  0  0
    8.4109  -17.5103   24.6813 O   0  0  0  0  0  0  0  0  0  0  0  0
   12.0218  -19.5810   27.8454 N   0  0  0  0  0  0  0  0  0  0  0  0
   12.4947  -18.9262   26.6898 C   0  0  0  0  0  0  0  0  0  0  0  0
   13.5461  -19.3133   26.1434 O   0  0  0  0  0  0  0  0  0  0  0  0
   11.7444  -17.7837   26.1290 C   0  0  0  0  0  0  0  0  0  0  0  0
   10.4326  -17.5241   26.8766 C   0  0  2  0  0  0  0  0  0  0  0  0
    9.6697  -16.4414   26.2857 N   0  0  0  0  0  0  0  0  0  0  0  0
   10.7926  -17.2269   28.2570 C   0  0  0  0  0  0  0  0  0  0  0  0
   11.1275  -16.0376   28.5655 O   0  0  0  0  0  0  0  0  0  0  0  0
   10.8036  -18.1448   29.2888 O   0  0  0  0  0  0  0  0  0  0  0  0
  2  1  1  6
  2  7  1  0
  3  2  1  0
  3  4  1  0
  4  5  1  0
  5  9  1  0
  6  5  2  0
  7  8  2  0
 10 11  1  0
 11 12  1  0
 12 13  1  0
 14 13  1  1
 14 16  1  0
 15  7  1  0
 15 14  1  0
 16 17  2  0
 18 19  1  0
 19 20  2  0
 21 19  1  0
 22 21  1  6
 22 24  1  0
 23 22  1  0
 23 16  1  0
 24 25  2  0
 24 26  1  0
M  END
$$$$
