EMN.pdb
     RDKit          3D

 26 25  0  0  1  0  0  0  0  0999 V2000
    6.8315  -16.7752   19.9670 N   0  0  0  0  0  0  0  0  0  0  0  0
    8.2394  -16.4971   20.1247 C   0  0  1  0  0  0  0  0  0  0  0  0
    8.6722  -15.7748   18.8822 C   0  0  0  0  0  0  0  0  0  0  0  0
    7.8264  -16.0099   17.6798 C   0  0  0  0  0  0  0  0  0  0  0  0
    8.5573  -16.2302   16.4270 C   0  0  0  0  0  0  0  0  0  0  0  0
    9.5254  -15.5530   16.0091 O   0  0  0  0  0  0  0  0  0  0  0  0
    8.5695  -15.8356   21.3811 C   0  0  0  0  0  0  0  0  0  0  0  0
    9.7743  -15.6028   21.6489 O   0  0  0  0  0  0  0  0  0  0  0  0
    8.1392  -17.2897   15.6244 O   0  0  0  0  0  0  0  0  0  0  0  0
    6.8862  -11.4610   27.7501 C   0  0  0  0  0  0  0  0  0  0  0  0
    6.2634  -12.2044   26.2165 S   0  0  0  0  0  0  0  0  0  0  0  0
    7.4695  -13.3752   25.5447 C   0  0  0  0  0  0  0  0  0  0  0  0
    7.0156  -13.9523   24.2255 C   0  0  0  0  0  0  0  0  0  0  0  0
    8.0359  -14.8564   23.6153 C   0  0  2  0  0  0  0  0  0  0  0  0
    7.6164  -15.4210   22.3559 N   0  0  0  0  0  0  0  0  0  0  0  0
    8.4697  -15.9348   24.5524 C   0  0  0  0  0  0  0  0  0  0  0  0
    7.5925  -16.7640   24.8800 O   0  0  0  0  0  0  0  0  0  0  0  0
   11.9186  -18.2766   23.4703 N   0  0  0  0  0  0  0  0  0  0  0  0
   12.2655  -17.1926   24.3025 C   0  0  0  0  0  0  0  0  0  0  0  0
   12.9199  -16.2385   23.8385 O   0  0  0  0  0  0  0  0  0  0  0  0
   11.8536  -17.1894   25.7213 C   0  0  0  0  0  0  0  0  0  0  0  0
   10.3350  -17.0727   25.8875 C   0  0  2  0  0  0  0  0  0  0  0  0
    9.7697  -16.0340   25.0479 N   0  0  0  0  0  0  0  0  0  0  0  0
   10.0907  -16.8048   27.2988 C   0  0  0  0  0  0  0  0  0  0  0  0
   10.4229  -17.6820   28.1604 O   0  0  0  0  0  0  0  0  0  0  0  0
    9.5154  -15.6535   27.7995 O   0  0  0  0  0  0  0  0  0  0  0  0
  2  1  1  6
  2  7  1  0
  3  2  1  0
  3  4  1  0
  4  5  1  0
  5  9  1  0
  6  5  2  0
  7  8  2  0
 10 11  1  0
 11 12  1  0
 12 13  1  0
 14 13  1  1
 14 16  1  0
 15  7  1  0
 15 14  1  0
 16 17  2  0
 18 19  1  0
 19 20  2  0
 21 19  1  0
 22 21  1  1
 22 24  1  0
 23 22  1  0
 23 16  1  0
 24 25  2  0
 24 26  1  0
M  END
$$$$
