QDM.pdb
     RDKit          3D

 26 25  0  0  1  0  0  0  0  0999 V2000
   19.3614  -15.3537  -19.7323 N   0  0  0  0  0  0  0  0  0  0  0  0
   18.8989  -14.0498  -20.0107 C   0  0  0  0  0  0  0  0  0  0  0  0
   19.0848  -13.5323  -21.1221 O   0  0  0  0  0  0  0  0  0  0  0  0
   18.1635  -13.2531  -18.9527 C   0  0  0  0  0  0  0  0  0  0  0  0
   19.0187  -12.1185  -18.4826 C   0  0  0  0  0  0  0  0  0  0  0  0
   18.8102  -11.5221  -17.1839 C   0  0  2  0  0  0  0  0  0  0  0  0
   17.3441  -11.7643  -16.8454 N   0  0  0  0  0  0  0  0  0  0  0  0
   19.0067  -10.1134  -16.8803 C   0  0  0  0  0  0  0  0  0  0  0  0
   20.1895   -9.6767  -17.2191 O   0  0  0  0  0  0  0  0  0  0  0  0
   18.1820   -9.1577  -16.2978 N   0  0  0  0  0  0  0  0  0  0  0  0
   18.3850   -7.7662  -16.0170 C   0  0  1  0  0  0  0  0  0  0  0  0
   17.2182   -6.8501  -16.0306 C   0  0  0  0  0  0  0  0  0  0  0  0
   17.5092   -5.4110  -15.8784 C   0  0  0  0  0  0  0  0  0  0  0  0
   17.7950   -4.8233  -14.8234 O   0  0  0  0  0  0  0  0  0  0  0  0
   19.4262   -7.4943  -15.0294 C   0  0  0  0  0  0  0  0  0  0  0  0
   19.4018   -8.0737  -13.8977 O   0  0  0  0  0  0  0  0  0  0  0  0
   17.4550   -4.6423  -17.0458 O   0  0  0  0  0  0  0  0  0  0  0  0
   26.3447   -9.7675  -14.7067 C   0  0  0  0  0  0  0  0  0  0  0  0
   24.7126   -9.5860  -15.4318 S   0  0  0  0  0  0  0  0  0  0  0  0
   23.8894   -8.1383  -14.6440 C   0  0  0  0  0  0  0  0  0  0  0  0
   22.5143   -7.9672  -15.2206 C   0  0  0  0  0  0  0  0  0  0  0  0
   21.8356   -6.7686  -14.6578 C   0  0  2  0  0  0  0  0  0  0  0  0
   20.5023   -6.5994  -15.2477 N   0  0  0  0  0  0  0  0  0  0  0  0
   22.6140   -5.5556  -14.7084 C   0  0  0  0  0  0  0  0  0  0  0  0
   22.3492   -4.5215  -15.5592 O   0  0  0  0  0  0  0  0  0  0  0  0
   23.6112   -5.4303  -13.9193 O   0  0  0  0  0  0  0  0  0  0  0  0
  2  1  1  0
  2  3  2  0
  4  5  1  0
  4  2  1  0
  6  7  1  6
  6  5  1  0
  8  6  1  0
  8 10  1  0
  9  8  2  0
 11 10  1  0
 11 12  1  1
 13 14  2  0
 13 12  1  0
 15 11  1  0
 16 15  2  0
 17 13  1  0
 18 19  1  0
 20 21  1  0
 20 19  1  0
 22 21  1  6
 22 24  1  0
 22 23  1  0
 23 15  1  0
 24 25  1  0
 26 24  2  0
M  END
$$$$
