QDM.pdb
     RDKit          3D

 26 25  0  0  1  0  0  0  0  0999 V2000
   19.5499  -18.7094  -18.2920 N   0  0  0  0  0  0  0  0  0  0  0  0
   20.5496  -18.0532  -19.0414 C   0  0  0  0  0  0  0  0  0  0  0  0
   20.6168  -18.1918  -20.2718 O   0  0  0  0  0  0  0  0  0  0  0  0
   21.5647  -17.1629  -18.3545 C   0  0  0  0  0  0  0  0  0  0  0  0
   21.3621  -17.2077  -16.8724 C   0  0  0  0  0  0  0  0  0  0  0  0
   22.4889  -17.2861  -15.9725 C   0  0  2  0  0  0  0  0  0  0  0  0
   23.6295  -16.5540  -16.6693 N   0  0  0  0  0  0  0  0  0  0  0  0
   23.0998  -18.5257  -15.5192 C   0  0  0  0  0  0  0  0  0  0  0  0
   22.2702  -19.5337  -15.5146 O   0  0  0  0  0  0  0  0  0  0  0  0
   24.3857  -18.8326  -15.0891 N   0  0  0  0  0  0  0  0  0  0  0  0
   24.9610  -20.0496  -14.5947 C   0  0  1  0  0  0  0  0  0  0  0  0
   25.9634  -20.7624  -15.4241 C   0  0  0  0  0  0  0  0  0  0  0  0
   26.5695  -21.9705  -14.8310 C   0  0  0  0  0  0  0  0  0  0  0  0
   26.1076  -23.1219  -14.8674 O   0  0  0  0  0  0  0  0  0  0  0  0
   25.1592  -20.0806  -13.1479 C   0  0  0  0  0  0  0  0  0  0  0  0
   26.1041  -19.4155  -12.6170 O   0  0  0  0  0  0  0  0  0  0  0  0
   27.7854  -21.7886  -14.1639 O   0  0  0  0  0  0  0  0  0  0  0  0
   26.6676  -21.4736   -7.3718 C   0  0  0  0  0  0  0  0  0  0  0  0
   26.8530  -19.9566   -8.3135 S   0  0  0  0  0  0  0  0  0  0  0  0
   25.1816  -19.4132   -8.8661 C   0  0  0  0  0  0  0  0  0  0  0  0
   25.0951  -19.4977  -10.3622 C   0  0  0  0  0  0  0  0  0  0  0  0
   24.4839  -20.7825  -10.7982 C   0  0  2  0  0  0  0  0  0  0  0  0
   24.3452  -20.8245  -12.2588 N   0  0  0  0  0  0  0  0  0  0  0  0
   23.2574  -21.1266  -10.1222 C   0  0  0  0  0  0  0  0  0  0  0  0
   22.1007  -21.4502  -10.7711 O   0  0  0  0  0  0  0  0  0  0  0  0
   23.2384  -21.1306   -8.8445 O   0  0  0  0  0  0  0  0  0  0  0  0
  2  1  1  0
  2  3  2  0
  4  5  1  0
  4  2  1  0
  6  7  1  6
  6  5  1  0
  8  6  1  0
  8 10  1  0
  9  8  2  0
 11 10  1  0
 11 12  1  6
 13 14  2  0
 13 12  1  0
 15 11  1  0
 16 15  2  0
 17 13  1  0
 18 19  1  0
 20 21  1  0
 20 19  1  0
 22 21  1  6
 22 24  1  0
 22 23  1  0
 23 15  1  0
 24 25  1  0
 26 24  2  0
M  END
$$$$
