QDM.pdb
     RDKit          3D

 26 25  0  0  1  0  0  0  0  0999 V2000
   13.1355  -15.8748  -13.7458 N   0  0  0  0  0  0  0  0  0  0  0  0
   14.3768  -16.4276  -14.1264 C   0  0  0  0  0  0  0  0  0  0  0  0
   14.5002  -17.6474  -14.3123 O   0  0  0  0  0  0  0  0  0  0  0  0
   15.5884  -15.5381  -14.3158 C   0  0  0  0  0  0  0  0  0  0  0  0
   15.2480  -14.1279  -13.9478 C   0  0  0  0  0  0  0  0  0  0  0  0
   15.5142  -13.0396  -14.8591 C   0  0  2  0  0  0  0  0  0  0  0  0
   16.1929  -13.6677  -16.0704 N   0  0  0  0  0  0  0  0  0  0  0  0
   16.3507  -11.8902  -14.5516 C   0  0  0  0  0  0  0  0  0  0  0  0
   16.4310  -11.6427  -13.2723 O   0  0  0  0  0  0  0  0  0  0  0  0
   17.0674  -11.0123  -15.3569 N   0  0  0  0  0  0  0  0  0  0  0  0
   17.8336   -9.8410  -15.0446 C   0  0  1  0  0  0  0  0  0  0  0  0
   18.8322   -9.3498  -16.0255 C   0  0  0  0  0  0  0  0  0  0  0  0
   19.7091   -8.2500  -15.5779 C   0  0  0  0  0  0  0  0  0  0  0  0
   20.3192   -8.1849  -14.4992 O   0  0  0  0  0  0  0  0  0  0  0  0
   17.1082   -8.8305  -14.2789 C   0  0  0  0  0  0  0  0  0  0  0  0
   16.0253   -8.3404  -14.7306 O   0  0  0  0  0  0  0  0  0  0  0  0
   19.8606   -7.1796  -16.4655 O   0  0  0  0  0  0  0  0  0  0  0  0
   14.8724   -6.3008   -7.2617 C   0  0  0  0  0  0  0  0  0  0  0  0
   15.8350   -7.4727   -8.2221 S   0  0  0  0  0  0  0  0  0  0  0  0
   15.9754   -6.8302   -9.9431 C   0  0  0  0  0  0  0  0  0  0  0  0
   16.6775   -7.8418  -10.8012 C   0  0  0  0  0  0  0  0  0  0  0  0
   16.7690   -7.3843  -12.2142 C   0  0  2  0  0  0  0  0  0  0  0  0
   17.5381   -8.3381  -13.0222 N   0  0  0  0  0  0  0  0  0  0  0  0
   17.2319   -6.0286  -12.3801 C   0  0  0  0  0  0  0  0  0  0  0  0
   16.4514   -4.9302  -12.1612 O   0  0  0  0  0  0  0  0  0  0  0  0
   18.4376   -5.8309  -12.7545 O   0  0  0  0  0  0  0  0  0  0  0  0
  2  1  1  0
  2  3  2  0
  4  5  1  0
  4  2  1  0
  6  7  1  6
  6  5  1  0
  8  6  1  0
  8 10  1  0
  9  8  2  0
 11 10  1  0
 11 12  1  6
 13 14  2  0
 13 12  1  0
 15 11  1  0
 16 15  2  0
 17 13  1  0
 18 19  1  0
 20 21  1  0
 20 19  1  0
 22 21  1  1
 22 24  1  0
 22 23  1  0
 23 15  1  0
 24 25  1  0
 26 24  2  0
M  END
$$$$
