QDM.pdb
     RDKit          3D

 26 25  0  0  1  0  0  0  0  0999 V2000
   21.4699  -11.0249  -22.3726 N   0  0  0  0  0  0  0  0  0  0  0  0
   21.1477   -9.8245  -21.7043 C   0  0  0  0  0  0  0  0  0  0  0  0
   21.9461   -9.3032  -20.9116 O   0  0  0  0  0  0  0  0  0  0  0  0
   19.8142   -9.1464  -21.9428 C   0  0  0  0  0  0  0  0  0  0  0  0
   19.4499   -8.3072  -20.7584 C   0  0  0  0  0  0  0  0  0  0  0  0
   18.8391   -8.8985  -19.5910 C   0  0  2  0  0  0  0  0  0  0  0  0
   17.3936   -9.1868  -19.9786 N   0  0  0  0  0  0  0  0  0  0  0  0
   18.7260   -8.2449  -18.2967 C   0  0  0  0  0  0  0  0  0  0  0  0
   17.9598   -7.1881  -18.3218 O   0  0  0  0  0  0  0  0  0  0  0  0
   19.2801   -8.5284  -17.0535 N   0  0  0  0  0  0  0  0  0  0  0  0
   19.2023   -7.8434  -15.7961 C   0  0  1  0  0  0  0  0  0  0  0  0
   18.4751   -8.4813  -14.6712 C   0  0  0  0  0  0  0  0  0  0  0  0
   18.4461   -7.7346  -13.3983 C   0  0  0  0  0  0  0  0  0  0  0  0
   17.7772   -6.7183  -13.1539 O   0  0  0  0  0  0  0  0  0  0  0  0
   20.3909   -7.0653  -15.4570 C   0  0  0  0  0  0  0  0  0  0  0  0
   21.5375   -7.6153  -15.4571 O   0  0  0  0  0  0  0  0  0  0  0  0
   19.2566   -8.2306  -12.3718 O   0  0  0  0  0  0  0  0  0  0  0  0
   24.2304   -0.3530  -16.1046 C   0  0  0  0  0  0  0  0  0  0  0  0
   22.7175   -1.2755  -16.3919 S   0  0  0  0  0  0  0  0  0  0  0  0
   22.7745   -2.8086  -15.3718 C   0  0  0  0  0  0  0  0  0  0  0  0
   21.5372   -3.6218  -15.6178 C   0  0  0  0  0  0  0  0  0  0  0  0
   21.5599   -4.8915  -14.8421 C   0  0  2  0  0  0  0  0  0  0  0  0
   20.3596   -5.6909  -15.1156 N   0  0  0  0  0  0  0  0  0  0  0  0
   21.7996   -4.7306  -13.4291 C   0  0  0  0  0  0  0  0  0  0  0  0
   23.0310   -4.4843  -12.8938 O   0  0  0  0  0  0  0  0  0  0  0  0
   20.8130   -4.8236  -12.6224 O   0  0  0  0  0  0  0  0  0  0  0  0
  2  1  1  0
  2  3  2  0
  4  5  1  0
  4  2  1  0
  6  7  1  6
  6  5  1  0
  8  6  1  0
  8 10  1  0
  9  8  2  0
 11 10  1  0
 11 12  1  1
 13 14  2  0
 13 12  1  0
 15 11  1  0
 16 15  2  0
 17 13  1  0
 18 19  1  0
 20 21  1  0
 20 19  1  0
 22 21  1  6
 22 24  1  0
 22 23  1  0
 23 15  1  0
 24 25  1  0
 26 24  2  0
M  END
$$$$
