QDM.pdb
     RDKit          3D

 26 25  0  0  1  0  0  0  0  0999 V2000
   15.0966  -11.6757   -9.5705 N   0  0  0  0  0  0  0  0  0  0  0  0
   14.3664  -12.4527  -10.4949 C   0  0  0  0  0  0  0  0  0  0  0  0
   13.6102  -13.3567  -10.1095 O   0  0  0  0  0  0  0  0  0  0  0  0
   14.4928  -12.1969  -11.9828 C   0  0  0  0  0  0  0  0  0  0  0  0
   15.3864  -11.0208  -12.2237 C   0  0  0  0  0  0  0  0  0  0  0  0
   14.8678   -9.6739  -12.1748 C   0  0  2  0  0  0  0  0  0  0  0  0
   14.2358   -9.4216  -13.5385 N   0  0  0  0  0  0  0  0  0  0  0  0
   15.6739   -8.4858  -11.9425 C   0  0  0  0  0  0  0  0  0  0  0  0
   16.1738   -7.9836  -13.0389 O   0  0  0  0  0  0  0  0  0  0  0  0
   16.0126   -7.7968  -10.7834 N   0  0  0  0  0  0  0  0  0  0  0  0
   16.8181   -6.6300  -10.5685 C   0  0  1  0  0  0  0  0  0  0  0  0
   16.4951   -5.7297   -9.4345 C   0  0  0  0  0  0  0  0  0  0  0  0
   17.3011   -4.4983   -9.3212 C   0  0  0  0  0  0  0  0  0  0  0  0
   17.7268   -3.8059  -10.2591 O   0  0  0  0  0  0  0  0  0  0  0  0
   18.2319   -6.8035  -10.8915 C   0  0  0  0  0  0  0  0  0  0  0  0
   18.9133   -7.7101  -10.3163 O   0  0  0  0  0  0  0  0  0  0  0  0
   17.6101   -4.0787   -8.0231 O   0  0  0  0  0  0  0  0  0  0  0  0
   23.8482   -9.5996  -13.5271 C   0  0  0  0  0  0  0  0  0  0  0  0
   22.2471   -9.1854  -12.8291 S   0  0  0  0  0  0  0  0  0  0  0  0
   21.4820   -7.8776  -13.8773 C   0  0  0  0  0  0  0  0  0  0  0  0
   20.1401   -7.5060  -13.3171 C   0  0  0  0  0  0  0  0  0  0  0  0
   20.2433   -6.3531  -12.3820 C   0  0  2  0  0  0  0  0  0  0  0  0
   18.9262   -6.0066  -11.8345 N   0  0  0  0  0  0  0  0  0  0  0  0
   20.9336   -5.2046  -12.9148 C   0  0  0  0  0  0  0  0  0  0  0  0
   20.3356   -3.9973  -13.1354 O   0  0  0  0  0  0  0  0  0  0  0  0
   22.1741   -5.3103  -13.2027 O   0  0  0  0  0  0  0  0  0  0  0  0
  2  1  1  0
  2  3  2  0
  4  5  1  0
  4  2  1  0
  6  7  1  6
  6  5  1  0
  8  6  1  0
  8 10  1  0
  9  8  2  0
 11 10  1  0
 11 12  1  1
 13 14  2  0
 13 12  1  0
 15 11  1  0
 16 15  2  0
 17 13  1  0
 18 19  1  0
 20 21  1  0
 20 19  1  0
 22 21  1  6
 22 24  1  0
 22 23  1  0
 23 15  1  0
 24 25  1  0
 26 24  2  0
M  END
$$$$
