QDM.pdb
     RDKit          3D

 26 25  0  0  1  0  0  0  0  0999 V2000
   21.4348  -19.9382  -13.2555 N   0  0  0  0  0  0  0  0  0  0  0  0
   21.8912  -19.4687  -14.5057 C   0  0  0  0  0  0  0  0  0  0  0  0
   22.7767  -20.0737  -15.1282 O   0  0  0  0  0  0  0  0  0  0  0  0
   21.3060  -18.2108  -15.1142 C   0  0  0  0  0  0  0  0  0  0  0  0
   20.1908  -17.7007  -14.2565 C   0  0  0  0  0  0  0  0  0  0  0  0
   18.8512  -17.5740  -14.7809 C   0  0  2  0  0  0  0  0  0  0  0  0
   18.7489  -18.5912  -15.9111 N   0  0  0  0  0  0  0  0  0  0  0  0
   18.3018  -16.3580  -15.3597 C   0  0  0  0  0  0  0  0  0  0  0  0
   18.7024  -16.1474  -16.5842 O   0  0  0  0  0  0  0  0  0  0  0  0
   17.4447  -15.3862  -14.8559 N   0  0  0  0  0  0  0  0  0  0  0  0
   16.9133  -14.1884  -15.4386 C   0  0  1  0  0  0  0  0  0  0  0  0
   15.4684  -13.8905  -15.2833 C   0  0  0  0  0  0  0  0  0  0  0  0
   15.0609  -13.2481  -14.0184 C   0  0  0  0  0  0  0  0  0  0  0  0
   15.7477  -13.1408  -12.9903 O   0  0  0  0  0  0  0  0  0  0  0  0
   17.8278  -13.0497  -15.4196 C   0  0  0  0  0  0  0  0  0  0  0  0
   18.8583  -13.0688  -14.6747 O   0  0  0  0  0  0  0  0  0  0  0  0
   13.7702  -12.7098  -13.9860 O   0  0  0  0  0  0  0  0  0  0  0  0
   22.9346  -11.1715  -18.0126 C   0  0  0  0  0  0  0  0  0  0  0  0
   21.7832   -9.9146  -18.5755 S   0  0  0  0  0  0  0  0  0  0  0  0
   20.5069   -9.6751  -17.2686 C   0  0  0  0  0  0  0  0  0  0  0  0
   19.5264  -10.8107  -17.3100 C   0  0  0  0  0  0  0  0  0  0  0  0
   18.5621  -10.7359  -16.1791 C   0  0  2  0  0  0  0  0  0  0  0  0
   17.6449  -11.8816  -16.1996 N   0  0  0  0  0  0  0  0  0  0  0  0
   17.8647   -9.4789  -16.0636 C   0  0  0  0  0  0  0  0  0  0  0  0
   18.2760   -8.4567  -15.2577 O   0  0  0  0  0  0  0  0  0  0  0  0
   16.7999   -9.3001  -16.7469 O   0  0  0  0  0  0  0  0  0  0  0  0
  2  1  1  0
  2  3  2  0
  4  5  1  0
  4  2  1  0
  6  7  1  6
  6  5  1  0
  8  6  1  0
  8 10  1  0
  9  8  2  0
 11 10  1  0
 11 12  1  1
 13 14  2  0
 13 12  1  0
 15 11  1  0
 16 15  2  0
 17 13  1  0
 18 19  1  0
 20 21  1  0
 20 19  1  0
 22 21  1  6
 22 24  1  0
 22 23  1  0
 23 15  1  0
 24 25  1  0
 26 24  2  0
M  END
$$$$
