QDM.pdb
     RDKit          3D

 26 25  0  0  1  0  0  0  0  0999 V2000
   28.4726  -18.2529  -18.6118 N   0  0  0  0  0  0  0  0  0  0  0  0
   28.9741  -17.5549  -17.4925 C   0  0  0  0  0  0  0  0  0  0  0  0
   28.9936  -16.3152  -17.4718 O   0  0  0  0  0  0  0  0  0  0  0  0
   29.5011  -18.3095  -16.2892 C   0  0  0  0  0  0  0  0  0  0  0  0
   28.5371  -18.1907  -15.1506 C   0  0  0  0  0  0  0  0  0  0  0  0
   27.1364  -18.4928  -15.3311 C   0  0  2  0  0  0  0  0  0  0  0  0
   26.5248  -17.2575  -15.9812 N   0  0  0  0  0  0  0  0  0  0  0  0
   26.2135  -18.8084  -14.2523 C   0  0  0  0  0  0  0  0  0  0  0  0
   26.0182  -17.8082  -13.4363 O   0  0  0  0  0  0  0  0  0  0  0  0
   25.5133  -19.9649  -13.9282 N   0  0  0  0  0  0  0  0  0  0  0  0
   24.5905  -20.2561  -12.8697 C   0  0  1  0  0  0  0  0  0  0  0  0
   23.2182  -20.7035  -13.2123 C   0  0  0  0  0  0  0  0  0  0  0  0
   22.3053  -20.9535  -12.0796 C   0  0  0  0  0  0  0  0  0  0  0  0
   22.0130  -20.1538  -11.1767 O   0  0  0  0  0  0  0  0  0  0  0  0
   25.2004  -20.8477  -11.6817 C   0  0  0  0  0  0  0  0  0  0  0  0
   25.4595  -22.0922  -11.6476 O   0  0  0  0  0  0  0  0  0  0  0  0
   21.7161  -22.2212  -12.0285 O   0  0  0  0  0  0  0  0  0  0  0  0
   28.4784  -19.8178   -4.5529 C   0  0  0  0  0  0  0  0  0  0  0  0
   28.2254  -19.1823   -6.2125 S   0  0  0  0  0  0  0  0  0  0  0  0
   27.0608  -20.3086   -7.0898 C   0  0  0  0  0  0  0  0  0  0  0  0
   26.8524  -19.8210   -8.4940 C   0  0  0  0  0  0  0  0  0  0  0  0
   25.9473  -20.7256   -9.2533 C   0  0  2  0  0  0  0  0  0  0  0  0
   25.5378  -20.1093  -10.5209 N   0  0  0  0  0  0  0  0  0  0  0  0
   24.8237  -21.2255   -8.5000 C   0  0  0  0  0  0  0  0  0  0  0  0
   24.9279  -22.1789   -7.5285 O   0  0  0  0  0  0  0  0  0  0  0  0
   23.6599  -20.7596   -8.7475 O   0  0  0  0  0  0  0  0  0  0  0  0
  2  1  1  0
  2  3  2  0
  4  5  1  0
  4  2  1  0
  6  7  1  1
  6  5  1  0
  8  6  1  0
  8 10  1  0
  9  8  2  0
 11 10  1  0
 11 12  1  6
 13 14  2  0
 13 12  1  0
 15 11  1  0
 16 15  2  0
 17 13  1  0
 18 19  1  0
 20 21  1  0
 20 19  1  0
 22 21  1  1
 22 24  1  0
 22 23  1  0
 23 15  1  0
 24 25  1  0
 26 24  2  0
M  END
$$$$
