KAC.pdb
     RDKit          3D

 21 20  0  0  1  0  0  0  0  0999 V2000
   19.3241  -14.9419  -19.1008 N   0  0  0  0  0  0  0  0  0  0  0  0
   18.8674  -14.8442  -17.7428 C   0  0  1  0  0  0  0  0  0  0  0  0
   19.1955  -16.1001  -16.9618 C   0  0  0  0  0  0  0  0  0  0  0  0
   18.4887  -17.2431  -17.6597 C   0  0  0  0  0  0  0  0  0  0  0  0
   17.0213  -17.2976  -17.2741 C   0  0  0  0  0  0  0  0  0  0  0  0
   16.2868  -18.3911  -18.0456 C   0  0  0  0  0  0  0  0  0  0  0  0
   14.9028  -18.3781  -17.5609 N   0  0  0  0  0  0  0  0  0  0  0  0
   19.3772  -13.6199  -17.0706 C   0  0  0  0  0  0  0  0  0  0  0  0
   19.0932  -13.4057  -15.8645 O   0  0  0  0  0  0  0  0  0  0  0  0
   21.6780  -10.7876  -17.8168 C   0  0  0  0  0  0  0  0  0  0  0  0
   20.5526  -11.4541  -17.0553 C   0  0  2  0  0  0  0  0  0  0  0  0
   20.1857  -12.6602  -17.7368 N   0  0  0  0  0  0  0  0  0  0  0  0
   19.4015  -10.5342  -16.8650 C   0  0  0  0  0  0  0  0  0  0  0  0
   18.5026  -10.5355  -17.7365 O   0  0  0  0  0  0  0  0  0  0  0  0
   19.2753   -9.6675  -15.7584 N   0  0  0  0  0  0  0  0  0  0  0  0
   18.1446   -8.7868  -15.5465 C   0  0  1  0  0  0  0  0  0  0  0  0
   17.9939   -8.6160  -14.0342 C   0  0  0  0  0  0  0  0  0  0  0  0
   17.4237  -10.1631  -13.2726 S   0  0  0  0  0  0  0  0  0  0  0  0
   18.3672   -7.4400  -16.1045 C   0  0  0  0  0  0  0  0  0  0  0  0
   19.4903   -7.1491  -16.5608 O   0  0  0  0  0  0  0  0  0  0  0  0
   17.3610   -6.5013  -16.1306 O   0  0  0  0  0  0  0  0  0  0  0  0
  2  1  1  6
  2  8  1  0
  3  2  1  0
  4  3  1  0
  4  5  1  0
  6  5  1  0
  7  6  1  0
  8  9  2  0
 11 10  1  6
 12  8  1  0
 12 11  1  0
 13 11  1  0
 13 15  1  0
 14 13  2  0
 16 19  1  0
 16 15  1  0
 16 17  1  1
 18 17  1  0
 19 21  1  0
 20 19  2  0
M  END
$$$$
