KAC.pdb
     RDKit          3D

 21 20  0  0  1  0  0  0  0  0999 V2000
   20.2579  -13.6669  -15.9771 N   0  0  0  0  0  0  0  0  0  0  0  0
   20.0711  -12.5188  -16.8191 C   0  0  1  0  0  0  0  0  0  0  0  0
   18.6734  -12.4877  -17.4027 C   0  0  0  0  0  0  0  0  0  0  0  0
   18.6468  -13.5077  -18.5215 C   0  0  0  0  0  0  0  0  0  0  0  0
   17.5448  -14.5294  -18.3060 C   0  0  0  0  0  0  0  0  0  0  0  0
   17.4050  -15.4552  -19.5118 C   0  0  0  0  0  0  0  0  0  0  0  0
   16.4144  -16.4700  -19.1389 N   0  0  0  0  0  0  0  0  0  0  0  0
   20.4112  -11.2526  -16.1177 C   0  0  0  0  0  0  0  0  0  0  0  0
   19.8267  -10.9572  -15.0442 O   0  0  0  0  0  0  0  0  0  0  0  0
   23.0049   -8.6002  -16.3272 C   0  0  0  0  0  0  0  0  0  0  0  0
   21.6724   -9.1505  -15.8667 C   0  0  2  0  0  0  0  0  0  0  0  0
   21.3836  -10.3413  -16.6100 N   0  0  0  0  0  0  0  0  0  0  0  0
   20.5940   -8.1344  -15.9765 C   0  0  0  0  0  0  0  0  0  0  0  0
   19.9979   -8.0316  -17.0727 O   0  0  0  0  0  0  0  0  0  0  0  0
   20.2139   -7.2880  -14.9131 N   0  0  0  0  0  0  0  0  0  0  0  0
   19.2530   -6.2112  -15.0411 C   0  0  1  0  0  0  0  0  0  0  0  0
   18.4882   -6.1410  -13.7187 C   0  0  0  0  0  0  0  0  0  0  0  0
   17.4819   -7.6350  -13.4852 S   0  0  0  0  0  0  0  0  0  0  0  0
   19.8992   -4.8986  -15.2265 C   0  0  0  0  0  0  0  0  0  0  0  0
   19.1897   -3.8979  -15.4485 O   0  0  0  0  0  0  0  0  0  0  0  0
   21.2667   -4.7586  -15.1591 O   0  0  0  0  0  0  0  0  0  0  0  0
  2  1  1  1
  2  8  1  0
  3  2  1  0
  4  3  1  0
  4  5  1  0
  6  5  1  0
  7  6  1  0
  8  9  2  0
 11 10  1  6
 12  8  1  0
 12 11  1  0
 13 11  1  0
 13 15  1  0
 14 13  2  0
 16 19  1  0
 16 15  1  0
 16 17  1  1
 18 17  1  0
 19 21  1  0
 20 19  2  0
M  END
$$$$
