KAC.pdb
     RDKit          3D

 21 20  0  0  1  0  0  0  0  0999 V2000
   22.3559  -27.0756  -16.0355 N   0  0  0  0  0  0  0  0  0  0  0  0
   21.7120  -25.8374  -15.6974 C   0  0  1  0  0  0  0  0  0  0  0  0
   20.9316  -25.9597  -14.4048 C   0  0  0  0  0  0  0  0  0  0  0  0
   21.4478  -27.1971  -13.7008 C   0  0  0  0  0  0  0  0  0  0  0  0
   20.8129  -27.3535  -12.3307 C   0  0  0  0  0  0  0  0  0  0  0  0
   21.3885  -28.5569  -11.5884 C   0  0  0  0  0  0  0  0  0  0  0  0
   20.7824  -28.5452  -10.2531 N   0  0  0  0  0  0  0  0  0  0  0  0
   22.6712  -24.7017  -15.6648 C   0  0  0  0  0  0  0  0  0  0  0  0
   22.2705  -23.5554  -15.3385 O   0  0  0  0  0  0  0  0  0  0  0  0
   26.3449  -24.2426  -15.6978 C   0  0  0  0  0  0  0  0  0  0  0  0
   24.9286  -23.7305  -15.8470 C   0  0  2  0  0  0  0  0  0  0  0  0
   24.0460  -24.8504  -15.9906 N   0  0  0  0  0  0  0  0  0  0  0  0
   24.8119  -22.7651  -16.9704 C   0  0  0  0  0  0  0  0  0  0  0  0
   24.5294  -23.2183  -18.1029 O   0  0  0  0  0  0  0  0  0  0  0  0
   25.0030  -21.3747  -16.8220 N   0  0  0  0  0  0  0  0  0  0  0  0
   24.8903  -20.4230  -17.9085 C   0  0  1  0  0  0  0  0  0  0  0  0
   24.0985  -19.2299  -17.3715 C   0  0  0  0  0  0  0  0  0  0  0  0
   23.9345  -17.9482  -18.6480 S   0  0  0  0  0  0  0  0  0  0  0  0
   26.2009  -19.9019  -18.3393 C   0  0  0  0  0  0  0  0  0  0  0  0
   27.1040  -19.7535  -17.4927 O   0  0  0  0  0  0  0  0  0  0  0  0
   26.4446  -19.5774  -19.6544 O   0  0  0  0  0  0  0  0  0  0  0  0
  2  1  1  1
  2  8  1  0
  3  2  1  0
  4  3  1  0
  4  5  1  0
  6  5  1  0
  7  6  1  0
  8  9  2  0
 11 10  1  6
 12  8  1  0
 12 11  1  0
 13 11  1  0
 13 15  1  0
 14 13  2  0
 16 19  1  0
 16 15  1  0
 16 17  1  1
 18 17  1  0
 19 21  1  0
 20 19  2  0
M  END
$$$$
