KAC.pdb
     RDKit          3D

 21 20  0  0  1  0  0  0  0  0999 V2000
   20.6907  -12.6219  -15.8795 N   0  0  0  0  0  0  0  0  0  0  0  0
   19.6173  -11.7150  -16.1754 C   0  0  1  0  0  0  0  0  0  0  0  0
   18.2693  -12.3606  -15.9280 C   0  0  0  0  0  0  0  0  0  0  0  0
   18.0352  -13.3286  -17.0688 C   0  0  0  0  0  0  0  0  0  0  0  0
   16.6781  -13.9986  -16.9494 C   0  0  0  0  0  0  0  0  0  0  0  0
   16.4311  -14.9585  -18.1105 C   0  0  0  0  0  0  0  0  0  0  0  0
   15.1536  -15.6222  -17.8312 N   0  0  0  0  0  0  0  0  0  0  0  0
   19.7607  -10.4262  -15.4478 C   0  0  0  0  0  0  0  0  0  0  0  0
   19.1699  -10.2599  -14.3503 O   0  0  0  0  0  0  0  0  0  0  0  0
   21.9579   -7.5236  -15.2993 C   0  0  0  0  0  0  0  0  0  0  0  0
   20.5628   -8.1062  -15.2317 C   0  0  2  0  0  0  0  0  0  0  0  0
   20.5483   -9.3515  -15.9409 N   0  0  0  0  0  0  0  0  0  0  0  0
   19.5456   -7.1494  -15.7392 C   0  0  0  0  0  0  0  0  0  0  0  0
   19.2202   -7.2283  -16.9457 O   0  0  0  0  0  0  0  0  0  0  0  0
   18.9351   -6.1653  -14.9326 N   0  0  0  0  0  0  0  0  0  0  0  0
   18.0479   -5.1394  -15.4418 C   0  0  1  0  0  0  0  0  0  0  0  0
   16.9297   -4.9703  -14.4124 C   0  0  0  0  0  0  0  0  0  0  0  0
   15.8270   -3.6078  -14.8882 S   0  0  0  0  0  0  0  0  0  0  0  0
   18.7132   -3.8288  -15.5633 C   0  0  0  0  0  0  0  0  0  0  0  0
   19.5247   -3.4755  -14.6854 O   0  0  0  0  0  0  0  0  0  0  0  0
   18.4553   -2.9914  -16.6245 O   0  0  0  0  0  0  0  0  0  0  0  0
  2  1  1  1
  2  8  1  0
  3  2  1  0
  4  3  1  0
  4  5  1  0
  6  5  1  0
  7  6  1  0
  8  9  2  0
 11 10  1  6
 12  8  1  0
 12 11  1  0
 13 11  1  0
 13 15  1  0
 14 13  2  0
 16 19  1  0
 16 15  1  0
 16 17  1  1
 18 17  1  0
 19 21  1  0
 20 19  2  0
M  END
$$$$
