KAC.pdb
     RDKit          3D

 21 20  0  0  1  0  0  0  0  0999 V2000
   21.7567  -11.9177  -18.6643 N   0  0  0  0  0  0  0  0  0  0  0  0
   20.5436  -11.2950  -18.2139 C   0  0  1  0  0  0  0  0  0  0  0  0
   19.4135  -12.2994  -18.1189 C   0  0  0  0  0  0  0  0  0  0  0  0
   19.7107  -13.3851  -19.1318 C   0  0  0  0  0  0  0  0  0  0  0  0
   18.5754  -14.3903  -19.2071 C   0  0  0  0  0  0  0  0  0  0  0  0
   18.8682  -15.4795  -20.2359 C   0  0  0  0  0  0  0  0  0  0  0  0
   17.6673  -16.3186  -20.2999 N   0  0  0  0  0  0  0  0  0  0  0  0
   20.7385  -10.5521  -16.9407 C   0  0  0  0  0  0  0  0  0  0  0  0
   19.7612   -9.9765  -16.3979 O   0  0  0  0  0  0  0  0  0  0  0  0
   23.4417   -9.9825  -14.4404 C   0  0  0  0  0  0  0  0  0  0  0  0
   22.1292   -9.6508  -15.1170 C   0  0  2  0  0  0  0  0  0  0  0  0
   21.9999  -10.4584  -16.2937 N   0  0  0  0  0  0  0  0  0  0  0  0
   22.0156   -8.1981  -15.4074 C   0  0  0  0  0  0  0  0  0  0  0  0
   22.6154   -7.7550  -16.4131 O   0  0  0  0  0  0  0  0  0  0  0  0
   21.2706   -7.3031  -14.6102 N   0  0  0  0  0  0  0  0  0  0  0  0
   21.2332   -5.8704  -14.8228 C   0  0  1  0  0  0  0  0  0  0  0  0
   19.8060   -5.4145  -14.5159 C   0  0  0  0  0  0  0  0  0  0  0  0
   18.6190   -6.2709  -15.5914 S   0  0  0  0  0  0  0  0  0  0  0  0
   22.1191   -5.1402  -13.8972 C   0  0  0  0  0  0  0  0  0  0  0  0
   22.6277   -5.7488  -12.9355 O   0  0  0  0  0  0  0  0  0  0  0  0
   22.3937   -3.8034  -14.0751 O   0  0  0  0  0  0  0  0  0  0  0  0
  2  1  1  1
  2  8  1  0
  3  2  1  0
  4  3  1  0
  4  5  1  0
  6  5  1  0
  7  6  1  0
  8  9  2  0
 11 10  1  6
 12  8  1  0
 12 11  1  0
 13 11  1  0
 13 15  1  0
 14 13  2  0
 16 19  1  0
 16 15  1  0
 16 17  1  1
 18 17  1  0
 19 21  1  0
 20 19  2  0
M  END
$$$$
