KAC.pdb
     RDKit          3D

 21 20  0  0  1  0  0  0  0  0999 V2000
   19.2568  -11.5524  -17.3876 N   0  0  0  0  0  0  0  0  0  0  0  0
   18.5636  -10.8793  -16.3252 C   0  0  1  0  0  0  0  0  0  0  0  0
   17.8666  -11.8670  -15.4123 C   0  0  0  0  0  0  0  0  0  0  0  0
   17.1373  -12.8466  -16.3077 C   0  0  0  0  0  0  0  0  0  0  0  0
   16.3795  -13.8773  -15.4902 C   0  0  0  0  0  0  0  0  0  0  0  0
   15.6896  -14.8990  -16.3906 C   0  0  0  0  0  0  0  0  0  0  0  0
   14.9443  -15.7950  -15.5006 N   0  0  0  0  0  0  0  0  0  0  0  0
   19.4567   -9.9586  -15.5731 C   0  0  0  0  0  0  0  0  0  0  0  0
   19.0024   -9.3047  -14.5999 O   0  0  0  0  0  0  0  0  0  0  0  0
   23.0877   -9.1312  -15.4518 C   0  0  0  0  0  0  0  0  0  0  0  0
   21.6312   -8.8928  -15.1171 C   0  0  2  0  0  0  0  0  0  0  0  0
   20.8259   -9.7772  -15.9063 N   0  0  0  0  0  0  0  0  0  0  0  0
   21.2554   -7.4666  -15.2969 C   0  0  0  0  0  0  0  0  0  0  0  0
   20.9493   -7.0841  -16.4492 O   0  0  0  0  0  0  0  0  0  0  0  0
   21.2276   -6.5319  -14.2398 N   0  0  0  0  0  0  0  0  0  0  0  0
   21.0023   -5.1124  -14.4219 C   0  0  1  0  0  0  0  0  0  0  0  0
   19.7572   -4.7541  -13.6096 C   0  0  0  0  0  0  0  0  0  0  0  0
   19.4968   -2.9565  -13.6032 S   0  0  0  0  0  0  0  0  0  0  0  0
   22.1064   -4.2937  -13.8875 C   0  0  0  0  0  0  0  0  0  0  0  0
   22.7249   -4.6903  -12.8803 O   0  0  0  0  0  0  0  0  0  0  0  0
   22.4654   -3.1037  -14.4783 O   0  0  0  0  0  0  0  0  0  0  0  0
  2  1  1  6
  2  8  1  0
  3  2  1  0
  4  3  1  0
  4  5  1  0
  6  5  1  0
  7  6  1  0
  8  9  2  0
 11 10  1  6
 12  8  1  0
 12 11  1  0
 13 11  1  0
 13 15  1  0
 14 13  2  0
 16 19  1  0
 16 15  1  0
 16 17  1  1
 18 17  1  0
 19 21  1  0
 20 19  2  0
M  END
$$$$
