WGR.pdb
     RDKit          3D

 30 31  0  0  1  0  0  0  0  0999 V2000
    7.5818  -17.4701   24.7806 N   0  0  0  0  0  0  0  0  0  0  0  0
    8.7732  -16.6221   24.8928 C   0  0  1  0  0  0  0  0  0  0  0  0
    8.8882  -15.9429   26.2116 C   0  0  0  0  0  0  0  0  0  0  0  0
    7.7283  -15.0435   26.4067 C   0  0  0  0  0  0  0  0  0  0  0  0
    6.4207  -15.3357   26.7129 C   0  0  0  0  0  0  0  0  0  0  0  0
    5.6968  -14.2201   26.8358 N   0  0  0  0  0  0  0  0  0  0  0  0
    6.5507  -13.1874   26.6044 C   0  0  0  0  0  0  0  0  0  0  0  0
    6.3472  -11.8214   26.6069 C   0  0  0  0  0  0  0  0  0  0  0  0
    7.3675  -10.9429   26.3504 C   0  0  0  0  0  0  0  0  0  0  0  0
    8.6215  -11.4335   26.0840 C   0  0  0  0  0  0  0  0  0  0  0  0
    8.8585  -12.7826   26.0728 C   0  0  0  0  0  0  0  0  0  0  0  0
    7.8096  -13.6647   26.3369 C   0  0  0  0  0  0  0  0  0  0  0  0
    9.9849  -17.4967   24.7062 C   0  0  0  0  0  0  0  0  0  0  0  0
   10.3352  -18.4111   25.4752 O   0  0  0  0  0  0  0  0  0  0  0  0
   10.7928  -17.2414   23.5467 N   0  0  0  0  0  0  0  0  0  0  0  0
   11.4897  -18.3462   22.9554 C   0  0  0  0  0  0  0  0  0  0  0  0
   11.7232  -18.2786   21.5189 C   0  0  0  0  0  0  0  0  0  0  0  0
   12.8608  -18.6954   21.0876 O   0  0  0  0  0  0  0  0  0  0  0  0
    8.1664  -13.6307   15.0138 N   0  0  0  0  0  0  0  0  0  0  0  0
    8.0242  -13.8903   16.4036 C   0  0  0  0  0  0  0  0  0  0  0  0
    7.4199  -12.9568   17.0831 N   0  0  0  0  0  0  0  0  0  0  0  0
    8.5086  -15.0827   16.9934 N   0  0  0  0  0  0  0  0  0  0  0  0
    9.2687  -16.0381   16.2125 C   0  0  0  0  0  0  0  0  0  0  0  0
   10.4267  -16.6014   17.0224 C   0  0  0  0  0  0  0  0  0  0  0  0
   10.0284  -16.8920   18.4369 C   0  0  0  0  0  0  0  0  0  0  0  0
   11.1830  -17.4323   19.2010 C   0  0  2  0  0  0  0  0  0  0  0  0
   10.7936  -17.7870   20.5806 N   0  0  0  0  0  0  0  0  0  0  0  0
   12.3219  -16.4628   19.2509 C   0  0  0  0  0  0  0  0  0  0  0  0
   13.1448  -16.4623   18.3244 O   0  0  0  0  0  0  0  0  0  0  0  0
   12.4687  -15.5831   20.2975 O   0  0  0  0  0  0  0  0  0  0  0  0
  2  1  1  1
  2  3  1  0
  3  4  1  0
  4 12  1  0
  4  5  2  0
  5  6  1  0
  7  8  2  0
  7  6  1  0
  9  8  1  0
 10  9  2  0
 11 10  1  0
 11 12  2  0
 12  7  1  0
 13 14  2  0
 13  2  1  0
 15 13  1  0
 16 15  1  0
 17 16  1  0
 18 17  2  0
 20 19  1  0
 21 20  2  0
 22 20  1  0
 23 24  1  0
 23 22  1  0
 26 25  1  1
 25 24  1  0
 26 27  1  0
 27 17  1  0
 28 26  1  0
 29 28  2  0
 30 28  1  0
M  END
$$$$
