WGR.pdb
     RDKit          3D

 30 31  0  0  1  0  0  0  0  0999 V2000
    7.6258  -15.8785   22.8070 N   0  0  0  0  0  0  0  0  0  0  0  0
    8.6991  -15.4932   23.7292 C   0  0  1  0  0  0  0  0  0  0  0  0
    8.4349  -15.8936   25.1377 C   0  0  0  0  0  0  0  0  0  0  0  0
    7.2506  -15.1638   25.6446 C   0  0  0  0  0  0  0  0  0  0  0  0
    6.0039  -15.6275   25.9911 C   0  0  0  0  0  0  0  0  0  0  0  0
    5.2312  -14.6347   26.4395 N   0  0  0  0  0  0  0  0  0  0  0  0
    5.9908  -13.5083   26.3818 C   0  0  0  0  0  0  0  0  0  0  0  0
    5.7062  -12.2012   26.7253 C   0  0  0  0  0  0  0  0  0  0  0  0
    6.6375  -11.2045   26.5916 C   0  0  0  0  0  0  0  0  0  0  0  0
    7.8827  -11.5137   26.1037 C   0  0  0  0  0  0  0  0  0  0  0  0
    8.1986  -12.7995   25.7526 C   0  0  0  0  0  0  0  0  0  0  0  0
    7.2399  -13.8038   25.8953 C   0  0  0  0  0  0  0  0  0  0  0  0
    9.9657  -16.1707   23.2768 C   0  0  0  0  0  0  0  0  0  0  0  0
   11.0552  -16.1307   23.8782 O   0  0  0  0  0  0  0  0  0  0  0  0
    9.8970  -16.9154   22.0508 N   0  0  0  0  0  0  0  0  0  0  0  0
   11.1002  -17.5259   21.5657 C   0  0  0  0  0  0  0  0  0  0  0  0
   12.3560  -16.9074   21.9695 C   0  0  0  0  0  0  0  0  0  0  0  0
   12.8932  -16.0763   21.1483 O   0  0  0  0  0  0  0  0  0  0  0  0
   10.9115  -17.0164   28.0110 N   0  0  0  0  0  0  0  0  0  0  0  0
   11.1942  -15.6440   28.2471 C   0  0  0  0  0  0  0  0  0  0  0  0
   10.8513  -15.2016   29.4240 N   0  0  0  0  0  0  0  0  0  0  0  0
   11.8061  -14.8284   27.2648 N   0  0  0  0  0  0  0  0  0  0  0  0
   13.1377  -15.1296   26.7786 C   0  0  0  0  0  0  0  0  0  0  0  0
   13.0803  -16.0883   25.5988 C   0  0  0  0  0  0  0  0  0  0  0  0
   14.4315  -16.3036   24.9892 C   0  0  0  0  0  0  0  0  0  0  0  0
   14.3102  -16.5357   23.5262 C   0  0  2  0  0  0  0  0  0  0  0  0
   13.0160  -17.1616   23.1885 N   0  0  0  0  0  0  0  0  0  0  0  0
   15.4177  -17.3961   23.0041 C   0  0  0  0  0  0  0  0  0  0  0  0
   15.1811  -18.5873   22.7576 O   0  0  0  0  0  0  0  0  0  0  0  0
   16.6800  -16.8919   22.7970 O   0  0  0  0  0  0  0  0  0  0  0  0
  2  1  1  6
  2  3  1  0
  3  4  1  0
  4 12  1  0
  4  5  2  0
  5  6  1  0
  7  8  2  0
  7  6  1  0
  9  8  1  0
 10  9  2  0
 11 10  1  0
 11 12  2  0
 12  7  1  0
 13 14  2  0
 13  2  1  0
 15 13  1  0
 16 15  1  0
 17 16  1  0
 18 17  2  0
 20 19  1  0
 21 20  2  0
 22 20  1  0
 23 24  1  0
 23 22  1  0
 26 25  1  1
 25 24  1  0
 26 27  1  0
 27 17  1  0
 28 26  1  0
 29 28  2  0
 30 28  1  0
M  END
$$$$
