WGR.pdb
     RDKit          3D

 30 31  0  0  1  0  0  0  0  0999 V2000
    8.1681  -17.0429   23.6311 N   0  0  0  0  0  0  0  0  0  0  0  0
    7.6500  -16.4526   22.3925 C   0  0  1  0  0  0  0  0  0  0  0  0
    7.1679  -15.0555   22.5648 C   0  0  0  0  0  0  0  0  0  0  0  0
    6.8590  -14.8123   23.9923 C   0  0  0  0  0  0  0  0  0  0  0  0
    6.2880  -15.6393   24.9299 C   0  0  0  0  0  0  0  0  0  0  0  0
    6.2195  -15.0381   26.1205 N   0  0  0  0  0  0  0  0  0  0  0  0
    6.7550  -13.7997   25.9506 C   0  0  0  0  0  0  0  0  0  0  0  0
    6.9446  -12.7612   26.8410 C   0  0  0  0  0  0  0  0  0  0  0  0
    7.5211  -11.5795   26.4538 C   0  0  0  0  0  0  0  0  0  0  0  0
    7.9185  -11.4251   25.1491 C   0  0  0  0  0  0  0  0  0  0  0  0
    7.7448  -12.4344   24.2393 C   0  0  0  0  0  0  0  0  0  0  0  0
    7.1572  -13.6323   24.6489 C   0  0  0  0  0  0  0  0  0  0  0  0
    8.7648  -16.4446   21.3801 C   0  0  0  0  0  0  0  0  0  0  0  0
    8.7264  -15.8724   20.2750 O   0  0  0  0  0  0  0  0  0  0  0  0
    9.9594  -17.1610   21.7296 N   0  0  0  0  0  0  0  0  0  0  0  0
   11.1325  -16.9419   20.9349 C   0  0  0  0  0  0  0  0  0  0  0  0
   12.2913  -16.3841   21.6195 C   0  0  0  0  0  0  0  0  0  0  0  0
   13.4497  -16.6538   21.1305 O   0  0  0  0  0  0  0  0  0  0  0  0
   10.2241  -15.5416   29.8887 N   0  0  0  0  0  0  0  0  0  0  0  0
   11.1430  -16.6121   29.7191 C   0  0  0  0  0  0  0  0  0  0  0  0
   11.1415  -17.5005   30.6726 N   0  0  0  0  0  0  0  0  0  0  0  0
   11.9921  -16.6949   28.5893 N   0  0  0  0  0  0  0  0  0  0  0  0
   11.5677  -16.1729   27.3057 C   0  0  0  0  0  0  0  0  0  0  0  0
   11.9028  -17.1472   26.1864 C   0  0  0  0  0  0  0  0  0  0  0  0
   11.4691  -16.6305   24.8491 C   0  0  0  0  0  0  0  0  0  0  0  0
   12.6305  -16.0785   24.1039 C   0  0  2  0  0  0  0  0  0  0  0  0
   12.2258  -15.5791   22.7744 N   0  0  0  0  0  0  0  0  0  0  0  0
   13.7168  -17.0933   23.9324 C   0  0  0  0  0  0  0  0  0  0  0  0
   14.8051  -16.9016   24.4932 O   0  0  0  0  0  0  0  0  0  0  0  0
   13.5291  -18.2220   23.1699 O   0  0  0  0  0  0  0  0  0  0  0  0
  2  1  1  1
  2  3  1  0
  3  4  1  0
  4 12  1  0
  4  5  2  0
  5  6  1  0
  7  8  2  0
  7  6  1  0
  9  8  1  0
 10  9  2  0
 11 10  1  0
 11 12  2  0
 12  7  1  0
 13 14  2  0
 13  2  1  0
 15 13  1  0
 16 15  1  0
 17 16  1  0
 18 17  2  0
 20 19  1  0
 21 20  2  0
 22 20  1  0
 23 24  1  0
 23 22  1  0
 26 25  1  6
 25 24  1  0
 26 27  1  0
 27 17  1  0
 28 26  1  0
 29 28  2  0
 30 28  1  0
M  END
$$$$
