WGR.pdb
     RDKit          3D

 30 31  0  0  1  0  0  0  0  0999 V2000
    9.5308  -16.8870   25.4688 N   0  0  0  0  0  0  0  0  0  0  0  0
    8.5376  -16.5280   24.4511 C   0  0  1  0  0  0  0  0  0  0  0  0
    8.3728  -15.0587   24.2842 C   0  0  0  0  0  0  0  0  0  0  0  0
    8.2778  -14.4180   25.6156 C   0  0  0  0  0  0  0  0  0  0  0  0
    9.0106  -14.6335   26.7582 C   0  0  0  0  0  0  0  0  0  0  0  0
    8.6237  -13.8117   27.7374 N   0  0  0  0  0  0  0  0  0  0  0  0
    7.6224  -13.0511   27.2197 C   0  0  0  0  0  0  0  0  0  0  0  0
    6.8656  -12.0407   27.7798 C   0  0  0  0  0  0  0  0  0  0  0  0
    5.8949  -11.3894   27.0641 C   0  0  0  0  0  0  0  0  0  0  0  0
    5.6698  -11.7512   25.7593 C   0  0  0  0  0  0  0  0  0  0  0  0
    6.4016  -12.7495   25.1725 C   0  0  0  0  0  0  0  0  0  0  0  0
    7.3873  -13.4029   25.9139 C   0  0  0  0  0  0  0  0  0  0  0  0
    8.9917  -17.1035   23.1356 C   0  0  0  0  0  0  0  0  0  0  0  0
    9.1588  -16.4530   22.0873 O   0  0  0  0  0  0  0  0  0  0  0  0
    9.2447  -18.5168   23.1023 N   0  0  0  0  0  0  0  0  0  0  0  0
    9.6780  -19.0939   21.8633 C   0  0  0  0  0  0  0  0  0  0  0  0
   10.9081  -18.5641   21.2900 C   0  0  0  0  0  0  0  0  0  0  0  0
   11.5136  -19.2931   20.4206 O   0  0  0  0  0  0  0  0  0  0  0  0
    9.0556  -11.8646   19.3814 N   0  0  0  0  0  0  0  0  0  0  0  0
    8.3541  -13.0955   19.2735 C   0  0  0  0  0  0  0  0  0  0  0  0
    7.0836  -13.0366   19.5577 N   0  0  0  0  0  0  0  0  0  0  0  0
    9.0022  -14.2920   18.8828 N   0  0  0  0  0  0  0  0  0  0  0  0
   10.4439  -14.4136   18.9675 C   0  0  0  0  0  0  0  0  0  0  0  0
   10.8393  -15.5032   19.9527 C   0  0  0  0  0  0  0  0  0  0  0  0
   12.3253  -15.6789   20.0228 C   0  0  0  0  0  0  0  0  0  0  0  0
   12.6739  -16.7911   20.9449 C   0  0  2  0  0  0  0  0  0  0  0  0
   11.4744  -17.3181   21.6262 N   0  0  0  0  0  0  0  0  0  0  0  0
   13.6730  -16.3688   21.9759 C   0  0  0  0  0  0  0  0  0  0  0  0
   13.3333  -16.3638   23.1676 O   0  0  0  0  0  0  0  0  0  0  0  0
   14.9473  -15.9893   21.6256 O   0  0  0  0  0  0  0  0  0  0  0  0
  2  1  1  1
  2  3  1  0
  3  4  1  0
  4 12  1  0
  4  5  2  0
  5  6  1  0
  7  8  2  0
  7  6  1  0
  9  8  1  0
 10  9  2  0
 11 10  1  0
 11 12  2  0
 12  7  1  0
 13 14  2  0
 13  2  1  0
 15 13  1  0
 16 15  1  0
 17 16  1  0
 18 17  2  0
 20 19  1  0
 21 20  2  0
 22 20  1  0
 23 24  1  0
 23 22  1  0
 26 25  1  1
 25 24  1  0
 26 27  1  0
 27 17  1  0
 28 26  1  0
 29 28  2  0
 30 28  1  0
M  END
$$$$
