WGR.pdb
     RDKit          3D

 30 31  0  0  1  0  0  0  0  0999 V2000
    8.3013  -17.7008   27.0530 N   0  0  0  0  0  0  0  0  0  0  0  0
    7.5583  -16.9752   26.0173 C   0  0  1  0  0  0  0  0  0  0  0  0
    8.2698  -15.7657   25.5227 C   0  0  0  0  0  0  0  0  0  0  0  0
    8.2460  -14.7169   26.5676 C   0  0  0  0  0  0  0  0  0  0  0  0
    9.0819  -14.5134   27.6396 C   0  0  0  0  0  0  0  0  0  0  0  0
    8.7279  -13.4215   28.3223 N   0  0  0  0  0  0  0  0  0  0  0  0
    7.6435  -12.9093   27.6813 C   0  0  0  0  0  0  0  0  0  0  0  0
    6.8757  -11.7918   27.9444 C   0  0  0  0  0  0  0  0  0  0  0  0
    5.8121  -11.4483   27.1511 C   0  0  0  0  0  0  0  0  0  0  0  0
    5.5028  -12.2349   26.0696 C   0  0  0  0  0  0  0  0  0  0  0  0
    6.2427  -13.3508   25.7799 C   0  0  0  0  0  0  0  0  0  0  0  0
    7.3235  -13.6871   26.5965 C   0  0  0  0  0  0  0  0  0  0  0  0
    7.3517  -17.9088   24.8538 C   0  0  0  0  0  0  0  0  0  0  0  0
    7.9359  -18.9966   24.6941 O   0  0  0  0  0  0  0  0  0  0  0  0
    6.4053  -17.4964   23.8555 N   0  0  0  0  0  0  0  0  0  0  0  0
    6.5234  -18.0602   22.5425 C   0  0  0  0  0  0  0  0  0  0  0  0
    7.6529  -17.6132   21.7381 C   0  0  0  0  0  0  0  0  0  0  0  0
    7.7908  -18.1405   20.5733 O   0  0  0  0  0  0  0  0  0  0  0  0
    8.9691  -12.9369   16.2994 N   0  0  0  0  0  0  0  0  0  0  0  0
    7.8209  -13.6543   16.7309 C   0  0  0  0  0  0  0  0  0  0  0  0
    7.2719  -14.4169   15.8279 N   0  0  0  0  0  0  0  0  0  0  0  0
    7.3217  -13.5397   18.0507 N   0  0  0  0  0  0  0  0  0  0  0  0
    8.2261  -13.4990   19.1823 C   0  0  0  0  0  0  0  0  0  0  0  0
    8.6722  -14.9006   19.5708 C   0  0  0  0  0  0  0  0  0  0  0  0
    9.5729  -14.8873   20.7676 C   0  0  0  0  0  0  0  0  0  0  0  0
    9.7430  -16.2625   21.3049 C   0  0  2  0  0  0  0  0  0  0  0  0
    8.5975  -16.6525   22.1514 N   0  0  0  0  0  0  0  0  0  0  0  0
   11.0038  -16.3992   22.0993 C   0  0  0  0  0  0  0  0  0  0  0  0
   12.0901  -16.2388   21.5249 O   0  0  0  0  0  0  0  0  0  0  0  0
   10.9765  -16.6977   23.4412 O   0  0  0  0  0  0  0  0  0  0  0  0
  2  1  1  1
  2  3  1  0
  3  4  1  0
  4 12  1  0
  4  5  2  0
  5  6  1  0
  7  8  2  0
  7  6  1  0
  9  8  1  0
 10  9  2  0
 11 10  1  0
 11 12  2  0
 12  7  1  0
 13 14  2  0
 13  2  1  0
 15 13  1  0
 16 15  1  0
 17 16  1  0
 18 17  2  0
 20 19  1  0
 21 20  2  0
 22 20  1  0
 23 24  1  0
 23 22  1  0
 26 25  1  1
 25 24  1  0
 26 27  1  0
 27 17  1  0
 28 26  1  0
 29 28  2  0
 30 28  1  0
M  END
$$$$
