WGR.pdb
     RDKit          3D

 30 31  0  0  1  0  0  0  0  0999 V2000
    6.9809  -17.2715   23.8544 N   0  0  0  0  0  0  0  0  0  0  0  0
    8.2409  -16.5482   24.0551 C   0  0  1  0  0  0  0  0  0  0  0  0
    8.4551  -16.1220   25.4645 C   0  0  0  0  0  0  0  0  0  0  0  0
    7.3464  -15.2361   25.8865 C   0  0  0  0  0  0  0  0  0  0  0  0
    6.0670  -15.5437   26.2836 C   0  0  0  0  0  0  0  0  0  0  0  0
    5.3912  -14.4412   26.6176 N   0  0  0  0  0  0  0  0  0  0  0  0
    6.2479  -13.4015   26.4330 C   0  0  0  0  0  0  0  0  0  0  0  0
    6.0852  -12.0438   26.6272 C   0  0  0  0  0  0  0  0  0  0  0  0
    7.1006  -11.1565   26.3816 C   0  0  0  0  0  0  0  0  0  0  0  0
    8.3078  -11.6295   25.9310 C   0  0  0  0  0  0  0  0  0  0  0  0
    8.5035  -12.9698   25.7269 C   0  0  0  0  0  0  0  0  0  0  0  0
    7.4603  -13.8612   25.9824 C   0  0  0  0  0  0  0  0  0  0  0  0
    9.3699  -17.4645   23.6634 C   0  0  0  0  0  0  0  0  0  0  0  0
   10.5796  -17.2290   23.8402 O   0  0  0  0  0  0  0  0  0  0  0  0
    9.0071  -18.7032   23.0336 N   0  0  0  0  0  0  0  0  0  0  0  0
    9.2095  -18.8238   21.6193 C   0  0  0  0  0  0  0  0  0  0  0  0
   10.4178  -18.2163   21.0775 C   0  0  0  0  0  0  0  0  0  0  0  0
   11.2127  -18.9787   20.4136 O   0  0  0  0  0  0  0  0  0  0  0  0
    7.9476  -15.3758   16.8177 N   0  0  0  0  0  0  0  0  0  0  0  0
    8.1013  -13.9716   16.6632 C   0  0  0  0  0  0  0  0  0  0  0  0
    7.9852  -13.5321   15.4419 N   0  0  0  0  0  0  0  0  0  0  0  0
    8.3607  -13.1235   17.7668 N   0  0  0  0  0  0  0  0  0  0  0  0
    8.4459  -13.6623   19.1094 C   0  0  0  0  0  0  0  0  0  0  0  0
    9.3010  -14.9202   19.1357 C   0  0  0  0  0  0  0  0  0  0  0  0
   10.5031  -14.7589   20.0146 C   0  0  0  0  0  0  0  0  0  0  0  0
   11.2534  -16.0384   20.1084 C   0  0  2  0  0  0  0  0  0  0  0  0
   10.7708  -16.8611   21.2358 N   0  0  0  0  0  0  0  0  0  0  0  0
   12.7243  -15.8125   20.2657 C   0  0  0  0  0  0  0  0  0  0  0  0
   13.2757  -16.1844   21.3114 O   0  0  0  0  0  0  0  0  0  0  0  0
   13.4654  -15.2044   19.2800 O   0  0  0  0  0  0  0  0  0  0  0  0
  2  1  1  1
  2  3  1  0
  3  4  1  0
  4 12  1  0
  4  5  2  0
  5  6  1  0
  7  8  2  0
  7  6  1  0
  9  8  1  0
 10  9  2  0
 11 10  1  0
 11 12  2  0
 12  7  1  0
 13 14  2  0
 13  2  1  0
 15 13  1  0
 16 15  1  0
 17 16  1  0
 18 17  2  0
 20 19  1  0
 21 20  2  0
 22 20  1  0
 23 24  1  0
 23 22  1  0
 26 25  1  1
 25 24  1  0
 26 27  1  0
 27 17  1  0
 28 26  1  0
 29 28  2  0
 30 28  1  0
M  END
$$$$
