WGR.pdb
     RDKit          3D

 30 31  0  0  1  0  0  0  0  0999 V2000
   10.2146  -14.9601   23.8505 N   0  0  0  0  0  0  0  0  0  0  0  0
    9.5358  -15.6602   24.9460 C   0  0  1  0  0  0  0  0  0  0  0  0
    8.0778  -15.8427   24.7118 C   0  0  0  0  0  0  0  0  0  0  0  0
    7.4494  -14.5259   24.4601 C   0  0  0  0  0  0  0  0  0  0  0  0
    7.0473  -13.9457   23.2808 C   0  0  0  0  0  0  0  0  0  0  0  0
    6.4895  -12.7521   23.5001 N   0  0  0  0  0  0  0  0  0  0  0  0
    6.5318  -12.5560   24.8450 C   0  0  0  0  0  0  0  0  0  0  0  0
    6.0928  -11.5038   25.6246 C   0  0  0  0  0  0  0  0  0  0  0  0
    6.2301  -11.5143   26.9883 C   0  0  0  0  0  0  0  0  0  0  0  0
    6.8188  -12.5969   27.5929 C   0  0  0  0  0  0  0  0  0  0  0  0
    7.2660  -13.6573   26.8501 C   0  0  0  0  0  0  0  0  0  0  0  0
    7.1184  -13.6325   25.4624 C   0  0  0  0  0  0  0  0  0  0  0  0
   10.1641  -17.0216   25.0871 C   0  0  0  0  0  0  0  0  0  0  0  0
    9.6253  -18.0087   25.6213 O   0  0  0  0  0  0  0  0  0  0  0  0
   11.4918  -17.1772   24.5622 N   0  0  0  0  0  0  0  0  0  0  0  0
   12.1415  -18.4430   24.7394 C   0  0  0  0  0  0  0  0  0  0  0  0
   13.4198  -18.6222   24.0638 C   0  0  0  0  0  0  0  0  0  0  0  0
   14.0292  -19.7400   24.2446 O   0  0  0  0  0  0  0  0  0  0  0  0
   14.6418  -13.6345   18.9682 N   0  0  0  0  0  0  0  0  0  0  0  0
   14.6722  -14.7935   18.1467 C   0  0  0  0  0  0  0  0  0  0  0  0
   15.3754  -14.6812   17.0552 N   0  0  0  0  0  0  0  0  0  0  0  0
   13.9839  -15.9785   18.5021 N   0  0  0  0  0  0  0  0  0  0  0  0
   14.6264  -16.9908   19.3161 C   0  0  0  0  0  0  0  0  0  0  0  0
   14.4176  -16.7094   20.7965 C   0  0  0  0  0  0  0  0  0  0  0  0
   15.6738  -16.9153   21.5858 C   0  0  0  0  0  0  0  0  0  0  0  0
   15.4156  -17.8004   22.7516 C   0  0  2  0  0  0  0  0  0  0  0  0
   14.0279  -17.6573   23.2359 N   0  0  0  0  0  0  0  0  0  0  0  0
   16.3564  -17.5231   23.8818 C   0  0  0  0  0  0  0  0  0  0  0  0
   15.8944  -17.1025   24.9520 O   0  0  0  0  0  0  0  0  0  0  0  0
   17.7105  -17.7242   23.7528 O   0  0  0  0  0  0  0  0  0  0  0  0
  2  1  1  6
  2  3  1  0
  3  4  1  0
  4 12  1  0
  4  5  2  0
  5  6  1  0
  7  8  2  0
  7  6  1  0
  9  8  1  0
 10  9  2  0
 11 10  1  0
 11 12  2  0
 12  7  1  0
 13 14  2  0
 13  2  1  0
 15 13  1  0
 16 15  1  0
 17 16  1  0
 18 17  2  0
 20 19  1  0
 21 20  2  0
 22 20  1  0
 23 24  1  0
 23 22  1  0
 26 25  1  6
 25 24  1  0
 26 27  1  0
 27 17  1  0
 28 26  1  0
 29 28  2  0
 30 28  1  0
M  END
$$$$
