WGR.pdb
     RDKit          3D

 30 31  0  0  1  0  0  0  0  0999 V2000
    6.5651  -17.4029   23.7616 N   0  0  0  0  0  0  0  0  0  0  0  0
    7.7206  -16.5093   23.6299 C   0  0  1  0  0  0  0  0  0  0  0  0
    8.3077  -16.1120   24.9381 C   0  0  0  0  0  0  0  0  0  0  0  0
    7.3502  -15.2500   25.6677 C   0  0  0  0  0  0  0  0  0  0  0  0
    6.2929  -15.5869   26.4786 C   0  0  0  0  0  0  0  0  0  0  0  0
    5.7019  -14.4960   26.9730 N   0  0  0  0  0  0  0  0  0  0  0  0
    6.3884  -13.4341   26.4729 C   0  0  0  0  0  0  0  0  0  0  0  0
    6.2203  -12.0754   26.6551 C   0  0  0  0  0  0  0  0  0  0  0  0
    7.0451  -11.1624   26.0510 C   0  0  0  0  0  0  0  0  0  0  0  0
    8.0621  -11.6101   25.2452 C   0  0  0  0  0  0  0  0  0  0  0  0
    8.2570  -12.9507   25.0421 C   0  0  0  0  0  0  0  0  0  0  0  0
    7.4095  -13.8684   25.6647 C   0  0  0  0  0  0  0  0  0  0  0  0
    8.7788  -17.2320   22.8388 C   0  0  0  0  0  0  0  0  0  0  0  0
    8.9038  -18.4689   22.7699 O   0  0  0  0  0  0  0  0  0  0  0  0
    9.7129  -16.4165   22.1143 N   0  0  0  0  0  0  0  0  0  0  0  0
   11.0641  -16.8818   21.9986 C   0  0  0  0  0  0  0  0  0  0  0  0
   11.9468  -16.6138   23.1263 C   0  0  0  0  0  0  0  0  0  0  0  0
   13.1646  -16.2989   22.8584 O   0  0  0  0  0  0  0  0  0  0  0  0
   10.1227  -21.0026   30.6090 N   0  0  0  0  0  0  0  0  0  0  0  0
   11.5315  -20.9082   30.4492 C   0  0  0  0  0  0  0  0  0  0  0  0
   12.2323  -21.2536   31.4922 N   0  0  0  0  0  0  0  0  0  0  0  0
   12.1173  -20.4696   29.2373 N   0  0  0  0  0  0  0  0  0  0  0  0
   11.3263  -19.7711   28.2440 C   0  0  0  0  0  0  0  0  0  0  0  0
   12.1869  -19.3530   27.0613 C   0  0  0  0  0  0  0  0  0  0  0  0
   11.4174  -18.5282   26.0758 C   0  0  0  0  0  0  0  0  0  0  0  0
   12.2936  -17.4924   25.4690 C   0  0  2  0  0  0  0  0  0  0  0  0
   11.5574  -16.6807   24.4791 N   0  0  0  0  0  0  0  0  0  0  0  0
   13.4941  -18.0941   24.8087 C   0  0  0  0  0  0  0  0  0  0  0  0
   14.6206  -17.7653   25.2069 O   0  0  0  0  0  0  0  0  0  0  0  0
   13.3686  -18.9952   23.7777 O   0  0  0  0  0  0  0  0  0  0  0  0
  2  1  1  1
  2  3  1  0
  3  4  1  0
  4 12  1  0
  4  5  2  0
  5  6  1  0
  7  8  2  0
  7  6  1  0
  9  8  1  0
 10  9  2  0
 11 10  1  0
 11 12  2  0
 12  7  1  0
 13 14  2  0
 13  2  1  0
 15 13  1  0
 16 15  1  0
 17 16  1  0
 18 17  2  0
 20 19  1  0
 21 20  2  0
 22 20  1  0
 23 24  1  0
 23 22  1  0
 26 25  1  6
 25 24  1  0
 26 27  1  0
 27 17  1  0
 28 26  1  0
 29 28  2  0
 30 28  1  0
M  END
$$$$
