WGR.pdb
     RDKit          3D

 30 31  0  0  1  0  0  0  0  0999 V2000
    9.7292  -15.5779   22.2935 N   0  0  0  0  0  0  0  0  0  0  0  0
    9.3524  -15.6840   23.7069 C   0  0  1  0  0  0  0  0  0  0  0  0
    7.8848  -15.5870   23.9322 C   0  0  0  0  0  0  0  0  0  0  0  0
    7.4125  -14.2406   23.5370 C   0  0  0  0  0  0  0  0  0  0  0  0
    7.0035  -13.7677   22.3129 C   0  0  0  0  0  0  0  0  0  0  0  0
    6.6193  -12.4913   22.3966 N   0  0  0  0  0  0  0  0  0  0  0  0
    6.7829  -12.1313   23.6977 C   0  0  0  0  0  0  0  0  0  0  0  0
    6.5387  -10.9379   24.3484 C   0  0  0  0  0  0  0  0  0  0  0  0
    6.7714  -10.7914   25.6912 C   0  0  0  0  0  0  0  0  0  0  0  0
    7.2597  -11.8569   26.4055 C   0  0  0  0  0  0  0  0  0  0  0  0
    7.5138  -13.0549   25.7918 C   0  0  0  0  0  0  0  0  0  0  0  0
    7.2709  -13.1890   24.4239 C   0  0  0  0  0  0  0  0  0  0  0  0
    9.8189  -17.0236   24.2126 C   0  0  0  0  0  0  0  0  0  0  0  0
    9.5952  -17.4790   25.3496 O   0  0  0  0  0  0  0  0  0  0  0  0
   10.5845  -17.8268   23.3009 N   0  0  0  0  0  0  0  0  0  0  0  0
   11.1354  -19.0578   23.7878 C   0  0  0  0  0  0  0  0  0  0  0  0
   12.1011  -18.9576   24.8740 C   0  0  0  0  0  0  0  0  0  0  0  0
   13.0205  -18.0652   24.7635 O   0  0  0  0  0  0  0  0  0  0  0  0
   10.5907  -23.6166   31.1126 N   0  0  0  0  0  0  0  0  0  0  0  0
    9.7003  -22.6218   30.6261 C   0  0  0  0  0  0  0  0  0  0  0  0
    8.4562  -22.9949   30.5204 N   0  0  0  0  0  0  0  0  0  0  0  0
   10.1473  -21.3223   30.2857 N   0  0  0  0  0  0  0  0  0  0  0  0
   11.5606  -21.0018   30.2905 C   0  0  0  0  0  0  0  0  0  0  0  0
   12.1180  -20.9860   28.8751 C   0  0  0  0  0  0  0  0  0  0  0  0
   12.4819  -19.6014   28.4346 C   0  0  0  0  0  0  0  0  0  0  0  0
   13.1113  -19.6331   27.0885 C   0  0  2  0  0  0  0  0  0  0  0  0
   12.0956  -19.7704   26.0254 N   0  0  0  0  0  0  0  0  0  0  0  0
   14.1020  -20.7474   26.9619 C   0  0  0  0  0  0  0  0  0  0  0  0
   13.8157  -21.7211   26.2507 O   0  0  0  0  0  0  0  0  0  0  0  0
   15.3109  -20.7092   27.6157 O   0  0  0  0  0  0  0  0  0  0  0  0
  2  1  1  6
  2  3  1  0
  3  4  1  0
  4 12  1  0
  4  5  2  0
  5  6  1  0
  7  8  2  0
  7  6  1  0
  9  8  1  0
 10  9  2  0
 11 10  1  0
 11 12  2  0
 12  7  1  0
 13 14  2  0
 13  2  1  0
 15 13  1  0
 16 15  1  0
 17 16  1  0
 18 17  2  0
 20 19  1  0
 21 20  2  0
 22 20  1  0
 23 24  1  0
 23 22  1  0
 26 25  1  1
 25 24  1  0
 26 27  1  0
 27 17  1  0
 28 26  1  0
 29 28  2  0
 30 28  1  0
M  END
$$$$
