WGR.pdb
     RDKit          3D

 30 31  0  0  1  0  0  0  0  0999 V2000
    8.9140  -17.3701   27.4884 N   0  0  0  0  0  0  0  0  0  0  0  0
    8.3536  -16.9633   26.1956 C   0  0  1  0  0  0  0  0  0  0  0  0
    8.9927  -15.7412   25.6371 C   0  0  0  0  0  0  0  0  0  0  0  0
    8.7940  -14.6094   26.5708 C   0  0  0  0  0  0  0  0  0  0  0  0
    9.5646  -14.1846   27.6267 C   0  0  0  0  0  0  0  0  0  0  0  0
    9.0426  -13.0929   28.1919 N   0  0  0  0  0  0  0  0  0  0  0  0
    7.9139  -12.8061   27.4898 C   0  0  0  0  0  0  0  0  0  0  0  0
    6.9897  -11.7895   27.6300 C   0  0  0  0  0  0  0  0  0  0  0  0
    5.9093  -11.6807   26.7936 C   0  0  0  0  0  0  0  0  0  0  0  0
    5.7422  -12.6056   25.7931 C   0  0  0  0  0  0  0  0  0  0  0  0
    6.6394  -13.6272   25.6260 C   0  0  0  0  0  0  0  0  0  0  0  0
    7.7351  -13.7241   26.4850 C   0  0  0  0  0  0  0  0  0  0  0  0
    8.5653  -18.0924   25.2217 C   0  0  0  0  0  0  0  0  0  0  0  0
    9.4972  -18.9166   25.2703 O   0  0  0  0  0  0  0  0  0  0  0  0
    7.6105  -18.2130   24.1558 N   0  0  0  0  0  0  0  0  0  0  0  0
    7.9147  -19.1080   23.0778 C   0  0  0  0  0  0  0  0  0  0  0  0
    8.8044  -18.6034   22.0402 C   0  0  0  0  0  0  0  0  0  0  0  0
    9.1041  -19.4056   21.0809 O   0  0  0  0  0  0  0  0  0  0  0  0
    8.6489  -13.3746   15.6326 N   0  0  0  0  0  0  0  0  0  0  0  0
    8.1630  -13.4428   16.9661 C   0  0  0  0  0  0  0  0  0  0  0  0
    7.3557  -12.4801   17.3122 N   0  0  0  0  0  0  0  0  0  0  0  0
    8.5372  -14.4886   17.8441 N   0  0  0  0  0  0  0  0  0  0  0  0
    7.9020  -14.6296   19.1391 C   0  0  0  0  0  0  0  0  0  0  0  0
    8.4310  -15.8530   19.8723 C   0  0  0  0  0  0  0  0  0  0  0  0
    9.8699  -15.6937   20.2567 C   0  0  0  0  0  0  0  0  0  0  0  0
   10.3424  -16.8868   21.0065 C   0  0  2  0  0  0  0  0  0  0  0  0
    9.3560  -17.3066   22.0221 N   0  0  0  0  0  0  0  0  0  0  0  0
   11.6567  -16.6394   21.6779 C   0  0  0  0  0  0  0  0  0  0  0  0
   12.6495  -16.4029   20.9750 O   0  0  0  0  0  0  0  0  0  0  0  0
   11.7792  -16.6712   23.0470 O   0  0  0  0  0  0  0  0  0  0  0  0
  2  1  1  1
  2  3  1  0
  3  4  1  0
  4 12  1  0
  4  5  2  0
  5  6  1  0
  7  8  2  0
  7  6  1  0
  9  8  1  0
 10  9  2  0
 11 10  1  0
 11 12  2  0
 12  7  1  0
 13 14  2  0
 13  2  1  0
 15 13  1  0
 16 15  1  0
 17 16  1  0
 18 17  2  0
 20 19  1  0
 21 20  2  0
 22 20  1  0
 23 24  1  0
 23 22  1  0
 26 25  1  1
 25 24  1  0
 26 27  1  0
 27 17  1  0
 28 26  1  0
 29 28  2  0
 30 28  1  0
M  END
$$$$
