WGR.pdb
     RDKit          3D

 30 31  0  0  1  0  0  0  0  0999 V2000
    7.9809  -16.3537   22.7382 N   0  0  0  0  0  0  0  0  0  0  0  0
    8.8051  -15.3204   23.3738 C   0  0  1  0  0  0  0  0  0  0  0  0
    8.7496  -15.3571   24.8603 C   0  0  0  0  0  0  0  0  0  0  0  0
    7.5093  -14.6949   25.3246 C   0  0  0  0  0  0  0  0  0  0  0  0
    6.2856  -15.2304   25.6485 C   0  0  0  0  0  0  0  0  0  0  0  0
    5.4411  -14.2809   26.0597 N   0  0  0  0  0  0  0  0  0  0  0  0
    6.1301  -13.1100   26.0005 C   0  0  0  0  0  0  0  0  0  0  0  0
    5.7557  -11.8180   26.3134 C   0  0  0  0  0  0  0  0  0  0  0  0
    6.6261  -10.7670   26.1848 C   0  0  0  0  0  0  0  0  0  0  0  0
    7.9003  -11.0053   25.7334 C   0  0  0  0  0  0  0  0  0  0  0  0
    8.3048  -12.2743   25.4134 C   0  0  0  0  0  0  0  0  0  0  0  0
    7.4073  -13.3344   25.5505 C   0  0  0  0  0  0  0  0  0  0  0  0
   10.2335  -15.5401   22.9504 C   0  0  0  0  0  0  0  0  0  0  0  0
   11.2113  -14.8853   23.3570 O   0  0  0  0  0  0  0  0  0  0  0  0
   10.4706  -16.5892   21.9988 N   0  0  0  0  0  0  0  0  0  0  0  0
   11.8151  -16.7953   21.5452 C   0  0  0  0  0  0  0  0  0  0  0  0
   12.7146  -17.4873   22.4588 C   0  0  0  0  0  0  0  0  0  0  0  0
   13.9698  -17.4617   22.1805 O   0  0  0  0  0  0  0  0  0  0  0  0
   12.3313  -23.7742   26.0441 N   0  0  0  0  0  0  0  0  0  0  0  0
   11.2513  -23.0292   26.5899 C   0  0  0  0  0  0  0  0  0  0  0  0
   10.0834  -23.6008   26.5029 N   0  0  0  0  0  0  0  0  0  0  0  0
   11.4459  -21.7587   27.1836 N   0  0  0  0  0  0  0  0  0  0  0  0
   10.6947  -20.6065   26.7271 C   0  0  0  0  0  0  0  0  0  0  0  0
   11.3126  -20.0211   25.4662 C   0  0  0  0  0  0  0  0  0  0  0  0
   12.6113  -19.3309   25.7505 C   0  0  0  0  0  0  0  0  0  0  0  0
   13.2565  -18.8962   24.4842 C   0  0  2  0  0  0  0  0  0  0  0  0
   12.3017  -18.1799   23.6147 N   0  0  0  0  0  0  0  0  0  0  0  0
   13.8327  -20.0508   23.7265 C   0  0  0  0  0  0  0  0  0  0  0  0
   13.3123  -20.3762   22.6499 O   0  0  0  0  0  0  0  0  0  0  0  0
   14.9176  -20.7496   24.2012 O   0  0  0  0  0  0  0  0  0  0  0  0
  2  1  1  6
  2  3  1  0
  3  4  1  0
  4 12  1  0
  4  5  2  0
  5  6  1  0
  7  8  2  0
  7  6  1  0
  9  8  1  0
 10  9  2  0
 11 10  1  0
 11 12  2  0
 12  7  1  0
 13 14  2  0
 13  2  1  0
 15 13  1  0
 16 15  1  0
 17 16  1  0
 18 17  2  0
 20 19  1  0
 21 20  2  0
 22 20  1  0
 23 24  1  0
 23 22  1  0
 26 25  1  1
 25 24  1  0
 26 27  1  0
 27 17  1  0
 28 26  1  0
 29 28  2  0
 30 28  1  0
M  END
$$$$
