EFG.pdb
     RDKit          3D

 25 25  0  0  1  0  0  0  0  0999 V2000
    8.7762  -17.2880   19.8915 N   0  0  0  0  0  0  0  0  0  0  0  0
    9.7302  -17.6852   20.9089 C   0  0  1  0  0  0  0  0  0  0  0  0
   11.1011  -17.8583   20.2942 C   0  0  0  0  0  0  0  0  0  0  0  0
   11.0932  -18.8339   19.1573 C   0  0  0  0  0  0  0  0  0  0  0  0
   12.4467  -18.9608   18.5742 C   0  0  0  0  0  0  0  0  0  0  0  0
   13.3272  -19.6440   19.1645 O   0  0  0  0  0  0  0  0  0  0  0  0
    9.7493  -16.6389   21.9784 C   0  0  0  0  0  0  0  0  0  0  0  0
   10.6503  -15.7643   21.9809 O   0  0  0  0  0  0  0  0  0  0  0  0
   12.7870  -18.3448   17.3818 O   0  0  0  0  0  0  0  0  0  0  0  0
    8.7706  -16.5982   23.0064 N   0  0  0  0  0  0  0  0  0  0  0  0
    8.7426  -15.6690   24.1063 C   0  0  1  0  0  0  0  0  0  0  0  0
    7.3584  -15.0859   24.3914 C   0  0  0  0  0  0  0  0  0  0  0  0
    7.4027  -14.0010   25.4084 C   0  0  0  0  0  0  0  0  0  0  0  0
    7.5038  -14.1904   26.7617 C   0  0  0  0  0  0  0  0  0  0  0  0
    7.5280  -13.1273   27.6563 C   0  0  0  0  0  0  0  0  0  0  0  0
    7.4507  -11.8306   27.2095 C   0  0  0  0  0  0  0  0  0  0  0  0
    7.3504  -11.6387   25.8620 C   0  0  0  0  0  0  0  0  0  0  0  0
    7.3250  -12.6683   24.9706 C   0  0  0  0  0  0  0  0  0  0  0  0
    9.3851  -16.1865   25.3298 C   0  0  0  0  0  0  0  0  0  0  0  0
    8.9875  -17.2824   25.8136 O   0  0  0  0  0  0  0  0  0  0  0  0
   10.4340  -15.5259   26.0078 N   0  0  0  0  0  0  0  0  0  0  0  0
   11.2354  -16.2079   27.0368 C   0  0  0  0  0  0  0  0  0  0  0  0
   10.5716  -16.1021   28.3587 C   0  0  0  0  0  0  0  0  0  0  0  0
    9.7216  -16.9531   28.6975 O   0  0  0  0  0  0  0  0  0  0  0  0
   10.8845  -15.0695   29.2210 O   0  0  0  0  0  0  0  0  0  0  0  0
  2  1  1  6
  2  7  1  0
  3  2  1  0
  4  3  1  0
  5  4  1  0
  6  5  2  0
  7 10  1  0
  7  8  2  0
  9  5  1  0
 10 11  1  0
 11 12  1  1
 13 12  1  0
 14 13  2  0
 15 14  1  0
 16 17  1  0
 16 15  2  0
 17 18  2  0
 18 13  1  0
 19 21  1  0
 19 11  1  0
 20 19  2  0
 22 21  1  0
 23 22  1  0
 24 23  2  0
 25 23  1  0
M  END
$$$$
