EFG.pdb
     RDKit          3D

 25 25  0  0  1  0  0  0  0  0999 V2000
    8.8634  -18.3229   19.4477 N   0  0  0  0  0  0  0  0  0  0  0  0
    9.9776  -17.4720   19.0767 C   0  0  1  0  0  0  0  0  0  0  0  0
    9.6454  -16.7033   17.8174 C   0  0  0  0  0  0  0  0  0  0  0  0
   10.1251  -17.4035   16.5830 C   0  0  0  0  0  0  0  0  0  0  0  0
    9.7751  -16.6235   15.3759 C   0  0  0  0  0  0  0  0  0  0  0  0
    8.6489  -16.0625   15.2909 O   0  0  0  0  0  0  0  0  0  0  0  0
   10.2660  -16.5424   20.2133 C   0  0  0  0  0  0  0  0  0  0  0  0
   11.2201  -15.7304   20.1295 O   0  0  0  0  0  0  0  0  0  0  0  0
   10.6564  -16.4852   14.3170 O   0  0  0  0  0  0  0  0  0  0  0  0
    9.4883  -16.5452   21.4013 N   0  0  0  0  0  0  0  0  0  0  0  0
    9.7136  -15.7164   22.5573 C   0  0  1  0  0  0  0  0  0  0  0  0
    8.5240  -14.8303   22.9274 C   0  0  0  0  0  0  0  0  0  0  0  0
    8.0055  -14.0670   21.7604 C   0  0  0  0  0  0  0  0  0  0  0  0
    8.5284  -12.8911   21.2900 C   0  0  0  0  0  0  0  0  0  0  0  0
    7.9838  -12.2250   20.1990 C   0  0  0  0  0  0  0  0  0  0  0  0
    6.8867  -12.7288   19.5436 C   0  0  0  0  0  0  0  0  0  0  0  0
    6.3637  -13.9002   20.0095 C   0  0  0  0  0  0  0  0  0  0  0  0
    6.8841  -14.5667   21.0774 C   0  0  0  0  0  0  0  0  0  0  0  0
   10.2302  -16.4602   23.7225 C   0  0  0  0  0  0  0  0  0  0  0  0
    9.4107  -16.9658   24.5385 O   0  0  0  0  0  0  0  0  0  0  0  0
   11.6047  -16.6474   23.9905 N   0  0  0  0  0  0  0  0  0  0  0  0
   12.1913  -16.2876   25.2916 C   0  0  0  0  0  0  0  0  0  0  0  0
   12.3181  -17.4914   26.1483 C   0  0  0  0  0  0  0  0  0  0  0  0
   11.8906  -18.5925   25.7406 O   0  0  0  0  0  0  0  0  0  0  0  0
   12.9057  -17.4071   27.3955 O   0  0  0  0  0  0  0  0  0  0  0  0
  2  1  1  1
  2  7  1  0
  3  2  1  0
  4  3  1  0
  5  4  1  0
  6  5  2  0
  7 10  1  0
  7  8  2  0
  9  5  1  0
 10 11  1  0
 11 12  1  1
 13 12  1  0
 14 13  2  0
 15 14  1  0
 16 17  1  0
 16 15  2  0
 17 18  2  0
 18 13  1  0
 19 21  1  0
 19 11  1  0
 20 19  2  0
 22 21  1  0
 23 22  1  0
 24 23  2  0
 25 23  1  0
M  END
$$$$
