EFG.pdb
     RDKit          3D

 25 25  0  0  1  0  0  0  0  0999 V2000
    7.1131  -16.1982   21.7397 N   0  0  0  0  0  0  0  0  0  0  0  0
    8.4560  -15.7130   21.4866 C   0  0  1  0  0  0  0  0  0  0  0  0
    8.4103  -14.5275   20.5487 C   0  0  0  0  0  0  0  0  0  0  0  0
    7.7071  -14.8473   19.2651 C   0  0  0  0  0  0  0  0  0  0  0  0
    8.2857  -14.0675   18.1492 C   0  0  0  0  0  0  0  0  0  0  0  0
    9.2487  -13.2811   18.3608 O   0  0  0  0  0  0  0  0  0  0  0  0
    9.0820  -15.3401   22.7936 C   0  0  0  0  0  0  0  0  0  0  0  0
   10.1524  -14.6838   22.8090 O   0  0  0  0  0  0  0  0  0  0  0  0
    7.7984  -14.1724   16.8575 O   0  0  0  0  0  0  0  0  0  0  0  0
    8.5008  -15.7070   24.0361 N   0  0  0  0  0  0  0  0  0  0  0  0
    9.0805  -15.4846   25.3354 C   0  0  1  0  0  0  0  0  0  0  0  0
    8.0568  -15.1706   26.4266 C   0  0  0  0  0  0  0  0  0  0  0  0
    7.3793  -13.8648   26.2046 C   0  0  0  0  0  0  0  0  0  0  0  0
    7.9567  -12.6349   26.3820 C   0  0  0  0  0  0  0  0  0  0  0  0
    7.2581  -11.4533   26.1665 C   0  0  0  0  0  0  0  0  0  0  0  0
    5.9456  -11.4763   25.7618 C   0  0  0  0  0  0  0  0  0  0  0  0
    5.3677  -12.6999   25.5837 C   0  0  0  0  0  0  0  0  0  0  0  0
    6.0368  -13.8682   25.7903 C   0  0  0  0  0  0  0  0  0  0  0  0
   10.0198  -16.5447   25.7497 C   0  0  0  0  0  0  0  0  0  0  0  0
   10.5673  -16.4684   26.8844 O   0  0  0  0  0  0  0  0  0  0  0  0
   10.3530  -17.6588   24.9473 N   0  0  0  0  0  0  0  0  0  0  0  0
   11.1582  -18.7730   25.4731 C   0  0  0  0  0  0  0  0  0  0  0  0
   12.5973  -18.5399   25.2011 C   0  0  0  0  0  0  0  0  0  0  0  0
   12.9551  -17.5137   24.5844 O   0  0  0  0  0  0  0  0  0  0  0  0
   13.5480  -19.4482   25.6239 O   0  0  0  0  0  0  0  0  0  0  0  0
  2  1  1  1
  2  7  1  0
  3  2  1  0
  4  3  1  0
  5  4  1  0
  6  5  2  0
  7 10  1  0
  7  8  2  0
  9  5  1  0
 10 11  1  0
 11 12  1  1
 13 12  1  0
 14 13  2  0
 15 14  1  0
 16 17  1  0
 16 15  2  0
 17 18  2  0
 18 13  1  0
 19 21  1  0
 19 11  1  0
 20 19  2  0
 22 21  1  0
 23 22  1  0
 24 23  2  0
 25 23  1  0
M  END
$$$$
