EFG.pdb
     RDKit          3D

 25 25  0  0  1  0  0  0  0  0999 V2000
    9.1015  -14.6675   20.6610 N   0  0  0  0  0  0  0  0  0  0  0  0
    8.3349  -15.7263   21.2888 C   0  0  1  0  0  0  0  0  0  0  0  0
    8.7206  -17.0645   20.6994 C   0  0  0  0  0  0  0  0  0  0  0  0
    9.0034  -16.9766   19.2309 C   0  0  0  0  0  0  0  0  0  0  0  0
    9.2142  -18.3257   18.6622 C   0  0  0  0  0  0  0  0  0  0  0  0
   10.3667  -18.6838   18.2961 O   0  0  0  0  0  0  0  0  0  0  0  0
    8.5947  -15.6932   22.7621 C   0  0  0  0  0  0  0  0  0  0  0  0
    9.7110  -15.3105   23.1911 O   0  0  0  0  0  0  0  0  0  0  0  0
    8.1720  -19.2253   18.5151 O   0  0  0  0  0  0  0  0  0  0  0  0
    7.6099  -16.0848   23.7071 N   0  0  0  0  0  0  0  0  0  0  0  0
    7.7585  -16.0563   25.1392 C   0  0  1  0  0  0  0  0  0  0  0  0
    6.5713  -15.4338   25.8744 C   0  0  0  0  0  0  0  0  0  0  0  0
    6.6719  -13.9516   25.9532 C   0  0  0  0  0  0  0  0  0  0  0  0
    6.1403  -13.0742   25.0448 C   0  0  0  0  0  0  0  0  0  0  0  0
    6.2837  -11.6984   25.1760 C   0  0  0  0  0  0  0  0  0  0  0  0
    6.9727  -11.1612   26.2360 C   0  0  0  0  0  0  0  0  0  0  0  0
    7.5031  -12.0325   27.1428 C   0  0  0  0  0  0  0  0  0  0  0  0
    7.3728  -13.3837   27.0303 C   0  0  0  0  0  0  0  0  0  0  0  0
    8.1426  -17.3589   25.7166 C   0  0  0  0  0  0  0  0  0  0  0  0
    7.2664  -18.2601   25.8313 O   0  0  0  0  0  0  0  0  0  0  0  0
    9.4483  -17.6702   26.1575 N   0  0  0  0  0  0  0  0  0  0  0  0
    9.7836  -18.9995   26.6933 C   0  0  0  0  0  0  0  0  0  0  0  0
   11.2262  -19.0687   27.0299 C   0  0  0  0  0  0  0  0  0  0  0  0
   11.9734  -18.1029   26.7647 O   0  0  0  0  0  0  0  0  0  0  0  0
   11.7530  -20.1929   27.6351 O   0  0  0  0  0  0  0  0  0  0  0  0
  2  1  1  6
  2  7  1  0
  3  2  1  0
  4  3  1  0
  5  4  1  0
  6  5  2  0
  7 10  1  0
  7  8  2  0
  9  5  1  0
 10 11  1  0
 11 12  1  1
 13 12  1  0
 14 13  2  0
 15 14  1  0
 16 17  1  0
 16 15  2  0
 17 18  2  0
 18 13  1  0
 19 21  1  0
 19 11  1  0
 20 19  2  0
 22 21  1  0
 23 22  1  0
 24 23  2  0
 25 23  1  0
M  END
$$$$
