RGN.pdb
     RDKit          3D

 24 23  0  0  1  0  0  0  0  0999 V2000
   23.0416  -24.0762  -14.3307 N   0  0  0  0  0  0  0  0  0  0  0  0
   24.0556  -24.8875  -14.9437 C   0  0  0  0  0  0  0  0  0  0  0  0
   23.6871  -25.9076  -15.6060 N   0  0  0  0  0  0  0  0  0  0  0  0
   25.4243  -24.5301  -14.7927 N   0  0  0  0  0  0  0  0  0  0  0  0
   25.8397  -23.2004  -14.4158 C   0  0  0  0  0  0  0  0  0  0  0  0
   25.2532  -22.2121  -15.3569 C   0  0  0  0  0  0  0  0  0  0  0  0
   25.5373  -20.7810  -15.0981 C   0  0  0  0  0  0  0  0  0  0  0  0
   26.9241  -20.3124  -15.3684 C   0  0  2  0  0  0  0  0  0  0  0  0
   27.9139  -21.0829  -14.6532 N   0  0  0  0  0  0  0  0  0  0  0  0
   27.0093  -18.9021  -14.8464 C   0  0  0  0  0  0  0  0  0  0  0  0
   27.7172  -18.6315  -13.8645 O   0  0  0  0  0  0  0  0  0  0  0  0
   24.3701  -26.5322  -16.0426 N   0  0  0  0  0  0  0  0  0  0  0  0
   26.2783  -17.8501  -15.4698 C   0  0  0  0  0  0  0  0  0  0  0  0
   26.3903  -16.5026  -15.0394 C   0  0  0  0  0  0  0  0  0  0  0  0
   25.5058  -15.5374  -15.7378 O   0  0  0  0  0  0  0  0  0  0  0  0
   24.9693  -15.8573  -16.8570 N   0  0  0  0  0  0  0  0  0  0  0  0
   21.1888  -14.1089  -16.6992 C   0  0  0  0  0  0  0  0  0  0  0  0
   21.5577  -13.9422  -15.3551 O   0  0  0  0  0  0  0  0  0  0  0  0
   20.6049  -14.0756  -14.5044 C   0  0  0  0  0  0  0  0  0  0  0  0
   22.8678  -13.6424  -14.8072 C   0  0  2  0  0  0  0  0  0  0  0  0
   23.9985  -13.5193  -15.7765 N   0  0  0  0  0  0  0  0  0  0  0  0
   25.1821  -14.2412  -15.2633 C   0  0  0  0  0  0  0  0  0  0  0  0
   24.4004  -12.1345  -16.0410 O   0  0  0  0  0  0  0  0  0  0  0  0
   25.3121  -11.5913  -15.3916 O   0  0  0  0  0  0  0  0  0  0  0  0
  1  2  1  0
  2  3  2  0
  4  5  1  0
  4  2  1  0
  6  5  1  0
  7  6  1  0
  7  8  1  0
  8  9  1  1
 10  8  1  0
 10 12  1  0
 11 10  2  0
 13 12  1  0
 13 14  1  0
 14 21  1  0
 15 14  2  0
 17 16  1  0
 18 17  2  0
 19 17  1  0
 20 19  1  6
 20 22  1  0
 21 20  1  0
 22 23  2  0
 22 24  1  0
M  END
$$$$
