RGN.pdb
     RDKit          3D

 24 23  0  0  1  0  0  0  0  0999 V2000
   26.0204  -24.4854  -15.5991 N   0  0  0  0  0  0  0  0  0  0  0  0
   26.2436  -23.8295  -16.8569 C   0  0  0  0  0  0  0  0  0  0  0  0
   26.0541  -24.4964  -17.9220 N   0  0  0  0  0  0  0  0  0  0  0  0
   26.6654  -22.4710  -16.8729 N   0  0  0  0  0  0  0  0  0  0  0  0
   26.4555  -21.5825  -15.7552 C   0  0  0  0  0  0  0  0  0  0  0  0
   25.1085  -20.9648  -15.8587 C   0  0  0  0  0  0  0  0  0  0  0  0
   24.3098  -20.8726  -14.6140 C   0  0  0  0  0  0  0  0  0  0  0  0
   23.5786  -22.0992  -14.1932 C   0  0  2  0  0  0  0  0  0  0  0  0
   22.9200  -22.7532  -15.2993 N   0  0  0  0  0  0  0  0  0  0  0  0
   22.4970  -21.6496  -13.2463 C   0  0  0  0  0  0  0  0  0  0  0  0
   22.7690  -20.9464  -12.2614 O   0  0  0  0  0  0  0  0  0  0  0  0
   26.2348  -24.0885  -18.8429 N   0  0  0  0  0  0  0  0  0  0  0  0
   21.1393  -22.0231  -13.4625 C   0  0  0  0  0  0  0  0  0  0  0  0
   20.1195  -21.7168  -12.5244 C   0  0  0  0  0  0  0  0  0  0  0  0
   19.6481  -22.8593  -11.7034 O   0  0  0  0  0  0  0  0  0  0  0  0
   19.7100  -24.0507  -12.1717 N   0  0  0  0  0  0  0  0  0  0  0  0
   18.1368  -26.0862   -7.5728 C   0  0  0  0  0  0  0  0  0  0  0  0
   18.4368  -24.7503   -7.2634 O   0  0  0  0  0  0  0  0  0  0  0  0
   18.5053  -24.4799   -6.0098 C   0  0  0  0  0  0  0  0  0  0  0  0
   18.6794  -23.6441   -8.1711 C   0  0  2  0  0  0  0  0  0  0  0  0
   18.7347  -23.9612   -9.6303 N   0  0  0  0  0  0  0  0  0  0  0  0
   19.1157  -22.7539  -10.3936 C   0  0  0  0  0  0  0  0  0  0  0  0
   17.4654  -24.4518  -10.1757 O   0  0  0  0  0  0  0  0  0  0  0  0
   16.6159  -23.6695  -10.6388 O   0  0  0  0  0  0  0  0  0  0  0  0
  1  2  1  0
  2  3  2  0
  4  5  1  0
  4  2  1  0
  6  5  1  0
  7  6  1  0
  7  8  1  0
  8  9  1  6
 10  8  1  0
 10 12  1  0
 11 10  2  0
 13 12  1  0
 13 14  1  0
 14 21  1  0
 15 14  2  0
 17 16  1  0
 18 17  2  0
 19 17  1  0
 20 19  1  1
 20 22  1  0
 21 20  1  0
 22 23  2  0
 22 24  1  0
M  END
$$$$
