RGN.pdb
     RDKit          3D

 24 23  0  0  1  0  0  0  0  0999 V2000
   24.9493  -20.7157   -9.1150 N   0  0  0  0  0  0  0  0  0  0  0  0
   26.2290  -20.7431   -9.7660 C   0  0  0  0  0  0  0  0  0  0  0  0
   27.2585  -20.9638   -9.0542 N   0  0  0  0  0  0  0  0  0  0  0  0
   26.3052  -20.5245  -11.1696 N   0  0  0  0  0  0  0  0  0  0  0  0
   25.9689  -21.5467  -12.1312 C   0  0  0  0  0  0  0  0  0  0  0  0
   25.0310  -20.9899  -13.1396 C   0  0  0  0  0  0  0  0  0  0  0  0
   23.6402  -21.5009  -13.1239 C   0  0  0  0  0  0  0  0  0  0  0  0
   22.9494  -21.6074  -14.4382 C   0  0  2  0  0  0  0  0  0  0  0  0
   23.8339  -22.0507  -15.4898 N   0  0  0  0  0  0  0  0  0  0  0  0
   22.5035  -20.2154  -14.8020 C   0  0  0  0  0  0  0  0  0  0  0  0
   22.0815  -19.4377  -13.9328 O   0  0  0  0  0  0  0  0  0  0  0  0
   28.2001  -20.9066   -9.4506 N   0  0  0  0  0  0  0  0  0  0  0  0
   22.5571  -19.7637  -16.1521 C   0  0  0  0  0  0  0  0  0  0  0  0
   23.0629  -18.4827  -16.4941 C   0  0  0  0  0  0  0  0  0  0  0  0
   24.4648  -18.4626  -16.9798 O   0  0  0  0  0  0  0  0  0  0  0  0
   24.8348  -17.5737  -17.8258 N   0  0  0  0  0  0  0  0  0  0  0  0
   27.4884  -18.3927  -13.7705 C   0  0  0  0  0  0  0  0  0  0  0  0
   27.7388  -18.2468  -15.1440 O   0  0  0  0  0  0  0  0  0  0  0  0
   27.8671  -17.0359  -15.5524 C   0  0  0  0  0  0  0  0  0  0  0  0
   27.8720  -19.2805  -16.1540 C   0  0  2  0  0  0  0  0  0  0  0  0
   26.8144  -19.3421  -17.2079 N   0  0  0  0  0  0  0  0  0  0  0  0
   25.4773  -19.3700  -16.5780 C   0  0  0  0  0  0  0  0  0  0  0  0
   26.9205  -20.5142  -18.0820 O   0  0  0  0  0  0  0  0  0  0  0  0
   25.9595  -21.2875  -18.2450 O   0  0  0  0  0  0  0  0  0  0  0  0
  1  2  1  0
  2  3  2  0
  4  5  1  0
  4  2  1  0
  6  5  1  0
  7  6  1  0
  7  8  1  0
  8  9  1  6
 10  8  1  0
 10 12  1  0
 11 10  2  0
 13 12  1  0
 13 14  1  0
 14 21  1  0
 15 14  2  0
 17 16  1  0
 18 17  2  0
 19 17  1  0
 20 19  1  6
 20 22  1  0
 21 20  1  0
 22 23  2  0
 22 24  1  0
M  END
$$$$
