RGN.pdb
     RDKit          3D

 24 23  0  0  1  0  0  0  0  0999 V2000
   27.4180  -21.9090  -15.6901 N   0  0  0  0  0  0  0  0  0  0  0  0
   26.3568  -22.7462  -16.1752 C   0  0  0  0  0  0  0  0  0  0  0  0
   26.6272  -23.9573  -16.4495 N   0  0  0  0  0  0  0  0  0  0  0  0
   25.0520  -22.2017  -16.3327 N   0  0  0  0  0  0  0  0  0  0  0  0
   24.6807  -20.9146  -15.7959 C   0  0  0  0  0  0  0  0  0  0  0  0
   23.2381  -20.6684  -16.0506 C   0  0  0  0  0  0  0  0  0  0  0  0
   22.3349  -20.6669  -14.8759 C   0  0  0  0  0  0  0  0  0  0  0  0
   22.1929  -21.9511  -14.1367 C   0  0  2  0  0  0  0  0  0  0  0  0
   21.6427  -23.0016  -14.9605 N   0  0  0  0  0  0  0  0  0  0  0  0
   21.2023  -21.7013  -13.0300 C   0  0  0  0  0  0  0  0  0  0  0  0
   21.4098  -20.8220  -12.1802 O   0  0  0  0  0  0  0  0  0  0  0  0
   25.9203  -24.5825  -16.8450 N   0  0  0  0  0  0  0  0  0  0  0  0
   20.0064  -22.4701  -12.9366 C   0  0  0  0  0  0  0  0  0  0  0  0
   19.0444  -22.2386  -11.9194 C   0  0  0  0  0  0  0  0  0  0  0  0
   18.7424  -23.4054  -11.0539 O   0  0  0  0  0  0  0  0  0  0  0  0
   18.5273  -24.5533  -11.5819 N   0  0  0  0  0  0  0  0  0  0  0  0
   17.9800  -25.5749   -5.3185 C   0  0  0  0  0  0  0  0  0  0  0  0
   18.6186  -25.5685   -6.5686 O   0  0  0  0  0  0  0  0  0  0  0  0
   19.0577  -26.7082   -6.9658 C   0  0  0  0  0  0  0  0  0  0  0  0
   18.8431  -24.4485   -7.4639 C   0  0  2  0  0  0  0  0  0  0  0  0
   18.3431  -24.5872   -8.8653 N   0  0  0  0  0  0  0  0  0  0  0  0
   18.6686  -23.3700   -9.6385 C   0  0  0  0  0  0  0  0  0  0  0  0
   16.8955  -24.8001   -8.9566 O   0  0  0  0  0  0  0  0  0  0  0  0
   16.1074  -23.8433   -9.0643 O   0  0  0  0  0  0  0  0  0  0  0  0
  1  2  1  0
  2  3  2  0
  4  5  1  0
  4  2  1  0
  6  5  1  0
  7  6  1  0
  7  8  1  0
  8  9  1  6
 10  8  1  0
 10 12  1  0
 11 10  2  0
 13 12  1  0
 13 14  1  0
 14 21  1  0
 15 14  2  0
 17 16  1  0
 18 17  2  0
 19 17  1  0
 20 19  1  6
 20 22  1  0
 21 20  1  0
 22 23  2  0
 22 24  1  0
M  END
$$$$
