RGN.pdb
     RDKit          3D

 24 23  0  0  1  0  0  0  0  0999 V2000
   16.8545  -24.5158   -7.0771 N   0  0  0  0  0  0  0  0  0  0  0  0
   17.7150  -25.5637   -7.5503 C   0  0  0  0  0  0  0  0  0  0  0  0
   17.4330  -26.7607   -7.2299 N   0  0  0  0  0  0  0  0  0  0  0  0
   18.8430  -25.2346   -8.3523 N   0  0  0  0  0  0  0  0  0  0  0  0
   18.8399  -24.1235   -9.2732 C   0  0  0  0  0  0  0  0  0  0  0  0
   18.0187  -24.4671  -10.4623 C   0  0  0  0  0  0  0  0  0  0  0  0
   17.9268  -23.4509  -11.5368 C   0  0  0  0  0  0  0  0  0  0  0  0
   18.9627  -23.5073  -12.6044 C   0  0  2  0  0  0  0  0  0  0  0  0
   20.0344  -24.4200  -12.2829 N   0  0  0  0  0  0  0  0  0  0  0  0
   19.5713  -22.1318  -12.6841 C   0  0  0  0  0  0  0  0  0  0  0  0
   18.8762  -21.1473  -12.9774 O   0  0  0  0  0  0  0  0  0  0  0  0
   18.0361  -27.5401   -7.5055 N   0  0  0  0  0  0  0  0  0  0  0  0
   20.9580  -21.9335  -12.4242 C   0  0  0  0  0  0  0  0  0  0  0  0
   21.5972  -20.6917  -12.6754 C   0  0  0  0  0  0  0  0  0  0  0  0
   22.3795  -20.6235  -13.9344 O   0  0  0  0  0  0  0  0  0  0  0  0
   22.9734  -19.5351  -14.2590 N   0  0  0  0  0  0  0  0  0  0  0  0
   25.7010  -23.6534  -13.9938 C   0  0  0  0  0  0  0  0  0  0  0  0
   25.4359  -22.6663  -14.9561 O   0  0  0  0  0  0  0  0  0  0  0  0
   26.1777  -21.6202  -14.8871 C   0  0  0  0  0  0  0  0  0  0  0  0
   24.4403  -22.6768  -16.0120 C   0  0  2  0  0  0  0  0  0  0  0  0
   23.4411  -21.5656  -16.0156 N   0  0  0  0  0  0  0  0  0  0  0  0
   22.5414  -21.6941  -14.8497 C   0  0  0  0  0  0  0  0  0  0  0  0
   22.6070  -21.5265  -17.2206 O   0  0  0  0  0  0  0  0  0  0  0  0
   23.1140  -21.4993  -18.3566 O   0  0  0  0  0  0  0  0  0  0  0  0
  1  2  1  0
  2  3  2  0
  4  5  1  0
  4  2  1  0
  6  5  1  0
  7  6  1  0
  7  8  1  0
  8  9  1  1
 10  8  1  0
 10 12  1  0
 11 10  2  0
 13 12  1  0
 13 14  1  0
 14 21  1  0
 15 14  2  0
 17 16  1  0
 18 17  2  0
 19 17  1  0
 20 19  1  1
 20 22  1  0
 21 20  1  0
 22 23  2  0
 22 24  1  0
M  END
$$$$
