RGN.pdb
     RDKit          3D

 24 23  0  0  1  0  0  0  0  0999 V2000
   24.5247  -21.1346  -11.2522 N   0  0  0  0  0  0  0  0  0  0  0  0
   25.5218  -20.9592  -10.2338 C   0  0  0  0  0  0  0  0  0  0  0  0
   25.1370  -20.6210   -9.0708 N   0  0  0  0  0  0  0  0  0  0  0  0
   26.8926  -21.1658  -10.5532 N   0  0  0  0  0  0  0  0  0  0  0  0
   27.4380  -20.8629  -11.8545 C   0  0  0  0  0  0  0  0  0  0  0  0
   26.6031  -21.5026  -12.9035 C   0  0  0  0  0  0  0  0  0  0  0  0
   26.9997  -21.2779  -14.3134 C   0  0  0  0  0  0  0  0  0  0  0  0
   27.5686  -19.9432  -14.6461 C   0  0  2  0  0  0  0  0  0  0  0  0
   27.9238  -19.1878  -13.4680 N   0  0  0  0  0  0  0  0  0  0  0  0
   26.4776  -19.1742  -15.3440 C   0  0  0  0  0  0  0  0  0  0  0  0
   26.0386  -19.5514  -16.4411 O   0  0  0  0  0  0  0  0  0  0  0  0
   25.8063  -20.4850   -8.3088 N   0  0  0  0  0  0  0  0  0  0  0  0
   25.9276  -17.9977  -14.7583 C   0  0  0  0  0  0  0  0  0  0  0  0
   24.9026  -17.2520  -15.3963 C   0  0  0  0  0  0  0  0  0  0  0  0
   23.5423  -17.8380  -15.3080 O   0  0  0  0  0  0  0  0  0  0  0  0
   23.2208  -18.5557  -14.2959 N   0  0  0  0  0  0  0  0  0  0  0  0
   20.3069  -18.1595  -19.5172 C   0  0  0  0  0  0  0  0  0  0  0  0
   20.6836  -17.4257  -18.3814 O   0  0  0  0  0  0  0  0  0  0  0  0
   21.5672  -16.5161  -18.5845 C   0  0  0  0  0  0  0  0  0  0  0  0
   20.2052  -17.5605  -17.0178 C   0  0  1  0  0  0  0  0  0  0  0  0
   21.1475  -18.1555  -16.0222 N   0  0  0  0  0  0  0  0  0  0  0  0
   22.5205  -17.6702  -16.2764 C   0  0  0  0  0  0  0  0  0  0  0  0
   21.1808  -19.6209  -16.0444 O   0  0  0  0  0  0  0  0  0  0  0  0
   20.2002  -20.2950  -15.6809 O   0  0  0  0  0  0  0  0  0  0  0  0
  1  2  1  0
  2  3  2  0
  4  5  1  0
  4  2  1  0
  6  5  1  0
  7  6  1  0
  7  8  1  0
  8  9  1  1
 10  8  1  0
 10 12  1  0
 11 10  2  0
 13 12  1  0
 13 14  1  0
 14 21  1  0
 15 14  2  0
 17 16  1  0
 18 17  2  0
 19 17  1  0
 20 19  1  1
 20 22  1  0
 21 20  1  0
 22 23  2  0
 22 24  1  0
M  END
$$$$
