RGN.pdb
     RDKit          3D

 24 23  0  0  1  0  0  0  0  0999 V2000
   31.7980  -22.0344  -10.0269 N   0  0  0  0  0  0  0  0  0  0  0  0
   32.0694  -22.6129  -11.3130 C   0  0  0  0  0  0  0  0  0  0  0  0
   33.1384  -23.2856  -11.4537 N   0  0  0  0  0  0  0  0  0  0  0  0
   31.1459  -22.4175  -12.3774 N   0  0  0  0  0  0  0  0  0  0  0  0
   30.4469  -21.1707  -12.5763 C   0  0  0  0  0  0  0  0  0  0  0  0
   29.6789  -20.8317  -11.3508 C   0  0  0  0  0  0  0  0  0  0  0  0
   28.2791  -20.3812  -11.5334 C   0  0  0  0  0  0  0  0  0  0  0  0
   27.2641  -21.4363  -11.8025 C   0  0  2  0  0  0  0  0  0  0  0  0
   27.2694  -21.8654  -13.1812 N   0  0  0  0  0  0  0  0  0  0  0  0
   25.9179  -20.8113  -11.5460 C   0  0  0  0  0  0  0  0  0  0  0  0
   25.7649  -19.9898  -10.6294 O   0  0  0  0  0  0  0  0  0  0  0  0
   33.3680  -23.7378  -12.3424 N   0  0  0  0  0  0  0  0  0  0  0  0
   24.7927  -21.1510  -12.3512 C   0  0  0  0  0  0  0  0  0  0  0  0
   23.5636  -20.4480  -12.2559 C   0  0  0  0  0  0  0  0  0  0  0  0
   22.5213  -20.8569  -13.2294 O   0  0  0  0  0  0  0  0  0  0  0  0
   22.8064  -20.9310  -14.4768 N   0  0  0  0  0  0  0  0  0  0  0  0
   17.8804  -22.5048  -15.6117 C   0  0  0  0  0  0  0  0  0  0  0  0
   17.8892  -22.4868  -14.2081 O   0  0  0  0  0  0  0  0  0  0  0  0
   16.8250  -22.9369  -13.6473 C   0  0  0  0  0  0  0  0  0  0  0  0
   18.9388  -22.0300  -13.3159 C   0  0  2  0  0  0  0  0  0  0  0  0
   20.2127  -21.5672  -13.9452 N   0  0  0  0  0  0  0  0  0  0  0  0
   21.1840  -21.1901  -12.8965 C   0  0  0  0  0  0  0  0  0  0  0  0
   20.0460  -20.4139  -14.8346 O   0  0  0  0  0  0  0  0  0  0  0  0
   19.7129  -20.5586  -16.0246 O   0  0  0  0  0  0  0  0  0  0  0  0
  1  2  1  0
  2  3  2  0
  4  5  1  0
  4  2  1  0
  6  5  1  0
  7  6  1  0
  7  8  1  0
  8  9  1  6
 10  8  1  0
 10 12  1  0
 11 10  2  0
 13 12  1  0
 13 14  1  0
 14 21  1  0
 15 14  2  0
 17 16  1  0
 18 17  2  0
 19 17  1  0
 20 19  1  1
 20 22  1  0
 21 20  1  0
 22 23  2  0
 22 24  1  0
M  END
$$$$
