RGN.pdb
     RDKit          3D

 24 23  0  0  1  0  0  0  0  0999 V2000
   16.2403  -21.1755    3.2708 N   0  0  0  0  0  0  0  0  0  0  0  0
   16.1089  -20.3994    2.0697 C   0  0  0  0  0  0  0  0  0  0  0  0
   15.8770  -21.0140    0.9818 N   0  0  0  0  0  0  0  0  0  0  0  0
   16.2412  -18.9843    2.1327 N   0  0  0  0  0  0  0  0  0  0  0  0
   17.0636  -18.3273    3.1199 C   0  0  0  0  0  0  0  0  0  0  0  0
   16.2936  -17.2264    3.7537 C   0  0  0  0  0  0  0  0  0  0  0  0
   17.0213  -16.3521    4.7033 C   0  0  0  0  0  0  0  0  0  0  0  0
   16.2446  -15.2461    5.3275 C   0  0  2  0  0  0  0  0  0  0  0  0
   14.9307  -15.1009    4.7466 N   0  0  0  0  0  0  0  0  0  0  0  0
   16.9952  -13.9745    5.0304 C   0  0  0  0  0  0  0  0  0  0  0  0
   16.6528  -13.2414    4.0903 O   0  0  0  0  0  0  0  0  0  0  0  0
   15.7927  -20.5103    0.0951 N   0  0  0  0  0  0  0  0  0  0  0  0
   18.1141  -13.5879    5.8230 C   0  0  0  0  0  0  0  0  0  0  0  0
   18.7329  -12.3191    5.6774 C   0  0  0  0  0  0  0  0  0  0  0  0
   19.8291  -12.0337    6.6357 O   0  0  0  0  0  0  0  0  0  0  0  0
   20.0923  -12.8685    7.5719 N   0  0  0  0  0  0  0  0  0  0  0  0
   24.1117   -9.8442    9.2477 C   0  0  0  0  0  0  0  0  0  0  0  0
   23.7442   -9.2463    8.0320 O   0  0  0  0  0  0  0  0  0  0  0  0
   24.4909   -8.2730    7.6519 C   0  0  0  0  0  0  0  0  0  0  0  0
   22.6385   -9.5852    7.1551 C   0  0  1  0  0  0  0  0  0  0  0  0
   21.7506  -10.7084    7.5831 N   0  0  0  0  0  0  0  0  0  0  0  0
   20.6493  -10.8775    6.6115 C   0  0  0  0  0  0  0  0  0  0  0  0
   21.1517  -10.5150    8.9072 O   0  0  0  0  0  0  0  0  0  0  0  0
   21.7683  -10.8158    9.9452 O   0  0  0  0  0  0  0  0  0  0  0  0
  1  2  1  0
  2  3  2  0
  4  5  1  0
  4  2  1  0
  6  5  1  0
  7  6  1  0
  7  8  1  0
  8  9  1  6
 10  8  1  0
 10 12  1  0
 11 10  2  0
 13 12  1  0
 13 14  1  0
 14 21  1  0
 15 14  2  0
 17 16  1  0
 18 17  2  0
 19 17  1  0
 20 19  1  6
 20 22  1  0
 21 20  1  0
 22 23  2  0
 22 24  1  0
M  END
$$$$
