RGN.pdb
     RDKit          3D

 24 23  0  0  1  0  0  0  0  0999 V2000
   24.2093  -19.3500  -18.8000 N   0  0  0  0  0  0  0  0  0  0  0  0
   23.1098  -19.7398  -17.9624 C   0  0  0  0  0  0  0  0  0  0  0  0
   22.6174  -20.9005  -18.1221 N   0  0  0  0  0  0  0  0  0  0  0  0
   22.6107  -18.8267  -16.9923 N   0  0  0  0  0  0  0  0  0  0  0  0
   21.4407  -19.1074  -16.1955 C   0  0  0  0  0  0  0  0  0  0  0  0
   21.7731  -20.1275  -15.1683 C   0  0  0  0  0  0  0  0  0  0  0  0
   20.6869  -20.5397  -14.2486 C   0  0  0  0  0  0  0  0  0  0  0  0
   20.8663  -20.2110  -12.8079 C   0  0  2  0  0  0  0  0  0  0  0  0
   21.9937  -20.8984  -12.2235 N   0  0  0  0  0  0  0  0  0  0  0  0
   19.6356  -20.7108  -12.0978 C   0  0  0  0  0  0  0  0  0  0  0  0
   18.5117  -20.2809  -12.3988 O   0  0  0  0  0  0  0  0  0  0  0  0
   21.8344  -21.2281  -17.5506 N   0  0  0  0  0  0  0  0  0  0  0  0
   19.7373  -21.6875  -11.0656 C   0  0  0  0  0  0  0  0  0  0  0  0
   18.6013  -22.1331  -10.3413 C   0  0  0  0  0  0  0  0  0  0  0  0
   18.8441  -23.2652   -9.4133 O   0  0  0  0  0  0  0  0  0  0  0  0
   19.9480  -23.9136   -9.4722 N   0  0  0  0  0  0  0  0  0  0  0  0
   16.9428  -26.4063   -4.4331 C   0  0  0  0  0  0  0  0  0  0  0  0
   17.8786  -25.7278   -5.2295 O   0  0  0  0  0  0  0  0  0  0  0  0
   19.1012  -26.0840   -5.0627 C   0  0  0  0  0  0  0  0  0  0  0  0
   17.6439  -24.6848   -6.2110 C   0  0  2  0  0  0  0  0  0  0  0  0
   18.2614  -24.8682   -7.5594 N   0  0  0  0  0  0  0  0  0  0  0  0
   17.9333  -23.7150   -8.4242 C   0  0  0  0  0  0  0  0  0  0  0  0
   17.8196  -26.0836   -8.2499 O   0  0  0  0  0  0  0  0  0  0  0  0
   18.3005  -27.1965   -7.9700 O   0  0  0  0  0  0  0  0  0  0  0  0
  1  2  1  0
  2  3  2  0
  4  5  1  0
  4  2  1  0
  6  5  1  0
  7  6  1  0
  7  8  1  0
  8  9  1  1
 10  8  1  0
 10 12  1  0
 11 10  2  0
 13 12  1  0
 13 14  1  0
 14 21  1  0
 15 14  2  0
 17 16  1  0
 18 17  2  0
 19 17  1  0
 20 19  1  1
 20 22  1  0
 21 20  1  0
 22 23  2  0
 22 24  1  0
M  END
$$$$
