RGN.pdb
     RDKit          3D

 24 23  0  0  1  0  0  0  0  0999 V2000
   26.9619  -21.6641  -10.6781 N   0  0  0  0  0  0  0  0  0  0  0  0
   25.5620  -21.5050  -10.4000 C   0  0  0  0  0  0  0  0  0  0  0  0
   25.1730  -21.6264   -9.1962 N   0  0  0  0  0  0  0  0  0  0  0  0
   24.6643  -21.2207  -11.4664 N   0  0  0  0  0  0  0  0  0  0  0  0
   25.0818  -21.2127  -12.8478 C   0  0  0  0  0  0  0  0  0  0  0  0
   23.9399  -20.8111  -13.7087 C   0  0  0  0  0  0  0  0  0  0  0  0
   24.2041  -20.6706  -15.1599 C   0  0  0  0  0  0  0  0  0  0  0  0
   25.1030  -19.5585  -15.5740 C   0  0  2  0  0  0  0  0  0  0  0  0
   25.3518  -18.6244  -14.5014 N   0  0  0  0  0  0  0  0  0  0  0  0
   24.3764  -18.7994  -16.6530 C   0  0  0  0  0  0  0  0  0  0  0  0
   24.1704  -19.3154  -17.7620 O   0  0  0  0  0  0  0  0  0  0  0  0
   24.1823  -21.5590   -8.9492 N   0  0  0  0  0  0  0  0  0  0  0  0
   23.9110  -17.4728  -16.4220 C   0  0  0  0  0  0  0  0  0  0  0  0
   23.2044  -16.7434  -17.4132 C   0  0  0  0  0  0  0  0  0  0  0  0
   22.6442  -15.4440  -16.9666 O   0  0  0  0  0  0  0  0  0  0  0  0
   21.8399  -15.4044  -15.9694 N   0  0  0  0  0  0  0  0  0  0  0  0
   25.8289  -12.4798  -16.3041 C   0  0  0  0  0  0  0  0  0  0  0  0
   24.4974  -12.1588  -15.9967 O   0  0  0  0  0  0  0  0  0  0  0  0
   24.2248  -12.0920  -14.7435 C   0  0  0  0  0  0  0  0  0  0  0  0
   23.3980  -11.8929  -16.9061 C   0  0  2  0  0  0  0  0  0  0  0  0
   22.3419  -12.9437  -17.0220 N   0  0  0  0  0  0  0  0  0  0  0  0
   22.9281  -14.1889  -17.5616 C   0  0  0  0  0  0  0  0  0  0  0  0
   21.2244  -12.5633  -17.8914 O   0  0  0  0  0  0  0  0  0  0  0  0
   20.4332  -11.6592  -17.5681 O   0  0  0  0  0  0  0  0  0  0  0  0
  1  2  1  0
  2  3  2  0
  4  5  1  0
  4  2  1  0
  6  5  1  0
  7  6  1  0
  7  8  1  0
  8  9  1  1
 10  8  1  0
 10 12  1  0
 11 10  2  0
 13 12  1  0
 13 14  1  0
 14 21  1  0
 15 14  2  0
 17 16  1  0
 18 17  2  0
 19 17  1  0
 20 19  1  1
 20 22  1  0
 21 20  1  0
 22 23  2  0
 22 24  1  0
M  END
$$$$
