RGN.pdb
     RDKit          3D

 24 23  0  0  1  0  0  0  0  0999 V2000
   29.0761  -18.2971  -19.8247 N   0  0  0  0  0  0  0  0  0  0  0  0
   28.4756  -18.1005  -21.1144 C   0  0  0  0  0  0  0  0  0  0  0  0
   29.2406  -18.0301  -22.1267 N   0  0  0  0  0  0  0  0  0  0  0  0
   27.0611  -17.9912  -21.2186 N   0  0  0  0  0  0  0  0  0  0  0  0
   26.1810  -18.2462  -20.1036 C   0  0  0  0  0  0  0  0  0  0  0  0
   26.7095  -17.5717  -18.8903 C   0  0  0  0  0  0  0  0  0  0  0  0
   25.9804  -17.7969  -17.6201 C   0  0  0  0  0  0  0  0  0  0  0  0
   24.8052  -18.7091  -17.6732 C   0  0  2  0  0  0  0  0  0  0  0  0
   23.5746  -18.0048  -17.9461 N   0  0  0  0  0  0  0  0  0  0  0  0
   24.6673  -19.3108  -16.2993 C   0  0  0  0  0  0  0  0  0  0  0  0
   25.6639  -19.4902  -15.5831 O   0  0  0  0  0  0  0  0  0  0  0  0
   28.8734  -17.8048  -23.0549 N   0  0  0  0  0  0  0  0  0  0  0  0
   23.3891  -19.6864  -15.7945 C   0  0  0  0  0  0  0  0  0  0  0  0
   23.2132  -20.1364  -14.4602 C   0  0  0  0  0  0  0  0  0  0  0  0
   21.8124  -20.4285  -14.0681 O   0  0  0  0  0  0  0  0  0  0  0  0
   20.8454  -20.0257  -14.8067 N   0  0  0  0  0  0  0  0  0  0  0  0
   17.3345  -22.5232  -11.7483 C   0  0  0  0  0  0  0  0  0  0  0  0
   18.5580  -22.8382  -11.1365 O   0  0  0  0  0  0  0  0  0  0  0  0
   18.4881  -23.6885  -10.1765 C   0  0  0  0  0  0  0  0  0  0  0  0
   19.8819  -22.3316  -11.4479 C   0  0  2  0  0  0  0  0  0  0  0  0
   20.0006  -21.4156  -12.6226 N   0  0  0  0  0  0  0  0  0  0  0  0
   21.4257  -21.1434  -12.9064 C   0  0  0  0  0  0  0  0  0  0  0  0
   19.3287  -20.1262  -12.4353 O   0  0  0  0  0  0  0  0  0  0  0  0
   19.8962  -19.1794  -11.8613 O   0  0  0  0  0  0  0  0  0  0  0  0
  1  2  1  0
  2  3  2  0
  4  5  1  0
  4  2  1  0
  6  5  1  0
  7  6  1  0
  7  8  1  0
  8  9  1  1
 10  8  1  0
 10 12  1  0
 11 10  2  0
 13 12  1  0
 13 14  1  0
 14 21  1  0
 15 14  2  0
 17 16  1  0
 18 17  2  0
 19 17  1  0
 20 19  1  6
 20 22  1  0
 21 20  1  0
 22 23  2  0
 22 24  1  0
M  END
$$$$
