VNK.pdb
     RDKit          3D

 25 24  0  0  1  0  0  0  0  0999 V2000
   26.9375  -14.4209  -16.9191 C   0  0  0  0  0  0  0  0  0  0  0  0
   27.1783  -15.8392  -17.3528 C   0  0  1  0  0  0  0  0  0  0  0  0
   27.7118  -16.6506  -16.2129 C   0  0  0  0  0  0  0  0  0  0  0  0
   25.8863  -16.3924  -17.9127 C   0  0  2  0  0  0  0  0  0  0  0  0
   24.8063  -15.6346  -17.3089 N   0  0  0  0  0  0  0  0  0  0  0  0
   25.7196  -17.8212  -17.5743 C   0  0  0  0  0  0  0  0  0  0  0  0
   26.3623  -18.6883  -18.1907 O   0  0  0  0  0  0  0  0  0  0  0  0
   24.6470  -22.2572  -15.3857 N   0  0  0  0  0  0  0  0  0  0  0  0
   25.8626  -21.5430  -15.1503 C   0  0  0  0  0  0  0  0  0  0  0  0
   26.7840  -22.1896  -14.5964 O   0  0  0  0  0  0  0  0  0  0  0  0
   26.0013  -20.1383  -15.5415 C   0  0  0  0  0  0  0  0  0  0  0  0
   24.7223  -19.5651  -16.0585 C   0  0  2  0  0  0  0  0  0  0  0  0
   24.8241  -18.2202  -16.5416 N   0  0  0  0  0  0  0  0  0  0  0  0
   23.7448  -19.5676  -14.9131 C   0  0  0  0  0  0  0  0  0  0  0  0
   24.1150  -19.2748  -13.7346 O   0  0  0  0  0  0  0  0  0  0  0  0
   22.3761  -19.8939  -15.0931 N   0  0  0  0  0  0  0  0  0  0  0  0
   21.4051  -19.7328  -13.9958 C   0  0  1  0  0  0  0  0  0  0  0  0
   20.2389  -18.9928  -14.5792 C   0  0  0  0  0  0  0  0  0  0  0  0
   19.4572  -19.7546  -15.5971 C   0  0  0  0  0  0  0  0  0  0  0  0
   18.4601  -18.8274  -16.2505 C   0  0  0  0  0  0  0  0  0  0  0  0
   17.7069  -19.6602  -17.2713 C   0  0  0  0  0  0  0  0  0  0  0  0
   16.7074  -18.8307  -17.9162 N   0  0  0  0  0  0  0  0  0  0  0  0
   20.9650  -21.1038  -13.6313 C   0  0  0  0  0  0  0  0  0  0  0  0
   20.2617  -21.3863  -12.4496 O   0  0  0  0  0  0  0  0  0  0  0  0
   21.1949  -22.1118  -14.3633 O   0  0  0  0  0  0  0  0  0  0  0  0
  2  1  1  1
  2  4  1  0
  2  3  1  0
  4  5  1  1
  4  6  1  0
  6  7  2  0
  9  8  1  0
 10  9  2  0
 12 11  1  1
 11  9  1  0
 13  6  1  0
 13 12  1  0
 14 12  1  0
 14 15  2  0
 16 14  1  0
 17 23  1  0
 17 16  1  0
 17 18  1  6
 19 18  1  0
 20 19  1  0
 21 20  1  0
 21 22  1  0
 23 24  1  0
 25 23  2  0
M  END
$$$$
