VNK.pdb
     RDKit          3D

 25 24  0  0  1  0  0  0  0  0999 V2000
   24.1493  -14.1704  -16.1925 C   0  0  0  0  0  0  0  0  0  0  0  0
   23.0373  -13.1690  -16.0563 C   0  0  1  0  0  0  0  0  0  0  0  0
   22.3379  -13.3404  -14.7433 C   0  0  0  0  0  0  0  0  0  0  0  0
   23.6188  -11.7838  -16.2350 C   0  0  2  0  0  0  0  0  0  0  0  0
   24.5559  -11.5761  -15.1469 N   0  0  0  0  0  0  0  0  0  0  0  0
   22.5691  -10.7456  -16.1709 C   0  0  0  0  0  0  0  0  0  0  0  0
   21.7272  -10.6515  -17.0803 O   0  0  0  0  0  0  0  0  0  0  0  0
   19.3346   -9.8902  -13.5980 N   0  0  0  0  0  0  0  0  0  0  0  0
   20.1282   -8.9193  -12.9120 C   0  0  0  0  0  0  0  0  0  0  0  0
   19.7487   -8.6135  -11.7560 O   0  0  0  0  0  0  0  0  0  0  0  0
   21.3116   -8.3294  -13.5422 C   0  0  0  0  0  0  0  0  0  0  0  0
   21.5151   -8.8215  -14.9379 C   0  0  2  0  0  0  0  0  0  0  0  0
   22.5099   -9.8439  -15.0704 N   0  0  0  0  0  0  0  0  0  0  0  0
   21.9597   -7.6407  -15.7599 C   0  0  0  0  0  0  0  0  0  0  0  0
   23.1486   -7.2016  -15.6872 O   0  0  0  0  0  0  0  0  0  0  0  0
   21.0805   -6.9680  -16.6468 N   0  0  0  0  0  0  0  0  0  0  0  0
   21.5687   -5.8983  -17.5359 C   0  0  1  0  0  0  0  0  0  0  0  0
   21.0285   -6.2129  -18.8987 C   0  0  0  0  0  0  0  0  0  0  0  0
   21.3010   -5.1761  -19.9371 C   0  0  0  0  0  0  0  0  0  0  0  0
   20.6757   -5.6072  -21.2425 C   0  0  0  0  0  0  0  0  0  0  0  0
   21.0067   -4.5248  -22.2533 C   0  0  0  0  0  0  0  0  0  0  0  0
   20.4841   -4.9103  -23.5499 N   0  0  0  0  0  0  0  0  0  0  0  0
   20.9396   -4.6426  -17.0526 C   0  0  0  0  0  0  0  0  0  0  0  0
   21.4799   -3.3734  -17.3139 O   0  0  0  0  0  0  0  0  0  0  0  0
   19.8718   -4.6322  -16.3711 O   0  0  0  0  0  0  0  0  0  0  0  0
  2  1  1  1
  2  4  1  0
  2  3  1  0
  4  5  1  1
  4  6  1  0
  6  7  2  0
  9  8  1  0
 10  9  2  0
 12 11  1  1
 11  9  1  0
 13  6  1  0
 13 12  1  0
 14 12  1  0
 14 15  2  0
 16 14  1  0
 17 23  1  0
 17 16  1  0
 17 18  1  6
 19 18  1  0
 20 19  1  0
 21 20  1  0
 21 22  1  0
 23 24  1  0
 25 23  2  0
M  END
$$$$
