VNK.pdb
     RDKit          3D

 25 24  0  0  1  0  0  0  0  0999 V2000
   12.1543   -8.8018  -10.5740 C   0  0  0  0  0  0  0  0  0  0  0  0
   13.0012   -9.8886   -9.9745 C   0  0  1  0  0  0  0  0  0  0  0  0
   12.1980  -11.1403   -9.7997 C   0  0  0  0  0  0  0  0  0  0  0  0
   14.2146  -10.0883  -10.8558 C   0  0  2  0  0  0  0  0  0  0  0  0
   15.0913  -11.0140  -10.1631 N   0  0  0  0  0  0  0  0  0  0  0  0
   14.9353   -8.8174  -11.0777 C   0  0  0  0  0  0  0  0  0  0  0  0
   14.4310   -7.9285  -11.7850 O   0  0  0  0  0  0  0  0  0  0  0  0
   15.2320   -5.4330   -9.8416 N   0  0  0  0  0  0  0  0  0  0  0  0
   16.3699   -5.7151   -9.0240 C   0  0  0  0  0  0  0  0  0  0  0  0
   16.4459   -5.0786   -7.9456 O   0  0  0  0  0  0  0  0  0  0  0  0
   17.3759   -6.6945   -9.4415 C   0  0  0  0  0  0  0  0  0  0  0  0
   16.9855   -7.4092  -10.6938 C   0  0  2  0  0  0  0  0  0  0  0  0
   16.2116   -8.5967  -10.4858 N   0  0  0  0  0  0  0  0  0  0  0  0
   18.2608   -7.8093  -11.3874 C   0  0  0  0  0  0  0  0  0  0  0  0
   18.9958   -8.7353  -10.9250 O   0  0  0  0  0  0  0  0  0  0  0  0
   18.6988   -7.1774  -12.5795 N   0  0  0  0  0  0  0  0  0  0  0  0
   19.9336   -7.6086  -13.2594 C   0  0  1  0  0  0  0  0  0  0  0  0
   19.5027   -8.1884  -14.5733 C   0  0  0  0  0  0  0  0  0  0  0  0
   20.6157   -8.6742  -15.4408 C   0  0  0  0  0  0  0  0  0  0  0  0
   20.0370   -9.2544  -16.7093 C   0  0  0  0  0  0  0  0  0  0  0  0
   21.2041   -9.8383  -17.4838 C   0  0  0  0  0  0  0  0  0  0  0  0
   20.6961  -10.5670  -18.6301 N   0  0  0  0  0  0  0  0  0  0  0  0
   20.7142   -6.3717  -13.5180 C   0  0  0  0  0  0  0  0  0  0  0  0
   22.1107   -6.3718  -13.6627 O   0  0  0  0  0  0  0  0  0  0  0  0
   20.1718   -5.2320  -13.6255 O   0  0  0  0  0  0  0  0  0  0  0  0
  2  1  1  6
  2  4  1  0
  2  3  1  0
  4  5  1  1
  4  6  1  0
  6  7  2  0
  9  8  1  0
 10  9  2  0
 12 11  1  1
 11  9  1  0
 13  6  1  0
 13 12  1  0
 14 12  1  0
 14 15  2  0
 16 14  1  0
 17 23  1  0
 17 16  1  0
 17 18  1  6
 19 18  1  0
 20 19  1  0
 21 20  1  0
 21 22  1  0
 23 24  1  0
 25 23  2  0
M  END
$$$$
