VNK.pdb
     RDKit          3D

 25 24  0  0  1  0  0  0  0  0999 V2000
   23.5070  -20.4597  -15.9135 C   0  0  0  0  0  0  0  0  0  0  0  0
   22.1665  -19.7808  -15.9206 C   0  0  1  0  0  0  0  0  0  0  0  0
   21.5035  -19.9200  -14.5851 C   0  0  0  0  0  0  0  0  0  0  0  0
   22.3652  -18.3378  -16.3295 C   0  0  2  0  0  0  0  0  0  0  0  0
   23.2914  -17.7534  -15.3776 N   0  0  0  0  0  0  0  0  0  0  0  0
   21.0940  -17.5854  -16.2883 C   0  0  0  0  0  0  0  0  0  0  0  0
   20.1595  -17.8959  -17.0466 O   0  0  0  0  0  0  0  0  0  0  0  0
   17.9792  -17.9305  -14.9411 N   0  0  0  0  0  0  0  0  0  0  0  0
   18.1623  -17.0655  -13.8180 C   0  0  0  0  0  0  0  0  0  0  0  0
   17.5189  -17.3619  -12.7826 O   0  0  0  0  0  0  0  0  0  0  0  0
   19.0544  -15.9064  -13.8949 C   0  0  0  0  0  0  0  0  0  0  0  0
   19.6982  -15.7747  -15.2364 C   0  0  2  0  0  0  0  0  0  0  0  0
   20.9252  -16.4997  -15.3826 N   0  0  0  0  0  0  0  0  0  0  0  0
   20.0029  -14.3136  -15.4363 C   0  0  0  0  0  0  0  0  0  0  0  0
   20.9801  -13.7607  -14.8439 O   0  0  0  0  0  0  0  0  0  0  0  0
   19.2207  -13.4918  -16.2878 N   0  0  0  0  0  0  0  0  0  0  0  0
   19.6066  -12.0959  -16.5621 C   0  0  1  0  0  0  0  0  0  0  0  0
   18.9372  -11.7263  -17.8518 C   0  0  0  0  0  0  0  0  0  0  0  0
   19.1037  -10.3003  -18.2598 C   0  0  0  0  0  0  0  0  0  0  0  0
   18.3871  -10.0738  -19.5697 C   0  0  0  0  0  0  0  0  0  0  0  0
   18.6577   -8.6330  -19.9617 C   0  0  0  0  0  0  0  0  0  0  0  0
   17.9024   -8.3167  -21.1585 N   0  0  0  0  0  0  0  0  0  0  0  0
   19.0151  -11.2831  -15.4686 C   0  0  0  0  0  0  0  0  0  0  0  0
   19.6106  -10.1048  -14.9912 O   0  0  0  0  0  0  0  0  0  0  0  0
   17.9320  -11.5988  -14.8924 O   0  0  0  0  0  0  0  0  0  0  0  0
  2  1  1  1
  2  4  1  0
  2  3  1  0
  4  5  1  1
  4  6  1  0
  6  7  2  0
  9  8  1  0
 10  9  2  0
 12 11  1  1
 11  9  1  0
 13  6  1  0
 13 12  1  0
 14 12  1  0
 14 15  2  0
 16 14  1  0
 17 23  1  0
 17 16  1  0
 17 18  1  6
 19 18  1  0
 20 19  1  0
 21 20  1  0
 21 22  1  0
 23 24  1  0
 25 23  2  0
M  END
$$$$
