VNK.pdb
     RDKit          3D

 25 24  0  0  1  0  0  0  0  0999 V2000
   18.4754  -11.1329  -17.2279 C   0  0  0  0  0  0  0  0  0  0  0  0
   18.8521  -10.7453  -15.8259 C   0  0  1  0  0  0  0  0  0  0  0  0
   20.1406   -9.9823  -15.8232 C   0  0  0  0  0  0  0  0  0  0  0  0
   17.7058   -9.9630  -15.2234 C   0  0  2  0  0  0  0  0  0  0  0  0
   17.4817   -8.8146  -16.0814 N   0  0  0  0  0  0  0  0  0  0  0  0
   18.0321   -9.4901  -13.8618 C   0  0  0  0  0  0  0  0  0  0  0  0
   18.1555  -10.3041  -12.9307 O   0  0  0  0  0  0  0  0  0  0  0  0
   21.1816   -8.3943  -12.7198 N   0  0  0  0  0  0  0  0  0  0  0  0
   20.9400   -6.9975  -12.5363 C   0  0  0  0  0  0  0  0  0  0  0  0
   21.9524   -6.2566  -12.5454 O   0  0  0  0  0  0  0  0  0  0  0  0
   19.5809   -6.4840  -12.3503 C   0  0  0  0  0  0  0  0  0  0  0  0
   18.5622   -7.5760  -12.3164 C   0  0  2  0  0  0  0  0  0  0  0  0
   18.2085   -8.1013  -13.6014 N   0  0  0  0  0  0  0  0  0  0  0  0
   17.3166   -6.9962  -11.6999 C   0  0  0  0  0  0  0  0  0  0  0  0
   16.6145   -6.1408  -12.3219 O   0  0  0  0  0  0  0  0  0  0  0  0
   16.8714   -7.3738  -10.4071 N   0  0  0  0  0  0  0  0  0  0  0  0
   15.7060   -6.7214   -9.7834 C   0  0  1  0  0  0  0  0  0  0  0  0
   14.8756   -7.8252   -9.2003 C   0  0  0  0  0  0  0  0  0  0  0  0
   13.6285   -7.3774   -8.5135 C   0  0  0  0  0  0  0  0  0  0  0  0
   12.8805   -8.5880   -8.0076 C   0  0  0  0  0  0  0  0  0  0  0  0
   11.5987   -8.0685   -7.3831 C   0  0  0  0  0  0  0  0  0  0  0  0
   10.7920   -9.1930   -6.9500 N   0  0  0  0  0  0  0  0  0  0  0  0
   16.2433   -5.8928   -8.6739 C   0  0  0  0  0  0  0  0  0  0  0  0
   15.5797   -4.7564   -8.1849 O   0  0  0  0  0  0  0  0  0  0  0  0
   17.3380   -6.1563   -8.0933 O   0  0  0  0  0  0  0  0  0  0  0  0
  2  1  1  6
  2  4  1  0
  2  3  1  0
  4  5  1  6
  4  6  1  0
  6  7  2  0
  9  8  1  0
 10  9  2  0
 12 11  1  6
 11  9  1  0
 13  6  1  0
 13 12  1  0
 14 12  1  0
 14 15  2  0
 16 14  1  0
 17 23  1  0
 17 16  1  0
 17 18  1  1
 19 18  1  0
 20 19  1  0
 21 20  1  0
 21 22  1  0
 23 24  1  0
 25 23  2  0
M  END
$$$$
