VNK.pdb
     RDKit          3D

 25 24  0  0  1  0  0  0  0  0999 V2000
   15.4256  -23.1722  -17.4833 C   0  0  0  0  0  0  0  0  0  0  0  0
   15.7521  -22.5974  -16.1339 C   0  0  1  0  0  0  0  0  0  0  0  0
   15.1318  -23.4240  -15.0501 C   0  0  0  0  0  0  0  0  0  0  0  0
   17.2567  -22.4995  -16.0088 C   0  0  2  0  0  0  0  0  0  0  0  0
   17.5321  -21.7998  -14.7679 N   0  0  0  0  0  0  0  0  0  0  0  0
   17.8429  -21.7378  -17.1313 C   0  0  0  0  0  0  0  0  0  0  0  0
   17.7939  -22.1915  -18.2873 O   0  0  0  0  0  0  0  0  0  0  0  0
   17.2133  -16.6837  -16.9427 N   0  0  0  0  0  0  0  0  0  0  0  0
   17.7128  -17.6609  -17.8585 C   0  0  0  0  0  0  0  0  0  0  0  0
   16.9373  -17.9949  -18.7863 O   0  0  0  0  0  0  0  0  0  0  0  0
   19.0555  -18.2254  -17.7028 C   0  0  0  0  0  0  0  0  0  0  0  0
   19.0808  -19.7004  -17.9375 C   0  0  2  0  0  0  0  0  0  0  0  0
   18.4687  -20.4793  -16.9026 N   0  0  0  0  0  0  0  0  0  0  0  0
   20.5282  -20.1073  -18.0217 C   0  0  0  0  0  0  0  0  0  0  0  0
   21.3267  -19.8924  -17.0585 O   0  0  0  0  0  0  0  0  0  0  0  0
   21.0648  -20.7443  -19.1700 N   0  0  0  0  0  0  0  0  0  0  0  0
   22.4612  -21.2157  -19.1955 C   0  0  1  0  0  0  0  0  0  0  0  0
   22.5657  -22.2609  -18.1255 C   0  0  0  0  0  0  0  0  0  0  0  0
   23.8330  -23.0490  -18.1389 C   0  0  0  0  0  0  0  0  0  0  0  0
   24.9378  -22.2196  -17.5288 C   0  0  0  0  0  0  0  0  0  0  0  0
   26.1888  -23.0776  -17.5691 C   0  0  0  0  0  0  0  0  0  0  0  0
   27.2959  -22.3295  -17.0055 N   0  0  0  0  0  0  0  0  0  0  0  0
   22.6517  -21.8665  -20.5170 C   0  0  0  0  0  0  0  0  0  0  0  0
   23.9046  -21.9609  -21.1432 O   0  0  0  0  0  0  0  0  0  0  0  0
   21.6950  -22.3810  -21.1688 O   0  0  0  0  0  0  0  0  0  0  0  0
  2  1  1  6
  2  4  1  0
  2  3  1  0
  4  5  1  1
  4  6  1  0
  6  7  2  0
  9  8  1  0
 10  9  2  0
 12 11  1  1
 11  9  1  0
 13  6  1  0
 13 12  1  0
 14 12  1  0
 14 15  2  0
 16 14  1  0
 17 23  1  0
 17 16  1  0
 17 18  1  1
 19 18  1  0
 20 19  1  0
 21 20  1  0
 21 22  1  0
 23 24  1  0
 25 23  2  0
M  END
$$$$
