VNK.pdb
     RDKit          3D

 25 24  0  0  1  0  0  0  0  0999 V2000
   29.5968  -23.2189  -16.7225 C   0  0  0  0  0  0  0  0  0  0  0  0
   29.2253  -21.7859  -16.9799 C   0  0  1  0  0  0  0  0  0  0  0  0
   30.0748  -21.2143  -18.0726 C   0  0  0  0  0  0  0  0  0  0  0  0
   27.7466  -21.7258  -17.2939 C   0  0  2  0  0  0  0  0  0  0  0  0
   27.4323  -20.3387  -17.5809 N   0  0  0  0  0  0  0  0  0  0  0  0
   26.9325  -22.1761  -16.1457 C   0  0  0  0  0  0  0  0  0  0  0  0
   27.0185  -23.3478  -15.7401 O   0  0  0  0  0  0  0  0  0  0  0  0
   24.0233  -22.4240  -11.9958 N   0  0  0  0  0  0  0  0  0  0  0  0
   24.5752  -21.1066  -12.0502 C   0  0  0  0  0  0  0  0  0  0  0  0
   24.4471  -20.4114  -11.0137 O   0  0  0  0  0  0  0  0  0  0  0  0
   25.2469  -20.6183  -13.2568 C   0  0  0  0  0  0  0  0  0  0  0  0
   25.2519  -21.6333  -14.3528 C   0  0  2  0  0  0  0  0  0  0  0  0
   26.0430  -21.2761  -15.4925 N   0  0  0  0  0  0  0  0  0  0  0  0
   23.8271  -21.7885  -14.8147 C   0  0  0  0  0  0  0  0  0  0  0  0
   23.2113  -20.8298  -15.3743 O   0  0  0  0  0  0  0  0  0  0  0  0
   23.1106  -23.0014  -14.6488 N   0  0  0  0  0  0  0  0  0  0  0  0
   21.7226  -23.1363  -15.1266 C   0  0  1  0  0  0  0  0  0  0  0  0
   20.9500  -22.0291  -14.4745 C   0  0  0  0  0  0  0  0  0  0  0  0
   19.5084  -21.9606  -14.8546 C   0  0  0  0  0  0  0  0  0  0  0  0
   18.8667  -20.7883  -14.1512 C   0  0  0  0  0  0  0  0  0  0  0  0
   17.4277  -20.7375  -14.6304 C   0  0  0  0  0  0  0  0  0  0  0  0
   16.7123  -19.7249  -13.8783 N   0  0  0  0  0  0  0  0  0  0  0  0
   21.7656  -22.8889  -16.5906 C   0  0  0  0  0  0  0  0  0  0  0  0
   20.6979  -23.2050  -17.4456 O   0  0  0  0  0  0  0  0  0  0  0  0
   22.7699  -22.3752  -17.1669 O   0  0  0  0  0  0  0  0  0  0  0  0
  2  1  1  6
  2  4  1  0
  2  3  1  0
  4  5  1  1
  4  6  1  0
  6  7  2  0
  9  8  1  0
 10  9  2  0
 12 11  1  1
 11  9  1  0
 13  6  1  0
 13 12  1  0
 14 12  1  0
 14 15  2  0
 16 14  1  0
 17 23  1  0
 17 16  1  0
 17 18  1  1
 19 18  1  0
 20 19  1  0
 21 20  1  0
 21 22  1  0
 23 24  1  0
 25 23  2  0
M  END
$$$$
