PGT.pdb
     RDKit          3D

 19 19  0  0  1  0  0  0  0  0999 V2000
   24.4874  -13.0089  -16.1084 N   0  0  0  0  0  0  0  0  0  0  0  0
   24.1697  -13.7261  -14.9114 C   0  0  0  0  0  0  0  0  0  0  0  0
   22.7384  -14.2067  -15.0349 C   0  0  0  0  0  0  0  0  0  0  0  0
   22.5564  -14.1584  -16.5569 C   0  0  0  0  0  0  0  0  0  0  0  0
   23.2592  -12.8240  -16.8331 C   0  0  1  0  0  0  0  0  0  0  0  0
   22.3898  -11.7559  -16.3190 C   0  0  0  0  0  0  0  0  0  0  0  0
   21.1765  -12.0127  -15.9977 O   0  0  0  0  0  0  0  0  0  0  0  0
   22.7591  -10.3982  -16.1266 N   0  0  0  0  0  0  0  0  0  0  0  0
   21.7954   -9.3912  -15.6913 C   0  0  0  0  0  0  0  0  0  0  0  0
   22.4290   -8.0927  -15.4411 C   0  0  0  0  0  0  0  0  0  0  0  0
   23.6684   -7.9982  -15.3122 O   0  0  0  0  0  0  0  0  0  0  0  0
   23.0408   -5.4104  -17.3164 C   0  0  0  0  0  0  0  0  0  0  0  0
   22.0963   -4.7827  -16.3052 C   0  0  1  0  0  0  0  0  0  0  0  0
   20.7923   -4.8328  -16.7708 O   0  0  0  0  0  0  0  0  0  0  0  0
   22.1901   -5.6249  -15.0470 C   0  0  2  0  0  0  0  0  0  0  0  0
   21.6451   -6.9213  -15.3411 N   0  0  0  0  0  0  0  0  0  0  0  0
   21.4830   -4.9880  -13.9116 C   0  0  0  0  0  0  0  0  0  0  0  0
   22.0254   -3.8151  -13.3786 O   0  0  0  0  0  0  0  0  0  0  0  0
   20.4275   -5.4604  -13.4195 O   0  0  0  0  0  0  0  0  0  0  0  0
  1  2  1  0
  3  2  1  0
  4  5  1  0
  4  3  1  0
  5  6  1  1
  5  1  1  0
  6  8  1  0
  7  6  2  0
  8  9  1  0
 10  9  1  0
 10 11  2  0
 13 12  1  6
 13 15  1  0
 14 13  1  0
 15 16  1  6
 15 17  1  0
 16 10  1  0
 17 19  2  0
 17 18  1  0
M  END
$$$$
