PGT.pdb
     RDKit          3D

 19 19  0  0  1  0  0  0  0  0999 V2000
   28.0741  -17.8747  -16.3218 N   0  0  0  0  0  0  0  0  0  0  0  0
   28.3467  -18.9578  -17.2166 C   0  0  0  0  0  0  0  0  0  0  0  0
   27.8826  -18.5368  -18.5959 C   0  0  0  0  0  0  0  0  0  0  0  0
   27.8720  -17.0116  -18.4349 C   0  0  0  0  0  0  0  0  0  0  0  0
   27.2562  -16.9297  -17.0332 C   0  0  1  0  0  0  0  0  0  0  0  0
   25.8394  -17.3024  -17.1542 C   0  0  0  0  0  0  0  0  0  0  0  0
   25.0888  -16.7097  -18.0066 O   0  0  0  0  0  0  0  0  0  0  0  0
   25.1696  -18.2975  -16.3941 N   0  0  0  0  0  0  0  0  0  0  0  0
   23.7131  -18.3466  -16.3012 C   0  0  0  0  0  0  0  0  0  0  0  0
   23.2508  -19.4561  -15.4612 C   0  0  0  0  0  0  0  0  0  0  0  0
   22.0310  -19.6570  -15.2786 O   0  0  0  0  0  0  0  0  0  0  0  0
   24.9076  -22.9090  -15.5480 C   0  0  0  0  0  0  0  0  0  0  0  0
   24.8708  -22.4808  -14.0907 C   0  0  1  0  0  0  0  0  0  0  0  0
   26.0865  -21.9281  -13.7219 O   0  0  0  0  0  0  0  0  0  0  0  0
   23.8030  -21.4087  -13.9831 C   0  0  2  0  0  0  0  0  0  0  0  0
   24.1811  -20.3205  -14.8416 N   0  0  0  0  0  0  0  0  0  0  0  0
   23.6261  -20.9549  -12.5840 C   0  0  0  0  0  0  0  0  0  0  0  0
   23.0929  -21.8629  -11.6647 O   0  0  0  0  0  0  0  0  0  0  0  0
   23.9350  -19.7981  -12.2023 O   0  0  0  0  0  0  0  0  0  0  0  0
  1  2  1  0
  3  2  1  0
  4  5  1  0
  4  3  1  0
  5  6  1  6
  5  1  1  0
  6  8  1  0
  7  6  2  0
  8  9  1  0
 10  9  1  0
 10 11  2  0
 13 12  1  6
 13 15  1  0
 14 13  1  0
 15 16  1  6
 15 17  1  0
 16 10  1  0
 17 19  2  0
 17 18  1  0
M  END
$$$$
