PGT.pdb
     RDKit          3D

 19 19  0  0  1  0  0  0  0  0999 V2000
   27.8138  -21.0602  -14.8426 N   0  0  0  0  0  0  0  0  0  0  0  0
   27.4372  -20.4492  -16.0808 C   0  0  0  0  0  0  0  0  0  0  0  0
   26.6702  -19.1854  -15.7502 C   0  0  0  0  0  0  0  0  0  0  0  0
   27.1564  -18.9285  -14.3185 C   0  0  0  0  0  0  0  0  0  0  0  0
   27.1114  -20.3690  -13.7953 C   0  0  1  0  0  0  0  0  0  0  0  0
   25.6961  -20.7382  -13.6486 C   0  0  0  0  0  0  0  0  0  0  0  0
   25.1029  -21.3942  -14.5754 O   0  0  0  0  0  0  0  0  0  0  0  0
   24.8646  -20.4352  -12.5379 N   0  0  0  0  0  0  0  0  0  0  0  0
   23.5416  -21.0327  -12.3794 C   0  0  0  0  0  0  0  0  0  0  0  0
   22.5168  -20.3153  -13.1445 C   0  0  0  0  0  0  0  0  0  0  0  0
   22.4370  -19.0691  -13.0981 O   0  0  0  0  0  0  0  0  0  0  0  0
   21.9391  -20.1925  -16.6272 C   0  0  0  0  0  0  0  0  0  0  0  0
   20.6350  -20.7878  -16.1238 C   0  0  1  0  0  0  0  0  0  0  0  0
   20.6743  -22.1702  -16.2076 O   0  0  0  0  0  0  0  0  0  0  0  0
   20.5189  -20.3980  -14.6623 C   0  0  2  0  0  0  0  0  0  0  0  0
   21.5982  -21.0246  -13.9506 N   0  0  0  0  0  0  0  0  0  0  0  0
   19.2048  -20.7852  -14.0983 C   0  0  0  0  0  0  0  0  0  0  0  0
   18.0644  -20.1566  -14.6065 O   0  0  0  0  0  0  0  0  0  0  0  0
   19.0837  -21.6471  -13.1918 O   0  0  0  0  0  0  0  0  0  0  0  0
  1  2  1  0
  3  2  1  0
  4  5  1  0
  4  3  1  0
  5  6  1  6
  5  1  1  0
  6  8  1  0
  7  6  2  0
  8  9  1  0
 10  9  1  0
 10 11  2  0
 13 12  1  1
 13 15  1  0
 14 13  1  0
 15 16  1  1
 15 17  1  0
 16 10  1  0
 17 19  2  0
 17 18  1  0
M  END
$$$$
