PGT.pdb
     RDKit          3D

 19 19  0  0  1  0  0  0  0  0999 V2000
   29.3181  -22.6656  -17.3592 N   0  0  0  0  0  0  0  0  0  0  0  0
   29.1201  -23.7914  -16.4983 C   0  0  0  0  0  0  0  0  0  0  0  0
   27.6927  -24.2627  -16.6859 C   0  0  0  0  0  0  0  0  0  0  0  0
   27.3770  -23.6609  -18.0608 C   0  0  0  0  0  0  0  0  0  0  0  0
   28.0278  -22.2861  -17.8681 C   0  0  1  0  0  0  0  0  0  0  0  0
   27.1872  -21.5309  -16.9279 C   0  0  0  0  0  0  0  0  0  0  0  0
   25.9448  -21.3471  -17.1804 O   0  0  0  0  0  0  0  0  0  0  0  0
   27.6162  -20.9496  -15.7053 N   0  0  0  0  0  0  0  0  0  0  0  0
   26.7246  -20.1355  -14.8839 C   0  0  0  0  0  0  0  0  0  0  0  0
   25.8305  -20.9556  -14.0604 C   0  0  0  0  0  0  0  0  0  0  0  0
   25.6615  -22.1683  -14.3099 O   0  0  0  0  0  0  0  0  0  0  0  0
   25.9450  -21.2249  -10.4346 C   0  0  0  0  0  0  0  0  0  0  0  0
   24.5156  -20.7802  -10.6948 C   0  0  1  0  0  0  0  0  0  0  0  0
   24.4015  -19.4094  -10.5286 O   0  0  0  0  0  0  0  0  0  0  0  0
   24.2168  -21.1152  -12.1439 C   0  0  2  0  0  0  0  0  0  0  0  0
   25.1419  -20.3855  -12.9660 N   0  0  0  0  0  0  0  0  0  0  0  0
   22.8140  -20.7969  -12.4982 C   0  0  0  0  0  0  0  0  0  0  0  0
   21.8055  -21.6045  -11.9646 O   0  0  0  0  0  0  0  0  0  0  0  0
   22.5056  -19.8392  -13.2512 O   0  0  0  0  0  0  0  0  0  0  0  0
  1  2  1  0
  3  2  1  0
  4  5  1  0
  4  3  1  0
  5  6  1  1
  5  1  1  0
  6  8  1  0
  7  6  2  0
  8  9  1  0
 10  9  1  0
 10 11  2  0
 13 12  1  6
 13 15  1  0
 14 13  1  0
 15 16  1  6
 15 17  1  0
 16 10  1  0
 17 19  2  0
 17 18  1  0
M  END
$$$$
