PGT.pdb
     RDKit          3D

 19 19  0  0  1  0  0  0  0  0999 V2000
   28.8438  -23.1513  -17.9823 N   0  0  0  0  0  0  0  0  0  0  0  0
   28.0615  -22.8936  -19.1526 C   0  0  0  0  0  0  0  0  0  0  0  0
   28.3343  -21.4653  -19.5773 C   0  0  0  0  0  0  0  0  0  0  0  0
   29.6816  -21.2197  -18.8869 C   0  0  0  0  0  0  0  0  0  0  0  0
   29.3798  -21.8916  -17.5421 C   0  0  1  0  0  0  0  0  0  0  0  0
   28.4297  -21.0294  -16.8246 C   0  0  0  0  0  0  0  0  0  0  0  0
   28.7329  -19.8112  -16.5689 O   0  0  0  0  0  0  0  0  0  0  0  0
   27.1446  -21.4111  -16.3563 N   0  0  0  0  0  0  0  0  0  0  0  0
   26.3533  -20.5468  -15.4850 C   0  0  0  0  0  0  0  0  0  0  0  0
   25.6695  -21.3028  -14.4309 C   0  0  0  0  0  0  0  0  0  0  0  0
   25.1811  -22.4293  -14.6637 O   0  0  0  0  0  0  0  0  0  0  0  0
   26.6764  -21.3094  -10.6585 C   0  0  0  0  0  0  0  0  0  0  0  0
   25.2298  -20.8568  -10.7630 C   0  0  1  0  0  0  0  0  0  0  0  0
   25.1569  -19.4734  -10.7415 O   0  0  0  0  0  0  0  0  0  0  0  0
   24.7216  -21.3441  -12.1067 C   0  0  2  0  0  0  0  0  0  0  0  0
   25.5511  -20.7679  -13.1285 N   0  0  0  0  0  0  0  0  0  0  0  0
   23.2962  -20.9946  -12.3090 C   0  0  0  0  0  0  0  0  0  0  0  0
   22.3488  -21.6108  -11.4864 O   0  0  0  0  0  0  0  0  0  0  0  0
   22.9166  -20.1748  -13.1826 O   0  0  0  0  0  0  0  0  0  0  0  0
  1  2  1  0
  3  2  1  0
  4  5  1  0
  4  3  1  0
  5  6  1  6
  5  1  1  0
  6  8  1  0
  7  6  2  0
  8  9  1  0
 10  9  1  0
 10 11  2  0
 13 12  1  6
 13 15  1  0
 14 13  1  0
 15 16  1  6
 15 17  1  0
 16 10  1  0
 17 19  2  0
 17 18  1  0
M  END
$$$$
