PGT.pdb
     RDKit          3D

 19 19  0  0  1  0  0  0  0  0999 V2000
   24.7079  -19.2696  -15.6978 N   0  0  0  0  0  0  0  0  0  0  0  0
   25.1562  -20.2090  -16.6800 C   0  0  0  0  0  0  0  0  0  0  0  0
   23.9770  -21.0894  -17.0397 C   0  0  0  0  0  0  0  0  0  0  0  0
   22.8132  -20.1952  -16.5948 C   0  0  0  0  0  0  0  0  0  0  0  0
   23.4004  -19.6900  -15.2716 C   0  0  1  0  0  0  0  0  0  0  0  0
   23.3877  -20.8168  -14.3277 C   0  0  0  0  0  0  0  0  0  0  0  0
   22.3431  -21.5501  -14.2151 O   0  0  0  0  0  0  0  0  0  0  0  0
   24.4573  -21.2082  -13.4796 N   0  0  0  0  0  0  0  0  0  0  0  0
   24.3530  -21.1385  -12.0247 C   0  0  0  0  0  0  0  0  0  0  0  0
   25.4494  -20.3682  -11.4291 C   0  0  0  0  0  0  0  0  0  0  0  0
   25.8351  -19.2975  -11.9453 O   0  0  0  0  0  0  0  0  0  0  0  0
   26.5070  -19.3873   -7.7850 C   0  0  0  0  0  0  0  0  0  0  0  0
   27.4384  -20.4633   -8.3173 C   0  0  1  0  0  0  0  0  0  0  0  0
   26.9885  -21.7178   -7.9389 O   0  0  0  0  0  0  0  0  0  0  0  0
   27.3850  -20.3697   -9.8304 C   0  0  2  0  0  0  0  0  0  0  0  0
   26.0908  -20.8258  -10.2561 N   0  0  0  0  0  0  0  0  0  0  0  0
   28.4689  -21.1569  -10.4632 C   0  0  0  0  0  0  0  0  0  0  0  0
   29.7803  -20.6937  -10.3239 O   0  0  0  0  0  0  0  0  0  0  0  0
   28.2512  -22.2115  -11.1111 O   0  0  0  0  0  0  0  0  0  0  0  0
  1  2  1  0
  3  2  1  0
  4  5  1  0
  4  3  1  0
  5  6  1  1
  5  1  1  0
  6  8  1  0
  7  6  2  0
  8  9  1  0
 10  9  1  0
 10 11  2  0
 13 12  1  1
 13 15  1  0
 14 13  1  0
 15 16  1  6
 15 17  1  0
 16 10  1  0
 17 19  2  0
 17 18  1  0
M  END
$$$$
