PGT.pdb
     RDKit          3D

 19 19  0  0  1  0  0  0  0  0999 V2000
   26.8187  -20.1472  -16.4063 N   0  0  0  0  0  0  0  0  0  0  0  0
   26.2535  -21.4532  -16.2540 C   0  0  0  0  0  0  0  0  0  0  0  0
   25.1229  -21.3459  -15.2515 C   0  0  0  0  0  0  0  0  0  0  0  0
   24.8164  -19.8455  -15.3337 C   0  0  0  0  0  0  0  0  0  0  0  0
   26.2546  -19.3161  -15.3772 C   0  0  1  0  0  0  0  0  0  0  0  0
   26.8327  -19.5065  -14.0392 C   0  0  0  0  0  0  0  0  0  0  0  0
   26.3514  -18.8738  -13.0345 O   0  0  0  0  0  0  0  0  0  0  0  0
   27.9224  -20.3568  -13.7132 N   0  0  0  0  0  0  0  0  0  0  0  0
   28.5085  -20.3808  -12.3760 C   0  0  0  0  0  0  0  0  0  0  0  0
   27.6321  -21.0375  -11.4009 C   0  0  0  0  0  0  0  0  0  0  0  0
   27.3092  -22.2373  -11.5349 O   0  0  0  0  0  0  0  0  0  0  0  0
   27.9816  -20.6040   -7.6092 C   0  0  0  0  0  0  0  0  0  0  0  0
   26.5553  -20.2272   -7.9732 C   0  0  1  0  0  0  0  0  0  0  0  0
   26.4477  -18.8554   -8.1354 O   0  0  0  0  0  0  0  0  0  0  0  0
   26.2597  -20.8931   -9.3038 C   0  0  2  0  0  0  0  0  0  0  0  0
   27.1357  -20.3214  -10.2885 N   0  0  0  0  0  0  0  0  0  0  0  0
   24.8382  -20.7327   -9.6889 C   0  0  0  0  0  0  0  0  0  0  0  0
   23.8673  -21.2922   -8.8533 O   0  0  0  0  0  0  0  0  0  0  0  0
   24.4820  -20.1195  -10.7264 O   0  0  0  0  0  0  0  0  0  0  0  0
  1  2  1  0
  3  2  1  0
  4  5  1  0
  4  3  1  0
  5  6  1  1
  5  1  1  0
  6  8  1  0
  7  6  2  0
  8  9  1  0
 10  9  1  0
 10 11  2  0
 13 12  1  6
 13 15  1  0
 14 13  1  0
 15 16  1  6
 15 17  1  0
 16 10  1  0
 17 19  2  0
 17 18  1  0
M  END
$$$$
