PGT.pdb
     RDKit          3D

 19 19  0  0  1  0  0  0  0  0999 V2000
   39.1695  -10.8316   -8.7211 N   0  0  0  0  0  0  0  0  0  0  0  0
   40.0791  -11.9097   -8.4794 C   0  0  0  0  0  0  0  0  0  0  0  0
   39.8426  -12.3965   -7.0645 C   0  0  0  0  0  0  0  0  0  0  0  0
   38.4223  -11.8719   -6.8210 C   0  0  0  0  0  0  0  0  0  0  0  0
   38.5735  -10.4859   -7.4589 C   0  0  1  0  0  0  0  0  0  0  0  0
   39.4255   -9.6842   -6.5689 C   0  0  0  0  0  0  0  0  0  0  0  0
   39.1002   -9.5227   -5.3403 O   0  0  0  0  0  0  0  0  0  0  0  0
   40.6333   -9.0320   -6.9329 N   0  0  0  0  0  0  0  0  0  0  0  0
   41.0610   -7.7894   -6.2961 C   0  0  0  0  0  0  0  0  0  0  0  0
   40.7024   -6.6102   -7.0906 C   0  0  0  0  0  0  0  0  0  0  0  0
   41.0259   -5.4626   -6.7168 O   0  0  0  0  0  0  0  0  0  0  0  0
   38.5381   -7.2593  -10.6069 C   0  0  0  0  0  0  0  0  0  0  0  0
   39.5851   -6.1586  -10.5772 C   0  0  1  0  0  0  0  0  0  0  0  0
   39.2061   -5.1131  -11.4036 O   0  0  0  0  0  0  0  0  0  0  0  0
   39.6346   -5.6489   -9.1493 C   0  0  2  0  0  0  0  0  0  0  0  0
   39.9818   -6.7527   -8.2978 N   0  0  0  0  0  0  0  0  0  0  0  0
   38.3464   -5.0398   -8.7438 C   0  0  0  0  0  0  0  0  0  0  0  0
   37.9744   -3.8349   -9.3468 O   0  0  0  0  0  0  0  0  0  0  0  0
   37.5887   -5.5629   -7.8884 O   0  0  0  0  0  0  0  0  0  0  0  0
  1  2  1  0
  3  2  1  0
  4  5  1  0
  4  3  1  0
  5  6  1  1
  5  1  1  0
  6  8  1  0
  7  6  2  0
  8  9  1  0
 10  9  1  0
 10 11  2  0
 13 12  1  1
 13 15  1  0
 14 13  1  0
 15 16  1  1
 15 17  1  0
 16 10  1  0
 17 19  2  0
 17 18  1  0
M  END
$$$$
