PGT.pdb
     RDKit          3D

 19 19  0  0  1  0  0  0  0  0999 V2000
   23.5141  -21.6103  -16.1756 N   0  0  0  0  0  0  0  0  0  0  0  0
   23.7324  -20.5192  -17.0755 C   0  0  0  0  0  0  0  0  0  0  0  0
   25.0134  -20.8030  -17.8329 C   0  0  0  0  0  0  0  0  0  0  0  0
   25.1160  -22.3224  -17.6513 C   0  0  0  0  0  0  0  0  0  0  0  0
   24.7104  -22.4083  -16.1752 C   0  0  1  0  0  0  0  0  0  0  0  0
   25.8212  -21.8616  -15.3827 C   0  0  0  0  0  0  0  0  0  0  0  0
   26.9704  -22.4272  -15.4098 O   0  0  0  0  0  0  0  0  0  0  0  0
   25.7650  -20.7167  -14.5445 N   0  0  0  0  0  0  0  0  0  0  0  0
   26.7075  -20.5174  -13.4470 C   0  0  0  0  0  0  0  0  0  0  0  0
   26.2442  -21.1385  -12.2021 C   0  0  0  0  0  0  0  0  0  0  0  0
   26.0779  -22.3746  -12.1254 O   0  0  0  0  0  0  0  0  0  0  0  0
   27.4773  -20.2224   -8.6946 C   0  0  0  0  0  0  0  0  0  0  0  0
   25.9694  -20.0361   -8.6946 C   0  0  1  0  0  0  0  0  0  0  0  0
   25.6496  -18.7087   -8.9296 O   0  0  0  0  0  0  0  0  0  0  0  0
   25.4319  -20.8705   -9.8419 C   0  0  2  0  0  0  0  0  0  0  0  0
   25.9770  -20.3458  -11.0632 N   0  0  0  0  0  0  0  0  0  0  0  0
   23.9506  -20.8694   -9.8685 C   0  0  0  0  0  0  0  0  0  0  0  0
   23.2763  -21.3772   -8.7544 O   0  0  0  0  0  0  0  0  0  0  0  0
   23.2906  -20.4334  -10.8451 O   0  0  0  0  0  0  0  0  0  0  0  0
  1  2  1  0
  3  2  1  0
  4  5  1  0
  4  3  1  0
  5  6  1  1
  5  1  1  0
  6  8  1  0
  7  6  2  0
  8  9  1  0
 10  9  1  0
 10 11  2  0
 13 12  1  6
 13 15  1  0
 14 13  1  0
 15 16  1  6
 15 17  1  0
 16 10  1  0
 17 19  2  0
 17 18  1  0
M  END
$$$$
