EGY.pdb
     RDKit          3D

 26 26  0  0  1  0  0  0  0  0999 V2000
    8.3531  -14.8039   21.6661 N   0  0  0  0  0  0  0  0  0  0  0  0
    7.1886  -15.4902   22.2052 C   0  0  1  0  0  0  0  0  0  0  0  0
    6.4549  -16.2680   21.1627 C   0  0  0  0  0  0  0  0  0  0  0  0
    7.3606  -17.1308   20.3674 C   0  0  0  0  0  0  0  0  0  0  0  0
    6.7280  -18.0493   19.4200 C   0  0  0  0  0  0  0  0  0  0  0  0
    7.2374  -19.0398   18.8664 O   0  0  0  0  0  0  0  0  0  0  0  0
    7.6684  -16.3620   23.3200 C   0  0  0  0  0  0  0  0  0  0  0  0
    6.8637  -16.9647   24.0436 O   0  0  0  0  0  0  0  0  0  0  0  0
    5.3937  -17.7895   19.0935 O   0  0  0  0  0  0  0  0  0  0  0  0
    9.0464  -16.5067   23.5587 N   0  0  0  0  0  0  0  0  0  0  0  0
    9.6150  -17.3807   24.5534 C   0  0  0  0  0  0  0  0  0  0  0  0
   10.2597  -16.5916   25.6261 C   0  0  0  0  0  0  0  0  0  0  0  0
   11.4842  -16.2730   25.5153 O   0  0  0  0  0  0  0  0  0  0  0  0
    6.0477  -12.0135   24.3408 O   0  0  0  0  0  0  0  0  0  0  0  0
    6.8722  -12.5678   25.3084 C   0  0  0  0  0  0  0  0  0  0  0  0
    6.3028  -13.1459   26.4205 C   0  0  0  0  0  0  0  0  0  0  0  0
    7.1543  -13.6856   27.3592 C   0  0  0  0  0  0  0  0  0  0  0  0
    8.5219  -13.6657   27.2236 C   0  0  0  0  0  0  0  0  0  0  0  0
    9.3467  -14.2705   28.2837 C   0  0  0  0  0  0  0  0  0  0  0  0
   10.1984  -15.4209   27.7915 C   0  0  2  0  0  0  0  0  0  0  0  0
    9.5342  -16.1856   26.7743 N   0  0  0  0  0  0  0  0  0  0  0  0
   10.6798  -16.2531   28.9068 C   0  0  0  0  0  0  0  0  0  0  0  0
   11.3064  -15.7154   29.8405 O   0  0  0  0  0  0  0  0  0  0  0  0
    9.0641  -13.0815   26.1021 C   0  0  0  0  0  0  0  0  0  0  0  0
    8.2343  -12.5285   25.1372 C   0  0  0  0  0  0  0  0  0  0  0  0
   10.4505  -17.6060   28.9346 O   0  0  0  0  0  0  0  0  0  0  0  0
  2  1  1  6
  2  3  1  0
  4  3  1  0
  4  5  1  0
  5  9  1  0
  5  6  2  0
  7  8  2  0
  7  2  1  0
 10  7  1  0
 11 12  1  0
 11 10  1  0
 12 21  1  0
 13 12  2  0
 15 14  1  0
 16 15  2  0
 17 16  1  0
 18 24  1  0
 18 17  2  0
 19 18  1  0
 20 19  1  1
 21 20  1  0
 22 26  1  0
 22 20  1  0
 23 22  2  0
 24 25  2  0
 25 15  1  0
M  END
$$$$
