EGY.pdb
     RDKit          3D

 26 26  0  0  1  0  0  0  0  0999 V2000
    7.6679  -17.8883   21.1139 N   0  0  0  0  0  0  0  0  0  0  0  0
    8.9779  -18.5219   21.0981 C   0  0  1  0  0  0  0  0  0  0  0  0
    9.3868  -18.9464   19.7259 C   0  0  0  0  0  0  0  0  0  0  0  0
    8.2198  -19.2247   18.8552 C   0  0  0  0  0  0  0  0  0  0  0  0
    8.5095  -19.6615   17.4890 C   0  0  0  0  0  0  0  0  0  0  0  0
    9.6247  -19.8014   16.9564 O   0  0  0  0  0  0  0  0  0  0  0  0
    9.9440  -17.5504   21.6947 C   0  0  0  0  0  0  0  0  0  0  0  0
   11.1404  -17.8448   21.8225 O   0  0  0  0  0  0  0  0  0  0  0  0
    7.4080  -19.9583   16.6808 O   0  0  0  0  0  0  0  0  0  0  0  0
    9.5003  -16.2854   22.1188 N   0  0  0  0  0  0  0  0  0  0  0  0
   10.3477  -15.2773   22.7039 C   0  0  0  0  0  0  0  0  0  0  0  0
   10.3222  -15.3747   24.1800 C   0  0  0  0  0  0  0  0  0  0  0  0
   11.0412  -14.5862   24.8690 O   0  0  0  0  0  0  0  0  0  0  0  0
    5.5759  -11.5050   25.2476 O   0  0  0  0  0  0  0  0  0  0  0  0
    6.1987  -12.6821   25.6346 C   0  0  0  0  0  0  0  0  0  0  0  0
    7.0995  -12.6509   26.6752 C   0  0  0  0  0  0  0  0  0  0  0  0
    7.6975  -13.8399   27.0304 C   0  0  0  0  0  0  0  0  0  0  0  0
    7.4295  -15.0281   26.3937 C   0  0  0  0  0  0  0  0  0  0  0  0
    8.1214  -16.2463   26.8490 C   0  0  0  0  0  0  0  0  0  0  0  0
    9.5131  -16.3911   26.2717 C   0  0  2  0  0  0  0  0  0  0  0  0
    9.5096  -16.3323   24.8374 N   0  0  0  0  0  0  0  0  0  0  0  0
   10.1918  -17.5902   26.7910 C   0  0  0  0  0  0  0  0  0  0  0  0
   10.3228  -17.7294   28.0227 O   0  0  0  0  0  0  0  0  0  0  0  0
    6.5250  -15.0304   25.3569 C   0  0  0  0  0  0  0  0  0  0  0  0
    5.9048  -13.8497   24.9740 C   0  0  0  0  0  0  0  0  0  0  0  0
   10.6807  -18.5532   25.9440 O   0  0  0  0  0  0  0  0  0  0  0  0
  2  1  1  6
  2  3  1  0
  4  3  1  0
  4  5  1  0
  5  9  1  0
  5  6  2  0
  7  8  2  0
  7  2  1  0
 10  7  1  0
 11 12  1  0
 11 10  1  0
 12 21  1  0
 13 12  2  0
 15 14  1  0
 16 15  2  0
 17 16  1  0
 18 24  1  0
 18 17  2  0
 19 18  1  0
 20 19  1  6
 21 20  1  0
 22 26  1  0
 22 20  1  0
 23 22  2  0
 24 25  2  0
 25 15  1  0
M  END
$$$$
