EGY.pdb
     RDKit          3D

 26 26  0  0  1  0  0  0  0  0999 V2000
   10.0644  -19.6929   19.3000 N   0  0  0  0  0  0  0  0  0  0  0  0
   11.0149  -18.6684   19.7057 C   0  0  1  0  0  0  0  0  0  0  0  0
   11.7847  -18.1185   18.5501 C   0  0  0  0  0  0  0  0  0  0  0  0
   11.3885  -18.7434   17.2656 C   0  0  0  0  0  0  0  0  0  0  0  0
   12.1606  -18.3598   16.0833 C   0  0  0  0  0  0  0  0  0  0  0  0
   13.1165  -17.5662   16.0246 O   0  0  0  0  0  0  0  0  0  0  0  0
   10.2410  -17.6074   20.4186 C   0  0  0  0  0  0  0  0  0  0  0  0
    9.2238  -17.1160   19.9103 O   0  0  0  0  0  0  0  0  0  0  0  0
   11.7856  -18.9506   14.8730 O   0  0  0  0  0  0  0  0  0  0  0  0
   10.6636  -17.1546   21.6809 N   0  0  0  0  0  0  0  0  0  0  0  0
    9.9666  -16.1711   22.4705 C   0  0  0  0  0  0  0  0  0  0  0  0
   10.6148  -16.0158   23.7914 C   0  0  0  0  0  0  0  0  0  0  0  0
   11.7311  -16.5816   24.0081 O   0  0  0  0  0  0  0  0  0  0  0  0
    6.0947  -10.5633   26.4191 O   0  0  0  0  0  0  0  0  0  0  0  0
    6.5503  -11.8685   26.3088 C   0  0  0  0  0  0  0  0  0  0  0  0
    7.3783  -12.3724   27.2864 C   0  0  0  0  0  0  0  0  0  0  0  0
    7.8099  -13.6725   27.1419 C   0  0  0  0  0  0  0  0  0  0  0  0
    7.4485  -14.4637   26.0777 C   0  0  0  0  0  0  0  0  0  0  0  0
    7.9631  -15.8424   26.0144 C   0  0  0  0  0  0  0  0  0  0  0  0
    9.4746  -15.9119   25.9713 C   0  0  2  0  0  0  0  0  0  0  0  0
   10.0113  -15.2467   24.8180 N   0  0  0  0  0  0  0  0  0  0  0  0
    9.9563  -17.2968   26.1058 C   0  0  0  0  0  0  0  0  0  0  0  0
    9.4414  -18.1904   25.4057 O   0  0  0  0  0  0  0  0  0  0  0  0
    6.6199  -13.9345   25.1151 C   0  0  0  0  0  0  0  0  0  0  0  0
    6.1672  -12.6279   25.2306 C   0  0  0  0  0  0  0  0  0  0  0  0
   10.9590  -17.6184   26.9860 O   0  0  0  0  0  0  0  0  0  0  0  0
  2  1  1  6
  2  3  1  0
  4  3  1  0
  4  5  1  0
  5  9  1  0
  5  6  2  0
  7  8  2  0
  7  2  1  0
 10  7  1  0
 11 12  1  0
 11 10  1  0
 12 21  1  0
 13 12  2  0
 15 14  1  0
 16 15  2  0
 17 16  1  0
 18 24  1  0
 18 17  2  0
 19 18  1  0
 20 19  1  6
 21 20  1  0
 22 26  1  0
 22 20  1  0
 23 22  2  0
 24 25  2  0
 25 15  1  0
M  END
$$$$
