EGY.pdb
     RDKit          3D

 26 26  0  0  1  0  0  0  0  0999 V2000
    8.3702  -18.5736   18.2356 N   0  0  0  0  0  0  0  0  0  0  0  0
    9.3907  -17.5390   18.3122 C   0  0  1  0  0  0  0  0  0  0  0  0
    9.4436  -16.7010   17.0771 C   0  0  0  0  0  0  0  0  0  0  0  0
    8.4916  -17.1694   16.0420 C   0  0  0  0  0  0  0  0  0  0  0  0
    8.9489  -17.1072   14.6534 C   0  0  0  0  0  0  0  0  0  0  0  0
   10.0832  -16.8086   14.2396 O   0  0  0  0  0  0  0  0  0  0  0  0
    9.1002  -16.7233   19.5301 C   0  0  0  0  0  0  0  0  0  0  0  0
    9.7861  -15.7291   19.8047 O   0  0  0  0  0  0  0  0  0  0  0  0
    8.0054  -17.4187   13.6699 O   0  0  0  0  0  0  0  0  0  0  0  0
    8.0387  -17.0798   20.3805 N   0  0  0  0  0  0  0  0  0  0  0  0
    7.5726  -16.2785   21.4838 C   0  0  0  0  0  0  0  0  0  0  0  0
    8.5511  -16.3081   22.5931 C   0  0  0  0  0  0  0  0  0  0  0  0
    9.5692  -17.0626   22.5060 O   0  0  0  0  0  0  0  0  0  0  0  0
    4.6961  -11.3988   26.2085 O   0  0  0  0  0  0  0  0  0  0  0  0
    5.8748  -12.1087   26.0348 C   0  0  0  0  0  0  0  0  0  0  0  0
    7.0695  -11.4250   26.0109 C   0  0  0  0  0  0  0  0  0  0  0  0
    8.2184  -12.1646   25.8364 C   0  0  0  0  0  0  0  0  0  0  0  0
    8.2097  -13.5311   25.6889 C   0  0  0  0  0  0  0  0  0  0  0  0
    9.4930  -14.2312   25.5081 C   0  0  0  0  0  0  0  0  0  0  0  0
    9.3507  -15.5608   24.7988 C   0  0  2  0  0  0  0  0  0  0  0  0
    8.3716  -15.5093   23.7503 N   0  0  0  0  0  0  0  0  0  0  0  0
    9.1092  -16.6582   25.7504 C   0  0  0  0  0  0  0  0  0  0  0  0
    9.9590  -16.8983   26.6301 O   0  0  0  0  0  0  0  0  0  0  0  0
    7.0015  -14.1889   25.7168 C   0  0  0  0  0  0  0  0  0  0  0  0
    5.8254  -13.4735   25.8908 C   0  0  0  0  0  0  0  0  0  0  0  0
    7.9681  -17.4179   25.6846 O   0  0  0  0  0  0  0  0  0  0  0  0
  2  1  1  6
  2  3  1  0
  4  3  1  0
  4  5  1  0
  5  9  1  0
  5  6  2  0
  7  8  2  0
  7  2  1  0
 10  7  1  0
 11 12  1  0
 11 10  1  0
 12 21  1  0
 13 12  2  0
 15 14  1  0
 16 15  2  0
 17 16  1  0
 18 24  1  0
 18 17  2  0
 19 18  1  0
 20 19  1  1
 21 20  1  0
 22 26  1  0
 22 20  1  0
 23 22  2  0
 24 25  2  0
 25 15  1  0
M  END
$$$$
