EGY.pdb
     RDKit          3D

 26 26  0  0  1  0  0  0  0  0999 V2000
    9.8900  -16.0895   20.8260 N   0  0  0  0  0  0  0  0  0  0  0  0
    8.5060  -15.7405   21.1096 C   0  0  1  0  0  0  0  0  0  0  0  0
    7.5512  -16.3895   20.1622 C   0  0  0  0  0  0  0  0  0  0  0  0
    8.2252  -16.8791   18.9361 C   0  0  0  0  0  0  0  0  0  0  0  0
    7.3751  -17.5150   17.9291 C   0  0  0  0  0  0  0  0  0  0  0  0
    6.2209  -17.1928   17.5959 O   0  0  0  0  0  0  0  0  0  0  0  0
    8.2364  -16.1260   22.5279 C   0  0  0  0  0  0  0  0  0  0  0  0
    7.1332  -15.9037   23.0457 O   0  0  0  0  0  0  0  0  0  0  0  0
    7.9171  -18.6151   17.2579 O   0  0  0  0  0  0  0  0  0  0  0  0
    9.2391  -16.7487   23.2919 N   0  0  0  0  0  0  0  0  0  0  0  0
    9.0591  -17.2293   24.6385 C   0  0  0  0  0  0  0  0  0  0  0  0
    9.9283  -16.4820   25.5739 C   0  0  0  0  0  0  0  0  0  0  0  0
   11.1095  -16.1784   25.2193 O   0  0  0  0  0  0  0  0  0  0  0  0
    5.8649  -12.1609   24.6488 O   0  0  0  0  0  0  0  0  0  0  0  0
    6.8234  -12.6333   25.5329 C   0  0  0  0  0  0  0  0  0  0  0  0
    8.0944  -12.8862   25.0683 C   0  0  0  0  0  0  0  0  0  0  0  0
    9.0185  -13.3543   25.9762 C   0  0  0  0  0  0  0  0  0  0  0  0
    8.7187  -13.5717   27.2998 C   0  0  0  0  0  0  0  0  0  0  0  0
    9.7779  -14.0738   28.1918 C   0  0  0  0  0  0  0  0  0  0  0  0
   10.3514  -15.4018   27.7457 C   0  0  2  0  0  0  0  0  0  0  0  0
    9.4652  -16.0997   26.8580 N   0  0  0  0  0  0  0  0  0  0  0  0
   10.7706  -16.2227   28.8939 C   0  0  0  0  0  0  0  0  0  0  0  0
   11.5999  -15.7605   29.7015 O   0  0  0  0  0  0  0  0  0  0  0  0
    7.4405  -13.3105   27.7371 C   0  0  0  0  0  0  0  0  0  0  0  0
    6.4855  -12.8380   26.8481 C   0  0  0  0  0  0  0  0  0  0  0  0
   10.2649  -17.4838   29.0884 O   0  0  0  0  0  0  0  0  0  0  0  0
  2  1  1  6
  2  3  1  0
  4  3  1  0
  4  5  1  0
  5  9  1  0
  5  6  2  0
  7  8  2  0
  7  2  1  0
 10  7  1  0
 11 12  1  0
 11 10  1  0
 12 21  1  0
 13 12  2  0
 15 14  1  0
 16 15  2  0
 17 16  1  0
 18 24  1  0
 18 17  2  0
 19 18  1  0
 20 19  1  1
 21 20  1  0
 22 26  1  0
 22 20  1  0
 23 22  2  0
 24 25  2  0
 25 15  1  0
M  END
$$$$
