CGG.pdb
     RDKit          3D

 15 14  0  0  1  0  0  0  0  0999 V2000
    7.8313  -13.9693   27.1303 N   0  0  0  0  0  0  0  0  0  0  0  0
    6.9786  -13.4117   26.1287 C   0  0  1  0  0  0  0  0  0  0  0  0
    6.7637  -11.9356   26.3901 C   0  0  0  0  0  0  0  0  0  0  0  0
    5.3285  -11.6573   27.4254 S   0  0  0  0  0  0  0  0  0  0  0  0
    7.6187  -13.5131   24.7810 C   0  0  0  0  0  0  0  0  0  0  0  0
    8.7946  -13.0914   24.6341 O   0  0  0  0  0  0  0  0  0  0  0  0
    6.9129  -14.0760   23.6825 N   0  0  0  0  0  0  0  0  0  0  0  0
    7.4452  -13.9878   22.3368 C   0  0  0  0  0  0  0  0  0  0  0  0
    8.3918  -15.0784   22.0816 C   0  0  0  0  0  0  0  0  0  0  0  0
    8.7180  -15.3514   20.9073 O   0  0  0  0  0  0  0  0  0  0  0  0
    8.9493  -15.8352   23.1398 N   0  0  0  0  0  0  0  0  0  0  0  0
    9.8225  -16.9412   22.8205 C   0  0  0  0  0  0  0  0  0  0  0  0
   11.2338  -16.5534   23.0884 C   0  0  0  0  0  0  0  0  0  0  0  0
   11.5971  -16.2338   24.3690 O   0  0  0  0  0  0  0  0  0  0  0  0
   12.0630  -16.5216   22.1639 O   0  0  0  0  0  0  0  0  0  0  0  0
  2  1  1  1
  2  3  1  0
  3  4  1  0
  5  2  1  0
  6  5  2  0
  7  5  1  0
  8  7  1  0
  9 11  1  0
  9  8  1  0
 10  9  2  0
 12 13  1  0
 12 11  1  0
 13 14  1  0
 15 13  2  0
M  END
$$$$
