CGG.pdb
     RDKit          3D

 15 14  0  0  1  0  0  0  0  0999 V2000
    5.3326  -13.8923   26.1338 N   0  0  0  0  0  0  0  0  0  0  0  0
    6.5763  -13.3499   25.6862 C   0  0  1  0  0  0  0  0  0  0  0  0
    6.9751  -12.1752   26.5546 C   0  0  0  0  0  0  0  0  0  0  0  0
    5.6179  -11.0243   26.7609 S   0  0  0  0  0  0  0  0  0  0  0  0
    7.6676  -14.3636   25.8199 C   0  0  0  0  0  0  0  0  0  0  0  0
    8.0924  -14.6504   26.9685 O   0  0  0  0  0  0  0  0  0  0  0  0
    8.2175  -14.9943   24.6703 N   0  0  0  0  0  0  0  0  0  0  0  0
    9.3840  -14.4422   24.0097 C   0  0  0  0  0  0  0  0  0  0  0  0
    9.7537  -15.2550   22.8463 C   0  0  0  0  0  0  0  0  0  0  0  0
   10.7418  -14.9307   22.1548 O   0  0  0  0  0  0  0  0  0  0  0  0
    9.0139  -16.4061   22.4844 N   0  0  0  0  0  0  0  0  0  0  0  0
    9.2597  -17.0162   21.1979 C   0  0  0  0  0  0  0  0  0  0  0  0
   10.3105  -18.0605   21.3361 C   0  0  0  0  0  0  0  0  0  0  0  0
   10.7207  -18.7339   20.2170 O   0  0  0  0  0  0  0  0  0  0  0  0
   10.8032  -18.3129   22.4482 O   0  0  0  0  0  0  0  0  0  0  0  0
  2  1  1  1
  2  3  1  0
  3  4  1  0
  5  2  1  0
  6  5  2  0
  7  5  1  0
  8  7  1  0
  9 11  1  0
  9  8  1  0
 10  9  2  0
 12 13  1  0
 12 11  1  0
 13 14  1  0
 15 13  2  0
M  END
$$$$
