CGG.pdb
     RDKit          3D

 15 14  0  0  1  0  0  0  0  0999 V2000
    9.0722  -13.1976   17.8490 N   0  0  0  0  0  0  0  0  0  0  0  0
    9.3713  -13.0936   19.2423 C   0  0  1  0  0  0  0  0  0  0  0  0
    8.2019  -12.4779   19.9816 C   0  0  0  0  0  0  0  0  0  0  0  0
    6.6816  -13.3681   19.6572 S   0  0  0  0  0  0  0  0  0  0  0  0
    9.5788  -14.4506   19.8354 C   0  0  0  0  0  0  0  0  0  0  0  0
    9.3575  -15.4643   19.1245 O   0  0  0  0  0  0  0  0  0  0  0  0
   10.0187  -14.5958   21.1797 N   0  0  0  0  0  0  0  0  0  0  0  0
   10.1983  -15.9112   21.7622 C   0  0  0  0  0  0  0  0  0  0  0  0
   11.6197  -16.2698   21.8039 C   0  0  0  0  0  0  0  0  0  0  0  0
   11.9628  -17.3850   22.2492 O   0  0  0  0  0  0  0  0  0  0  0  0
   12.6200  -15.3777   21.3491 N   0  0  0  0  0  0  0  0  0  0  0  0
   13.9889  -15.8365   21.2921 C   0  0  0  0  0  0  0  0  0  0  0  0
   14.6754  -15.5114   22.5716 C   0  0  0  0  0  0  0  0  0  0  0  0
   14.2072  -16.0699   23.7304 O   0  0  0  0  0  0  0  0  0  0  0  0
   15.6546  -14.7470   22.5826 O   0  0  0  0  0  0  0  0  0  0  0  0
  2  1  1  6
  2  3  1  0
  3  4  1  0
  5  2  1  0
  6  5  2  0
  7  5  1  0
  8  7  1  0
  9 11  1  0
  9  8  1  0
 10  9  2  0
 12 13  1  0
 12 11  1  0
 13 14  1  0
 15 13  2  0
M  END
$$$$
