CGG.pdb
     RDKit          3D

 15 14  0  0  1  0  0  0  0  0999 V2000
    4.8382  -21.1600   22.3246 N   0  0  0  0  0  0  0  0  0  0  0  0
    4.5252  -21.6965   23.6113 C   0  0  1  0  0  0  0  0  0  0  0  0
    4.3575  -23.1988   23.5226 C   0  0  0  0  0  0  0  0  0  0  0  0
    2.7639  -23.6390   22.8327 S   0  0  0  0  0  0  0  0  0  0  0  0
    5.6491  -21.4527   24.5672 C   0  0  0  0  0  0  0  0  0  0  0  0
    6.6468  -22.2181   24.5392 O   0  0  0  0  0  0  0  0  0  0  0  0
    5.5938  -20.3751   25.4932 N   0  0  0  0  0  0  0  0  0  0  0  0
    6.7586  -20.0107   26.2757 C   0  0  0  0  0  0  0  0  0  0  0  0
    7.1793  -18.6393   25.9706 C   0  0  0  0  0  0  0  0  0  0  0  0
    8.0559  -18.0915   26.6715 O   0  0  0  0  0  0  0  0  0  0  0  0
    6.6130  -17.9152   24.8943 N   0  0  0  0  0  0  0  0  0  0  0  0
    7.4247  -16.9344   24.2111 C   0  0  0  0  0  0  0  0  0  0  0  0
    7.8272  -17.4631   22.8798 C   0  0  0  0  0  0  0  0  0  0  0  0
    7.6534  -16.6711   21.7768 O   0  0  0  0  0  0  0  0  0  0  0  0
    8.3114  -18.6024   22.7764 O   0  0  0  0  0  0  0  0  0  0  0  0
  2  1  1  6
  2  3  1  0
  3  4  1  0
  5  2  1  0
  6  5  2  0
  7  5  1  0
  8  7  1  0
  9 11  1  0
  9  8  1  0
 10  9  2  0
 12 13  1  0
 12 11  1  0
 13 14  1  0
 15 13  2  0
M  END
$$$$
