CGG.pdb
     RDKit          3D

 15 14  0  0  1  0  0  0  0  0999 V2000
    6.6038  -14.0577   21.6917 N   0  0  0  0  0  0  0  0  0  0  0  0
    7.5912  -14.6389   20.8382 C   0  0  1  0  0  0  0  0  0  0  0  0
    8.6840  -13.6324   20.5450 C   0  0  0  0  0  0  0  0  0  0  0  0
    8.0465  -12.2175   19.6502 S   0  0  0  0  0  0  0  0  0  0  0  0
    8.2534  -15.7957   21.5163 C   0  0  0  0  0  0  0  0  0  0  0  0
    8.2584  -15.8409   22.7733 O   0  0  0  0  0  0  0  0  0  0  0  0
    8.8677  -16.8283   20.7560 N   0  0  0  0  0  0  0  0  0  0  0  0
    9.4284  -17.9950   21.4088 C   0  0  0  0  0  0  0  0  0  0  0  0
   10.8317  -17.7642   21.7668 C   0  0  0  0  0  0  0  0  0  0  0  0
   11.6840  -18.6444   21.5247 O   0  0  0  0  0  0  0  0  0  0  0  0
   11.2480  -16.5605   22.3842 N   0  0  0  0  0  0  0  0  0  0  0  0
   12.6590  -16.3436   22.6068 C   0  0  0  0  0  0  0  0  0  0  0  0
   13.0119  -16.7525   23.9932 C   0  0  0  0  0  0  0  0  0  0  0  0
   13.5513  -15.8198   24.8377 O   0  0  0  0  0  0  0  0  0  0  0  0
   12.8186  -17.9196   24.3725 O   0  0  0  0  0  0  0  0  0  0  0  0
  2  1  1  1
  2  3  1  0
  3  4  1  0
  5  2  1  0
  6  5  2  0
  7  5  1  0
  8  7  1  0
  9 11  1  0
  9  8  1  0
 10  9  2  0
 12 13  1  0
 12 11  1  0
 13 14  1  0
 15 13  2  0
M  END
$$$$
