CGG.pdb
     RDKit          3D

 15 14  0  0  1  0  0  0  0  0999 V2000
    7.2244  -12.9026   19.2795 N   0  0  0  0  0  0  0  0  0  0  0  0
    7.9759  -14.0721   19.6093 C   0  0  1  0  0  0  0  0  0  0  0  0
    9.3413  -14.0153   18.9567 C   0  0  0  0  0  0  0  0  0  0  0  0
    9.3019  -14.6921   17.2986 S   0  0  0  0  0  0  0  0  0  0  0  0
    8.2152  -14.1417   21.0838 C   0  0  0  0  0  0  0  0  0  0  0  0
    8.3729  -13.0709   21.7245 O   0  0  0  0  0  0  0  0  0  0  0  0
    8.2640  -15.3953   21.7530 N   0  0  0  0  0  0  0  0  0  0  0  0
    8.4930  -15.4629   23.1831 C   0  0  0  0  0  0  0  0  0  0  0  0
    9.7730  -16.1177   23.4724 C   0  0  0  0  0  0  0  0  0  0  0  0
    9.7987  -17.3412   23.7214 O   0  0  0  0  0  0  0  0  0  0  0  0
   10.9888  -15.3931   23.4767 N   0  0  0  0  0  0  0  0  0  0  0  0
   12.0861  -15.8785   24.2817 C   0  0  0  0  0  0  0  0  0  0  0  0
   13.0877  -16.5449   23.4063 C   0  0  0  0  0  0  0  0  0  0  0  0
   13.5823  -15.8581   22.3303 O   0  0  0  0  0  0  0  0  0  0  0  0
   13.4649  -17.7028   23.6515 O   0  0  0  0  0  0  0  0  0  0  0  0
  2  1  1  1
  2  3  1  0
  3  4  1  0
  5  2  1  0
  6  5  2  0
  7  5  1  0
  8  7  1  0
  9 11  1  0
  9  8  1  0
 10  9  2  0
 12 13  1  0
 12 11  1  0
 13 14  1  0
 15 13  2  0
M  END
$$$$
