CGG.pdb
     RDKit          3D

 15 14  0  0  1  0  0  0  0  0999 V2000
    8.1842  -13.7942   17.6570 N   0  0  0  0  0  0  0  0  0  0  0  0
    8.6491  -13.8381   19.0073 C   0  0  1  0  0  0  0  0  0  0  0  0
    7.7975  -12.9411   19.8810 C   0  0  0  0  0  0  0  0  0  0  0  0
    8.3354  -11.2350   19.7864 S   0  0  0  0  0  0  0  0  0  0  0  0
    8.5139  -15.2201   19.5625 C   0  0  0  0  0  0  0  0  0  0  0  0
    7.4356  -15.8428   19.3852 O   0  0  0  0  0  0  0  0  0  0  0  0
    9.5842  -15.8226   20.2789 N   0  0  0  0  0  0  0  0  0  0  0  0
    9.4455  -17.1537   20.8363 C   0  0  0  0  0  0  0  0  0  0  0  0
    9.9374  -17.1909   22.2174 C   0  0  0  0  0  0  0  0  0  0  0  0
    9.9362  -18.2708   22.8448 O   0  0  0  0  0  0  0  0  0  0  0  0
   10.4169  -16.0258   22.8622 N   0  0  0  0  0  0  0  0  0  0  0  0
   10.8511  -16.1192   24.2372 C   0  0  0  0  0  0  0  0  0  0  0  0
   12.2944  -16.4783   24.2790 C   0  0  0  0  0  0  0  0  0  0  0  0
   12.9356  -16.4883   25.4885 O   0  0  0  0  0  0  0  0  0  0  0  0
   12.9016  -16.7630   23.2334 O   0  0  0  0  0  0  0  0  0  0  0  0
  2  1  1  6
  2  3  1  0
  3  4  1  0
  5  2  1  0
  6  5  2  0
  7  5  1  0
  8  7  1  0
  9 11  1  0
  9  8  1  0
 10  9  2  0
 12 13  1  0
 12 11  1  0
 13 14  1  0
 15 13  2  0
M  END
$$$$
