CGG.pdb
     RDKit          3D

 15 14  0  0  1  0  0  0  0  0999 V2000
    9.8528  -10.0331   39.8675 N   0  0  0  0  0  0  0  0  0  0  0  0
   10.6789  -10.3697   40.9836 C   0  0  1  0  0  0  0  0  0  0  0  0
   10.1296   -9.7405   42.2468 C   0  0  0  0  0  0  0  0  0  0  0  0
   10.5961   -8.0156   42.3740 S   0  0  0  0  0  0  0  0  0  0  0  0
   10.6738  -11.8477   41.2114 C   0  0  0  0  0  0  0  0  0  0  0  0
    9.5939  -12.4787   41.0787 O   0  0  0  0  0  0  0  0  0  0  0  0
   11.8676  -12.5308   41.5718 N   0  0  0  0  0  0  0  0  0  0  0  0
   11.8798  -13.9731   41.7189 C   0  0  0  0  0  0  0  0  0  0  0  0
   12.8153  -14.5828   40.7682 C   0  0  0  0  0  0  0  0  0  0  0  0
   13.0618  -15.8050   40.8415 O   0  0  0  0  0  0  0  0  0  0  0  0
   13.4507  -13.8161   39.7623 N   0  0  0  0  0  0  0  0  0  0  0  0
   14.4935  -14.4300   38.9728 C   0  0  0  0  0  0  0  0  0  0  0  0
   15.7920  -13.7628   39.2600 C   0  0  0  0  0  0  0  0  0  0  0  0
   16.8475  -14.5283   39.6773 O   0  0  0  0  0  0  0  0  0  0  0  0
   15.9111  -12.5340   39.1221 O   0  0  0  0  0  0  0  0  0  0  0  0
  2  1  1  6
  2  3  1  0
  3  4  1  0
  5  2  1  0
  6  5  2  0
  7  5  1  0
  8  7  1  0
  9 11  1  0
  9  8  1  0
 10  9  2  0
 12 13  1  0
 12 11  1  0
 13 14  1  0
 15 13  2  0
M  END
$$$$
