CGG.pdb
     RDKit          3D

 15 14  0  0  1  0  0  0  0  0999 V2000
    8.3441  -15.5347   18.2033 N   0  0  0  0  0  0  0  0  0  0  0  0
    8.2118  -14.3911   19.0495 C   0  0  1  0  0  0  0  0  0  0  0  0
    7.2907  -13.3734   18.4099 C   0  0  0  0  0  0  0  0  0  0  0  0
    7.9505  -12.7822   16.8530 S   0  0  0  0  0  0  0  0  0  0  0  0
    7.5808  -14.7731   20.3504 C   0  0  0  0  0  0  0  0  0  0  0  0
    6.8612  -15.8036   20.3967 O   0  0  0  0  0  0  0  0  0  0  0  0
    7.7888  -13.9868   21.5167 N   0  0  0  0  0  0  0  0  0  0  0  0
    7.1927  -14.3674   22.7823 C   0  0  0  0  0  0  0  0  0  0  0  0
    8.1799  -15.0284   23.6420 C   0  0  0  0  0  0  0  0  0  0  0  0
    7.9099  -15.2410   24.8427 O   0  0  0  0  0  0  0  0  0  0  0  0
    9.4403  -15.4346   23.1422 N   0  0  0  0  0  0  0  0  0  0  0  0
   10.3769  -16.0650   24.0439 C   0  0  0  0  0  0  0  0  0  0  0  0
   11.6151  -16.4255   23.3016 C   0  0  0  0  0  0  0  0  0  0  0  0
   12.5865  -15.4745   23.1403 O   0  0  0  0  0  0  0  0  0  0  0  0
   11.7598  -17.5693   22.8391 O   0  0  0  0  0  0  0  0  0  0  0  0
  2  1  1  6
  2  3  1  0
  3  4  1  0
  5  2  1  0
  6  5  2  0
  7  5  1  0
  8  7  1  0
  9 11  1  0
  9  8  1  0
 10  9  2  0
 12 13  1  0
 12 11  1  0
 13 14  1  0
 15 13  2  0
M  END
$$$$
