CGG.pdb
     RDKit          3D

 15 14  0  0  1  0  0  0  0  0999 V2000
    4.1403  -19.6987   20.6803 N   0  0  0  0  0  0  0  0  0  0  0  0
    5.3590  -20.0649   21.3298 C   0  0  1  0  0  0  0  0  0  0  0  0
    6.5152  -19.9777   20.3557 C   0  0  0  0  0  0  0  0  0  0  0  0
    6.4158  -21.2583   19.1070 S   0  0  0  0  0  0  0  0  0  0  0  0
    5.6682  -19.1104   22.4387 C   0  0  0  0  0  0  0  0  0  0  0  0
    5.6661  -17.8763   22.1958 O   0  0  0  0  0  0  0  0  0  0  0  0
    5.9598  -19.5866   23.7463 N   0  0  0  0  0  0  0  0  0  0  0  0
    6.1322  -18.6621   24.8497 C   0  0  0  0  0  0  0  0  0  0  0  0
    6.7788  -19.3264   25.9861 C   0  0  0  0  0  0  0  0  0  0  0  0
    6.5224  -20.5243   26.2291 O   0  0  0  0  0  0  0  0  0  0  0  0
    7.6929  -18.6398   26.8206 N   0  0  0  0  0  0  0  0  0  0  0  0
    8.1794  -19.2983   28.0110 C   0  0  0  0  0  0  0  0  0  0  0  0
    9.2139  -18.4490   28.6610 C   0  0  0  0  0  0  0  0  0  0  0  0
    9.7504  -18.8600   29.8515 O   0  0  0  0  0  0  0  0  0  0  0  0
    9.5805  -17.3879   28.1292 O   0  0  0  0  0  0  0  0  0  0  0  0
  2  1  1  6
  2  3  1  0
  3  4  1  0
  5  2  1  0
  6  5  2  0
  7  5  1  0
  8  7  1  0
  9 11  1  0
  9  8  1  0
 10  9  2  0
 12 13  1  0
 12 11  1  0
 13 14  1  0
 15 13  2  0
M  END
$$$$
