CGG.pdb
     RDKit          3D

 15 14  0  0  1  0  0  0  0  0999 V2000
    6.1527  -14.6531   26.4912 N   0  0  0  0  0  0  0  0  0  0  0  0
    6.7644  -13.7527   25.5658 C   0  0  1  0  0  0  0  0  0  0  0  0
    7.9352  -13.0493   26.2196 C   0  0  0  0  0  0  0  0  0  0  0  0
    7.3867  -11.9008   27.4802 S   0  0  0  0  0  0  0  0  0  0  0  0
    7.3208  -14.5017   24.3971 C   0  0  0  0  0  0  0  0  0  0  0  0
    7.2888  -15.7590   24.4108 O   0  0  0  0  0  0  0  0  0  0  0  0
    7.8771  -13.8074   23.2880 N   0  0  0  0  0  0  0  0  0  0  0  0
    8.0176  -14.4596   22.0008 C   0  0  0  0  0  0  0  0  0  0  0  0
    9.1841  -15.3483   21.9949 C   0  0  0  0  0  0  0  0  0  0  0  0
    9.6014  -15.8130   20.9134 O   0  0  0  0  0  0  0  0  0  0  0  0
    9.8542  -15.6955   23.1923 N   0  0  0  0  0  0  0  0  0  0  0  0
   11.0172  -16.5495   23.1173 C   0  0  0  0  0  0  0  0  0  0  0  0
   12.1230  -15.9540   23.9151 C   0  0  0  0  0  0  0  0  0  0  0  0
   13.0996  -15.2496   23.2638 O   0  0  0  0  0  0  0  0  0  0  0  0
   12.1549  -16.0962   25.1488 O   0  0  0  0  0  0  0  0  0  0  0  0
  2  1  1  1
  2  3  1  0
  3  4  1  0
  5  2  1  0
  6  5  2  0
  7  5  1  0
  8  7  1  0
  9 11  1  0
  9  8  1  0
 10  9  2  0
 12 13  1  0
 12 11  1  0
 13 14  1  0
 15 13  2  0
M  END
$$$$
