PAT.pdb
     RDKit          3D

 20 20  0  0  1  0  0  0  0  0999 V2000
    7.0149  -15.0041   20.1454 N   0  0  0  0  0  0  0  0  0  0  0  0
    6.8096  -14.6584   18.7392 C   0  0  0  0  0  0  0  0  0  0  0  0
    7.3836  -13.2412   18.7182 C   0  0  0  0  0  0  0  0  0  0  0  0
    8.4877  -13.2453   19.7681 C   0  0  0  0  0  0  0  0  0  0  0  0
    8.3816  -14.6196   20.3452 C   0  0  1  0  0  0  0  0  0  0  0  0
    8.8144  -14.7098   21.7492 C   0  0  0  0  0  0  0  0  0  0  0  0
   10.0427  -14.8263   21.9808 O   0  0  0  0  0  0  0  0  0  0  0  0
    7.4351  -14.0325   25.1755 C   0  0  0  0  0  0  0  0  0  0  0  0
    8.4582  -14.6368   24.2285 C   0  0  2  0  0  0  0  0  0  0  0  0
    7.9320  -14.6736   22.8626 N   0  0  0  0  0  0  0  0  0  0  0  0
    8.7648  -16.0082   24.6515 C   0  0  0  0  0  0  0  0  0  0  0  0
    7.9711  -16.9876   24.5219 O   0  0  0  0  0  0  0  0  0  0  0  0
   12.2291  -19.3302   25.3665 C   0  0  0  0  0  0  0  0  0  0  0  0
   11.8743  -17.9041   25.0944 C   0  0  1  0  0  0  0  0  0  0  0  0
   11.8294  -17.7546   23.6894 O   0  0  0  0  0  0  0  0  0  0  0  0
   10.4615  -17.6321   25.5781 C   0  0  2  0  0  0  0  0  0  0  0  0
   10.0242  -16.3040   25.2515 N   0  0  0  0  0  0  0  0  0  0  0  0
   10.2705  -17.9888   26.9862 C   0  0  0  0  0  0  0  0  0  0  0  0
   10.1364  -19.3078   27.3537 O   0  0  0  0  0  0  0  0  0  0  0  0
   10.2280  -17.1022   27.8600 O   0  0  0  0  0  0  0  0  0  0  0  0
  2  1  1  0
  3  2  1  0
  4  3  1  0
  4  5  1  0
  5  1  1  0
  5  6  1  1
  7  6  2  0
  9  8  1  1
  9 10  1  0
  9 11  1  0
 10  6  1  0
 11 17  1  0
 12 11  2  0
 14 13  1  6
 14 15  1  0
 16 14  1  0
 16 18  1  0
 16 17  1  1
 18 20  2  0
 18 19  1  0
M  END
$$$$
