PAT.pdb
     RDKit          3D

 20 20  0  0  1  0  0  0  0  0999 V2000
    7.8565  -15.3012   18.0292 N   0  0  0  0  0  0  0  0  0  0  0  0
    7.6471  -14.9909   16.6153 C   0  0  0  0  0  0  0  0  0  0  0  0
    7.5434  -13.4666   16.6813 C   0  0  0  0  0  0  0  0  0  0  0  0
    8.4398  -13.0585   17.8437 C   0  0  0  0  0  0  0  0  0  0  0  0
    8.8938  -14.3766   18.3817 C   0  0  1  0  0  0  0  0  0  0  0  0
    9.1954  -14.3586   19.8224 C   0  0  0  0  0  0  0  0  0  0  0  0
   10.3927  -14.2169   20.1720 O   0  0  0  0  0  0  0  0  0  0  0  0
    7.4176  -14.2034   23.1446 C   0  0  0  0  0  0  0  0  0  0  0  0
    8.6143  -14.4981   22.2559 C   0  0  2  0  0  0  0  0  0  0  0  0
    8.2187  -14.4912   20.8461 N   0  0  0  0  0  0  0  0  0  0  0  0
    9.1536  -15.8224   22.5865 C   0  0  0  0  0  0  0  0  0  0  0  0
    8.6496  -16.9156   22.1904 O   0  0  0  0  0  0  0  0  0  0  0  0
   13.0130  -18.4576   24.0395 C   0  0  0  0  0  0  0  0  0  0  0  0
   12.4421  -17.1095   23.7384 C   0  0  1  0  0  0  0  0  0  0  0  0
   12.7884  -16.8080   22.4014 O   0  0  0  0  0  0  0  0  0  0  0  0
   10.9263  -17.1849   23.7594 C   0  0  2  0  0  0  0  0  0  0  0  0
   10.3176  -15.9343   23.4027 N   0  0  0  0  0  0  0  0  0  0  0  0
   10.4088  -17.7618   25.0027 C   0  0  0  0  0  0  0  0  0  0  0  0
   10.4223  -19.1245   25.1911 O   0  0  0  0  0  0  0  0  0  0  0  0
    9.9534  -17.0242   25.8972 O   0  0  0  0  0  0  0  0  0  0  0  0
  2  1  1  0
  3  2  1  0
  4  3  1  0
  4  5  1  0
  5  1  1  0
  5  6  1  1
  7  6  2  0
  9  8  1  1
  9 10  1  0
  9 11  1  0
 10  6  1  0
 11 17  1  0
 12 11  2  0
 14 13  1  6
 14 15  1  0
 16 14  1  0
 16 18  1  0
 16 17  1  1
 18 20  2  0
 18 19  1  0
M  END
$$$$
