PAT.pdb
     RDKit          3D

 20 20  0  0  1  0  0  0  0  0999 V2000
   -1.7584  -22.0760   24.9220 N   0  0  0  0  0  0  0  0  0  0  0  0
   -0.7784  -21.0939   24.4593 C   0  0  0  0  0  0  0  0  0  0  0  0
   -0.8069  -21.3655   22.9547 C   0  0  0  0  0  0  0  0  0  0  0  0
   -2.2318  -21.8177   22.6606 C   0  0  0  0  0  0  0  0  0  0  0  0
   -2.8499  -21.8480   24.0208 C   0  0  1  0  0  0  0  0  0  0  0  0
   -3.9362  -22.8317   24.1584 C   0  0  0  0  0  0  0  0  0  0  0  0
   -4.9982  -22.6297   23.5203 O   0  0  0  0  0  0  0  0  0  0  0  0
   -4.6127  -26.2921   24.5441 C   0  0  0  0  0  0  0  0  0  0  0  0
   -4.9998  -24.9152   25.0567 C   0  0  2  0  0  0  0  0  0  0  0  0
   -3.8622  -23.9977   24.9676 N   0  0  0  0  0  0  0  0  0  0  0  0
   -5.4142  -25.0156   26.4610 C   0  0  0  0  0  0  0  0  0  0  0  0
   -6.3795  -25.7279   26.8693 O   0  0  0  0  0  0  0  0  0  0  0  0
   -3.1182  -26.0492   29.1154 C   0  0  0  0  0  0  0  0  0  0  0  0
   -3.6853  -24.7679   29.6353 C   0  0  1  0  0  0  0  0  0  0  0  0
   -2.7616  -23.7490   29.3079 O   0  0  0  0  0  0  0  0  0  0  0  0
   -4.9532  -24.4285   28.8729 C   0  0  2  0  0  0  0  0  0  0  0  0
   -4.7147  -24.2826   27.4645 N   0  0  0  0  0  0  0  0  0  0  0  0
   -5.6849  -23.3077   29.4686 C   0  0  0  0  0  0  0  0  0  0  0  0
   -6.2222  -23.4246   30.7296 O   0  0  0  0  0  0  0  0  0  0  0  0
   -5.8260  -22.2423   28.8389 O   0  0  0  0  0  0  0  0  0  0  0  0
  2  1  1  0
  3  2  1  0
  4  3  1  0
  4  5  1  0
  5  1  1  0
  5  6  1  6
  7  6  2  0
  9  8  1  1
  9 10  1  0
  9 11  1  0
 10  6  1  0
 11 17  1  0
 12 11  2  0
 14 13  1  6
 14 15  1  0
 16 14  1  0
 16 18  1  0
 16 17  1  6
 18 20  2  0
 18 19  1  0
M  END
$$$$
