PAT.pdb
     RDKit          3D

 20 20  0  0  1  0  0  0  0  0999 V2000
    8.8315  -15.0278   19.4689 N   0  0  0  0  0  0  0  0  0  0  0  0
    9.1717  -14.4023   18.1913 C   0  0  0  0  0  0  0  0  0  0  0  0
    7.9141  -13.5660   17.9516 C   0  0  0  0  0  0  0  0  0  0  0  0
    7.4215  -13.1838   19.3417 C   0  0  0  0  0  0  0  0  0  0  0  0
    8.3796  -13.9033   20.2347 C   0  0  1  0  0  0  0  0  0  0  0  0
    7.8102  -14.2762   21.5399 C   0  0  0  0  0  0  0  0  0  0  0  0
    7.3288  -13.3638   22.2551 O   0  0  0  0  0  0  0  0  0  0  0  0
    7.2978  -17.3616   23.6869 C   0  0  0  0  0  0  0  0  0  0  0  0
    7.1752  -15.8843   23.3537 C   0  0  2  0  0  0  0  0  0  0  0  0
    7.7694  -15.6039   22.0452 N   0  0  0  0  0  0  0  0  0  0  0  0
    7.8807  -15.0944   24.3696 C   0  0  0  0  0  0  0  0  0  0  0  0
    9.1270  -14.8649   24.3542 O   0  0  0  0  0  0  0  0  0  0  0  0
    6.6086  -11.6157   25.7850 C   0  0  0  0  0  0  0  0  0  0  0  0
    6.8115  -12.5813   26.9076 C   0  0  1  0  0  0  0  0  0  0  0  0
    5.5664  -13.2107   27.1356 O   0  0  0  0  0  0  0  0  0  0  0  0
    7.7510  -13.6868   26.4616 C   0  0  2  0  0  0  0  0  0  0  0  0
    7.1582  -14.5299   25.4618 N   0  0  0  0  0  0  0  0  0  0  0  0
    8.3297  -14.4223   27.5889 C   0  0  0  0  0  0  0  0  0  0  0  0
    9.0483  -13.7555   28.5540 O   0  0  0  0  0  0  0  0  0  0  0  0
    8.1756  -15.6548   27.6819 O   0  0  0  0  0  0  0  0  0  0  0  0
  2  1  1  0
  3  2  1  0
  4  3  1  0
  4  5  1  0
  5  1  1  0
  5  6  1  1
  7  6  2  0
  9  8  1  1
  9 10  1  0
  9 11  1  0
 10  6  1  0
 11 17  1  0
 12 11  2  0
 14 13  1  6
 14 15  1  0
 16 14  1  0
 16 18  1  0
 16 17  1  6
 18 20  2  0
 18 19  1  0
M  END
$$$$
