PAT.pdb
     RDKit          3D

 20 20  0  0  1  0  0  0  0  0999 V2000
    7.7368  -13.5817   21.7417 N   0  0  0  0  0  0  0  0  0  0  0  0
    6.9926  -12.8590   20.7106 C   0  0  0  0  0  0  0  0  0  0  0  0
    7.6080  -13.4682   19.4501 C   0  0  0  0  0  0  0  0  0  0  0  0
    7.9751  -14.8950   19.8383 C   0  0  0  0  0  0  0  0  0  0  0  0
    7.6224  -14.9374   21.2898 C   0  0  1  0  0  0  0  0  0  0  0  0
    8.4346  -15.8841   22.0715 C   0  0  0  0  0  0  0  0  0  0  0  0
    7.9282  -16.9957   22.3608 O   0  0  0  0  0  0  0  0  0  0  0  0
   11.9220  -16.7504   22.7398 C   0  0  0  0  0  0  0  0  0  0  0  0
   10.5027  -16.6360   23.2700 C   0  0  2  0  0  0  0  0  0  0  0  0
    9.7570  -15.6224   22.5214 N   0  0  0  0  0  0  0  0  0  0  0  0
   10.5398  -16.2440   24.6838 C   0  0  0  0  0  0  0  0  0  0  0  0
   11.2515  -16.8157   25.5628 O   0  0  0  0  0  0  0  0  0  0  0  0
    8.8351  -13.0357   28.0816 C   0  0  0  0  0  0  0  0  0  0  0  0
    8.6483  -13.6365   26.7259 C   0  0  1  0  0  0  0  0  0  0  0  0
    8.9737  -12.6326   25.7852 O   0  0  0  0  0  0  0  0  0  0  0  0
    9.6702  -14.7388   26.5149 C   0  0  2  0  0  0  0  0  0  0  0  0
    9.7405  -15.1558   25.1427 N   0  0  0  0  0  0  0  0  0  0  0  0
    9.5086  -15.8447   27.4622 C   0  0  0  0  0  0  0  0  0  0  0  0
   10.0503  -15.7595   28.7239 O   0  0  0  0  0  0  0  0  0  0  0  0
    8.8805  -16.8688   27.1330 O   0  0  0  0  0  0  0  0  0  0  0  0
  2  1  1  0
  3  2  1  0
  4  3  1  0
  4  5  1  0
  5  1  1  0
  5  6  1  1
  7  6  2  0
  9  8  1  6
  9 10  1  0
  9 11  1  0
 10  6  1  0
 11 17  1  0
 12 11  2  0
 14 13  1  1
 14 15  1  0
 16 14  1  0
 16 18  1  0
 16 17  1  6
 18 20  2  0
 18 19  1  0
M  END
$$$$
