PAT.pdb
     RDKit          3D

 20 20  0  0  1  0  0  0  0  0999 V2000
    7.1377  -14.9896   19.9829 N   0  0  0  0  0  0  0  0  0  0  0  0
    6.8742  -14.5450   18.6147 C   0  0  0  0  0  0  0  0  0  0  0  0
    7.1127  -13.0419   18.7637 C   0  0  0  0  0  0  0  0  0  0  0  0
    8.1781  -12.9151   19.8454 C   0  0  0  0  0  0  0  0  0  0  0  0
    8.3797  -14.3336   20.2702 C   0  0  1  0  0  0  0  0  0  0  0  0
    8.8070  -14.4796   21.6712 C   0  0  0  0  0  0  0  0  0  0  0  0
   10.0367  -14.5737   21.9053 O   0  0  0  0  0  0  0  0  0  0  0  0
    7.3938  -13.9717   25.1094 C   0  0  0  0  0  0  0  0  0  0  0  0
    8.4346  -14.5219   24.1488 C   0  0  2  0  0  0  0  0  0  0  0  0
    7.9177  -14.5211   22.7789 N   0  0  0  0  0  0  0  0  0  0  0  0
    8.7661  -15.9010   24.5256 C   0  0  0  0  0  0  0  0  0  0  0  0
    7.9641  -16.8776   24.4301 O   0  0  0  0  0  0  0  0  0  0  0  0
   12.2589  -19.2288   25.3367 C   0  0  0  0  0  0  0  0  0  0  0  0
   11.9005  -17.8271   24.9619 C   0  0  1  0  0  0  0  0  0  0  0  0
   11.8715  -17.7761   23.5494 O   0  0  0  0  0  0  0  0  0  0  0  0
   10.4807  -17.5301   25.4092 C   0  0  2  0  0  0  0  0  0  0  0  0
   10.0616  -16.2083   25.0365 N   0  0  0  0  0  0  0  0  0  0  0  0
   10.2587  -17.8450   26.8227 C   0  0  0  0  0  0  0  0  0  0  0  0
    9.9024  -19.1192   27.1998 O   0  0  0  0  0  0  0  0  0  0  0  0
   10.3906  -16.9632   27.6924 O   0  0  0  0  0  0  0  0  0  0  0  0
  2  1  1  0
  3  2  1  0
  4  3  1  0
  4  5  1  0
  5  1  1  0
  5  6  1  1
  7  6  2  0
  9  8  1  1
  9 10  1  0
  9 11  1  0
 10  6  1  0
 11 17  1  0
 12 11  2  0
 14 13  1  6
 14 15  1  0
 16 14  1  0
 16 18  1  0
 16 17  1  1
 18 20  2  0
 18 19  1  0
M  END
$$$$
