VDV.pdb
     RDKit          3D

 23 22  0  0  1  0  0  0  0  0999 V2000
    7.2172  -12.8117   20.0474 C   0  0  0  0  0  0  0  0  0  0  0  0
    8.5810  -13.3114   19.5747 C   0  0  2  0  0  0  0  0  0  0  0  0
    8.9363  -12.6481   18.2634 C   0  0  0  0  0  0  0  0  0  0  0  0
    8.5624  -14.8219   19.4504 C   0  0  2  0  0  0  0  0  0  0  0  0
    7.7916  -15.1861   18.2830 N   0  0  0  0  0  0  0  0  0  0  0  0
    8.0723  -15.4873   20.6746 C   0  0  0  0  0  0  0  0  0  0  0  0
    6.8980  -15.8831   20.8263 O   0  0  0  0  0  0  0  0  0  0  0  0
    8.9689  -15.7095   21.7759 N   0  0  0  0  0  0  0  0  0  0  0  0
    8.4791  -16.2274   23.0462 C   0  0  1  0  0  0  0  0  0  0  0  0
    9.0604  -17.5851   23.3758 C   0  0  0  0  0  0  0  0  0  0  0  0
    8.7520  -18.0226   24.7577 C   0  0  0  0  0  0  0  0  0  0  0  0
    7.5562  -18.2237   25.0832 O   0  0  0  0  0  0  0  0  0  0  0  0
    8.7921  -15.2570   24.1118 C   0  0  0  0  0  0  0  0  0  0  0  0
    9.9640  -14.9341   24.3331 O   0  0  0  0  0  0  0  0  0  0  0  0
    9.7136  -18.2245   25.7209 O   0  0  0  0  0  0  0  0  0  0  0  0
    7.3370  -11.4693   26.9294 C   0  0  0  0  0  0  0  0  0  0  0  0
    6.9939  -12.5926   26.0109 C   0  0  2  0  0  0  0  0  0  0  0  0
    5.7122  -13.2316   26.4645 C   0  0  0  0  0  0  0  0  0  0  0  0
    8.0489  -13.6668   25.9304 C   0  0  2  0  0  0  0  0  0  0  0  0
    7.7833  -14.6520   24.9264 N   0  0  0  0  0  0  0  0  0  0  0  0
    8.3720  -14.2384   27.2532 C   0  0  0  0  0  0  0  0  0  0  0  0
    8.0082  -15.4149   27.4944 O   0  0  0  0  0  0  0  0  0  0  0  0
    9.0511  -13.5823   28.2673 O   0  0  0  0  0  0  0  0  0  0  0  0
  2  1  1  6
  2  3  1  0
  4  6  1  0
  4  2  1  0
  4  5  1  6
  6  7  2  0
  6  8  1  0
  8  9  1  0
  9 13  1  0
  9 10  1  1
 11 10  1  0
 12 11  2  0
 13 14  2  0
 13 20  1  0
 15 11  1  0
 17 16  1  1
 17 18  1  0
 19 21  1  0
 19 17  1  0
 19 20  1  6
 21 23  1  0
 22 21  2  0
M  END
$$$$
