VDV.pdb
     RDKit          3D

 23 22  0  0  1  0  0  0  0  0999 V2000
    7.7323  -12.6310   18.6293 C   0  0  0  0  0  0  0  0  0  0  0  0
    7.5093  -13.3271   19.9705 C   0  0  2  0  0  0  0  0  0  0  0  0
    8.2028  -12.5493   21.0658 C   0  0  0  0  0  0  0  0  0  0  0  0
    8.0070  -14.7569   19.8988 C   0  0  2  0  0  0  0  0  0  0  0  0
    7.2456  -15.4680   18.8966 N   0  0  0  0  0  0  0  0  0  0  0  0
    7.9773  -15.4359   21.2102 C   0  0  0  0  0  0  0  0  0  0  0  0
    6.9614  -15.9857   21.6839 O   0  0  0  0  0  0  0  0  0  0  0  0
    9.1664  -15.4873   22.0162 N   0  0  0  0  0  0  0  0  0  0  0  0
    9.1763  -16.1934   23.2902 C   0  0  1  0  0  0  0  0  0  0  0  0
   10.2053  -17.3024   23.3246 C   0  0  0  0  0  0  0  0  0  0  0  0
   10.2691  -17.9870   24.6375 C   0  0  0  0  0  0  0  0  0  0  0  0
    9.2048  -18.2013   25.2679 O   0  0  0  0  0  0  0  0  0  0  0  0
    9.4231  -15.2235   24.3735 C   0  0  0  0  0  0  0  0  0  0  0  0
   10.5703  -14.8253   24.6012 O   0  0  0  0  0  0  0  0  0  0  0  0
   11.4444  -18.4085   25.2158 O   0  0  0  0  0  0  0  0  0  0  0  0
    6.1528  -13.3696   26.6805 C   0  0  0  0  0  0  0  0  0  0  0  0
    7.5313  -12.8208   26.5331 C   0  0  2  0  0  0  0  0  0  0  0  0
    7.5736  -11.8946   25.3509 C   0  0  0  0  0  0  0  0  0  0  0  0
    8.5957  -13.8715   26.3422 C   0  0  2  0  0  0  0  0  0  0  0  0
    8.3759  -14.7039   25.1985 N   0  0  0  0  0  0  0  0  0  0  0  0
    8.8709  -14.6253   27.5819 C   0  0  0  0  0  0  0  0  0  0  0  0
    8.6656  -15.8633   27.5797 O   0  0  0  0  0  0  0  0  0  0  0  0
    9.3425  -14.0801   28.7653 O   0  0  0  0  0  0  0  0  0  0  0  0
  2  1  1  6
  2  3  1  0
  4  6  1  0
  4  2  1  0
  4  5  1  6
  6  7  2  0
  6  8  1  0
  8  9  1  0
  9 13  1  0
  9 10  1  6
 11 10  1  0
 12 11  2  0
 13 14  2  0
 13 20  1  0
 15 11  1  0
 17 16  1  6
 17 18  1  0
 19 21  1  0
 19 17  1  0
 19 20  1  6
 21 23  1  0
 22 21  2  0
M  END
$$$$
