VDV.pdb
     RDKit          3D

 23 22  0  0  1  0  0  0  0  0999 V2000
    7.0556  -12.8476   20.6975 C   0  0  0  0  0  0  0  0  0  0  0  0
    8.2484  -13.2836   19.8488 C   0  0  2  0  0  0  0  0  0  0  0  0
    8.2155  -12.5616   18.5209 C   0  0  0  0  0  0  0  0  0  0  0  0
    8.2304  -14.7883   19.6678 C   0  0  2  0  0  0  0  0  0  0  0  0
    7.1071  -15.1458   18.8311 N   0  0  0  0  0  0  0  0  0  0  0  0
    8.2245  -15.5157   20.9533 C   0  0  0  0  0  0  0  0  0  0  0  0
    7.1946  -15.9857   21.4798 O   0  0  0  0  0  0  0  0  0  0  0  0
    9.4554  -15.7138   21.6688 N   0  0  0  0  0  0  0  0  0  0  0  0
    9.4695  -16.3870   22.9605 C   0  0  1  0  0  0  0  0  0  0  0  0
   10.6057  -17.3794   23.0790 C   0  0  0  0  0  0  0  0  0  0  0  0
   10.6669  -18.0272   24.4105 C   0  0  0  0  0  0  0  0  0  0  0  0
    9.5983  -18.3691   24.9740 O   0  0  0  0  0  0  0  0  0  0  0  0
    9.5536  -15.3730   24.0282 C   0  0  0  0  0  0  0  0  0  0  0  0
   10.4867  -14.5633   24.0438 O   0  0  0  0  0  0  0  0  0  0  0  0
   11.8439  -18.2803   25.0766 O   0  0  0  0  0  0  0  0  0  0  0  0
    7.5087  -12.2116   27.0296 C   0  0  0  0  0  0  0  0  0  0  0  0
    7.4210  -13.3513   26.0722 C   0  0  2  0  0  0  0  0  0  0  0  0
    6.1958  -14.1648   26.3789 C   0  0  0  0  0  0  0  0  0  0  0  0
    8.6137  -14.2733   26.1008 C   0  0  2  0  0  0  0  0  0  0  0  0
    8.5853  -15.2733   25.0769 N   0  0  0  0  0  0  0  0  0  0  0  0
    8.8761  -14.8119   27.4506 C   0  0  0  0  0  0  0  0  0  0  0  0
    8.8625  -16.0573   27.6037 O   0  0  0  0  0  0  0  0  0  0  0  0
    9.1402  -14.0541   28.5801 O   0  0  0  0  0  0  0  0  0  0  0  0
  2  1  1  1
  2  3  1  0
  4  6  1  0
  4  2  1  0
  4  5  1  1
  6  7  2  0
  6  8  1  0
  8  9  1  0
  9 13  1  0
  9 10  1  6
 11 10  1  0
 12 11  2  0
 13 14  2  0
 13 20  1  0
 15 11  1  0
 17 16  1  1
 17 18  1  0
 19 21  1  0
 19 17  1  0
 19 20  1  6
 21 23  1  0
 22 21  2  0
M  END
$$$$
