VDV.pdb
     RDKit          3D

 23 22  0  0  1  0  0  0  0  0999 V2000
    7.0643  -12.6370   20.6900 C   0  0  0  0  0  0  0  0  0  0  0  0
    8.3197  -13.1421   19.9818 C   0  0  2  0  0  0  0  0  0  0  0  0
    8.4720  -12.4335   18.6550 C   0  0  0  0  0  0  0  0  0  0  0  0
    8.2441  -14.6458   19.8072 C   0  0  2  0  0  0  0  0  0  0  0  0
    7.2501  -14.9511   18.8031 N   0  0  0  0  0  0  0  0  0  0  0  0
    7.9912  -15.3539   21.0785 C   0  0  0  0  0  0  0  0  0  0  0  0
    6.8527  -15.6695   21.4822 O   0  0  0  0  0  0  0  0  0  0  0  0
    9.0935  -15.7172   21.9266 N   0  0  0  0  0  0  0  0  0  0  0  0
    8.8653  -16.3323   23.2272 C   0  0  1  0  0  0  0  0  0  0  0  0
    9.6579  -17.6088   23.4062 C   0  0  0  0  0  0  0  0  0  0  0  0
    9.4016  -18.2669   24.7090 C   0  0  0  0  0  0  0  0  0  0  0  0
    8.3716  -17.9591   25.3576 O   0  0  0  0  0  0  0  0  0  0  0  0
    9.2037  -15.3597   24.2829 C   0  0  0  0  0  0  0  0  0  0  0  0
   10.3516  -14.9111   24.3694 O   0  0  0  0  0  0  0  0  0  0  0  0
   10.2387  -19.2103   25.2590 O   0  0  0  0  0  0  0  0  0  0  0  0
    6.1453  -13.2623   26.6010 C   0  0  0  0  0  0  0  0  0  0  0  0
    7.5493  -12.8214   26.3610 C   0  0  2  0  0  0  0  0  0  0  0  0
    7.6138  -12.0456   25.0761 C   0  0  0  0  0  0  0  0  0  0  0  0
    8.5439  -13.9513   26.2754 C   0  0  2  0  0  0  0  0  0  0  0  0
    8.2472  -14.8942   25.2398 N   0  0  0  0  0  0  0  0  0  0  0  0
    8.8030  -14.5736   27.5893 C   0  0  0  0  0  0  0  0  0  0  0  0
    8.5362  -15.7917   27.7302 O   0  0  0  0  0  0  0  0  0  0  0  0
    9.3222  -13.9234   28.6973 O   0  0  0  0  0  0  0  0  0  0  0  0
  2  1  1  6
  2  3  1  0
  4  6  1  0
  4  2  1  0
  4  5  1  6
  6  7  2  0
  6  8  1  0
  8  9  1  0
  9 13  1  0
  9 10  1  1
 11 10  1  0
 12 11  2  0
 13 14  2  0
 13 20  1  0
 15 11  1  0
 17 16  1  6
 17 18  1  0
 19 21  1  0
 19 17  1  0
 19 20  1  6
 21 23  1  0
 22 21  2  0
M  END
$$$$
