VDV.pdb
     RDKit          3D

 23 22  0  0  1  0  0  0  0  0999 V2000
    7.1099  -15.3423   19.2728 C   0  0  0  0  0  0  0  0  0  0  0  0
    7.2800  -13.8648   19.6209 C   0  0  2  0  0  0  0  0  0  0  0  0
    7.3412  -13.0492   18.3493 C   0  0  0  0  0  0  0  0  0  0  0  0
    8.5222  -13.6739   20.4681 C   0  0  2  0  0  0  0  0  0  0  0  0
    9.6893  -13.8928   19.6437 N   0  0  0  0  0  0  0  0  0  0  0  0
    8.5229  -14.5239   21.6760 C   0  0  0  0  0  0  0  0  0  0  0  0
    7.5830  -14.5637   22.4969 O   0  0  0  0  0  0  0  0  0  0  0  0
    9.6526  -15.3672   21.9566 N   0  0  0  0  0  0  0  0  0  0  0  0
    9.6712  -16.2253   23.1336 C   0  0  1  0  0  0  0  0  0  0  0  0
   10.7496  -17.2841   23.0559 C   0  0  0  0  0  0  0  0  0  0  0  0
   10.5187  -18.2611   21.9658 C   0  0  0  0  0  0  0  0  0  0  0  0
    9.3453  -18.6285   21.7121 O   0  0  0  0  0  0  0  0  0  0  0  0
    9.8526  -15.3879   24.3339 C   0  0  0  0  0  0  0  0  0  0  0  0
   10.8752  -14.7077   24.4681 O   0  0  0  0  0  0  0  0  0  0  0  0
   11.5300  -18.7980   21.2028 O   0  0  0  0  0  0  0  0  0  0  0  0
    8.2536  -12.4099   27.7259 C   0  0  0  0  0  0  0  0  0  0  0  0
    8.0330  -13.3566   26.5954 C   0  0  2  0  0  0  0  0  0  0  0  0
    6.6505  -13.9360   26.6948 C   0  0  0  0  0  0  0  0  0  0  0  0
    9.0162  -14.4987   26.5472 C   0  0  2  0  0  0  0  0  0  0  0  0
    8.8805  -15.3185   25.3816 N   0  0  0  0  0  0  0  0  0  0  0  0
    9.0532  -15.2629   27.8103 C   0  0  0  0  0  0  0  0  0  0  0  0
    8.7130  -16.4704   27.7816 O   0  0  0  0  0  0  0  0  0  0  0  0
    9.4356  -14.7587   29.0430 O   0  0  0  0  0  0  0  0  0  0  0  0
  2  1  1  6
  2  3  1  0
  4  6  1  0
  4  2  1  0
  4  5  1  6
  6  7  2  0
  6  8  1  0
  8  9  1  0
  9 13  1  0
  9 10  1  6
 11 10  1  0
 12 11  2  0
 13 14  2  0
 13 20  1  0
 15 11  1  0
 17 16  1  1
 17 18  1  0
 19 21  1  0
 19 17  1  0
 19 20  1  6
 21 23  1  0
 22 21  2  0
M  END
$$$$
