VDV.pdb
     RDKit          3D

 23 22  0  0  1  0  0  0  0  0999 V2000
    7.1652  -12.7271   20.9122 C   0  0  0  0  0  0  0  0  0  0  0  0
    8.2441  -13.3156   20.0052 C   0  0  2  0  0  0  0  0  0  0  0  0
    8.1431  -12.6951   18.6303 C   0  0  0  0  0  0  0  0  0  0  0  0
    8.1052  -14.8239   19.9497 C   0  0  2  0  0  0  0  0  0  0  0  0
    6.8994  -15.1566   19.2250 N   0  0  0  0  0  0  0  0  0  0  0  0
    8.1443  -15.4483   21.2876 C   0  0  0  0  0  0  0  0  0  0  0  0
    7.1260  -15.7937   21.9221 O   0  0  0  0  0  0  0  0  0  0  0  0
    9.4085  -15.6882   21.9284 N   0  0  0  0  0  0  0  0  0  0  0  0
    9.4740  -16.3118   23.2432 C   0  0  1  0  0  0  0  0  0  0  0  0
   10.6435  -17.2637   23.3702 C   0  0  0  0  0  0  0  0  0  0  0  0
   10.7563  -17.8589   24.7227 C   0  0  0  0  0  0  0  0  0  0  0  0
    9.7099  -18.1608   25.3473 O   0  0  0  0  0  0  0  0  0  0  0  0
    9.5508  -15.2565   24.2706 C   0  0  0  0  0  0  0  0  0  0  0  0
   10.4394  -14.3998   24.2158 O   0  0  0  0  0  0  0  0  0  0  0  0
   11.9589  -18.1041   25.3446 O   0  0  0  0  0  0  0  0  0  0  0  0
    6.2210  -13.9953   26.7593 C   0  0  0  0  0  0  0  0  0  0  0  0
    7.4993  -13.2859   26.4665 C   0  0  2  0  0  0  0  0  0  0  0  0
    7.3805  -12.5702   25.1510 C   0  0  0  0  0  0  0  0  0  0  0  0
    8.7044  -14.1897   26.3999 C   0  0  2  0  0  0  0  0  0  0  0  0
    8.6254  -15.1686   25.3584 N   0  0  0  0  0  0  0  0  0  0  0  0
    9.0595  -14.7521   27.7184 C   0  0  0  0  0  0  0  0  0  0  0  0
    9.3116  -13.9543   28.6537 O   0  0  0  0  0  0  0  0  0  0  0  0
    9.1404  -16.1020   28.0201 O   0  0  0  0  0  0  0  0  0  0  0  0
  2  1  1  1
  2  3  1  0
  4  6  1  0
  4  2  1  0
  4  5  1  1
  6  7  2  0
  6  8  1  0
  8  9  1  0
  9 13  1  0
  9 10  1  6
 11 10  1  0
 12 11  2  0
 13 14  2  0
 13 20  1  0
 15 11  1  0
 17 16  1  6
 17 18  1  0
 19 21  1  0
 19 17  1  0
 19 20  1  6
 21 23  1  0
 22 21  2  0
M  END
$$$$
