VDV.pdb
     RDKit          3D

 23 22  0  0  1  0  0  0  0  0999 V2000
    8.0969  -12.5585   18.2970 C   0  0  0  0  0  0  0  0  0  0  0  0
    7.6181  -13.3403   19.5187 C   0  0  2  0  0  0  0  0  0  0  0  0
    7.9409  -12.5636   20.7750 C   0  0  0  0  0  0  0  0  0  0  0  0
    8.2541  -14.7160   19.5329 C   0  0  2  0  0  0  0  0  0  0  0  0
    7.8119  -15.4482   18.3674 N   0  0  0  0  0  0  0  0  0  0  0  0
    7.9929  -15.4505   20.7874 C   0  0  0  0  0  0  0  0  0  0  0  0
    6.9942  -16.1769   20.9711 O   0  0  0  0  0  0  0  0  0  0  0  0
    8.9186  -15.3479   21.8823 N   0  0  0  0  0  0  0  0  0  0  0  0
    8.6742  -16.0479   23.1362 C   0  0  1  0  0  0  0  0  0  0  0  0
    9.4433  -17.3479   23.2281 C   0  0  0  0  0  0  0  0  0  0  0  0
    9.3073  -18.0042   24.5499 C   0  0  0  0  0  0  0  0  0  0  0  0
    8.1596  -18.2439   24.9985 O   0  0  0  0  0  0  0  0  0  0  0  0
    9.0256  -15.1574   24.2581 C   0  0  0  0  0  0  0  0  0  0  0  0
   10.1864  -14.7564   24.3929 O   0  0  0  0  0  0  0  0  0  0  0  0
   10.3814  -18.3723   25.3270 O   0  0  0  0  0  0  0  0  0  0  0  0
    5.9597  -13.2392   26.6959 C   0  0  0  0  0  0  0  0  0  0  0  0
    7.3553  -12.7486   26.5097 C   0  0  2  0  0  0  0  0  0  0  0  0
    7.4090  -11.8465   25.3096 C   0  0  0  0  0  0  0  0  0  0  0  0
    8.3731  -13.8442   26.3169 C   0  0  2  0  0  0  0  0  0  0  0  0
    8.0674  -14.7203   25.2268 N   0  0  0  0  0  0  0  0  0  0  0  0
    8.6862  -14.5493   27.5762 C   0  0  0  0  0  0  0  0  0  0  0  0
    8.4440  -15.7788   27.6420 O   0  0  0  0  0  0  0  0  0  0  0  0
    9.2317  -13.9662   28.7086 O   0  0  0  0  0  0  0  0  0  0  0  0
  2  1  1  6
  2  3  1  0
  4  6  1  0
  4  2  1  0
  4  5  1  6
  6  7  2  0
  6  8  1  0
  8  9  1  0
  9 13  1  0
  9 10  1  6
 11 10  1  0
 12 11  2  0
 13 14  2  0
 13 20  1  0
 15 11  1  0
 17 16  1  6
 17 18  1  0
 19 21  1  0
 19 17  1  0
 19 20  1  6
 21 23  1  0
 22 21  2  0
M  END
$$$$
