VDV.pdb
     RDKit          3D

 23 22  0  0  1  0  0  0  0  0999 V2000
    6.9460  -12.9490   21.1107 C   0  0  0  0  0  0  0  0  0  0  0  0
    8.1757  -13.2660   20.2620 C   0  0  2  0  0  0  0  0  0  0  0  0
    8.0353  -12.6150   18.9047 C   0  0  0  0  0  0  0  0  0  0  0  0
    8.3503  -14.7671   20.1469 C   0  0  2  0  0  0  0  0  0  0  0  0
    7.2444  -15.3104   19.3907 N   0  0  0  0  0  0  0  0  0  0  0  0
    8.5062  -15.4240   21.4606 C   0  0  0  0  0  0  0  0  0  0  0  0
    7.5634  -15.9442   22.0924 O   0  0  0  0  0  0  0  0  0  0  0  0
    9.8022  -15.4877   22.0791 N   0  0  0  0  0  0  0  0  0  0  0  0
    9.9804  -16.1223   23.3781 C   0  0  1  0  0  0  0  0  0  0  0  0
   11.3329  -16.7878   23.5120 C   0  0  0  0  0  0  0  0  0  0  0  0
   11.5267  -17.8954   22.5466 C   0  0  0  0  0  0  0  0  0  0  0  0
   10.6257  -18.7603   22.4190 O   0  0  0  0  0  0  0  0  0  0  0  0
    9.7936  -15.1108   24.4350 C   0  0  0  0  0  0  0  0  0  0  0  0
   10.1318  -13.9387   24.2396 O   0  0  0  0  0  0  0  0  0  0  0  0
   12.6536  -18.0345   21.7694 O   0  0  0  0  0  0  0  0  0  0  0  0
    6.5991  -14.3447   26.7868 C   0  0  0  0  0  0  0  0  0  0  0  0
    7.8907  -13.6062   26.6907 C   0  0  2  0  0  0  0  0  0  0  0  0
    7.9474  -12.8724   25.3810 C   0  0  0  0  0  0  0  0  0  0  0  0
    9.1118  -14.4854   26.7872 C   0  0  2  0  0  0  0  0  0  0  0  0
    9.2258  -15.4223   25.7109 N   0  0  0  0  0  0  0  0  0  0  0  0
    9.2622  -15.0947   28.1240 C   0  0  0  0  0  0  0  0  0  0  0  0
    9.2512  -16.3467   28.2083 O   0  0  0  0  0  0  0  0  0  0  0  0
    9.4168  -14.3975   29.3114 O   0  0  0  0  0  0  0  0  0  0  0  0
  2  1  1  1
  2  3  1  0
  4  6  1  0
  4  2  1  0
  4  5  1  1
  6  7  2  0
  6  8  1  0
  8  9  1  0
  9 13  1  0
  9 10  1  6
 11 10  1  0
 12 11  2  0
 13 14  2  0
 13 20  1  0
 15 11  1  0
 17 16  1  6
 17 18  1  0
 19 21  1  0
 19 17  1  0
 19 20  1  6
 21 23  1  0
 22 21  2  0
M  END
$$$$
