VDV.pdb
     RDKit          3D

 23 22  0  0  1  0  0  0  0  0999 V2000
    7.0526  -12.8605   20.6911 C   0  0  0  0  0  0  0  0  0  0  0  0
    8.3561  -13.2808   20.0149 C   0  0  2  0  0  0  0  0  0  0  0  0
    8.4659  -12.6081   18.6654 C   0  0  0  0  0  0  0  0  0  0  0  0
    8.4108  -14.7906   19.8932 C   0  0  2  0  0  0  0  0  0  0  0  0
    7.3948  -15.2222   18.9598 N   0  0  0  0  0  0  0  0  0  0  0  0
    8.2963  -15.4710   21.1992 C   0  0  0  0  0  0  0  0  0  0  0  0
    7.2211  -15.9022   21.6649 O   0  0  0  0  0  0  0  0  0  0  0  0
    9.4676  -15.6663   22.0092 N   0  0  0  0  0  0  0  0  0  0  0  0
    9.3703  -16.2698   23.3314 C   0  0  1  0  0  0  0  0  0  0  0  0
   10.4213  -17.3352   23.5556 C   0  0  0  0  0  0  0  0  0  0  0  0
   10.3799  -18.4078   22.5337 C   0  0  0  0  0  0  0  0  0  0  0  0
    9.4066  -19.2007   22.5183 O   0  0  0  0  0  0  0  0  0  0  0  0
    9.4810  -15.2099   24.3509 C   0  0  0  0  0  0  0  0  0  0  0  0
   10.4948  -14.5062   24.4078 O   0  0  0  0  0  0  0  0  0  0  0  0
   11.3604  -18.5892   21.5857 O   0  0  0  0  0  0  0  0  0  0  0  0
    6.1137  -13.5739   26.4559 C   0  0  0  0  0  0  0  0  0  0  0  0
    7.4914  -13.0043   26.4707 C   0  0  2  0  0  0  0  0  0  0  0  0
    7.6573  -12.0744   25.3025 C   0  0  0  0  0  0  0  0  0  0  0  0
    8.5866  -14.0385   26.4043 C   0  0  2  0  0  0  0  0  0  0  0  0
    8.4481  -14.9450   25.3051 N   0  0  0  0  0  0  0  0  0  0  0  0
    8.8082  -14.7075   27.7021 C   0  0  0  0  0  0  0  0  0  0  0  0
    9.1142  -13.9965   28.6898 O   0  0  0  0  0  0  0  0  0  0  0  0
    8.7070  -16.0704   27.9305 O   0  0  0  0  0  0  0  0  0  0  0  0
  2  1  1  6
  2  3  1  0
  4  6  1  0
  4  2  1  0
  4  5  1  6
  6  7  2  0
  6  8  1  0
  8  9  1  0
  9 13  1  0
  9 10  1  1
 11 10  1  0
 12 11  2  0
 13 14  2  0
 13 20  1  0
 15 11  1  0
 17 16  1  6
 17 18  1  0
 19 21  1  0
 19 17  1  0
 19 20  1  6
 21 23  1  0
 22 21  2  0
M  END
$$$$
