YNR.pdb
     RDKit          3D

 32 32  0  0  1  0  0  0  0  0999 V2000
   19.3817  -22.9132   -7.8267 O   0  0  0  0  0  0  0  0  0  0  0  0
   20.4426  -22.1559   -8.3067 C   0  0  0  0  0  0  0  0  0  0  0  0
   21.4307  -21.6522   -7.4822 C   0  0  0  0  0  0  0  0  0  0  0  0
   22.4783  -20.9021   -7.9684 C   0  0  0  0  0  0  0  0  0  0  0  0
   22.5395  -20.6468   -9.3294 C   0  0  0  0  0  0  0  0  0  0  0  0
   23.6775  -19.8365   -9.8234 C   0  0  0  0  0  0  0  0  0  0  0  0
   24.7769  -20.8357  -10.2034 C   0  0  2  0  0  0  0  0  0  0  0  0
   25.7498  -20.9343   -9.1323 N   0  0  0  0  0  0  0  0  0  0  0  0
   25.4033  -20.3922  -11.4642 C   0  0  0  0  0  0  0  0  0  0  0  0
   26.2738  -19.4942  -11.4347 O   0  0  0  0  0  0  0  0  0  0  0  0
   21.5641  -21.1417  -10.1575 C   0  0  0  0  0  0  0  0  0  0  0  0
   20.4996  -21.9039   -9.6623 C   0  0  0  0  0  0  0  0  0  0  0  0
   28.3390  -19.7843  -15.7839 N   0  0  0  0  0  0  0  0  0  0  0  0
   27.4503  -20.8665  -15.5951 C   0  0  0  0  0  0  0  0  0  0  0  0
   27.1288  -21.5068  -16.6515 O   0  0  0  0  0  0  0  0  0  0  0  0
   26.8910  -21.2917  -14.3188 C   0  0  0  0  0  0  0  0  0  0  0  0
   25.6088  -20.5789  -13.9761 C   0  0  2  0  0  0  0  0  0  0  0  0
   25.0488  -20.9597  -12.7233 N   0  0  0  0  0  0  0  0  0  0  0  0
   24.5991  -20.6542  -15.0339 C   0  0  0  0  0  0  0  0  0  0  0  0
   24.0174  -21.7613  -15.2203 O   0  0  0  0  0  0  0  0  0  0  0  0
   19.8938  -13.8120  -16.3538 N   0  0  0  0  0  0  0  0  0  0  0  0
   19.5185  -14.8300  -15.4113 C   0  0  0  0  0  0  0  0  0  0  0  0
   18.5728  -14.5673  -14.5795 N   0  0  0  0  0  0  0  0  0  0  0  0
   20.1946  -16.0758  -15.4291 N   0  0  0  0  0  0  0  0  0  0  0  0
   21.3557  -16.2858  -16.2962 C   0  0  0  0  0  0  0  0  0  0  0  0
   21.8581  -17.6709  -16.0411 C   0  0  0  0  0  0  0  0  0  0  0  0
   22.6623  -18.2627  -17.1428 C   0  0  0  0  0  0  0  0  0  0  0  0
   23.2532  -19.5898  -16.8919 C   0  0  2  0  0  0  0  0  0  0  0  0
   24.2492  -19.5418  -15.8533 N   0  0  0  0  0  0  0  0  0  0  0  0
   23.6750  -20.3470  -18.0964 C   0  0  0  0  0  0  0  0  0  0  0  0
   24.7276  -20.1532  -18.7141 O   0  0  0  0  0  0  0  0  0  0  0  0
   22.8410  -21.3401  -18.5751 O   0  0  0  0  0  0  0  0  0  0  0  0
  2  3  2  0
  2  1  1  0
  4  3  1  0
  5  4  2  0
  6  7  1  0
  6  5  1  0
  7  8  1  1
  9  7  1  0
  9 10  2  0
 11 12  2  0
 11  5  1  0
 12  2  1  0
 13 14  1  0
 14 15  2  0
 17 16  1  6
 16 14  1  0
 17 18  1  0
 18  9  1  0
 19 17  1  0
 20 19  2  0
 22 23  2  0
 22 21  1  0
 24 22  1  0
 25 24  1  0
 26 25  1  0
 26 27  1  0
 28 27  1  6
 28 29  1  0
 29 19  1  0
 30 28  1  0
 31 30  2  0
 32 30  1  0
M  END
$$$$
