YNR.pdb
     RDKit          3D

 32 32  0  0  1  0  0  0  0  0999 V2000
   29.4134  -20.6137   -3.6615 O   0  0  0  0  0  0  0  0  0  0  0  0
   28.7944  -20.3597   -4.8788 C   0  0  0  0  0  0  0  0  0  0  0  0
   27.5323  -20.8319   -5.1849 C   0  0  0  0  0  0  0  0  0  0  0  0
   26.9276  -20.5745   -6.3952 C   0  0  0  0  0  0  0  0  0  0  0  0
   27.6110  -19.8166   -7.3333 C   0  0  0  0  0  0  0  0  0  0  0  0
   26.9357  -19.5565   -8.6264 C   0  0  0  0  0  0  0  0  0  0  0  0
   27.1221  -20.8262   -9.4658 C   0  0  2  0  0  0  0  0  0  0  0  0
   28.5349  -21.0924   -9.6561 N   0  0  0  0  0  0  0  0  0  0  0  0
   26.4268  -20.6464  -10.7554 C   0  0  0  0  0  0  0  0  0  0  0  0
   26.9322  -19.9051  -11.6273 O   0  0  0  0  0  0  0  0  0  0  0  0
   28.8645  -19.3426   -7.0403 C   0  0  0  0  0  0  0  0  0  0  0  0
   29.4783  -19.6050   -5.8100 C   0  0  0  0  0  0  0  0  0  0  0  0
   26.5719  -21.1456  -14.4645 N   0  0  0  0  0  0  0  0  0  0  0  0
   25.9214  -22.2302  -13.8346 C   0  0  0  0  0  0  0  0  0  0  0  0
   26.5852  -23.3195  -13.7879 O   0  0  0  0  0  0  0  0  0  0  0  0
   24.5868  -22.1959  -13.2515 C   0  0  0  0  0  0  0  0  0  0  0  0
   24.4242  -21.1028  -12.2277 C   0  0  2  0  0  0  0  0  0  0  0  0
   25.1910  -21.2967  -11.0434 N   0  0  0  0  0  0  0  0  0  0  0  0
   23.0268  -20.8198  -11.8938 C   0  0  0  0  0  0  0  0  0  0  0  0
   22.5638  -21.3042  -10.8216 O   0  0  0  0  0  0  0  0  0  0  0  0
   15.7761  -20.3235  -15.6230 N   0  0  0  0  0  0  0  0  0  0  0  0
   16.4049  -19.1207  -16.0955 C   0  0  0  0  0  0  0  0  0  0  0  0
   15.6615  -18.0940  -16.3158 N   0  0  0  0  0  0  0  0  0  0  0  0
   17.8075  -19.1050  -16.3006 N   0  0  0  0  0  0  0  0  0  0  0  0
   18.6075  -20.3150  -16.1003 C   0  0  0  0  0  0  0  0  0  0  0  0
   18.9485  -20.3884  -14.6462 C   0  0  0  0  0  0  0  0  0  0  0  0
   20.3709  -20.1075  -14.3171 C   0  0  0  0  0  0  0  0  0  0  0  0
   20.7730  -20.2875  -12.9103 C   0  0  2  0  0  0  0  0  0  0  0  0
   22.1765  -20.0288  -12.7200 N   0  0  0  0  0  0  0  0  0  0  0  0
   20.2955  -21.5310  -12.2563 C   0  0  0  0  0  0  0  0  0  0  0  0
   19.4739  -21.5678  -11.3340 O   0  0  0  0  0  0  0  0  0  0  0  0
   20.7984  -22.7412  -12.6964 O   0  0  0  0  0  0  0  0  0  0  0  0
  2  3  2  0
  2  1  1  0
  4  3  1  0
  5  4  2  0
  6  7  1  0
  6  5  1  0
  7  8  1  6
  9  7  1  0
  9 10  2  0
 11 12  2  0
 11  5  1  0
 12  2  1  0
 13 14  1  0
 14 15  2  0
 17 16  1  6
 16 14  1  0
 17 18  1  0
 18  9  1  0
 19 17  1  0
 20 19  2  0
 22 23  2  0
 22 21  1  0
 24 22  1  0
 25 24  1  0
 26 25  1  0
 26 27  1  0
 28 27  1  6
 28 29  1  0
 29 19  1  0
 30 28  1  0
 31 30  2  0
 32 30  1  0
M  END
$$$$
