YNR.pdb
     RDKit          3D

 32 32  0  0  1  0  0  0  0  0999 V2000
   24.4603  -21.6208   -7.9097 O   0  0  0  0  0  0  0  0  0  0  0  0
   24.5600  -21.3644   -9.2713 C   0  0  0  0  0  0  0  0  0  0  0  0
   23.8848  -20.3263   -9.8846 C   0  0  0  0  0  0  0  0  0  0  0  0
   23.9903  -20.0809  -11.2356 C   0  0  0  0  0  0  0  0  0  0  0  0
   24.8013  -20.9044  -12.0008 C   0  0  0  0  0  0  0  0  0  0  0  0
   24.8948  -20.6166  -13.4514 C   0  0  0  0  0  0  0  0  0  0  0  0
   26.3515  -20.8887  -13.8453 C   0  0  2  0  0  0  0  0  0  0  0  0
   27.2483  -20.2020  -12.9356 N   0  0  0  0  0  0  0  0  0  0  0  0
   26.5541  -20.4490  -15.2397 C   0  0  0  0  0  0  0  0  0  0  0  0
   27.5691  -19.7780  -15.5306 O   0  0  0  0  0  0  0  0  0  0  0  0
   25.4763  -21.9381  -11.4026 C   0  0  0  0  0  0  0  0  0  0  0  0
   25.3683  -22.1867  -10.0294 C   0  0  0  0  0  0  0  0  0  0  0  0
   28.1545  -19.7973  -20.0163 N   0  0  0  0  0  0  0  0  0  0  0  0
   27.4212  -20.9133  -19.5547 C   0  0  0  0  0  0  0  0  0  0  0  0
   26.9825  -21.6981  -20.4608 O   0  0  0  0  0  0  0  0  0  0  0  0
   27.1380  -21.2239  -18.1597 C   0  0  0  0  0  0  0  0  0  0  0  0
   25.8638  -20.5894  -17.6666 C   0  0  2  0  0  0  0  0  0  0  0  0
   25.6261  -20.7685  -16.2740 N   0  0  0  0  0  0  0  0  0  0  0  0
   24.6829  -20.9737  -18.4425 C   0  0  0  0  0  0  0  0  0  0  0  0
   24.7395  -20.8654  -19.7009 O   0  0  0  0  0  0  0  0  0  0  0  0
   19.1745  -15.5647  -16.5397 N   0  0  0  0  0  0  0  0  0  0  0  0
   20.0320  -15.7872  -17.6714 C   0  0  0  0  0  0  0  0  0  0  0  0
   20.4629  -14.7610  -18.3168 N   0  0  0  0  0  0  0  0  0  0  0  0
   20.3712  -17.1147  -18.0350 N   0  0  0  0  0  0  0  0  0  0  0  0
   19.7751  -18.2574  -17.3400 C   0  0  0  0  0  0  0  0  0  0  0  0
   20.2638  -19.4968  -18.0190 C   0  0  0  0  0  0  0  0  0  0  0  0
   21.6452  -19.9110  -17.6573 C   0  0  0  0  0  0  0  0  0  0  0  0
   22.1623  -21.1295  -18.3062 C   0  0  2  0  0  0  0  0  0  0  0  0
   23.4848  -21.4596  -17.8427 N   0  0  0  0  0  0  0  0  0  0  0  0
   22.0079  -21.1910  -19.7808 C   0  0  0  0  0  0  0  0  0  0  0  0
   21.2119  -21.9276  -20.3729 O   0  0  0  0  0  0  0  0  0  0  0  0
   22.8060  -20.3749  -20.5608 O   0  0  0  0  0  0  0  0  0  0  0  0
  2  3  2  0
  2  1  1  0
  4  3  1  0
  5  4  2  0
  6  7  1  0
  6  5  1  0
  7  8  1  1
  9  7  1  0
  9 10  2  0
 11 12  2  0
 11  5  1  0
 12  2  1  0
 13 14  1  0
 14 15  2  0
 17 16  1  6
 16 14  1  0
 17 18  1  0
 18  9  1  0
 19 17  1  0
 20 19  2  0
 22 23  2  0
 22 21  1  0
 24 22  1  0
 25 24  1  0
 26 25  1  0
 26 27  1  0
 28 27  1  6
 28 29  1  0
 29 19  1  0
 30 28  1  0
 31 30  2  0
 32 30  1  0
M  END
$$$$
