YNR.pdb
     RDKit          3D

 32 32  0  0  1  0  0  0  0  0999 V2000
   31.2390  -15.8911  -19.7504 O   0  0  0  0  0  0  0  0  0  0  0  0
   30.2546  -16.4982  -18.9810 C   0  0  0  0  0  0  0  0  0  0  0  0
   30.4718  -16.9009  -17.6770 C   0  0  0  0  0  0  0  0  0  0  0  0
   29.4889  -17.5022  -16.9227 C   0  0  0  0  0  0  0  0  0  0  0  0
   28.2430  -17.7079  -17.4943 C   0  0  0  0  0  0  0  0  0  0  0  0
   27.2056  -18.3576  -16.6592 C   0  0  0  0  0  0  0  0  0  0  0  0
   27.7993  -19.6986  -16.2113 C   0  0  2  0  0  0  0  0  0  0  0  0
   28.0220  -20.5520  -17.3626 N   0  0  0  0  0  0  0  0  0  0  0  0
   26.8764  -20.3245  -15.2442 C   0  0  0  0  0  0  0  0  0  0  0  0
   25.9542  -21.0591  -15.6625 O   0  0  0  0  0  0  0  0  0  0  0  0
   28.0159  -17.3122  -18.7881 C   0  0  0  0  0  0  0  0  0  0  0  0
   29.0157  -16.7012  -19.5539 C   0  0  0  0  0  0  0  0  0  0  0  0
   25.3812  -22.5058  -10.2355 N   0  0  0  0  0  0  0  0  0  0  0  0
   25.7374  -21.1591  -10.4721 C   0  0  0  0  0  0  0  0  0  0  0  0
   25.1532  -20.2964   -9.7346 O   0  0  0  0  0  0  0  0  0  0  0  0
   26.6954  -20.6977  -11.4680 C   0  0  0  0  0  0  0  0  0  0  0  0
   26.1123  -20.6365  -12.8557 C   0  0  2  0  0  0  0  0  0  0  0  0
   27.0041  -20.1206  -13.8388 N   0  0  0  0  0  0  0  0  0  0  0  0
   24.8241  -19.9429  -12.9167 C   0  0  0  0  0  0  0  0  0  0  0  0
   24.8230  -18.7225  -13.2471 O   0  0  0  0  0  0  0  0  0  0  0  0
   20.9040  -16.3318  -17.5560 N   0  0  0  0  0  0  0  0  0  0  0  0
   19.7127  -17.0990  -17.3157 C   0  0  0  0  0  0  0  0  0  0  0  0
   18.7757  -17.0557  -18.1962 N   0  0  0  0  0  0  0  0  0  0  0  0
   19.6105  -17.8695  -16.1302 N   0  0  0  0  0  0  0  0  0  0  0  0
   20.7281  -17.9449  -15.1871 C   0  0  0  0  0  0  0  0  0  0  0  0
   21.4130  -19.2552  -15.4110 C   0  0  0  0  0  0  0  0  0  0  0  0
   22.5907  -19.5082  -14.5395 C   0  0  0  0  0  0  0  0  0  0  0  0
   22.3612  -20.3329  -13.3394 C   0  0  2  0  0  0  0  0  0  0  0  0
   23.5844  -20.5813  -12.6218 N   0  0  0  0  0  0  0  0  0  0  0  0
   21.5227  -21.5412  -13.5369 C   0  0  0  0  0  0  0  0  0  0  0  0
   21.9481  -22.6351  -13.9233 O   0  0  0  0  0  0  0  0  0  0  0  0
   20.1677  -21.4517  -13.2775 O   0  0  0  0  0  0  0  0  0  0  0  0
  2  3  2  0
  2  1  1  0
  4  3  1  0
  5  4  2  0
  6  7  1  0
  6  5  1  0
  7  8  1  6
  9  7  1  0
  9 10  2  0
 11 12  2  0
 11  5  1  0
 12  2  1  0
 13 14  1  0
 14 15  2  0
 17 16  1  1
 16 14  1  0
 17 18  1  0
 18  9  1  0
 19 17  1  0
 20 19  2  0
 22 23  2  0
 22 21  1  0
 24 22  1  0
 25 24  1  0
 26 25  1  0
 26 27  1  0
 28 27  1  6
 28 29  1  0
 29 19  1  0
 30 28  1  0
 31 30  2  0
 32 30  1  0
M  END
$$$$
