ACI.pdb
     RDKit          3D

 20 19  0  0  1  0  0  0  0  0999 V2000
   17.7755  -11.0824  -18.0031 C   0  0  0  0  0  0  0  0  0  0  0  0
   19.2692  -11.2288  -18.0157 C   0  0  2  0  0  0  0  0  0  0  0  0
   19.6345  -12.6256  -17.9041 N   0  0  0  0  0  0  0  0  0  0  0  0
   19.8789  -10.4342  -16.8909 C   0  0  0  0  0  0  0  0  0  0  0  0
   19.1838  -10.0260  -15.9479 O   0  0  0  0  0  0  0  0  0  0  0  0
   21.2538  -10.1417  -16.8939 N   0  0  0  0  0  0  0  0  0  0  0  0
   21.9080   -9.4930  -15.7523 C   0  0  1  0  0  0  0  0  0  0  0  0
   23.3179  -10.0454  -15.6994 C   0  0  0  0  0  0  0  0  0  0  0  0
   23.3508  -11.7113  -15.0383 S   0  0  0  0  0  0  0  0  0  0  0  0
   21.9341   -8.0166  -15.9578 C   0  0  0  0  0  0  0  0  0  0  0  0
   22.1565   -7.6010  -17.1408 O   0  0  0  0  0  0  0  0  0  0  0  0
   18.6559   -3.5960  -16.6717 C   0  0  0  0  0  0  0  0  0  0  0  0
   19.9934   -3.9108  -16.1332 C   0  0  0  0  0  0  0  0  0  0  0  0
   20.3470   -5.2839  -15.7598 C   0  0  2  0  0  0  0  0  0  0  0  0
   19.3284   -5.8069  -14.7023 C   0  0  0  0  0  0  0  0  0  0  0  0
   21.7147   -5.6281  -15.3100 C   0  0  2  0  0  0  0  0  0  0  0  0
   21.7304   -7.0765  -14.9452 N   0  0  0  0  0  0  0  0  0  0  0  0
   22.2809   -4.8889  -14.1912 C   0  0  0  0  0  0  0  0  0  0  0  0
   22.7708   -3.7418  -14.2469 O   0  0  0  0  0  0  0  0  0  0  0  0
   22.2969   -5.4824  -12.9190 O   0  0  0  0  0  0  0  0  0  0  0  0
  2  1  1  1
  2  3  1  0
  4  2  1  0
  5  4  2  0
  6  4  1  0
  7  6  1  0
  7  8  1  6
  9  8  1  0
 10  7  1  0
 10 11  2  0
 12 13  1  0
 14 13  1  0
 14 16  1  0
 14 15  1  1
 16 17  1  1
 17 10  1  0
 18 16  1  0
 19 18  2  0
 20 18  1  0
M  END
$$$$
