ACI.pdb
     RDKit          3D

 20 19  0  0  1  0  0  0  0  0999 V2000
   20.4906  -14.1089  -18.0613 C   0  0  0  0  0  0  0  0  0  0  0  0
   20.9142  -12.7194  -18.4390 C   0  0  2  0  0  0  0  0  0  0  0  0
   22.2781  -12.7285  -18.9252 N   0  0  0  0  0  0  0  0  0  0  0  0
   20.7836  -11.7966  -17.2559 C   0  0  0  0  0  0  0  0  0  0  0  0
   19.7029  -11.6724  -16.6596 O   0  0  0  0  0  0  0  0  0  0  0  0
   21.8923  -11.0579  -16.8076 N   0  0  0  0  0  0  0  0  0  0  0  0
   21.7754  -10.0625  -15.7364 C   0  0  1  0  0  0  0  0  0  0  0  0
   23.1743   -9.8567  -15.1919 C   0  0  0  0  0  0  0  0  0  0  0  0
   23.6052  -11.1106  -13.9855 S   0  0  0  0  0  0  0  0  0  0  0  0
   21.2385   -8.7865  -16.2897 C   0  0  0  0  0  0  0  0  0  0  0  0
   21.6661   -8.4268  -17.4339 O   0  0  0  0  0  0  0  0  0  0  0  0
   16.1944   -7.8330  -17.1217 C   0  0  0  0  0  0  0  0  0  0  0  0
   17.6612   -7.6978  -17.2126 C   0  0  0  0  0  0  0  0  0  0  0  0
   18.3790   -6.7358  -16.3705 C   0  0  2  0  0  0  0  0  0  0  0  0
   17.8784   -5.2958  -16.6949 C   0  0  0  0  0  0  0  0  0  0  0  0
   19.8580   -6.7209  -16.3133 C   0  0  2  0  0  0  0  0  0  0  0  0
   20.3071   -7.9752  -15.6378 N   0  0  0  0  0  0  0  0  0  0  0  0
   20.5128   -5.6056  -15.6453 C   0  0  0  0  0  0  0  0  0  0  0  0
   20.9181   -4.5607  -16.1955 O   0  0  0  0  0  0  0  0  0  0  0  0
   20.7266   -5.6705  -14.2592 O   0  0  0  0  0  0  0  0  0  0  0  0
  2  1  1  1
  2  3  1  0
  4  2  1  0
  5  4  2  0
  6  4  1  0
  7  6  1  0
  7  8  1  6
  9  8  1  0
 10  7  1  0
 10 11  2  0
 12 13  1  0
 14 13  1  0
 14 16  1  0
 14 15  1  6
 16 17  1  1
 17 10  1  0
 18 16  1  0
 19 18  2  0
 20 18  1  0
M  END
$$$$
