ACI.pdb
     RDKit          3D

 20 19  0  0  1  0  0  0  0  0999 V2000
   14.5143  -12.7806  -14.0752 C   0  0  0  0  0  0  0  0  0  0  0  0
   14.2210  -11.3292  -13.8301 C   0  0  2  0  0  0  0  0  0  0  0  0
   14.2364  -10.5991  -15.0805 N   0  0  0  0  0  0  0  0  0  0  0  0
   15.2273  -10.7504  -12.8706 C   0  0  0  0  0  0  0  0  0  0  0  0
   15.3715  -11.2252  -11.7335 O   0  0  0  0  0  0  0  0  0  0  0  0
   16.0229   -9.6564  -13.2526 N   0  0  0  0  0  0  0  0  0  0  0  0
   16.9612   -9.0210  -12.3210 C   0  0  1  0  0  0  0  0  0  0  0  0
   18.1181   -8.5171  -13.1596 C   0  0  0  0  0  0  0  0  0  0  0  0
   19.4583   -7.9059  -12.1380 S   0  0  0  0  0  0  0  0  0  0  0  0
   16.2900   -7.8868  -11.6240 C   0  0  0  0  0  0  0  0  0  0  0  0
   15.4912   -7.1748  -12.3142 O   0  0  0  0  0  0  0  0  0  0  0  0
   12.2519   -6.1169   -8.1476 C   0  0  0  0  0  0  0  0  0  0  0  0
   13.5997   -5.7315   -8.6091 C   0  0  0  0  0  0  0  0  0  0  0  0
   14.5104   -6.7290   -9.1797 C   0  0  2  0  0  0  0  0  0  0  0  0
   14.7310   -7.8739   -8.1454 C   0  0  0  0  0  0  0  0  0  0  0  0
   15.8237   -6.3370   -9.7388 C   0  0  2  0  0  0  0  0  0  0  0  0
   16.4813   -7.5648  -10.2784 N   0  0  0  0  0  0  0  0  0  0  0  0
   16.7800   -5.6783   -8.8611 C   0  0  0  0  0  0  0  0  0  0  0  0
   17.7802   -6.2126   -8.3386 O   0  0  0  0  0  0  0  0  0  0  0  0
   16.5981   -4.3216   -8.5490 O   0  0  0  0  0  0  0  0  0  0  0  0
  2  1  1  6
  2  3  1  0
  4  2  1  0
  5  4  2  0
  6  4  1  0
  7  6  1  0
  7  8  1  6
  9  8  1  0
 10  7  1  0
 10 11  2  0
 12 13  1  0
 14 13  1  0
 14 16  1  0
 14 15  1  1
 16 17  1  1
 17 10  1  0
 18 16  1  0
 19 18  2  0
 20 18  1  0
M  END
$$$$
