ACI.pdb
     RDKit          3D

 20 19  0  0  1  0  0  0  0  0999 V2000
   14.4958  -11.5825  -15.6625 C   0  0  0  0  0  0  0  0  0  0  0  0
   15.8190  -11.4389  -14.9688 C   0  0  2  0  0  0  0  0  0  0  0  0
   15.6173  -11.1797  -13.5585 N   0  0  0  0  0  0  0  0  0  0  0  0
   16.6184  -10.3287  -15.5986 C   0  0  0  0  0  0  0  0  0  0  0  0
   17.2679  -10.5202  -16.6381 O   0  0  0  0  0  0  0  0  0  0  0  0
   16.6398   -9.0508  -15.0134 N   0  0  0  0  0  0  0  0  0  0  0  0
   17.3663   -7.9330  -15.6255 C   0  0  1  0  0  0  0  0  0  0  0  0
   16.4107   -6.7571  -15.6324 C   0  0  0  0  0  0  0  0  0  0  0  0
   17.2245   -5.2471  -16.1531 S   0  0  0  0  0  0  0  0  0  0  0  0
   18.5778   -7.6152  -14.8168 C   0  0  0  0  0  0  0  0  0  0  0  0
   18.4635   -7.6877  -13.5506 O   0  0  0  0  0  0  0  0  0  0  0  0
   22.9279  -10.3409  -14.4118 C   0  0  0  0  0  0  0  0  0  0  0  0
   21.9178   -9.3152  -14.0869 C   0  0  0  0  0  0  0  0  0  0  0  0
   22.0018   -7.9706  -14.6656 C   0  0  2  0  0  0  0  0  0  0  0  0
   23.3803   -7.3404  -14.3023 C   0  0  0  0  0  0  0  0  0  0  0  0
   20.9432   -6.9645  -14.4241 C   0  0  2  0  0  0  0  0  0  0  0  0
   19.8126   -7.2501  -15.3576 N   0  0  0  0  0  0  0  0  0  0  0  0
   21.2828   -5.5562  -14.5660 C   0  0  0  0  0  0  0  0  0  0  0  0
   21.7934   -4.8355  -13.6835 O   0  0  0  0  0  0  0  0  0  0  0  0
   21.0300   -4.9128  -15.7879 O   0  0  0  0  0  0  0  0  0  0  0  0
  2  1  1  6
  2  3  1  0
  4  2  1  0
  5  4  2  0
  6  4  1  0
  7  6  1  0
  7  8  1  1
  9  8  1  0
 10  7  1  0
 10 11  2  0
 12 13  1  0
 14 13  1  0
 14 16  1  0
 14 15  1  1
 16 17  1  6
 17 10  1  0
 18 16  1  0
 19 18  2  0
 20 18  1  0
M  END
$$$$
