ACI.pdb
     RDKit          3D

 20 19  0  0  1  0  0  0  0  0999 V2000
   28.7643  -20.1630  -14.1050 C   0  0  0  0  0  0  0  0  0  0  0  0
   27.4081  -20.7196  -13.7829 C   0  0  2  0  0  0  0  0  0  0  0  0
   26.5198  -20.5552  -14.9146 N   0  0  0  0  0  0  0  0  0  0  0  0
   26.8416  -20.0366  -12.5660 C   0  0  0  0  0  0  0  0  0  0  0  0
   26.8415  -18.7998  -12.4703 O   0  0  0  0  0  0  0  0  0  0  0  0
   26.3013  -20.7965  -11.5140 N   0  0  0  0  0  0  0  0  0  0  0  0
   25.5730  -20.1716  -10.4045 C   0  0  1  0  0  0  0  0  0  0  0  0
   24.1097  -20.5034  -10.6152 C   0  0  0  0  0  0  0  0  0  0  0  0
   23.3636  -19.4447  -11.8545 S   0  0  0  0  0  0  0  0  0  0  0  0
   26.0526  -20.7300   -9.1080 C   0  0  0  0  0  0  0  0  0  0  0  0
   26.3039  -21.9779   -9.0732 O   0  0  0  0  0  0  0  0  0  0  0  0
   29.4935  -18.1209   -5.7289 C   0  0  0  0  0  0  0  0  0  0  0  0
   28.7825  -19.2056   -6.4332 C   0  0  0  0  0  0  0  0  0  0  0  0
   27.5120  -19.7266   -5.9191 C   0  0  2  0  0  0  0  0  0  0  0  0
   27.7403  -20.3269   -4.4989 C   0  0  0  0  0  0  0  0  0  0  0  0
   26.6972  -20.6769   -6.7091 C   0  0  2  0  0  0  0  0  0  0  0  0
   26.2414  -19.9765   -7.9473 N   0  0  0  0  0  0  0  0  0  0  0  0
   25.5233  -21.2675   -6.0831 C   0  0  0  0  0  0  0  0  0  0  0  0
   25.5256  -22.2328   -5.2912 O   0  0  0  0  0  0  0  0  0  0  0  0
   24.2564  -20.7340   -6.3682 O   0  0  0  0  0  0  0  0  0  0  0  0
  2  1  1  6
  2  3  1  0
  4  2  1  0
  5  4  2  0
  6  4  1  0
  7  6  1  0
  7  8  1  6
  9  8  1  0
 10  7  1  0
 10 11  2  0
 12 13  1  0
 14 13  1  0
 14 16  1  0
 14 15  1  1
 16 17  1  6
 17 10  1  0
 18 16  1  0
 19 18  2  0
 20 18  1  0
M  END
$$$$
