ACI.pdb
     RDKit          3D

 20 19  0  0  1  0  0  0  0  0999 V2000
   29.4232  -23.3328  -16.0921 C   0  0  0  0  0  0  0  0  0  0  0  0
   28.2840  -22.3759  -16.2900 C   0  0  2  0  0  0  0  0  0  0  0  0
   28.7653  -21.0110  -16.2444 N   0  0  0  0  0  0  0  0  0  0  0  0
   27.2302  -22.5975  -15.2371 C   0  0  0  0  0  0  0  0  0  0  0  0
   26.6115  -23.6707  -15.1692 O   0  0  0  0  0  0  0  0  0  0  0  0
   26.9308  -21.5844  -14.3099 N   0  0  0  0  0  0  0  0  0  0  0  0
   25.8634  -21.7382  -13.3154 C   0  0  1  0  0  0  0  0  0  0  0  0
   26.3066  -20.9622  -12.0918 C   0  0  0  0  0  0  0  0  0  0  0  0
   24.9893  -20.8237  -10.8839 S   0  0  0  0  0  0  0  0  0  0  0  0
   24.5891  -21.1810  -13.8525 C   0  0  0  0  0  0  0  0  0  0  0  0
   24.6415  -20.0245  -14.3828 O   0  0  0  0  0  0  0  0  0  0  0  0
   22.4982  -22.5709  -18.0493 C   0  0  0  0  0  0  0  0  0  0  0  0
   22.7976  -21.8403  -16.8025 C   0  0  0  0  0  0  0  0  0  0  0  0
   21.8496  -21.8465  -15.6839 C   0  0  2  0  0  0  0  0  0  0  0  0
   20.4623  -21.3416  -16.1837 C   0  0  0  0  0  0  0  0  0  0  0  0
   22.1671  -21.1700  -14.4062 C   0  0  2  0  0  0  0  0  0  0  0  0
   23.3602  -21.8433  -13.8107 N   0  0  0  0  0  0  0  0  0  0  0  0
   21.1375  -21.1150  -13.3787 C   0  0  0  0  0  0  0  0  0  0  0  0
   20.8103  -22.0525  -12.6217 O   0  0  0  0  0  0  0  0  0  0  0  0
   20.4255  -19.9200  -13.1890 O   0  0  0  0  0  0  0  0  0  0  0  0
  2  1  1  1
  2  3  1  0
  4  2  1  0
  5  4  2  0
  6  4  1  0
  7  6  1  0
  7  8  1  1
  9  8  1  0
 10  7  1  0
 10 11  2  0
 12 13  1  0
 14 13  1  0
 14 16  1  0
 14 15  1  6
 16 17  1  1
 17 10  1  0
 18 16  1  0
 19 18  2  0
 20 18  1  0
M  END
$$$$
