ACI.pdb
     RDKit          3D

 20 19  0  0  1  0  0  0  0  0999 V2000
   25.9453  -17.5640  -16.8151 C   0  0  0  0  0  0  0  0  0  0  0  0
   27.3088  -18.1869  -16.7400 C   0  0  2  0  0  0  0  0  0  0  0  0
   27.6956  -18.6991  -18.0380 N   0  0  0  0  0  0  0  0  0  0  0  0
   27.3205  -19.2899  -15.7145 C   0  0  0  0  0  0  0  0  0  0  0  0
   26.4240  -20.1471  -15.6889 O   0  0  0  0  0  0  0  0  0  0  0  0
   28.3545  -19.3641  -14.7653 N   0  0  0  0  0  0  0  0  0  0  0  0
   28.3367  -20.3498  -13.6790 C   0  0  1  0  0  0  0  0  0  0  0  0
   29.7186  -20.3242  -13.0582 C   0  0  0  0  0  0  0  0  0  0  0  0
   29.7890  -21.3072  -11.5608 S   0  0  0  0  0  0  0  0  0  0  0  0
   27.3055  -19.9714  -12.6710 C   0  0  0  0  0  0  0  0  0  0  0  0
   27.1764  -18.7312  -12.4130 O   0  0  0  0  0  0  0  0  0  0  0  0
   21.6452  -20.2625  -11.1429 C   0  0  0  0  0  0  0  0  0  0  0  0
   23.0253  -20.0576  -10.6620 C   0  0  0  0  0  0  0  0  0  0  0  0
   24.1693  -20.5540  -11.4332 C   0  0  2  0  0  0  0  0  0  0  0  0
   23.9522  -22.0624  -11.7606 C   0  0  0  0  0  0  0  0  0  0  0  0
   25.5568  -20.3693  -10.9515 C   0  0  2  0  0  0  0  0  0  0  0  0
   26.4837  -20.8829  -12.0043 N   0  0  0  0  0  0  0  0  0  0  0  0
   25.9393  -20.9894   -9.6914 C   0  0  0  0  0  0  0  0  0  0  0  0
   26.6181  -22.0298   -9.5657 O   0  0  0  0  0  0  0  0  0  0  0  0
   25.5292  -20.3966   -8.4866 O   0  0  0  0  0  0  0  0  0  0  0  0
  2  1  1  6
  2  3  1  0
  4  2  1  0
  5  4  2  0
  6  4  1  0
  7  6  1  0
  7  8  1  1
  9  8  1  0
 10  7  1  0
 10 11  2  0
 12 13  1  0
 14 13  1  0
 14 16  1  0
 14 15  1  1
 16 17  1  6
 17 10  1  0
 18 16  1  0
 19 18  2  0
 20 18  1  0
M  END
$$$$
