ACI.pdb
     RDKit          3D

 20 19  0  0  1  0  0  0  0  0999 V2000
   27.8858  -33.5349  -14.8731 C   0  0  0  0  0  0  0  0  0  0  0  0
   26.4888  -33.3660  -14.3511 C   0  0  2  0  0  0  0  0  0  0  0  0
   25.7971  -32.3380  -15.1006 N   0  0  0  0  0  0  0  0  0  0  0  0
   26.5199  -33.0178  -12.8861 C   0  0  0  0  0  0  0  0  0  0  0  0
   27.3350  -32.1943  -12.4430 O   0  0  0  0  0  0  0  0  0  0  0  0
   25.6195  -33.6255  -11.9940 N   0  0  0  0  0  0  0  0  0  0  0  0
   25.5570  -33.2429  -10.5792 C   0  0  1  0  0  0  0  0  0  0  0  0
   25.0980  -31.7993  -10.5485 C   0  0  0  0  0  0  0  0  0  0  0  0
   24.6092  -31.2959   -8.8990 S   0  0  0  0  0  0  0  0  0  0  0  0
   24.5826  -34.1149   -9.8632 C   0  0  0  0  0  0  0  0  0  0  0  0
   23.4105  -34.1973  -10.3540 O   0  0  0  0  0  0  0  0  0  0  0  0
   24.2965  -39.2137   -9.7242 C   0  0  0  0  0  0  0  0  0  0  0  0
   24.0098  -37.7735   -9.5777 C   0  0  0  0  0  0  0  0  0  0  0  0
   24.1805  -37.1028   -8.2850 C   0  0  2  0  0  0  0  0  0  0  0  0
   23.4923  -37.9499   -7.1722 C   0  0  0  0  0  0  0  0  0  0  0  0
   23.8020  -35.6836   -8.1017 C   0  0  2  0  0  0  0  0  0  0  0  0
   24.8753  -34.8374   -8.7043 N   0  0  0  0  0  0  0  0  0  0  0  0
   23.5707  -35.1991   -6.7487 C   0  0  0  0  0  0  0  0  0  0  0  0
   22.4689  -35.1684   -6.1623 O   0  0  0  0  0  0  0  0  0  0  0  0
   24.6566  -34.7149   -6.0021 O   0  0  0  0  0  0  0  0  0  0  0  0
  2  1  1  6
  2  3  1  0
  4  2  1  0
  5  4  2  0
  6  4  1  0
  7  6  1  0
  7  8  1  6
  9  8  1  0
 10  7  1  0
 10 11  2  0
 12 13  1  0
 14 13  1  0
 14 16  1  0
 14 15  1  1
 16 17  1  1
 17 10  1  0
 18 16  1  0
 19 18  2  0
 20 18  1  0
M  END
$$$$
