ACI.pdb
     RDKit          3D

 20 19  0  0  1  0  0  0  0  0999 V2000
   16.6766  -14.4297  -15.1866 C   0  0  0  0  0  0  0  0  0  0  0  0
   15.9395  -13.3185  -15.8757 C   0  0  2  0  0  0  0  0  0  0  0  0
   15.1490  -13.8465  -16.9681 N   0  0  0  0  0  0  0  0  0  0  0  0
   16.9116  -12.2852  -16.3813 C   0  0  0  0  0  0  0  0  0  0  0  0
   17.9106  -12.6162  -17.0382 O   0  0  0  0  0  0  0  0  0  0  0  0
   16.6991  -10.9217  -16.1141 N   0  0  0  0  0  0  0  0  0  0  0  0
   17.6027   -9.8846  -16.6240 C   0  0  1  0  0  0  0  0  0  0  0  0
   16.7391   -8.6751  -16.9192 C   0  0  0  0  0  0  0  0  0  0  0  0
   17.7311   -7.2327  -17.3048 S   0  0  0  0  0  0  0  0  0  0  0  0
   18.6261   -9.5546  -15.5913 C   0  0  0  0  0  0  0  0  0  0  0  0
   18.2509   -9.5842  -14.3748 O   0  0  0  0  0  0  0  0  0  0  0  0
   23.0816  -12.1120  -15.0003 C   0  0  0  0  0  0  0  0  0  0  0  0
   21.9101  -11.2384  -14.7941 C   0  0  0  0  0  0  0  0  0  0  0  0
   22.0476   -9.7790  -14.8304 C   0  0  2  0  0  0  0  0  0  0  0  0
   23.0871   -9.3345  -13.7574 C   0  0  0  0  0  0  0  0  0  0  0  0
   20.8641   -8.8949  -14.7374 C   0  0  2  0  0  0  0  0  0  0  0  0
   19.9526   -9.2218  -15.8748 N   0  0  0  0  0  0  0  0  0  0  0  0
   21.0748   -7.4547  -14.7456 C   0  0  0  0  0  0  0  0  0  0  0  0
   21.2007   -6.7292  -13.7372 O   0  0  0  0  0  0  0  0  0  0  0  0
   21.1495   -6.7826  -15.9760 O   0  0  0  0  0  0  0  0  0  0  0  0
  2  1  1  6
  2  3  1  0
  4  2  1  0
  5  4  2  0
  6  4  1  0
  7  6  1  0
  7  8  1  1
  9  8  1  0
 10  7  1  0
 10 11  2  0
 12 13  1  0
 14 13  1  0
 14 16  1  0
 14 15  1  1
 16 17  1  6
 17 10  1  0
 18 16  1  0
 19 18  2  0
 20 18  1  0
M  END
$$$$
