NYT.pdb
     RDKit          3D

 28 28  0  0  1  0  0  0  0  0999 V2000
   10.8762  -18.5262   17.9166 N   0  0  0  0  0  0  0  0  0  0  0  0
   11.6348  -17.3528   18.1555 C   0  0  0  0  0  0  0  0  0  0  0  0
   12.5601  -17.1093   17.3221 O   0  0  0  0  0  0  0  0  0  0  0  0
   11.3378  -16.4868   19.3172 C   0  0  0  0  0  0  0  0  0  0  0  0
   10.3234  -17.0801   20.2430 C   0  0  2  0  0  0  0  0  0  0  0  0
    9.0746  -17.3180   19.5876 N   0  0  0  0  0  0  0  0  0  0  0  0
   10.1695  -16.2984   21.4977 C   0  0  0  0  0  0  0  0  0  0  0  0
   11.1602  -16.1301   22.2364 O   0  0  0  0  0  0  0  0  0  0  0  0
    6.2958  -11.7379   28.1458 O   0  0  0  0  0  0  0  0  0  0  0  0
    6.6522  -12.3098   26.9265 C   0  0  0  0  0  0  0  0  0  0  0  0
    5.8686  -13.3065   26.4271 C   0  0  0  0  0  0  0  0  0  0  0  0
    6.2046  -13.8876   25.2184 C   0  0  0  0  0  0  0  0  0  0  0  0
    7.3084  -13.4970   24.4920 C   0  0  0  0  0  0  0  0  0  0  0  0
    7.5990  -14.1501   23.2275 C   0  0  0  0  0  0  0  0  0  0  0  0
    8.7633  -15.1109   23.2367 C   0  0  2  0  0  0  0  0  0  0  0  0
    8.9382  -15.7204   21.9142 N   0  0  0  0  0  0  0  0  0  0  0  0
    8.7053  -16.1330   24.2908 C   0  0  0  0  0  0  0  0  0  0  0  0
    7.7373  -16.9690   24.3750 O   0  0  0  0  0  0  0  0  0  0  0  0
    8.0999  -12.4943   24.9906 C   0  0  0  0  0  0  0  0  0  0  0  0
    7.7619  -11.9044   26.2140 C   0  0  0  0  0  0  0  0  0  0  0  0
   10.4201  -19.0313   24.5004 C   0  0  0  0  0  0  0  0  0  0  0  0
   10.7944  -18.3427   25.7827 C   0  0  1  0  0  0  0  0  0  0  0  0
   11.9289  -17.5510   25.5960 O   0  0  0  0  0  0  0  0  0  0  0  0
    9.6637  -17.3974   26.2458 C   0  0  2  0  0  0  0  0  0  0  0  0
    9.6976  -16.3005   25.3048 N   0  0  0  0  0  0  0  0  0  0  0  0
   10.1072  -16.9071   27.5665 C   0  0  0  0  0  0  0  0  0  0  0  0
   10.4886  -15.5881   27.7900 O   0  0  0  0  0  0  0  0  0  0  0  0
   10.1509  -17.6928   28.5445 O   0  0  0  0  0  0  0  0  0  0  0  0
  1  2  1  0
  2  3  2  0
  4  5  1  0
  4  2  1  0
  5  6  1  6
  5  7  1  0
  7  8  2  0
  9 10  1  0
 10 11  2  0
 10 20  1  0
 11 12  1  0
 12 13  2  0
 13 14  1  0
 15 14  1  6
 15 17  1  0
 16  7  1  0
 16 15  1  0
 17 18  2  0
 19 13  1  0
 20 19  2  0
 22 21  1  6
 22 23  1  0
 22 24  1  0
 24 26  1  0
 24 25  1  6
 25 17  1  0
 26 28  2  0
 26 27  1  0
M  END
$$$$
