NYT.pdb
     RDKit          3D

 28 28  0  0  1  0  0  0  0  0999 V2000
    8.9426  -20.2819   18.0791 N   0  0  0  0  0  0  0  0  0  0  0  0
    8.3303  -19.2770   18.8695 C   0  0  0  0  0  0  0  0  0  0  0  0
    7.1213  -19.0104   18.5918 O   0  0  0  0  0  0  0  0  0  0  0  0
    9.0859  -18.6001   19.9459 C   0  0  0  0  0  0  0  0  0  0  0  0
    9.2638  -17.1350   19.7013 C   0  0  2  0  0  0  0  0  0  0  0  0
   10.3425  -16.8694   18.8004 N   0  0  0  0  0  0  0  0  0  0  0  0
    9.3679  -16.3543   20.9618 C   0  0  0  0  0  0  0  0  0  0  0  0
   10.4959  -16.0892   21.4232 O   0  0  0  0  0  0  0  0  0  0  0  0
    7.0598  -11.7641   28.2657 O   0  0  0  0  0  0  0  0  0  0  0  0
    7.1230  -12.3661   27.0110 C   0  0  0  0  0  0  0  0  0  0  0  0
    6.3477  -13.4630   26.7811 C   0  0  0  0  0  0  0  0  0  0  0  0
    6.3955  -14.0755   25.5426 C   0  0  0  0  0  0  0  0  0  0  0  0
    7.2014  -13.6187   24.5227 C   0  0  0  0  0  0  0  0  0  0  0  0
    7.1983  -14.3105   23.2454 C   0  0  0  0  0  0  0  0  0  0  0  0
    8.3580  -15.2459   23.0021 C   0  0  2  0  0  0  0  0  0  0  0  0
    8.2382  -15.8831   21.6866 N   0  0  0  0  0  0  0  0  0  0  0  0
    8.5720  -16.2435   24.0597 C   0  0  0  0  0  0  0  0  0  0  0  0
    7.6950  -17.1349   24.3414 O   0  0  0  0  0  0  0  0  0  0  0  0
    7.9833  -12.5151   24.7493 C   0  0  0  0  0  0  0  0  0  0  0  0
    7.9368  -11.8932   26.0022 C   0  0  0  0  0  0  0  0  0  0  0  0
   10.9232  -18.9998   24.2664 C   0  0  0  0  0  0  0  0  0  0  0  0
   11.2081  -18.1000   25.4359 C   0  0  1  0  0  0  0  0  0  0  0  0
   12.1480  -17.1294   25.0847 O   0  0  0  0  0  0  0  0  0  0  0  0
    9.9312  -17.3463   25.8695 C   0  0  2  0  0  0  0  0  0  0  0  0
    9.7511  -16.3252   24.8622 N   0  0  0  0  0  0  0  0  0  0  0  0
   10.2975  -16.6987   27.1453 C   0  0  0  0  0  0  0  0  0  0  0  0
   10.4201  -17.4032   28.3386 O   0  0  0  0  0  0  0  0  0  0  0  0
   10.5125  -15.4625   27.1818 O   0  0  0  0  0  0  0  0  0  0  0  0
  1  2  1  0
  2  3  2  0
  4  5  1  0
  4  2  1  0
  5  6  1  6
  5  7  1  0
  7  8  2  0
  9 10  1  0
 10 11  2  0
 10 20  1  0
 11 12  1  0
 12 13  2  0
 13 14  1  0
 15 14  1  1
 15 17  1  0
 16  7  1  0
 16 15  1  0
 17 18  2  0
 19 13  1  0
 20 19  2  0
 22 21  1  6
 22 23  1  0
 22 24  1  0
 24 26  1  0
 24 25  1  6
 25 17  1  0
 26 28  2  0
 26 27  1  0
M  END
$$$$
