NYT.pdb
     RDKit          3D

 28 28  0  0  1  0  0  0  0  0999 V2000
    8.6145  -16.6770   15.5164 N   0  0  0  0  0  0  0  0  0  0  0  0
    9.2901  -17.3071   16.5915 C   0  0  0  0  0  0  0  0  0  0  0  0
    9.6809  -18.4961   16.3826 O   0  0  0  0  0  0  0  0  0  0  0  0
    9.5091  -16.5913   17.8671 C   0  0  0  0  0  0  0  0  0  0  0  0
    8.9320  -17.3095   19.0458 C   0  0  2  0  0  0  0  0  0  0  0  0
    7.5711  -17.6913   18.8266 N   0  0  0  0  0  0  0  0  0  0  0  0
    9.1172  -16.5617   20.3167 C   0  0  0  0  0  0  0  0  0  0  0  0
   10.2705  -16.2623   20.6853 O   0  0  0  0  0  0  0  0  0  0  0  0
    7.3321  -12.1232   27.8350 O   0  0  0  0  0  0  0  0  0  0  0  0
    7.2444  -12.7727   26.6058 C   0  0  0  0  0  0  0  0  0  0  0  0
    7.8700  -12.2118   25.5329 C   0  0  0  0  0  0  0  0  0  0  0  0
    7.7955  -12.8402   24.3037 C   0  0  0  0  0  0  0  0  0  0  0  0
    7.1088  -14.0202   24.1174 C   0  0  0  0  0  0  0  0  0  0  0  0
    7.0754  -14.6264   22.7978 C   0  0  0  0  0  0  0  0  0  0  0  0
    8.2505  -15.5080   22.4498 C   0  0  2  0  0  0  0  0  0  0  0  0
    8.0390  -16.1597   21.1531 N   0  0  0  0  0  0  0  0  0  0  0  0
    8.6095  -16.4866   23.4856 C   0  0  0  0  0  0  0  0  0  0  0  0
    7.8774  -17.5076   23.7396 O   0  0  0  0  0  0  0  0  0  0  0  0
    6.4777  -14.5885   25.1941 C   0  0  0  0  0  0  0  0  0  0  0  0
    6.5517  -13.9542   26.4395 C   0  0  0  0  0  0  0  0  0  0  0  0
   12.1599  -18.8778   25.7295 C   0  0  0  0  0  0  0  0  0  0  0  0
   11.5798  -17.8719   24.7755 C   0  0  1  0  0  0  0  0  0  0  0  0
   11.4577  -18.4261   23.5000 O   0  0  0  0  0  0  0  0  0  0  0  0
   10.1593  -17.4553   25.2173 C   0  0  2  0  0  0  0  0  0  0  0  0
    9.7838  -16.4071   24.2954 N   0  0  0  0  0  0  0  0  0  0  0  0
   10.3454  -16.8668   26.5590 C   0  0  0  0  0  0  0  0  0  0  0  0
   10.2702  -17.6184   27.7272 O   0  0  0  0  0  0  0  0  0  0  0  0
   10.5825  -15.6399   26.6780 O   0  0  0  0  0  0  0  0  0  0  0  0
  1  2  1  0
  2  3  2  0
  4  5  1  0
  4  2  1  0
  5  6  1  6
  5  7  1  0
  7  8  2  0
  9 10  1  0
 10 11  2  0
 10 20  1  0
 11 12  1  0
 12 13  2  0
 13 14  1  0
 15 14  1  1
 15 17  1  0
 16  7  1  0
 16 15  1  0
 17 18  2  0
 19 13  1  0
 20 19  2  0
 22 21  1  1
 22 23  1  0
 22 24  1  0
 24 26  1  0
 24 25  1  6
 25 17  1  0
 26 28  2  0
 26 27  1  0
M  END
$$$$
