NYT.pdb
     RDKit          3D

 28 28  0  0  1  0  0  0  0  0999 V2000
    8.1904  -16.2845   15.6978 N   0  0  0  0  0  0  0  0  0  0  0  0
    9.2052  -16.7328   16.5802 C   0  0  0  0  0  0  0  0  0  0  0  0
    9.8834  -17.7306   16.1870 O   0  0  0  0  0  0  0  0  0  0  0  0
    9.4323  -16.0542   17.8746 C   0  0  0  0  0  0  0  0  0  0  0  0
    8.9427  -16.8487   19.0438 C   0  0  2  0  0  0  0  0  0  0  0  0
    7.6050  -17.3167   18.8509 N   0  0  0  0  0  0  0  0  0  0  0  0
    9.1158  -16.1316   20.3341 C   0  0  0  0  0  0  0  0  0  0  0  0
   10.2654  -15.8391   20.7194 O   0  0  0  0  0  0  0  0  0  0  0  0
    7.1367  -12.2000   28.1058 O   0  0  0  0  0  0  0  0  0  0  0  0
    7.1298  -12.6933   26.8030 C   0  0  0  0  0  0  0  0  0  0  0  0
    6.5973  -13.9282   26.5829 C   0  0  0  0  0  0  0  0  0  0  0  0
    6.5806  -14.4365   25.2973 C   0  0  0  0  0  0  0  0  0  0  0  0
    7.0846  -13.7399   24.2205 C   0  0  0  0  0  0  0  0  0  0  0  0
    7.0308  -14.3348   22.8964 C   0  0  0  0  0  0  0  0  0  0  0  0
    8.2294  -15.1619   22.4987 C   0  0  2  0  0  0  0  0  0  0  0  0
    8.0298  -15.7521   21.1709 N   0  0  0  0  0  0  0  0  0  0  0  0
    8.6229  -16.1814   23.4811 C   0  0  0  0  0  0  0  0  0  0  0  0
    7.9288  -17.2412   23.6767 O   0  0  0  0  0  0  0  0  0  0  0  0
    7.6214  -12.4968   24.4372 C   0  0  0  0  0  0  0  0  0  0  0  0
    7.6395  -11.9800   25.7377 C   0  0  0  0  0  0  0  0  0  0  0  0
   12.2907  -18.4892   25.6664 C   0  0  0  0  0  0  0  0  0  0  0  0
   11.6798  -17.4507   24.7680 C   0  0  1  0  0  0  0  0  0  0  0  0
   11.6711  -17.8970   23.4452 O   0  0  0  0  0  0  0  0  0  0  0  0
   10.2086  -17.1873   25.1583 C   0  0  2  0  0  0  0  0  0  0  0  0
    9.7920  -16.1026   24.2983 N   0  0  0  0  0  0  0  0  0  0  0  0
   10.2758  -16.6949   26.5491 C   0  0  0  0  0  0  0  0  0  0  0  0
   10.1534  -17.5348   27.6512 O   0  0  0  0  0  0  0  0  0  0  0  0
   10.4499  -15.4722   26.7734 O   0  0  0  0  0  0  0  0  0  0  0  0
  1  2  1  0
  2  3  2  0
  4  5  1  0
  4  2  1  0
  5  6  1  6
  5  7  1  0
  7  8  2  0
  9 10  1  0
 10 11  2  0
 10 20  1  0
 11 12  1  0
 12 13  2  0
 13 14  1  0
 15 14  1  1
 15 17  1  0
 16  7  1  0
 16 15  1  0
 17 18  2  0
 19 13  1  0
 20 19  2  0
 22 21  1  1
 22 23  1  0
 22 24  1  0
 24 26  1  0
 24 25  1  6
 25 17  1  0
 26 28  2  0
 26 27  1  0
M  END
$$$$
