NYT.pdb
     RDKit          3D

 28 28  0  0  1  0  0  0  0  0999 V2000
    7.5431  -18.9339   17.9243 N   0  0  0  0  0  0  0  0  0  0  0  0
    8.2735  -17.7517   18.2040 C   0  0  0  0  0  0  0  0  0  0  0  0
    8.0980  -16.7859   17.3999 O   0  0  0  0  0  0  0  0  0  0  0  0
    9.1775  -17.6830   19.3726 C   0  0  0  0  0  0  0  0  0  0  0  0
    8.4569  -17.3952   20.6516 C   0  0  2  0  0  0  0  0  0  0  0  0
    7.3301  -16.5376   20.4503 N   0  0  0  0  0  0  0  0  0  0  0  0
    9.3650  -16.9028   21.7202 C   0  0  0  0  0  0  0  0  0  0  0  0
   10.4407  -17.4988   21.9284 O   0  0  0  0  0  0  0  0  0  0  0  0
    5.3944  -12.9633   27.4992 O   0  0  0  0  0  0  0  0  0  0  0  0
    6.4869  -13.1897   26.6649 C   0  0  0  0  0  0  0  0  0  0  0  0
    6.2496  -13.5959   25.3860 C   0  0  0  0  0  0  0  0  0  0  0  0
    7.3197  -13.8261   24.5415 C   0  0  0  0  0  0  0  0  0  0  0  0
    8.6273  -13.6603   24.9433 C   0  0  0  0  0  0  0  0  0  0  0  0
    9.7022  -13.9174   24.0007 C   0  0  0  0  0  0  0  0  0  0  0  0
    9.9362  -15.3672   23.6508 C   0  0  2  0  0  0  0  0  0  0  0  0
    9.0760  -15.7725   22.5342 N   0  0  0  0  0  0  0  0  0  0  0  0
    9.8144  -16.2973   24.7819 C   0  0  0  0  0  0  0  0  0  0  0  0
    8.6753  -16.6695   25.2368 O   0  0  0  0  0  0  0  0  0  0  0  0
    8.8710  -13.2515   26.2294 C   0  0  0  0  0  0  0  0  0  0  0  0
    7.7893  -13.0178   27.0862 C   0  0  0  0  0  0  0  0  0  0  0  0
   12.0209  -20.1046   26.9453 C   0  0  0  0  0  0  0  0  0  0  0  0
   11.9818  -18.9169   26.0253 C   0  0  1  0  0  0  0  0  0  0  0  0
   11.8167  -19.3319   24.7027 O   0  0  0  0  0  0  0  0  0  0  0  0
   10.7794  -18.0062   26.3591 C   0  0  2  0  0  0  0  0  0  0  0  0
   10.9240  -16.8727   25.4738 N   0  0  0  0  0  0  0  0  0  0  0  0
   11.0236  -17.5625   27.7464 C   0  0  0  0  0  0  0  0  0  0  0  0
   10.5465  -18.2568   28.8534 O   0  0  0  0  0  0  0  0  0  0  0  0
   11.6862  -16.5186   27.9632 O   0  0  0  0  0  0  0  0  0  0  0  0
  1  2  1  0
  2  3  2  0
  4  5  1  0
  4  2  1  0
  5  6  1  6
  5  7  1  0
  7  8  2  0
  9 10  1  0
 10 11  2  0
 10 20  1  0
 11 12  1  0
 12 13  2  0
 13 14  1  0
 15 14  1  1
 15 17  1  0
 16  7  1  0
 16 15  1  0
 17 18  2  0
 19 13  1  0
 20 19  2  0
 22 21  1  1
 22 23  1  0
 22 24  1  0
 24 26  1  0
 24 25  1  6
 25 17  1  0
 26 28  2  0
 26 27  1  0
M  END
$$$$
