NYT.pdb
     RDKit          3D

 28 28  0  0  1  0  0  0  0  0999 V2000
    8.1284  -18.1024   16.5281 N   0  0  0  0  0  0  0  0  0  0  0  0
    8.8743  -16.9007   16.4347 C   0  0  0  0  0  0  0  0  0  0  0  0
    8.9774  -16.3986   15.2739 O   0  0  0  0  0  0  0  0  0  0  0  0
    9.4826  -16.2956   17.6395 C   0  0  0  0  0  0  0  0  0  0  0  0
    9.1754  -17.0541   18.8918 C   0  0  2  0  0  0  0  0  0  0  0  0
    7.9415  -17.7708   18.7949 N   0  0  0  0  0  0  0  0  0  0  0  0
    9.2462  -16.2018   20.1074 C   0  0  0  0  0  0  0  0  0  0  0  0
   10.3221  -15.6411   20.3968 O   0  0  0  0  0  0  0  0  0  0  0  0
    7.1312  -12.3098   27.8329 O   0  0  0  0  0  0  0  0  0  0  0  0
    7.0940  -12.9273   26.5846 C   0  0  0  0  0  0  0  0  0  0  0  0
    7.4907  -12.2088   25.4967 C   0  0  0  0  0  0  0  0  0  0  0  0
    7.4615  -12.8028   24.2486 C   0  0  0  0  0  0  0  0  0  0  0  0
    7.0443  -14.1021   24.0580 C   0  0  0  0  0  0  0  0  0  0  0  0
    7.0429  -14.6625   22.7178 C   0  0  0  0  0  0  0  0  0  0  0  0
    8.2954  -15.4020   22.3137 C   0  0  2  0  0  0  0  0  0  0  0  0
    8.1411  -15.9832   20.9760 N   0  0  0  0  0  0  0  0  0  0  0  0
    8.7516  -16.4084   23.2824 C   0  0  0  0  0  0  0  0  0  0  0  0
    8.0817  -17.4748   23.5216 O   0  0  0  0  0  0  0  0  0  0  0  0
    6.6443  -14.8290   25.1498 C   0  0  0  0  0  0  0  0  0  0  0  0
    6.6729  -14.2300   26.4144 C   0  0  0  0  0  0  0  0  0  0  0  0
   11.6504  -18.5107   23.0864 C   0  0  0  0  0  0  0  0  0  0  0  0
   11.7882  -17.7708   24.3872 C   0  0  1  0  0  0  0  0  0  0  0  0
   12.5157  -16.5937   24.2020 O   0  0  0  0  0  0  0  0  0  0  0  0
   10.4025  -17.3564   24.9300 C   0  0  2  0  0  0  0  0  0  0  0  0
    9.9601  -16.3087   24.0377 N   0  0  0  0  0  0  0  0  0  0  0  0
   10.6836  -16.7677   26.2550 C   0  0  0  0  0  0  0  0  0  0  0  0
   11.0151  -17.5374   27.3653 O   0  0  0  0  0  0  0  0  0  0  0  0
   10.6279  -15.5236   26.4127 O   0  0  0  0  0  0  0  0  0  0  0  0
  1  2  1  0
  2  3  2  0
  4  5  1  0
  4  2  1  0
  5  6  1  6
  5  7  1  0
  7  8  2  0
  9 10  1  0
 10 11  2  0
 10 20  1  0
 11 12  1  0
 12 13  2  0
 13 14  1  0
 15 14  1  1
 15 17  1  0
 16  7  1  0
 16 15  1  0
 17 18  2  0
 19 13  1  0
 20 19  2  0
 22 21  1  6
 22 23  1  0
 22 24  1  0
 24 26  1  0
 24 25  1  6
 25 17  1  0
 26 28  2  0
 26 27  1  0
M  END
$$$$
