NYT.pdb
     RDKit          3D

 28 28  0  0  1  0  0  0  0  0999 V2000
    7.3667  -12.8568   17.5176 N   0  0  0  0  0  0  0  0  0  0  0  0
    8.0769  -13.9690   18.0353 C   0  0  0  0  0  0  0  0  0  0  0  0
    8.1181  -14.9973   17.2931 O   0  0  0  0  0  0  0  0  0  0  0  0
    8.7197  -13.8999   19.3656 C   0  0  0  0  0  0  0  0  0  0  0  0
    8.4202  -15.0903   20.2209 C   0  0  2  0  0  0  0  0  0  0  0  0
    7.0155  -15.3432   20.3139 N   0  0  0  0  0  0  0  0  0  0  0  0
    9.0760  -15.0160   21.5525 C   0  0  0  0  0  0  0  0  0  0  0  0
   10.3157  -14.8940   21.6155 O   0  0  0  0  0  0  0  0  0  0  0  0
   10.3005  -14.6617   30.3673 O   0  0  0  0  0  0  0  0  0  0  0  0
    9.7832  -14.5928   29.0756 C   0  0  0  0  0  0  0  0  0  0  0  0
    9.2023  -15.7089   28.5522 C   0  0  0  0  0  0  0  0  0  0  0  0
    8.6827  -15.6619   27.2719 C   0  0  0  0  0  0  0  0  0  0  0  0
    8.7284  -14.5235   26.4970 C   0  0  0  0  0  0  0  0  0  0  0  0
    8.1592  -14.5457   25.1608 C   0  0  0  0  0  0  0  0  0  0  0  0
    9.0385  -15.1301   24.0818 C   0  0  2  0  0  0  0  0  0  0  0  0
    8.3622  -15.0769   22.7815 N   0  0  0  0  0  0  0  0  0  0  0  0
    9.5403  -16.4817   24.3663 C   0  0  0  0  0  0  0  0  0  0  0  0
    8.7757  -17.5102   24.3415 O   0  0  0  0  0  0  0  0  0  0  0  0
    9.3119  -13.3979   27.0195 C   0  0  0  0  0  0  0  0  0  0  0  0
    9.8387  -13.4429   28.3154 C   0  0  0  0  0  0  0  0  0  0  0  0
   13.3104  -19.5812   24.2683 C   0  0  0  0  0  0  0  0  0  0  0  0
   12.6585  -18.2416   24.0709 C   0  0  1  0  0  0  0  0  0  0  0  0
   12.2961  -18.0698   22.7338 O   0  0  0  0  0  0  0  0  0  0  0  0
   11.3595  -18.1382   24.9006 C   0  0  2  0  0  0  0  0  0  0  0  0
   10.8987  -16.7845   24.6888 N   0  0  0  0  0  0  0  0  0  0  0  0
   11.8023  -18.2777   26.3027 C   0  0  0  0  0  0  0  0  0  0  0  0
   11.6476  -19.4553   27.0268 O   0  0  0  0  0  0  0  0  0  0  0  0
   12.3438  -17.3084   26.8885 O   0  0  0  0  0  0  0  0  0  0  0  0
  1  2  1  0
  2  3  2  0
  4  5  1  0
  4  2  1  0
  5  6  1  1
  5  7  1  0
  7  8  2  0
  9 10  1  0
 10 11  2  0
 10 20  1  0
 11 12  1  0
 12 13  2  0
 13 14  1  0
 15 14  1  1
 15 17  1  0
 16  7  1  0
 16 15  1  0
 17 18  2  0
 19 13  1  0
 20 19  2  0
 22 21  1  6
 22 23  1  0
 22 24  1  0
 24 26  1  0
 24 25  1  1
 25 17  1  0
 26 28  2  0
 26 27  1  0
M  END
$$$$
