NYT.pdb
     RDKit          3D

 28 28  0  0  1  0  0  0  0  0999 V2000
   11.5500  -19.2793   18.7130 N   0  0  0  0  0  0  0  0  0  0  0  0
   10.8807  -18.0778   18.3700 C   0  0  0  0  0  0  0  0  0  0  0  0
   11.1672  -17.5854   17.2361 O   0  0  0  0  0  0  0  0  0  0  0  0
    9.9118  -17.4620   19.3027 C   0  0  0  0  0  0  0  0  0  0  0  0
    9.7845  -18.2121   20.5908 C   0  0  2  0  0  0  0  0  0  0  0  0
    8.7067  -19.1519   20.5591 N   0  0  0  0  0  0  0  0  0  0  0  0
    9.7220  -17.3119   21.7718 C   0  0  0  0  0  0  0  0  0  0  0  0
   10.7764  -16.8163   22.2168 O   0  0  0  0  0  0  0  0  0  0  0  0
    7.7501  -12.1768   18.5787 O   0  0  0  0  0  0  0  0  0  0  0  0
    7.7095  -12.8507   19.7973 C   0  0  0  0  0  0  0  0  0  0  0  0
    6.8316  -13.8838   19.9350 C   0  0  0  0  0  0  0  0  0  0  0  0
    6.7753  -14.5659   21.1363 C   0  0  0  0  0  0  0  0  0  0  0  0
    7.5771  -14.2413   22.2088 C   0  0  0  0  0  0  0  0  0  0  0  0
    7.4663  -15.0040   23.4401 C   0  0  0  0  0  0  0  0  0  0  0  0
    8.4772  -16.1105   23.6207 C   0  0  2  0  0  0  0  0  0  0  0  0
    8.5103  -16.9758   22.4369 N   0  0  0  0  0  0  0  0  0  0  0  0
    8.3107  -16.8969   24.8508 C   0  0  0  0  0  0  0  0  0  0  0  0
    7.3327  -17.7099   25.0112 O   0  0  0  0  0  0  0  0  0  0  0  0
    8.4622  -13.2025   22.0748 C   0  0  0  0  0  0  0  0  0  0  0  0
    8.5211  -12.5103   20.8598 C   0  0  0  0  0  0  0  0  0  0  0  0
    9.1996  -19.5708   25.1083 C   0  0  0  0  0  0  0  0  0  0  0  0
    9.9953  -19.0506   26.2723 C   0  0  1  0  0  0  0  0  0  0  0  0
   11.2200  -18.5426   25.8355 O   0  0  0  0  0  0  0  0  0  0  0  0
    9.2528  -17.8867   26.9655 C   0  0  2  0  0  0  0  0  0  0  0  0
    9.2001  -16.8423   25.9675 N   0  0  0  0  0  0  0  0  0  0  0  0
   10.1589  -17.4631   28.0522 C   0  0  0  0  0  0  0  0  0  0  0  0
   10.2416  -18.1349   29.2675 O   0  0  0  0  0  0  0  0  0  0  0  0
   10.8955  -16.4584   27.8983 O   0  0  0  0  0  0  0  0  0  0  0  0
  1  2  1  0
  2  3  2  0
  4  5  1  0
  4  2  1  0
  5  6  1  6
  5  7  1  0
  7  8  2  0
  9 10  1  0
 10 11  2  0
 10 20  1  0
 11 12  1  0
 12 13  2  0
 13 14  1  0
 15 14  1  6
 15 17  1  0
 16  7  1  0
 16 15  1  0
 17 18  2  0
 19 13  1  0
 20 19  2  0
 22 21  1  6
 22 23  1  0
 22 24  1  0
 24 26  1  0
 24 25  1  6
 25 17  1  0
 26 28  2  0
 26 27  1  0
M  END
$$$$
