QRQ.pdb
     RDKit          3D

 30 29  0  0  1  0  0  0  0  0999 V2000
    9.1770  -12.4914   17.6656 N   0  0  0  0  0  0  0  0  0  0  0  0
    8.1899  -13.2919   17.0035 C   0  0  0  0  0  0  0  0  0  0  0  0
    8.1380  -13.3146   15.7486 O   0  0  0  0  0  0  0  0  0  0  0  0
    7.2164  -14.1038   17.7628 C   0  0  0  0  0  0  0  0  0  0  0  0
    7.3575  -13.8820   19.2354 C   0  0  0  0  0  0  0  0  0  0  0  0
    8.4757  -14.7782   19.7715 C   0  0  2  0  0  0  0  0  0  0  0  0
    8.9182  -15.7071   18.7792 N   0  0  0  0  0  0  0  0  0  0  0  0
    8.0624  -15.4369   21.0370 C   0  0  0  0  0  0  0  0  0  0  0  0
    7.5954  -14.7471   21.9794 O   0  0  0  0  0  0  0  0  0  0  0  0
    8.3135  -22.1019   26.0949 N   0  0  0  0  0  0  0  0  0  0  0  0
    6.9334  -22.0408   25.8099 C   0  0  0  0  0  0  0  0  0  0  0  0
    6.0902  -22.2654   26.7563 N   0  0  0  0  0  0  0  0  0  0  0  0
    6.4768  -21.7315   24.4781 N   0  0  0  0  0  0  0  0  0  0  0  0
    7.3402  -21.1618   23.4999 C   0  0  0  0  0  0  0  0  0  0  0  0
    7.4982  -19.6746   23.6478 C   0  0  0  0  0  0  0  0  0  0  0  0
    7.7182  -18.9913   22.3297 C   0  0  0  0  0  0  0  0  0  0  0  0
    7.8485  -17.4993   22.4942 C   0  0  2  0  0  0  0  0  0  0  0  0
    8.1661  -16.8356   21.2500 N   0  0  0  0  0  0  0  0  0  0  0  0
    8.9949  -17.2219   23.4336 C   0  0  0  0  0  0  0  0  0  0  0  0
   10.1644  -17.1024   22.9948 O   0  0  0  0  0  0  0  0  0  0  0  0
    5.0766  -22.1291   26.5922 N   0  0  0  0  0  0  0  0  0  0  0  0
    7.9601  -13.7168   28.0880 C   0  0  0  0  0  0  0  0  0  0  0  0
    9.3998  -13.7405   28.1723 O   0  0  0  0  0  0  0  0  0  0  0  0
    9.8938  -13.1379   29.1344 C   0  0  0  0  0  0  0  0  0  0  0  0
   10.1011  -14.4682   27.1187 C   0  0  0  0  0  0  0  0  0  0  0  0
    9.2239  -15.1563   26.1270 C   0  0  1  0  0  0  0  0  0  0  0  0
    9.6675  -16.5357   25.7586 N   0  0  0  0  0  0  0  0  0  0  0  0
    8.7081  -17.1000   24.8329 C   0  0  0  0  0  0  0  0  0  0  0  0
    9.8031  -17.4403   26.9052 O   0  0  0  0  0  0  0  0  0  0  0  0
   10.9846  -17.4971   27.6065 O   0  0  0  0  0  0  0  0  0  0  0  0
  1  2  1  0
  2  3  2  0
  4  2  1  0
  4  5  1  0
  6  5  1  0
  6  8  1  0
  6  7  1  6
  8  9  2  0
 10 11  1  0
 11 12  2  0
 11 13  1  0
 13 14  1  0
 14 15  1  0
 16 15  1  0
 17 19  1  0
 17 16  1  6
 18  8  1  0
 18 17  1  0
 19 20  2  0
 21 22  1  0
 22 23  2  0
 24 22  1  0
 24 25  1  0
 26 25  1  6
 27 26  1  0
 27 19  1  0
 28 26  1  0
 29 28  1  0
 30 28  2  0
M  END
$$$$
