QRQ.pdb
     RDKit          3D

 30 29  0  0  1  0  0  0  0  0999 V2000
    4.5216  -24.2906   23.1177 N   0  0  0  0  0  0  0  0  0  0  0  0
    3.4503  -23.5038   23.6533 C   0  0  0  0  0  0  0  0  0  0  0  0
    2.4033  -24.0640   24.0630 O   0  0  0  0  0  0  0  0  0  0  0  0
    3.5405  -22.0314   23.7400 C   0  0  0  0  0  0  0  0  0  0  0  0
    4.8164  -21.5306   23.1408 C   0  0  0  0  0  0  0  0  0  0  0  0
    5.4251  -20.4770   24.0685 C   0  0  2  0  0  0  0  0  0  0  0  0
    4.4103  -19.7088   24.7192 N   0  0  0  0  0  0  0  0  0  0  0  0
    6.4079  -19.6363   23.3383 C   0  0  0  0  0  0  0  0  0  0  0  0
    7.4140  -20.1691   22.8036 O   0  0  0  0  0  0  0  0  0  0  0  0
    7.6111  -11.7236   20.2525 N   0  0  0  0  0  0  0  0  0  0  0  0
    8.2531  -12.5308   19.2903 C   0  0  0  0  0  0  0  0  0  0  0  0
    9.1967  -12.0215   18.5780 N   0  0  0  0  0  0  0  0  0  0  0  0
    7.8566  -13.9046   19.1091 N   0  0  0  0  0  0  0  0  0  0  0  0
    6.9345  -14.5436   19.9857 C   0  0  0  0  0  0  0  0  0  0  0  0
    7.5816  -15.5631   20.8803 C   0  0  0  0  0  0  0  0  0  0  0  0
    6.5794  -16.3082   21.7129 C   0  0  0  0  0  0  0  0  0  0  0  0
    7.2374  -17.3756   22.5483 C   0  0  2  0  0  0  0  0  0  0  0  0
    6.2742  -18.2303   23.2049 N   0  0  0  0  0  0  0  0  0  0  0  0
    8.0306  -16.7041   23.6408 C   0  0  0  0  0  0  0  0  0  0  0  0
    7.4476  -16.0954   24.5702 O   0  0  0  0  0  0  0  0  0  0  0  0
    9.7032  -12.6080   17.8907 N   0  0  0  0  0  0  0  0  0  0  0  0
    9.0684  -18.0985   28.3048 C   0  0  0  0  0  0  0  0  0  0  0  0
   10.4228  -18.3706   27.8906 O   0  0  0  0  0  0  0  0  0  0  0  0
   11.0902  -19.0765   28.6582 C   0  0  0  0  0  0  0  0  0  0  0  0
   10.8452  -17.7847   26.6219 C   0  0  0  0  0  0  0  0  0  0  0  0
    9.8256  -16.9331   25.9424 C   0  0  1  0  0  0  0  0  0  0  0  0
   10.2918  -16.3046   24.6686 N   0  0  0  0  0  0  0  0  0  0  0  0
    9.4609  -16.7828   23.5838 C   0  0  0  0  0  0  0  0  0  0  0  0
   11.6946  -16.5880   24.3469 O   0  0  0  0  0  0  0  0  0  0  0  0
   12.7031  -15.9095   24.9899 O   0  0  0  0  0  0  0  0  0  0  0  0
  1  2  1  0
  2  3  2  0
  4  2  1  0
  4  5  1  0
  6  5  1  0
  6  8  1  0
  6  7  1  6
  8  9  2  0
 10 11  1  0
 11 12  2  0
 11 13  1  0
 13 14  1  0
 14 15  1  0
 16 15  1  0
 17 19  1  0
 17 16  1  1
 18  8  1  0
 18 17  1  0
 19 20  2  0
 21 22  1  0
 22 23  2  0
 24 22  1  0
 24 25  1  0
 26 25  1  1
 27 26  1  0
 27 19  1  0
 28 26  1  0
 29 28  1  0
 30 28  2  0
M  END
$$$$
