QRQ.pdb
     RDKit          3D

 30 29  0  0  1  0  0  0  0  0999 V2000
    7.8752  -20.8318   16.2132 N   0  0  0  0  0  0  0  0  0  0  0  0
    7.6509  -19.4671   16.5884 C   0  0  0  0  0  0  0  0  0  0  0  0
    7.1146  -18.6723   15.7767 O   0  0  0  0  0  0  0  0  0  0  0  0
    8.0365  -18.9579   17.9209 C   0  0  0  0  0  0  0  0  0  0  0  0
    8.7151  -20.0174   18.7301 C   0  0  0  0  0  0  0  0  0  0  0  0
    9.1945  -19.4089   20.0496 C   0  0  2  0  0  0  0  0  0  0  0  0
    8.1792  -18.6002   20.6483 N   0  0  0  0  0  0  0  0  0  0  0  0
   10.4759  -18.6821   19.8600 C   0  0  0  0  0  0  0  0  0  0  0  0
   11.4826  -19.2914   19.4160 O   0  0  0  0  0  0  0  0  0  0  0  0
    7.5673  -14.4272   18.7605 N   0  0  0  0  0  0  0  0  0  0  0  0
    7.8311  -13.0832   19.0977 C   0  0  0  0  0  0  0  0  0  0  0  0
    6.8603  -12.3377   19.4961 N   0  0  0  0  0  0  0  0  0  0  0  0
    9.1684  -12.5550   18.9966 N   0  0  0  0  0  0  0  0  0  0  0  0
   10.2691  -13.3646   18.5967 C   0  0  0  0  0  0  0  0  0  0  0  0
   10.4928  -14.5437   19.5014 C   0  0  0  0  0  0  0  0  0  0  0  0
   11.6807  -15.3621   19.0871 C   0  0  0  0  0  0  0  0  0  0  0  0
   11.8628  -16.5641   19.9771 C   0  0  2  0  0  0  0  0  0  0  0  0
   10.6345  -17.3042   20.1582 N   0  0  0  0  0  0  0  0  0  0  0  0
   12.2813  -16.0856   21.3444 C   0  0  0  0  0  0  0  0  0  0  0  0
   11.5558  -15.2928   21.9923 O   0  0  0  0  0  0  0  0  0  0  0  0
    7.0334  -11.3465   19.7417 N   0  0  0  0  0  0  0  0  0  0  0  0
   14.3194  -19.5797   25.5703 C   0  0  0  0  0  0  0  0  0  0  0  0
   12.9842  -19.1825   25.1967 O   0  0  0  0  0  0  0  0  0  0  0  0
   12.0726  -19.9273   25.5803 C   0  0  0  0  0  0  0  0  0  0  0  0
   12.8655  -17.9559   24.4140 C   0  0  0  0  0  0  0  0  0  0  0  0
   14.1572  -17.2970   24.0619 C   0  0  2  0  0  0  0  0  0  0  0  0
   14.0236  -16.1130   23.1590 N   0  0  0  0  0  0  0  0  0  0  0  0
   13.5246  -16.5616   21.8761 C   0  0  0  0  0  0  0  0  0  0  0  0
   15.2792  -15.3850   22.9469 O   0  0  0  0  0  0  0  0  0  0  0  0
   15.8399  -14.6588   23.9712 O   0  0  0  0  0  0  0  0  0  0  0  0
  1  2  1  0
  2  3  2  0
  4  2  1  0
  4  5  1  0
  6  5  1  0
  6  8  1  0
  6  7  1  6
  8  9  2  0
 10 11  1  0
 11 12  2  0
 11 13  1  0
 13 14  1  0
 14 15  1  0
 16 15  1  0
 17 19  1  0
 17 16  1  6
 18  8  1  0
 18 17  1  0
 19 20  2  0
 21 22  1  0
 22 23  2  0
 24 22  1  0
 24 25  1  0
 26 25  1  1
 27 26  1  0
 27 19  1  0
 28 26  1  0
 29 28  1  0
 30 28  2  0
M  END
$$$$
