QRQ.pdb
     RDKit          3D

 30 29  0  0  1  0  0  0  0  0999 V2000
   13.6174  -15.9526   15.6686 N   0  0  0  0  0  0  0  0  0  0  0  0
   12.2808  -16.4674   15.7165 C   0  0  0  0  0  0  0  0  0  0  0  0
   11.5071  -16.2983   14.7414 O   0  0  0  0  0  0  0  0  0  0  0  0
   11.7769  -17.2023   16.8952 C   0  0  0  0  0  0  0  0  0  0  0  0
   12.8568  -17.4032   17.9108 C   0  0  0  0  0  0  0  0  0  0  0  0
   12.2764  -18.1416   19.1187 C   0  0  2  0  0  0  0  0  0  0  0  0
   11.3513  -19.1534   18.7142 N   0  0  0  0  0  0  0  0  0  0  0  0
   11.6954  -17.1829   20.0933 C   0  0  0  0  0  0  0  0  0  0  0  0
   12.3983  -16.2411   20.5414 O   0  0  0  0  0  0  0  0  0  0  0  0
    7.6557  -13.7664   15.8780 N   0  0  0  0  0  0  0  0  0  0  0  0
    7.7993  -13.5812   17.2689 C   0  0  0  0  0  0  0  0  0  0  0  0
    8.6535  -12.7194   17.6987 N   0  0  0  0  0  0  0  0  0  0  0  0
    7.0007  -14.3468   18.1928 N   0  0  0  0  0  0  0  0  0  0  0  0
    7.2142  -14.2890   19.5992 C   0  0  0  0  0  0  0  0  0  0  0  0
    8.5482  -14.8414   20.0160 C   0  0  0  0  0  0  0  0  0  0  0  0
    8.4253  -15.8642   21.1075 C   0  0  0  0  0  0  0  0  0  0  0  0
    9.7739  -16.3802   21.5377 C   0  0  2  0  0  0  0  0  0  0  0  0
   10.3587  -17.2699   20.5600 N   0  0  0  0  0  0  0  0  0  0  0  0
    9.5954  -17.1863   22.7994 C   0  0  0  0  0  0  0  0  0  0  0  0
    8.8246  -18.1762   22.8201 O   0  0  0  0  0  0  0  0  0  0  0  0
    8.7848  -12.5814   18.7169 N   0  0  0  0  0  0  0  0  0  0  0  0
   12.9044  -20.8309   22.9850 C   0  0  0  0  0  0  0  0  0  0  0  0
   12.7898  -20.3483   24.3393 O   0  0  0  0  0  0  0  0  0  0  0  0
   13.1671  -21.1283   25.2236 C   0  0  0  0  0  0  0  0  0  0  0  0
   12.2453  -19.0042   24.5070 C   0  0  0  0  0  0  0  0  0  0  0  0
   10.8036  -18.9435   24.8871 C   0  0  1  0  0  0  0  0  0  0  0  0
   10.2980  -17.5684   25.1846 N   0  0  0  0  0  0  0  0  0  0  0  0
   10.3288  -16.7886   23.9652 C   0  0  0  0  0  0  0  0  0  0  0  0
   11.0697  -16.8632   26.2135 O   0  0  0  0  0  0  0  0  0  0  0  0
   11.1486  -17.3706   27.4892 O   0  0  0  0  0  0  0  0  0  0  0  0
  1  2  1  0
  2  3  2  0
  4  2  1  0
  4  5  1  0
  6  5  1  0
  6  8  1  0
  6  7  1  6
  8  9  2  0
 10 11  1  0
 11 12  2  0
 11 13  1  0
 13 14  1  0
 14 15  1  0
 16 15  1  0
 17 19  1  0
 17 16  1  6
 18  8  1  0
 18 17  1  0
 19 20  2  0
 21 22  1  0
 22 23  2  0
 24 22  1  0
 24 25  1  0
 26 25  1  6
 27 26  1  0
 27 19  1  0
 28 26  1  0
 29 28  1  0
 30 28  2  0
M  END
$$$$
