QRQ.pdb
     RDKit          3D

 30 29  0  0  1  0  0  0  0  0999 V2000
    9.1985  -11.9011   19.3779 N   0  0  0  0  0  0  0  0  0  0  0  0
    9.5813  -12.9184   18.4439 C   0  0  0  0  0  0  0  0  0  0  0  0
   10.3848  -12.6496   17.5164 O   0  0  0  0  0  0  0  0  0  0  0  0
    9.0523  -14.2948   18.5396 C   0  0  0  0  0  0  0  0  0  0  0  0
    8.1375  -14.4432   19.7138 C   0  0  0  0  0  0  0  0  0  0  0  0
    7.7465  -15.9152   19.8605 C   0  0  2  0  0  0  0  0  0  0  0  0
    6.8239  -16.3118   18.8433 N   0  0  0  0  0  0  0  0  0  0  0  0
    7.2503  -16.1946   21.2323 C   0  0  0  0  0  0  0  0  0  0  0  0
    6.2438  -15.5818   21.6719 O   0  0  0  0  0  0  0  0  0  0  0  0
    9.2109  -19.4945   27.7903 N   0  0  0  0  0  0  0  0  0  0  0  0
    8.2025  -20.4435   28.0589 C   0  0  0  0  0  0  0  0  0  0  0  0
    8.2358  -21.0917   29.1705 N   0  0  0  0  0  0  0  0  0  0  0  0
    7.1518  -20.6819   27.1014 N   0  0  0  0  0  0  0  0  0  0  0  0
    7.3440  -20.4745   25.7061 C   0  0  0  0  0  0  0  0  0  0  0  0
    7.2608  -19.0276   25.3084 C   0  0  0  0  0  0  0  0  0  0  0  0
    7.5056  -18.8252   23.8415 C   0  0  0  0  0  0  0  0  0  0  0  0
    7.4655  -17.3657   23.4696 C   0  0  2  0  0  0  0  0  0  0  0  0
    7.8615  -17.1376   22.0982 N   0  0  0  0  0  0  0  0  0  0  0  0
    8.4579  -16.6268   24.3315 C   0  0  0  0  0  0  0  0  0  0  0  0
    9.6889  -16.8372   24.2102 O   0  0  0  0  0  0  0  0  0  0  0  0
    7.5086  -21.7984   29.3819 N   0  0  0  0  0  0  0  0  0  0  0  0
    6.9286  -11.0802   26.5147 C   0  0  0  0  0  0  0  0  0  0  0  0
    6.0657  -12.1942   26.2072 O   0  0  0  0  0  0  0  0  0  0  0  0
    4.8608  -11.9299   26.1009 C   0  0  0  0  0  0  0  0  0  0  0  0
    6.7110  -13.4953   26.0586 C   0  0  0  0  0  0  0  0  0  0  0  0
    8.1955  -13.4913   26.2098 C   0  0  1  0  0  0  0  0  0  0  0  0
    8.8385  -14.8318   26.0526 N   0  0  0  0  0  0  0  0  0  0  0  0
    7.9537  -15.6840   25.2865 C   0  0  0  0  0  0  0  0  0  0  0  0
    9.1452  -15.4946   27.3246 O   0  0  0  0  0  0  0  0  0  0  0  0
    8.5407  -16.6867   27.6476 O   0  0  0  0  0  0  0  0  0  0  0  0
  1  2  1  0
  2  3  2  0
  4  2  1  0
  4  5  1  0
  6  5  1  0
  6  8  1  0
  6  7  1  6
  8  9  2  0
 10 11  1  0
 11 12  2  0
 11 13  1  0
 13 14  1  0
 14 15  1  0
 16 15  1  0
 17 19  1  0
 17 16  1  1
 18  8  1  0
 18 17  1  0
 19 20  2  0
 21 22  1  0
 22 23  2  0
 24 22  1  0
 24 25  1  0
 26 25  1  6
 27 26  1  0
 27 19  1  0
 28 26  1  0
 29 28  1  0
 30 28  2  0
M  END
$$$$
