LKL.pdb
     RDKit          3D

 26 25  0  0  1  0  0  0  0  0999 V2000
   26.2482  -14.1479  -16.1367 C   0  0  0  0  0  0  0  0  0  0  0  0
   26.8016  -15.4490  -16.6552 C   0  0  1  0  0  0  0  0  0  0  0  0
   28.1248  -15.8197  -16.0263 C   0  0  0  0  0  0  0  0  0  0  0  0
   25.8301  -16.5591  -16.7064 C   0  0  0  0  0  0  0  0  0  0  0  0
   26.3397  -17.9187  -17.0071 C   0  0  2  0  0  0  0  0  0  0  0  0
   26.9052  -18.1068  -18.2981 N   0  0  0  0  0  0  0  0  0  0  0  0
   25.2613  -18.9023  -16.8138 C   0  0  0  0  0  0  0  0  0  0  0  0
   24.3951  -19.0590  -17.7103 O   0  0  0  0  0  0  0  0  0  0  0  0
   25.1237  -19.7108  -15.6550 N   0  0  0  0  0  0  0  0  0  0  0  0
   24.0541  -20.6708  -15.5348 C   0  0  1  0  0  0  0  0  0  0  0  0
   24.4220  -21.8111  -14.5973 C   0  0  0  0  0  0  0  0  0  0  0  0
   24.5108  -23.1348  -15.2809 C   0  0  0  0  0  0  0  0  0  0  0  0
   25.8574  -23.2833  -15.9039 C   0  0  0  0  0  0  0  0  0  0  0  0
   26.0238  -24.5564  -16.6865 C   0  0  0  0  0  0  0  0  0  0  0  0
   27.0664  -25.3609  -16.0519 N   0  0  0  0  0  0  0  0  0  0  0  0
   22.8204  -20.0635  -14.9768 C   0  0  0  0  0  0  0  0  0  0  0  0
   22.9096  -18.9693  -14.3652 O   0  0  0  0  0  0  0  0  0  0  0  0
   18.6915  -17.0528  -14.4120 C   0  0  0  0  0  0  0  0  0  0  0  0
   18.9085  -18.0066  -15.5333 C   0  0  1  0  0  0  0  0  0  0  0  0
   18.7041  -17.2091  -16.8214 C   0  0  0  0  0  0  0  0  0  0  0  0
   20.1079  -18.8401  -15.5553 C   0  0  0  0  0  0  0  0  0  0  0  0
   20.3127  -19.9469  -14.6008 C   0  0  2  0  0  0  0  0  0  0  0  0
   21.5392  -20.6547  -15.0975 N   0  0  0  0  0  0  0  0  0  0  0  0
   19.2684  -20.9560  -14.6431 C   0  0  0  0  0  0  0  0  0  0  0  0
   18.2695  -20.8369  -13.8416 O   0  0  0  0  0  0  0  0  0  0  0  0
   19.1873  -22.0680  -15.4579 O   0  0  0  0  0  0  0  0  0  0  0  0
  2  4  1  0
  2  1  1  1
  3  2  1  0
  4  5  1  0
  5  6  1  6
  7  5  1  0
  7  8  2  0
  9  7  1  0
 10  9  1  0
 10 11  1  1
 12 11  1  0
 13 14  1  0
 13 12  1  0
 15 14  1  0
 16 23  1  0
 16 10  1  0
 17 16  2  0
 19 18  1  1
 19 21  1  0
 20 19  1  0
 22 21  1  6
 22 23  1  0
 24 26  1  0
 24 22  1  0
 25 24  2  0
M  END
$$$$
