LKL.pdb
     RDKit          3D

 26 25  0  0  1  0  0  0  0  0999 V2000
   20.2362  -14.1533  -20.1293 C   0  0  0  0  0  0  0  0  0  0  0  0
   21.3962  -14.5683  -19.2630 C   0  0  1  0  0  0  0  0  0  0  0  0
   21.7184  -13.5591  -18.1853 C   0  0  0  0  0  0  0  0  0  0  0  0
   21.3426  -15.9628  -18.7820 C   0  0  0  0  0  0  0  0  0  0  0  0
   22.4462  -16.4451  -17.9170 C   0  0  2  0  0  0  0  0  0  0  0  0
   23.7553  -16.3678  -18.4665 N   0  0  0  0  0  0  0  0  0  0  0  0
   22.1828  -17.8363  -17.5132 C   0  0  0  0  0  0  0  0  0  0  0  0
   20.9973  -18.2385  -17.4067 O   0  0  0  0  0  0  0  0  0  0  0  0
   23.1993  -18.7849  -17.2266 N   0  0  0  0  0  0  0  0  0  0  0  0
   22.8776  -20.0981  -16.7247 C   0  0  1  0  0  0  0  0  0  0  0  0
   24.0836  -21.0251  -16.7558 C   0  0  0  0  0  0  0  0  0  0  0  0
   23.7693  -22.4203  -16.3292 C   0  0  0  0  0  0  0  0  0  0  0  0
   24.9886  -23.2680  -16.4641 C   0  0  0  0  0  0  0  0  0  0  0  0
   24.7426  -24.7271  -16.1963 C   0  0  0  0  0  0  0  0  0  0  0  0
   26.0291  -25.4210  -16.1770 N   0  0  0  0  0  0  0  0  0  0  0  0
   22.4269  -20.0595  -15.3113 C   0  0  0  0  0  0  0  0  0  0  0  0
   23.1293  -19.4440  -14.4704 O   0  0  0  0  0  0  0  0  0  0  0  0
   20.6212  -18.7519  -10.6995 C   0  0  0  0  0  0  0  0  0  0  0  0
   19.9592  -18.5785  -12.0208 C   0  0  1  0  0  0  0  0  0  0  0  0
   19.6036  -17.0959  -12.1320 C   0  0  0  0  0  0  0  0  0  0  0  0
   20.5915  -19.1118  -13.2247 C   0  0  0  0  0  0  0  0  0  0  0  0
   20.8018  -20.5586  -13.4263 C   0  0  2  0  0  0  0  0  0  0  0  0
   21.2396  -20.6831  -14.8563 N   0  0  0  0  0  0  0  0  0  0  0  0
   19.5812  -21.3427  -13.3503 C   0  0  0  0  0  0  0  0  0  0  0  0
   18.8353  -21.4170  -14.3957 O   0  0  0  0  0  0  0  0  0  0  0  0
   19.0884  -22.0545  -12.2744 O   0  0  0  0  0  0  0  0  0  0  0  0
  2  4  1  0
  2  1  1  1
  3  2  1  0
  4  5  1  0
  5  6  1  6
  7  5  1  0
  7  8  2  0
  9  7  1  0
 10  9  1  0
 10 11  1  1
 12 11  1  0
 13 14  1  0
 13 12  1  0
 15 14  1  0
 16 23  1  0
 16 10  1  0
 17 16  2  0
 19 18  1  1
 19 21  1  0
 20 19  1  0
 22 21  1  6
 22 23  1  0
 24 26  1  0
 24 22  1  0
 25 24  2  0
M  END
$$$$
