LKL.pdb
     RDKit          3D

 26 25  0  0  1  0  0  0  0  0999 V2000
   23.9424  -24.3130  -15.3598 C   0  0  0  0  0  0  0  0  0  0  0  0
   25.1692  -23.5498  -15.7849 C   0  0  1  0  0  0  0  0  0  0  0  0
   25.8092  -22.7828  -14.6510 C   0  0  0  0  0  0  0  0  0  0  0  0
   26.1261  -24.3207  -16.6028 C   0  0  0  0  0  0  0  0  0  0  0  0
   27.4613  -23.7283  -16.8577 C   0  0  2  0  0  0  0  0  0  0  0  0
   27.4922  -22.5923  -17.7123 N   0  0  0  0  0  0  0  0  0  0  0  0
   28.3601  -24.7580  -17.4051 C   0  0  0  0  0  0  0  0  0  0  0  0
   28.2610  -25.0912  -18.6124 O   0  0  0  0  0  0  0  0  0  0  0  0
   29.3600  -25.4220  -16.6471 N   0  0  0  0  0  0  0  0  0  0  0  0
   30.1854  -26.4490  -17.2337 C   0  0  1  0  0  0  0  0  0  0  0  0
   31.6280  -26.3524  -16.7603 C   0  0  0  0  0  0  0  0  0  0  0  0
   32.4586  -25.4200  -17.5776 C   0  0  0  0  0  0  0  0  0  0  0  0
   33.8261  -25.3276  -16.9905 C   0  0  0  0  0  0  0  0  0  0  0  0
   34.7125  -24.3266  -17.6784 C   0  0  0  0  0  0  0  0  0  0  0  0
   35.9777  -24.2463  -16.9507 N   0  0  0  0  0  0  0  0  0  0  0  0
   29.7244  -27.8113  -16.8676 C   0  0  0  0  0  0  0  0  0  0  0  0
   29.3819  -28.0334  -15.6790 O   0  0  0  0  0  0  0  0  0  0  0  0
   25.2659  -30.6869  -17.6594 C   0  0  0  0  0  0  0  0  0  0  0  0
   26.6075  -30.4745  -17.0517 C   0  0  1  0  0  0  0  0  0  0  0  0
   26.7841  -31.5746  -16.0050 C   0  0  0  0  0  0  0  0  0  0  0  0
   27.7753  -30.3047  -17.9124 C   0  0  0  0  0  0  0  0  0  0  0  0
   29.1462  -30.2311  -17.3707 C   0  0  2  0  0  0  0  0  0  0  0  0
   29.6490  -28.8815  -17.7920 N   0  0  0  0  0  0  0  0  0  0  0  0
   30.0685  -31.1706  -17.9849 C   0  0  0  0  0  0  0  0  0  0  0  0
   30.6776  -30.8157  -19.0608 O   0  0  0  0  0  0  0  0  0  0  0  0
   30.4040  -32.4408  -17.5592 O   0  0  0  0  0  0  0  0  0  0  0  0
  2  4  1  0
  2  1  1  1
  3  2  1  0
  4  5  1  0
  5  6  1  6
  7  5  1  0
  7  8  2  0
  9  7  1  0
 10  9  1  0
 10 11  1  1
 12 11  1  0
 13 14  1  0
 13 12  1  0
 15 14  1  0
 16 23  1  0
 16 10  1  0
 17 16  2  0
 19 18  1  6
 19 21  1  0
 20 19  1  0
 22 21  1  6
 22 23  1  0
 24 26  1  0
 24 22  1  0
 25 24  2  0
M  END
$$$$
