LKL.pdb
     RDKit          3D

 26 25  0  0  1  0  0  0  0  0999 V2000
   26.0758  -32.2486  -10.3796 C   0  0  0  0  0  0  0  0  0  0  0  0
   24.9239  -32.8057   -9.5855 C   0  0  1  0  0  0  0  0  0  0  0  0
   23.6662  -31.9771   -9.7095 C   0  0  0  0  0  0  0  0  0  0  0  0
   24.7043  -34.2565   -9.7466 C   0  0  0  0  0  0  0  0  0  0  0  0
   23.7490  -34.9235   -8.8295 C   0  0  2  0  0  0  0  0  0  0  0  0
   23.0279  -34.0738   -7.9464 N   0  0  0  0  0  0  0  0  0  0  0  0
   24.4579  -35.9407   -8.0354 C   0  0  0  0  0  0  0  0  0  0  0  0
   25.0773  -36.8646   -8.6196 O   0  0  0  0  0  0  0  0  0  0  0  0
   24.4942  -35.9555   -6.6163 N   0  0  0  0  0  0  0  0  0  0  0  0
   25.6506  -36.4380   -5.9021 C   0  0  1  0  0  0  0  0  0  0  0  0
   26.7778  -36.8236   -6.8483 C   0  0  0  0  0  0  0  0  0  0  0  0
   27.0857  -38.2839   -6.8390 C   0  0  0  0  0  0  0  0  0  0  0  0
   28.0937  -38.5727   -5.7789 C   0  0  0  0  0  0  0  0  0  0  0  0
   28.5868  -39.9933   -5.7851 C   0  0  0  0  0  0  0  0  0  0  0  0
   29.6321  -40.1285   -4.7723 N   0  0  0  0  0  0  0  0  0  0  0  0
   26.2131  -35.4093   -4.9924 C   0  0  0  0  0  0  0  0  0  0  0  0
   26.2524  -34.2152   -5.3824 O   0  0  0  0  0  0  0  0  0  0  0  0
   26.1227  -31.6680   -1.5995 C   0  0  0  0  0  0  0  0  0  0  0  0
   25.3577  -32.9426   -1.5327 C   0  0  1  0  0  0  0  0  0  0  0  0
   23.8837  -32.5536   -1.4194 C   0  0  0  0  0  0  0  0  0  0  0  0
   25.6036  -33.9891   -2.5215 C   0  0  0  0  0  0  0  0  0  0  0  0
   26.9302  -34.6132   -2.6913 C   0  0  2  0  0  0  0  0  0  0  0  0
   26.7111  -35.7028   -3.6996 N   0  0  0  0  0  0  0  0  0  0  0  0
   27.4064  -35.3053   -1.5060 C   0  0  0  0  0  0  0  0  0  0  0  0
   26.8951  -36.4502   -1.2189 O   0  0  0  0  0  0  0  0  0  0  0  0
   28.3734  -34.8968   -0.6087 O   0  0  0  0  0  0  0  0  0  0  0  0
  2  4  1  0
  2  1  1  6
  3  2  1  0
  4  5  1  0
  5  6  1  1
  7  5  1  0
  7  8  2  0
  9  7  1  0
 10  9  1  0
 10 11  1  6
 12 11  1  0
 13 14  1  0
 13 12  1  0
 15 14  1  0
 16 23  1  0
 16 10  1  0
 17 16  2  0
 19 18  1  6
 19 21  1  0
 20 19  1  0
 22 21  1  1
 22 23  1  0
 24 26  1  0
 24 22  1  0
 25 24  2  0
M  END
$$$$
