LKL.pdb
     RDKit          3D

 26 25  0  0  1  0  0  0  0  0999 V2000
   21.9712  -18.5428  -20.0834 C   0  0  0  0  0  0  0  0  0  0  0  0
   23.0000  -18.0173  -19.1172 C   0  0  1  0  0  0  0  0  0  0  0  0
   22.6306  -16.6722  -18.5358 C   0  0  0  0  0  0  0  0  0  0  0  0
   23.4662  -18.9960  -18.1154 C   0  0  0  0  0  0  0  0  0  0  0  0
   24.3875  -18.5228  -17.0542 C   0  0  2  0  0  0  0  0  0  0  0  0
   25.4964  -17.7444  -17.4856 N   0  0  0  0  0  0  0  0  0  0  0  0
   24.8871  -19.6755  -16.2864 C   0  0  0  0  0  0  0  0  0  0  0  0
   24.3200  -20.7908  -16.4002 O   0  0  0  0  0  0  0  0  0  0  0  0
   25.9951  -19.6182  -15.4007 N   0  0  0  0  0  0  0  0  0  0  0  0
   26.4445  -20.7885  -14.6876 C   0  0  1  0  0  0  0  0  0  0  0  0
   27.9557  -20.9483  -14.7610 C   0  0  0  0  0  0  0  0  0  0  0  0
   28.4592  -21.1910  -16.1449 C   0  0  0  0  0  0  0  0  0  0  0  0
   29.0527  -22.5564  -16.2257 C   0  0  0  0  0  0  0  0  0  0  0  0
   29.7068  -22.8536  -17.5467 C   0  0  0  0  0  0  0  0  0  0  0  0
   30.4304  -24.1187  -17.4346 N   0  0  0  0  0  0  0  0  0  0  0  0
   26.1091  -20.7240  -13.2434 C   0  0  0  0  0  0  0  0  0  0  0  0
   26.5391  -19.7564  -12.5665 O   0  0  0  0  0  0  0  0  0  0  0  0
   27.0210  -19.4478   -8.6573 C   0  0  0  0  0  0  0  0  0  0  0  0
   26.3317  -20.6897   -9.1008 C   0  0  1  0  0  0  0  0  0  0  0  0
   24.9825  -20.7122   -8.3823 C   0  0  0  0  0  0  0  0  0  0  0  0
   26.2312  -20.9946  -10.5257 C   0  0  0  0  0  0  0  0  0  0  0  0
   25.0136  -21.5801  -11.1197 C   0  0  2  0  0  0  0  0  0  0  0  0
   25.3250  -21.7008  -12.5827 N   0  0  0  0  0  0  0  0  0  0  0  0
   23.8569  -20.7028  -11.0654 C   0  0  0  0  0  0  0  0  0  0  0  0
   23.9132  -19.5768  -11.6847 O   0  0  0  0  0  0  0  0  0  0  0  0
   22.6531  -20.9148  -10.4228 O   0  0  0  0  0  0  0  0  0  0  0  0
  2  4  1  0
  2  1  1  1
  3  2  1  0
  4  5  1  0
  5  6  1  6
  7  5  1  0
  7  8  2  0
  9  7  1  0
 10  9  1  0
 10 11  1  1
 12 11  1  0
 13 14  1  0
 13 12  1  0
 15 14  1  0
 16 23  1  0
 16 10  1  0
 17 16  2  0
 19 18  1  6
 19 21  1  0
 20 19  1  0
 22 21  1  1
 22 23  1  0
 24 26  1  0
 24 22  1  0
 25 24  2  0
M  END
$$$$
