LKL.pdb
     RDKit          3D

 26 25  0  0  1  0  0  0  0  0999 V2000
   29.3907  -15.2131  -18.7228 C   0  0  0  0  0  0  0  0  0  0  0  0
   28.9487  -16.6493  -18.6228 C   0  0  1  0  0  0  0  0  0  0  0  0
   30.0948  -17.6039  -18.3803 C   0  0  0  0  0  0  0  0  0  0  0  0
   27.7817  -16.8792  -17.7486 C   0  0  0  0  0  0  0  0  0  0  0  0
   27.4118  -18.2799  -17.4330 C   0  0  2  0  0  0  0  0  0  0  0  0
   27.2050  -19.1413  -18.5452 N   0  0  0  0  0  0  0  0  0  0  0  0
   26.2030  -18.2921  -16.5925 C   0  0  0  0  0  0  0  0  0  0  0  0
   26.2258  -17.7419  -15.4632 O   0  0  0  0  0  0  0  0  0  0  0  0
   24.9773  -18.8977  -16.9748 N   0  0  0  0  0  0  0  0  0  0  0  0
   23.8327  -18.8897  -16.0974 C   0  0  1  0  0  0  0  0  0  0  0  0
   22.5406  -19.1624  -16.8529 C   0  0  0  0  0  0  0  0  0  0  0  0
   21.3230  -19.0771  -15.9941 C   0  0  0  0  0  0  0  0  0  0  0  0
   20.1125  -19.3572  -16.8185 C   0  0  0  0  0  0  0  0  0  0  0  0
   18.8190  -19.1758  -16.0735 C   0  0  0  0  0  0  0  0  0  0  0  0
   17.7115  -19.3772  -17.0060 N   0  0  0  0  0  0  0  0  0  0  0  0
   23.9249  -19.9387  -15.0517 C   0  0  0  0  0  0  0  0  0  0  0  0
   24.2130  -21.1120  -15.3974 O   0  0  0  0  0  0  0  0  0  0  0  0
   26.2950  -21.0198   -9.7541 C   0  0  0  0  0  0  0  0  0  0  0  0
   25.1330  -21.3548  -10.6211 C   0  0  1  0  0  0  0  0  0  0  0  0
   23.9376  -21.5373   -9.6858 C   0  0  0  0  0  0  0  0  0  0  0  0
   24.8330  -20.5251  -11.7852 C   0  0  0  0  0  0  0  0  0  0  0  0
   23.6923  -20.8075  -12.6780 C   0  0  2  0  0  0  0  0  0  0  0  0
   23.7043  -19.6866  -13.6757 N   0  0  0  0  0  0  0  0  0  0  0  0
   22.3988  -20.6996  -12.0255 C   0  0  0  0  0  0  0  0  0  0  0  0
   21.7787  -21.7824  -11.7131 O   0  0  0  0  0  0  0  0  0  0  0  0
   21.7128  -19.5542  -11.6724 O   0  0  0  0  0  0  0  0  0  0  0  0
  2  4  1  0
  2  1  1  1
  3  2  1  0
  4  5  1  0
  5  6  1  6
  7  5  1  0
  7  8  2  0
  9  7  1  0
 10  9  1  0
 10 11  1  6
 12 11  1  0
 13 14  1  0
 13 12  1  0
 15 14  1  0
 16 23  1  0
 16 10  1  0
 17 16  2  0
 19 18  1  1
 19 21  1  0
 20 19  1  0
 22 21  1  1
 22 23  1  0
 24 26  1  0
 24 22  1  0
 25 24  2  0
M  END
$$$$
