LKL.pdb
     RDKit          3D

 26 25  0  0  1  0  0  0  0  0999 V2000
   32.4242  -24.5035  -18.3916 C   0  0  0  0  0  0  0  0  0  0  0  0
   31.5246  -25.0935  -17.3378 C   0  0  1  0  0  0  0  0  0  0  0  0
   32.2233  -25.3000  -16.0138 C   0  0  0  0  0  0  0  0  0  0  0  0
   30.2003  -24.4515  -17.2232 C   0  0  0  0  0  0  0  0  0  0  0  0
   29.3153  -24.8720  -16.1103 C   0  0  2  0  0  0  0  0  0  0  0  0
   29.0835  -26.2693  -15.9850 N   0  0  0  0  0  0  0  0  0  0  0  0
   28.0183  -24.1847  -16.2265 C   0  0  0  0  0  0  0  0  0  0  0  0
   27.9816  -22.9295  -16.2660 O   0  0  0  0  0  0  0  0  0  0  0  0
   26.7692  -24.8553  -16.2991 N   0  0  0  0  0  0  0  0  0  0  0  0
   25.5275  -24.1227  -16.3373 C   0  0  1  0  0  0  0  0  0  0  0  0
   24.4120  -24.9356  -16.9772 C   0  0  0  0  0  0  0  0  0  0  0  0
   24.1145  -24.5300  -18.3823 C   0  0  0  0  0  0  0  0  0  0  0  0
   25.2173  -24.9871  -19.2758 C   0  0  0  0  0  0  0  0  0  0  0  0
   25.0285  -24.5979  -20.7159 C   0  0  0  0  0  0  0  0  0  0  0  0
   26.1445  -25.1330  -21.4937 N   0  0  0  0  0  0  0  0  0  0  0  0
   25.0479  -23.7677  -14.9785 C   0  0  0  0  0  0  0  0  0  0  0  0
   24.8009  -24.6930  -14.1647 O   0  0  0  0  0  0  0  0  0  0  0  0
   25.2582  -21.7521  -10.0361 C   0  0  0  0  0  0  0  0  0  0  0  0
   25.3739  -20.8177  -11.1884 C   0  0  1  0  0  0  0  0  0  0  0  0
   26.5040  -19.8478  -10.8433 C   0  0  0  0  0  0  0  0  0  0  0  0
   25.4637  -21.3480  -12.5464 C   0  0  0  0  0  0  0  0  0  0  0  0
   24.3737  -22.1344  -13.1562 C   0  0  2  0  0  0  0  0  0  0  0  0
   24.8528  -22.4332  -14.5465 N   0  0  0  0  0  0  0  0  0  0  0  0
   23.1465  -21.3809  -13.3486 C   0  0  0  0  0  0  0  0  0  0  0  0
   22.9995  -20.7196  -14.4421 O   0  0  0  0  0  0  0  0  0  0  0  0
   22.0674  -21.2725  -12.4937 O   0  0  0  0  0  0  0  0  0  0  0  0
  2  4  1  0
  2  1  1  6
  3  2  1  0
  4  5  1  0
  5  6  1  6
  7  5  1  0
  7  8  2  0
  9  7  1  0
 10  9  1  0
 10 11  1  1
 12 11  1  0
 13 14  1  0
 13 12  1  0
 15 14  1  0
 16 23  1  0
 16 10  1  0
 17 16  2  0
 19 18  1  1
 19 21  1  0
 20 19  1  0
 22 21  1  6
 22 23  1  0
 24 26  1  0
 24 22  1  0
 25 24  2  0
M  END
$$$$
