GYK.pdb
     RDKit          3D

 26 26  0  0  1  0  0  0  0  0999 V2000
    9.3587  -16.7507   18.1071 N   0  0  0  0  0  0  0  0  0  0  0  0
    8.2203  -16.8247   18.9886 C   0  0  0  0  0  0  0  0  0  0  0  0
    8.5489  -16.1274   20.2583 C   0  0  0  0  0  0  0  0  0  0  0  0
    9.7567  -16.0292   20.6263 O   0  0  0  0  0  0  0  0  0  0  0  0
    7.3154  -12.1497   28.1689 O   0  0  0  0  0  0  0  0  0  0  0  0
    7.1537  -12.6798   26.8734 C   0  0  0  0  0  0  0  0  0  0  0  0
    6.4058  -13.8110   26.6867 C   0  0  0  0  0  0  0  0  0  0  0  0
    6.2486  -14.3324   25.4010 C   0  0  0  0  0  0  0  0  0  0  0  0
    6.8303  -13.7330   24.3133 C   0  0  0  0  0  0  0  0  0  0  0  0
    6.6814  -14.2511   22.9633 C   0  0  0  0  0  0  0  0  0  0  0  0
    7.8898  -14.9656   22.4062 C   0  0  2  0  0  0  0  0  0  0  0  0
    7.5871  -15.5529   21.1038 N   0  0  0  0  0  0  0  0  0  0  0  0
    8.4182  -16.0281   23.2903 C   0  0  0  0  0  0  0  0  0  0  0  0
    7.7779  -17.1145   23.4424 O   0  0  0  0  0  0  0  0  0  0  0  0
    7.5734  -12.5991   24.5431 C   0  0  0  0  0  0  0  0  0  0  0  0
    7.7406  -12.0707   25.7962 C   0  0  0  0  0  0  0  0  0  0  0  0
    9.6388  -15.9352   24.0154 N   0  0  0  0  0  0  0  0  0  0  0  0
   10.1583  -17.0803   24.7877 C   0  0  1  0  0  0  0  0  0  0  0  0
   11.4421  -17.5691   24.1340 C   0  0  0  0  0  0  0  0  0  0  0  0
   12.6038  -16.6351   24.3255 C   0  0  0  0  0  0  0  0  0  0  0  0
   13.8657  -17.1845   23.6828 C   0  0  0  0  0  0  0  0  0  0  0  0
   15.0613  -16.3291   23.9918 C   0  0  0  0  0  0  0  0  0  0  0  0
   16.2892  -16.8942   23.5123 N   0  0  0  0  0  0  0  0  0  0  0  0
   10.3143  -16.7387   26.2042 C   0  0  0  0  0  0  0  0  0  0  0  0
   10.1061  -15.4687   26.7124 O   0  0  0  0  0  0  0  0  0  0  0  0
   10.6561  -17.6177   27.0349 O   0  0  0  0  0  0  0  0  0  0  0  0
  1  2  1  0
  2  3  1  0
  3 12  1  0
  3  4  2  0
  6 16  2  0
  6  5  1  0
  7  6  1  0
  8  9  1  0
  8  7  2  0
  9 15  2  0
 10  9  1  0
 11 10  1  1
 11 13  1  0
 12 11  1  0
 13 14  2  0
 13 17  1  0
 15 16  1  0
 17 18  1  0
 18 24  1  0
 18 19  1  6
 20 19  1  0
 21 20  1  0
 22 21  1  0
 23 22  1  0
 24 25  1  0
 26 24  2  0
M  END
$$$$
