GYK.pdb
     RDKit          3D

 26 26  0  0  1  0  0  0  0  0999 V2000
    5.7514  -19.5034   20.5897 N   0  0  0  0  0  0  0  0  0  0  0  0
    5.9117  -18.7094   21.7823 C   0  0  0  0  0  0  0  0  0  0  0  0
    7.1822  -17.9461   21.6850 C   0  0  0  0  0  0  0  0  0  0  0  0
    7.9959  -18.1981   20.7479 O   0  0  0  0  0  0  0  0  0  0  0  0
    7.0011  -12.1654   17.8129 O   0  0  0  0  0  0  0  0  0  0  0  0
    7.3825  -12.8003   19.0117 C   0  0  0  0  0  0  0  0  0  0  0  0
    6.4306  -13.3590   19.8215 C   0  0  0  0  0  0  0  0  0  0  0  0
    6.8137  -13.9870   21.0083 C   0  0  0  0  0  0  0  0  0  0  0  0
    8.1307  -14.0576   21.3839 C   0  0  0  0  0  0  0  0  0  0  0  0
    8.5592  -14.7074   22.6115 C   0  0  0  0  0  0  0  0  0  0  0  0
    8.8105  -16.1930   22.5052 C   0  0  2  0  0  0  0  0  0  0  0  0
    7.5556  -16.9357   22.5848 N   0  0  0  0  0  0  0  0  0  0  0  0
    9.7351  -16.7194   23.5336 C   0  0  0  0  0  0  0  0  0  0  0  0
    9.3539  -16.8390   24.7393 O   0  0  0  0  0  0  0  0  0  0  0  0
    9.0556  -13.4844   20.5433 C   0  0  0  0  0  0  0  0  0  0  0  0
    8.7017  -12.8633   19.3744 C   0  0  0  0  0  0  0  0  0  0  0  0
   11.0744  -17.1249   23.2764 N   0  0  0  0  0  0  0  0  0  0  0  0
   11.8950  -17.7618   24.3244 C   0  0  1  0  0  0  0  0  0  0  0  0
   12.8033  -18.7947   23.6744 C   0  0  0  0  0  0  0  0  0  0  0  0
   13.0564  -19.9973   24.5395 C   0  0  0  0  0  0  0  0  0  0  0  0
   13.9476  -21.0060   23.8356 C   0  0  0  0  0  0  0  0  0  0  0  0
   14.2198  -22.2029   24.7017 C   0  0  0  0  0  0  0  0  0  0  0  0
   14.9663  -23.2227   24.0237 N   0  0  0  0  0  0  0  0  0  0  0  0
   12.6164  -16.7611   25.1155 C   0  0  0  0  0  0  0  0  0  0  0  0
   12.7429  -16.8201   26.4921 O   0  0  0  0  0  0  0  0  0  0  0  0
   13.1628  -15.7799   24.5514 O   0  0  0  0  0  0  0  0  0  0  0  0
  1  2  1  0
  2  3  1  0
  3 12  1  0
  3  4  2  0
  6 16  2  0
  6  5  1  0
  7  6  1  0
  8  9  1  0
  8  7  2  0
  9 15  2  0
 10  9  1  0
 11 10  1  1
 11 13  1  0
 12 11  1  0
 13 14  2  0
 13 17  1  0
 15 16  1  0
 17 18  1  0
 18 24  1  0
 18 19  1  6
 20 19  1  0
 21 20  1  0
 22 21  1  0
 23 22  1  0
 24 25  1  0
 26 24  2  0
M  END
$$$$
