GYK.pdb
     RDKit          3D

 26 26  0  0  1  0  0  0  0  0999 V2000
    7.4137  -19.1718   19.1394 N   0  0  0  0  0  0  0  0  0  0  0  0
    6.9205  -18.5733   20.3547 C   0  0  0  0  0  0  0  0  0  0  0  0
    8.0038  -17.7607   20.9650 C   0  0  0  0  0  0  0  0  0  0  0  0
    9.1589  -17.7631   20.4459 O   0  0  0  0  0  0  0  0  0  0  0  0
    7.5463  -11.9744   18.0863 O   0  0  0  0  0  0  0  0  0  0  0  0
    7.7965  -12.6680   19.2871 C   0  0  0  0  0  0  0  0  0  0  0  0
    9.0628  -12.7002   19.8062 C   0  0  0  0  0  0  0  0  0  0  0  0
    9.3056  -13.3889   20.9963 C   0  0  0  0  0  0  0  0  0  0  0  0
    8.2976  -14.0383   21.6618 C   0  0  0  0  0  0  0  0  0  0  0  0
    8.5199  -14.7603   22.9037 C   0  0  0  0  0  0  0  0  0  0  0  0
    8.9066  -16.2121   22.7494 C   0  0  2  0  0  0  0  0  0  0  0  0
    7.8325  -16.9672   22.1099 N   0  0  0  0  0  0  0  0  0  0  0  0
    9.2559  -16.8779   24.0240 C   0  0  0  0  0  0  0  0  0  0  0  0
    8.9270  -16.3541   25.1334 O   0  0  0  0  0  0  0  0  0  0  0  0
    7.0404  -13.9822   21.1076 C   0  0  0  0  0  0  0  0  0  0  0  0
    6.7801  -13.3123   19.9410 C   0  0  0  0  0  0  0  0  0  0  0  0
    9.9573  -18.1122   24.1186 N   0  0  0  0  0  0  0  0  0  0  0  0
   11.3456  -18.1663   24.6157 C   0  0  1  0  0  0  0  0  0  0  0  0
   12.2861  -17.7837   23.4827 C   0  0  0  0  0  0  0  0  0  0  0  0
   13.7209  -17.6601   23.9126 C   0  0  0  0  0  0  0  0  0  0  0  0
   14.4704  -18.9667   23.7166 C   0  0  0  0  0  0  0  0  0  0  0  0
   15.9211  -18.8326   24.0832 C   0  0  0  0  0  0  0  0  0  0  0  0
   16.6479  -20.0604   23.9386 N   0  0  0  0  0  0  0  0  0  0  0  0
   11.5116  -17.3457   25.8184 C   0  0  0  0  0  0  0  0  0  0  0  0
   11.4717  -15.9626   25.8125 O   0  0  0  0  0  0  0  0  0  0  0  0
   11.7040  -17.8888   26.9354 O   0  0  0  0  0  0  0  0  0  0  0  0
  1  2  1  0
  2  3  1  0
  3 12  1  0
  3  4  2  0
  6 16  2  0
  6  5  1  0
  7  6  1  0
  8  9  1  0
  8  7  2  0
  9 15  2  0
 10  9  1  0
 11 10  1  1
 11 13  1  0
 12 11  1  0
 13 14  2  0
 13 17  1  0
 15 16  1  0
 17 18  1  0
 18 24  1  0
 18 19  1  6
 20 19  1  0
 21 20  1  0
 22 21  1  0
 23 22  1  0
 24 25  1  0
 26 24  2  0
M  END
$$$$
