GYK.pdb
     RDKit          3D

 26 26  0  0  1  0  0  0  0  0999 V2000
    5.3574  -19.4886   20.6735 N   0  0  0  0  0  0  0  0  0  0  0  0
    5.0214  -18.3369   21.4729 C   0  0  0  0  0  0  0  0  0  0  0  0
    6.2634  -17.7940   22.0805 C   0  0  0  0  0  0  0  0  0  0  0  0
    7.3263  -18.4821   22.0575 O   0  0  0  0  0  0  0  0  0  0  0  0
    8.7364  -12.3392   18.0589 O   0  0  0  0  0  0  0  0  0  0  0  0
    8.4345  -12.8664   19.3304 C   0  0  0  0  0  0  0  0  0  0  0  0
    7.1455  -12.8434   19.7908 C   0  0  0  0  0  0  0  0  0  0  0  0
    6.8515  -13.3670   21.0514 C   0  0  0  0  0  0  0  0  0  0  0  0
    7.8311  -13.9077   21.8442 C   0  0  0  0  0  0  0  0  0  0  0  0
    7.5543  -14.4629   23.1588 C   0  0  0  0  0  0  0  0  0  0  0  0
    7.5750  -15.9707   23.2434 C   0  0  2  0  0  0  0  0  0  0  0  0
    6.3444  -16.5354   22.6962 N   0  0  0  0  0  0  0  0  0  0  0  0
    7.7623  -16.4913   24.6159 C   0  0  0  0  0  0  0  0  0  0  0  0
    6.8484  -16.3501   25.4866 O   0  0  0  0  0  0  0  0  0  0  0  0
    9.1125  -13.9117   21.3454 C   0  0  0  0  0  0  0  0  0  0  0  0
    9.4231  -13.4033   20.1116 C   0  0  0  0  0  0  0  0  0  0  0  0
    8.9295  -17.1704   25.0642 N   0  0  0  0  0  0  0  0  0  0  0  0
    9.0307  -17.6885   26.4421 C   0  0  1  0  0  0  0  0  0  0  0  0
    8.8128  -19.1939   26.4160 C   0  0  0  0  0  0  0  0  0  0  0  0
    7.5385  -19.6254   27.0858 C   0  0  0  0  0  0  0  0  0  0  0  0
    7.4180  -21.1391   27.1199 C   0  0  0  0  0  0  0  0  0  0  0  0
    6.1105  -21.5766   27.7166 C   0  0  0  0  0  0  0  0  0  0  0  0
    5.8978  -22.9913   27.6154 N   0  0  0  0  0  0  0  0  0  0  0  0
   10.2941  -17.2892   27.0682 C   0  0  0  0  0  0  0  0  0  0  0  0
   11.2917  -16.5972   26.4046 O   0  0  0  0  0  0  0  0  0  0  0  0
   10.5237  -17.5729   28.2709 O   0  0  0  0  0  0  0  0  0  0  0  0
  1  2  1  0
  2  3  1  0
  3 12  1  0
  3  4  2  0
  6 16  2  0
  6  5  1  0
  7  6  1  0
  8  9  1  0
  8  7  2  0
  9 15  2  0
 10  9  1  0
 11 10  1  1
 11 13  1  0
 12 11  1  0
 13 14  2  0
 13 17  1  0
 15 16  1  0
 17 18  1  0
 18 24  1  0
 18 19  1  6
 20 19  1  0
 21 20  1  0
 22 21  1  0
 23 22  1  0
 24 25  1  0
 26 24  2  0
M  END
$$$$
