GYK.pdb
     RDKit          3D

 26 26  0  0  1  0  0  0  0  0999 V2000
    8.3814  -12.8315   17.6251 N   0  0  0  0  0  0  0  0  0  0  0  0
    7.7389  -13.8654   18.3974 C   0  0  0  0  0  0  0  0  0  0  0  0
    8.1513  -13.7313   19.8181 C   0  0  0  0  0  0  0  0  0  0  0  0
    9.3657  -13.5104   20.1012 O   0  0  0  0  0  0  0  0  0  0  0  0
    7.7790  -13.0236   28.6919 O   0  0  0  0  0  0  0  0  0  0  0  0
    7.4806  -13.0803   27.3159 C   0  0  0  0  0  0  0  0  0  0  0  0
    6.6624  -14.0666   26.8346 C   0  0  0  0  0  0  0  0  0  0  0  0
    6.3698  -14.1185   25.4702 C   0  0  0  0  0  0  0  0  0  0  0  0
    6.8867  -13.1976   24.5954 C   0  0  0  0  0  0  0  0  0  0  0  0
    6.5971  -13.2248   23.1712 C   0  0  0  0  0  0  0  0  0  0  0  0
    7.6778  -13.8216   22.3010 C   0  0  2  0  0  0  0  0  0  0  0  0
    7.2639  -13.8353   20.9005 N   0  0  0  0  0  0  0  0  0  0  0  0
    8.0698  -15.1947   22.6895 C   0  0  0  0  0  0  0  0  0  0  0  0
    7.3666  -16.1894   22.3298 O   0  0  0  0  0  0  0  0  0  0  0  0
    7.7039  -12.2233   25.1185 C   0  0  0  0  0  0  0  0  0  0  0  0
    8.0040  -12.1539   26.4536 C   0  0  0  0  0  0  0  0  0  0  0  0
    9.2208  -15.5118   23.4635 N   0  0  0  0  0  0  0  0  0  0  0  0
    9.4905  -16.8951   23.9008 C   0  0  1  0  0  0  0  0  0  0  0  0
   10.8141  -17.3479   23.3028 C   0  0  0  0  0  0  0  0  0  0  0  0
   11.1937  -18.7511   23.6843 C   0  0  0  0  0  0  0  0  0  0  0  0
   12.4749  -19.1837   22.9925 C   0  0  0  0  0  0  0  0  0  0  0  0
   12.8465  -20.5950   23.3489 C   0  0  0  0  0  0  0  0  0  0  0  0
   14.1192  -20.9871   22.8166 N   0  0  0  0  0  0  0  0  0  0  0  0
    9.4361  -17.0107   25.3607 C   0  0  0  0  0  0  0  0  0  0  0  0
    9.6793  -15.9550   26.2215 O   0  0  0  0  0  0  0  0  0  0  0  0
    9.1586  -18.1115   25.9000 O   0  0  0  0  0  0  0  0  0  0  0  0
  1  2  1  0
  2  3  1  0
  3 12  1  0
  3  4  2  0
  6 16  2  0
  6  5  1  0
  7  6  1  0
  8  9  1  0
  8  7  2  0
  9 15  2  0
 10  9  1  0
 11 10  1  1
 11 13  1  0
 12 11  1  0
 13 14  2  0
 13 17  1  0
 15 16  1  0
 17 18  1  0
 18 24  1  0
 18 19  1  1
 20 19  1  0
 21 20  1  0
 22 21  1  0
 23 22  1  0
 24 25  1  0
 26 24  2  0
M  END
$$$$
