GYK.pdb
     RDKit          3D

 26 26  0  0  1  0  0  0  0  0999 V2000
    5.9153  -15.2363   20.4497 N   0  0  0  0  0  0  0  0  0  0  0  0
    5.8560  -16.0920   21.6085 C   0  0  0  0  0  0  0  0  0  0  0  0
    6.9715  -15.7401   22.5240 C   0  0  0  0  0  0  0  0  0  0  0  0
    7.9718  -15.1034   22.0792 O   0  0  0  0  0  0  0  0  0  0  0  0
    5.8738  -10.0296   26.7571 O   0  0  0  0  0  0  0  0  0  0  0  0
    6.3084  -11.3613   26.6042 C   0  0  0  0  0  0  0  0  0  0  0  0
    7.6125  -11.6210   26.2786 C   0  0  0  0  0  0  0  0  0  0  0  0
    8.0383  -12.9423   26.1283 C   0  0  0  0  0  0  0  0  0  0  0  0
    7.1742  -13.9931   26.3006 C   0  0  0  0  0  0  0  0  0  0  0  0
    7.5897  -15.3783   26.1538 C   0  0  0  0  0  0  0  0  0  0  0  0
    8.1036  -15.7595   24.7857 C   0  0  2  0  0  0  0  0  0  0  0  0
    6.9959  -16.0733   23.8872 N   0  0  0  0  0  0  0  0  0  0  0  0
    9.0408  -16.9047   24.7954 C   0  0  0  0  0  0  0  0  0  0  0  0
    8.6378  -18.0616   25.1308 O   0  0  0  0  0  0  0  0  0  0  0  0
    5.8733  -13.6900   26.6269 C   0  0  0  0  0  0  0  0  0  0  0  0
    5.4344  -12.4010   26.7793 C   0  0  0  0  0  0  0  0  0  0  0  0
   10.4164  -16.8188   24.4422 N   0  0  0  0  0  0  0  0  0  0  0  0
   11.2921  -18.0057   24.4846 C   0  0  1  0  0  0  0  0  0  0  0  0
   12.1963  -17.9904   23.2612 C   0  0  0  0  0  0  0  0  0  0  0  0
   13.1390  -16.8204   23.2290 C   0  0  0  0  0  0  0  0  0  0  0  0
   14.1155  -16.9300   22.0707 C   0  0  0  0  0  0  0  0  0  0  0  0
   14.9861  -15.7104   21.9639 C   0  0  0  0  0  0  0  0  0  0  0  0
   15.9752  -15.8209   20.9312 N   0  0  0  0  0  0  0  0  0  0  0  0
   12.0222  -18.0821   25.7529 C   0  0  0  0  0  0  0  0  0  0  0  0
   12.8376  -19.1435   26.1037 O   0  0  0  0  0  0  0  0  0  0  0  0
   11.9283  -17.1546   26.5959 O   0  0  0  0  0  0  0  0  0  0  0  0
  1  2  1  0
  2  3  1  0
  3 12  1  0
  3  4  2  0
  6 16  2  0
  6  5  1  0
  7  6  1  0
  8  9  1  0
  8  7  2  0
  9 15  2  0
 10  9  1  0
 11 10  1  1
 11 13  1  0
 12 11  1  0
 13 14  2  0
 13 17  1  0
 15 16  1  0
 17 18  1  0
 18 24  1  0
 18 19  1  6
 20 19  1  0
 21 20  1  0
 22 21  1  0
 23 22  1  0
 24 25  1  0
 26 24  2  0
M  END
$$$$
