GYK.pdb
     RDKit          3D

 26 26  0  0  1  0  0  0  0  0999 V2000
    6.3222  -19.7145   20.3651 N   0  0  0  0  0  0  0  0  0  0  0  0
    6.5203  -19.0201   21.6129 C   0  0  0  0  0  0  0  0  0  0  0  0
    7.7163  -18.1475   21.4933 C   0  0  0  0  0  0  0  0  0  0  0  0
    8.4344  -18.2057   20.4517 O   0  0  0  0  0  0  0  0  0  0  0  0
    6.7428  -12.2049   18.2200 O   0  0  0  0  0  0  0  0  0  0  0  0
    7.2893  -12.8899   19.3235 C   0  0  0  0  0  0  0  0  0  0  0  0
    6.4611  -13.4926   20.2317 C   0  0  0  0  0  0  0  0  0  0  0  0
    7.0076  -14.1702   21.3234 C   0  0  0  0  0  0  0  0  0  0  0  0
    8.3643  -14.2464   21.5081 C   0  0  0  0  0  0  0  0  0  0  0  0
    8.9615  -14.9472   22.6328 C   0  0  0  0  0  0  0  0  0  0  0  0
    9.3089  -16.3958   22.3837 C   0  0  2  0  0  0  0  0  0  0  0  0
    8.1186  -17.2363   22.4822 N   0  0  0  0  0  0  0  0  0  0  0  0
   10.3401  -16.9309   23.3003 C   0  0  0  0  0  0  0  0  0  0  0  0
   10.0707  -17.1266   24.5261 O   0  0  0  0  0  0  0  0  0  0  0  0
    9.1614  -13.6279   20.5738 C   0  0  0  0  0  0  0  0  0  0  0  0
    8.6463  -12.9578   19.4954 C   0  0  0  0  0  0  0  0  0  0  0  0
   11.6669  -17.2636   22.9087 N   0  0  0  0  0  0  0  0  0  0  0  0
   12.6100  -17.8875   23.8567 C   0  0  1  0  0  0  0  0  0  0  0  0
   13.2943  -19.0581   23.1670 C   0  0  0  0  0  0  0  0  0  0  0  0
   14.3042  -19.7558   24.0341 C   0  0  0  0  0  0  0  0  0  0  0  0
   14.9571  -20.9136   23.2990 C   0  0  0  0  0  0  0  0  0  0  0  0
   15.8991  -21.6733   24.1891 C   0  0  0  0  0  0  0  0  0  0  0  0
   16.5680  -22.7434   23.5078 N   0  0  0  0  0  0  0  0  0  0  0  0
   13.5451  -16.9002   24.4030 C   0  0  0  0  0  0  0  0  0  0  0  0
   14.1282  -17.0085   25.6531 O   0  0  0  0  0  0  0  0  0  0  0  0
   13.8593  -15.8849   23.7321 O   0  0  0  0  0  0  0  0  0  0  0  0
  1  2  1  0
  2  3  1  0
  3 12  1  0
  3  4  2  0
  6 16  2  0
  6  5  1  0
  7  6  1  0
  8  9  1  0
  8  7  2  0
  9 15  2  0
 10  9  1  0
 11 10  1  1
 11 13  1  0
 12 11  1  0
 13 14  2  0
 13 17  1  0
 15 16  1  0
 17 18  1  0
 18 24  1  0
 18 19  1  6
 20 19  1  0
 21 20  1  0
 22 21  1  0
 23 22  1  0
 24 25  1  0
 26 24  2  0
M  END
$$$$
