GYK.pdb
     RDKit          3D

 26 26  0  0  1  0  0  0  0  0999 V2000
    7.1896  -19.8629   25.9749 N   0  0  0  0  0  0  0  0  0  0  0  0
    8.5622  -19.4305   25.8873 C   0  0  0  0  0  0  0  0  0  0  0  0
    8.5928  -18.0130   25.4446 C   0  0  0  0  0  0  0  0  0  0  0  0
    7.5062  -17.3922   25.2506 O   0  0  0  0  0  0  0  0  0  0  0  0
   10.0528  -15.4544   31.0984 O   0  0  0  0  0  0  0  0  0  0  0  0
   10.2224  -15.3608   29.7027 C   0  0  0  0  0  0  0  0  0  0  0  0
   10.8421  -16.3731   29.0206 C   0  0  0  0  0  0  0  0  0  0  0  0
   11.0077  -16.2756   27.6375 C   0  0  0  0  0  0  0  0  0  0  0  0
   10.5607  -15.1815   26.9420 C   0  0  0  0  0  0  0  0  0  0  0  0
   10.7162  -15.0540   25.5024 C   0  0  0  0  0  0  0  0  0  0  0  0
    9.8166  -15.9387   24.6722 C   0  0  2  0  0  0  0  0  0  0  0  0
    9.7758  -17.2920   25.2195 N   0  0  0  0  0  0  0  0  0  0  0  0
   10.2053  -16.0190   23.2466 C   0  0  0  0  0  0  0  0  0  0  0  0
   10.3584  -14.9601   22.5620 O   0  0  0  0  0  0  0  0  0  0  0  0
    9.9439  -14.1869   27.6638 C   0  0  0  0  0  0  0  0  0  0  0  0
    9.7710  -14.2621   29.0209 C   0  0  0  0  0  0  0  0  0  0  0  0
   10.4362  -17.2351   22.5451 N   0  0  0  0  0  0  0  0  0  0  0  0
   10.6354  -17.2484   21.0831 C   0  0  1  0  0  0  0  0  0  0  0  0
   11.9830  -17.8856   20.7788 C   0  0  0  0  0  0  0  0  0  0  0  0
   13.1335  -16.9229   20.8691 C   0  0  0  0  0  0  0  0  0  0  0  0
   14.4379  -17.5812   20.4538 C   0  0  0  0  0  0  0  0  0  0  0  0
   15.5788  -16.6039   20.4650 C   0  0  0  0  0  0  0  0  0  0  0  0
   16.8385  -17.2149   20.1541 N   0  0  0  0  0  0  0  0  0  0  0  0
    9.5124  -17.8963   20.3999 C   0  0  0  0  0  0  0  0  0  0  0  0
    8.4220  -18.4338   21.0608 O   0  0  0  0  0  0  0  0  0  0  0  0
    9.5014  -17.9907   19.1467 O   0  0  0  0  0  0  0  0  0  0  0  0
  1  2  1  0
  2  3  1  0
  3 12  1  0
  3  4  2  0
  6 16  2  0
  6  5  1  0
  7  6  1  0
  8  9  1  0
  8  7  2  0
  9 15  2  0
 10  9  1  0
 11 10  1  1
 11 13  1  0
 12 11  1  0
 13 14  2  0
 13 17  1  0
 15 16  1  0
 17 18  1  0
 18 24  1  0
 18 19  1  1
 20 19  1  0
 21 20  1  0
 22 21  1  0
 23 22  1  0
 24 25  1  0
 26 24  2  0
M  END
$$$$
