GYK.pdb
     RDKit          3D

 26 26  0  0  1  0  0  0  0  0999 V2000
    4.4966  -20.4281   22.5241 N   0  0  0  0  0  0  0  0  0  0  0  0
    5.4739  -20.2416   23.5674 C   0  0  0  0  0  0  0  0  0  0  0  0
    5.8910  -18.8161   23.5867 C   0  0  0  0  0  0  0  0  0  0  0  0
    5.6269  -18.0712   22.5972 O   0  0  0  0  0  0  0  0  0  0  0  0
    7.0762  -10.6833   26.6694 O   0  0  0  0  0  0  0  0  0  0  0  0
    7.0490  -12.0855   26.5331 C   0  0  0  0  0  0  0  0  0  0  0  0
    5.8567  -12.7550   26.5974 C   0  0  0  0  0  0  0  0  0  0  0  0
    5.8350  -14.1445   26.4618 C   0  0  0  0  0  0  0  0  0  0  0  0
    6.9888  -14.8590   26.2641 C   0  0  0  0  0  0  0  0  0  0  0  0
    6.9965  -16.3050   26.1163 C   0  0  0  0  0  0  0  0  0  0  0  0
    6.9650  -16.8116   24.6938 C   0  0  2  0  0  0  0  0  0  0  0  0
    6.5772  -18.2190   24.6556 N   0  0  0  0  0  0  0  0  0  0  0  0
    8.2489  -16.6574   23.9742 C   0  0  0  0  0  0  0  0  0  0  0  0
    9.1730  -17.5168   24.1181 O   0  0  0  0  0  0  0  0  0  0  0  0
    8.1652  -14.1494   26.2056 C   0  0  0  0  0  0  0  0  0  0  0  0
    8.2092  -12.7862   26.3362 C   0  0  0  0  0  0  0  0  0  0  0  0
    8.5502  -15.5824   23.0922 N   0  0  0  0  0  0  0  0  0  0  0  0
    9.7928  -15.5718   22.2964 C   0  0  1  0  0  0  0  0  0  0  0  0
    9.7437  -14.3994   21.3282 C   0  0  0  0  0  0  0  0  0  0  0  0
    8.7388  -14.5769   20.2248 C   0  0  0  0  0  0  0  0  0  0  0  0
    8.7104  -13.3688   19.3045 C   0  0  0  0  0  0  0  0  0  0  0  0
    7.7062  -13.5383   18.2000 C   0  0  0  0  0  0  0  0  0  0  0  0
    7.6020  -12.3809   17.3596 N   0  0  0  0  0  0  0  0  0  0  0  0
   10.9767  -15.5704   23.1601 C   0  0  0  0  0  0  0  0  0  0  0  0
   10.9193  -15.4447   24.5368 O   0  0  0  0  0  0  0  0  0  0  0  0
   12.1251  -15.6855   22.6626 O   0  0  0  0  0  0  0  0  0  0  0  0
  1  2  1  0
  2  3  1  0
  3 12  1  0
  3  4  2  0
  6 16  2  0
  6  5  1  0
  7  6  1  0
  8  9  1  0
  8  7  2  0
  9 15  2  0
 10  9  1  0
 11 10  1  1
 11 13  1  0
 12 11  1  0
 13 14  2  0
 13 17  1  0
 15 16  1  0
 17 18  1  0
 18 24  1  0
 18 19  1  1
 20 19  1  0
 21 20  1  0
 22 21  1  0
 23 22  1  0
 24 25  1  0
 26 24  2  0
M  END
$$$$
