GLC.pdb
     RDKit          3D

 19 18  0  0  1  0  0  0  0  0999 V2000
    9.1451  -18.3631   16.5748 N   0  0  0  0  0  0  0  0  0  0  0  0
    8.3219  -18.1743   17.7567 C   0  0  0  0  0  0  0  0  0  0  0  0
    9.0575  -17.2710   18.7037 C   0  0  0  0  0  0  0  0  0  0  0  0
   10.3143  -17.2675   18.7384 O   0  0  0  0  0  0  0  0  0  0  0  0
    8.9152  -12.6287   19.4020 C   0  0  0  0  0  0  0  0  0  0  0  0
    7.8139  -13.4284   19.9714 C   0  0  2  0  0  0  0  0  0  0  0  0
    6.6708  -12.5448   20.4892 C   0  0  0  0  0  0  0  0  0  0  0  0
    8.2032  -14.4430   20.9679 C   0  0  0  0  0  0  0  0  0  0  0  0
    9.1031  -15.5525   20.5816 C   0  0  2  0  0  0  0  0  0  0  0  0
    8.3649  -16.4019   19.5801 N   0  0  0  0  0  0  0  0  0  0  0  0
    9.6354  -16.4099   21.6230 C   0  0  0  0  0  0  0  0  0  0  0  0
    9.0437  -17.3078   22.2705 O   0  0  0  0  0  0  0  0  0  0  0  0
   11.0267  -16.2847   22.0382 N   0  0  0  0  0  0  0  0  0  0  0  0
   11.6461  -17.1720   22.9815 C   0  0  1  0  0  0  0  0  0  0  0  0
   12.9003  -17.8164   22.4405 C   0  0  0  0  0  0  0  0  0  0  0  0
   14.1016  -16.6275   21.8478 S   0  0  0  0  0  0  0  0  0  0  0  0
   11.8591  -16.5499   24.3005 C   0  0  0  0  0  0  0  0  0  0  0  0
   12.3336  -17.2998   25.3564 O   0  0  0  0  0  0  0  0  0  0  0  0
   11.6164  -15.3403   24.4890 O   0  0  0  0  0  0  0  0  0  0  0  0
  1  2  1  0
  2  3  1  0
  3  4  2  0
  6  7  1  1
  6  5  1  0
  9  8  1  1
  8  6  1  0
  9 11  1  0
 10  3  1  0
 10  9  1  0
 11 12  2  0
 13 14  1  0
 13 11  1  0
 14 17  1  0
 14 15  1  6
 16 15  1  0
 17 19  2  0
 17 18  1  0
M  END
$$$$
