GLC.pdb
     RDKit          3D

 19 18  0  0  1  0  0  0  0  0999 V2000
    8.3890  -18.9393   17.7592 N   0  0  0  0  0  0  0  0  0  0  0  0
    7.7558  -18.5672   19.0125 C   0  0  0  0  0  0  0  0  0  0  0  0
    8.5788  -17.4879   19.6540 C   0  0  0  0  0  0  0  0  0  0  0  0
    9.7824  -17.3232   19.3299 O   0  0  0  0  0  0  0  0  0  0  0  0
    7.1176  -12.2555   21.5814 C   0  0  0  0  0  0  0  0  0  0  0  0
    8.0051  -13.3164   21.0681 C   0  0  2  0  0  0  0  0  0  0  0  0
    7.7502  -13.6094   19.5833 C   0  0  0  0  0  0  0  0  0  0  0  0
    8.0500  -14.5583   21.8614 C   0  0  0  0  0  0  0  0  0  0  0  0
    8.9023  -15.6859   21.4232 C   0  0  2  0  0  0  0  0  0  0  0  0
    8.0302  -16.6287   20.6357 N   0  0  0  0  0  0  0  0  0  0  0  0
    9.6242  -16.4424   22.4279 C   0  0  0  0  0  0  0  0  0  0  0  0
    9.2016  -17.3767   23.1519 O   0  0  0  0  0  0  0  0  0  0  0  0
   11.0255  -16.1505   22.7015 N   0  0  0  0  0  0  0  0  0  0  0  0
   11.8216  -16.9173   23.6175 C   0  0  1  0  0  0  0  0  0  0  0  0
   11.9195  -18.3734   23.2287 C   0  0  0  0  0  0  0  0  0  0  0  0
   12.3998  -18.6136   21.5200 S   0  0  0  0  0  0  0  0  0  0  0  0
   13.1421  -16.3150   23.8737 C   0  0  0  0  0  0  0  0  0  0  0  0
   13.9451  -16.8002   24.8848 O   0  0  0  0  0  0  0  0  0  0  0  0
   13.5590  -15.3602   23.1866 O   0  0  0  0  0  0  0  0  0  0  0  0
  1  2  1  0
  2  3  1  0
  3  4  2  0
  6  7  1  6
  6  5  1  0
  9  8  1  1
  8  6  1  0
  9 11  1  0
 10  3  1  0
 10  9  1  0
 11 12  2  0
 13 14  1  0
 13 11  1  0
 14 17  1  0
 14 15  1  6
 16 15  1  0
 17 19  2  0
 17 18  1  0
M  END
$$$$
