GLC.pdb
     RDKit          3D

 19 18  0  0  1  0  0  0  0  0999 V2000
    6.3541  -18.8086   23.3931 N   0  0  0  0  0  0  0  0  0  0  0  0
    6.1453  -17.9565   24.5509 C   0  0  0  0  0  0  0  0  0  0  0  0
    7.1212  -16.8179   24.4800 C   0  0  0  0  0  0  0  0  0  0  0  0
    7.9642  -16.7548   23.5492 O   0  0  0  0  0  0  0  0  0  0  0  0
    6.5603  -12.0628   24.2886 C   0  0  0  0  0  0  0  0  0  0  0  0
    6.3279  -12.7790   25.5574 C   0  0  2  0  0  0  0  0  0  0  0  0
    5.6749  -11.8776   26.6141 C   0  0  0  0  0  0  0  0  0  0  0  0
    7.4873  -13.5028   26.1100 C   0  0  0  0  0  0  0  0  0  0  0  0
    8.0825  -14.6303   25.3586 C   0  0  2  0  0  0  0  0  0  0  0  0
    7.1231  -15.7881   25.4508 N   0  0  0  0  0  0  0  0  0  0  0  0
    9.4081  -15.0882   25.7277 C   0  0  0  0  0  0  0  0  0  0  0  0
   10.5178  -14.5844   25.4270 O   0  0  0  0  0  0  0  0  0  0  0  0
    9.5712  -16.2789   26.5521 N   0  0  0  0  0  0  0  0  0  0  0  0
   10.5096  -16.3598   27.6354 C   0  0  1  0  0  0  0  0  0  0  0  0
   10.1104  -15.5098   28.8184 C   0  0  0  0  0  0  0  0  0  0  0  0
   11.2705  -14.1879   29.1571 S   0  0  0  0  0  0  0  0  0  0  0  0
   10.8225  -17.7472   28.0215 C   0  0  0  0  0  0  0  0  0  0  0  0
   11.9607  -18.0287   28.7481 O   0  0  0  0  0  0  0  0  0  0  0  0
   10.0702  -18.6902   27.7017 O   0  0  0  0  0  0  0  0  0  0  0  0
  1  2  1  0
  2  3  1  0
  3  4  2  0
  6  7  1  1
  6  5  1  0
  9  8  1  1
  8  6  1  0
  9 11  1  0
 10  3  1  0
 10  9  1  0
 11 12  2  0
 13 14  1  0
 13 11  1  0
 14 17  1  0
 14 15  1  1
 16 15  1  0
 17 19  2  0
 17 18  1  0
M  END
$$$$
