GLC.pdb
     RDKit          3D

 19 18  0  0  1  0  0  0  0  0999 V2000
    6.7090  -19.2977   23.5834 N   0  0  0  0  0  0  0  0  0  0  0  0
    6.3336  -18.5304   24.7584 C   0  0  0  0  0  0  0  0  0  0  0  0
    7.0267  -17.2003   24.6938 C   0  0  0  0  0  0  0  0  0  0  0  0
    7.9124  -16.9818   23.8286 O   0  0  0  0  0  0  0  0  0  0  0  0
    7.2688  -11.9575   24.7323 C   0  0  0  0  0  0  0  0  0  0  0  0
    6.1902  -12.5104   25.5735 C   0  0  2  0  0  0  0  0  0  0  0  0
    5.7166  -11.5062   26.6332 C   0  0  0  0  0  0  0  0  0  0  0  0
    6.4506  -13.8351   26.1661 C   0  0  0  0  0  0  0  0  0  0  0  0
    7.3360  -14.7957   25.4708 C   0  0  2  0  0  0  0  0  0  0  0  0
    6.7074  -16.1589   25.5975 N   0  0  0  0  0  0  0  0  0  0  0  0
    8.7254  -14.8795   25.8775 C   0  0  0  0  0  0  0  0  0  0  0  0
    9.6454  -14.0482   25.6821 O   0  0  0  0  0  0  0  0  0  0  0  0
    9.2073  -16.0422   26.6121 N   0  0  0  0  0  0  0  0  0  0  0  0
   10.5336  -16.1329   27.1538 C   0  0  1  0  0  0  0  0  0  0  0  0
   10.6402  -15.5410   28.5392 C   0  0  0  0  0  0  0  0  0  0  0  0
   10.3493  -13.7740   28.5726 S   0  0  0  0  0  0  0  0  0  0  0  0
   11.0915  -17.4950   27.0811 C   0  0  0  0  0  0  0  0  0  0  0  0
   12.3879  -17.7396   27.4838 O   0  0  0  0  0  0  0  0  0  0  0  0
   10.4083  -18.4493   26.6569 O   0  0  0  0  0  0  0  0  0  0  0  0
  1  2  1  0
  2  3  1  0
  3  4  2  0
  6  7  1  1
  6  5  1  0
  9  8  1  1
  8  6  1  0
  9 11  1  0
 10  3  1  0
 10  9  1  0
 11 12  2  0
 13 14  1  0
 13 11  1  0
 14 17  1  0
 14 15  1  1
 16 15  1  0
 17 19  2  0
 17 18  1  0
M  END
$$$$
