GLC.pdb
     RDKit          3D

 19 18  0  0  1  0  0  0  0  0999 V2000
    5.4828  -18.4235   22.8489 N   0  0  0  0  0  0  0  0  0  0  0  0
    5.4832  -17.8653   24.1901 C   0  0  0  0  0  0  0  0  0  0  0  0
    6.5347  -16.7959   24.2550 C   0  0  0  0  0  0  0  0  0  0  0  0
    7.3708  -16.6634   23.3253 O   0  0  0  0  0  0  0  0  0  0  0  0
    6.8225  -12.0431   24.8167 C   0  0  0  0  0  0  0  0  0  0  0  0
    6.3882  -12.8682   25.9600 C   0  0  2  0  0  0  0  0  0  0  0  0
    5.8735  -12.0107   27.1241 C   0  0  0  0  0  0  0  0  0  0  0  0
    7.3515  -13.8832   26.4243 C   0  0  0  0  0  0  0  0  0  0  0  0
    7.7815  -14.9670   25.5130 C   0  0  2  0  0  0  0  0  0  0  0  0
    6.6175  -15.9102   25.3559 N   0  0  0  0  0  0  0  0  0  0  0  0
    8.9643  -15.7334   25.8545 C   0  0  0  0  0  0  0  0  0  0  0  0
    9.1819  -16.4098   26.8892 O   0  0  0  0  0  0  0  0  0  0  0  0
   10.0975  -15.7827   24.9395 N   0  0  0  0  0  0  0  0  0  0  0  0
   11.1955  -16.6935   25.0999 C   0  0  1  0  0  0  0  0  0  0  0  0
   10.7560  -18.1381   25.1318 C   0  0  0  0  0  0  0  0  0  0  0  0
   10.1105  -18.6412   26.7250 S   0  0  0  0  0  0  0  0  0  0  0  0
   12.2821  -16.4588   24.1324 C   0  0  0  0  0  0  0  0  0  0  0  0
   13.4787  -17.1346   24.2506 O   0  0  0  0  0  0  0  0  0  0  0  0
   12.1440  -15.6496   23.1923 O   0  0  0  0  0  0  0  0  0  0  0  0
  1  2  1  0
  2  3  1  0
  3  4  2  0
  6  7  1  1
  6  5  1  0
  9  8  1  1
  8  6  1  0
  9 11  1  0
 10  3  1  0
 10  9  1  0
 11 12  2  0
 13 14  1  0
 13 11  1  0
 14 17  1  0
 14 15  1  6
 16 15  1  0
 17 19  2  0
 17 18  1  0
M  END
$$$$
