GLC.pdb
     RDKit          3D

 19 18  0  0  1  0  0  0  0  0999 V2000
    5.9070  -19.2489   22.9748 N   0  0  0  0  0  0  0  0  0  0  0  0
    5.8951  -18.5676   24.2578 C   0  0  0  0  0  0  0  0  0  0  0  0
    6.5483  -17.2269   24.0854 C   0  0  0  0  0  0  0  0  0  0  0  0
    7.2626  -16.9880   23.0787 O   0  0  0  0  0  0  0  0  0  0  0  0
    6.4114  -11.7463   27.0264 C   0  0  0  0  0  0  0  0  0  0  0  0
    6.9412  -12.5330   25.8963 C   0  0  2  0  0  0  0  0  0  0  0  0
    6.8569  -11.7630   24.5714 C   0  0  0  0  0  0  0  0  0  0  0  0
    6.4088  -13.9009   25.7583 C   0  0  0  0  0  0  0  0  0  0  0  0
    7.1215  -14.8914   24.9210 C   0  0  2  0  0  0  0  0  0  0  0  0
    6.3818  -16.1980   25.0429 N   0  0  0  0  0  0  0  0  0  0  0  0
    8.5311  -15.1247   25.1693 C   0  0  0  0  0  0  0  0  0  0  0  0
    9.4991  -14.3585   24.9421 O   0  0  0  0  0  0  0  0  0  0  0  0
    8.9758  -16.3828   25.7553 N   0  0  0  0  0  0  0  0  0  0  0  0
   10.3597  -16.7121   25.9478 C   0  0  1  0  0  0  0  0  0  0  0  0
   10.6495  -17.2268   27.3378 C   0  0  0  0  0  0  0  0  0  0  0  0
    9.2111  -17.9296   28.1409 S   0  0  0  0  0  0  0  0  0  0  0  0
   10.8896  -17.6010   24.8985 C   0  0  0  0  0  0  0  0  0  0  0  0
   12.2228  -17.9544   24.8922 O   0  0  0  0  0  0  0  0  0  0  0  0
   10.1490  -18.0497   23.9997 O   0  0  0  0  0  0  0  0  0  0  0  0
  1  2  1  0
  2  3  1  0
  3  4  2  0
  6  7  1  6
  6  5  1  0
  9  8  1  1
  8  6  1  0
  9 11  1  0
 10  3  1  0
 10  9  1  0
 11 12  2  0
 13 14  1  0
 13 11  1  0
 14 17  1  0
 14 15  1  1
 16 15  1  0
 17 19  2  0
 17 18  1  0
M  END
$$$$
