GLC.pdb
     RDKit          3D

 19 18  0  0  1  0  0  0  0  0999 V2000
    5.7101  -18.8340   23.2910 N   0  0  0  0  0  0  0  0  0  0  0  0
    5.7112  -18.1669   24.5814 C   0  0  0  0  0  0  0  0  0  0  0  0
    6.6017  -16.9619   24.4880 C   0  0  0  0  0  0  0  0  0  0  0  0
    7.3474  -16.7932   23.4899 O   0  0  0  0  0  0  0  0  0  0  0  0
    6.6327  -12.0843   24.6580 C   0  0  0  0  0  0  0  0  0  0  0  0
    6.1982  -12.8215   25.8598 C   0  0  2  0  0  0  0  0  0  0  0  0
    5.6966  -11.8783   26.9617 C   0  0  0  0  0  0  0  0  0  0  0  0
    7.1559  -13.8084   26.3912 C   0  0  0  0  0  0  0  0  0  0  0  0
    7.6640  -14.8905   25.5189 C   0  0  2  0  0  0  0  0  0  0  0  0
    6.6295  -15.9855   25.5123 N   0  0  0  0  0  0  0  0  0  0  0  0
    8.9599  -15.4705   25.8147 C   0  0  0  0  0  0  0  0  0  0  0  0
    9.3357  -16.0405   26.8680 O   0  0  0  0  0  0  0  0  0  0  0  0
   10.0256  -15.4334   24.8215 N   0  0  0  0  0  0  0  0  0  0  0  0
   11.1633  -16.3081   24.8594 C   0  0  1  0  0  0  0  0  0  0  0  0
   10.7833  -17.7504   25.0966 C   0  0  0  0  0  0  0  0  0  0  0  0
   12.1203  -18.7258   25.7815 S   0  0  0  0  0  0  0  0  0  0  0  0
   12.0511  -16.1461   23.6942 C   0  0  0  0  0  0  0  0  0  0  0  0
   13.3980  -16.4237   23.8002 O   0  0  0  0  0  0  0  0  0  0  0  0
   11.6066  -15.7572   22.5948 O   0  0  0  0  0  0  0  0  0  0  0  0
  1  2  1  0
  2  3  1  0
  3  4  2  0
  6  7  1  1
  6  5  1  0
  9  8  1  1
  8  6  1  0
  9 11  1  0
 10  3  1  0
 10  9  1  0
 11 12  2  0
 13 14  1  0
 13 11  1  0
 14 17  1  0
 14 15  1  6
 16 15  1  0
 17 19  2  0
 17 18  1  0
M  END
$$$$
