GLC.pdb
     RDKit          3D

 19 18  0  0  1  0  0  0  0  0999 V2000
    6.3772  -19.0560   23.8457 N   0  0  0  0  0  0  0  0  0  0  0  0
    6.2183  -18.1369   24.9593 C   0  0  0  0  0  0  0  0  0  0  0  0
    7.1907  -17.0072   24.7803 C   0  0  0  0  0  0  0  0  0  0  0  0
    8.0193  -17.0201   23.8347 O   0  0  0  0  0  0  0  0  0  0  0  0
    6.6342  -12.2487   24.1140 C   0  0  0  0  0  0  0  0  0  0  0  0
    6.3643  -12.9168   25.4014 C   0  0  2  0  0  0  0  0  0  0  0  0
    5.6029  -12.0048   26.3729 C   0  0  0  0  0  0  0  0  0  0  0  0
    7.5252  -13.5487   26.0547 C   0  0  0  0  0  0  0  0  0  0  0  0
    8.1509  -14.7474   25.4533 C   0  0  2  0  0  0  0  0  0  0  0  0
    7.2052  -15.9011   25.6631 N   0  0  0  0  0  0  0  0  0  0  0  0
    9.4744  -15.1379   25.8994 C   0  0  0  0  0  0  0  0  0  0  0  0
   10.5875  -14.7647   25.4551 O   0  0  0  0  0  0  0  0  0  0  0  0
    9.6307  -16.0813   26.9992 N   0  0  0  0  0  0  0  0  0  0  0  0
   10.9023  -16.3995   27.5843 C   0  0  1  0  0  0  0  0  0  0  0  0
   10.9952  -15.9933   29.0360 C   0  0  0  0  0  0  0  0  0  0  0  0
   10.1687  -14.4433   29.3861 S   0  0  0  0  0  0  0  0  0  0  0  0
   11.2990  -17.8023   27.3677 C   0  0  0  0  0  0  0  0  0  0  0  0
   12.4914  -18.2756   27.8744 O   0  0  0  0  0  0  0  0  0  0  0  0
   10.5701  -18.5862   26.7261 O   0  0  0  0  0  0  0  0  0  0  0  0
  1  2  1  0
  2  3  1  0
  3  4  2  0
  6  7  1  1
  6  5  1  0
  9  8  1  1
  8  6  1  0
  9 11  1  0
 10  3  1  0
 10  9  1  0
 11 12  2  0
 13 14  1  0
 13 11  1  0
 14 17  1  0
 14 15  1  1
 16 15  1  0
 17 19  2  0
 17 18  1  0
M  END
$$$$
