GLC.pdb
     RDKit          3D

 19 18  0  0  1  0  0  0  0  0999 V2000
    6.5732  -15.4675   20.1354 N   0  0  0  0  0  0  0  0  0  0  0  0
    6.0171  -15.5433   21.4753 C   0  0  0  0  0  0  0  0  0  0  0  0
    7.0778  -15.1211   22.4502 C   0  0  0  0  0  0  0  0  0  0  0  0
    8.2711  -14.9852   22.0782 O   0  0  0  0  0  0  0  0  0  0  0  0
    7.6061  -11.4583   25.1782 C   0  0  0  0  0  0  0  0  0  0  0  0
    6.6636  -12.4677   25.6971 C   0  0  2  0  0  0  0  0  0  0  0  0
    5.9021  -11.9620   26.9299 C   0  0  0  0  0  0  0  0  0  0  0  0
    7.2218  -13.8133   25.9243 C   0  0  0  0  0  0  0  0  0  0  0  0
    7.8529  -14.5509   24.8073 C   0  0  2  0  0  0  0  0  0  0  0  0
    6.7704  -14.8647   23.8077 N   0  0  0  0  0  0  0  0  0  0  0  0
    8.5853  -15.7670   25.1038 C   0  0  0  0  0  0  0  0  0  0  0  0
    8.1299  -16.8903   25.4300 O   0  0  0  0  0  0  0  0  0  0  0  0
   10.0412  -15.7818   25.0410 N   0  0  0  0  0  0  0  0  0  0  0  0
   10.8211  -16.9747   25.2124 C   0  0  1  0  0  0  0  0  0  0  0  0
   12.0353  -17.0124   24.3150 C   0  0  0  0  0  0  0  0  0  0  0  0
   13.0378  -18.4779   24.5505 S   0  0  0  0  0  0  0  0  0  0  0  0
   11.1566  -17.2438   26.6220 C   0  0  0  0  0  0  0  0  0  0  0  0
   11.3182  -18.5401   27.0648 O   0  0  0  0  0  0  0  0  0  0  0  0
   11.3006  -16.3116   27.4392 O   0  0  0  0  0  0  0  0  0  0  0  0
  1  2  1  0
  2  3  1  0
  3  4  2  0
  6  7  1  1
  6  5  1  0
  9  8  1  1
  8  6  1  0
  9 11  1  0
 10  3  1  0
 10  9  1  0
 11 12  2  0
 13 14  1  0
 13 11  1  0
 14 17  1  0
 14 15  1  6
 16 15  1  0
 17 19  2  0
 17 18  1  0
M  END
$$$$
