GLC.pdb
     RDKit          3D

 19 18  0  0  1  0  0  0  0  0999 V2000
    6.3662  -15.4275   20.3425 N   0  0  0  0  0  0  0  0  0  0  0  0
    5.9240  -15.7208   21.6948 C   0  0  0  0  0  0  0  0  0  0  0  0
    7.0160  -15.3216   22.6445 C   0  0  0  0  0  0  0  0  0  0  0  0
    8.1914  -15.1505   22.2324 O   0  0  0  0  0  0  0  0  0  0  0  0
    7.5766  -11.7283   25.0754 C   0  0  0  0  0  0  0  0  0  0  0  0
    6.7024  -12.6739   25.7953 C   0  0  2  0  0  0  0  0  0  0  0  0
    6.0923  -12.0459   27.0558 C   0  0  0  0  0  0  0  0  0  0  0  0
    7.2838  -13.9982   26.0816 C   0  0  0  0  0  0  0  0  0  0  0  0
    7.8703  -14.8014   24.9857 C   0  0  2  0  0  0  0  0  0  0  0  0
    6.7587  -15.1269   24.0226 N   0  0  0  0  0  0  0  0  0  0  0  0
    8.5746  -16.0241   25.3207 C   0  0  0  0  0  0  0  0  0  0  0  0
    8.1071  -17.0852   25.8015 O   0  0  0  0  0  0  0  0  0  0  0  0
   10.0124  -16.1263   25.1064 N   0  0  0  0  0  0  0  0  0  0  0  0
   10.7493  -17.3430   25.2997 C   0  0  1  0  0  0  0  0  0  0  0  0
   11.8481  -17.5284   24.2803 C   0  0  0  0  0  0  0  0  0  0  0  0
   11.2859  -17.3105   22.5937 S   0  0  0  0  0  0  0  0  0  0  0  0
   11.2328  -17.5079   26.6821 C   0  0  0  0  0  0  0  0  0  0  0  0
   10.9635  -16.5467   27.6340 O   0  0  0  0  0  0  0  0  0  0  0  0
   11.8913  -18.5131   27.0187 O   0  0  0  0  0  0  0  0  0  0  0  0
  1  2  1  0
  2  3  1  0
  3  4  2  0
  6  7  1  1
  6  5  1  0
  9  8  1  1
  8  6  1  0
  9 11  1  0
 10  3  1  0
 10  9  1  0
 11 12  2  0
 13 14  1  0
 13 11  1  0
 14 17  1  0
 14 15  1  6
 16 15  1  0
 17 19  2  0
 17 18  1  0
M  END
$$$$
