VSA.pdb
     RDKit          3D

 19 18  0  0  1  0  0  0  0  0999 V2000
    7.3745  -12.3027   18.4086 C   0  0  0  0  0  0  0  0  0  0  0  0
    7.7482  -13.3609   19.4050 C   0  0  2  0  0  0  0  0  0  0  0  0
    8.8465  -12.8353   20.2959 C   0  0  0  0  0  0  0  0  0  0  0  0
    8.2574  -14.6180   18.7108 C   0  0  2  0  0  0  0  0  0  0  0  0
    7.3153  -15.1342   17.7685 N   0  0  0  0  0  0  0  0  0  0  0  0
    8.6259  -15.6581   19.7077 C   0  0  0  0  0  0  0  0  0  0  0  0
    7.7499  -16.3312   20.3071 O   0  0  0  0  0  0  0  0  0  0  0  0
   11.9861  -18.5546   21.4476 O   0  0  0  0  0  0  0  0  0  0  0  0
   11.6835  -17.5447   20.5431 C   0  0  0  0  0  0  0  0  0  0  0  0
   10.3994  -16.8972   20.9852 C   0  0  2  0  0  0  0  0  0  0  0  0
    9.9850  -15.9154   20.0064 N   0  0  0  0  0  0  0  0  0  0  0  0
   10.6236  -16.2659   22.3102 C   0  0  0  0  0  0  0  0  0  0  0  0
   11.5041  -15.3955   22.4337 O   0  0  0  0  0  0  0  0  0  0  0  0
    8.5593  -15.9030   25.3218 C   0  0  0  0  0  0  0  0  0  0  0  0
    9.9312  -16.0387   24.7056 C   0  0  2  0  0  0  0  0  0  0  0  0
    9.8284  -16.6681   23.4108 N   0  0  0  0  0  0  0  0  0  0  0  0
   10.8073  -16.8231   25.6059 C   0  0  0  0  0  0  0  0  0  0  0  0
   11.2832  -18.0528   25.1752 O   0  0  0  0  0  0  0  0  0  0  0  0
   11.1286  -16.4085   26.7402 O   0  0  0  0  0  0  0  0  0  0  0  0
  2  3  1  1
  2  1  1  0
  4  2  1  0
  4  5  1  6
  6  4  1  0
  6 11  1  0
  7  6  2  0
  9  8  1  0
 10 11  1  0
 10  9  1  6
 12 10  1  0
 12 16  1  0
 13 12  2  0
 15 16  1  0
 15 14  1  1
 17 15  1  0
 18 17  1  0
 19 17  2  0
M  END
$$$$
