VSA.pdb
     RDKit          3D

 19 18  0  0  1  0  0  0  0  0999 V2000
    5.8795  -25.9861   20.8567 C   0  0  0  0  0  0  0  0  0  0  0  0
    4.7305  -25.0307   20.9960 C   0  0  2  0  0  0  0  0  0  0  0  0
    3.4998  -25.6436   20.3747 C   0  0  0  0  0  0  0  0  0  0  0  0
    5.0181  -23.7137   20.2861 C   0  0  2  0  0  0  0  0  0  0  0  0
    5.1274  -23.8754   18.8706 N   0  0  0  0  0  0  0  0  0  0  0  0
    6.2425  -23.0743   20.8372 C   0  0  0  0  0  0  0  0  0  0  0  0
    7.3602  -23.2086   20.2785 O   0  0  0  0  0  0  0  0  0  0  0  0
    5.8143  -20.2518   23.6767 O   0  0  0  0  0  0  0  0  0  0  0  0
    7.0207  -20.2517   22.9878 C   0  0  0  0  0  0  0  0  0  0  0  0
    7.3387  -21.6732   22.6115 C   0  0  2  0  0  0  0  0  0  0  0  0
    6.1750  -22.2927   22.0150 N   0  0  0  0  0  0  0  0  0  0  0  0
    7.7599  -22.4002   23.8355 C   0  0  0  0  0  0  0  0  0  0  0  0
    6.9043  -22.9748   24.5325 O   0  0  0  0  0  0  0  0  0  0  0  0
   11.1366  -23.3117   25.2078 C   0  0  0  0  0  0  0  0  0  0  0  0
    9.6312  -23.2210   25.2825 C   0  0  2  0  0  0  0  0  0  0  0  0
    9.1316  -22.4254   24.1868 N   0  0  0  0  0  0  0  0  0  0  0  0
    9.2303  -22.6385   26.5838 C   0  0  0  0  0  0  0  0  0  0  0  0
    9.4089  -23.3875   27.7377 O   0  0  0  0  0  0  0  0  0  0  0  0
    8.7369  -21.4936   26.6706 O   0  0  0  0  0  0  0  0  0  0  0  0
  2  3  1  6
  2  1  1  0
  4  2  1  0
  4  5  1  6
  6  4  1  0
  6 11  1  0
  7  6  2  0
  9  8  1  0
 10 11  1  0
 10  9  1  1
 12 10  1  0
 12 16  1  0
 13 12  2  0
 15 16  1  0
 15 14  1  1
 17 15  1  0
 18 17  1  0
 19 17  2  0
M  END
$$$$
