VSA.pdb
     RDKit          3D

 19 18  0  0  1  0  0  0  0  0999 V2000
    7.9557  -16.1976   20.1172 C   0  0  0  0  0  0  0  0  0  0  0  0
    7.0583  -15.0354   20.4277 C   0  0  2  0  0  0  0  0  0  0  0  0
    6.2282  -14.7126   19.2099 C   0  0  0  0  0  0  0  0  0  0  0  0
    7.8658  -13.7972   20.7967 C   0  0  2  0  0  0  0  0  0  0  0  0
    8.7179  -13.3706   19.7320 N   0  0  0  0  0  0  0  0  0  0  0  0
    8.6527  -14.0315   22.0367 C   0  0  0  0  0  0  0  0  0  0  0  0
    9.9002  -14.1808   22.0029 O   0  0  0  0  0  0  0  0  0  0  0  0
    6.6200  -14.5665   25.5575 O   0  0  0  0  0  0  0  0  0  0  0  0
    7.8723  -13.9829   25.7024 C   0  0  0  0  0  0  0  0  0  0  0  0
    8.7121  -14.3908   24.5227 C   0  0  2  0  0  0  0  0  0  0  0  0
    8.0075  -14.0920   23.2946 N   0  0  0  0  0  0  0  0  0  0  0  0
    9.0002  -15.8433   24.6309 C   0  0  0  0  0  0  0  0  0  0  0  0
    8.1799  -16.6660   24.1856 O   0  0  0  0  0  0  0  0  0  0  0  0
   11.9446  -17.9132   24.9084 C   0  0  0  0  0  0  0  0  0  0  0  0
   10.5407  -17.6596   25.4033 C   0  0  2  0  0  0  0  0  0  0  0  0
   10.2067  -16.2649   25.2409 N   0  0  0  0  0  0  0  0  0  0  0  0
   10.4308  -18.0672   26.8229 C   0  0  0  0  0  0  0  0  0  0  0  0
   10.6899  -19.3865   27.1642 O   0  0  0  0  0  0  0  0  0  0  0  0
   10.1118  -17.2570   27.7194 O   0  0  0  0  0  0  0  0  0  0  0  0
  2  3  1  6
  2  1  1  0
  4  2  1  0
  4  5  1  6
  6  4  1  0
  6 11  1  0
  7  6  2  0
  9  8  1  0
 10 11  1  0
 10  9  1  1
 12 10  1  0
 12 16  1  0
 13 12  2  0
 15 16  1  0
 15 14  1  1
 17 15  1  0
 18 17  1  0
 19 17  2  0
M  END
$$$$
