VSA.pdb
     RDKit          3D

 19 18  0  0  1  0  0  0  0  0999 V2000
   -4.0526  -28.0591   28.9456 C   0  0  0  0  0  0  0  0  0  0  0  0
   -4.4629  -27.8604   27.5157 C   0  0  2  0  0  0  0  0  0  0  0  0
   -4.1230  -29.1007   26.7269 C   0  0  0  0  0  0  0  0  0  0  0  0
   -3.7298  -26.6806   26.8895 C   0  0  2  0  0  0  0  0  0  0  0  0
   -2.3158  -26.8825   26.8499 N   0  0  0  0  0  0  0  0  0  0  0  0
   -4.0598  -25.4172   27.6011 C   0  0  0  0  0  0  0  0  0  0  0  0
   -3.5708  -25.1529   28.7283 O   0  0  0  0  0  0  0  0  0  0  0  0
   -5.9370  -22.4982   25.5838 O   0  0  0  0  0  0  0  0  0  0  0  0
   -5.3674  -22.1103   26.7900 C   0  0  0  0  0  0  0  0  0  0  0  0
   -5.3982  -23.2941   27.7180 C   0  0  2  0  0  0  0  0  0  0  0  0
   -4.9407  -24.4753   27.0185 N   0  0  0  0  0  0  0  0  0  0  0  0
   -6.7886  -23.4709   28.2078 C   0  0  0  0  0  0  0  0  0  0  0  0
   -7.5775  -24.1895   27.5680 O   0  0  0  0  0  0  0  0  0  0  0  0
   -8.6191  -22.2172   31.2546 C   0  0  0  0  0  0  0  0  0  0  0  0
   -8.5197  -22.9579   29.9424 C   0  0  2  0  0  0  0  0  0  0  0  0
   -7.1909  -22.8161   29.3973 N   0  0  0  0  0  0  0  0  0  0  0  0
   -9.5359  -22.4388   28.9983 C   0  0  0  0  0  0  0  0  0  0  0  0
  -10.7359  -23.1214   28.8621 O   0  0  0  0  0  0  0  0  0  0  0  0
   -9.3425  -21.4053   28.3228 O   0  0  0  0  0  0  0  0  0  0  0  0
  2  3  1  6
  2  1  1  0
  4  2  1  0
  4  5  1  1
  6  4  1  0
  6 11  1  0
  7  6  2  0
  9  8  1  0
 10 11  1  0
 10  9  1  6
 12 10  1  0
 12 16  1  0
 13 12  2  0
 15 16  1  0
 15 14  1  1
 17 15  1  0
 18 17  1  0
 19 17  2  0
M  END
$$$$
