VSA.pdb
     RDKit          3D

 19 18  0  0  1  0  0  0  0  0999 V2000
    7.6645  -19.6720   18.1801 C   0  0  0  0  0  0  0  0  0  0  0  0
    8.5410  -19.1209   19.2666 C   0  0  2  0  0  0  0  0  0  0  0  0
    7.9578  -19.4912   20.6078 C   0  0  0  0  0  0  0  0  0  0  0  0
    8.6295  -17.6019   19.1876 C   0  0  2  0  0  0  0  0  0  0  0  0
    9.0426  -17.1511   17.8961 N   0  0  0  0  0  0  0  0  0  0  0  0
    9.5334  -17.0711   20.2425 C   0  0  0  0  0  0  0  0  0  0  0  0
   10.7808  -17.2023   20.1637 O   0  0  0  0  0  0  0  0  0  0  0  0
    7.9190  -15.2389   23.6199 O   0  0  0  0  0  0  0  0  0  0  0  0
    9.1310  -14.7610   23.1377 C   0  0  0  0  0  0  0  0  0  0  0  0
    9.8325  -15.8963   22.4432 C   0  0  2  0  0  0  0  0  0  0  0  0
    9.0031  -16.3997   21.3697 N   0  0  0  0  0  0  0  0  0  0  0  0
   10.1112  -16.9580   23.4430 C   0  0  0  0  0  0  0  0  0  0  0  0
    9.2277  -17.7904   23.7162 O   0  0  0  0  0  0  0  0  0  0  0  0
   13.2609  -18.2531   24.9349 C   0  0  0  0  0  0  0  0  0  0  0  0
   11.7623  -18.0698   24.9619 C   0  0  2  0  0  0  0  0  0  0  0  0
   11.3813  -17.0027   24.0679 N   0  0  0  0  0  0  0  0  0  0  0  0
   11.3196  -17.7825   26.3457 C   0  0  0  0  0  0  0  0  0  0  0  0
   11.5175  -18.7434   27.3266 O   0  0  0  0  0  0  0  0  0  0  0  0
   10.7740  -16.7010   26.6532 O   0  0  0  0  0  0  0  0  0  0  0  0
  2  3  1  1
  2  1  1  0
  4  2  1  0
  4  5  1  6
  6  4  1  0
  6 11  1  0
  7  6  2  0
  9  8  1  0
 10 11  1  0
 10  9  1  1
 12 10  1  0
 12 16  1  0
 13 12  2  0
 15 16  1  0
 15 14  1  1
 17 15  1  0
 18 17  1  0
 19 17  2  0
M  END
$$$$
