VSA.pdb
     RDKit          3D

 19 18  0  0  1  0  0  0  0  0999 V2000
    6.1894  -11.3012   26.8524 C   0  0  0  0  0  0  0  0  0  0  0  0
    6.9664  -12.4971   26.3849 C   0  0  2  0  0  0  0  0  0  0  0  0
    8.1386  -12.0322   25.5566 C   0  0  0  0  0  0  0  0  0  0  0  0
    6.1059  -13.4123   25.5227 C   0  0  2  0  0  0  0  0  0  0  0  0
    4.8872  -13.7783   26.1727 N   0  0  0  0  0  0  0  0  0  0  0  0
    6.8677  -14.6229   25.1160 C   0  0  0  0  0  0  0  0  0  0  0  0
    6.9849  -15.6119   25.8827 O   0  0  0  0  0  0  0  0  0  0  0  0
    9.1895  -14.4891   21.7633 O   0  0  0  0  0  0  0  0  0  0  0  0
    8.5297  -15.7017   21.9184 C   0  0  0  0  0  0  0  0  0  0  0  0
    8.1909  -15.8610   23.3755 C   0  0  2  0  0  0  0  0  0  0  0  0
    7.4837  -14.6886   23.8437 N   0  0  0  0  0  0  0  0  0  0  0  0
    9.4528  -16.0588   24.1323 C   0  0  0  0  0  0  0  0  0  0  0  0
   10.1400  -15.0707   24.4478 O   0  0  0  0  0  0  0  0  0  0  0  0
   11.1084  -19.0545   25.6799 C   0  0  0  0  0  0  0  0  0  0  0  0
   11.1106  -17.6485   25.1290 C   0  0  2  0  0  0  0  0  0  0  0  0
    9.8507  -17.3724   24.4813 N   0  0  0  0  0  0  0  0  0  0  0  0
   12.2379  -17.4852   24.1825 C   0  0  0  0  0  0  0  0  0  0  0  0
   13.5353  -17.5134   24.6728 O   0  0  0  0  0  0  0  0  0  0  0  0
   12.0528  -17.3231   22.9572 O   0  0  0  0  0  0  0  0  0  0  0  0
  2  3  1  6
  2  1  1  0
  4  2  1  0
  4  5  1  1
  6  4  1  0
  6 11  1  0
  7  6  2  0
  9  8  1  0
 10 11  1  0
 10  9  1  6
 12 10  1  0
 12 16  1  0
 13 12  2  0
 15 16  1  0
 15 14  1  6
 17 15  1  0
 18 17  1  0
 19 17  2  0
M  END
$$$$
