VSA.pdb
     RDKit          3D

 19 18  0  0  1  0  0  0  0  0999 V2000
    8.2942  -17.9361   14.6426 C   0  0  0  0  0  0  0  0  0  0  0  0
    8.8715  -17.3853   15.9137 C   0  0  2  0  0  0  0  0  0  0  0  0
    8.4758  -18.2778   17.0639 C   0  0  0  0  0  0  0  0  0  0  0  0
    8.3477  -15.9826   16.1959 C   0  0  2  0  0  0  0  0  0  0  0  0
    8.5353  -15.1023   15.0862 N   0  0  0  0  0  0  0  0  0  0  0  0
    8.9755  -15.4223   17.4221 C   0  0  0  0  0  0  0  0  0  0  0  0
   10.2095  -15.1914   17.4796 O   0  0  0  0  0  0  0  0  0  0  0  0
    6.6370  -14.8724   20.7635 O   0  0  0  0  0  0  0  0  0  0  0  0
    7.6737  -13.9607   20.6084 C   0  0  0  0  0  0  0  0  0  0  0  0
    8.7519  -14.6206   19.7928 C   0  0  2  0  0  0  0  0  0  0  0  0
    8.1889  -15.1340   18.5626 N   0  0  0  0  0  0  0  0  0  0  0  0
    9.3499  -15.7132   20.6009 C   0  0  0  0  0  0  0  0  0  0  0  0
    8.8985  -16.8683   20.5001 O   0  0  0  0  0  0  0  0  0  0  0  0
   12.4086  -15.9208   22.7631 C   0  0  0  0  0  0  0  0  0  0  0  0
   11.0827  -16.4367   22.2571 C   0  0  2  0  0  0  0  0  0  0  0  0
   10.4258  -15.4182   21.4733 N   0  0  0  0  0  0  0  0  0  0  0  0
   10.2380  -16.8491   23.4016 C   0  0  0  0  0  0  0  0  0  0  0  0
   10.6406  -17.9249   24.1794 O   0  0  0  0  0  0  0  0  0  0  0  0
    9.1752  -16.2559   23.6851 O   0  0  0  0  0  0  0  0  0  0  0  0
  2  3  1  1
  2  1  1  0
  4  2  1  0
  4  5  1  6
  6  4  1  0
  6 11  1  0
  7  6  2  0
  9  8  1  0
 10 11  1  0
 10  9  1  1
 12 10  1  0
 12 16  1  0
 13 12  2  0
 15 16  1  0
 15 14  1  1
 17 15  1  0
 18 17  1  0
 19 17  2  0
M  END
$$$$
