RVR.pdb
     RDKit          3D

 30 29  0  0  1  0  0  0  0  0999 V2000
    5.9566  -20.7585   15.8900 N   0  0  0  0  0  0  0  0  0  0  0  0
    6.7637  -21.9407   15.8844 C   0  0  0  0  0  0  0  0  0  0  0  0
    6.5216  -22.9060   15.0600 N   0  0  0  0  0  0  0  0  0  0  0  0
    7.8566  -22.1044   16.7762 N   0  0  0  0  0  0  0  0  0  0  0  0
    8.2421  -21.0601   17.7019 C   0  0  0  0  0  0  0  0  0  0  0  0
    7.4480  -19.8146   17.5418 C   0  0  0  0  0  0  0  0  0  0  0  0
    7.8228  -18.6801   18.4165 C   0  0  0  0  0  0  0  0  0  0  0  0
    8.2156  -17.4113   17.7507 C   0  0  2  0  0  0  0  0  0  0  0  0
    9.2821  -17.6072   16.7971 N   0  0  0  0  0  0  0  0  0  0  0  0
    8.7380  -16.4932   18.8063 C   0  0  0  0  0  0  0  0  0  0  0  0
    9.9924  -16.4435   18.9882 O   0  0  0  0  0  0  0  0  0  0  0  0
    7.1050  -23.7587   15.0611 C   0  0  0  0  0  0  0  0  0  0  0  0
    7.3953  -12.8599   19.5306 C   0  0  1  0  0  0  0  0  0  0  0  0
    7.4291  -13.6778   20.8023 C   0  0  0  0  0  0  0  0  0  0  0  0
    7.7074  -12.8368   22.0234 C   0  0  2  0  0  0  0  0  0  0  0  0
    8.4689  -14.7635   20.6182 N   0  0  0  0  0  0  0  0  0  0  0  0
    7.9235  -15.6830   19.6080 C   0  0  0  0  0  0  0  0  0  0  0  0
    8.5404  -15.5449   21.8767 O   0  0  0  0  0  0  0  0  0  0  0  0
    7.6661  -16.3638   22.2462 N   0  0  0  0  0  0  0  0  0  0  0  0
   12.9423  -21.8999   24.2212 C   0  0  0  0  0  0  0  0  0  0  0  0
   12.4186  -21.6189   22.9353 N   0  0  0  0  0  0  0  0  0  0  0  0
   12.0008  -22.5392   22.1715 N   0  0  0  0  0  0  0  0  0  0  0  0
   12.3711  -20.2502   22.5107 C   0  0  0  0  0  0  0  0  0  0  0  0
   12.8490  -19.1768   23.3503 C   0  0  0  0  0  0  0  0  0  0  0  0
   11.6907  -18.4522   23.9534 C   0  0  0  0  0  0  0  0  0  0  0  0
   11.1692  -17.3607   23.1221 C   0  0  1  0  0  0  0  0  0  0  0  0
   10.0854  -16.4853   23.6039 N   0  0  0  0  0  0  0  0  0  0  0  0
    9.6714  -15.3919   22.7756 C   0  0  0  0  0  0  0  0  0  0  0  0
   10.3875  -15.9742   24.9674 O   0  0  0  0  0  0  0  0  0  0  0  0
   10.3001  -16.7895   26.0845 O   0  0  0  0  0  0  0  0  0  0  0  0
  2  3  2  0
  2  1  1  0
  4  2  1  0
  5  6  1  0
  5  4  1  0
  7  6  1  0
  8  7  1  0
  8  9  1  6
 10  8  1  0
 10 11  2  0
 13 12  1  1
 13 15  1  0
 14 13  1  0
 15 16  1  6
 16 10  1  0
 17 15  1  0
 18 17  2  0
 19 20  1  0
 20 21  2  0
 22 23  1  0
 22 20  1  0
 23 24  1  0
 24 25  1  0
 26 25  1  6
 26 28  1  0
 26 27  1  0
 27 17  1  0
 28 29  1  0
 30 28  2  0
M  END
$$$$
