RVR.pdb
     RDKit          3D

 30 29  0  0  1  0  0  0  0  0999 V2000
   10.3739  -13.9322   15.3683 N   0  0  0  0  0  0  0  0  0  0  0  0
   10.9259  -15.0686   16.0413 C   0  0  0  0  0  0  0  0  0  0  0  0
   10.9202  -16.2359   15.4870 N   0  0  0  0  0  0  0  0  0  0  0  0
   11.4993  -14.9653   17.3363 N   0  0  0  0  0  0  0  0  0  0  0  0
   11.4405  -13.7335   18.0949 C   0  0  0  0  0  0  0  0  0  0  0  0
   10.0536  -13.2489   18.3163 C   0  0  0  0  0  0  0  0  0  0  0  0
    9.2605  -13.9721   19.3365 C   0  0  0  0  0  0  0  0  0  0  0  0
    8.0005  -14.6166   18.8846 C   0  0  2  0  0  0  0  0  0  0  0  0
    6.9317  -13.6598   18.7185 N   0  0  0  0  0  0  0  0  0  0  0  0
    7.5729  -15.5662   19.9549 C   0  0  0  0  0  0  0  0  0  0  0  0
    6.8219  -15.1276   20.8784 O   0  0  0  0  0  0  0  0  0  0  0  0
   11.3707  -17.0418   15.9508 C   0  0  0  0  0  0  0  0  0  0  0  0
    6.5471  -19.1542   19.0679 C   0  0  2  0  0  0  0  0  0  0  0  0
    7.4306  -19.2231   20.2936 C   0  0  0  0  0  0  0  0  0  0  0  0
    7.0260  -20.3291   21.2364 C   0  0  2  0  0  0  0  0  0  0  0  0
    7.3846  -17.8664   20.9652 N   0  0  0  0  0  0  0  0  0  0  0  0
    7.9526  -16.9139   19.9990 C   0  0  0  0  0  0  0  0  0  0  0  0
    8.3289  -17.8911   22.1085 O   0  0  0  0  0  0  0  0  0  0  0  0
    9.5727  -17.9939   21.9908 N   0  0  0  0  0  0  0  0  0  0  0  0
    5.7730  -11.2722   26.3442 C   0  0  0  0  0  0  0  0  0  0  0  0
    6.7252  -12.1774   26.8739 N   0  0  0  0  0  0  0  0  0  0  0  0
    7.0665  -12.1457   28.0934 N   0  0  0  0  0  0  0  0  0  0  0  0
    7.3029  -13.1444   25.9867 C   0  0  0  0  0  0  0  0  0  0  0  0
    7.6357  -14.4783   26.4287 C   0  0  0  0  0  0  0  0  0  0  0  0
    8.1453  -15.2805   25.2767 C   0  0  0  0  0  0  0  0  0  0  0  0
    8.4687  -16.6722   25.6131 C   0  0  2  0  0  0  0  0  0  0  0  0
    8.7588  -17.6639   24.5617 N   0  0  0  0  0  0  0  0  0  0  0  0
    7.8373  -17.7935   23.4722 C   0  0  0  0  0  0  0  0  0  0  0  0
    9.0006  -19.0058   25.1553 O   0  0  0  0  0  0  0  0  0  0  0  0
   10.1529  -19.2860   25.8721 O   0  0  0  0  0  0  0  0  0  0  0  0
  2  3  2  0
  2  1  1  0
  4  2  1  0
  5  6  1  0
  5  4  1  0
  7  6  1  0
  8  7  1  0
  8  9  1  1
 10  8  1  0
 10 11  2  0
 13 12  1  6
 13 15  1  0
 14 13  1  0
 15 16  1  1
 16 10  1  0
 17 15  1  0
 18 17  2  0
 19 20  1  0
 20 21  2  0
 22 23  1  0
 22 20  1  0
 23 24  1  0
 24 25  1  0
 26 25  1  6
 26 28  1  0
 26 27  1  0
 27 17  1  0
 28 29  1  0
 30 28  2  0
M  END
$$$$
