RVR.pdb
     RDKit          3D

 30 29  0  0  1  0  0  0  0  0999 V2000
   10.2428  -16.1906   10.5244 N   0  0  0  0  0  0  0  0  0  0  0  0
    9.6562  -16.0835   11.8257 C   0  0  0  0  0  0  0  0  0  0  0  0
    9.4821  -17.1299   12.5637 N   0  0  0  0  0  0  0  0  0  0  0  0
    9.2429  -14.8340   12.3593 N   0  0  0  0  0  0  0  0  0  0  0  0
    8.4648  -14.7504   13.5774 C   0  0  0  0  0  0  0  0  0  0  0  0
    9.2147  -15.1923   14.7815 C   0  0  0  0  0  0  0  0  0  0  0  0
    8.5837  -16.2578   15.5935 C   0  0  0  0  0  0  0  0  0  0  0  0
    9.3078  -16.6996   16.8132 C   0  0  2  0  0  0  0  0  0  0  0  0
    8.5716  -17.7018   17.5473 N   0  0  0  0  0  0  0  0  0  0  0  0
    9.4420  -15.5133   17.7102 C   0  0  0  0  0  0  0  0  0  0  0  0
   10.2368  -14.5877   17.3627 O   0  0  0  0  0  0  0  0  0  0  0  0
    9.1261  -17.0403   13.5295 C   0  0  0  0  0  0  0  0  0  0  0  0
    7.0084  -13.0369   18.7908 C   0  0  1  0  0  0  0  0  0  0  0  0
    7.5187  -13.6687   20.0667 C   0  0  0  0  0  0  0  0  0  0  0  0
    7.5017  -12.7118   21.2328 C   0  0  2  0  0  0  0  0  0  0  0  0
    8.9123  -14.1931   19.7896 N   0  0  0  0  0  0  0  0  0  0  0  0
    8.7411  -15.3624   18.9138 C   0  0  0  0  0  0  0  0  0  0  0  0
    9.4626  -14.7204   21.0618 O   0  0  0  0  0  0  0  0  0  0  0  0
    9.6911  -14.0169   22.0740 N   0  0  0  0  0  0  0  0  0  0  0  0
   16.2051  -14.4525   20.1466 C   0  0  0  0  0  0  0  0  0  0  0  0
   15.2604  -15.1725   19.3746 N   0  0  0  0  0  0  0  0  0  0  0  0
   14.5747  -14.6111   18.4694 N   0  0  0  0  0  0  0  0  0  0  0  0
   15.0946  -16.5710   19.6442 C   0  0  0  0  0  0  0  0  0  0  0  0
   14.6368  -17.0487   20.9278 C   0  0  0  0  0  0  0  0  0  0  0  0
   13.1988  -17.4416   20.8378 C   0  0  0  0  0  0  0  0  0  0  0  0
   12.2609  -16.3357   21.0657 C   0  0  2  0  0  0  0  0  0  0  0  0
   11.0053  -16.5410   21.8103 N   0  0  0  0  0  0  0  0  0  0  0  0
    9.7749  -16.1326   21.2002 C   0  0  0  0  0  0  0  0  0  0  0  0
   11.0950  -15.9438   23.1693 O   0  0  0  0  0  0  0  0  0  0  0  0
   10.5615  -14.6963   23.4512 O   0  0  0  0  0  0  0  0  0  0  0  0
  2  3  2  0
  2  1  1  0
  4  2  1  0
  5  6  1  0
  5  4  1  0
  7  6  1  0
  8  7  1  0
  8  9  1  1
 10  8  1  0
 10 11  2  0
 13 12  1  1
 13 15  1  0
 14 13  1  0
 15 16  1  6
 16 10  1  0
 17 15  1  0
 18 17  2  0
 19 20  1  0
 20 21  2  0
 22 23  1  0
 22 20  1  0
 23 24  1  0
 24 25  1  0
 26 25  1  6
 26 28  1  0
 26 27  1  0
 27 17  1  0
 28 29  1  0
 30 28  2  0
M  END
$$$$
