RVR.pdb
     RDKit          3D

 30 29  0  0  1  0  0  0  0  0999 V2000
   12.0782  -18.2093   12.6547 N   0  0  0  0  0  0  0  0  0  0  0  0
   11.4035  -19.2311   13.3961 C   0  0  0  0  0  0  0  0  0  0  0  0
   11.9215  -20.4076   13.5277 N   0  0  0  0  0  0  0  0  0  0  0  0
   10.1462  -19.0000   14.0145 N   0  0  0  0  0  0  0  0  0  0  0  0
    9.5967  -17.6663   14.1386 C   0  0  0  0  0  0  0  0  0  0  0  0
   10.5375  -16.7023   14.7656 C   0  0  0  0  0  0  0  0  0  0  0  0
   10.0547  -15.3094   14.9043 C   0  0  0  0  0  0  0  0  0  0  0  0
    8.7539  -15.1078   15.5932 C   0  0  2  0  0  0  0  0  0  0  0  0
    7.9099  -14.1681   14.8935 N   0  0  0  0  0  0  0  0  0  0  0  0
    9.0428  -14.5190   16.9348 C   0  0  0  0  0  0  0  0  0  0  0  0
    9.8623  -13.5528   16.9999 O   0  0  0  0  0  0  0  0  0  0  0  0
   11.4628  -21.1225   14.1159 C   0  0  0  0  0  0  0  0  0  0  0  0
    6.5056  -13.5510   19.6282 C   0  0  1  0  0  0  0  0  0  0  0  0
    7.5214  -14.4748   20.2622 C   0  0  0  0  0  0  0  0  0  0  0  0
    7.7738  -14.1480   21.7132 C   0  0  2  0  0  0  0  0  0  0  0  0
    8.7894  -14.3920   19.4382 N   0  0  0  0  0  0  0  0  0  0  0  0
    8.4617  -14.9713   18.1265 C   0  0  0  0  0  0  0  0  0  0  0  0
    9.7877  -15.3063   20.0438 O   0  0  0  0  0  0  0  0  0  0  0  0
    9.6792  -16.5552   20.0585 N   0  0  0  0  0  0  0  0  0  0  0  0
   17.6344  -14.1808   17.1600 C   0  0  0  0  0  0  0  0  0  0  0  0
   17.0957  -14.0809   18.4663 N   0  0  0  0  0  0  0  0  0  0  0  0
   17.6010  -13.3123   19.3373 N   0  0  0  0  0  0  0  0  0  0  0  0
   15.9494  -14.8807   18.7861 C   0  0  0  0  0  0  0  0  0  0  0  0
   14.6215  -14.3163   18.8463 C   0  0  0  0  0  0  0  0  0  0  0  0
   13.6344  -15.3815   19.1948 C   0  0  0  0  0  0  0  0  0  0  0  0
   13.3735  -15.5079   20.6337 C   0  0  2  0  0  0  0  0  0  0  0  0
   12.0017  -15.6674   21.1494 N   0  0  0  0  0  0  0  0  0  0  0  0
   10.9853  -14.7769   20.6734 C   0  0  0  0  0  0  0  0  0  0  0  0
   11.9940  -15.6623   22.6366 O   0  0  0  0  0  0  0  0  0  0  0  0
   11.0928  -14.8934   23.3556 O   0  0  0  0  0  0  0  0  0  0  0  0
  2  3  2  0
  2  1  1  0
  4  2  1  0
  5  6  1  0
  5  4  1  0
  7  6  1  0
  8  7  1  0
  8  9  1  6
 10  8  1  0
 10 11  2  0
 13 12  1  1
 13 15  1  0
 14 13  1  0
 15 16  1  6
 16 10  1  0
 17 15  1  0
 18 17  2  0
 19 20  1  0
 20 21  2  0
 22 23  1  0
 22 20  1  0
 23 24  1  0
 24 25  1  0
 26 25  1  6
 26 28  1  0
 26 27  1  0
 27 17  1  0
 28 29  1  0
 30 28  2  0
M  END
$$$$
