RVR.pdb
     RDKit          3D

 30 29  0  0  1  0  0  0  0  0999 V2000
   10.1776  -13.7673   18.9401 N   0  0  0  0  0  0  0  0  0  0  0  0
    8.8854  -13.1523   18.9110 C   0  0  0  0  0  0  0  0  0  0  0  0
    8.6547  -12.0608   19.5631 N   0  0  0  0  0  0  0  0  0  0  0  0
    7.8087  -13.7089   18.1711 N   0  0  0  0  0  0  0  0  0  0  0  0
    7.7152  -15.1324   17.9238 C   0  0  0  0  0  0  0  0  0  0  0  0
    6.8973  -15.8491   18.9362 C   0  0  0  0  0  0  0  0  0  0  0  0
    7.6436  -16.5546   20.0030 C   0  0  0  0  0  0  0  0  0  0  0  0
    8.5322  -17.6696   19.5855 C   0  0  2  0  0  0  0  0  0  0  0  0
    7.7838  -18.8214   19.1399 N   0  0  0  0  0  0  0  0  0  0  0  0
    9.3132  -18.0948   20.7852 C   0  0  0  0  0  0  0  0  0  0  0  0
    8.8364  -19.0183   21.5126 O   0  0  0  0  0  0  0  0  0  0  0  0
    7.7153  -11.6307   19.5552 C   0  0  0  0  0  0  0  0  0  0  0  0
   13.2703  -18.1691   21.1774 C   0  0  2  0  0  0  0  0  0  0  0  0
   12.6337  -17.3673   22.2906 C   0  0  0  0  0  0  0  0  0  0  0  0
   13.3923  -17.4783   23.5899 C   0  0  2  0  0  0  0  0  0  0  0  0
   11.2024  -17.8414   22.4327 N   0  0  0  0  0  0  0  0  0  0  0  0
   10.5423  -17.5334   21.1547 C   0  0  0  0  0  0  0  0  0  0  0  0
   10.5370  -16.9866   23.4455 O   0  0  0  0  0  0  0  0  0  0  0  0
   10.1271  -15.8228   23.2233 N   0  0  0  0  0  0  0  0  0  0  0  0
    7.2440  -11.4746   25.9784 C   0  0  0  0  0  0  0  0  0  0  0  0
    6.2979  -12.1924   26.7506 N   0  0  0  0  0  0  0  0  0  0  0  0
    5.4470  -11.6003   27.4787 N   0  0  0  0  0  0  0  0  0  0  0  0
    6.3249  -13.6247   26.6895 C   0  0  0  0  0  0  0  0  0  0  0  0
    7.3171  -14.3340   25.9164 C   0  0  0  0  0  0  0  0  0  0  0  0
    7.0721  -15.8045   26.0063 C   0  0  0  0  0  0  0  0  0  0  0  0
    8.0155  -16.6169   25.2288 C   0  0  2  0  0  0  0  0  0  0  0  0
    9.4102  -16.7989   25.6703 N   0  0  0  0  0  0  0  0  0  0  0  0
   10.3204  -17.4769   24.7959 C   0  0  0  0  0  0  0  0  0  0  0  0
    9.4589  -17.4382   27.0122 O   0  0  0  0  0  0  0  0  0  0  0  0
    9.3073  -16.6993   28.1746 O   0  0  0  0  0  0  0  0  0  0  0  0
  2  3  2  0
  2  1  1  0
  4  2  1  0
  5  6  1  0
  5  4  1  0
  7  6  1  0
  8  7  1  0
  8  9  1  1
 10  8  1  0
 10 11  2  0
 13 12  1  6
 13 15  1  0
 14 13  1  0
 15 16  1  1
 16 10  1  0
 17 15  1  0
 18 17  2  0
 19 20  1  0
 20 21  2  0
 22 23  1  0
 22 20  1  0
 23 24  1  0
 24 25  1  0
 26 25  1  6
 26 28  1  0
 26 27  1  0
 27 17  1  0
 28 29  1  0
 30 28  2  0
M  END
$$$$
