TCT.pdb
     RDKit          3D

 21 20  0  0  1  0  0  0  0  0999 V2000
   -4.5162  -21.6681   25.4757 C   0  0  0  0  0  0  0  0  0  0  0  0
   -3.9766  -22.9191   24.8585 C   0  0  1  0  0  0  0  0  0  0  0  0
   -3.3222  -22.6000   23.6879 O   0  0  0  0  0  0  0  0  0  0  0  0
   -3.1063  -23.7069   25.8119 C   0  0  2  0  0  0  0  0  0  0  0  0
   -2.7039  -24.9251   25.1273 N   0  0  0  0  0  0  0  0  0  0  0  0
   -3.8754  -24.1072   27.0190 C   0  0  0  0  0  0  0  0  0  0  0  0
   -4.7323  -25.0279   26.9887 O   0  0  0  0  0  0  0  0  0  0  0  0
   -3.6905  -23.4720   28.2906 N   0  0  0  0  0  0  0  0  0  0  0  0
   -4.4553  -23.8749   29.4533 C   0  0  1  0  0  0  0  0  0  0  0  0
   -3.4865  -24.0805   30.5874 C   0  0  0  0  0  0  0  0  0  0  0  0
   -2.1959  -25.2617   30.1178 S   0  0  0  0  0  0  0  0  0  0  0  0
   -5.5177  -22.9032   29.7576 C   0  0  0  0  0  0  0  0  0  0  0  0
   -5.1953  -21.7213   30.0734 O   0  0  0  0  0  0  0  0  0  0  0  0
   -7.5805  -21.4369   27.5594 C   0  0  0  0  0  0  0  0  0  0  0  0
   -8.5836  -21.9412   28.5756 C   0  0  1  0  0  0  0  0  0  0  0  0
   -9.0108  -23.2116   28.1481 O   0  0  0  0  0  0  0  0  0  0  0  0
   -7.9127  -22.1432   29.9248 C   0  0  2  0  0  0  0  0  0  0  0  0
   -6.9065  -23.1871   29.7259 N   0  0  0  0  0  0  0  0  0  0  0  0
   -8.8685  -22.5038   30.9825 C   0  0  0  0  0  0  0  0  0  0  0  0
   -9.6679  -21.5646   31.6139 O   0  0  0  0  0  0  0  0  0  0  0  0
   -8.9883  -23.7003   31.3498 O   0  0  0  0  0  0  0  0  0  0  0  0
  2  1  1  1
  2  4  1  0
  2  3  1  0
  4  5  1  6
  6  8  1  0
  6  4  1  0
  7  6  2  0
  9 12  1  0
  9  8  1  0
  9 10  1  1
 11 10  1  0
 12 18  1  0
 13 12  2  0
 15 14  1  6
 16 15  1  0
 17 19  1  0
 17 15  1  0
 17 18  1  6
 19 20  1  0
 21 19  2  0
M  END
$$$$
