TCT.pdb
     RDKit          3D

 21 20  0  0  1  0  0  0  0  0999 V2000
    7.6191  -16.1895   18.7145 C   0  0  0  0  0  0  0  0  0  0  0  0
    8.1771  -14.8849   18.2415 C   0  0  1  0  0  0  0  0  0  0  0  0
    7.8126  -14.6870   16.9269 O   0  0  0  0  0  0  0  0  0  0  0  0
    7.7818  -13.7285   19.1322 C   0  0  2  0  0  0  0  0  0  0  0  0
    8.3627  -12.5231   18.5629 N   0  0  0  0  0  0  0  0  0  0  0  0
    8.3489  -13.8956   20.4958 C   0  0  0  0  0  0  0  0  0  0  0  0
    9.5881  -13.8649   20.7108 O   0  0  0  0  0  0  0  0  0  0  0  0
    7.5229  -14.1017   21.6490 N   0  0  0  0  0  0  0  0  0  0  0  0
    8.0991  -14.3051   22.9627 C   0  0  1  0  0  0  0  0  0  0  0  0
    7.0289  -14.0112   23.9803 C   0  0  0  0  0  0  0  0  0  0  0  0
    7.6414  -14.3189   25.6571 S   0  0  0  0  0  0  0  0  0  0  0  0
    8.6767  -15.6526   23.0906 C   0  0  0  0  0  0  0  0  0  0  0  0
    8.1959  -16.5941   22.3957 O   0  0  0  0  0  0  0  0  0  0  0  0
    9.7734  -17.3630   21.6020 C   0  0  0  0  0  0  0  0  0  0  0  0
   10.7938  -17.7128   22.6648 C   0  0  1  0  0  0  0  0  0  0  0  0
   11.9183  -16.8946   22.4516 O   0  0  0  0  0  0  0  0  0  0  0  0
   10.2606  -17.3620   24.0447 C   0  0  2  0  0  0  0  0  0  0  0  0
    9.7533  -15.9927   23.9483 N   0  0  0  0  0  0  0  0  0  0  0  0
   11.2824  -17.4906   25.0943 C   0  0  0  0  0  0  0  0  0  0  0  0
   11.7281  -18.7203   25.5513 O   0  0  0  0  0  0  0  0  0  0  0  0
   11.7898  -16.4654   25.6163 O   0  0  0  0  0  0  0  0  0  0  0  0
  2  1  1  1
  2  4  1  0
  2  3  1  0
  4  5  1  6
  6  8  1  0
  6  4  1  0
  7  6  2  0
  9 12  1  0
  9  8  1  0
  9 10  1  1
 11 10  1  0
 12 18  1  0
 13 12  2  0
 15 14  1  6
 16 15  1  0
 17 19  1  0
 17 15  1  0
 17 18  1  6
 19 20  1  0
 21 19  2  0
M  END
$$$$
