TCT.pdb
     RDKit          3D

 21 20  0  0  1  0  0  0  0  0999 V2000
    8.2044  -17.1463   20.6049 C   0  0  0  0  0  0  0  0  0  0  0  0
    8.8735  -16.9602   21.9296 C   0  0  1  0  0  0  0  0  0  0  0  0
    9.7697  -17.9879   22.1320 O   0  0  0  0  0  0  0  0  0  0  0  0
    9.5143  -15.5976   22.0689 C   0  0  2  0  0  0  0  0  0  0  0  0
   10.6205  -15.5392   21.1268 N   0  0  0  0  0  0  0  0  0  0  0  0
   10.0795  -15.4177   23.4317 C   0  0  0  0  0  0  0  0  0  0  0  0
   11.2726  -15.7107   23.7027 O   0  0  0  0  0  0  0  0  0  0  0  0
    9.3038  -14.9007   24.5206 N   0  0  0  0  0  0  0  0  0  0  0  0
    9.8267  -14.8703   25.8714 C   0  0  1  0  0  0  0  0  0  0  0  0
    9.1173  -13.7665   26.6101 C   0  0  0  0  0  0  0  0  0  0  0  0
    9.7047  -13.6636   28.3205 S   0  0  0  0  0  0  0  0  0  0  0  0
    9.7049  -16.1847   26.5218 C   0  0  0  0  0  0  0  0  0  0  0  0
    8.5752  -16.7538   26.5470 O   0  0  0  0  0  0  0  0  0  0  0  0
   10.9569  -19.3183   25.6801 C   0  0  0  0  0  0  0  0  0  0  0  0
   11.4096  -19.1828   27.1188 C   0  0  1  0  0  0  0  0  0  0  0  0
   12.7234  -18.6801   27.0993 O   0  0  0  0  0  0  0  0  0  0  0  0
   10.5630  -18.1488   27.8437 C   0  0  2  0  0  0  0  0  0  0  0  0
   10.7733  -16.8843   27.1378 N   0  0  0  0  0  0  0  0  0  0  0  0
   10.9044  -18.0387   29.2698 C   0  0  0  0  0  0  0  0  0  0  0  0
   10.6864  -19.0706   30.1683 O   0  0  0  0  0  0  0  0  0  0  0  0
   11.4145  -16.9818   29.7213 O   0  0  0  0  0  0  0  0  0  0  0  0
  2  1  1  6
  2  4  1  0
  2  3  1  0
  4  5  1  6
  6  8  1  0
  6  4  1  0
  7  6  2  0
  9 12  1  0
  9  8  1  0
  9 10  1  1
 11 10  1  0
 12 18  1  0
 13 12  2  0
 15 14  1  6
 16 15  1  0
 17 19  1  0
 17 15  1  0
 17 18  1  6
 19 20  1  0
 21 19  2  0
M  END
$$$$
