TCT.pdb
     RDKit          3D

 21 20  0  0  1  0  0  0  0  0999 V2000
    6.4035  -19.3619   17.6357 C   0  0  0  0  0  0  0  0  0  0  0  0
    7.1232  -18.6195   18.7165 C   0  0  1  0  0  0  0  0  0  0  0  0
    8.2719  -19.3054   19.0486 O   0  0  0  0  0  0  0  0  0  0  0  0
    7.3957  -17.1786   18.3471 C   0  0  2  0  0  0  0  0  0  0  0  0
    8.2937  -17.1855   17.2034 N   0  0  0  0  0  0  0  0  0  0  0  0
    8.0906  -16.4729   19.4553 C   0  0  0  0  0  0  0  0  0  0  0  0
    9.3418  -16.3437   19.4826 O   0  0  0  0  0  0  0  0  0  0  0  0
    7.3821  -15.8963   20.5599 N   0  0  0  0  0  0  0  0  0  0  0  0
    8.0839  -15.2708   21.6623 C   0  0  1  0  0  0  0  0  0  0  0  0
    7.0639  -14.5450   22.4990 C   0  0  0  0  0  0  0  0  0  0  0  0
    7.8321  -13.8615   23.9903 S   0  0  0  0  0  0  0  0  0  0  0  0
    8.8730  -16.2544   22.4209 C   0  0  0  0  0  0  0  0  0  0  0  0
    8.3620  -17.3827   22.6786 O   0  0  0  0  0  0  0  0  0  0  0  0
   13.1824  -18.0922   23.8106 C   0  0  0  0  0  0  0  0  0  0  0  0
   12.3354  -17.0630   23.0920 C   0  0  1  0  0  0  0  0  0  0  0  0
   12.2400  -17.4639   21.7468 O   0  0  0  0  0  0  0  0  0  0  0  0
   10.9190  -17.0659   23.6443 C   0  0  2  0  0  0  0  0  0  0  0  0
   10.1902  -16.0387   22.8991 N   0  0  0  0  0  0  0  0  0  0  0  0
   10.8773  -16.8189   25.0933 C   0  0  0  0  0  0  0  0  0  0  0  0
   11.0097  -17.8358   26.0249 O   0  0  0  0  0  0  0  0  0  0  0  0
   10.7170  -15.6526   25.5347 O   0  0  0  0  0  0  0  0  0  0  0  0
  2  1  1  6
  2  4  1  0
  2  3  1  0
  4  5  1  6
  6  8  1  0
  6  4  1  0
  7  6  2  0
  9 12  1  0
  9  8  1  0
  9 10  1  1
 11 10  1  0
 12 18  1  0
 13 12  2  0
 15 14  1  1
 16 15  1  0
 17 19  1  0
 17 15  1  0
 17 18  1  6
 19 20  1  0
 21 19  2  0
M  END
$$$$
