TCT.pdb
     RDKit          3D

 21 20  0  0  1  0  0  0  0  0999 V2000
    6.6648  -15.0489   19.6386 C   0  0  0  0  0  0  0  0  0  0  0  0
    7.1582  -14.4802   20.9310 C   0  0  1  0  0  0  0  0  0  0  0  0
    6.0890  -14.2954   21.7812 O   0  0  0  0  0  0  0  0  0  0  0  0
    8.2536  -15.3176   21.5519 C   0  0  2  0  0  0  0  0  0  0  0  0
    7.6925  -16.6299   21.8304 N   0  0  0  0  0  0  0  0  0  0  0  0
    8.6913  -14.7359   22.8477 C   0  0  0  0  0  0  0  0  0  0  0  0
    9.3000  -13.6367   22.9133 O   0  0  0  0  0  0  0  0  0  0  0  0
    8.4487  -15.3877   24.1010 N   0  0  0  0  0  0  0  0  0  0  0  0
    8.9388  -14.8334   25.3467 C   0  0  1  0  0  0  0  0  0  0  0  0
    7.9284  -13.8249   25.8256 C   0  0  0  0  0  0  0  0  0  0  0  0
    8.3783  -13.2006   27.4655 S   0  0  0  0  0  0  0  0  0  0  0  0
    9.2220  -15.8924   26.3285 C   0  0  0  0  0  0  0  0  0  0  0  0
    8.2676  -16.6067   26.7521 O   0  0  0  0  0  0  0  0  0  0  0  0
   12.1384  -19.3632   27.9674 C   0  0  0  0  0  0  0  0  0  0  0  0
   11.8674  -18.1238   27.1406 C   0  0  1  0  0  0  0  0  0  0  0  0
   11.4180  -18.5522   25.8781 O   0  0  0  0  0  0  0  0  0  0  0  0
   10.7320  -17.3188   27.7521 C   0  0  2  0  0  0  0  0  0  0  0  0
   10.5061  -16.1867   26.8526 N   0  0  0  0  0  0  0  0  0  0  0  0
   11.0289  -16.8739   29.1219 C   0  0  0  0  0  0  0  0  0  0  0  0
   10.8087  -17.6777   30.2288 O   0  0  0  0  0  0  0  0  0  0  0  0
   11.5009  -15.7271   29.3294 O   0  0  0  0  0  0  0  0  0  0  0  0
  2  1  1  6
  2  4  1  0
  2  3  1  0
  4  5  1  1
  6  8  1  0
  6  4  1  0
  7  6  2  0
  9 12  1  0
  9  8  1  0
  9 10  1  1
 11 10  1  0
 12 18  1  0
 13 12  2  0
 15 14  1  1
 16 15  1  0
 17 19  1  0
 17 15  1  0
 17 18  1  6
 19 20  1  0
 21 19  2  0
M  END
$$$$
