TCT.pdb
     RDKit          3D

 21 20  0  0  1  0  0  0  0  0999 V2000
    7.8382  -15.1206   18.7161 C   0  0  0  0  0  0  0  0  0  0  0  0
    8.3554  -14.7200   20.0611 C   0  0  1  0  0  0  0  0  0  0  0  0
    8.3181  -13.3462   20.1692 O   0  0  0  0  0  0  0  0  0  0  0  0
    7.6252  -15.4096   21.1917 C   0  0  2  0  0  0  0  0  0  0  0  0
    6.2414  -14.9647   21.1506 N   0  0  0  0  0  0  0  0  0  0  0  0
    8.1855  -15.0026   22.5067 C   0  0  0  0  0  0  0  0  0  0  0  0
    9.4012  -15.1585   22.7905 O   0  0  0  0  0  0  0  0  0  0  0  0
    7.3791  -14.4085   23.5322 N   0  0  0  0  0  0  0  0  0  0  0  0
    7.9337  -14.0725   24.8278 C   0  0  1  0  0  0  0  0  0  0  0  0
    6.9743  -13.1292   25.5036 C   0  0  0  0  0  0  0  0  0  0  0  0
    7.5009  -12.7937   27.2040 S   0  0  0  0  0  0  0  0  0  0  0  0
    8.2217  -15.2814   25.6161 C   0  0  0  0  0  0  0  0  0  0  0  0
    7.2827  -16.0947   25.8562 O   0  0  0  0  0  0  0  0  0  0  0  0
   10.9833  -18.9734   26.8716 C   0  0  0  0  0  0  0  0  0  0  0  0
   10.6471  -17.7074   26.1120 C   0  0  1  0  0  0  0  0  0  0  0  0
    9.9386  -18.0869   24.9573 O   0  0  0  0  0  0  0  0  0  0  0  0
    9.7062  -16.8357   26.9282 C   0  0  2  0  0  0  0  0  0  0  0  0
    9.4942  -15.6197   26.1420 N   0  0  0  0  0  0  0  0  0  0  0  0
   10.2352  -16.5326   28.2664 C   0  0  0  0  0  0  0  0  0  0  0  0
   10.0975  -17.4037   29.3350 O   0  0  0  0  0  0  0  0  0  0  0  0
   10.8398  -15.4512   28.4807 O   0  0  0  0  0  0  0  0  0  0  0  0
  2  1  1  6
  2  4  1  0
  2  3  1  0
  4  5  1  1
  6  8  1  0
  6  4  1  0
  7  6  2  0
  9 12  1  0
  9  8  1  0
  9 10  1  1
 11 10  1  0
 12 18  1  0
 13 12  2  0
 15 14  1  1
 16 15  1  0
 17 19  1  0
 17 15  1  0
 17 18  1  6
 19 20  1  0
 21 19  2  0
M  END
$$$$
