TCT.pdb
     RDKit          3D

 21 20  0  0  1  0  0  0  0  0999 V2000
    5.8553  -16.2892   19.6239 C   0  0  0  0  0  0  0  0  0  0  0  0
    6.5754  -15.9707   20.8956 C   0  0  1  0  0  0  0  0  0  0  0  0
    7.6408  -16.8334   21.0403 O   0  0  0  0  0  0  0  0  0  0  0  0
    6.9907  -14.5190   20.9785 C   0  0  2  0  0  0  0  0  0  0  0  0
    7.9127  -14.2675   19.8824 N   0  0  0  0  0  0  0  0  0  0  0  0
    7.7204  -14.2510   22.2452 C   0  0  0  0  0  0  0  0  0  0  0  0
    8.9747  -14.3160   22.3187 O   0  0  0  0  0  0  0  0  0  0  0  0
    7.0440  -13.9026   23.4600 N   0  0  0  0  0  0  0  0  0  0  0  0
    7.7572  -13.7967   24.7166 C   0  0  1  0  0  0  0  0  0  0  0  0
    6.9261  -12.9485   25.6424 C   0  0  0  0  0  0  0  0  0  0  0  0
    7.6653  -12.8961   27.2953 S   0  0  0  0  0  0  0  0  0  0  0  0
    8.0754  -15.1250   25.2646 C   0  0  0  0  0  0  0  0  0  0  0  0
    7.1274  -15.9010   25.5802 O   0  0  0  0  0  0  0  0  0  0  0  0
    9.8505  -17.8384   23.8150 C   0  0  0  0  0  0  0  0  0  0  0  0
   10.5212  -17.6958   25.1651 C   0  0  1  0  0  0  0  0  0  0  0  0
   11.6821  -16.9237   24.9770 O   0  0  0  0  0  0  0  0  0  0  0  0
    9.6315  -16.9120   26.1167 C   0  0  2  0  0  0  0  0  0  0  0  0
    9.3873  -15.6203   25.4736 N   0  0  0  0  0  0  0  0  0  0  0  0
   10.2332  -16.7510   27.4489 C   0  0  0  0  0  0  0  0  0  0  0  0
   10.3917  -17.8117   28.3261 O   0  0  0  0  0  0  0  0  0  0  0  0
   10.6283  -15.6217   27.8354 O   0  0  0  0  0  0  0  0  0  0  0  0
  2  1  1  6
  2  4  1  0
  2  3  1  0
  4  5  1  6
  6  8  1  0
  6  4  1  0
  7  6  2  0
  9 12  1  0
  9  8  1  0
  9 10  1  1
 11 10  1  0
 12 18  1  0
 13 12  2  0
 15 14  1  6
 16 15  1  0
 17 19  1  0
 17 15  1  0
 17 18  1  6
 19 20  1  0
 21 19  2  0
M  END
$$$$
