TCT.pdb
     RDKit          3D

 21 20  0  0  1  0  0  0  0  0999 V2000
    7.1557  -18.2488   19.2239 C   0  0  0  0  0  0  0  0  0  0  0  0
    6.9967  -17.8000   20.6418 C   0  0  1  0  0  0  0  0  0  0  0  0
    6.2167  -16.6638   20.6718 O   0  0  0  0  0  0  0  0  0  0  0  0
    6.4616  -18.8934   21.5392 C   0  0  2  0  0  0  0  0  0  0  0  0
    5.1586  -19.2806   21.0227 N   0  0  0  0  0  0  0  0  0  0  0  0
    6.2608  -18.3886   22.9226 C   0  0  0  0  0  0  0  0  0  0  0  0
    5.1244  -18.0677   23.3568 O   0  0  0  0  0  0  0  0  0  0  0  0
    7.3453  -18.2357   23.8472 N   0  0  0  0  0  0  0  0  0  0  0  0
    7.1364  -17.6827   25.1699 C   0  0  1  0  0  0  0  0  0  0  0  0
    7.5745  -18.7182   26.1714 C   0  0  0  0  0  0  0  0  0  0  0  0
    7.5310  -18.0402   27.8506 S   0  0  0  0  0  0  0  0  0  0  0  0
    7.8227  -16.3900   25.3238 C   0  0  0  0  0  0  0  0  0  0  0  0
    8.9789  -16.2473   24.8303 O   0  0  0  0  0  0  0  0  0  0  0  0
    6.5496  -12.6447   24.8852 C   0  0  0  0  0  0  0  0  0  0  0  0
    7.0969  -12.9019   26.2735 C   0  0  1  0  0  0  0  0  0  0  0  0
    6.0191  -13.3107   27.0800 O   0  0  0  0  0  0  0  0  0  0  0  0
    8.0799  -14.0614   26.2472 C   0  0  2  0  0  0  0  0  0  0  0  0
    7.2840  -15.2633   25.9950 N   0  0  0  0  0  0  0  0  0  0  0  0
    8.8543  -14.1736   27.4923 C   0  0  0  0  0  0  0  0  0  0  0  0
    8.8611  -15.3254   28.2624 O   0  0  0  0  0  0  0  0  0  0  0  0
    9.5459  -13.2059   27.8998 O   0  0  0  0  0  0  0  0  0  0  0  0
  2  1  1  6
  2  4  1  0
  2  3  1  0
  4  5  1  6
  6  8  1  0
  6  4  1  0
  7  6  2  0
  9 12  1  0
  9  8  1  0
  9 10  1  1
 11 10  1  0
 12 18  1  0
 13 12  2  0
 15 14  1  6
 16 15  1  0
 17 19  1  0
 17 15  1  0
 17 18  1  1
 19 20  1  0
 21 19  2  0
M  END
$$$$
