TCT.pdb
     RDKit          3D

 21 20  0  0  1  0  0  0  0  0999 V2000
    6.5526  -15.9662   19.6624 C   0  0  0  0  0  0  0  0  0  0  0  0
    7.4626  -14.9870   18.9915 C   0  0  1  0  0  0  0  0  0  0  0  0
    7.1249  -14.8960   17.6581 O   0  0  0  0  0  0  0  0  0  0  0  0
    7.4729  -13.6402   19.6792 C   0  0  2  0  0  0  0  0  0  0  0  0
    8.3065  -12.7527   18.8843 N   0  0  0  0  0  0  0  0  0  0  0  0
    8.0894  -13.7418   21.0278 C   0  0  0  0  0  0  0  0  0  0  0  0
    9.3267  -13.9071   21.1845 O   0  0  0  0  0  0  0  0  0  0  0  0
    7.3161  -13.6582   22.2318 N   0  0  0  0  0  0  0  0  0  0  0  0
    7.9202  -13.8670   23.5321 C   0  0  1  0  0  0  0  0  0  0  0  0
    7.0242  -13.2269   24.5591 C   0  0  0  0  0  0  0  0  0  0  0  0
    7.6246  -13.5718   26.2330 S   0  0  0  0  0  0  0  0  0  0  0  0
    8.1723  -15.2953   23.7815 C   0  0  0  0  0  0  0  0  0  0  0  0
    7.1943  -16.0977   23.7915 O   0  0  0  0  0  0  0  0  0  0  0  0
    9.8129  -17.7416   21.9040 C   0  0  0  0  0  0  0  0  0  0  0  0
   10.4981  -17.8618   23.2490 C   0  0  1  0  0  0  0  0  0  0  0  0
   11.6574  -17.0661   23.2015 O   0  0  0  0  0  0  0  0  0  0  0  0
    9.6191  -17.2782   24.3436 C   0  0  2  0  0  0  0  0  0  0  0  0
    9.4506  -15.8616   24.0174 N   0  0  0  0  0  0  0  0  0  0  0  0
   10.1911  -17.4627   25.6857 C   0  0  0  0  0  0  0  0  0  0  0  0
   10.6983  -16.4092   26.4290 O   0  0  0  0  0  0  0  0  0  0  0  0
   10.2359  -18.6067   26.2056 O   0  0  0  0  0  0  0  0  0  0  0  0
  2  1  1  1
  2  4  1  0
  2  3  1  0
  4  5  1  6
  6  8  1  0
  6  4  1  0
  7  6  2  0
  9 12  1  0
  9  8  1  0
  9 10  1  1
 11 10  1  0
 12 18  1  0
 13 12  2  0
 15 14  1  6
 16 15  1  0
 17 19  1  0
 17 15  1  0
 17 18  1  6
 19 20  1  0
 21 19  2  0
M  END
$$$$
