TCT.pdb
     RDKit          3D

 21 20  0  0  1  0  0  0  0  0999 V2000
    8.3668  -16.9182   20.5032 C   0  0  0  0  0  0  0  0  0  0  0  0
    8.9177  -16.8649   21.8927 C   0  0  1  0  0  0  0  0  0  0  0  0
    9.5889  -18.0393   22.1584 O   0  0  0  0  0  0  0  0  0  0  0  0
    9.7749  -15.6418   22.1297 C   0  0  2  0  0  0  0  0  0  0  0  0
   10.9619  -15.7758   21.3005 N   0  0  0  0  0  0  0  0  0  0  0  0
   10.2245  -15.5796   23.5450 C   0  0  0  0  0  0  0  0  0  0  0  0
   11.3503  -16.0093   23.9065 O   0  0  0  0  0  0  0  0  0  0  0  0
    9.4068  -15.0277   24.5849 N   0  0  0  0  0  0  0  0  0  0  0  0
    9.8734  -14.9589   25.9548 C   0  0  1  0  0  0  0  0  0  0  0  0
    9.1674  -13.8070   26.6196 C   0  0  0  0  0  0  0  0  0  0  0  0
    9.6810  -13.6573   28.3502 S   0  0  0  0  0  0  0  0  0  0  0  0
    9.6845  -16.2427   26.6491 C   0  0  0  0  0  0  0  0  0  0  0  0
    8.5246  -16.7446   26.7048 O   0  0  0  0  0  0  0  0  0  0  0  0
   10.6016  -19.4230   25.8181 C   0  0  0  0  0  0  0  0  0  0  0  0
   11.1588  -19.3260   27.2228 C   0  0  1  0  0  0  0  0  0  0  0  0
   12.5050  -18.9320   27.1135 O   0  0  0  0  0  0  0  0  0  0  0  0
   10.4494  -18.2270   27.9977 C   0  0  2  0  0  0  0  0  0  0  0  0
   10.7187  -16.9825   27.2764 N   0  0  0  0  0  0  0  0  0  0  0  0
   10.8894  -18.1496   29.3987 C   0  0  0  0  0  0  0  0  0  0  0  0
   10.6534  -19.1668   30.3093 O   0  0  0  0  0  0  0  0  0  0  0  0
   11.5050  -17.1359   29.8163 O   0  0  0  0  0  0  0  0  0  0  0  0
  2  1  1  6
  2  4  1  0
  2  3  1  0
  4  5  1  6
  6  8  1  0
  6  4  1  0
  7  6  2  0
  9 12  1  0
  9  8  1  0
  9 10  1  1
 11 10  1  0
 12 18  1  0
 13 12  2  0
 15 14  1  6
 16 15  1  0
 17 19  1  0
 17 15  1  0
 17 18  1  6
 19 20  1  0
 21 19  2  0
M  END
$$$$
