DGF.pdb
     RDKit          3D

 24 24  0  0  1  0  0  0  0  0999 V2000
   21.1129  -18.3811  -15.9671 N   0  0  0  0  0  0  0  0  0  0  0  0
   21.1323  -19.8722  -15.9352 C   0  0  1  0  0  0  0  0  0  0  0  0
   21.9134  -20.3125  -17.1518 C   0  0  0  0  0  0  0  0  0  0  0  0
   21.2638  -19.9182  -18.3950 C   0  0  0  0  0  0  0  0  0  0  0  0
   20.0701  -20.1696  -18.6248 O   0  0  0  0  0  0  0  0  0  0  0  0
   21.8323  -20.2333  -14.6768 C   0  0  0  0  0  0  0  0  0  0  0  0
   22.1161  -21.4714  -14.4822 O   0  0  0  0  0  0  0  0  0  0  0  0
   21.9403  -19.2296  -19.4155 O   0  0  0  0  0  0  0  0  0  0  0  0
   22.1898  -19.2875  -13.7180 N   0  0  0  0  0  0  0  0  0  0  0  0
   22.8640  -19.6833  -12.4801 C   0  0  0  0  0  0  0  0  0  0  0  0
   24.3200  -19.7110  -12.7592 C   0  0  0  0  0  0  0  0  0  0  0  0
   24.8686  -18.8630  -13.4726 O   0  0  0  0  0  0  0  0  0  0  0  0
   25.0966  -20.7395  -12.1896 N   0  0  0  0  0  0  0  0  0  0  0  0
   26.5424  -20.8240  -12.2830 C   0  0  1  0  0  0  0  0  0  0  0  0
   26.9984  -21.6153  -11.0871 C   0  0  0  0  0  0  0  0  0  0  0  0
   26.8489  -20.9538   -9.7987 C   0  0  0  0  0  0  0  0  0  0  0  0
   27.9892  -20.3609   -9.2436 C   0  0  0  0  0  0  0  0  0  0  0  0
   27.9448  -19.7121   -8.0310 C   0  0  0  0  0  0  0  0  0  0  0  0
   26.7419  -19.6552   -7.3635 C   0  0  0  0  0  0  0  0  0  0  0  0
   25.6073  -20.2392   -7.9052 C   0  0  0  0  0  0  0  0  0  0  0  0
   25.6455  -20.8845   -9.1080 C   0  0  0  0  0  0  0  0  0  0  0  0
   26.8533  -21.4803  -13.5782 C   0  0  0  0  0  0  0  0  0  0  0  0
   26.0146  -22.1842  -14.1989 O   0  0  0  0  0  0  0  0  0  0  0  0
   28.1066  -21.3551  -14.1925 O   0  0  0  0  0  0  0  0  0  0  0  0
  2  1  1  6
  2  3  1  0
  3  4  1  0
  4  8  1  0
  5  4  2  0
  6  7  2  0
  6  2  1  0
  9  6  1  0
 10 11  1  0
 10  9  1  0
 11 13  1  0
 12 11  2  0
 13 14  1  0
 14 15  1  1
 14 22  1  0
 15 16  1  0
 16 21  2  0
 17 16  1  0
 17 18  2  0
 18 19  1  0
 19 20  2  0
 21 20  1  0
 22 23  2  0
 22 24  1  0
M  END
$$$$
