DGF.pdb
     RDKit          3D

 24 24  0  0  1  0  0  0  0  0999 V2000
   23.2383  -19.9869  -14.2235 N   0  0  0  0  0  0  0  0  0  0  0  0
   22.5169  -19.9898  -12.9180 C   0  0  1  0  0  0  0  0  0  0  0  0
   21.2570  -20.7969  -13.1312 C   0  0  0  0  0  0  0  0  0  0  0  0
   20.1366  -19.9666  -13.5535 C   0  0  0  0  0  0  0  0  0  0  0  0
   19.9945  -19.5984  -14.7304 O   0  0  0  0  0  0  0  0  0  0  0  0
   23.4349  -20.6539  -11.9587 C   0  0  0  0  0  0  0  0  0  0  0  0
   23.0192  -20.8322  -10.7558 O   0  0  0  0  0  0  0  0  0  0  0  0
   19.1440  -19.5270  -12.6621 O   0  0  0  0  0  0  0  0  0  0  0  0
   24.7100  -21.0873  -12.3163 N   0  0  0  0  0  0  0  0  0  0  0  0
   25.5476  -21.8315  -11.3739 C   0  0  0  0  0  0  0  0  0  0  0  0
   26.1978  -20.8407  -10.4828 C   0  0  0  0  0  0  0  0  0  0  0  0
   26.0744  -19.6224  -10.6539 O   0  0  0  0  0  0  0  0  0  0  0  0
   26.9795  -21.3104   -9.4086 N   0  0  0  0  0  0  0  0  0  0  0  0
   27.7589  -20.4604   -8.5276 C   0  0  1  0  0  0  0  0  0  0  0  0
   27.2422  -20.7063   -7.1359 C   0  0  0  0  0  0  0  0  0  0  0  0
   27.9716  -20.0411   -6.0656 C   0  0  0  0  0  0  0  0  0  0  0  0
   28.7607  -20.8413   -5.2307 C   0  0  0  0  0  0  0  0  0  0  0  0
   29.4867  -20.3020   -4.1937 C   0  0  0  0  0  0  0  0  0  0  0  0
   29.4228  -18.9421   -3.9886 C   0  0  0  0  0  0  0  0  0  0  0  0
   28.6443  -18.1415   -4.8100 C   0  0  0  0  0  0  0  0  0  0  0  0
   27.9217  -18.6712   -5.8405 C   0  0  0  0  0  0  0  0  0  0  0  0
   29.1822  -20.8451   -8.7050 C   0  0  0  0  0  0  0  0  0  0  0  0
   29.5307  -21.9931   -9.0855 O   0  0  0  0  0  0  0  0  0  0  0  0
   30.2304  -19.9483   -8.4586 O   0  0  0  0  0  0  0  0  0  0  0  0
  2  1  1  6
  2  3  1  0
  3  4  1  0
  4  8  1  0
  5  4  2  0
  6  7  2  0
  6  2  1  0
  9  6  1  0
 10 11  1  0
 10  9  1  0
 11 13  1  0
 12 11  2  0
 13 14  1  0
 14 15  1  1
 14 22  1  0
 15 16  1  0
 16 21  2  0
 17 16  1  0
 17 18  2  0
 18 19  1  0
 19 20  2  0
 21 20  1  0
 22 23  2  0
 22 24  1  0
M  END
$$$$
