DGF.pdb
     RDKit          3D

 24 24  0  0  1  0  0  0  0  0999 V2000
   22.6658  -10.8742  -18.9677 N   0  0  0  0  0  0  0  0  0  0  0  0
   21.1767  -10.9097  -19.0460 C   0  0  1  0  0  0  0  0  0  0  0  0
   20.7093  -11.7333  -17.8681 C   0  0  0  0  0  0  0  0  0  0  0  0
   20.8763  -13.1628  -18.0954 C   0  0  0  0  0  0  0  0  0  0  0  0
   21.9454  -13.7482  -17.8606 O   0  0  0  0  0  0  0  0  0  0  0  0
   20.7393   -9.4956  -18.9314 C   0  0  0  0  0  0  0  0  0  0  0  0
   19.4838   -9.2451  -19.0419 O   0  0  0  0  0  0  0  0  0  0  0  0
   19.8436  -13.9741  -18.5940 O   0  0  0  0  0  0  0  0  0  0  0  0
   21.6316   -8.4493  -18.7066 N   0  0  0  0  0  0  0  0  0  0  0  0
   21.1636   -7.0659  -18.6016 C   0  0  0  0  0  0  0  0  0  0  0  0
   20.8174   -6.8232  -17.1803 C   0  0  0  0  0  0  0  0  0  0  0  0
   19.9714   -7.5006  -16.5851 O   0  0  0  0  0  0  0  0  0  0  0  0
   21.4782   -5.7858  -16.4929 N   0  0  0  0  0  0  0  0  0  0  0  0
   21.2393   -5.4393  -15.1039 C   0  0  1  0  0  0  0  0  0  0  0  0
   22.5246   -5.7150  -14.3717 C   0  0  0  0  0  0  0  0  0  0  0  0
   23.0042   -7.0883  -14.4344 C   0  0  0  0  0  0  0  0  0  0  0  0
   22.4487   -8.0056  -13.5345 C   0  0  0  0  0  0  0  0  0  0  0  0
   22.8381   -9.3253  -13.5201 C   0  0  0  0  0  0  0  0  0  0  0  0
   23.7975   -9.7338  -14.4192 C   0  0  0  0  0  0  0  0  0  0  0  0
   24.3534   -8.8328  -15.3142 C   0  0  0  0  0  0  0  0  0  0  0  0
   23.9709   -7.5221  -15.3330 C   0  0  0  0  0  0  0  0  0  0  0  0
   20.8409   -4.0090  -15.0786 C   0  0  0  0  0  0  0  0  0  0  0  0
   20.9523   -3.2574  -16.0819 O   0  0  0  0  0  0  0  0  0  0  0  0
   20.3131   -3.4052  -13.9294 O   0  0  0  0  0  0  0  0  0  0  0  0
  2  1  1  1
  2  3  1  0
  3  4  1  0
  4  8  1  0
  5  4  2  0
  6  7  2  0
  6  2  1  0
  9  6  1  0
 10 11  1  0
 10  9  1  0
 11 13  1  0
 12 11  2  0
 13 14  1  0
 14 15  1  1
 14 22  1  0
 15 16  1  0
 16 21  2  0
 17 16  1  0
 17 18  2  0
 18 19  1  0
 19 20  2  0
 21 20  1  0
 22 23  2  0
 22 24  1  0
M  END
$$$$
