DGF.pdb
     RDKit          3D

 24 24  0  0  1  0  0  0  0  0999 V2000
   30.9880  -27.2146  -17.8712 N   0  0  0  0  0  0  0  0  0  0  0  0
   31.3946  -27.1741  -19.3057 C   0  0  1  0  0  0  0  0  0  0  0  0
   31.8672  -28.5672  -19.6523 C   0  0  0  0  0  0  0  0  0  0  0  0
   33.1049  -28.9148  -18.9667 C   0  0  0  0  0  0  0  0  0  0  0  0
   33.2239  -29.9607  -18.3088 O   0  0  0  0  0  0  0  0  0  0  0  0
   30.1662  -26.8116  -20.0565 C   0  0  0  0  0  0  0  0  0  0  0  0
   30.2519  -26.7113  -21.3348 O   0  0  0  0  0  0  0  0  0  0  0  0
   34.2444  -28.0941  -19.0022 O   0  0  0  0  0  0  0  0  0  0  0  0
   28.9423  -26.5852  -19.4300 N   0  0  0  0  0  0  0  0  0  0  0  0
   27.7375  -26.2913  -20.2083 C   0  0  0  0  0  0  0  0  0  0  0  0
   26.8177  -25.5308  -19.3284 C   0  0  0  0  0  0  0  0  0  0  0  0
   25.7009  -25.1604  -19.7086 O   0  0  0  0  0  0  0  0  0  0  0  0
   27.2367  -25.2244  -18.0185 N   0  0  0  0  0  0  0  0  0  0  0  0
   26.4428  -24.4848  -17.0547 C   0  0  1  0  0  0  0  0  0  0  0  0
   26.2975  -25.3773  -15.8519 C   0  0  0  0  0  0  0  0  0  0  0  0
   25.6085  -26.6391  -16.0824 C   0  0  0  0  0  0  0  0  0  0  0  0
   24.2091  -26.6241  -16.0460 C   0  0  0  0  0  0  0  0  0  0  0  0
   23.4717  -27.7671  -16.2535 C   0  0  0  0  0  0  0  0  0  0  0  0
   24.1439  -28.9429  -16.5012 C   0  0  0  0  0  0  0  0  0  0  0  0
   25.5295  -28.9677  -16.5392 C   0  0  0  0  0  0  0  0  0  0  0  0
   26.2663  -27.8366  -16.3340 C   0  0  0  0  0  0  0  0  0  0  0  0
   27.1748  -23.2247  -16.7693 C   0  0  0  0  0  0  0  0  0  0  0  0
   26.7090  -22.3258  -16.0215 O   0  0  0  0  0  0  0  0  0  0  0  0
   28.4363  -22.9577  -17.3180 O   0  0  0  0  0  0  0  0  0  0  0  0
  2  1  1  1
  2  3  1  0
  3  4  1  0
  4  8  1  0
  5  4  2  0
  6  7  2  0
  6  2  1  0
  9  6  1  0
 10 11  1  0
 10  9  1  0
 11 13  1  0
 12 11  2  0
 13 14  1  0
 14 15  1  1
 14 22  1  0
 15 16  1  0
 16 21  2  0
 17 16  1  0
 17 18  2  0
 18 19  1  0
 19 20  2  0
 21 20  1  0
 22 23  2  0
 22 24  1  0
M  END
$$$$
