DGF.pdb
     RDKit          3D

 24 24  0  0  1  0  0  0  0  0999 V2000
   18.6740  -11.2390  -17.7420 N   0  0  0  0  0  0  0  0  0  0  0  0
   20.0524  -11.2478  -17.1720 C   0  0  1  0  0  0  0  0  0  0  0  0
   20.8707  -12.1619  -18.0546 C   0  0  0  0  0  0  0  0  0  0  0  0
   20.5604  -13.5674  -17.8287 C   0  0  0  0  0  0  0  0  0  0  0  0
   20.0054  -13.9626  -16.7911 O   0  0  0  0  0  0  0  0  0  0  0  0
   20.5248   -9.8428  -17.2540 C   0  0  0  0  0  0  0  0  0  0  0  0
   21.6865   -9.5715  -16.7762 O   0  0  0  0  0  0  0  0  0  0  0  0
   20.8665  -14.5686  -18.7653 O   0  0  0  0  0  0  0  0  0  0  0  0
   19.7635   -8.8265  -17.8277 N   0  0  0  0  0  0  0  0  0  0  0  0
   20.2985   -7.4716  -17.9741 C   0  0  0  0  0  0  0  0  0  0  0  0
   20.2464   -6.8292  -16.6387 C   0  0  0  0  0  0  0  0  0  0  0  0
   19.3489   -7.0766  -15.8250 O   0  0  0  0  0  0  0  0  0  0  0  0
   21.2557   -5.9087  -16.2932 N   0  0  0  0  0  0  0  0  0  0  0  0
   21.3624   -5.2538  -15.0024 C   0  0  1  0  0  0  0  0  0  0  0  0
   22.7262   -5.5950  -14.4659 C   0  0  0  0  0  0  0  0  0  0  0  0
   22.9894   -7.0133  -14.2680 C   0  0  0  0  0  0  0  0  0  0  0  0
   23.8943   -7.6278  -15.1417 C   0  0  0  0  0  0  0  0  0  0  0  0
   24.2068   -8.9633  -15.0315 C   0  0  0  0  0  0  0  0  0  0  0  0
   23.6054   -9.6952  -14.0324 C   0  0  0  0  0  0  0  0  0  0  0  0
   22.7080   -9.0955  -13.1624 C   0  0  0  0  0  0  0  0  0  0  0  0
   22.3941   -7.7708  -13.2672 C   0  0  0  0  0  0  0  0  0  0  0  0
   21.1679   -3.8007  -15.2386 C   0  0  0  0  0  0  0  0  0  0  0  0
   21.1259   -3.3024  -16.3936 O   0  0  0  0  0  0  0  0  0  0  0  0
   21.0180   -2.8901  -14.1840 O   0  0  0  0  0  0  0  0  0  0  0  0
  2  1  1  6
  2  3  1  0
  3  4  1  0
  4  8  1  0
  5  4  2  0
  6  7  2  0
  6  2  1  0
  9  6  1  0
 10 11  1  0
 10  9  1  0
 11 13  1  0
 12 11  2  0
 13 14  1  0
 14 15  1  6
 14 22  1  0
 15 16  1  0
 16 21  2  0
 17 16  1  0
 17 18  2  0
 18 19  1  0
 19 20  2  0
 21 20  1  0
 22 23  2  0
 22 24  1  0
M  END
$$$$
