DGF.pdb
     RDKit          3D

 24 24  0  0  1  0  0  0  0  0999 V2000
   19.5035  -11.7608  -18.0821 N   0  0  0  0  0  0  0  0  0  0  0  0
   20.9779  -11.6594  -18.2840 C   0  0  1  0  0  0  0  0  0  0  0  0
   21.2484  -12.1477  -19.6885 C   0  0  0  0  0  0  0  0  0  0  0  0
   21.3467  -13.5998  -19.7567 C   0  0  0  0  0  0  0  0  0  0  0  0
   20.6960  -14.3418  -19.0038 O   0  0  0  0  0  0  0  0  0  0  0  0
   21.3007  -10.2180  -18.1354 C   0  0  0  0  0  0  0  0  0  0  0  0
   22.4892   -9.9050  -17.7601 O   0  0  0  0  0  0  0  0  0  0  0  0
   22.1812  -14.2582  -20.6751 O   0  0  0  0  0  0  0  0  0  0  0  0
   20.3730   -9.2102  -18.3906 N   0  0  0  0  0  0  0  0  0  0  0  0
   20.7643   -7.7995  -18.3706 C   0  0  0  0  0  0  0  0  0  0  0  0
   20.6908   -7.3404  -16.9626 C   0  0  0  0  0  0  0  0  0  0  0  0
   19.6634   -7.4603  -16.2850 O   0  0  0  0  0  0  0  0  0  0  0  0
   21.8324   -6.7497  -16.3852 N   0  0  0  0  0  0  0  0  0  0  0  0
   21.8949   -6.2391  -15.0282 C   0  0  1  0  0  0  0  0  0  0  0  0
   22.4365   -7.3575  -14.1796 C   0  0  0  0  0  0  0  0  0  0  0  0
   23.5316   -8.1189  -14.7635 C   0  0  0  0  0  0  0  0  0  0  0  0
   24.4317   -7.4267  -15.5825 C   0  0  0  0  0  0  0  0  0  0  0  0
   25.4981   -8.0614  -16.1768 C   0  0  0  0  0  0  0  0  0  0  0  0
   25.6670   -9.4086  -15.9487 C   0  0  0  0  0  0  0  0  0  0  0  0
   24.7810  -10.1026  -15.1393 C   0  0  0  0  0  0  0  0  0  0  0  0
   23.7210   -9.4780  -14.5470 C   0  0  0  0  0  0  0  0  0  0  0  0
   22.7734   -5.0423  -15.0577 C   0  0  0  0  0  0  0  0  0  0  0  0
   23.3633   -4.6612  -16.1021 O   0  0  0  0  0  0  0  0  0  0  0  0
   23.0004   -4.2591  -13.9180 O   0  0  0  0  0  0  0  0  0  0  0  0
  2  1  1  6
  2  3  1  0
  3  4  1  0
  4  8  1  0
  5  4  2  0
  6  7  2  0
  6  2  1  0
  9  6  1  0
 10 11  1  0
 10  9  1  0
 11 13  1  0
 12 11  2  0
 13 14  1  0
 14 15  1  1
 14 22  1  0
 15 16  1  0
 16 21  2  0
 17 16  1  0
 17 18  2  0
 18 19  1  0
 19 20  2  0
 21 20  1  0
 22 23  2  0
 22 24  1  0
M  END
$$$$
