MLA.pdb
     RDKit          3D

 22 21  0  0  1  0  0  0  0  0999 V2000
    8.3227  -11.6071   19.4429 C   0  0  0  0  0  0  0  0  0  0  0  0
    7.4451  -13.0221   18.7455 S   0  0  0  0  0  0  0  0  0  0  0  0
    7.7441  -14.5147   19.7112 C   0  0  0  0  0  0  0  0  0  0  0  0
    8.2202  -14.1096   21.0895 C   0  0  0  0  0  0  0  0  0  0  0  0
    8.4846  -15.3891   21.8844 C   0  0  2  0  0  0  0  0  0  0  0  0
    7.2399  -16.1051   21.9486 N   0  0  0  0  0  0  0  0  0  0  0  0
    8.9507  -15.0467   23.2487 C   0  0  0  0  0  0  0  0  0  0  0  0
   10.0818  -14.5123   23.3992 O   0  0  0  0  0  0  0  0  0  0  0  0
    7.8684  -12.0606   26.1948 C   0  0  0  0  0  0  0  0  0  0  0  0
    6.7946  -13.1160   25.8430 C   0  0  2  0  0  0  0  0  0  0  0  0
    5.5173  -12.6595   26.4951 C   0  0  0  0  0  0  0  0  0  0  0  0
    7.3091  -14.4031   26.3701 C   0  0  0  0  0  0  0  0  0  0  0  0
    8.5240  -14.9748   25.7169 C   0  0  2  0  0  0  0  0  0  0  0  0
    8.1067  -15.3326   24.3416 N   0  0  0  0  0  0  0  0  0  0  0  0
    9.0339  -16.2270   26.3032 C   0  0  0  0  0  0  0  0  0  0  0  0
    9.2515  -16.3450   27.5657 O   0  0  0  0  0  0  0  0  0  0  0  0
    9.7228  -19.7184   25.1684 C   0  0  0  0  0  0  0  0  0  0  0  0
    9.9125  -18.5889   26.1912 C   0  0  2  0  0  0  0  0  0  0  0  0
    9.3317  -17.4121   25.5716 N   0  0  0  0  0  0  0  0  0  0  0  0
   11.3545  -18.3888   26.4908 C   0  0  0  0  0  0  0  0  0  0  0  0
   12.0324  -17.5094   25.8977 O   0  0  0  0  0  0  0  0  0  0  0  0
   12.0265  -19.1537   27.4327 O   0  0  0  0  0  0  0  0  0  0  0  0
  1  2  1  0
  2  3  1  0
  3  4  1  0
  4  5  1  0
  5  6  1  1
  7  5  1  0
  7  8  2  0
 10  9  1  1
 10 12  1  0
 10 11  1  0
 13 12  1  1
 13 14  1  0
 13 15  1  0
 14  7  1  0
 15 16  2  0
 15 19  1  0
 18 17  1  6
 18 20  1  0
 19 18  1  0
 20 21  2  0
 20 22  1  0
M  END
$$$$
