MLA.pdb
     RDKit          3D

 22 21  0  0  1  0  0  0  0  0999 V2000
    6.2225  -20.8456   24.7827 C   0  0  0  0  0  0  0  0  0  0  0  0
    6.6079  -21.1209   23.0408 S   0  0  0  0  0  0  0  0  0  0  0  0
    6.7493  -19.5599   22.1502 C   0  0  0  0  0  0  0  0  0  0  0  0
    7.3805  -18.5363   23.0690 C   0  0  0  0  0  0  0  0  0  0  0  0
    7.4056  -17.1991   22.3272 C   0  0  2  0  0  0  0  0  0  0  0  0
    8.1786  -17.3994   21.1321 N   0  0  0  0  0  0  0  0  0  0  0  0
    8.0362  -16.1631   23.1787 C   0  0  0  0  0  0  0  0  0  0  0  0
    9.2446  -15.8599   22.9902 O   0  0  0  0  0  0  0  0  0  0  0  0
    5.7514  -12.0412   27.0173 C   0  0  0  0  0  0  0  0  0  0  0  0
    7.1000  -12.5814   26.4878 C   0  0  2  0  0  0  0  0  0  0  0  0
    7.7794  -11.4300   25.7965 C   0  0  0  0  0  0  0  0  0  0  0  0
    6.7549  -13.7039   25.5822 C   0  0  0  0  0  0  0  0  0  0  0  0
    7.8745  -14.5690   25.1053 C   0  0  2  0  0  0  0  0  0  0  0  0
    7.2573  -15.5463   24.1793 N   0  0  0  0  0  0  0  0  0  0  0  0
    8.5369  -15.3831   26.1399 C   0  0  0  0  0  0  0  0  0  0  0  0
    9.1956  -14.8465   27.1060 O   0  0  0  0  0  0  0  0  0  0  0  0
    8.1807  -18.7859   27.4584 C   0  0  0  0  0  0  0  0  0  0  0  0
    9.0812  -17.5513   27.3085 C   0  0  2  0  0  0  0  0  0  0  0  0
    8.5244  -16.8062   26.1946 N   0  0  0  0  0  0  0  0  0  0  0  0
   10.4866  -17.9557   27.0425 C   0  0  0  0  0  0  0  0  0  0  0  0
   11.0540  -17.6803   25.9531 O   0  0  0  0  0  0  0  0  0  0  0  0
   11.2434  -18.6529   27.9725 O   0  0  0  0  0  0  0  0  0  0  0  0
  1  2  1  0
  2  3  1  0
  3  4  1  0
  4  5  1  0
  5  6  1  6
  7  5  1  0
  7  8  2  0
 10  9  1  6
 10 12  1  0
 10 11  1  0
 13 12  1  1
 13 14  1  0
 13 15  1  0
 14  7  1  0
 15 16  2  0
 15 19  1  0
 18 17  1  6
 18 20  1  0
 19 18  1  0
 20 21  2  0
 20 22  1  0
M  END
$$$$
