MLA.pdb
     RDKit          3D

 22 21  0  0  1  0  0  0  0  0999 V2000
    9.9766  -14.0413   29.7029 C   0  0  0  0  0  0  0  0  0  0  0  0
   11.3351  -15.2248   29.5906 S   0  0  0  0  0  0  0  0  0  0  0  0
   10.7568  -16.8259   28.9971 C   0  0  0  0  0  0  0  0  0  0  0  0
    9.3876  -16.6446   28.3784 C   0  0  0  0  0  0  0  0  0  0  0  0
    9.4619  -17.1385   26.9329 C   0  0  2  0  0  0  0  0  0  0  0  0
   10.7122  -16.6742   26.3971 N   0  0  0  0  0  0  0  0  0  0  0  0
    8.3312  -16.5830   26.1526 C   0  0  0  0  0  0  0  0  0  0  0  0
    7.1687  -17.0287   26.3464 O   0  0  0  0  0  0  0  0  0  0  0  0
    5.9356  -13.5147   26.4909 C   0  0  0  0  0  0  0  0  0  0  0  0
    7.3563  -13.2222   25.9554 C   0  0  2  0  0  0  0  0  0  0  0  0
    7.5820  -11.7442   26.1284 C   0  0  0  0  0  0  0  0  0  0  0  0
    7.3508  -13.6653   24.5402 C   0  0  0  0  0  0  0  0  0  0  0  0
    7.5352  -15.1235   24.2776 C   0  0  2  0  0  0  0  0  0  0  0  0
    8.5957  -15.5664   25.2119 N   0  0  0  0  0  0  0  0  0  0  0  0
    8.0336  -15.4720   22.9353 C   0  0  0  0  0  0  0  0  0  0  0  0
    7.3196  -15.2944   21.8799 O   0  0  0  0  0  0  0  0  0  0  0  0
   10.8161  -15.4101   20.9198 C   0  0  0  0  0  0  0  0  0  0  0  0
    9.7260  -16.4148   21.3196 C   0  0  2  0  0  0  0  0  0  0  0  0
    9.3172  -16.0222   22.6556 N   0  0  0  0  0  0  0  0  0  0  0  0
   10.2585  -17.8023   21.3008 C   0  0  0  0  0  0  0  0  0  0  0  0
   10.3180  -18.4970   22.3489 O   0  0  0  0  0  0  0  0  0  0  0  0
   10.7153  -18.4027   20.1369 O   0  0  0  0  0  0  0  0  0  0  0  0
  1  2  1  0
  2  3  1  0
  3  4  1  0
  4  5  1  0
  5  6  1  6
  7  5  1  0
  7  8  2  0
 10  9  1  6
 10 12  1  0
 10 11  1  0
 13 12  1  6
 13 14  1  0
 13 15  1  0
 14  7  1  0
 15 16  2  0
 15 19  1  0
 18 17  1  1
 18 20  1  0
 19 18  1  0
 20 21  2  0
 20 22  1  0
M  END
$$$$
