MLA.pdb
     RDKit          3D

 22 21  0  0  1  0  0  0  0  0999 V2000
    8.0889  -11.3282   19.5415 C   0  0  0  0  0  0  0  0  0  0  0  0
    7.7897  -12.8705   18.6523 S   0  0  0  0  0  0  0  0  0  0  0  0
    7.5255  -14.2402   19.7942 C   0  0  0  0  0  0  0  0  0  0  0  0
    8.1567  -13.8877   21.1238 C   0  0  0  0  0  0  0  0  0  0  0  0
    8.5376  -15.1958   21.8186 C   0  0  2  0  0  0  0  0  0  0  0  0
    7.3373  -15.9804   21.9178 N   0  0  0  0  0  0  0  0  0  0  0  0
    9.0769  -14.9099   23.1689 C   0  0  0  0  0  0  0  0  0  0  0  0
   10.2174  -14.3861   23.2805 O   0  0  0  0  0  0  0  0  0  0  0  0
    8.0701  -12.0212   26.0847 C   0  0  0  0  0  0  0  0  0  0  0  0
    6.9986  -13.1141   25.8659 C   0  0  2  0  0  0  0  0  0  0  0  0
    5.7730  -12.6669   26.6163 C   0  0  0  0  0  0  0  0  0  0  0  0
    7.5937  -14.3692   26.3852 C   0  0  0  0  0  0  0  0  0  0  0  0
    8.7743  -14.9210   25.6564 C   0  0  2  0  0  0  0  0  0  0  0  0
    8.2900  -15.2361   24.2927 N   0  0  0  0  0  0  0  0  0  0  0  0
    9.3099  -16.1908   26.1784 C   0  0  0  0  0  0  0  0  0  0  0  0
    9.5679  -16.3549   27.4281 O   0  0  0  0  0  0  0  0  0  0  0  0
    9.5402  -19.6977   25.0803 C   0  0  0  0  0  0  0  0  0  0  0  0
   10.1006  -18.5769   25.9677 C   0  0  2  0  0  0  0  0  0  0  0  0
    9.5914  -17.3453   25.3933 N   0  0  0  0  0  0  0  0  0  0  0  0
   11.5868  -18.6015   25.9684 C   0  0  0  0  0  0  0  0  0  0  0  0
   12.2575  -17.7729   25.2990 O   0  0  0  0  0  0  0  0  0  0  0  0
   12.3099  -19.5312   26.7010 O   0  0  0  0  0  0  0  0  0  0  0  0
  1  2  1  0
  2  3  1  0
  3  4  1  0
  4  5  1  0
  5  6  1  1
  7  5  1  0
  7  8  2  0
 10  9  1  1
 10 12  1  0
 10 11  1  0
 13 12  1  1
 13 14  1  0
 13 15  1  0
 14  7  1  0
 15 16  2  0
 15 19  1  0
 18 17  1  6
 18 20  1  0
 19 18  1  0
 20 21  2  0
 20 22  1  0
M  END
$$$$
