MLA.pdb
     RDKit          3D

 22 21  0  0  1  0  0  0  0  0999 V2000
    7.2548  -11.4608   26.7674 C   0  0  0  0  0  0  0  0  0  0  0  0
    7.4680  -13.0097   27.6699 S   0  0  0  0  0  0  0  0  0  0  0  0
    6.6694  -14.3791   26.8116 C   0  0  0  0  0  0  0  0  0  0  0  0
    7.5407  -14.7901   25.6444 C   0  0  0  0  0  0  0  0  0  0  0  0
    6.7853  -15.8601   24.8549 C   0  0  2  0  0  0  0  0  0  0  0  0
    6.6940  -17.0174   25.7025 N   0  0  0  0  0  0  0  0  0  0  0  0
    7.5280  -16.1891   23.6155 C   0  0  0  0  0  0  0  0  0  0  0  0
    7.6164  -17.3914   23.2489 O   0  0  0  0  0  0  0  0  0  0  0  0
    6.7665  -14.3542   19.6511 C   0  0  0  0  0  0  0  0  0  0  0  0
    7.5413  -13.4647   20.6507 C   0  0  2  0  0  0  0  0  0  0  0  0
    7.6557  -12.1059   20.0136 C   0  0  0  0  0  0  0  0  0  0  0  0
    8.8453  -14.1390   20.8608 C   0  0  0  0  0  0  0  0  0  0  0  0
    8.8379  -15.4241   21.6209 C   0  0  2  0  0  0  0  0  0  0  0  0
    8.1156  -15.1380   22.8819 N   0  0  0  0  0  0  0  0  0  0  0  0
   10.1591  -15.9259   22.0386 C   0  0  0  0  0  0  0  0  0  0  0  0
   11.0319  -16.3298   21.1841 O   0  0  0  0  0  0  0  0  0  0  0  0
   12.6167  -15.4231   24.5103 C   0  0  0  0  0  0  0  0  0  0  0  0
   11.9149  -16.5500   23.7388 C   0  0  2  0  0  0  0  0  0  0  0  0
   10.6123  -16.0165   23.3858 N   0  0  0  0  0  0  0  0  0  0  0  0
   11.7922  -17.7670   24.5833 C   0  0  0  0  0  0  0  0  0  0  0  0
   12.8080  -18.3615   25.0297 O   0  0  0  0  0  0  0  0  0  0  0  0
   10.5617  -18.3096   24.9228 O   0  0  0  0  0  0  0  0  0  0  0  0
  1  2  1  0
  2  3  1  0
  3  4  1  0
  4  5  1  0
  5  6  1  1
  7  5  1  0
  7  8  2  0
 10  9  1  6
 10 12  1  0
 10 11  1  0
 13 12  1  6
 13 14  1  0
 13 15  1  0
 14  7  1  0
 15 16  2  0
 15 19  1  0
 18 17  1  1
 18 20  1  0
 19 18  1  0
 20 21  2  0
 20 22  1  0
M  END
$$$$
