MLA.pdb
     RDKit          3D

 22 21  0  0  1  0  0  0  0  0999 V2000
   10.3307  -16.5643   17.4309 C   0  0  0  0  0  0  0  0  0  0  0  0
    8.7110  -17.3185   17.6890 S   0  0  0  0  0  0  0  0  0  0  0  0
    8.4761  -17.7826   19.4151 C   0  0  0  0  0  0  0  0  0  0  0  0
    8.8964  -16.6202   20.2882 C   0  0  0  0  0  0  0  0  0  0  0  0
    8.8706  -17.0972   21.7410 C   0  0  2  0  0  0  0  0  0  0  0  0
    7.5450  -17.5920   21.9941 N   0  0  0  0  0  0  0  0  0  0  0  0
    9.1779  -15.9661   22.6476 C   0  0  0  0  0  0  0  0  0  0  0  0
   10.3170  -15.4295   22.6020 O   0  0  0  0  0  0  0  0  0  0  0  0
    5.6854  -12.7277   26.4654 C   0  0  0  0  0  0  0  0  0  0  0  0
    7.1644  -12.9231   26.0593 C   0  0  2  0  0  0  0  0  0  0  0  0
    7.6505  -11.5886   25.5612 C   0  0  0  0  0  0  0  0  0  0  0  0
    7.1591  -13.9833   25.0224 C   0  0  0  0  0  0  0  0  0  0  0  0
    8.4831  -14.4752   24.5381 C   0  0  2  0  0  0  0  0  0  0  0  0
    8.1778  -15.5242   23.5382 N   0  0  0  0  0  0  0  0  0  0  0  0
    9.3255  -15.1390   25.5488 C   0  0  0  0  0  0  0  0  0  0  0  0
   10.3617  -14.5649   26.0508 O   0  0  0  0  0  0  0  0  0  0  0  0
    8.9249  -17.5426   28.1704 C   0  0  0  0  0  0  0  0  0  0  0  0
    9.9196  -17.0159   27.1260 C   0  0  2  0  0  0  0  0  0  0  0  0
    9.1002  -16.4437   26.0737 N   0  0  0  0  0  0  0  0  0  0  0  0
   10.7725  -18.1187   26.6105 C   0  0  0  0  0  0  0  0  0  0  0  0
   10.7052  -18.4951   25.4112 O   0  0  0  0  0  0  0  0  0  0  0  0
   11.6819  -18.7877   27.4163 O   0  0  0  0  0  0  0  0  0  0  0  0
  1  2  1  0
  2  3  1  0
  3  4  1  0
  4  5  1  0
  5  6  1  1
  7  5  1  0
  7  8  2  0
 10  9  1  6
 10 12  1  0
 10 11  1  0
 13 12  1  1
 13 14  1  0
 13 15  1  0
 14  7  1  0
 15 16  2  0
 15 19  1  0
 18 17  1  1
 18 20  1  0
 19 18  1  0
 20 21  2  0
 20 22  1  0
M  END
$$$$
