MLA.pdb
     RDKit          3D

 22 21  0  0  1  0  0  0  0  0999 V2000
    4.6065  -19.1328   22.0084 C   0  0  0  0  0  0  0  0  0  0  0  0
    6.0018  -18.3782   22.8701 S   0  0  0  0  0  0  0  0  0  0  0  0
    7.5238  -18.5478   21.9190 C   0  0  0  0  0  0  0  0  0  0  0  0
    8.6276  -17.8040   22.6392 C   0  0  0  0  0  0  0  0  0  0  0  0
    8.3631  -16.3067   22.4745 C   0  0  2  0  0  0  0  0  0  0  0  0
    9.1090  -15.8754   21.3240 N   0  0  0  0  0  0  0  0  0  0  0  0
    8.8176  -15.5794   23.6829 C   0  0  0  0  0  0  0  0  0  0  0  0
   10.0082  -15.1723   23.7478 O   0  0  0  0  0  0  0  0  0  0  0  0
    7.8287  -11.7697   25.8141 C   0  0  0  0  0  0  0  0  0  0  0  0
    6.6870  -12.8079   25.7177 C   0  0  2  0  0  0  0  0  0  0  0  0
    5.4584  -12.1452   26.2803 C   0  0  0  0  0  0  0  0  0  0  0  0
    7.1451  -13.9819   26.4995 C   0  0  0  0  0  0  0  0  0  0  0  0
    8.3359  -14.7237   25.9883 C   0  0  2  0  0  0  0  0  0  0  0  0
    7.8957  -15.3655   24.7283 N   0  0  0  0  0  0  0  0  0  0  0  0
    8.8120  -15.8292   26.8385 C   0  0  0  0  0  0  0  0  0  0  0  0
    9.2124  -15.6325   28.0452 O   0  0  0  0  0  0  0  0  0  0  0  0
    9.0200  -19.5547   26.6683 C   0  0  0  0  0  0  0  0  0  0  0  0
    9.4834  -18.2216   27.2733 C   0  0  2  0  0  0  0  0  0  0  0  0
    8.8796  -17.1958   26.4430 N   0  0  0  0  0  0  0  0  0  0  0  0
   10.9666  -18.1267   27.2604 C   0  0  0  0  0  0  0  0  0  0  0  0
   11.5672  -17.3354   26.4871 O   0  0  0  0  0  0  0  0  0  0  0  0
   11.7636  -18.8984   28.0929 O   0  0  0  0  0  0  0  0  0  0  0  0
  1  2  1  0
  2  3  1  0
  3  4  1  0
  4  5  1  0
  5  6  1  6
  7  5  1  0
  7  8  2  0
 10  9  1  1
 10 12  1  0
 10 11  1  0
 13 12  1  1
 13 14  1  0
 13 15  1  0
 14  7  1  0
 15 16  2  0
 15 19  1  0
 18 17  1  6
 18 20  1  0
 19 18  1  0
 20 21  2  0
 20 22  1  0
M  END
$$$$
