MLA.pdb
     RDKit          3D

 22 21  0  0  1  0  0  0  0  0999 V2000
    8.1802  -11.5618   18.9268 C   0  0  0  0  0  0  0  0  0  0  0  0
    7.5693  -12.9441   17.9394 S   0  0  0  0  0  0  0  0  0  0  0  0
    7.8167  -14.5132   18.7919 C   0  0  0  0  0  0  0  0  0  0  0  0
    8.1207  -14.2284   20.2468 C   0  0  0  0  0  0  0  0  0  0  0  0
    8.3227  -15.5711   20.9506 C   0  0  2  0  0  0  0  0  0  0  0  0
    7.0404  -16.2194   20.9884 N   0  0  0  0  0  0  0  0  0  0  0  0
    8.8254  -15.3475   22.3265 C   0  0  0  0  0  0  0  0  0  0  0  0
   10.0672  -15.2731   22.5262 O   0  0  0  0  0  0  0  0  0  0  0  0
    5.9727  -12.9401   27.0754 C   0  0  0  0  0  0  0  0  0  0  0  0
    7.3599  -13.4901   26.6702 C   0  0  2  0  0  0  0  0  0  0  0  0
    8.3184  -12.3324   26.7507 C   0  0  0  0  0  0  0  0  0  0  0  0
    7.1917  -14.0339   25.3009 C   0  0  0  0  0  0  0  0  0  0  0  0
    8.3352  -14.8000   24.7222 C   0  0  2  0  0  0  0  0  0  0  0  0
    7.8903  -15.2243   23.3748 N   0  0  0  0  0  0  0  0  0  0  0  0
    8.6868  -16.0477   25.4231 C   0  0  0  0  0  0  0  0  0  0  0  0
    7.8102  -16.9561   25.6711 O   0  0  0  0  0  0  0  0  0  0  0  0
   11.5430  -18.1813   25.9031 C   0  0  0  0  0  0  0  0  0  0  0  0
   10.2758  -17.6327   26.5747 C   0  0  2  0  0  0  0  0  0  0  0  0
    9.9897  -16.3864   25.8884 N   0  0  0  0  0  0  0  0  0  0  0  0
   10.5047  -17.4124   28.0267 C   0  0  0  0  0  0  0  0  0  0  0  0
   10.5977  -16.2530   28.5082 O   0  0  0  0  0  0  0  0  0  0  0  0
   10.6272  -18.4636   28.9232 O   0  0  0  0  0  0  0  0  0  0  0  0
  1  2  1  0
  2  3  1  0
  3  4  1  0
  4  5  1  0
  5  6  1  1
  7  5  1  0
  7  8  2  0
 10  9  1  6
 10 12  1  0
 10 11  1  0
 13 12  1  1
 13 14  1  0
 13 15  1  0
 14  7  1  0
 15 16  2  0
 15 19  1  0
 18 17  1  6
 18 20  1  0
 19 18  1  0
 20 21  2  0
 20 22  1  0
M  END
$$$$
