MLA.pdb
     RDKit          3D

 22 21  0  0  1  0  0  0  0  0999 V2000
    8.0321  -18.3550   19.4665 C   0  0  0  0  0  0  0  0  0  0  0  0
    6.9075  -17.3587   18.4657 S   0  0  0  0  0  0  0  0  0  0  0  0
    6.7886  -15.6754   19.0998 C   0  0  0  0  0  0  0  0  0  0  0  0
    7.7045  -15.5458   20.2976 C   0  0  0  0  0  0  0  0  0  0  0  0
    7.4356  -14.1857   20.9431 C   0  0  2  0  0  0  0  0  0  0  0  0
    7.9294  -13.1876   20.0342 N   0  0  0  0  0  0  0  0  0  0  0  0
    8.1462  -14.0950   22.2402 C   0  0  0  0  0  0  0  0  0  0  0  0
    9.3835  -13.8570   22.2517 O   0  0  0  0  0  0  0  0  0  0  0  0
    8.0662  -11.6904   26.1566 C   0  0  0  0  0  0  0  0  0  0  0  0
    6.7643  -12.4200   25.7526 C   0  0  2  0  0  0  0  0  0  0  0  0
    5.7290  -12.0461   26.7790 C   0  0  0  0  0  0  0  0  0  0  0  0
    7.1008  -13.8642   25.7404 C   0  0  0  0  0  0  0  0  0  0  0  0
    8.1035  -14.3261   24.7351 C   0  0  2  0  0  0  0  0  0  0  0  0
    7.4087  -14.2795   23.4279 N   0  0  0  0  0  0  0  0  0  0  0  0
    8.5575  -15.7205   24.8810 C   0  0  0  0  0  0  0  0  0  0  0  0
    7.7282  -16.7035   24.9139 O   0  0  0  0  0  0  0  0  0  0  0  0
   11.6015  -17.6958   24.4048 C   0  0  0  0  0  0  0  0  0  0  0  0
   10.3004  -17.5160   25.2000 C   0  0  2  0  0  0  0  0  0  0  0  0
    9.9164  -16.1316   24.9948 N   0  0  0  0  0  0  0  0  0  0  0  0
   10.5204  -17.8104   26.6402 C   0  0  0  0  0  0  0  0  0  0  0  0
   10.9429  -18.9324   27.0239 O   0  0  0  0  0  0  0  0  0  0  0  0
   10.2743  -16.8725   27.6320 O   0  0  0  0  0  0  0  0  0  0  0  0
  1  2  1  0
  2  3  1  0
  3  4  1  0
  4  5  1  0
  5  6  1  6
  7  5  1  0
  7  8  2  0
 10  9  1  1
 10 12  1  0
 10 11  1  0
 13 12  1  1
 13 14  1  0
 13 15  1  0
 14  7  1  0
 15 16  2  0
 15 19  1  0
 18 17  1  6
 18 20  1  0
 19 18  1  0
 20 21  2  0
 20 22  1  0
M  END
$$$$
