HVG.pdb
     RDKit          3D

 22 22  0  0  1  0  0  0  0  0999 V2000
    9.8429  -16.1564   15.3473 N   0  0  0  0  0  0  0  0  0  0  0  0
    9.2305  -16.7085   16.5210 C   0  0  1  0  0  0  0  0  0  0  0  0
    9.6654  -18.1350   16.7517 C   0  0  0  0  0  0  0  0  0  0  0  0
    9.1333  -18.9558   15.6338 C   0  0  0  0  0  0  0  0  0  0  0  0
    8.1481  -18.5528   14.7319 C   0  0  0  0  0  0  0  0  0  0  0  0
    7.9117  -19.5413   13.8565 N   0  0  0  0  0  0  0  0  0  0  0  0
    8.7193  -20.5524   14.1823 C   0  0  0  0  0  0  0  0  0  0  0  0
    9.4649  -20.2045   15.2614 N   0  0  0  0  0  0  0  0  0  0  0  0
    9.4953  -15.8350   17.6727 C   0  0  0  0  0  0  0  0  0  0  0  0
   10.6650  -15.4331   17.8665 O   0  0  0  0  0  0  0  0  0  0  0  0
    7.6382  -12.6782   18.8593 C   0  0  0  0  0  0  0  0  0  0  0  0
    7.7160  -13.6862   20.0217 C   0  0  2  0  0  0  0  0  0  0  0  0
    7.7956  -12.8716   21.2527 C   0  0  0  0  0  0  0  0  0  0  0  0
    8.8613  -14.6324   19.7651 C   0  0  2  0  0  0  0  0  0  0  0  0
    8.4886  -15.4234   18.5783 N   0  0  0  0  0  0  0  0  0  0  0  0
    9.1804  -15.5297   20.8886 C   0  0  0  0  0  0  0  0  0  0  0  0
    8.3189  -16.4109   21.2295 O   0  0  0  0  0  0  0  0  0  0  0  0
   10.3773  -15.5121   21.6451 N   0  0  0  0  0  0  0  0  0  0  0  0
   10.5497  -16.4740   22.7236 C   0  0  0  0  0  0  0  0  0  0  0  0
   11.8354  -16.3097   23.4211 C   0  0  0  0  0  0  0  0  0  0  0  0
   12.7198  -15.5864   22.8963 O   0  0  0  0  0  0  0  0  0  0  0  0
   12.1405  -16.9051   24.6312 O   0  0  0  0  0  0  0  0  0  0  0  0
  2  1  1  6
  2  3  1  0
  3  4  1  0
  4  5  2  0
  4  8  1  0
  5  6  1  0
  6  7  1  0
  8  7  2  0
  9  2  1  0
  9 15  1  0
 10  9  2  0
 12 11  1  6
 12 14  1  0
 13 12  1  0
 14 15  1  6
 14 16  1  0
 16 18  1  0
 17 16  2  0
 18 19  1  0
 20 22  1  0
 20 19  1  0
 21 20  2  0
M  END
$$$$
