HVG.pdb
     RDKit          3D

 22 22  0  0  1  0  0  0  0  0999 V2000
    6.5314  -18.0383   25.9648 N   0  0  0  0  0  0  0  0  0  0  0  0
    6.8454  -16.6667   25.6870 C   0  0  1  0  0  0  0  0  0  0  0  0
    7.5482  -16.0142   26.8522 C   0  0  0  0  0  0  0  0  0  0  0  0
    7.1106  -14.5956   26.9067 C   0  0  0  0  0  0  0  0  0  0  0  0
    6.1397  -14.0166   26.0891 C   0  0  0  0  0  0  0  0  0  0  0  0
    5.9975  -12.7223   26.4113 N   0  0  0  0  0  0  0  0  0  0  0  0
    6.8503  -12.4720   27.4067 C   0  0  0  0  0  0  0  0  0  0  0  0
    7.5305  -13.6054   27.7136 N   0  0  0  0  0  0  0  0  0  0  0  0
    7.6097  -16.5796   24.4349 C   0  0  0  0  0  0  0  0  0  0  0  0
    8.3220  -17.5518   24.0960 O   0  0  0  0  0  0  0  0  0  0  0  0
    6.2940  -14.6372   21.1978 C   0  0  0  0  0  0  0  0  0  0  0  0
    7.7812  -14.3495   21.4776 C   0  0  2  0  0  0  0  0  0  0  0  0
    8.4062  -14.1508   20.1528 C   0  0  0  0  0  0  0  0  0  0  0  0
    8.3385  -15.4654   22.3245 C   0  0  2  0  0  0  0  0  0  0  0  0
    7.5806  -15.4456   23.5886 N   0  0  0  0  0  0  0  0  0  0  0  0
    9.7817  -15.3651   22.6007 C   0  0  0  0  0  0  0  0  0  0  0  0
   10.1753  -14.5464   23.5006 O   0  0  0  0  0  0  0  0  0  0  0  0
   10.7999  -16.1055   21.9525 N   0  0  0  0  0  0  0  0  0  0  0  0
   12.1891  -15.7116   22.1338 C   0  0  0  0  0  0  0  0  0  0  0  0
   12.9227  -16.6336   23.0159 C   0  0  0  0  0  0  0  0  0  0  0  0
   12.2868  -17.5507   23.5951 O   0  0  0  0  0  0  0  0  0  0  0  0
   14.2827  -16.5584   23.2542 O   0  0  0  0  0  0  0  0  0  0  0  0
  2  1  1  1
  2  3  1  0
  3  4  1  0
  4  5  2  0
  4  8  1  0
  5  6  1  0
  6  7  1  0
  8  7  2  0
  9  2  1  0
  9 15  1  0
 10  9  2  0
 12 11  1  6
 12 14  1  0
 13 12  1  0
 14 15  1  1
 14 16  1  0
 16 18  1  0
 17 16  2  0
 18 19  1  0
 20 22  1  0
 20 19  1  0
 21 20  2  0
M  END
$$$$
