HVG.pdb
     RDKit          3D

 22 22  0  0  1  0  0  0  0  0999 V2000
    8.0841  -15.9604   21.9116 N   0  0  0  0  0  0  0  0  0  0  0  0
    7.4738  -16.0849   23.2035 C   0  0  1  0  0  0  0  0  0  0  0  0
    7.4189  -17.5248   23.6518 C   0  0  0  0  0  0  0  0  0  0  0  0
    6.6195  -18.2789   22.6523 C   0  0  0  0  0  0  0  0  0  0  0  0
    5.6229  -17.7384   21.8394 C   0  0  0  0  0  0  0  0  0  0  0  0
    5.1110  -18.7017   21.0588 N   0  0  0  0  0  0  0  0  0  0  0  0
    5.7568  -19.8304   21.3578 C   0  0  0  0  0  0  0  0  0  0  0  0
    6.6752  -19.5819   22.3253 N   0  0  0  0  0  0  0  0  0  0  0  0
    8.1658  -15.2121   24.1620 C   0  0  0  0  0  0  0  0  0  0  0  0
    9.4061  -15.0739   24.0630 O   0  0  0  0  0  0  0  0  0  0  0  0
    6.1071  -12.8408   27.0250 C   0  0  0  0  0  0  0  0  0  0  0  0
    7.3876  -12.3980   26.2920 C   0  0  2  0  0  0  0  0  0  0  0  0
    6.9290  -11.6840   25.0816 C   0  0  0  0  0  0  0  0  0  0  0  0
    8.2604  -13.6072   26.0703 C   0  0  2  0  0  0  0  0  0  0  0  0
    7.4965  -14.5162   25.1969 N   0  0  0  0  0  0  0  0  0  0  0  0
    8.6609  -14.3097   27.3014 C   0  0  0  0  0  0  0  0  0  0  0  0
    7.9423  -14.1635   28.3487 O   0  0  0  0  0  0  0  0  0  0  0  0
    9.7904  -15.1523   27.4408 N   0  0  0  0  0  0  0  0  0  0  0  0
   10.0155  -15.8340   28.7068 C   0  0  0  0  0  0  0  0  0  0  0  0
   11.2071  -16.6975   28.6744 C   0  0  0  0  0  0  0  0  0  0  0  0
   11.8972  -16.7363   27.6242 O   0  0  0  0  0  0  0  0  0  0  0  0
   11.6245  -17.4797   29.7355 O   0  0  0  0  0  0  0  0  0  0  0  0
  2  1  1  6
  2  3  1  0
  3  4  1  0
  4  5  2  0
  4  8  1  0
  5  6  1  0
  6  7  1  0
  8  7  2  0
  9  2  1  0
  9 15  1  0
 10  9  2  0
 12 11  1  6
 12 14  1  0
 13 12  1  0
 14 15  1  6
 14 16  1  0
 16 18  1  0
 17 16  2  0
 18 19  1  0
 20 22  1  0
 20 19  1  0
 21 20  2  0
M  END
$$$$
