HVG.pdb
     RDKit          3D

 22 22  0  0  1  0  0  0  0  0999 V2000
   10.0417  -14.1507   21.4321 N   0  0  0  0  0  0  0  0  0  0  0  0
    8.6613  -14.0803   21.8151 C   0  0  1  0  0  0  0  0  0  0  0  0
    7.8190  -15.0520   21.0253 C   0  0  0  0  0  0  0  0  0  0  0  0
    7.6787  -14.5127   19.6483 C   0  0  0  0  0  0  0  0  0  0  0  0
    8.3119  -13.3700   19.1587 C   0  0  0  0  0  0  0  0  0  0  0  0
    7.9599  -13.1772   17.8787 N   0  0  0  0  0  0  0  0  0  0  0  0
    7.1247  -14.1649   17.5508 C   0  0  0  0  0  0  0  0  0  0  0  0
    6.9487  -14.9808   18.6208 N   0  0  0  0  0  0  0  0  0  0  0  0
    8.5424  -14.2676   23.2677 C   0  0  0  0  0  0  0  0  0  0  0  0
    9.4228  -14.9294   23.8630 O   0  0  0  0  0  0  0  0  0  0  0  0
    6.9636  -11.5480   25.7031 C   0  0  0  0  0  0  0  0  0  0  0  0
    6.4696  -12.9643   26.0538 C   0  0  2  0  0  0  0  0  0  0  0  0
    6.2921  -12.9740   27.5213 C   0  0  0  0  0  0  0  0  0  0  0  0
    7.4397  -13.9690   25.4861 C   0  0  2  0  0  0  0  0  0  0  0  0
    7.4767  -13.7345   24.0313 N   0  0  0  0  0  0  0  0  0  0  0  0
    7.0990  -15.3753   25.7612 C   0  0  0  0  0  0  0  0  0  0  0  0
    6.0188  -15.8492   25.2679 O   0  0  0  0  0  0  0  0  0  0  0  0
    7.8703  -16.2753   26.5360 N   0  0  0  0  0  0  0  0  0  0  0  0
    7.4068  -17.6446   26.7042 C   0  0  0  0  0  0  0  0  0  0  0  0
    8.2914  -18.4326   27.5777 C   0  0  0  0  0  0  0  0  0  0  0  0
    9.3360  -17.8940   28.0244 O   0  0  0  0  0  0  0  0  0  0  0  0
    8.0481  -19.7431   27.9452 O   0  0  0  0  0  0  0  0  0  0  0  0
  2  1  1  6
  2  3  1  0
  3  4  1  0
  4  5  2  0
  4  8  1  0
  5  6  1  0
  6  7  1  0
  8  7  2  0
  9  2  1  0
  9 15  1  0
 10  9  2  0
 12 11  1  1
 12 14  1  0
 13 12  1  0
 14 15  1  6
 14 16  1  0
 16 18  1  0
 17 16  2  0
 18 19  1  0
 20 22  1  0
 20 19  1  0
 21 20  2  0
M  END
$$$$
