HVG.pdb
     RDKit          3D

 22 22  0  0  1  0  0  0  0  0999 V2000
   10.5813  -15.7448   15.4549 N   0  0  0  0  0  0  0  0  0  0  0  0
    9.6949  -16.3014   16.4356 C   0  0  1  0  0  0  0  0  0  0  0  0
    9.9080  -17.7871   16.5925 C   0  0  0  0  0  0  0  0  0  0  0  0
    9.6052  -18.4271   15.2866 C   0  0  0  0  0  0  0  0  0  0  0  0
    8.8316  -17.8654   14.2705 C   0  0  0  0  0  0  0  0  0  0  0  0
    8.7662  -18.7165   13.2357 N   0  0  0  0  0  0  0  0  0  0  0  0
    9.4757  -19.7953   13.5724 C   0  0  0  0  0  0  0  0  0  0  0  0
    9.9888  -19.6273   14.8173 N   0  0  0  0  0  0  0  0  0  0  0  0
    9.8340  -15.5656   17.7001 C   0  0  0  0  0  0  0  0  0  0  0  0
   10.9817  -15.2555   18.0925 O   0  0  0  0  0  0  0  0  0  0  0  0
    7.5301  -12.6125   18.7953 C   0  0  0  0  0  0  0  0  0  0  0  0
    7.7047  -13.6033   19.9618 C   0  0  2  0  0  0  0  0  0  0  0  0
    7.6640  -12.7842   21.1918 C   0  0  0  0  0  0  0  0  0  0  0  0
    8.9587  -14.4074   19.7295 C   0  0  2  0  0  0  0  0  0  0  0  0
    8.7295  -15.1883   18.5005 N   0  0  0  0  0  0  0  0  0  0  0  0
    9.3258  -15.3067   20.8367 C   0  0  0  0  0  0  0  0  0  0  0  0
    8.7531  -16.4474   20.9119 O   0  0  0  0  0  0  0  0  0  0  0  0
   10.2749  -15.0249   21.8492 N   0  0  0  0  0  0  0  0  0  0  0  0
   10.5868  -16.0494   22.8347 C   0  0  0  0  0  0  0  0  0  0  0  0
   12.0290  -16.3341   22.9100 C   0  0  0  0  0  0  0  0  0  0  0  0
   12.7131  -16.2730   21.8569 O   0  0  0  0  0  0  0  0  0  0  0  0
   12.6913  -16.6689   24.0767 O   0  0  0  0  0  0  0  0  0  0  0  0
  2  1  1  6
  2  3  1  0
  3  4  1  0
  4  5  2  0
  4  8  1  0
  5  6  1  0
  6  7  1  0
  8  7  2  0
  9  2  1  0
  9 15  1  0
 10  9  2  0
 12 11  1  6
 12 14  1  0
 13 12  1  0
 14 15  1  6
 14 16  1  0
 16 18  1  0
 17 16  2  0
 18 19  1  0
 20 22  1  0
 20 19  1  0
 21 20  2  0
M  END
$$$$
