HVG.pdb
     RDKit          3D

 22 22  0  0  1  0  0  0  0  0999 V2000
   10.4364  -15.8844   15.1996 N   0  0  0  0  0  0  0  0  0  0  0  0
    9.6113  -16.3969   16.2549 C   0  0  1  0  0  0  0  0  0  0  0  0
    9.8432  -17.8724   16.4701 C   0  0  0  0  0  0  0  0  0  0  0  0
    9.4603  -18.5769   15.2196 C   0  0  0  0  0  0  0  0  0  0  0  0
    8.1659  -18.6698   14.7074 C   0  0  0  0  0  0  0  0  0  0  0  0
    8.1857  -19.3758   13.5670 N   0  0  0  0  0  0  0  0  0  0  0  0
    9.4539  -19.7286   13.3485 C   0  0  0  0  0  0  0  0  0  0  0  0
   10.2348  -19.2469   14.3483 N   0  0  0  0  0  0  0  0  0  0  0  0
    9.8171  -15.6006   17.4727 C   0  0  0  0  0  0  0  0  0  0  0  0
   10.9873  -15.3156   17.8145 O   0  0  0  0  0  0  0  0  0  0  0  0
    7.9880  -12.3500   18.6522 C   0  0  0  0  0  0  0  0  0  0  0  0
    7.9174  -13.4402   19.7383 C   0  0  2  0  0  0  0  0  0  0  0  0
    7.8952  -12.7187   21.0283 C   0  0  0  0  0  0  0  0  0  0  0  0
    9.0546  -14.4073   19.5271 C   0  0  2  0  0  0  0  0  0  0  0  0
    8.7530  -15.1375   18.2827 N   0  0  0  0  0  0  0  0  0  0  0  0
    9.2648  -15.3590   20.6314 C   0  0  0  0  0  0  0  0  0  0  0  0
    8.3965  -16.2788   20.8179 O   0  0  0  0  0  0  0  0  0  0  0  0
   10.3616  -15.3552   21.5270 N   0  0  0  0  0  0  0  0  0  0  0  0
   10.4317  -16.3701   22.5678 C   0  0  0  0  0  0  0  0  0  0  0  0
   11.6746  -16.2844   23.3516 C   0  0  0  0  0  0  0  0  0  0  0  0
   12.6984  -15.7951   22.8099 O   0  0  0  0  0  0  0  0  0  0  0  0
   11.7942  -16.7114   24.6612 O   0  0  0  0  0  0  0  0  0  0  0  0
  2  1  1  6
  2  3  1  0
  3  4  1  0
  4  5  2  0
  4  8  1  0
  5  6  1  0
  6  7  1  0
  8  7  2  0
  9  2  1  0
  9 15  1  0
 10  9  2  0
 12 11  1  6
 12 14  1  0
 13 12  1  0
 14 15  1  6
 14 16  1  0
 16 18  1  0
 17 16  2  0
 18 19  1  0
 20 22  1  0
 20 19  1  0
 21 20  2  0
M  END
$$$$
