CCY.pdb
     RDKit          3D

 25 25  0  0  1  0  0  0  0  0999 V2000
   18.2468  -13.8948  -15.8629 N   0  0  0  0  0  0  0  0  0  0  0  0
   17.7990  -12.5810  -16.2707 C   0  0  1  0  0  0  0  0  0  0  0  0
   16.3427  -12.3591  -15.9877 C   0  0  0  0  0  0  0  0  0  0  0  0
   15.3730  -13.1489  -17.3010 S   0  0  0  0  0  0  0  0  0  0  0  0
   18.6038  -11.4993  -15.6618 C   0  0  0  0  0  0  0  0  0  0  0  0
   18.6132  -11.4251  -14.4067 O   0  0  0  0  0  0  0  0  0  0  0  0
   19.3608  -10.5450  -16.3701 N   0  0  0  0  0  0  0  0  0  0  0  0
   20.0209   -9.4191  -15.7781 C   0  0  1  0  0  0  0  0  0  0  0  0
   21.5211   -9.5442  -15.7542 C   0  0  0  0  0  0  0  0  0  0  0  0
   22.3266   -8.0522  -15.1308 S   0  0  0  0  0  0  0  0  0  0  0  0
   19.6017   -8.1364  -16.3935 C   0  0  0  0  0  0  0  0  0  0  0  0
   19.6031   -8.0338  -17.6429 O   0  0  0  0  0  0  0  0  0  0  0  0
   16.2336   -0.5590  -19.0359 O   0  0  0  0  0  0  0  0  0  0  0  0
   16.5567   -1.7942  -18.4800 C   0  0  0  0  0  0  0  0  0  0  0  0
   16.2247   -2.0487  -17.1690 C   0  0  0  0  0  0  0  0  0  0  0  0
   16.5283   -3.2598  -16.5846 C   0  0  0  0  0  0  0  0  0  0  0  0
   17.1818   -4.2781  -17.2894 C   0  0  0  0  0  0  0  0  0  0  0  0
   17.5113   -5.5665  -16.6453 C   0  0  0  0  0  0  0  0  0  0  0  0
   18.9535   -5.7357  -16.2851 C   0  0  2  0  0  0  0  0  0  0  0  0
   19.1968   -7.0131  -15.6322 N   0  0  0  0  0  0  0  0  0  0  0  0
   19.3981   -4.6328  -15.4036 C   0  0  0  0  0  0  0  0  0  0  0  0
   19.8935   -4.7750  -14.1357 O   0  0  0  0  0  0  0  0  0  0  0  0
   17.5024   -3.9964  -18.5991 C   0  0  0  0  0  0  0  0  0  0  0  0
   17.1933   -2.7666  -19.1903 C   0  0  0  0  0  0  0  0  0  0  0  0
   19.3242   -3.4301  -15.8352 O   0  0  0  0  0  0  0  0  0  0  0  0
  2  3  1  0
  2  5  1  0
  2  1  1  1
  4  3  1  0
  5  6  2  0
  7  8  1  0
  7  5  1  0
  8 11  1  0
  8  9  1  6
 10  9  1  0
 11 20  1  0
 12 11  2  0
 14 15  2  0
 14 13  1  0
 16 15  1  0
 17 16  2  0
 18 17  1  0
 19 18  1  1
 20 19  1  0
 21 22  1  0
 21 19  1  0
 23 17  1  0
 23 24  2  0
 24 14  1  0
 25 21  2  0
M  END
$$$$
