CCY.pdb
     RDKit          3D

 25 25  0  0  1  0  0  0  0  0999 V2000
   19.8085  -15.8098  -17.6829 N   0  0  0  0  0  0  0  0  0  0  0  0
   18.9163  -14.6729  -17.6156 C   0  0  1  0  0  0  0  0  0  0  0  0
   17.6683  -14.9697  -16.8381 C   0  0  0  0  0  0  0  0  0  0  0  0
   16.6607  -13.4635  -16.7677 S   0  0  0  0  0  0  0  0  0  0  0  0
   19.5803  -13.4698  -17.0677 C   0  0  0  0  0  0  0  0  0  0  0  0
   20.1357  -13.5794  -15.9450 O   0  0  0  0  0  0  0  0  0  0  0  0
   19.6427  -12.2112  -17.6982 N   0  0  0  0  0  0  0  0  0  0  0  0
   20.3037  -11.0580  -17.1623 C   0  0  1  0  0  0  0  0  0  0  0  0
   21.6089  -10.7412  -17.8427 C   0  0  0  0  0  0  0  0  0  0  0  0
   21.4474  -10.6633  -19.6403 S   0  0  0  0  0  0  0  0  0  0  0  0
   19.4172   -9.8694  -17.1277 C   0  0  0  0  0  0  0  0  0  0  0  0
   18.5338   -9.7455  -18.0083 O   0  0  0  0  0  0  0  0  0  0  0  0
   16.4588  -10.1317  -10.4751 O   0  0  0  0  0  0  0  0  0  0  0  0
   16.6421   -9.6995  -11.7861 C   0  0  0  0  0  0  0  0  0  0  0  0
   16.6294   -8.3503  -12.0569 C   0  0  0  0  0  0  0  0  0  0  0  0
   16.8076   -7.8850  -13.3423 C   0  0  0  0  0  0  0  0  0  0  0  0
   17.0080   -8.7534  -14.4223 C   0  0  0  0  0  0  0  0  0  0  0  0
   17.1852   -8.2397  -15.7963 C   0  0  0  0  0  0  0  0  0  0  0  0
   18.5671   -7.7616  -16.1128 C   0  0  2  0  0  0  0  0  0  0  0  0
   19.5213   -8.8597  -16.1402 N   0  0  0  0  0  0  0  0  0  0  0  0
   19.0015   -6.7483  -15.1252 C   0  0  0  0  0  0  0  0  0  0  0  0
   18.3934   -5.5433  -14.8983 O   0  0  0  0  0  0  0  0  0  0  0  0
   17.0159  -10.0979  -14.1228 C   0  0  0  0  0  0  0  0  0  0  0  0
   16.8350  -10.5681  -12.8175 C   0  0  0  0  0  0  0  0  0  0  0  0
   20.0326   -6.9898  -14.4064 O   0  0  0  0  0  0  0  0  0  0  0  0
  2  3  1  0
  2  5  1  0
  2  1  1  1
  4  3  1  0
  5  6  2  0
  7  8  1  0
  7  5  1  0
  8 11  1  0
  8  9  1  6
 10  9  1  0
 11 20  1  0
 12 11  2  0
 14 15  2  0
 14 13  1  0
 16 15  1  0
 17 16  2  0
 18 17  1  0
 19 18  1  1
 20 19  1  0
 21 22  1  0
 21 19  1  0
 23 17  1  0
 23 24  2  0
 24 14  1  0
 25 21  2  0
M  END
$$$$
