CCY.pdb
     RDKit          3D

 25 25  0  0  1  0  0  0  0  0999 V2000
   39.8295   -6.7896   -8.4406 N   0  0  0  0  0  0  0  0  0  0  0  0
   38.6207   -6.2697   -9.0419 C   0  0  1  0  0  0  0  0  0  0  0  0
   37.5048   -7.2721   -9.0427 C   0  0  0  0  0  0  0  0  0  0  0  0
   37.9947   -8.6798  -10.0759 S   0  0  0  0  0  0  0  0  0  0  0  0
   38.1719   -5.0127   -8.4039 C   0  0  0  0  0  0  0  0  0  0  0  0
   38.3374   -4.9061   -7.1620 O   0  0  0  0  0  0  0  0  0  0  0  0
   37.5745   -3.9247   -9.0709 N   0  0  0  0  0  0  0  0  0  0  0  0
   37.6688   -2.5566   -8.6549 C   0  0  1  0  0  0  0  0  0  0  0  0
   39.0840   -2.0855   -8.4490 C   0  0  0  0  0  0  0  0  0  0  0  0
   39.1688   -0.3414   -7.9863 S   0  0  0  0  0  0  0  0  0  0  0  0
   36.9284   -1.6435   -9.5592 C   0  0  0  0  0  0  0  0  0  0  0  0
   37.0927   -1.7509  -10.7973 O   0  0  0  0  0  0  0  0  0  0  0  0
   32.5868    3.4250   -5.1502 O   0  0  0  0  0  0  0  0  0  0  0  0
   32.8865    2.6632   -6.2766 C   0  0  0  0  0  0  0  0  0  0  0  0
   33.0646    1.3053   -6.1417 C   0  0  0  0  0  0  0  0  0  0  0  0
   33.3621    0.5188   -7.2341 C   0  0  0  0  0  0  0  0  0  0  0  0
   33.4959    1.0579   -8.5194 C   0  0  0  0  0  0  0  0  0  0  0  0
   33.8273    0.2034   -9.6784 C   0  0  0  0  0  0  0  0  0  0  0  0
   35.2808    0.1617  -10.0304 C   0  0  2  0  0  0  0  0  0  0  0  0
   36.0377   -0.6484   -9.0881 N   0  0  0  0  0  0  0  0  0  0  0  0
   35.8410    1.5311  -10.0727 C   0  0  0  0  0  0  0  0  0  0  0  0
   35.4525    2.5261  -10.9285 O   0  0  0  0  0  0  0  0  0  0  0  0
   33.3128    2.4190   -8.6255 C   0  0  0  0  0  0  0  0  0  0  0  0
   33.0107    3.2155   -7.5155 C   0  0  0  0  0  0  0  0  0  0  0  0
   36.7718    1.8425   -9.2512 O   0  0  0  0  0  0  0  0  0  0  0  0
  2  3  1  0
  2  5  1  0
  2  1  1  1
  4  3  1  0
  5  6  2  0
  7  8  1  0
  7  5  1  0
  8 11  1  0
  8  9  1  6
 10  9  1  0
 11 20  1  0
 12 11  2  0
 14 15  2  0
 14 13  1  0
 16 15  1  0
 17 16  2  0
 18 17  1  0
 19 18  1  1
 20 19  1  0
 21 22  1  0
 21 19  1  0
 23 17  1  0
 23 24  2  0
 24 14  1  0
 25 21  2  0
M  END
$$$$
