CCY.pdb
     RDKit          3D

 25 25  0  0  1  0  0  0  0  0999 V2000
   23.8695  -19.4921  -15.7582 N   0  0  0  0  0  0  0  0  0  0  0  0
   23.1847  -18.4545  -16.4981 C   0  0  1  0  0  0  0  0  0  0  0  0
   21.8360  -18.1366  -15.9234 C   0  0  0  0  0  0  0  0  0  0  0  0
   20.7179  -19.5200  -16.2764 S   0  0  0  0  0  0  0  0  0  0  0  0
   23.9913  -17.2195  -16.6106 C   0  0  0  0  0  0  0  0  0  0  0  0
   25.0379  -17.1500  -15.9173 O   0  0  0  0  0  0  0  0  0  0  0  0
   23.6852  -16.1143  -17.4294 N   0  0  0  0  0  0  0  0  0  0  0  0
   24.5479  -14.9905  -17.6453 C   0  0  1  0  0  0  0  0  0  0  0  0
   25.9342  -15.3721  -18.0920 C   0  0  0  0  0  0  0  0  0  0  0  0
   26.9239  -13.9375  -18.5673 S   0  0  0  0  0  0  0  0  0  0  0  0
   23.9476  -13.9911  -18.5621 C   0  0  0  0  0  0  0  0  0  0  0  0
   23.7452  -14.3090  -19.7576 O   0  0  0  0  0  0  0  0  0  0  0  0
   18.7231  -16.4818  -20.3491 O   0  0  0  0  0  0  0  0  0  0  0  0
   19.3963  -15.3267  -19.9598 C   0  0  0  0  0  0  0  0  0  0  0  0
   19.5993  -14.3244  -20.8808 C   0  0  0  0  0  0  0  0  0  0  0  0
   20.2613  -13.1667  -20.5321 C   0  0  0  0  0  0  0  0  0  0  0  0
   20.7536  -12.9570  -19.2381 C   0  0  0  0  0  0  0  0  0  0  0  0
   21.4721  -11.7157  -18.8830 C   0  0  0  0  0  0  0  0  0  0  0  0
   22.9535  -11.7699  -19.0850 C   0  0  2  0  0  0  0  0  0  0  0  0
   23.5892  -12.6848  -18.1490 N   0  0  0  0  0  0  0  0  0  0  0  0
   23.5437  -10.4201  -18.9412 C   0  0  0  0  0  0  0  0  0  0  0  0
   23.1942   -9.3148  -19.6689 O   0  0  0  0  0  0  0  0  0  0  0  0
   20.5368  -13.9761  -18.3370 C   0  0  0  0  0  0  0  0  0  0  0  0
   19.8645  -15.1504  -18.6929 C   0  0  0  0  0  0  0  0  0  0  0  0
   24.4639  -10.2387  -18.0703 O   0  0  0  0  0  0  0  0  0  0  0  0
  2  3  1  0
  2  5  1  0
  2  1  1  1
  4  3  1  0
  5  6  2  0
  7  8  1  0
  7  5  1  0
  8 11  1  0
  8  9  1  6
 10  9  1  0
 11 20  1  0
 12 11  2  0
 14 15  2  0
 14 13  1  0
 16 15  1  0
 17 16  2  0
 18 17  1  0
 19 18  1  1
 20 19  1  0
 21 22  1  0
 21 19  1  0
 23 17  1  0
 23 24  2  0
 24 14  1  0
 25 21  2  0
M  END
$$$$
