CCY.pdb
     RDKit          3D

 25 25  0  0  1  0  0  0  0  0999 V2000
   27.9192  -20.3320  -16.0380 N   0  0  0  0  0  0  0  0  0  0  0  0
   27.6198  -19.6296  -14.8091 C   0  0  1  0  0  0  0  0  0  0  0  0
   27.0744  -18.2539  -15.0543 C   0  0  0  0  0  0  0  0  0  0  0  0
   28.4490  -17.1607  -15.5066 S   0  0  0  0  0  0  0  0  0  0  0  0
   26.6991  -20.3914  -13.9370 C   0  0  0  0  0  0  0  0  0  0  0  0
   25.9238  -21.2099  -14.4935 O   0  0  0  0  0  0  0  0  0  0  0  0
   26.6181  -20.2768  -12.5349 N   0  0  0  0  0  0  0  0  0  0  0  0
   25.7229  -21.0243  -11.7020 C   0  0  1  0  0  0  0  0  0  0  0  0
   26.1870  -21.1450  -10.2748 C   0  0  0  0  0  0  0  0  0  0  0  0
   24.8707  -21.6960   -9.1669 S   0  0  0  0  0  0  0  0  0  0  0  0
   24.3333  -20.5104  -11.7700 C   0  0  0  0  0  0  0  0  0  0  0  0
   24.0787  -19.3833  -11.2841 O   0  0  0  0  0  0  0  0  0  0  0  0
   22.7431  -19.8229  -18.7110 O   0  0  0  0  0  0  0  0  0  0  0  0
   22.5531  -19.7057  -17.3365 C   0  0  0  0  0  0  0  0  0  0  0  0
   21.4239  -20.2468  -16.7655 C   0  0  0  0  0  0  0  0  0  0  0  0
   21.2018  -20.1507  -15.4084 C   0  0  0  0  0  0  0  0  0  0  0  0
   22.1047  -19.5048  -14.5549 C   0  0  0  0  0  0  0  0  0  0  0  0
   21.8464  -19.3992  -13.1039 C   0  0  0  0  0  0  0  0  0  0  0  0
   21.9218  -20.6941  -12.3585 C   0  0  2  0  0  0  0  0  0  0  0  0
   23.2717  -21.2371  -12.3620 N   0  0  0  0  0  0  0  0  0  0  0  0
   20.9861  -21.6811  -12.9428 C   0  0  0  0  0  0  0  0  0  0  0  0
   21.3328  -22.8990  -13.4623 O   0  0  0  0  0  0  0  0  0  0  0  0
   23.2257  -18.9724  -15.1528 C   0  0  0  0  0  0  0  0  0  0  0  0
   23.4493  -19.0712  -16.5304 C   0  0  0  0  0  0  0  0  0  0  0  0
   19.7379  -21.4003  -12.9812 O   0  0  0  0  0  0  0  0  0  0  0  0
  2  3  1  0
  2  5  1  0
  2  1  1  6
  4  3  1  0
  5  6  2  0
  7  8  1  0
  7  5  1  0
  8 11  1  0
  8  9  1  1
 10  9  1  0
 11 20  1  0
 12 11  2  0
 14 15  2  0
 14 13  1  0
 16 15  1  0
 17 16  2  0
 18 17  1  0
 19 18  1  6
 20 19  1  0
 21 22  1  0
 21 19  1  0
 23 17  1  0
 23 24  2  0
 24 14  1  0
 25 21  2  0
M  END
$$$$
