DNN.pdb
     RDKit          3D

 25 24  0  0  1  0  0  0  0  0999 V2000
    8.7552  -17.3284   16.0761 N   0  0  0  0  0  0  0  0  0  0  0  0
    9.9670  -16.5499   16.0136 C   0  0  1  0  0  0  0  0  0  0  0  0
    9.9367  -15.6259   14.8576 C   0  0  0  0  0  0  0  0  0  0  0  0
    9.9136  -16.3521   13.5762 C   0  0  0  0  0  0  0  0  0  0  0  0
    8.9287  -16.4310   12.8061 O   0  0  0  0  0  0  0  0  0  0  0  0
   10.1424  -15.8481   17.3170 C   0  0  0  0  0  0  0  0  0  0  0  0
   11.1504  -15.1403   17.5703 O   0  0  0  0  0  0  0  0  0  0  0  0
   11.0589  -17.0385   13.1148 O   0  0  0  0  0  0  0  0  0  0  0  0
    7.6285  -12.9571   19.0652 N   0  0  0  0  0  0  0  0  0  0  0  0
    7.2043  -13.9828   19.9338 C   0  0  0  0  0  0  0  0  0  0  0  0
    6.0649  -13.8639   20.4917 O   0  0  0  0  0  0  0  0  0  0  0  0
    7.9570  -15.1957   20.2660 C   0  0  0  0  0  0  0  0  0  0  0  0
    9.3151  -15.2609   19.6180 C   0  0  2  0  0  0  0  0  0  0  0  0
    9.1630  -15.9547   18.3377 N   0  0  0  0  0  0  0  0  0  0  0  0
   10.1770  -16.1412   20.4866 C   0  0  0  0  0  0  0  0  0  0  0  0
   10.0902  -17.4000   20.4500 O   0  0  0  0  0  0  0  0  0  0  0  0
   14.9864  -15.9087   24.2298 N   0  0  0  0  0  0  0  0  0  0  0  0
   14.1699  -16.5129   23.2330 C   0  0  0  0  0  0  0  0  0  0  0  0
   14.2059  -17.7743   23.0318 O   0  0  0  0  0  0  0  0  0  0  0  0
   13.2564  -15.7422   22.3966 C   0  0  0  0  0  0  0  0  0  0  0  0
   11.9306  -16.4489   22.2551 C   0  0  2  0  0  0  0  0  0  0  0  0
   11.1201  -15.5635   21.3791 N   0  0  0  0  0  0  0  0  0  0  0  0
   11.2814  -16.4457   23.6162 C   0  0  0  0  0  0  0  0  0  0  0  0
   11.5532  -17.4843   24.5063 O   0  0  0  0  0  0  0  0  0  0  0  0
   10.4994  -15.5692   24.0276 O   0  0  0  0  0  0  0  0  0  0  0  0
  2  3  1  0
  2  1  1  1
  3  4  1  0
  4  8  1  0
  4  5  2  0
  6  2  1  0
  7  6  2  0
  9 10  1  0
 10 12  1  0
 11 10  2  0
 13 12  1  1
 13 14  1  0
 14  6  1  0
 15 13  1  0
 15 22  1  0
 16 15  2  0
 18 17  1  0
 18 19  2  0
 20 18  1  0
 21 20  1  1
 21 22  1  0
 21 23  1  0
 23 24  1  0
 25 23  2  0
M  END
$$$$
