DNN.pdb
     RDKit          3D

 25 24  0  0  1  0  0  0  0  0999 V2000
   10.3786  -16.7785   17.1483 N   0  0  0  0  0  0  0  0  0  0  0  0
   10.6393  -15.4777   16.5840 C   0  0  1  0  0  0  0  0  0  0  0  0
    9.5973  -15.1171   15.5964 C   0  0  0  0  0  0  0  0  0  0  0  0
    9.5640  -16.0606   14.4658 C   0  0  0  0  0  0  0  0  0  0  0  0
   10.5370  -16.7353   14.0566 O   0  0  0  0  0  0  0  0  0  0  0  0
   10.7507  -14.4953   17.6996 C   0  0  0  0  0  0  0  0  0  0  0  0
   10.7081  -13.2530   17.5095 O   0  0  0  0  0  0  0  0  0  0  0  0
    8.3722  -16.2724   13.7373 O   0  0  0  0  0  0  0  0  0  0  0  0
    8.7341  -12.0818   18.9416 N   0  0  0  0  0  0  0  0  0  0  0  0
    8.1113  -13.2671   19.3820 C   0  0  0  0  0  0  0  0  0  0  0  0
    6.8505  -13.3742   19.2319 O   0  0  0  0  0  0  0  0  0  0  0  0
    8.7817  -14.4106   20.0073 C   0  0  0  0  0  0  0  0  0  0  0  0
   10.2701  -14.2328   20.1540 C   0  0  2  0  0  0  0  0  0  0  0  0
   10.9125  -14.9320   19.0395 N   0  0  0  0  0  0  0  0  0  0  0  0
   10.6795  -14.9563   21.4114 C   0  0  0  0  0  0  0  0  0  0  0  0
   10.2517  -14.6090   22.5470 O   0  0  0  0  0  0  0  0  0  0  0  0
    9.9477  -18.1696   21.7572 N   0  0  0  0  0  0  0  0  0  0  0  0
   11.2305  -18.7845   21.7960 C   0  0  0  0  0  0  0  0  0  0  0  0
   11.3885  -19.9961   21.4218 O   0  0  0  0  0  0  0  0  0  0  0  0
   12.4226  -18.0802   22.2551 C   0  0  0  0  0  0  0  0  0  0  0  0
   12.1007  -16.6473   22.6022 C   0  0  2  0  0  0  0  0  0  0  0  0
   11.5698  -16.0619   21.3437 N   0  0  0  0  0  0  0  0  0  0  0  0
   13.4101  -15.9598   22.8968 C   0  0  0  0  0  0  0  0  0  0  0  0
   13.9051  -15.0163   21.9970 O   0  0  0  0  0  0  0  0  0  0  0  0
   14.1097  -16.1674   23.9049 O   0  0  0  0  0  0  0  0  0  0  0  0
  2  3  1  0
  2  1  1  1
  3  4  1  0
  4  8  1  0
  4  5  2  0
  6  2  1  0
  7  6  2  0
  9 10  1  0
 10 12  1  0
 11 10  2  0
 13 12  1  6
 13 14  1  0
 14  6  1  0
 15 13  1  0
 15 22  1  0
 16 15  2  0
 18 17  1  0
 18 19  2  0
 20 18  1  0
 21 20  1  6
 21 22  1  0
 21 23  1  0
 23 24  1  0
 25 23  2  0
M  END
$$$$
