DNN.pdb
     RDKit          3D

 25 24  0  0  1  0  0  0  0  0999 V2000
   10.2410  -13.7402   18.7319 N   0  0  0  0  0  0  0  0  0  0  0  0
    9.0191  -13.3352   19.3810 C   0  0  1  0  0  0  0  0  0  0  0  0
    8.0443  -12.8254   18.3906 C   0  0  0  0  0  0  0  0  0  0  0  0
    8.2046  -13.4763   17.0790 C   0  0  0  0  0  0  0  0  0  0  0  0
    9.0419  -14.3686   16.8107 O   0  0  0  0  0  0  0  0  0  0  0  0
    8.5007  -14.4895   20.1689 C   0  0  0  0  0  0  0  0  0  0  0  0
    7.5533  -14.3745   20.9877 O   0  0  0  0  0  0  0  0  0  0  0  0
    7.3819  -13.1151   15.9887 O   0  0  0  0  0  0  0  0  0  0  0  0
    7.9943  -17.7290   17.5211 N   0  0  0  0  0  0  0  0  0  0  0  0
    7.5187  -17.5911   18.8408 C   0  0  0  0  0  0  0  0  0  0  0  0
    6.3816  -17.0433   19.0148 O   0  0  0  0  0  0  0  0  0  0  0  0
    8.2147  -18.0231   20.0560 C   0  0  0  0  0  0  0  0  0  0  0  0
    8.6967  -16.8832   20.9144 C   0  0  2  0  0  0  0  0  0  0  0  0
    9.0665  -15.7822   20.0230 N   0  0  0  0  0  0  0  0  0  0  0  0
    9.9667  -17.3414   21.5847 C   0  0  0  0  0  0  0  0  0  0  0  0
   10.2096  -18.5642   21.7826 O   0  0  0  0  0  0  0  0  0  0  0  0
   15.3262  -15.2445   23.5674 N   0  0  0  0  0  0  0  0  0  0  0  0
   14.4903  -16.2428   22.9931 C   0  0  0  0  0  0  0  0  0  0  0  0
   14.8098  -17.4787   23.0518 O   0  0  0  0  0  0  0  0  0  0  0  0
   13.2387  -15.9214   22.3163 C   0  0  0  0  0  0  0  0  0  0  0  0
   12.1379  -16.8594   22.7471 C   0  0  2  0  0  0  0  0  0  0  0  0
   10.9323  -16.3916   22.0148 N   0  0  0  0  0  0  0  0  0  0  0  0
   11.8941  -16.6095   24.2141 C   0  0  0  0  0  0  0  0  0  0  0  0
   12.5474  -17.3987   25.1603 O   0  0  0  0  0  0  0  0  0  0  0  0
   11.1368  -15.7326   24.6686 O   0  0  0  0  0  0  0  0  0  0  0  0
  2  3  1  0
  2  1  1  6
  3  4  1  0
  4  8  1  0
  4  5  2  0
  6  2  1  0
  7  6  2  0
  9 10  1  0
 10 12  1  0
 11 10  2  0
 13 12  1  6
 13 14  1  0
 14  6  1  0
 15 13  1  0
 15 22  1  0
 16 15  2  0
 18 17  1  0
 18 19  2  0
 20 18  1  0
 21 20  1  6
 21 22  1  0
 21 23  1  0
 23 24  1  0
 25 23  2  0
M  END
$$$$
