DNN.pdb
     RDKit          3D

 25 24  0  0  1  0  0  0  0  0999 V2000
    9.4428  -18.6995   18.7986 N   0  0  0  0  0  0  0  0  0  0  0  0
   10.5060  -17.7284   18.7281 C   0  0  1  0  0  0  0  0  0  0  0  0
   10.4349  -16.9653   17.4617 C   0  0  0  0  0  0  0  0  0  0  0  0
   10.7033  -17.8190   16.2917 C   0  0  0  0  0  0  0  0  0  0  0  0
   10.5615  -19.0632   16.2551 O   0  0  0  0  0  0  0  0  0  0  0  0
   10.4304  -16.8602   19.9374 C   0  0  0  0  0  0  0  0  0  0  0  0
   11.2181  -15.8984   20.1260 O   0  0  0  0  0  0  0  0  0  0  0  0
   11.1603  -17.2579   15.0784 O   0  0  0  0  0  0  0  0  0  0  0  0
    7.7969  -13.6852   21.1969 N   0  0  0  0  0  0  0  0  0  0  0  0
    7.4552  -15.0351   21.4156 C   0  0  0  0  0  0  0  0  0  0  0  0
    6.5809  -15.5638   20.6542 O   0  0  0  0  0  0  0  0  0  0  0  0
    8.0157  -15.9081   22.4508 C   0  0  0  0  0  0  0  0  0  0  0  0
    9.4386  -16.3244   22.1854 C   0  0  2  0  0  0  0  0  0  0  0  0
    9.4514  -17.0907   20.9378 N   0  0  0  0  0  0  0  0  0  0  0  0
    9.8313  -17.2799   23.2831 C   0  0  0  0  0  0  0  0  0  0  0  0
    9.8804  -18.5267   23.0926 O   0  0  0  0  0  0  0  0  0  0  0  0
   11.7527  -19.8957   24.1647 N   0  0  0  0  0  0  0  0  0  0  0  0
   12.6732  -18.8618   24.4950 C   0  0  0  0  0  0  0  0  0  0  0  0
   13.9045  -18.9502   24.1651 O   0  0  0  0  0  0  0  0  0  0  0  0
   12.2730  -17.6582   25.2156 C   0  0  0  0  0  0  0  0  0  0  0  0
   10.8040  -17.6996   25.5580 C   0  0  2  0  0  0  0  0  0  0  0  0
   10.1595  -16.7894   24.5760 N   0  0  0  0  0  0  0  0  0  0  0  0
   10.6502  -17.0688   26.9191 C   0  0  0  0  0  0  0  0  0  0  0  0
   10.8481  -17.8463   28.0598 O   0  0  0  0  0  0  0  0  0  0  0  0
   10.3527  -15.8771   27.1196 O   0  0  0  0  0  0  0  0  0  0  0  0
  2  3  1  0
  2  1  1  1
  3  4  1  0
  4  8  1  0
  4  5  2  0
  6  2  1  0
  7  6  2  0
  9 10  1  0
 10 12  1  0
 11 10  2  0
 13 12  1  1
 13 14  1  0
 14  6  1  0
 15 13  1  0
 15 22  1  0
 16 15  2  0
 18 17  1  0
 18 19  2  0
 20 18  1  0
 21 20  1  6
 21 22  1  0
 21 23  1  0
 23 24  1  0
 25 23  2  0
M  END
$$$$
