DNN.pdb
     RDKit          3D

 25 24  0  0  1  0  0  0  0  0999 V2000
    9.7323  -18.2366   20.6478 N   0  0  0  0  0  0  0  0  0  0  0  0
   10.8814  -17.4173   20.9425 C   0  0  1  0  0  0  0  0  0  0  0  0
   11.5395  -16.9701   19.6943 C   0  0  0  0  0  0  0  0  0  0  0  0
   12.2019  -18.0843   18.9947 C   0  0  0  0  0  0  0  0  0  0  0  0
   12.2418  -19.2703   19.3962 O   0  0  0  0  0  0  0  0  0  0  0  0
   10.4423  -16.2858   21.8080 C   0  0  0  0  0  0  0  0  0  0  0  0
   11.2584  -15.5080   22.3649 O   0  0  0  0  0  0  0  0  0  0  0  0
   12.8663  -17.8721   17.7661 O   0  0  0  0  0  0  0  0  0  0  0  0
    6.0345  -14.6358   20.1956 N   0  0  0  0  0  0  0  0  0  0  0  0
    7.0438  -14.1999   21.0777 C   0  0  0  0  0  0  0  0  0  0  0  0
    7.9134  -13.3798   20.6364 O   0  0  0  0  0  0  0  0  0  0  0  0
    7.1960  -14.6033   22.4783 C   0  0  0  0  0  0  0  0  0  0  0  0
    8.6171  -14.9172   22.8662 C   0  0  2  0  0  0  0  0  0  0  0  0
    9.0645  -16.0406   22.0406 N   0  0  0  0  0  0  0  0  0  0  0  0
    8.5874  -15.4122   24.2896 C   0  0  0  0  0  0  0  0  0  0  0  0
    8.0524  -14.7413   25.2153 O   0  0  0  0  0  0  0  0  0  0  0  0
    7.0803  -19.6380   27.8556 N   0  0  0  0  0  0  0  0  0  0  0  0
    7.9021  -18.5158   27.5544 C   0  0  0  0  0  0  0  0  0  0  0  0
    8.6506  -17.9925   28.4481 O   0  0  0  0  0  0  0  0  0  0  0  0
    7.9407  -17.9070   26.2293 C   0  0  0  0  0  0  0  0  0  0  0  0
    9.2003  -17.0963   26.0462 C   0  0  2  0  0  0  0  0  0  0  0  0
    9.1704  -16.6643   24.6247 N   0  0  0  0  0  0  0  0  0  0  0  0
   10.3621  -18.0453   26.2000 C   0  0  0  0  0  0  0  0  0  0  0  0
   11.0894  -18.0493   27.3900 O   0  0  0  0  0  0  0  0  0  0  0  0
   10.7405  -18.8510   25.3301 O   0  0  0  0  0  0  0  0  0  0  0  0
  2  3  1  0
  2  1  1  6
  3  4  1  0
  4  8  1  0
  4  5  2  0
  6  2  1  0
  7  6  2  0
  9 10  1  0
 10 12  1  0
 11 10  2  0
 13 12  1  6
 13 14  1  0
 14  6  1  0
 15 13  1  0
 15 22  1  0
 16 15  2  0
 18 17  1  0
 18 19  2  0
 20 18  1  0
 21 20  1  6
 21 22  1  0
 21 23  1  0
 23 24  1  0
 25 23  2  0
M  END
$$$$
