DNN.pdb
     RDKit          3D

 25 24  0  0  1  0  0  0  0  0999 V2000
    4.8148  -19.7673   20.0588 N   0  0  0  0  0  0  0  0  0  0  0  0
    4.4182  -18.8527   21.1003 C   0  0  1  0  0  0  0  0  0  0  0  0
    3.4306  -19.4846   22.0039 C   0  0  0  0  0  0  0  0  0  0  0  0
    2.1565  -19.7585   21.3173 C   0  0  0  0  0  0  0  0  0  0  0  0
    1.9175  -20.7628   20.6076 O   0  0  0  0  0  0  0  0  0  0  0  0
    5.6442  -18.3880   21.8095 C   0  0  0  0  0  0  0  0  0  0  0  0
    6.7437  -18.9914   21.7195 O   0  0  0  0  0  0  0  0  0  0  0  0
    1.0719  -18.8595   21.4228 O   0  0  0  0  0  0  0  0  0  0  0  0
    9.0530  -15.2938   24.4614 N   0  0  0  0  0  0  0  0  0  0  0  0
    7.8232  -14.6599   24.1920 C   0  0  0  0  0  0  0  0  0  0  0  0
    7.7061  -13.4263   24.4888 O   0  0  0  0  0  0  0  0  0  0  0  0
    6.6431  -15.2898   23.5932 C   0  0  0  0  0  0  0  0  0  0  0  0
    6.8099  -16.7644   23.3357 C   0  0  2  0  0  0  0  0  0  0  0  0
    5.6159  -17.2289   22.6270 N   0  0  0  0  0  0  0  0  0  0  0  0
    6.8093  -17.4500   24.6782 C   0  0  0  0  0  0  0  0  0  0  0  0
    5.8535  -17.3169   25.4918 O   0  0  0  0  0  0  0  0  0  0  0  0
    6.6563  -22.0925   24.8124 N   0  0  0  0  0  0  0  0  0  0  0  0
    6.8534  -21.1461   25.8568 C   0  0  0  0  0  0  0  0  0  0  0  0
    5.9216  -20.8879   26.6922 O   0  0  0  0  0  0  0  0  0  0  0  0
    8.1104  -20.4277   26.0352 C   0  0  0  0  0  0  0  0  0  0  0  0
    7.8587  -18.9779   26.3698 C   0  0  2  0  0  0  0  0  0  0  0  0
    7.9022  -18.2734   25.0622 N   0  0  0  0  0  0  0  0  0  0  0  0
    9.0408  -18.4991   27.1744 C   0  0  0  0  0  0  0  0  0  0  0  0
    9.9320  -17.5894   26.6059 O   0  0  0  0  0  0  0  0  0  0  0  0
    9.2986  -18.8560   28.3385 O   0  0  0  0  0  0  0  0  0  0  0  0
  2  3  1  0
  2  1  1  6
  3  4  1  0
  4  8  1  0
  4  5  2  0
  6  2  1  0
  7  6  2  0
  9 10  1  0
 10 12  1  0
 11 10  2  0
 13 12  1  1
 13 14  1  0
 14  6  1  0
 15 13  1  0
 15 22  1  0
 16 15  2  0
 18 17  1  0
 18 19  2  0
 20 18  1  0
 21 20  1  6
 21 22  1  0
 21 23  1  0
 23 24  1  0
 25 23  2  0
M  END
$$$$
