DNN.pdb
     RDKit          3D

 25 24  0  0  1  0  0  0  0  0999 V2000
    7.9614  -16.3104   17.4915 N   0  0  0  0  0  0  0  0  0  0  0  0
    8.8457  -15.1765   17.5958 C   0  0  1  0  0  0  0  0  0  0  0  0
    8.2539  -13.9890   16.9395 C   0  0  0  0  0  0  0  0  0  0  0  0
    8.0126  -14.2193   15.5048 C   0  0  0  0  0  0  0  0  0  0  0  0
    7.7770  -15.3318   14.9794 O   0  0  0  0  0  0  0  0  0  0  0  0
    9.1553  -14.9530   19.0367 C   0  0  0  0  0  0  0  0  0  0  0  0
   10.0316  -14.1358   19.4183 O   0  0  0  0  0  0  0  0  0  0  0  0
    8.0334  -13.1447   14.5878 O   0  0  0  0  0  0  0  0  0  0  0  0
    5.8762  -13.8031   21.5677 N   0  0  0  0  0  0  0  0  0  0  0  0
    6.9920  -14.2123   22.3256 C   0  0  0  0  0  0  0  0  0  0  0  0
    7.5189  -13.3684   23.1216 O   0  0  0  0  0  0  0  0  0  0  0  0
    7.6186  -15.5366   22.2890 C   0  0  0  0  0  0  0  0  0  0  0  0
    8.8700  -15.5905   21.4526 C   0  0  2  0  0  0  0  0  0  0  0  0
    8.4623  -15.6663   20.0484 N   0  0  0  0  0  0  0  0  0  0  0  0
    9.5596  -16.8920   21.7729 C   0  0  0  0  0  0  0  0  0  0  0  0
    9.3629  -17.9342   21.0884 O   0  0  0  0  0  0  0  0  0  0  0  0
   14.9050  -18.2110   21.6127 N   0  0  0  0  0  0  0  0  0  0  0  0
   13.5421  -18.6167   21.6689 C   0  0  0  0  0  0  0  0  0  0  0  0
   13.2246  -19.8541   21.6395 O   0  0  0  0  0  0  0  0  0  0  0  0
   12.4442  -17.6610   21.7641 C   0  0  0  0  0  0  0  0  0  0  0  0
   11.4996  -18.0361   22.8796 C   0  0  2  0  0  0  0  0  0  0  0  0
   10.4597  -16.9746   22.8696 N   0  0  0  0  0  0  0  0  0  0  0  0
   12.2655  -17.8985   24.1713 C   0  0  0  0  0  0  0  0  0  0  0  0
   12.4199  -16.6363   24.7441 O   0  0  0  0  0  0  0  0  0  0  0  0
   12.7885  -18.8429   24.7906 O   0  0  0  0  0  0  0  0  0  0  0  0
  2  3  1  0
  2  1  1  1
  3  4  1  0
  4  8  1  0
  4  5  2  0
  6  2  1  0
  7  6  2  0
  9 10  1  0
 10 12  1  0
 11 10  2  0
 13 12  1  1
 13 14  1  0
 14  6  1  0
 15 13  1  0
 15 22  1  0
 16 15  2  0
 18 17  1  0
 18 19  2  0
 20 18  1  0
 21 20  1  6
 21 22  1  0
 21 23  1  0
 23 24  1  0
 25 23  2  0
M  END
$$$$
