DNN.pdb
     RDKit          3D

 25 24  0  0  1  0  0  0  0  0999 V2000
   11.0853  -16.8353   16.9217 N   0  0  0  0  0  0  0  0  0  0  0  0
   12.0101  -15.7340   17.0234 C   0  0  1  0  0  0  0  0  0  0  0  0
   12.0684  -14.9802   15.7509 C   0  0  0  0  0  0  0  0  0  0  0  0
   12.7172  -15.7588   14.6820 C   0  0  0  0  0  0  0  0  0  0  0  0
   12.1197  -16.4466   13.8222 O   0  0  0  0  0  0  0  0  0  0  0  0
   11.6089  -14.8891   18.1841 C   0  0  0  0  0  0  0  0  0  0  0  0
   12.3677  -14.0146   18.6745 O   0  0  0  0  0  0  0  0  0  0  0  0
   14.1242  -15.7783   14.5556 O   0  0  0  0  0  0  0  0  0  0  0  0
    7.7613  -11.8863   18.5945 N   0  0  0  0  0  0  0  0  0  0  0  0
    7.9403  -13.2835   18.6449 C   0  0  0  0  0  0  0  0  0  0  0  0
    7.6818  -13.9600   17.5965 O   0  0  0  0  0  0  0  0  0  0  0  0
    8.4029  -14.0507   19.8047 C   0  0  0  0  0  0  0  0  0  0  0  0
    9.9015  -14.1770   19.8876 C   0  0  2  0  0  0  0  0  0  0  0  0
   10.3352  -15.0430   18.7896 N   0  0  0  0  0  0  0  0  0  0  0  0
   10.2128  -14.9121   21.1662 C   0  0  0  0  0  0  0  0  0  0  0  0
    9.8994  -14.4430   22.2954 O   0  0  0  0  0  0  0  0  0  0  0  0
   11.8808  -18.5321   24.4983 N   0  0  0  0  0  0  0  0  0  0  0  0
   11.7808  -19.0920   23.1937 C   0  0  0  0  0  0  0  0  0  0  0  0
   11.9761  -20.3397   22.9990 O   0  0  0  0  0  0  0  0  0  0  0  0
   11.4526  -18.2896   22.0205 C   0  0  0  0  0  0  0  0  0  0  0  0
   11.2263  -16.8471   22.4015 C   0  0  2  0  0  0  0  0  0  0  0  0
   10.8762  -16.1683   21.1268 N   0  0  0  0  0  0  0  0  0  0  0  0
   12.5561  -16.2955   22.8503 C   0  0  0  0  0  0  0  0  0  0  0  0
   12.8714  -16.2907   24.2089 O   0  0  0  0  0  0  0  0  0  0  0  0
   13.4244  -15.8295   22.0902 O   0  0  0  0  0  0  0  0  0  0  0  0
  2  3  1  0
  2  1  1  6
  3  4  1  0
  4  8  1  0
  4  5  2  0
  6  2  1  0
  7  6  2  0
  9 10  1  0
 10 12  1  0
 11 10  2  0
 13 12  1  6
 13 14  1  0
 14  6  1  0
 15 13  1  0
 15 22  1  0
 16 15  2  0
 18 17  1  0
 18 19  2  0
 20 18  1  0
 21 20  1  6
 21 22  1  0
 21 23  1  0
 23 24  1  0
 25 23  2  0
M  END
$$$$
