DRD.pdb
     RDKit          3D

 28 27  0  0  1  0  0  0  0  0999 V2000
   10.7490  -21.5598   18.8475 N   0  0  0  0  0  0  0  0  0  0  0  0
   10.2696  -20.4151   18.0271 C   0  0  1  0  0  0  0  0  0  0  0  0
    8.8212  -20.4904   17.7882 C   0  0  0  0  0  0  0  0  0  0  0  0
    8.4679  -21.6616   16.9442 C   0  0  0  0  0  0  0  0  0  0  0  0
    9.3360  -22.4324   16.4840 O   0  0  0  0  0  0  0  0  0  0  0  0
   10.7692  -19.2287   18.7644 C   0  0  0  0  0  0  0  0  0  0  0  0
   11.8867  -18.6900   18.3924 O   0  0  0  0  0  0  0  0  0  0  0  0
    7.1296  -21.9460   16.6258 O   0  0  0  0  0  0  0  0  0  0  0  0
    7.1207  -12.7413   18.8065 N   0  0  0  0  0  0  0  0  0  0  0  0
    7.8666  -12.4097   19.9729 C   0  0  0  0  0  0  0  0  0  0  0  0
    8.6921  -11.4255   19.9813 N   0  0  0  0  0  0  0  0  0  0  0  0
    7.7052  -13.1787   21.1656 N   0  0  0  0  0  0  0  0  0  0  0  0
    7.7764  -14.6252   21.1585 C   0  0  0  0  0  0  0  0  0  0  0  0
    9.1965  -15.1148   20.8934 C   0  0  0  0  0  0  0  0  0  0  0  0
    9.1726  -16.5648   20.5574 C   0  0  0  0  0  0  0  0  0  0  0  0
   10.5061  -17.1894   20.2251 C   0  0  2  0  0  0  0  0  0  0  0  0
   10.1682  -18.5878   19.8604 N   0  0  0  0  0  0  0  0  0  0  0  0
   11.3867  -17.1626   21.3914 C   0  0  0  0  0  0  0  0  0  0  0  0
   11.1348  -17.9707   22.3619 O   0  0  0  0  0  0  0  0  0  0  0  0
    9.2664  -11.2243   20.8156 N   0  0  0  0  0  0  0  0  0  0  0  0
   12.5176  -16.3493   21.6042 C   0  0  2  0  0  0  0  0  0  0  0  0
   13.3469  -16.4511   22.7922 C   0  0  0  0  0  0  0  0  0  0  0  0
   14.4575  -15.4148   22.7909 C   0  0  0  0  0  0  0  0  0  0  0  0
   15.3968  -15.5871   21.6553 O   0  0  0  0  0  0  0  0  0  0  0  0
   15.4329  -16.6302   20.9473 C   0  0  0  0  0  0  0  0  0  0  0  0
   12.5288  -16.1944   23.9791 O   0  0  0  0  0  0  0  0  0  0  0  0
   11.3284  -15.8570   23.8835 O   0  0  0  0  0  0  0  0  0  0  0  0
   16.3079  -14.5797   21.3051 O   0  0  0  0  0  0  0  0  0  0  0  0
  2  1  1  1
  2  3  1  0
  3  4  1  0
  4  8  1  0
  4  5  2  0
  6  7  2  0
  6  2  1  0
  9 10  1  0
 10 11  2  0
 12 10  1  0
 12 13  1  0
 13 14  1  0
 14 15  1  0
 16 15  1  1
 16 17  1  0
 17  6  1  0
 18 20  1  0
 18 16  1  0
 19 18  2  0
 21 25  1  0
 21 20  1  0
 22 23  1  0
 21 22  1  6
 23 24  2  0
 25 28  1  0
 26 25  2  0
 27 23  1  0
M  END
$$$$
