DRD.pdb
     RDKit          3D

 28 27  0  0  1  0  0  0  0  0999 V2000
   13.2598  -17.4224   16.3497 N   0  0  0  0  0  0  0  0  0  0  0  0
   14.3376  -16.9149   17.2409 C   0  0  1  0  0  0  0  0  0  0  0  0
   15.1804  -15.9223   16.5588 C   0  0  0  0  0  0  0  0  0  0  0  0
   15.9132  -16.5237   15.4141 C   0  0  0  0  0  0  0  0  0  0  0  0
   15.6447  -17.6639   14.9813 O   0  0  0  0  0  0  0  0  0  0  0  0
   13.6027  -16.4591   18.4462 C   0  0  0  0  0  0  0  0  0  0  0  0
   14.2807  -16.0341   19.4647 O   0  0  0  0  0  0  0  0  0  0  0  0
   16.9495  -15.8258   14.7721 O   0  0  0  0  0  0  0  0  0  0  0  0
    8.2851  -11.0961   19.6577 N   0  0  0  0  0  0  0  0  0  0  0  0
    7.7190  -12.3228   20.1068 C   0  0  0  0  0  0  0  0  0  0  0  0
    7.4886  -12.5364   21.3524 N   0  0  0  0  0  0  0  0  0  0  0  0
    7.3962  -13.3467   19.1650 N   0  0  0  0  0  0  0  0  0  0  0  0
    8.0337  -14.6468   19.2000 C   0  0  0  0  0  0  0  0  0  0  0  0
    9.4589  -14.5574   19.7364 C   0  0  0  0  0  0  0  0  0  0  0  0
   10.1288  -15.8801   19.6031 C   0  0  0  0  0  0  0  0  0  0  0  0
   11.6106  -15.9035   19.8901 C   0  0  2  0  0  0  0  0  0  0  0  0
   12.2116  -16.4296   18.6392 N   0  0  0  0  0  0  0  0  0  0  0  0
   11.8990  -16.7953   21.0116 C   0  0  0  0  0  0  0  0  0  0  0  0
   11.8285  -18.0655   20.8119 O   0  0  0  0  0  0  0  0  0  0  0  0
    7.1494  -13.4560   21.6772 N   0  0  0  0  0  0  0  0  0  0  0  0
   12.2630  -16.4432   22.3266 C   0  0  1  0  0  0  0  0  0  0  0  0
   12.7579  -17.4099   23.2910 C   0  0  0  0  0  0  0  0  0  0  0  0
   14.2749  -17.3976   23.3687 C   0  0  0  0  0  0  0  0  0  0  0  0
   14.8000  -18.3180   24.4073 O   0  0  0  0  0  0  0  0  0  0  0  0
   14.4130  -19.5127   24.5241 C   0  0  0  0  0  0  0  0  0  0  0  0
   12.2622  -17.0633   24.6244 O   0  0  0  0  0  0  0  0  0  0  0  0
   11.5867  -16.0294   24.8208 O   0  0  0  0  0  0  0  0  0  0  0  0
   15.7716  -17.8982   25.3278 O   0  0  0  0  0  0  0  0  0  0  0  0
  2  1  1  6
  2  3  1  0
  3  4  1  0
  4  8  1  0
  4  5  2  0
  6  7  2  0
  6  2  1  0
  9 10  1  0
 10 11  2  0
 12 10  1  0
 12 13  1  0
 13 14  1  0
 14 15  1  0
 16 15  1  6
 16 17  1  0
 17  6  1  0
 18 20  1  0
 18 16  1  0
 19 18  2  0
 21 25  1  0
 21 20  1  0
 22 23  1  0
 21 22  1  1
 23 24  2  0
 25 28  1  0
 26 25  2  0
 27 23  1  0
M  END
$$$$
