DRD.pdb
     RDKit          3D

 28 27  0  0  1  0  0  0  0  0999 V2000
   15.2801  -13.9348   15.8897 N   0  0  0  0  0  0  0  0  0  0  0  0
   14.5669  -15.1630   16.3326 C   0  0  1  0  0  0  0  0  0  0  0  0
   15.4234  -16.3530   16.2277 C   0  0  0  0  0  0  0  0  0  0  0  0
   15.4579  -16.8792   14.8382 C   0  0  0  0  0  0  0  0  0  0  0  0
   14.7767  -16.3740   13.9215 O   0  0  0  0  0  0  0  0  0  0  0  0
   14.0730  -14.8066   17.6853 C   0  0  0  0  0  0  0  0  0  0  0  0
   14.7623  -13.9754   18.4004 O   0  0  0  0  0  0  0  0  0  0  0  0
   16.2639  -17.9793   14.5014 O   0  0  0  0  0  0  0  0  0  0  0  0
    7.0817  -14.1964   19.8040 N   0  0  0  0  0  0  0  0  0  0  0  0
    7.5155  -13.0986   19.0081 C   0  0  0  0  0  0  0  0  0  0  0  0
    6.9310  -11.9562   19.0692 N   0  0  0  0  0  0  0  0  0  0  0  0
    8.6214  -13.2555   18.1181 N   0  0  0  0  0  0  0  0  0  0  0  0
    9.6218  -14.2840   18.3151 C   0  0  0  0  0  0  0  0  0  0  0  0
   10.1224  -14.3097   19.7558 C   0  0  0  0  0  0  0  0  0  0  0  0
   11.1642  -15.3625   19.9060 C   0  0  0  0  0  0  0  0  0  0  0  0
   12.5930  -14.9104   19.7251 C   0  0  2  0  0  0  0  0  0  0  0  0
   12.9108  -15.2733   18.3215 N   0  0  0  0  0  0  0  0  0  0  0  0
   13.4739  -15.6211   20.6500 C   0  0  0  0  0  0  0  0  0  0  0  0
   13.6861  -16.8746   20.4452 O   0  0  0  0  0  0  0  0  0  0  0  0
    7.2575  -11.1638   18.4932 N   0  0  0  0  0  0  0  0  0  0  0  0
   14.1520  -15.1026   21.7711 C   0  0  2  0  0  0  0  0  0  0  0  0
   15.0254  -15.9102   22.6045 C   0  0  0  0  0  0  0  0  0  0  0  0
   16.1081  -15.0705   23.2602 C   0  0  0  0  0  0  0  0  0  0  0  0
   17.1906  -15.8959   23.8505 O   0  0  0  0  0  0  0  0  0  0  0  0
   18.1348  -15.4060   24.5281 C   0  0  0  0  0  0  0  0  0  0  0  0
   14.2437  -16.5135   23.6856 O   0  0  0  0  0  0  0  0  0  0  0  0
   13.0989  -16.0997   23.9723 O   0  0  0  0  0  0  0  0  0  0  0  0
   17.2183  -17.2882   23.6822 O   0  0  0  0  0  0  0  0  0  0  0  0
  2  1  1  1
  2  3  1  0
  3  4  1  0
  4  8  1  0
  4  5  2  0
  6  7  2  0
  6  2  1  0
  9 10  1  0
 10 11  2  0
 12 10  1  0
 12 13  1  0
 13 14  1  0
 14 15  1  0
 16 15  1  1
 16 17  1  0
 17  6  1  0
 18 20  1  0
 18 16  1  0
 19 18  2  0
 21 25  1  0
 21 20  1  0
 22 23  1  0
 21 22  1  6
 23 24  2  0
 25 28  1  0
 26 25  2  0
 27 23  1  0
M  END
$$$$
