DRD.pdb
     RDKit          3D

 28 27  0  0  1  0  0  0  0  0999 V2000
   10.8688  -19.1244   17.8495 N   0  0  0  0  0  0  0  0  0  0  0  0
   12.2607  -18.7229   18.1885 C   0  0  1  0  0  0  0  0  0  0  0  0
   12.9781  -18.2131   17.0113 C   0  0  0  0  0  0  0  0  0  0  0  0
   14.4284  -18.0425   17.2882 C   0  0  0  0  0  0  0  0  0  0  0  0
   15.0165  -18.7028   18.1701 O   0  0  0  0  0  0  0  0  0  0  0  0
   12.0827  -17.7869   19.3256 C   0  0  0  0  0  0  0  0  0  0  0  0
   13.1340  -17.3563   19.9475 O   0  0  0  0  0  0  0  0  0  0  0  0
   15.1992  -17.1189   16.5630 O   0  0  0  0  0  0  0  0  0  0  0  0
    7.1187  -14.4490   19.1303 N   0  0  0  0  0  0  0  0  0  0  0  0
    7.3494  -13.2252   19.8201 C   0  0  0  0  0  0  0  0  0  0  0  0
    7.3775  -12.1018   19.1976 N   0  0  0  0  0  0  0  0  0  0  0  0
    7.5564  -13.2306   21.2332 N   0  0  0  0  0  0  0  0  0  0  0  0
    7.6306  -14.4629   21.9906 C   0  0  0  0  0  0  0  0  0  0  0  0
    9.0713  -14.9401   22.1440 C   0  0  0  0  0  0  0  0  0  0  0  0
    9.4204  -15.8507   21.0192 C   0  0  0  0  0  0  0  0  0  0  0  0
   10.8493  -16.3355   20.9792 C   0  0  2  0  0  0  0  0  0  0  0  0
   10.8750  -17.2880   19.8412 N   0  0  0  0  0  0  0  0  0  0  0  0
   11.1918  -17.0175   22.2258 C   0  0  0  0  0  0  0  0  0  0  0  0
   10.6191  -18.1424   22.4804 O   0  0  0  0  0  0  0  0  0  0  0  0
    7.5392  -11.2186   19.7076 N   0  0  0  0  0  0  0  0  0  0  0  0
   12.1000  -16.6011   23.2195 C   0  0  2  0  0  0  0  0  0  0  0  0
   12.4211  -17.4120   24.3808 C   0  0  0  0  0  0  0  0  0  0  0  0
   13.7118  -16.9589   25.0413 C   0  0  0  0  0  0  0  0  0  0  0  0
   14.8670  -16.9814   24.1104 O   0  0  0  0  0  0  0  0  0  0  0  0
   14.8828  -17.6690   23.0532 C   0  0  0  0  0  0  0  0  0  0  0  0
   11.3607  -17.2703   25.3805 O   0  0  0  0  0  0  0  0  0  0  0  0
   10.4113  -16.4732   25.2158 O   0  0  0  0  0  0  0  0  0  0  0  0
   16.0206  -16.2245   24.3637 O   0  0  0  0  0  0  0  0  0  0  0  0
  2  1  1  6
  2  3  1  0
  3  4  1  0
  4  8  1  0
  4  5  2  0
  6  7  2  0
  6  2  1  0
  9 10  1  0
 10 11  2  0
 12 10  1  0
 12 13  1  0
 13 14  1  0
 14 15  1  0
 16 15  1  1
 16 17  1  0
 17  6  1  0
 18 20  1  0
 18 16  1  0
 19 18  2  0
 21 25  1  0
 21 20  1  0
 22 23  1  0
 21 22  1  6
 23 24  2  0
 25 28  1  0
 26 25  2  0
 27 23  1  0
M  END
$$$$
