DRD.pdb
     RDKit          3D

 28 27  0  0  1  0  0  0  0  0999 V2000
    9.6516  -21.5474   17.8675 N   0  0  0  0  0  0  0  0  0  0  0  0
    9.0652  -21.6331   19.2321 C   0  0  1  0  0  0  0  0  0  0  0  0
    9.5906  -22.7877   19.9747 C   0  0  0  0  0  0  0  0  0  0  0  0
    9.2506  -24.0690   19.3026 C   0  0  0  0  0  0  0  0  0  0  0  0
    8.1397  -24.2605   18.7651 O   0  0  0  0  0  0  0  0  0  0  0  0
    9.3256  -20.2897   19.8048 C   0  0  0  0  0  0  0  0  0  0  0  0
   10.4790  -19.7380   19.5981 O   0  0  0  0  0  0  0  0  0  0  0  0
   10.1749  -25.1254   19.2498 O   0  0  0  0  0  0  0  0  0  0  0  0
    7.9274  -12.8513   18.8679 N   0  0  0  0  0  0  0  0  0  0  0  0
    7.9735  -12.6293   20.2734 C   0  0  0  0  0  0  0  0  0  0  0  0
    8.1279  -11.4502   20.7594 N   0  0  0  0  0  0  0  0  0  0  0  0
    7.8479  -13.7305   21.1742 N   0  0  0  0  0  0  0  0  0  0  0  0
    7.6530  -15.0860   20.7026 C   0  0  0  0  0  0  0  0  0  0  0  0
    7.6124  -16.0806   21.8585 C   0  0  0  0  0  0  0  0  0  0  0  0
    7.5268  -17.4674   21.3240 C   0  0  0  0  0  0  0  0  0  0  0  0
    8.8430  -18.1607   21.0684 C   0  0  2  0  0  0  0  0  0  0  0  0
    8.4525  -19.5056   20.5769 N   0  0  0  0  0  0  0  0  0  0  0  0
    9.6105  -18.2710   22.3074 C   0  0  0  0  0  0  0  0  0  0  0  0
    9.2612  -19.1699   23.1608 O   0  0  0  0  0  0  0  0  0  0  0  0
    8.2439  -11.3083   21.7756 N   0  0  0  0  0  0  0  0  0  0  0  0
   10.7240  -17.5057   22.7075 C   0  0  2  0  0  0  0  0  0  0  0  0
   11.3914  -17.6960   23.9833 C   0  0  0  0  0  0  0  0  0  0  0  0
   12.9029  -17.6804   23.8330 C   0  0  0  0  0  0  0  0  0  0  0  0
   13.3826  -16.5401   23.0137 O   0  0  0  0  0  0  0  0  0  0  0  0
   12.6188  -15.6296   22.5914 C   0  0  0  0  0  0  0  0  0  0  0  0
   11.0434  -16.5941   24.8827 O   0  0  0  0  0  0  0  0  0  0  0  0
   11.5061  -16.5279   26.0426 O   0  0  0  0  0  0  0  0  0  0  0  0
   14.7347  -16.4147   22.6619 O   0  0  0  0  0  0  0  0  0  0  0  0
  2  1  1  6
  2  3  1  0
  3  4  1  0
  4  8  1  0
  4  5  2  0
  6  7  2  0
  6  2  1  0
  9 10  1  0
 10 11  2  0
 12 10  1  0
 12 13  1  0
 13 14  1  0
 14 15  1  0
 16 15  1  1
 16 17  1  0
 17  6  1  0
 18 20  1  0
 18 16  1  0
 19 18  2  0
 21 25  1  0
 21 20  1  0
 22 23  1  0
 21 22  1  6
 23 24  2  0
 25 28  1  0
 26 25  2  0
 27 23  1  0
M  END
$$$$
