DRD.pdb
     RDKit          3D

 28 27  0  0  1  0  0  0  0  0999 V2000
    9.2950  -15.4988   16.9182 N   0  0  0  0  0  0  0  0  0  0  0  0
    8.9179  -14.4705   17.9250 C   0  0  1  0  0  0  0  0  0  0  0  0
    7.6149  -13.8641   17.6164 C   0  0  0  0  0  0  0  0  0  0  0  0
    7.3383  -13.8797   16.1563 C   0  0  0  0  0  0  0  0  0  0  0  0
    8.1513  -14.3499   15.3331 O   0  0  0  0  0  0  0  0  0  0  0  0
    9.0356  -15.1918   19.2159 C   0  0  0  0  0  0  0  0  0  0  0  0
    8.7308  -14.5664   20.3083 O   0  0  0  0  0  0  0  0  0  0  0  0
    6.1406  -13.3565   15.6416 O   0  0  0  0  0  0  0  0  0  0  0  0
    5.0964  -19.1511   19.0151 N   0  0  0  0  0  0  0  0  0  0  0  0
    5.4454  -20.5089   19.2630 C   0  0  0  0  0  0  0  0  0  0  0  0
    4.7996  -21.4757   18.7166 N   0  0  0  0  0  0  0  0  0  0  0  0
    6.5330  -20.8182   20.1356 N   0  0  0  0  0  0  0  0  0  0  0  0
    7.1385  -19.8161   20.9880 C   0  0  0  0  0  0  0  0  0  0  0  0
    7.8117  -18.7182   20.1706 C   0  0  0  0  0  0  0  0  0  0  0  0
    9.2008  -18.5070   20.6624 C   0  0  0  0  0  0  0  0  0  0  0  0
    9.6492  -17.0707   20.7829 C   0  0  2  0  0  0  0  0  0  0  0  0
    9.4550  -16.5169   19.4197 N   0  0  0  0  0  0  0  0  0  0  0  0
   11.0583  -17.0066   21.1659 C   0  0  0  0  0  0  0  0  0  0  0  0
   11.9343  -17.4608   20.3386 O   0  0  0  0  0  0  0  0  0  0  0  0
    5.0792  -22.4565   18.8787 N   0  0  0  0  0  0  0  0  0  0  0  0
   11.6097  -16.4915   22.3561 C   0  0  2  0  0  0  0  0  0  0  0  0
   13.0331  -16.5257   22.6423 C   0  0  0  0  0  0  0  0  0  0  0  0
   13.4103  -15.5336   23.7289 C   0  0  0  0  0  0  0  0  0  0  0  0
   14.8745  -15.4717   23.9612 O   0  0  0  0  0  0  0  0  0  0  0  0
   15.6995  -16.1897   23.3332 C   0  0  0  0  0  0  0  0  0  0  0  0
   13.3973  -17.8550   23.1369 O   0  0  0  0  0  0  0  0  0  0  0  0
   14.3999  -18.4614   22.6999 O   0  0  0  0  0  0  0  0  0  0  0  0
   15.4248  -14.5948   24.9077 O   0  0  0  0  0  0  0  0  0  0  0  0
  2  1  1  6
  2  3  1  0
  3  4  1  0
  4  8  1  0
  4  5  2  0
  6  7  2  0
  6  2  1  0
  9 10  1  0
 10 11  2  0
 12 10  1  0
 12 13  1  0
 13 14  1  0
 14 15  1  0
 16 15  1  6
 16 17  1  0
 17  6  1  0
 18 20  1  0
 18 16  1  0
 19 18  2  0
 21 25  1  0
 21 20  1  0
 22 23  1  0
 21 22  1  1
 23 24  2  0
 25 28  1  0
 26 25  2  0
 27 23  1  0
M  END
$$$$
