DRD.pdb
     RDKit          3D

 28 27  0  0  1  0  0  0  0  0999 V2000
   12.8697  -18.8233   21.0043 N   0  0  0  0  0  0  0  0  0  0  0  0
   13.7899  -17.8317   21.6234 C   0  0  1  0  0  0  0  0  0  0  0  0
   14.6325  -17.1730   20.6150 C   0  0  0  0  0  0  0  0  0  0  0  0
   15.4323  -18.1601   19.8438 C   0  0  0  0  0  0  0  0  0  0  0  0
   15.2649  -18.3360   18.6188 O   0  0  0  0  0  0  0  0  0  0  0  0
   12.8818  -16.9637   22.4124 C   0  0  0  0  0  0  0  0  0  0  0  0
   13.3991  -16.0902   23.2168 O   0  0  0  0  0  0  0  0  0  0  0  0
   16.4145  -18.9437   20.4719 O   0  0  0  0  0  0  0  0  0  0  0  0
    7.1045  -11.6698   19.9707 N   0  0  0  0  0  0  0  0  0  0  0  0
    7.5833  -12.9988   19.7941 C   0  0  0  0  0  0  0  0  0  0  0  0
    7.4253  -13.6243   18.6831 N   0  0  0  0  0  0  0  0  0  0  0  0
    8.2543  -13.6638   20.8652 N   0  0  0  0  0  0  0  0  0  0  0  0
    7.5289  -14.2816   21.9559 C   0  0  0  0  0  0  0  0  0  0  0  0
    8.4747  -14.8046   23.0323 C   0  0  0  0  0  0  0  0  0  0  0  0
    9.4642  -15.7342   22.4219 C   0  0  0  0  0  0  0  0  0  0  0  0
   10.6934  -16.0279   23.2474 C   0  0  2  0  0  0  0  0  0  0  0  0
   11.4771  -16.9661   22.4058 N   0  0  0  0  0  0  0  0  0  0  0  0
   10.3202  -16.6621   24.5103 C   0  0  0  0  0  0  0  0  0  0  0  0
    9.4937  -16.0437   25.2801 O   0  0  0  0  0  0  0  0  0  0  0  0
    7.8794  -14.5375   18.5214 N   0  0  0  0  0  0  0  0  0  0  0  0
   10.7511  -17.9049   25.0158 C   0  0  1  0  0  0  0  0  0  0  0  0
   10.3055  -18.4308   26.2941 C   0  0  0  0  0  0  0  0  0  0  0  0
   10.4261  -19.9440   26.3503 C   0  0  0  0  0  0  0  0  0  0  0  0
    9.9189  -20.6024   25.1211 O   0  0  0  0  0  0  0  0  0  0  0  0
   10.4721  -21.6117   24.6054 C   0  0  0  0  0  0  0  0  0  0  0  0
   11.1548  -17.8979   27.3613 O   0  0  0  0  0  0  0  0  0  0  0  0
   12.1348  -17.1631   27.1095 O   0  0  0  0  0  0  0  0  0  0  0  0
    8.7771  -20.1271   24.4593 O   0  0  0  0  0  0  0  0  0  0  0  0
  2  1  1  6
  2  3  1  0
  3  4  1  0
  4  8  1  0
  4  5  2  0
  6  7  2  0
  6  2  1  0
  9 10  1  0
 10 11  2  0
 12 10  1  0
 12 13  1  0
 13 14  1  0
 14 15  1  0
 16 15  1  6
 16 17  1  0
 17  6  1  0
 18 20  1  0
 18 16  1  0
 19 18  2  0
 21 25  1  0
 21 20  1  0
 22 23  1  0
 21 22  1  1
 23 24  2  0
 25 28  1  0
 26 25  2  0
 27 23  1  0
M  END
$$$$
