SCC.pdb
     RDKit          3D

 19 18  0  0  1  0  0  0  0  0999 V2000
    8.8448  -18.3493   22.7813 O   0  0  0  0  0  0  0  0  0  0  0  0
    7.9096  -17.7410   21.9393 C   0  0  0  0  0  0  0  0  0  0  0  0
    8.4666  -16.3798   21.5837 C   0  0  2  0  0  0  0  0  0  0  0  0
    9.5592  -16.5609   20.6848 N   0  0  0  0  0  0  0  0  0  0  0  0
    8.8343  -15.6032   22.7990 C   0  0  0  0  0  0  0  0  0  0  0  0
   10.0114  -15.5271   23.1772 O   0  0  0  0  0  0  0  0  0  0  0  0
    7.7944  -14.9519   23.5119 N   0  0  0  0  0  0  0  0  0  0  0  0
    7.9353  -14.2088   24.7253 C   0  0  1  0  0  0  0  0  0  0  0  0
    6.7581  -13.3406   25.0248 C   0  0  0  0  0  0  0  0  0  0  0  0
    6.6089  -12.9503   26.7850 S   0  0  0  0  0  0  0  0  0  0  0  0
    8.4141  -15.0171   25.8882 C   0  0  0  0  0  0  0  0  0  0  0  0
    7.7653  -15.9949   26.3202 O   0  0  0  0  0  0  0  0  0  0  0  0
    9.6265  -14.6879   26.5304 N   0  0  0  0  0  0  0  0  0  0  0  0
   10.1482  -15.3252   27.7193 C   0  0  1  0  0  0  0  0  0  0  0  0
    9.4550  -14.9649   28.9785 C   0  0  0  0  0  0  0  0  0  0  0  0
    9.3723  -13.2038   29.2943 S   0  0  0  0  0  0  0  0  0  0  0  0
   10.3245  -16.7931   27.5027 C   0  0  0  0  0  0  0  0  0  0  0  0
   10.0479  -17.3533   26.4215 O   0  0  0  0  0  0  0  0  0  0  0  0
   10.8043  -17.5454   28.5318 O   0  0  0  0  0  0  0  0  0  0  0  0
  1  2  1  0
  2  3  1  0
  3  5  1  0
  3  4  1  6
  5  6  2  0
  7  8  1  0
  7  5  1  0
  9 10  1  0
  8  9  1  1
 11  8  1  0
 11 12  2  0
 13 11  1  0
 14 13  1  0
 14 17  1  0
 14 15  1  1
 16 15  1  0
 17 18  2  0
 17 19  1  0
M  END
$$$$
