SCC.pdb
     RDKit          3D

 19 18  0  0  1  0  0  0  0  0999 V2000
    9.5796  -19.9479   17.0876 O   0  0  0  0  0  0  0  0  0  0  0  0
    9.5178  -19.1860   18.2578 C   0  0  0  0  0  0  0  0  0  0  0  0
    9.5957  -17.7351   17.8357 C   0  0  2  0  0  0  0  0  0  0  0  0
   10.3552  -17.6565   16.6309 N   0  0  0  0  0  0  0  0  0  0  0  0
   10.1377  -16.8759   18.9234 C   0  0  0  0  0  0  0  0  0  0  0  0
   11.3331  -16.5519   18.9466 O   0  0  0  0  0  0  0  0  0  0  0  0
    9.2427  -16.4387   19.9340 N   0  0  0  0  0  0  0  0  0  0  0  0
    9.5879  -15.7082   21.1137 C   0  0  1  0  0  0  0  0  0  0  0  0
    8.4550  -14.9058   21.6629 C   0  0  0  0  0  0  0  0  0  0  0  0
    7.8087  -15.5804   23.2121 S   0  0  0  0  0  0  0  0  0  0  0  0
   10.3265  -16.5091   22.1375 C   0  0  0  0  0  0  0  0  0  0  0  0
   10.0733  -17.7178   22.3339 O   0  0  0  0  0  0  0  0  0  0  0  0
   11.3399  -15.9077   22.9135 N   0  0  0  0  0  0  0  0  0  0  0  0
   12.1454  -16.5785   23.9098 C   0  0  1  0  0  0  0  0  0  0  0  0
   13.5183  -16.0437   24.0690 C   0  0  0  0  0  0  0  0  0  0  0  0
   14.4140  -15.8477   22.5304 S   0  0  0  0  0  0  0  0  0  0  0  0
   11.3871  -16.7397   25.1872 C   0  0  0  0  0  0  0  0  0  0  0  0
   10.2646  -16.2259   25.3746 O   0  0  0  0  0  0  0  0  0  0  0  0
   11.9505  -17.4761   26.1850 O   0  0  0  0  0  0  0  0  0  0  0  0
  1  2  1  0
  2  3  1  0
  3  5  1  0
  3  4  1  6
  5  6  2  0
  7  8  1  0
  7  5  1  0
  9 10  1  0
  8  9  1  1
 11  8  1  0
 11 12  2  0
 13 11  1  0
 14 13  1  0
 14 17  1  0
 14 15  1  1
 16 15  1  0
 17 18  2  0
 17 19  1  0
M  END
$$$$
