SCC.pdb
     RDKit          3D

 19 18  0  0  1  0  0  0  0  0999 V2000
    6.9296  -18.3373   19.8748 O   0  0  0  0  0  0  0  0  0  0  0  0
    6.4600  -17.1084   19.4027 C   0  0  0  0  0  0  0  0  0  0  0  0
    7.6535  -16.1798   19.3477 C   0  0  2  0  0  0  0  0  0  0  0  0
    8.5822  -16.6957   18.3960 N   0  0  0  0  0  0  0  0  0  0  0  0
    8.2522  -15.9760   20.6950 C   0  0  0  0  0  0  0  0  0  0  0  0
    9.2902  -16.5638   21.0288 O   0  0  0  0  0  0  0  0  0  0  0  0
    7.5972  -15.0871   21.5863 N   0  0  0  0  0  0  0  0  0  0  0  0
    7.9597  -14.8297   22.9453 C   0  0  1  0  0  0  0  0  0  0  0  0
    7.0996  -13.7998   23.5998 C   0  0  0  0  0  0  0  0  0  0  0  0
    7.5722  -13.4853   25.3175 S   0  0  0  0  0  0  0  0  0  0  0  0
    8.1775  -16.0600   23.7661 C   0  0  0  0  0  0  0  0  0  0  0  0
    7.3326  -16.9812   23.8061 O   0  0  0  0  0  0  0  0  0  0  0  0
    9.3589  -16.2086   24.5229 N   0  0  0  0  0  0  0  0  0  0  0  0
    9.7604  -17.4055   25.2285 C   0  0  1  0  0  0  0  0  0  0  0  0
   10.2546  -18.5048   24.3664 C   0  0  0  0  0  0  0  0  0  0  0  0
   10.6323  -20.0175   25.2479 S   0  0  0  0  0  0  0  0  0  0  0  0
   10.6488  -17.0706   26.3824 C   0  0  0  0  0  0  0  0  0  0  0  0
   11.1228  -15.9290   26.5595 O   0  0  0  0  0  0  0  0  0  0  0  0
   10.9522  -18.0563   27.2721 O   0  0  0  0  0  0  0  0  0  0  0  0
  1  2  1  0
  2  3  1  0
  3  5  1  0
  3  4  1  6
  5  6  2  0
  7  8  1  0
  7  5  1  0
  9 10  1  0
  8  9  1  1
 11  8  1  0
 11 12  2  0
 13 11  1  0
 14 13  1  0
 14 17  1  0
 14 15  1  6
 16 15  1  0
 17 18  2  0
 17 19  1  0
M  END
$$$$
