SCC.pdb
     RDKit          3D

 19 18  0  0  1  0  0  0  0  0999 V2000
   12.2614  -15.5750   19.6587 O   0  0  0  0  0  0  0  0  0  0  0  0
   11.1765  -15.2945   20.4941 C   0  0  0  0  0  0  0  0  0  0  0  0
   10.4889  -16.6138   20.7702 C   0  0  2  0  0  0  0  0  0  0  0  0
    9.6055  -16.8969   19.6866 N   0  0  0  0  0  0  0  0  0  0  0  0
    9.8064  -16.6102   22.0928 C   0  0  0  0  0  0  0  0  0  0  0  0
    8.6112  -16.3011   22.1946 O   0  0  0  0  0  0  0  0  0  0  0  0
   10.5672  -16.9720   23.2347 N   0  0  0  0  0  0  0  0  0  0  0  0
   10.0889  -17.0576   24.5794 C   0  0  1  0  0  0  0  0  0  0  0  0
   10.0646  -18.4534   25.1088 C   0  0  0  0  0  0  0  0  0  0  0  0
    9.7169  -18.5209   26.8828 S   0  0  0  0  0  0  0  0  0  0  0  0
   10.6945  -16.0576   25.5113 C   0  0  0  0  0  0  0  0  0  0  0  0
   11.9330  -15.9115   25.6035 O   0  0  0  0  0  0  0  0  0  0  0  0
    9.8678  -15.2462   26.3168 N   0  0  0  0  0  0  0  0  0  0  0  0
   10.3286  -14.2556   27.2643 C   0  0  1  0  0  0  0  0  0  0  0  0
    9.4717  -13.0519   27.3785 C   0  0  0  0  0  0  0  0  0  0  0  0
    7.7206  -13.4055   27.5064 S   0  0  0  0  0  0  0  0  0  0  0  0
   10.6869  -14.8918   28.5680 C   0  0  0  0  0  0  0  0  0  0  0  0
   11.2977  -14.2823   29.4706 O   0  0  0  0  0  0  0  0  0  0  0  0
   10.3323  -16.1909   28.7724 O   0  0  0  0  0  0  0  0  0  0  0  0
  1  2  1  0
  2  3  1  0
  3  5  1  0
  3  4  1  6
  5  6  2  0
  7  8  1  0
  7  5  1  0
  9 10  1  0
  8  9  1  1
 11  8  1  0
 11 12  2  0
 13 11  1  0
 14 13  1  0
 14 17  1  0
 14 15  1  1
 16 15  1  0
 17 18  2  0
 17 19  1  0
M  END
$$$$
