SCC.pdb
     RDKit          3D

 19 18  0  0  1  0  0  0  0  0999 V2000
    6.7196  -19.0524   18.7948 O   0  0  0  0  0  0  0  0  0  0  0  0
    7.9595  -19.6722   18.9737 C   0  0  0  0  0  0  0  0  0  0  0  0
    8.4962  -19.1931   20.3049 C   0  0  2  0  0  0  0  0  0  0  0  0
    7.5232  -19.4726   21.3098 N   0  0  0  0  0  0  0  0  0  0  0  0
    8.8862  -17.7577   20.2544 C   0  0  0  0  0  0  0  0  0  0  0  0
    9.7575  -17.3593   19.4693 O   0  0  0  0  0  0  0  0  0  0  0  0
    8.2290  -16.8586   21.1338 N   0  0  0  0  0  0  0  0  0  0  0  0
    8.5585  -15.4828   21.3410 C   0  0  1  0  0  0  0  0  0  0  0  0
    7.3610  -14.5941   21.4126 C   0  0  0  0  0  0  0  0  0  0  0  0
    5.9964  -15.1773   20.3780 S   0  0  0  0  0  0  0  0  0  0  0  0
    9.5631  -15.2483   22.4230 C   0  0  0  0  0  0  0  0  0  0  0  0
    9.3417  -14.4554   23.3643 O   0  0  0  0  0  0  0  0  0  0  0  0
   10.7994  -15.9279   22.4034 N   0  0  0  0  0  0  0  0  0  0  0  0
   11.5619  -16.3198   23.5681 C   0  0  1  0  0  0  0  0  0  0  0  0
   10.7941  -17.0534   24.6017 C   0  0  0  0  0  0  0  0  0  0  0  0
    9.9776  -15.9993   25.7976 S   0  0  0  0  0  0  0  0  0  0  0  0
   12.8477  -16.9681   23.1693 C   0  0  0  0  0  0  0  0  0  0  0  0
   13.9345  -16.7107   23.7278 O   0  0  0  0  0  0  0  0  0  0  0  0
   12.8269  -17.8738   22.1521 O   0  0  0  0  0  0  0  0  0  0  0  0
  1  2  1  0
  2  3  1  0
  3  5  1  0
  3  4  1  1
  5  6  2  0
  7  8  1  0
  7  5  1  0
  9 10  1  0
  8  9  1  1
 11  8  1  0
 11 12  2  0
 13 11  1  0
 14 13  1  0
 14 17  1  0
 14 15  1  6
 16 15  1  0
 17 18  2  0
 17 19  1  0
M  END
$$$$
