SCC.pdb
     RDKit          3D

 19 18  0  0  1  0  0  0  0  0999 V2000
    1.5897  -19.0582   16.6386 O   0  0  0  0  0  0  0  0  0  0  0  0
    1.9166  -18.8446   17.9807 C   0  0  0  0  0  0  0  0  0  0  0  0
    1.2021  -19.9146   18.7770 C   0  0  2  0  0  0  0  0  0  0  0  0
   -0.1944  -19.8247   18.5009 N   0  0  0  0  0  0  0  0  0  0  0  0
    1.5165  -19.8196   20.2286 C   0  0  0  0  0  0  0  0  0  0  0  0
    0.7601  -19.2251   21.0090 O   0  0  0  0  0  0  0  0  0  0  0  0
    2.7101  -20.4313   20.6920 N   0  0  0  0  0  0  0  0  0  0  0  0
    3.1880  -20.4438   22.0395 C   0  0  1  0  0  0  0  0  0  0  0  0
    3.0562  -21.7766   22.6994 C   0  0  0  0  0  0  0  0  0  0  0  0
    3.6621  -21.7743   24.4039 S   0  0  0  0  0  0  0  0  0  0  0  0
    4.5231  -19.7967   22.2235 C   0  0  0  0  0  0  0  0  0  0  0  0
    5.5033  -20.0978   21.5077 O   0  0  0  0  0  0  0  0  0  0  0  0
    4.7059  -18.8180   23.2231 N   0  0  0  0  0  0  0  0  0  0  0  0
    5.9744  -18.2471   23.6187 C   0  0  1  0  0  0  0  0  0  0  0  0
    5.8841  -17.1371   24.5964 C   0  0  0  0  0  0  0  0  0  0  0  0
    7.4589  -16.3900   25.0082 S   0  0  0  0  0  0  0  0  0  0  0  0
    6.9509  -19.3187   23.9806 C   0  0  0  0  0  0  0  0  0  0  0  0
    6.6708  -20.2497   24.7641 O   0  0  0  0  0  0  0  0  0  0  0  0
    8.1966  -19.2703   23.4319 O   0  0  0  0  0  0  0  0  0  0  0  0
  1  2  1  0
  2  3  1  0
  3  5  1  0
  3  4  1  1
  5  6  2  0
  7  8  1  0
  7  5  1  0
  9 10  1  0
  8  9  1  6
 11  8  1  0
 11 12  2  0
 13 11  1  0
 14 13  1  0
 14 17  1  0
 14 15  1  1
 16 15  1  0
 17 18  2  0
 17 19  1  0
M  END
$$$$
