SCC.pdb
     RDKit          3D

 19 18  0  0  1  0  0  0  0  0999 V2000
    6.6509  -18.4164   17.2992 O   0  0  0  0  0  0  0  0  0  0  0  0
    7.3684  -19.0691   18.3056 C   0  0  0  0  0  0  0  0  0  0  0  0
    7.0303  -18.3687   19.6036 C   0  0  2  0  0  0  0  0  0  0  0  0
    5.6601  -17.9752   19.5595 N   0  0  0  0  0  0  0  0  0  0  0  0
    7.9546  -17.2332   19.8708 C   0  0  0  0  0  0  0  0  0  0  0  0
    9.1733  -17.4165   19.9951 O   0  0  0  0  0  0  0  0  0  0  0  0
    7.3967  -15.9329   19.9790 N   0  0  0  0  0  0  0  0  0  0  0  0
    8.0996  -14.7345   20.3170 C   0  0  1  0  0  0  0  0  0  0  0  0
    7.4569  -13.5011   19.7741 C   0  0  0  0  0  0  0  0  0  0  0  0
    7.1963  -13.5795   17.9857 S   0  0  0  0  0  0  0  0  0  0  0  0
    8.4941  -14.6393   21.7559 C   0  0  0  0  0  0  0  0  0  0  0  0
    7.7985  -14.0166   22.5879 O   0  0  0  0  0  0  0  0  0  0  0  0
    9.6767  -15.2602   22.2104 N   0  0  0  0  0  0  0  0  0  0  0  0
   10.0751  -15.3990   23.5937 C   0  0  1  0  0  0  0  0  0  0  0  0
    9.0102  -15.8756   24.5074 C   0  0  0  0  0  0  0  0  0  0  0  0
    8.0001  -14.5705   25.2034 S   0  0  0  0  0  0  0  0  0  0  0  0
   11.3683  -16.1394   23.7035 C   0  0  0  0  0  0  0  0  0  0  0  0
   11.8963  -16.7223   22.7335 O   0  0  0  0  0  0  0  0  0  0  0  0
   11.9900  -16.1787   24.9148 O   0  0  0  0  0  0  0  0  0  0  0  0
  1  2  1  0
  2  3  1  0
  3  5  1  0
  3  4  1  6
  5  6  2  0
  7  8  1  0
  7  5  1  0
  9 10  1  0
  8  9  1  1
 11  8  1  0
 11 12  2  0
 13 11  1  0
 14 13  1  0
 14 17  1  0
 14 15  1  1
 16 15  1  0
 17 18  2  0
 17 19  1  0
M  END
$$$$
