SCC.pdb
     RDKit          3D

 19 18  0  0  1  0  0  0  0  0999 V2000
   10.1213  -18.9615   16.6305 O   0  0  0  0  0  0  0  0  0  0  0  0
    8.9145  -18.8231   17.3220 C   0  0  0  0  0  0  0  0  0  0  0  0
    8.5735  -17.3489   17.3091 C   0  0  2  0  0  0  0  0  0  0  0  0
    9.3074  -16.7259   16.2565 N   0  0  0  0  0  0  0  0  0  0  0  0
    8.8108  -16.7196   18.6368 C   0  0  0  0  0  0  0  0  0  0  0  0
    9.7249  -15.9000   18.8016 O   0  0  0  0  0  0  0  0  0  0  0  0
    7.9573  -17.0873   19.7091 N   0  0  0  0  0  0  0  0  0  0  0  0
    8.2176  -16.8990   21.1024 C   0  0  1  0  0  0  0  0  0  0  0  0
    7.0370  -17.1928   21.9677 C   0  0  0  0  0  0  0  0  0  0  0  0
    5.5399  -17.5370   21.0121 S   0  0  0  0  0  0  0  0  0  0  0  0
    9.4951  -17.5138   21.5768 C   0  0  0  0  0  0  0  0  0  0  0  0
   10.2746  -18.0970   20.7919 O   0  0  0  0  0  0  0  0  0  0  0  0
    9.8522  -17.4463   22.9401 N   0  0  0  0  0  0  0  0  0  0  0  0
   11.1797  -17.1823   23.4494 C   0  0  1  0  0  0  0  0  0  0  0  0
   11.8675  -16.0228   22.8341 C   0  0  0  0  0  0  0  0  0  0  0  0
   13.3421  -16.4479   21.9105 S   0  0  0  0  0  0  0  0  0  0  0  0
   11.1883  -17.1913   24.9436 C   0  0  0  0  0  0  0  0  0  0  0  0
   10.2224  -16.7905   25.6260 O   0  0  0  0  0  0  0  0  0  0  0  0
   12.2995  -17.6542   25.5810 O   0  0  0  0  0  0  0  0  0  0  0  0
  1  2  1  0
  2  3  1  0
  3  5  1  0
  3  4  1  6
  5  6  2  0
  7  8  1  0
  7  5  1  0
  9 10  1  0
  8  9  1  1
 11  8  1  0
 11 12  2  0
 13 11  1  0
 14 13  1  0
 14 17  1  0
 14 15  1  1
 16 15  1  0
 17 18  2  0
 17 19  1  0
M  END
$$$$
