SCC.pdb
     RDKit          3D

 19 18  0  0  1  0  0  0  0  0999 V2000
   -2.8257  -27.5754   32.8797 O   0  0  0  0  0  0  0  0  0  0  0  0
   -1.9393  -26.5970   32.4209 C   0  0  0  0  0  0  0  0  0  0  0  0
   -1.7800  -26.8190   30.9327 C   0  0  2  0  0  0  0  0  0  0  0  0
   -0.3964  -26.7042   30.6056 N   0  0  0  0  0  0  0  0  0  0  0  0
   -2.6435  -25.8974   30.1452 C   0  0  0  0  0  0  0  0  0  0  0  0
   -2.3759  -24.6913   30.0551 O   0  0  0  0  0  0  0  0  0  0  0  0
   -3.7837  -26.4429   29.5002 N   0  0  0  0  0  0  0  0  0  0  0  0
   -4.7275  -25.7274   28.6992 C   0  0  1  0  0  0  0  0  0  0  0  0
   -5.3302  -26.5583   27.6150 C   0  0  0  0  0  0  0  0  0  0  0  0
   -4.1935  -26.8367   26.2355 S   0  0  0  0  0  0  0  0  0  0  0  0
   -5.7183  -24.9289   29.4839 C   0  0  0  0  0  0  0  0  0  0  0  0
   -6.2746  -25.3916   30.5039 O   0  0  0  0  0  0  0  0  0  0  0  0
   -6.0496  -23.6173   29.0835 N   0  0  0  0  0  0  0  0  0  0  0  0
   -6.9517  -22.7279   29.7810 C   0  0  1  0  0  0  0  0  0  0  0  0
   -6.4040  -21.3819   30.0717 C   0  0  0  0  0  0  0  0  0  0  0  0
   -7.5802  -20.2544   30.8156 S   0  0  0  0  0  0  0  0  0  0  0  0
   -8.3007  -22.7266   29.1386 C   0  0  0  0  0  0  0  0  0  0  0  0
   -8.4580  -22.7572   27.9002 O   0  0  0  0  0  0  0  0  0  0  0  0
   -9.3996  -22.6874   29.9424 O   0  0  0  0  0  0  0  0  0  0  0  0
  1  2  1  0
  2  3  1  0
  3  5  1  0
  3  4  1  6
  5  6  2  0
  7  8  1  0
  7  5  1  0
  9 10  1  0
  8  9  1  1
 11  8  1  0
 11 12  2  0
 13 11  1  0
 14 13  1  0
 14 17  1  0
 14 15  1  6
 16 15  1  0
 17 18  2  0
 17 19  1  0
M  END
$$$$
