NEG.pdb
     RDKit          3D

 22 21  0  0  1  0  0  0  0  0999 V2000
   16.3959  -13.9053  -15.4088 N   0  0  0  0  0  0  0  0  0  0  0  0
   16.6619  -12.5827  -14.9561 C   0  0  0  0  0  0  0  0  0  0  0  0
   15.7481  -11.8325  -14.4846 O   0  0  0  0  0  0  0  0  0  0  0  0
   18.0306  -12.0209  -15.0169 C   0  0  0  0  0  0  0  0  0  0  0  0
   18.0135  -10.5838  -15.5224 C   0  0  2  0  0  0  0  0  0  0  0  0
   17.6550  -10.5632  -16.9326 N   0  0  0  0  0  0  0  0  0  0  0  0
   19.2969   -9.9126  -15.3222 C   0  0  0  0  0  0  0  0  0  0  0  0
   19.8553   -9.9672  -14.1942 O   0  0  0  0  0  0  0  0  0  0  0  0
   19.9346   -9.2007  -16.3620 N   0  0  0  0  0  0  0  0  0  0  0  0
   21.1936   -8.4845  -16.0931 C   0  0  1  0  0  0  0  0  0  0  0  0
   22.0466   -8.5633  -17.3256 C   0  0  0  0  0  0  0  0  0  0  0  0
   22.5761   -9.9130  -17.6447 C   0  0  0  0  0  0  0  0  0  0  0  0
   23.3944   -9.9161  -18.8768 C   0  0  0  0  0  0  0  0  0  0  0  0
   23.2732  -10.7432  -19.8150 O   0  0  0  0  0  0  0  0  0  0  0  0
   20.8926   -7.0600  -15.7668 C   0  0  0  0  0  0  0  0  0  0  0  0
   20.0327   -6.4641  -16.4603 O   0  0  0  0  0  0  0  0  0  0  0  0
   24.3901   -8.9439  -19.0550 O   0  0  0  0  0  0  0  0  0  0  0  0
   21.5333   -6.3649  -14.7179 N   0  0  0  0  0  0  0  0  0  0  0  0
   21.3066   -4.9545  -14.4609 C   0  0  0  0  0  0  0  0  0  0  0  0
   21.9547   -4.4901  -13.2313 C   0  0  0  0  0  0  0  0  0  0  0  0
   21.9586   -3.2681  -12.9707 O   0  0  0  0  0  0  0  0  0  0  0  0
   22.5686   -5.3542  -12.3366 O   0  0  0  0  0  0  0  0  0  0  0  0
  1  2  1  0
  2  4  1  0
  2  3  2  0
  5  6  1  6
  5  4  1  0
  7  5  1  0
  7  8  2  0
  9  7  1  0
 10  9  1  0
 10 15  1  0
 10 11  1  6
 12 11  1  0
 12 13  1  0
 13 14  2  0
 15 16  2  0
 15 18  1  0
 17 13  1  0
 18 19  1  0
 19 20  1  0
 20 22  1  0
 21 20  2  0
M  END
$$$$
