NEG.pdb
     RDKit          3D

 22 21  0  0  1  0  0  0  0  0999 V2000
   28.9853  -11.3325  -17.1845 N   0  0  0  0  0  0  0  0  0  0  0  0
   27.9228  -11.6510  -18.0758 C   0  0  0  0  0  0  0  0  0  0  0  0
   28.0476  -12.5254  -18.9923 O   0  0  0  0  0  0  0  0  0  0  0  0
   26.6131  -10.9681  -17.9698 C   0  0  0  0  0  0  0  0  0  0  0  0
   26.6423   -9.8855  -16.8983 C   0  0  2  0  0  0  0  0  0  0  0  0
   26.9704  -10.4775  -15.6102 N   0  0  0  0  0  0  0  0  0  0  0  0
   25.3743   -9.1628  -16.8087 C   0  0  0  0  0  0  0  0  0  0  0  0
   24.5345   -9.4918  -15.9292 O   0  0  0  0  0  0  0  0  0  0  0  0
   25.0604   -8.0995  -17.6836 N   0  0  0  0  0  0  0  0  0  0  0  0
   23.8202   -7.3298  -17.4840 C   0  0  1  0  0  0  0  0  0  0  0  0
   23.9234   -6.6131  -16.1694 C   0  0  0  0  0  0  0  0  0  0  0  0
   22.7439   -5.7898  -15.8021 C   0  0  0  0  0  0  0  0  0  0  0  0
   22.9104   -5.1279  -14.4899 C   0  0  0  0  0  0  0  0  0  0  0  0
   23.4553   -4.0089  -14.3162 O   0  0  0  0  0  0  0  0  0  0  0  0
   23.6644   -6.3459  -18.5948 C   0  0  0  0  0  0  0  0  0  0  0  0
   24.6835   -5.7217  -18.9785 O   0  0  0  0  0  0  0  0  0  0  0  0
   22.4411   -5.7569  -13.3269 O   0  0  0  0  0  0  0  0  0  0  0  0
   22.4253   -6.0934  -19.2232 N   0  0  0  0  0  0  0  0  0  0  0  0
   21.4324   -7.1297  -19.4398 C   0  0  0  0  0  0  0  0  0  0  0  0
   20.2841   -6.6616  -20.2206 C   0  0  0  0  0  0  0  0  0  0  0  0
   19.6417   -7.4831  -20.9089 O   0  0  0  0  0  0  0  0  0  0  0  0
   19.8751   -5.3362  -20.2290 O   0  0  0  0  0  0  0  0  0  0  0  0
  1  2  1  0
  2  4  1  0
  2  3  2  0
  5  6  1  1
  5  4  1  0
  7  5  1  0
  7  8  2  0
  9  7  1  0
 10  9  1  0
 10 15  1  0
 10 11  1  1
 12 11  1  0
 12 13  1  0
 13 14  2  0
 15 16  2  0
 15 18  1  0
 17 13  1  0
 18 19  1  0
 19 20  1  0
 20 22  1  0
 21 20  2  0
M  END
$$$$
