NEG.pdb
     RDKit          3D

 22 21  0  0  1  0  0  0  0  0999 V2000
   28.3260  -20.4736  -14.0860 N   0  0  0  0  0  0  0  0  0  0  0  0
   27.7827  -19.6506  -15.1119 C   0  0  0  0  0  0  0  0  0  0  0  0
   28.4718  -18.7536  -15.6956 O   0  0  0  0  0  0  0  0  0  0  0  0
   26.3758  -19.8084  -15.5458 C   0  0  0  0  0  0  0  0  0  0  0  0
   25.6701  -20.8926  -14.7411 C   0  0  2  0  0  0  0  0  0  0  0  0
   26.3609  -22.1615  -14.9146 N   0  0  0  0  0  0  0  0  0  0  0  0
   24.2640  -21.0325  -15.1170 C   0  0  0  0  0  0  0  0  0  0  0  0
   23.9551  -21.7529  -16.1033 O   0  0  0  0  0  0  0  0  0  0  0  0
   23.2344  -20.3808  -14.4030 N   0  0  0  0  0  0  0  0  0  0  0  0
   21.8322  -20.5538  -14.8201 C   0  0  1  0  0  0  0  0  0  0  0  0
   21.1132  -21.3040  -13.7370 C   0  0  0  0  0  0  0  0  0  0  0  0
   19.6766  -21.5720  -13.9980 C   0  0  0  0  0  0  0  0  0  0  0  0
   19.0389  -22.3257  -12.8967 C   0  0  0  0  0  0  0  0  0  0  0  0
   18.0742  -21.9085  -12.2079 O   0  0  0  0  0  0  0  0  0  0  0  0
   21.2064  -19.2141  -15.0195 C   0  0  0  0  0  0  0  0  0  0  0  0
   21.3079  -18.3711  -14.0951 O   0  0  0  0  0  0  0  0  0  0  0  0
   19.5115  -23.6033  -12.5608 O   0  0  0  0  0  0  0  0  0  0  0  0
   20.5110  -18.8636  -16.1974 N   0  0  0  0  0  0  0  0  0  0  0  0
   19.9184  -17.5536  -16.3957 C   0  0  0  0  0  0  0  0  0  0  0  0
   18.6213  -17.4103  -15.7290 C   0  0  0  0  0  0  0  0  0  0  0  0
   18.0023  -18.4371  -15.3769 O   0  0  0  0  0  0  0  0  0  0  0  0
   18.0459  -16.1753  -15.4689 O   0  0  0  0  0  0  0  0  0  0  0  0
  1  2  1  0
  2  4  1  0
  2  3  2  0
  5  6  1  6
  5  4  1  0
  7  5  1  0
  7  8  2  0
  9  7  1  0
 10  9  1  0
 10 15  1  0
 10 11  1  1
 12 11  1  0
 12 13  1  0
 13 14  2  0
 15 16  2  0
 15 18  1  0
 17 13  1  0
 18 19  1  0
 19 20  1  0
 20 22  1  0
 21 20  2  0
M  END
$$$$
