NEG.pdb
     RDKit          3D

 22 21  0  0  1  0  0  0  0  0999 V2000
   19.2202  -14.9395  -16.5054 N   0  0  0  0  0  0  0  0  0  0  0  0
   20.2927  -14.2740  -15.8483 C   0  0  0  0  0  0  0  0  0  0  0  0
   21.1299  -14.8966  -15.1192 O   0  0  0  0  0  0  0  0  0  0  0  0
   20.4784  -12.8118  -15.9894 C   0  0  0  0  0  0  0  0  0  0  0  0
   19.3216  -12.1814  -16.7545 C   0  0  2  0  0  0  0  0  0  0  0  0
   19.4073  -12.5438  -18.1612 N   0  0  0  0  0  0  0  0  0  0  0  0
   19.2935  -10.7264  -16.6131 C   0  0  0  0  0  0  0  0  0  0  0  0
   19.8316  -10.0075  -17.4967 O   0  0  0  0  0  0  0  0  0  0  0  0
   18.6768  -10.0978  -15.5089 N   0  0  0  0  0  0  0  0  0  0  0  0
   18.6426   -8.6272  -15.4295 C   0  0  1  0  0  0  0  0  0  0  0  0
   17.2465   -8.2127  -15.0663 C   0  0  0  0  0  0  0  0  0  0  0  0
   16.2675   -8.2378  -16.1821 C   0  0  0  0  0  0  0  0  0  0  0  0
   14.9184   -7.8102  -15.7522 C   0  0  0  0  0  0  0  0  0  0  0  0
   14.1423   -8.4965  -15.0409 O   0  0  0  0  0  0  0  0  0  0  0  0
   19.6036   -8.1656  -14.3857 C   0  0  0  0  0  0  0  0  0  0  0  0
   19.6500   -8.7997  -13.3035 O   0  0  0  0  0  0  0  0  0  0  0  0
   14.4271   -6.5554  -16.1426 O   0  0  0  0  0  0  0  0  0  0  0  0
   20.4534   -7.0528  -14.5685 N   0  0  0  0  0  0  0  0  0  0  0  0
   21.4228   -6.6366  -13.5716 C   0  0  0  0  0  0  0  0  0  0  0  0
   22.1879   -5.4560  -13.9818 C   0  0  0  0  0  0  0  0  0  0  0  0
   22.0803   -5.0396  -15.1549 O   0  0  0  0  0  0  0  0  0  0  0  0
   23.0328   -4.7746  -13.1182 O   0  0  0  0  0  0  0  0  0  0  0  0
  1  2  1  0
  2  4  1  0
  2  3  2  0
  5  6  1  6
  5  4  1  0
  7  5  1  0
  7  8  2  0
  9  7  1  0
 10  9  1  0
 10 15  1  0
 10 11  1  1
 12 11  1  0
 12 13  1  0
 13 14  2  0
 15 16  2  0
 15 18  1  0
 17 13  1  0
 18 19  1  0
 19 20  1  0
 20 22  1  0
 21 20  2  0
M  END
$$$$
