NEG.pdb
     RDKit          3D

 22 21  0  0  1  0  0  0  0  0999 V2000
   11.0558  -11.3343  -10.4284 N   0  0  0  0  0  0  0  0  0  0  0  0
   11.9395  -11.2975  -11.5431 C   0  0  0  0  0  0  0  0  0  0  0  0
   11.6489  -11.8441  -12.6552 O   0  0  0  0  0  0  0  0  0  0  0  0
   13.2491  -10.6124  -11.4508 C   0  0  0  0  0  0  0  0  0  0  0  0
   14.2899  -11.2944  -12.3297 C   0  0  2  0  0  0  0  0  0  0  0  0
   14.4793  -12.6688  -11.8909 N   0  0  0  0  0  0  0  0  0  0  0  0
   15.5689  -10.5857  -12.3223 C   0  0  0  0  0  0  0  0  0  0  0  0
   16.2908  -10.6210  -11.2904 O   0  0  0  0  0  0  0  0  0  0  0  0
   16.0232   -9.8584  -13.4445 N   0  0  0  0  0  0  0  0  0  0  0  0
   17.3596   -9.2391  -13.4226 C   0  0  1  0  0  0  0  0  0  0  0  0
   18.0884   -9.6602  -14.6653 C   0  0  0  0  0  0  0  0  0  0  0  0
   18.7235  -11.0007  -14.6041 C   0  0  0  0  0  0  0  0  0  0  0  0
   19.3755  -11.3697  -15.8793 C   0  0  0  0  0  0  0  0  0  0  0  0
   19.4953  -12.5446  -16.3088 O   0  0  0  0  0  0  0  0  0  0  0  0
   17.2164   -7.7543  -13.3893 C   0  0  0  0  0  0  0  0  0  0  0  0
   18.2534   -7.0640  -13.2359 O   0  0  0  0  0  0  0  0  0  0  0  0
   19.9137  -10.3691  -16.7025 O   0  0  0  0  0  0  0  0  0  0  0  0
   15.9700   -7.1041  -13.5222 N   0  0  0  0  0  0  0  0  0  0  0  0
   15.8422   -5.6589  -13.5645 C   0  0  0  0  0  0  0  0  0  0  0  0
   16.2443   -5.0909  -14.8542 C   0  0  0  0  0  0  0  0  0  0  0  0
   16.6287   -5.8578  -15.7626 O   0  0  0  0  0  0  0  0  0  0  0  0
   16.2164   -3.7285  -15.1132 O   0  0  0  0  0  0  0  0  0  0  0  0
  1  2  1  0
  2  4  1  0
  2  3  2  0
  5  6  1  1
  5  4  1  0
  7  5  1  0
  7  8  2  0
  9  7  1  0
 10  9  1  0
 10 15  1  0
 10 11  1  6
 12 11  1  0
 12 13  1  0
 13 14  2  0
 15 16  2  0
 15 18  1  0
 17 13  1  0
 18 19  1  0
 19 20  1  0
 20 22  1  0
 21 20  2  0
M  END
$$$$
