NEG.pdb
     RDKit          3D

 22 21  0  0  1  0  0  0  0  0999 V2000
   30.6062  -21.9309  -11.2193 N   0  0  0  0  0  0  0  0  0  0  0  0
   29.5856  -21.6132  -10.2800 C   0  0  0  0  0  0  0  0  0  0  0  0
   29.7324  -21.8056   -9.0304 O   0  0  0  0  0  0  0  0  0  0  0  0
   28.2959  -21.0386  -10.7264 C   0  0  0  0  0  0  0  0  0  0  0  0
   28.2686  -20.8568  -12.2388 C   0  0  2  0  0  0  0  0  0  0  0  0
   29.4186  -20.0709  -12.6601 N   0  0  0  0  0  0  0  0  0  0  0  0
   27.0335  -20.2221  -12.6966 C   0  0  0  0  0  0  0  0  0  0  0  0
   26.8903  -18.9775  -12.5636 O   0  0  0  0  0  0  0  0  0  0  0  0
   25.9892  -20.9665  -13.2881 N   0  0  0  0  0  0  0  0  0  0  0  0
   24.7580  -20.2832  -13.7210 C   0  0  1  0  0  0  0  0  0  0  0  0
   24.6146  -20.4762  -15.2026 C   0  0  0  0  0  0  0  0  0  0  0  0
   25.5758  -19.7124  -16.0372 C   0  0  0  0  0  0  0  0  0  0  0  0
   24.9351  -19.1277  -17.2351 C   0  0  0  0  0  0  0  0  0  0  0  0
   24.2006  -18.1081  -17.2289 O   0  0  0  0  0  0  0  0  0  0  0  0
   23.5874  -20.8752  -13.0101 C   0  0  0  0  0  0  0  0  0  0  0  0
   23.5494  -22.1220  -12.8710 O   0  0  0  0  0  0  0  0  0  0  0  0
   25.1334  -19.7201  -18.4914 O   0  0  0  0  0  0  0  0  0  0  0  0
   22.5316  -20.0924  -12.4939 N   0  0  0  0  0  0  0  0  0  0  0  0
   21.3779  -20.6737  -11.8321 C   0  0  0  0  0  0  0  0  0  0  0  0
   20.4534  -21.3210  -12.7668 C   0  0  0  0  0  0  0  0  0  0  0  0
   20.7540  -21.3764  -13.9784 O   0  0  0  0  0  0  0  0  0  0  0  0
   19.2500  -21.8799  -12.3627 O   0  0  0  0  0  0  0  0  0  0  0  0
  1  2  1  0
  2  4  1  0
  2  3  2  0
  5  6  1  1
  5  4  1  0
  7  5  1  0
  7  8  2  0
  9  7  1  0
 10  9  1  0
 10 15  1  0
 10 11  1  6
 12 11  1  0
 12 13  1  0
 13 14  2  0
 15 16  2  0
 15 18  1  0
 17 13  1  0
 18 19  1  0
 19 20  1  0
 20 22  1  0
 21 20  2  0
M  END
$$$$
