NEG.pdb
     RDKit          3D

 22 21  0  0  1  0  0  0  0  0999 V2000
   13.0749  -13.0546  -15.1548 N   0  0  0  0  0  0  0  0  0  0  0  0
   13.8176  -12.0231  -15.7945 C   0  0  0  0  0  0  0  0  0  0  0  0
   13.7815  -11.8450  -17.0543 O   0  0  0  0  0  0  0  0  0  0  0  0
   14.6728  -11.1047  -15.0084 C   0  0  0  0  0  0  0  0  0  0  0  0
   16.0748  -11.0183  -15.5981 C   0  0  2  0  0  0  0  0  0  0  0  0
   16.7620  -12.2886  -15.4205 N   0  0  0  0  0  0  0  0  0  0  0  0
   16.8589   -9.9374  -15.0025 C   0  0  0  0  0  0  0  0  0  0  0  0
   17.4429  -10.1289  -13.9028 O   0  0  0  0  0  0  0  0  0  0  0  0
   16.9831   -8.6767  -15.6269 N   0  0  0  0  0  0  0  0  0  0  0  0
   17.8400   -7.6421  -15.0222 C   0  0  1  0  0  0  0  0  0  0  0  0
   19.2563   -8.1384  -15.0454 C   0  0  0  0  0  0  0  0  0  0  0  0
   20.2636   -7.2070  -14.4781 C   0  0  0  0  0  0  0  0  0  0  0  0
   21.6271   -7.7797  -14.4948 C   0  0  0  0  0  0  0  0  0  0  0  0
   22.3946   -7.7730  -15.4899 O   0  0  0  0  0  0  0  0  0  0  0  0
   17.7245   -6.3809  -15.8111 C   0  0  0  0  0  0  0  0  0  0  0  0
   17.9344   -6.4360  -17.0473 O   0  0  0  0  0  0  0  0  0  0  0  0
   22.1438   -8.3844  -13.3391 O   0  0  0  0  0  0  0  0  0  0  0  0
   17.3918   -5.1405  -15.2239 N   0  0  0  0  0  0  0  0  0  0  0  0
   17.2522   -3.9208  -15.9983 C   0  0  0  0  0  0  0  0  0  0  0  0
   17.0659   -2.7339  -15.1593 C   0  0  0  0  0  0  0  0  0  0  0  0
   16.7827   -2.8819  -13.9513 O   0  0  0  0  0  0  0  0  0  0  0  0
   17.1917   -1.4429  -15.6507 O   0  0  0  0  0  0  0  0  0  0  0  0
  1  2  1  0
  2  4  1  0
  2  3  2  0
  5  6  1  1
  5  4  1  0
  7  5  1  0
  7  8  2  0
  9  7  1  0
 10  9  1  0
 10 15  1  0
 10 11  1  6
 12 11  1  0
 12 13  1  0
 13 14  2  0
 15 16  2  0
 15 18  1  0
 17 13  1  0
 18 19  1  0
 19 20  1  0
 20 22  1  0
 21 20  2  0
M  END
$$$$
