NEG.pdb
     RDKit          3D

 22 21  0  0  1  0  0  0  0  0999 V2000
   22.3700  -10.1762  -13.6945 N   0  0  0  0  0  0  0  0  0  0  0  0
   23.1819  -10.0127  -14.8516 C   0  0  0  0  0  0  0  0  0  0  0  0
   24.2003  -10.7437  -15.0723 O   0  0  0  0  0  0  0  0  0  0  0  0
   22.8689   -8.9718  -15.8572 C   0  0  0  0  0  0  0  0  0  0  0  0
   21.6017   -8.2118  -15.4862 C   0  0  2  0  0  0  0  0  0  0  0  0
   20.4475   -9.0886  -15.6143 N   0  0  0  0  0  0  0  0  0  0  0  0
   21.4152   -7.0155  -16.3060 C   0  0  0  0  0  0  0  0  0  0  0  0
   21.1623   -7.1392  -17.5340 O   0  0  0  0  0  0  0  0  0  0  0  0
   21.5097   -5.7166  -15.7596 N   0  0  0  0  0  0  0  0  0  0  0  0
   21.1830   -4.5467  -16.5931 C   0  0  1  0  0  0  0  0  0  0  0  0
   20.0084   -3.8471  -15.9738 C   0  0  0  0  0  0  0  0  0  0  0  0
   18.7008   -4.5281  -16.1485 C   0  0  0  0  0  0  0  0  0  0  0  0
   17.6802   -4.0314  -15.2002 C   0  0  0  0  0  0  0  0  0  0  0  0
   16.5155   -4.4913  -15.0958 O   0  0  0  0  0  0  0  0  0  0  0  0
   22.3594   -3.6303  -16.6424 C   0  0  0  0  0  0  0  0  0  0  0  0
   22.2275   -2.5310  -17.2336 O   0  0  0  0  0  0  0  0  0  0  0  0
   17.9898   -2.9716  -14.3345 O   0  0  0  0  0  0  0  0  0  0  0  0
   23.6027   -3.9512  -16.0549 N   0  0  0  0  0  0  0  0  0  0  0  0
   24.7482   -3.0617  -16.1129 C   0  0  0  0  0  0  0  0  0  0  0  0
   24.9680   -2.5056  -17.4508 C   0  0  0  0  0  0  0  0  0  0  0  0
   24.8094   -1.2797  -17.6329 O   0  0  0  0  0  0  0  0  0  0  0  0
   25.3480   -3.2863  -18.5325 O   0  0  0  0  0  0  0  0  0  0  0  0
  1  2  1  0
  2  4  1  0
  2  3  2  0
  5  6  1  6
  5  4  1  0
  7  5  1  0
  7  8  2  0
  9  7  1  0
 10  9  1  0
 10 15  1  0
 10 11  1  1
 12 11  1  0
 12 13  1  0
 13 14  2  0
 15 16  2  0
 15 18  1  0
 17 13  1  0
 18 19  1  0
 19 20  1  0
 20 22  1  0
 21 20  2  0
M  END
$$$$
