PVE.pdb
     RDKit          3D

 24 24  0  0  1  0  0  0  0  0999 V2000
   20.2429  -13.6141  -18.4116 N   0  0  0  0  0  0  0  0  0  0  0  0
   18.8935  -13.5006  -18.8854 C   0  0  0  0  0  0  0  0  0  0  0  0
   18.6778  -12.0611  -19.3055 C   0  0  0  0  0  0  0  0  0  0  0  0
   20.0953  -11.6806  -19.7198 C   0  0  0  0  0  0  0  0  0  0  0  0
   20.9083  -12.3725  -18.6586 C   0  0  1  0  0  0  0  0  0  0  0  0
   21.0184  -11.6094  -17.4156 C   0  0  0  0  0  0  0  0  0  0  0  0
   20.0751  -11.5904  -16.6058 O   0  0  0  0  0  0  0  0  0  0  0  0
   24.7015  -10.2418  -16.1382 C   0  0  0  0  0  0  0  0  0  0  0  0
   23.6116  -10.5849  -15.1718 C   0  0  2  0  0  0  0  0  0  0  0  0
   23.5539  -12.0611  -14.8456 C   0  0  0  0  0  0  0  0  0  0  0  0
   22.2852  -10.1528  -15.7954 C   0  0  2  0  0  0  0  0  0  0  0  0
   22.1849  -10.8550  -17.0577 N   0  0  0  0  0  0  0  0  0  0  0  0
   22.3484   -8.6805  -15.9931 C   0  0  0  0  0  0  0  0  0  0  0  0
   22.9119   -8.2459  -17.0133 O   0  0  0  0  0  0  0  0  0  0  0  0
   21.7899   -7.7625  -15.0610 N   0  0  0  0  0  0  0  0  0  0  0  0
   21.8446   -6.3139  -15.2653 C   0  0  1  0  0  0  0  0  0  0  0  0
   20.5679   -5.8955  -15.9105 C   0  0  0  0  0  0  0  0  0  0  0  0
   20.4041   -4.4332  -16.1449 C   0  0  0  0  0  0  0  0  0  0  0  0
   19.0804   -4.0828  -16.6999 C   0  0  0  0  0  0  0  0  0  0  0  0
   18.4757   -3.0046  -16.5072 O   0  0  0  0  0  0  0  0  0  0  0  0
   22.0996   -5.6300  -13.9743 C   0  0  0  0  0  0  0  0  0  0  0  0
   22.5793   -4.3454  -13.9557 O   0  0  0  0  0  0  0  0  0  0  0  0
   18.4316   -5.0196  -17.5110 O   0  0  0  0  0  0  0  0  0  0  0  0
   21.8765   -6.2267  -12.9099 O   0  0  0  0  0  0  0  0  0  0  0  0
  2  1  1  0
  3  4  1  0
  3  2  1  0
  4  5  1  0
  5  1  1  0
  5  6  1  1
  7  6  2  0
  9  8  1  6
  9 10  1  0
  9 11  1  0
 11 12  1  6
 11 13  1  0
 12  6  1  0
 13 15  1  0
 14 13  2  0
 15 16  1  0
 16 17  1  1
 16 21  1  0
 17 18  1  0
 18 19  1  0
 19 23  1  0
 20 19  2  0
 21 22  1  0
 24 21  2  0
M  END
$$$$
