PVE.pdb
     RDKit          3D

 24 24  0  0  1  0  0  0  0  0999 V2000
   20.0845  -12.3075  -18.9684 N   0  0  0  0  0  0  0  0  0  0  0  0
   19.1822  -11.8932  -20.0039 C   0  0  0  0  0  0  0  0  0  0  0  0
   19.3718  -10.4035  -20.2041 C   0  0  0  0  0  0  0  0  0  0  0  0
   20.8367  -10.2571  -19.8063 C   0  0  0  0  0  0  0  0  0  0  0  0
   20.9183  -11.1953  -18.6319 C   0  0  1  0  0  0  0  0  0  0  0  0
   20.4702  -10.5982  -17.3740 C   0  0  0  0  0  0  0  0  0  0  0  0
   19.5855  -11.1510  -16.6976 O   0  0  0  0  0  0  0  0  0  0  0  0
   21.4759  -11.4815  -14.6993 C   0  0  0  0  0  0  0  0  0  0  0  0
   22.2219  -10.2169  -14.9891 C   0  0  2  0  0  0  0  0  0  0  0  0
   22.9887   -9.6957  -13.7935 C   0  0  0  0  0  0  0  0  0  0  0  0
   21.2029   -9.1681  -15.4324 C   0  0  2  0  0  0  0  0  0  0  0  0
   21.0039   -9.3733  -16.8519 N   0  0  0  0  0  0  0  0  0  0  0  0
   21.7921   -7.8324  -15.1510 C   0  0  0  0  0  0  0  0  0  0  0  0
   22.9652   -7.6186  -15.5054 O   0  0  0  0  0  0  0  0  0  0  0  0
   21.0634   -6.8015  -14.4957 N   0  0  0  0  0  0  0  0  0  0  0  0
   21.5776   -5.4356  -14.3804 C   0  0  1  0  0  0  0  0  0  0  0  0
   20.4232   -4.5013  -14.5055 C   0  0  0  0  0  0  0  0  0  0  0  0
   19.7161   -4.5101  -15.8170 C   0  0  0  0  0  0  0  0  0  0  0  0
   18.5586   -3.5926  -15.8543 C   0  0  0  0  0  0  0  0  0  0  0  0
   18.1755   -2.8697  -14.9078 O   0  0  0  0  0  0  0  0  0  0  0  0
   22.3209   -5.2805  -13.1064 C   0  0  0  0  0  0  0  0  0  0  0  0
   22.1957   -6.2193  -12.1146 O   0  0  0  0  0  0  0  0  0  0  0  0
   17.8152   -3.5097  -17.0363 O   0  0  0  0  0  0  0  0  0  0  0  0
   23.0572   -4.2958  -12.9422 O   0  0  0  0  0  0  0  0  0  0  0  0
  2  1  1  0
  3  4  1  0
  3  2  1  0
  4  5  1  0
  5  1  1  0
  5  6  1  1
  7  6  2  0
  9  8  1  1
  9 10  1  0
  9 11  1  0
 11 12  1  6
 11 13  1  0
 12  6  1  0
 13 15  1  0
 14 13  2  0
 15 16  1  0
 16 17  1  1
 16 21  1  0
 17 18  1  0
 18 19  1  0
 19 23  1  0
 20 19  2  0
 21 22  1  0
 24 21  2  0
M  END
$$$$
