PVE.pdb
     RDKit          3D

 24 24  0  0  1  0  0  0  0  0999 V2000
   19.3923  -13.7706  -19.1791 N   0  0  0  0  0  0  0  0  0  0  0  0
   18.0677  -13.4672  -19.6391 C   0  0  0  0  0  0  0  0  0  0  0  0
   18.0089  -11.9775  -19.9081 C   0  0  0  0  0  0  0  0  0  0  0  0
   19.4630  -11.7080  -20.2803 C   0  0  0  0  0  0  0  0  0  0  0  0
   20.1870  -12.5873  -19.2961 C   0  0  1  0  0  0  0  0  0  0  0  0
   20.3625  -11.9719  -17.9808 C   0  0  0  0  0  0  0  0  0  0  0  0
   19.4539  -12.0318  -17.1342 O   0  0  0  0  0  0  0  0  0  0  0  0
   23.3258  -10.4912  -14.4482 C   0  0  0  0  0  0  0  0  0  0  0  0
   23.1211  -11.0824  -15.8077 C   0  0  2  0  0  0  0  0  0  0  0  0
   24.1287  -10.5909  -16.8237 C   0  0  0  0  0  0  0  0  0  0  0  0
   21.7136  -10.7079  -16.2695 C   0  0  2  0  0  0  0  0  0  0  0  0
   21.5567  -11.2794  -17.5906 N   0  0  0  0  0  0  0  0  0  0  0  0
   21.6401   -9.2233  -16.3046 C   0  0  0  0  0  0  0  0  0  0  0  0
   21.9891   -8.6398  -17.3462 O   0  0  0  0  0  0  0  0  0  0  0  0
   21.1875   -8.4569  -15.1950 N   0  0  0  0  0  0  0  0  0  0  0  0
   20.9912   -7.0084  -15.2761 C   0  0  1  0  0  0  0  0  0  0  0  0
   19.6326   -6.7628  -15.8375 C   0  0  0  0  0  0  0  0  0  0  0  0
   19.2520   -5.3342  -16.0228 C   0  0  0  0  0  0  0  0  0  0  0  0
   17.8874   -5.1664  -16.5639 C   0  0  0  0  0  0  0  0  0  0  0  0
   17.0909   -6.0957  -16.8235 O   0  0  0  0  0  0  0  0  0  0  0  0
   21.1925   -6.3949  -13.9410 C   0  0  0  0  0  0  0  0  0  0  0  0
   21.4732   -5.0571  -13.8305 O   0  0  0  0  0  0  0  0  0  0  0  0
   17.4274   -3.8694  -16.8140 O   0  0  0  0  0  0  0  0  0  0  0  0
   21.1058   -7.0989  -12.9233 O   0  0  0  0  0  0  0  0  0  0  0  0
  2  1  1  0
  3  4  1  0
  3  2  1  0
  4  5  1  0
  5  1  1  0
  5  6  1  1
  7  6  2  0
  9  8  1  1
  9 10  1  0
  9 11  1  0
 11 12  1  6
 11 13  1  0
 12  6  1  0
 13 15  1  0
 14 13  2  0
 15 16  1  0
 16 17  1  1
 16 21  1  0
 17 18  1  0
 18 19  1  0
 19 23  1  0
 20 19  2  0
 21 22  1  0
 24 21  2  0
M  END
$$$$
