PVE.pdb
     RDKit          3D

 24 24  0  0  1  0  0  0  0  0999 V2000
   20.4210  -15.9588  -17.7086 N   0  0  0  0  0  0  0  0  0  0  0  0
   19.0169  -16.0015  -18.0000 C   0  0  0  0  0  0  0  0  0  0  0  0
   18.6342  -14.6617  -18.5946 C   0  0  0  0  0  0  0  0  0  0  0  0
   19.9510  -14.2681  -19.2554 C   0  0  0  0  0  0  0  0  0  0  0  0
   20.9473  -14.7346  -18.2279 C   0  0  1  0  0  0  0  0  0  0  0  0
   21.1559  -13.7796  -17.1398 C   0  0  0  0  0  0  0  0  0  0  0  0
   20.4301  -13.8103  -16.1308 O   0  0  0  0  0  0  0  0  0  0  0  0
   24.5485  -11.5080  -17.0967 C   0  0  0  0  0  0  0  0  0  0  0  0
   23.8581  -11.7821  -15.7975 C   0  0  2  0  0  0  0  0  0  0  0  0
   24.2978  -13.0803  -15.1569 C   0  0  0  0  0  0  0  0  0  0  0  0
   22.3561  -11.8373  -16.0726 C   0  0  2  0  0  0  0  0  0  0  0  0
   22.1794  -12.7747  -17.1620 N   0  0  0  0  0  0  0  0  0  0  0  0
   21.9262  -10.4668  -16.4564 C   0  0  0  0  0  0  0  0  0  0  0  0
   22.2149  -10.0548  -17.5940 O   0  0  0  0  0  0  0  0  0  0  0  0
   21.2020   -9.6203  -15.5718 N   0  0  0  0  0  0  0  0  0  0  0  0
   20.8113   -8.2586  -15.9411 C   0  0  1  0  0  0  0  0  0  0  0  0
   19.3400   -8.1352  -15.7384 C   0  0  0  0  0  0  0  0  0  0  0  0
   18.7651   -6.7759  -15.9433 C   0  0  0  0  0  0  0  0  0  0  0  0
   17.3237   -6.7055  -15.6260 C   0  0  0  0  0  0  0  0  0  0  0  0
   16.6284   -5.6654  -15.6390 O   0  0  0  0  0  0  0  0  0  0  0  0
   21.5951   -7.2761  -15.1537 C   0  0  0  0  0  0  0  0  0  0  0  0
   22.2558   -7.6699  -14.0184 O   0  0  0  0  0  0  0  0  0  0  0  0
   16.6617   -7.8880  -15.2798 O   0  0  0  0  0  0  0  0  0  0  0  0
   21.6500   -6.0947  -15.5279 O   0  0  0  0  0  0  0  0  0  0  0  0
  2  1  1  0
  3  4  1  0
  3  2  1  0
  4  5  1  0
  5  1  1  0
  5  6  1  1
  7  6  2  0
  9  8  1  6
  9 10  1  0
  9 11  1  0
 11 12  1  6
 11 13  1  0
 12  6  1  0
 13 15  1  0
 14 13  2  0
 15 16  1  0
 16 17  1  1
 16 21  1  0
 17 18  1  0
 18 19  1  0
 19 23  1  0
 20 19  2  0
 21 22  1  0
 24 21  2  0
M  END
$$$$
