PVE.pdb
     RDKit          3D

 24 24  0  0  1  0  0  0  0  0999 V2000
   22.3104  -13.9386  -18.4832 N   0  0  0  0  0  0  0  0  0  0  0  0
   20.9419  -13.9044  -18.9125 C   0  0  0  0  0  0  0  0  0  0  0  0
   20.6409  -12.4894  -19.3623 C   0  0  0  0  0  0  0  0  0  0  0  0
   22.0229  -12.0517  -19.8356 C   0  0  0  0  0  0  0  0  0  0  0  0
   22.9045  -12.6733  -18.7856 C   0  0  1  0  0  0  0  0  0  0  0  0
   23.0181  -11.8713  -17.5676 C   0  0  0  0  0  0  0  0  0  0  0  0
   22.2109  -12.0295  -16.6352 O   0  0  0  0  0  0  0  0  0  0  0  0
   26.4413   -9.6579  -16.8274 C   0  0  0  0  0  0  0  0  0  0  0  0
   25.6104  -10.2163  -15.7150 C   0  0  2  0  0  0  0  0  0  0  0  0
   25.9499  -11.6539  -15.3879 C   0  0  0  0  0  0  0  0  0  0  0  0
   24.1454  -10.1270  -16.1400 C   0  0  2  0  0  0  0  0  0  0  0  0
   24.0359  -10.8795  -17.3722 N   0  0  0  0  0  0  0  0  0  0  0  0
   23.8324   -8.6886  -16.3489 C   0  0  0  0  0  0  0  0  0  0  0  0
   24.0062   -8.2056  -17.4819 O   0  0  0  0  0  0  0  0  0  0  0  0
   23.3454   -7.8557  -15.3037 N   0  0  0  0  0  0  0  0  0  0  0  0
   22.8056   -6.5191  -15.5593 C   0  0  1  0  0  0  0  0  0  0  0  0
   21.6134   -6.6694  -16.4411 C   0  0  0  0  0  0  0  0  0  0  0  0
   20.8856   -5.4126  -16.7737 C   0  0  0  0  0  0  0  0  0  0  0  0
   21.4144   -4.7416  -17.9792 C   0  0  0  0  0  0  0  0  0  0  0  0
   21.4311   -5.2283  -19.1315 O   0  0  0  0  0  0  0  0  0  0  0  0
   22.5023   -5.8417  -14.2754 C   0  0  0  0  0  0  0  0  0  0  0  0
   22.5540   -4.4742  -14.1865 O   0  0  0  0  0  0  0  0  0  0  0  0
   21.9452   -3.4546  -17.8434 O   0  0  0  0  0  0  0  0  0  0  0  0
   22.2012   -6.5193  -13.2809 O   0  0  0  0  0  0  0  0  0  0  0  0
  2  1  1  0
  3  4  1  0
  3  2  1  0
  4  5  1  0
  5  1  1  0
  5  6  1  1
  7  6  2  0
  9  8  1  6
  9 10  1  0
  9 11  1  0
 11 12  1  6
 11 13  1  0
 12  6  1  0
 13 15  1  0
 14 13  2  0
 15 16  1  0
 16 17  1  6
 16 21  1  0
 17 18  1  0
 18 19  1  0
 19 23  1  0
 20 19  2  0
 21 22  1  0
 24 21  2  0
M  END
$$$$
