PVE.pdb
     RDKit          3D

 24 24  0  0  1  0  0  0  0  0999 V2000
   22.3780  -12.4886  -17.5457 N   0  0  0  0  0  0  0  0  0  0  0  0
   21.4288  -13.4994  -17.9140 C   0  0  0  0  0  0  0  0  0  0  0  0
   20.6548  -12.9834  -19.1096 C   0  0  0  0  0  0  0  0  0  0  0  0
   21.7056  -12.0818  -19.7489 C   0  0  0  0  0  0  0  0  0  0  0  0
   22.3352  -11.4553  -18.5336 C   0  0  1  0  0  0  0  0  0  0  0  0
   21.5947  -10.3035  -18.0193 C   0  0  0  0  0  0  0  0  0  0  0  0
   21.3890   -9.3153  -18.7451 O   0  0  0  0  0  0  0  0  0  0  0  0
   19.7295  -10.5370  -14.3670 C   0  0  0  0  0  0  0  0  0  0  0  0
   19.2271   -9.5330  -15.3566 C   0  0  2  0  0  0  0  0  0  0  0  0
   18.1783  -10.0968  -16.2899 C   0  0  0  0  0  0  0  0  0  0  0  0
   20.4235   -9.0483  -16.1742 C   0  0  2  0  0  0  0  0  0  0  0  0
   21.0721  -10.2378  -16.6849 N   0  0  0  0  0  0  0  0  0  0  0  0
   21.3132   -8.2945  -15.2518 C   0  0  0  0  0  0  0  0  0  0  0  0
   22.1622   -8.9293  -14.6011 O   0  0  0  0  0  0  0  0  0  0  0  0
   21.2247   -6.8838  -15.0919 N   0  0  0  0  0  0  0  0  0  0  0  0
   22.3273   -6.0904  -14.5462 C   0  0  1  0  0  0  0  0  0  0  0  0
   23.2622   -5.7788  -15.6643 C   0  0  0  0  0  0  0  0  0  0  0  0
   24.4898   -5.0191  -15.2956 C   0  0  0  0  0  0  0  0  0  0  0  0
   25.3481   -4.7106  -16.4581 C   0  0  0  0  0  0  0  0  0  0  0  0
   25.1877   -5.1556  -17.6163 O   0  0  0  0  0  0  0  0  0  0  0  0
   21.7957   -4.8804  -13.8733 C   0  0  0  0  0  0  0  0  0  0  0  0
   22.5241   -4.2594  -12.8913 O   0  0  0  0  0  0  0  0  0  0  0  0
   26.4360   -3.8517  -16.2705 O   0  0  0  0  0  0  0  0  0  0  0  0
   20.6871   -4.4324  -14.2037 O   0  0  0  0  0  0  0  0  0  0  0  0
  2  1  1  0
  3  4  1  0
  3  2  1  0
  4  5  1  0
  5  1  1  0
  5  6  1  1
  7  6  2  0
  9  8  1  1
  9 10  1  0
  9 11  1  0
 11 12  1  1
 11 13  1  0
 12  6  1  0
 13 15  1  0
 14 13  2  0
 15 16  1  0
 16 17  1  6
 16 21  1  0
 17 18  1  0
 18 19  1  0
 19 23  1  0
 20 19  2  0
 21 22  1  0
 24 21  2  0
M  END
$$$$
