IKC.pdb
     RDKit          3D

 24 23  0  0  1  0  0  0  0  0999 V2000
    7.1465  -12.0717   28.1857 C   0  0  0  0  0  0  0  0  0  0  0  0
    6.3427  -12.9933   27.3327 C   0  0  0  0  0  0  0  0  0  0  0  0
    7.1621  -13.6675   26.2456 C   0  0  2  0  0  0  0  0  0  0  0  0
    7.6679  -12.5770   25.2935 C   0  0  0  0  0  0  0  0  0  0  0  0
    6.2025  -14.5164   25.4440 C   0  0  2  0  0  0  0  0  0  0  0  0
    5.7341  -15.5949   26.2726 N   0  0  0  0  0  0  0  0  0  0  0  0
    6.8158  -15.0661   24.2258 C   0  0  0  0  0  0  0  0  0  0  0  0
    7.1805  -16.2768   24.1778 O   0  0  0  0  0  0  0  0  0  0  0  0
    7.0005  -14.2433   23.1020 N   0  0  0  0  0  0  0  0  0  0  0  0
    7.5787  -14.8373   21.8221 C   0  0  1  0  0  0  0  0  0  0  0  0
    7.1897  -13.9170   20.7448 C   0  0  0  0  0  0  0  0  0  0  0  0
    7.2288  -14.2514   19.3290 C   0  0  0  0  0  0  0  0  0  0  0  0
    8.4206  -13.9664   18.5058 C   0  0  0  0  0  0  0  0  0  0  0  0
    8.0702  -14.3576   17.0463 C   0  0  0  0  0  0  0  0  0  0  0  0
    9.2703  -14.1083   16.2728 N   0  0  0  0  0  0  0  0  0  0  0  0
    8.9725  -15.0894   22.1401 C   0  0  0  0  0  0  0  0  0  0  0  0
    9.6853  -14.0990   22.5526 O   0  0  0  0  0  0  0  0  0  0  0  0
    9.6694  -16.3091   22.0698 N   0  0  0  0  0  0  0  0  0  0  0  0
   11.1104  -16.4109   22.1739 C   0  0  1  0  0  0  0  0  0  0  0  0
   11.3254  -17.4495   23.3085 C   0  0  0  0  0  0  0  0  0  0  0  0
    9.7968  -17.5451   24.2621 S   0  0  0  0  0  0  0  0  0  0  0  0
   11.7661  -16.8621   20.9460 C   0  0  0  0  0  0  0  0  0  0  0  0
   13.1278  -16.9517   20.7976 O   0  0  0  0  0  0  0  0  0  0  0  0
   11.0658  -17.1973   19.9372 O   0  0  0  0  0  0  0  0  0  0  0  0
  1  2  1  0
  3  2  1  0
  3  4  1  6
  5  6  1  1
  5  3  1  0
  7  5  1  0
  8  7  2  0
  9  7  1  0
 10 11  1  6
 10  9  1  0
 11 12  1  0
 13 12  1  0
 13 14  1  0
 15 14  1  0
 16 10  1  0
 17 16  2  0
 18 16  1  0
 19 20  1  1
 19 18  1  0
 20 21  1  0
 22 19  1  0
 22 23  1  0
 24 22  2  0
M  END
$$$$
