IKC.pdb
     RDKit          3D

 24 23  0  0  1  0  0  0  0  0999 V2000
    6.7089  -11.0889   26.9142 C   0  0  0  0  0  0  0  0  0  0  0  0
    6.1029  -12.2427   26.1898 C   0  0  0  0  0  0  0  0  0  0  0  0
    7.0884  -13.3696   25.9315 C   0  0  2  0  0  0  0  0  0  0  0  0
    8.1886  -12.8298   25.0098 C   0  0  0  0  0  0  0  0  0  0  0  0
    6.3472  -14.4187   25.1354 C   0  0  2  0  0  0  0  0  0  0  0  0
    5.2550  -14.9166   25.9280 N   0  0  0  0  0  0  0  0  0  0  0  0
    7.2109  -15.5391   24.7340 C   0  0  0  0  0  0  0  0  0  0  0  0
    7.3755  -16.5325   25.5002 O   0  0  0  0  0  0  0  0  0  0  0  0
    7.8616  -15.5107   23.4891 N   0  0  0  0  0  0  0  0  0  0  0  0
    8.7124  -16.7006   23.0581 C   0  0  1  0  0  0  0  0  0  0  0  0
    8.8530  -16.5825   21.6004 C   0  0  0  0  0  0  0  0  0  0  0  0
    9.5556  -17.5452   20.7654 C   0  0  0  0  0  0  0  0  0  0  0  0
    9.6771  -17.3516   19.3069 C   0  0  0  0  0  0  0  0  0  0  0  0
   10.4895  -18.5519   18.7543 C   0  0  0  0  0  0  0  0  0  0  0  0
   10.6888  -18.2771   17.3452 N   0  0  0  0  0  0  0  0  0  0  0  0
    9.8653  -16.6564   23.9391 C   0  0  0  0  0  0  0  0  0  0  0  0
   10.5032  -15.5419   24.0416 O   0  0  0  0  0  0  0  0  0  0  0  0
   10.3896  -17.6935   24.7313 N   0  0  0  0  0  0  0  0  0  0  0  0
   11.6408  -17.5904   25.4534 C   0  0  1  0  0  0  0  0  0  0  0  0
   11.3826  -18.3972   26.7553 C   0  0  0  0  0  0  0  0  0  0  0  0
   10.1142  -17.5268   27.6980 S   0  0  0  0  0  0  0  0  0  0  0  0
   12.7900  -18.1441   24.7363 C   0  0  0  0  0  0  0  0  0  0  0  0
   14.0726  -18.1299   25.2252 O   0  0  0  0  0  0  0  0  0  0  0  0
   12.6290  -18.6759   23.5910 O   0  0  0  0  0  0  0  0  0  0  0  0
  1  2  1  0
  3  2  1  0
  3  4  1  6
  5  6  1  1
  5  3  1  0
  7  5  1  0
  8  7  2  0
  9  7  1  0
 10 11  1  6
 10  9  1  0
 11 12  1  0
 13 12  1  0
 13 14  1  0
 15 14  1  0
 16 10  1  0
 17 16  2  0
 18 16  1  0
 19 20  1  1
 19 18  1  0
 20 21  1  0
 22 19  1  0
 22 23  1  0
 24 22  2  0
M  END
$$$$
