IKC.pdb
     RDKit          3D

 24 23  0  0  1  0  0  0  0  0999 V2000
    7.2739  -11.2863   27.5923 C   0  0  0  0  0  0  0  0  0  0  0  0
    6.9313  -12.7349   27.5056 C   0  0  0  0  0  0  0  0  0  0  0  0
    6.9412  -13.2665   26.0826 C   0  0  2  0  0  0  0  0  0  0  0  0
    5.7654  -12.6274   25.3339 C   0  0  0  0  0  0  0  0  0  0  0  0
    6.6336  -14.7435   26.1703 C   0  0  2  0  0  0  0  0  0  0  0  0
    7.1918  -15.2618   27.3905 N   0  0  0  0  0  0  0  0  0  0  0  0
    7.1664  -15.5010   25.0281 C   0  0  0  0  0  0  0  0  0  0  0  0
    6.8085  -16.6975   24.8249 O   0  0  0  0  0  0  0  0  0  0  0  0
    8.0818  -14.8947   24.1513 N   0  0  0  0  0  0  0  0  0  0  0  0
    8.6655  -15.7026   22.9972 C   0  0  1  0  0  0  0  0  0  0  0  0
    8.4882  -14.8708   21.7991 C   0  0  0  0  0  0  0  0  0  0  0  0
    8.1690  -15.3944   20.4794 C   0  0  0  0  0  0  0  0  0  0  0  0
    8.4821  -14.6316   19.2548 C   0  0  0  0  0  0  0  0  0  0  0  0
    7.9659  -15.4666   18.0538 C   0  0  0  0  0  0  0  0  0  0  0  0
    8.2297  -14.6656   16.8750 N   0  0  0  0  0  0  0  0  0  0  0  0
    9.9836  -16.0941   23.4626 C   0  0  0  0  0  0  0  0  0  0  0  0
   10.7495  -15.1774   23.9447 O   0  0  0  0  0  0  0  0  0  0  0  0
   10.5516  -17.3808   23.4715 N   0  0  0  0  0  0  0  0  0  0  0  0
   11.9037  -17.6522   23.9140 C   0  0  1  0  0  0  0  0  0  0  0  0
   11.7329  -18.8159   24.9283 C   0  0  0  0  0  0  0  0  0  0  0  0
   10.9596  -18.1417   26.4124 S   0  0  0  0  0  0  0  0  0  0  0  0
   12.8140  -18.0491   22.8392 C   0  0  0  0  0  0  0  0  0  0  0  0
   14.1503  -18.3014   23.0262 O   0  0  0  0  0  0  0  0  0  0  0  0
   12.3772  -18.1765   21.6503 O   0  0  0  0  0  0  0  0  0  0  0  0
  1  2  1  0
  3  2  1  0
  3  4  1  6
  5  6  1  1
  5  3  1  0
  7  5  1  0
  8  7  2  0
  9  7  1  0
 10 11  1  6
 10  9  1  0
 11 12  1  0
 13 12  1  0
 13 14  1  0
 15 14  1  0
 16 10  1  0
 17 16  2  0
 18 16  1  0
 19 20  1  1
 19 18  1  0
 20 21  1  0
 22 19  1  0
 22 23  1  0
 24 22  2  0
M  END
$$$$
