IKC.pdb
     RDKit          3D

 24 23  0  0  1  0  0  0  0  0999 V2000
    6.8852  -12.3222   28.0151 C   0  0  0  0  0  0  0  0  0  0  0  0
    6.1514  -13.1442   27.0106 C   0  0  0  0  0  0  0  0  0  0  0  0
    7.0724  -13.8565   26.0348 C   0  0  2  0  0  0  0  0  0  0  0  0
    7.8079  -12.7880   25.2171 C   0  0  0  0  0  0  0  0  0  0  0  0
    6.1833  -14.5956   25.0615 C   0  0  2  0  0  0  0  0  0  0  0  0
    5.6616  -15.7693   25.7093 N   0  0  0  0  0  0  0  0  0  0  0  0
    6.8918  -14.9882   23.8342 C   0  0  0  0  0  0  0  0  0  0  0  0
    7.2386  -16.1906   23.6470 O   0  0  0  0  0  0  0  0  0  0  0  0
    7.1886  -14.0228   22.8575 N   0  0  0  0  0  0  0  0  0  0  0  0
    7.9624  -14.4303   21.6083 C   0  0  1  0  0  0  0  0  0  0  0  0
    7.8346  -13.3026   20.6752 C   0  0  0  0  0  0  0  0  0  0  0  0
    7.8557  -13.4332   19.2260 C   0  0  0  0  0  0  0  0  0  0  0  0
    8.5278  -14.5709   18.5677 C   0  0  0  0  0  0  0  0  0  0  0  0
    8.2862  -14.4222   17.0427 C   0  0  0  0  0  0  0  0  0  0  0  0
    8.9066  -15.5804   16.4309 N   0  0  0  0  0  0  0  0  0  0  0  0
    9.2554  -14.8590   22.1100 C   0  0  0  0  0  0  0  0  0  0  0  0
   10.0411  -13.9616   22.5963 O   0  0  0  0  0  0  0  0  0  0  0  0
    9.7785  -16.1640   22.1509 N   0  0  0  0  0  0  0  0  0  0  0  0
   11.1791  -16.4545   22.3786 C   0  0  1  0  0  0  0  0  0  0  0  0
   11.1520  -17.6036   23.4231 C   0  0  0  0  0  0  0  0  0  0  0  0
    9.9813  -17.1427   24.7162 S   0  0  0  0  0  0  0  0  0  0  0  0
   11.9020  -16.8796   21.1794 C   0  0  0  0  0  0  0  0  0  0  0  0
   13.2562  -17.1017   21.1442 O   0  0  0  0  0  0  0  0  0  0  0  0
   11.2722  -17.0624   20.0884 O   0  0  0  0  0  0  0  0  0  0  0  0
  1  2  1  0
  3  2  1  0
  3  4  1  6
  5  6  1  1
  5  3  1  0
  7  5  1  0
  8  7  2  0
  9  7  1  0
 10 11  1  6
 10  9  1  0
 11 12  1  0
 13 12  1  0
 13 14  1  0
 15 14  1  0
 16 10  1  0
 17 16  2  0
 18 16  1  0
 19 20  1  1
 19 18  1  0
 20 21  1  0
 22 19  1  0
 22 23  1  0
 24 22  2  0
M  END
$$$$
