IKC.pdb
     RDKit          3D

 24 23  0  0  1  0  0  0  0  0999 V2000
    6.2651  -11.3572   27.3648 C   0  0  0  0  0  0  0  0  0  0  0  0
    5.7799  -12.5774   26.6586 C   0  0  0  0  0  0  0  0  0  0  0  0
    6.9006  -13.3914   26.0347 C   0  0  2  0  0  0  0  0  0  0  0  0
    7.5995  -12.5087   24.9938 C   0  0  0  0  0  0  0  0  0  0  0  0
    6.2434  -14.5134   25.2645 C   0  0  2  0  0  0  0  0  0  0  0  0
    5.5596  -15.3743   26.1920 N   0  0  0  0  0  0  0  0  0  0  0  0
    7.2069  -15.3030   24.4831 C   0  0  0  0  0  0  0  0  0  0  0  0
    7.8214  -16.2753   25.0105 O   0  0  0  0  0  0  0  0  0  0  0  0
    7.4508  -14.9787   23.1379 N   0  0  0  0  0  0  0  0  0  0  0  0
    8.3329  -15.8911   22.2926 C   0  0  1  0  0  0  0  0  0  0  0  0
    8.1625  -15.4366   20.9058 C   0  0  0  0  0  0  0  0  0  0  0  0
    8.7617  -16.0891   19.7513 C   0  0  0  0  0  0  0  0  0  0  0  0
    8.0024  -17.0599   18.9386 C   0  0  0  0  0  0  0  0  0  0  0  0
    8.9799  -17.6276   17.8763 C   0  0  0  0  0  0  0  0  0  0  0  0
    8.2284  -18.6278   17.1444 N   0  0  0  0  0  0  0  0  0  0  0  0
    9.6258  -15.8529   22.9516 C   0  0  0  0  0  0  0  0  0  0  0  0
   10.0852  -14.7046   23.3116 O   0  0  0  0  0  0  0  0  0  0  0  0
   10.4658  -16.9343   23.2728 N   0  0  0  0  0  0  0  0  0  0  0  0
   11.7933  -16.7745   23.8295 C   0  0  1  0  0  0  0  0  0  0  0  0
   11.7439  -17.6013   25.1434 C   0  0  0  0  0  0  0  0  0  0  0  0
   10.6100  -16.7691   26.2734 S   0  0  0  0  0  0  0  0  0  0  0  0
   12.8657  -17.2664   22.9638 C   0  0  0  0  0  0  0  0  0  0  0  0
   12.6509  -17.8417   21.7361 O   0  0  0  0  0  0  0  0  0  0  0  0
   14.0787  -17.1733   23.3384 O   0  0  0  0  0  0  0  0  0  0  0  0
  1  2  1  0
  3  2  1  0
  3  4  1  6
  5  6  1  1
  5  3  1  0
  7  5  1  0
  8  7  2  0
  9  7  1  0
 10 11  1  6
 10  9  1  0
 11 12  1  0
 13 12  1  0
 13 14  1  0
 15 14  1  0
 16 10  1  0
 17 16  2  0
 18 16  1  0
 19 20  1  1
 19 18  1  0
 20 21  1  0
 22 19  1  0
 22 23  1  0
 24 22  2  0
M  END
$$$$
