IKC.pdb
     RDKit          3D

 24 23  0  0  1  0  0  0  0  0999 V2000
    5.8176  -11.6456   26.9399 C   0  0  0  0  0  0  0  0  0  0  0  0
    5.6411  -12.8284   26.0494 C   0  0  0  0  0  0  0  0  0  0  0  0
    6.8981  -13.6718   25.9212 C   0  0  2  0  0  0  0  0  0  0  0  0
    7.9024  -12.8916   25.0645 C   0  0  0  0  0  0  0  0  0  0  0  0
    6.5186  -14.8949   25.1186 C   0  0  2  0  0  0  0  0  0  0  0  0
    5.4873  -15.6095   25.8221 N   0  0  0  0  0  0  0  0  0  0  0  0
    7.6596  -15.7914   24.8803 C   0  0  0  0  0  0  0  0  0  0  0  0
    7.7960  -16.8538   25.5539 O   0  0  0  0  0  0  0  0  0  0  0  0
    8.6096  -15.4695   23.8965 N   0  0  0  0  0  0  0  0  0  0  0  0
    9.7114  -16.4686   23.5599 C   0  0  1  0  0  0  0  0  0  0  0  0
   10.0518  -16.2264   22.1512 C   0  0  0  0  0  0  0  0  0  0  0  0
   11.0407  -16.9902   21.4054 C   0  0  0  0  0  0  0  0  0  0  0  0
   11.0048  -17.0595   19.9312 C   0  0  0  0  0  0  0  0  0  0  0  0
   12.0909  -18.0780   19.4964 C   0  0  0  0  0  0  0  0  0  0  0  0
   12.0346  -18.1198   18.0488 N   0  0  0  0  0  0  0  0  0  0  0  0
   10.6894  -16.2959   24.6187 C   0  0  0  0  0  0  0  0  0  0  0  0
   11.8459  -16.8422   24.4661 O   0  0  0  0  0  0  0  0  0  0  0  0
   10.5463  -15.5795   25.8206 N   0  0  0  0  0  0  0  0  0  0  0  0
   11.5880  -15.4879   26.8227 C   0  0  1  0  0  0  0  0  0  0  0  0
   11.2606  -14.1691   27.5750 C   0  0  0  0  0  0  0  0  0  0  0  0
    9.6843  -14.3974   28.4225 S   0  0  0  0  0  0  0  0  0  0  0  0
   11.6130  -16.6109   27.7606 C   0  0  0  0  0  0  0  0  0  0  0  0
   12.5889  -16.7903   28.7092 O   0  0  0  0  0  0  0  0  0  0  0  0
   10.6947  -17.4916   27.7229 O   0  0  0  0  0  0  0  0  0  0  0  0
  1  2  1  0
  3  2  1  0
  3  4  1  6
  5  6  1  1
  5  3  1  0
  7  5  1  0
  8  7  2  0
  9  7  1  0
 10 11  1  6
 10  9  1  0
 11 12  1  0
 13 12  1  0
 13 14  1  0
 15 14  1  0
 16 10  1  0
 17 16  2  0
 18 16  1  0
 19 20  1  1
 19 18  1  0
 20 21  1  0
 22 19  1  0
 22 23  1  0
 24 22  2  0
M  END
$$$$
