DHM.pdb
     RDKit          3D

 27 27  0  0  1  0  0  0  0  0999 V2000
   23.5312  -13.7122  -17.1507 N   0  0  0  0  0  0  0  0  0  0  0  0
   22.7243  -12.6308  -17.7277 C   0  0  1  0  0  0  0  0  0  0  0  0
   21.2763  -12.9713  -17.3473 C   0  0  0  0  0  0  0  0  0  0  0  0
   20.8787  -14.2027  -18.0642 C   0  0  0  0  0  0  0  0  0  0  0  0
   21.3237  -14.4983  -19.1851 O   0  0  0  0  0  0  0  0  0  0  0  0
   23.0178  -11.3471  -17.0569 C   0  0  0  0  0  0  0  0  0  0  0  0
   22.8598  -11.2407  -15.8286 O   0  0  0  0  0  0  0  0  0  0  0  0
   19.9716  -15.0579  -17.4506 O   0  0  0  0  0  0  0  0  0  0  0  0
   23.4731  -10.2508  -17.8146 N   0  0  0  0  0  0  0  0  0  0  0  0
   23.8208   -8.9762  -17.2052 C   0  0  1  0  0  0  0  0  0  0  0  0
   25.2834   -8.7230  -17.4586 C   0  0  0  0  0  0  0  0  0  0  0  0
   26.1683   -9.7043  -16.7808 C   0  0  0  0  0  0  0  0  0  0  0  0
   27.0110  -10.6541  -17.3186 C   0  0  0  0  0  0  0  0  0  0  0  0
   27.5866  -11.3083  -16.3155 N   0  0  0  0  0  0  0  0  0  0  0  0
   27.1406  -10.8116  -15.1248 C   0  0  0  0  0  0  0  0  0  0  0  0
   26.2740   -9.8309  -15.4227 N   0  0  0  0  0  0  0  0  0  0  0  0
   22.9906   -7.8793  -17.7403 C   0  0  0  0  0  0  0  0  0  0  0  0
   22.6076   -7.9304  -18.9317 O   0  0  0  0  0  0  0  0  0  0  0  0
   16.5747   -5.0623  -19.2110 C   0  0  0  0  0  0  0  0  0  0  0  0
   17.7066   -6.3038  -18.5406 S   0  0  0  0  0  0  0  0  0  0  0  0
   19.3110   -5.4465  -18.2287 C   0  0  0  0  0  0  0  0  0  0  0  0
   20.3342   -6.4406  -17.7922 C   0  0  0  0  0  0  0  0  0  0  0  0
   21.6479   -5.7974  -17.5191 C   0  0  2  0  0  0  0  0  0  0  0  0
   22.6049   -6.7581  -16.9620 N   0  0  0  0  0  0  0  0  0  0  0  0
   21.4965   -4.7620  -16.4461 C   0  0  0  0  0  0  0  0  0  0  0  0
   21.8183   -4.9733  -15.2799 O   0  0  0  0  0  0  0  0  0  0  0  0
   20.9713   -3.5083  -16.7655 O   0  0  0  0  0  0  0  0  0  0  0  0
  2  1  1  1
  2  3  1  0
  3  4  1  0
  4  8  1  0
  5  4  2  0
  6  2  1  0
  7  6  2  0
  9  6  1  0
 10  9  1  0
 11 12  1  0
 10 11  1  6
 12 13  2  0
 14 13  1  0
 15 14  1  0
 16 15  2  0
 16 12  1  0
 17 18  2  0
 17 10  1  0
 20 19  1  0
 21 20  1  0
 23 22  1  1
 22 21  1  0
 23 24  1  0
 24 17  1  0
 25 23  1  0
 26 25  2  0
 27 25  1  0
M  END
$$$$
