DHM.pdb
     RDKit          3D

 27 27  0  0  1  0  0  0  0  0999 V2000
   21.2996  -12.9160  -19.0372 N   0  0  0  0  0  0  0  0  0  0  0  0
   20.1814  -12.0893  -18.5685 C   0  0  1  0  0  0  0  0  0  0  0  0
   19.7990  -12.6785  -17.2032 C   0  0  0  0  0  0  0  0  0  0  0  0
   18.9843  -13.8930  -17.4264 C   0  0  0  0  0  0  0  0  0  0  0  0
   18.1735  -13.9930  -18.3615 O   0  0  0  0  0  0  0  0  0  0  0  0
   20.6339  -10.7101  -18.2910 C   0  0  0  0  0  0  0  0  0  0  0  0
   21.8225  -10.4964  -17.9970 O   0  0  0  0  0  0  0  0  0  0  0  0
   19.1405  -14.9605  -16.5509 O   0  0  0  0  0  0  0  0  0  0  0  0
   19.7141   -9.6459  -18.3596 N   0  0  0  0  0  0  0  0  0  0  0  0
   20.0946   -8.2708  -18.0746 C   0  0  1  0  0  0  0  0  0  0  0  0
   19.0192   -7.3681  -18.6189 C   0  0  0  0  0  0  0  0  0  0  0  0
   19.1773   -7.0855  -20.0683 C   0  0  0  0  0  0  0  0  0  0  0  0
   20.2830   -7.2234  -20.8805 C   0  0  0  0  0  0  0  0  0  0  0  0
   19.9457   -6.8310  -22.1043 N   0  0  0  0  0  0  0  0  0  0  0  0
   18.6394   -6.4347  -22.1179 C   0  0  0  0  0  0  0  0  0  0  0  0
   18.1805   -6.5954  -20.8669 N   0  0  0  0  0  0  0  0  0  0  0  0
   20.2881   -8.0547  -16.6273 C   0  0  0  0  0  0  0  0  0  0  0  0
   19.4981   -8.5951  -15.8195 O   0  0  0  0  0  0  0  0  0  0  0  0
   22.1193   -9.5023  -10.2080 C   0  0  0  0  0  0  0  0  0  0  0  0
   21.7488   -9.6324  -11.9737 S   0  0  0  0  0  0  0  0  0  0  0  0
   22.8152   -8.3949  -12.8327 C   0  0  0  0  0  0  0  0  0  0  0  0
   22.5045   -8.3923  -14.2919 C   0  0  0  0  0  0  0  0  0  0  0  0
   21.5957   -7.2734  -14.6611 C   0  0  2  0  0  0  0  0  0  0  0  0
   21.3350   -7.2538  -16.1036 N   0  0  0  0  0  0  0  0  0  0  0  0
   22.2651   -5.9604  -14.3886 C   0  0  0  0  0  0  0  0  0  0  0  0
   22.6983   -5.2453  -15.2882 O   0  0  0  0  0  0  0  0  0  0  0  0
   22.4115   -5.5201  -13.0717 O   0  0  0  0  0  0  0  0  0  0  0  0
  2  1  1  1
  2  3  1  0
  3  4  1  0
  4  8  1  0
  5  4  2  0
  6  2  1  0
  7  6  2  0
  9  6  1  0
 10  9  1  0
 11 12  1  0
 10 11  1  1
 12 13  2  0
 14 13  1  0
 15 14  1  0
 16 15  2  0
 16 12  1  0
 17 18  2  0
 17 10  1  0
 20 19  1  0
 21 20  1  0
 23 22  1  6
 22 21  1  0
 23 24  1  0
 24 17  1  0
 25 23  1  0
 26 25  2  0
 27 25  1  0
M  END
$$$$
