DHM.pdb
     RDKit          3D

 27 27  0  0  1  0  0  0  0  0999 V2000
   23.1126  -24.1226  -18.9498 N   0  0  0  0  0  0  0  0  0  0  0  0
   24.2324  -23.1742  -18.9607 C   0  0  1  0  0  0  0  0  0  0  0  0
   23.5964  -21.8148  -19.2846 C   0  0  0  0  0  0  0  0  0  0  0  0
   22.4294  -21.6179  -18.3970 C   0  0  0  0  0  0  0  0  0  0  0  0
   22.3056  -20.6231  -17.6644 O   0  0  0  0  0  0  0  0  0  0  0  0
   24.8057  -23.0297  -17.6063 C   0  0  0  0  0  0  0  0  0  0  0  0
   24.7478  -23.9787  -16.8056 O   0  0  0  0  0  0  0  0  0  0  0  0
   21.4360  -22.5893  -18.3905 O   0  0  0  0  0  0  0  0  0  0  0  0
   25.4128  -21.8159  -17.2303 N   0  0  0  0  0  0  0  0  0  0  0  0
   26.0927  -21.6498  -15.9548 C   0  0  1  0  0  0  0  0  0  0  0  0
   27.0572  -20.5011  -16.0878 C   0  0  0  0  0  0  0  0  0  0  0  0
   27.7871  -20.2072  -14.8283 C   0  0  0  0  0  0  0  0  0  0  0  0
   27.6761  -20.7926  -13.5848 C   0  0  0  0  0  0  0  0  0  0  0  0
   28.5264  -20.1828  -12.7658 N   0  0  0  0  0  0  0  0  0  0  0  0
   29.1967  -19.2046  -13.4420 C   0  0  0  0  0  0  0  0  0  0  0  0
   28.7360  -19.2297  -14.7024 N   0  0  0  0  0  0  0  0  0  0  0  0
   25.1320  -21.4136  -14.8594 C   0  0  0  0  0  0  0  0  0  0  0  0
   23.9482  -21.1165  -15.1405 O   0  0  0  0  0  0  0  0  0  0  0  0
   24.3849  -21.6115   -7.4125 C   0  0  0  0  0  0  0  0  0  0  0  0
   25.0511  -20.3129   -8.4810 S   0  0  0  0  0  0  0  0  0  0  0  0
   24.1946  -20.4725  -10.1081 C   0  0  0  0  0  0  0  0  0  0  0  0
   25.1588  -20.9606  -11.1366 C   0  0  0  0  0  0  0  0  0  0  0  0
   24.5141  -21.1154  -12.4687 C   0  0  2  0  0  0  0  0  0  0  0  0
   25.4907  -21.5052  -13.4902 N   0  0  0  0  0  0  0  0  0  0  0  0
   23.9935  -19.7917  -12.9412 C   0  0  0  0  0  0  0  0  0  0  0  0
   24.7049  -18.9754  -13.5207 O   0  0  0  0  0  0  0  0  0  0  0  0
   22.6556  -19.4576  -12.7216 O   0  0  0  0  0  0  0  0  0  0  0  0
  2  1  1  1
  2  3  1  0
  3  4  1  0
  4  8  1  0
  5  4  2  0
  6  2  1  0
  7  6  2  0
  9  6  1  0
 10  9  1  0
 11 12  1  0
 10 11  1  6
 12 13  2  0
 14 13  1  0
 15 14  1  0
 16 15  2  0
 16 12  1  0
 17 18  2  0
 17 10  1  0
 20 19  1  0
 21 20  1  0
 23 22  1  1
 22 21  1  0
 23 24  1  0
 24 17  1  0
 25 23  1  0
 26 25  2  0
 27 25  1  0
M  END
$$$$
