DHM.pdb
     RDKit          3D

 27 27  0  0  1  0  0  0  0  0999 V2000
   28.1421  -21.0373  -15.6510 N   0  0  0  0  0  0  0  0  0  0  0  0
   28.3890  -19.6302  -15.3157 C   0  0  1  0  0  0  0  0  0  0  0  0
   27.8018  -18.8348  -16.4905 C   0  0  0  0  0  0  0  0  0  0  0  0
   28.5703  -19.1624  -17.7113 C   0  0  0  0  0  0  0  0  0  0  0  0
   28.1718  -19.9835  -18.5532 O   0  0  0  0  0  0  0  0  0  0  0  0
   27.5983  -19.2300  -14.1331 C   0  0  0  0  0  0  0  0  0  0  0  0
   27.5738  -18.0386  -13.7796 O   0  0  0  0  0  0  0  0  0  0  0  0
   29.7848  -18.5196  -17.9171 O   0  0  0  0  0  0  0  0  0  0  0  0
   26.8785  -20.2024  -13.4122 N   0  0  0  0  0  0  0  0  0  0  0  0
   25.9246  -19.8498  -12.3716 C   0  0  1  0  0  0  0  0  0  0  0  0
   24.5404  -20.1252  -12.8966 C   0  0  0  0  0  0  0  0  0  0  0  0
   24.3081  -21.5613  -13.1954 C   0  0  0  0  0  0  0  0  0  0  0  0
   25.1534  -22.6416  -13.0554 C   0  0  0  0  0  0  0  0  0  0  0  0
   24.5057  -23.7265  -13.4664 N   0  0  0  0  0  0  0  0  0  0  0  0
   23.2493  -23.3856  -13.8772 C   0  0  0  0  0  0  0  0  0  0  0  0
   23.1405  -22.0588  -13.7062 N   0  0  0  0  0  0  0  0  0  0  0  0
   26.1815  -20.6028  -11.1283 C   0  0  0  0  0  0  0  0  0  0  0  0
   27.0510  -21.5042  -11.1305 O   0  0  0  0  0  0  0  0  0  0  0  0
   28.6924  -19.6151   -4.1437 C   0  0  0  0  0  0  0  0  0  0  0  0
   28.2582  -18.9943   -5.7862 S   0  0  0  0  0  0  0  0  0  0  0  0
   27.2617  -20.3137   -6.6063 C   0  0  0  0  0  0  0  0  0  0  0  0
   26.8673  -19.8672   -7.9740 C   0  0  0  0  0  0  0  0  0  0  0  0
   26.0188  -20.8778   -8.6617 C   0  0  2  0  0  0  0  0  0  0  0  0
   25.4811  -20.3529   -9.9206 N   0  0  0  0  0  0  0  0  0  0  0  0
   24.8037  -21.1723   -7.8352 C   0  0  0  0  0  0  0  0  0  0  0  0
   24.8744  -21.7048   -6.7308 O   0  0  0  0  0  0  0  0  0  0  0  0
   23.5390  -20.8378   -8.3231 O   0  0  0  0  0  0  0  0  0  0  0  0
  2  1  1  6
  2  3  1  0
  3  4  1  0
  4  8  1  0
  5  4  2  0
  6  2  1  0
  7  6  2  0
  9  6  1  0
 10  9  1  0
 11 12  1  0
 10 11  1  6
 12 13  2  0
 14 13  1  0
 15 14  1  0
 16 15  2  0
 16 12  1  0
 17 18  2  0
 17 10  1  0
 20 19  1  0
 21 20  1  0
 23 22  1  1
 22 21  1  0
 23 24  1  0
 24 17  1  0
 25 23  1  0
 26 25  2  0
 27 25  1  0
M  END
$$$$
