DHM.pdb
     RDKit          3D

 27 27  0  0  1  0  0  0  0  0999 V2000
   24.3641  -10.3239  -21.2543 N   0  0  0  0  0  0  0  0  0  0  0  0
   23.4759   -9.2286  -20.8481 C   0  0  1  0  0  0  0  0  0  0  0  0
   22.2175   -9.3990  -21.7112 C   0  0  0  0  0  0  0  0  0  0  0  0
   21.3476   -8.2190  -21.5127 C   0  0  0  0  0  0  0  0  0  0  0  0
   21.6980   -7.2338  -20.8432 O   0  0  0  0  0  0  0  0  0  0  0  0
   23.0260   -9.4132  -19.4526 C   0  0  0  0  0  0  0  0  0  0  0  0
   22.3816  -10.4290  -19.1396 O   0  0  0  0  0  0  0  0  0  0  0  0
   20.0903   -8.2212  -22.1042 O   0  0  0  0  0  0  0  0  0  0  0  0
   23.3289   -8.4352  -18.4857 N   0  0  0  0  0  0  0  0  0  0  0  0
   22.9849   -8.5984  -17.0814 C   0  0  1  0  0  0  0  0  0  0  0  0
   24.2217   -8.3305  -16.2653 C   0  0  0  0  0  0  0  0  0  0  0  0
   25.1269   -9.5048  -16.1806 C   0  0  0  0  0  0  0  0  0  0  0  0
   25.0221  -10.7465  -16.7709 C   0  0  0  0  0  0  0  0  0  0  0  0
   26.0669  -11.4730  -16.3888 N   0  0  0  0  0  0  0  0  0  0  0  0
   26.8601  -10.7376  -15.5561 C   0  0  0  0  0  0  0  0  0  0  0  0
   26.2749   -9.5357  -15.4369 N   0  0  0  0  0  0  0  0  0  0  0  0
   21.8832   -7.6980  -16.6888 C   0  0  0  0  0  0  0  0  0  0  0  0
   21.9387   -6.4897  -17.0134 O   0  0  0  0  0  0  0  0  0  0  0  0
   14.3494   -6.5299  -15.1314 C   0  0  0  0  0  0  0  0  0  0  0  0
   15.6377   -7.7855  -15.3206 S   0  0  0  0  0  0  0  0  0  0  0  0
   17.2500   -6.8887  -15.3713 C   0  0  0  0  0  0  0  0  0  0  0  0
   18.3552   -7.8581  -15.6251 C   0  0  0  0  0  0  0  0  0  0  0  0
   19.6837   -7.1881  -15.6455 C   0  0  2  0  0  0  0  0  0  0  0  0
   20.7552   -8.1408  -15.9516 N   0  0  0  0  0  0  0  0  0  0  0  0
   20.0208   -6.6804  -14.2762 C   0  0  0  0  0  0  0  0  0  0  0  0
   19.3909   -5.7733  -13.7389 O   0  0  0  0  0  0  0  0  0  0  0  0
   21.0864   -7.2458  -13.5730 O   0  0  0  0  0  0  0  0  0  0  0  0
  2  1  1  6
  2  3  1  0
  3  4  1  0
  4  8  1  0
  5  4  2  0
  6  2  1  0
  7  6  2  0
  9  6  1  0
 10  9  1  0
 11 12  1  0
 10 11  1  1
 12 13  2  0
 14 13  1  0
 15 14  1  0
 16 15  2  0
 16 12  1  0
 17 18  2  0
 17 10  1  0
 20 19  1  0
 21 20  1  0
 23 22  1  1
 22 21  1  0
 23 24  1  0
 24 17  1  0
 25 23  1  0
 26 25  2  0
 27 25  1  0
M  END
$$$$
