DHM.pdb
     RDKit          3D

 27 27  0  0  1  0  0  0  0  0999 V2000
   19.3735  -13.5850  -16.0315 N   0  0  0  0  0  0  0  0  0  0  0  0
   19.0760  -12.2600  -16.5878 C   0  0  1  0  0  0  0  0  0  0  0  0
   17.7731  -11.8261  -15.9010 C   0  0  0  0  0  0  0  0  0  0  0  0
   16.6895  -12.7379  -16.3287 C   0  0  0  0  0  0  0  0  0  0  0  0
   16.5757  -13.1407  -17.4977 O   0  0  0  0  0  0  0  0  0  0  0  0
   20.0935  -11.2762  -16.1627 C   0  0  0  0  0  0  0  0  0  0  0  0
   20.3547  -11.1390  -14.9552 O   0  0  0  0  0  0  0  0  0  0  0  0
   15.7676  -13.1565  -15.3772 O   0  0  0  0  0  0  0  0  0  0  0  0
   20.7600  -10.4983  -17.1290 N   0  0  0  0  0  0  0  0  0  0  0  0
   21.6795   -9.4304  -16.7673 C   0  0  1  0  0  0  0  0  0  0  0  0
   22.9790   -9.6709  -17.4889 C   0  0  0  0  0  0  0  0  0  0  0  0
   23.7518  -10.8089  -16.9291 C   0  0  0  0  0  0  0  0  0  0  0  0
   23.9117  -12.0911  -17.4105 C   0  0  0  0  0  0  0  0  0  0  0  0
   24.6813  -12.7578  -16.5568 N   0  0  0  0  0  0  0  0  0  0  0  0
   25.0325  -11.9430  -15.5194 C   0  0  0  0  0  0  0  0  0  0  0  0
   24.4582  -10.7538  -15.7588 N   0  0  0  0  0  0  0  0  0  0  0  0
   21.1230   -8.1047  -17.1014 C   0  0  0  0  0  0  0  0  0  0  0  0
   20.5509   -7.9442  -18.2039 O   0  0  0  0  0  0  0  0  0  0  0  0
   16.1591   -6.1200  -18.3053 C   0  0  0  0  0  0  0  0  0  0  0  0
   16.4305   -5.1325  -16.8143 S   0  0  0  0  0  0  0  0  0  0  0  0
   18.2352   -4.7516  -16.7507 C   0  0  0  0  0  0  0  0  0  0  0  0
   19.0121   -6.0207  -16.6429 C   0  0  0  0  0  0  0  0  0  0  0  0
   20.4755   -5.7666  -16.5535 C   0  0  2  0  0  0  0  0  0  0  0  0
   21.2092   -6.9926  -16.2252 N   0  0  0  0  0  0  0  0  0  0  0  0
   20.7648   -4.8448  -15.4076 C   0  0  0  0  0  0  0  0  0  0  0  0
   21.1842   -5.2518  -14.3274 O   0  0  0  0  0  0  0  0  0  0  0  0
   20.5542   -3.4724  -15.5553 O   0  0  0  0  0  0  0  0  0  0  0  0
  2  1  1  1
  2  3  1  0
  3  4  1  0
  4  8  1  0
  5  4  2  0
  6  2  1  0
  7  6  2  0
  9  6  1  0
 10  9  1  0
 11 12  1  0
 10 11  1  6
 12 13  2  0
 14 13  1  0
 15 14  1  0
 16 15  2  0
 16 12  1  0
 17 18  2  0
 17 10  1  0
 20 19  1  0
 21 20  1  0
 23 22  1  1
 22 21  1  0
 23 24  1  0
 24 17  1  0
 25 23  1  0
 26 25  2  0
 27 25  1  0
M  END
$$$$
