DHM.pdb
     RDKit          3D

 27 27  0  0  1  0  0  0  0  0999 V2000
   17.9179  -12.8374  -17.6304 N   0  0  0  0  0  0  0  0  0  0  0  0
   18.8260  -12.2699  -16.6271 C   0  0  1  0  0  0  0  0  0  0  0  0
   20.2298  -12.7006  -17.0754 C   0  0  0  0  0  0  0  0  0  0  0  0
   20.4214  -14.1237  -16.7197 C   0  0  0  0  0  0  0  0  0  0  0  0
   19.8087  -14.6693  -15.7876 O   0  0  0  0  0  0  0  0  0  0  0  0
   18.8238  -10.7938  -16.6983 C   0  0  0  0  0  0  0  0  0  0  0  0
   18.8924  -10.2277  -17.8028 O   0  0  0  0  0  0  0  0  0  0  0  0
   21.3236  -14.8728  -17.4650 O   0  0  0  0  0  0  0  0  0  0  0  0
   18.7460  -10.0371  -15.5131 N   0  0  0  0  0  0  0  0  0  0  0  0
   18.7547   -8.5822  -15.5184 C   0  0  1  0  0  0  0  0  0  0  0  0
   17.6672   -8.1071  -14.5915 C   0  0  0  0  0  0  0  0  0  0  0  0
   16.3182   -8.1455  -15.2116 C   0  0  0  0  0  0  0  0  0  0  0  0
   15.8744   -7.6003  -16.3978 C   0  0  0  0  0  0  0  0  0  0  0  0
   14.5826   -7.8848  -16.5232 N   0  0  0  0  0  0  0  0  0  0  0  0
   14.1623   -8.6060  -15.4431 C   0  0  0  0  0  0  0  0  0  0  0  0
   15.2329   -8.7592  -14.6484 N   0  0  0  0  0  0  0  0  0  0  0  0
   20.0701   -8.0502  -15.1118 C   0  0  0  0  0  0  0  0  0  0  0  0
   20.6655   -8.5730  -14.1419 O   0  0  0  0  0  0  0  0  0  0  0  0
   26.7021   -4.3903  -17.0160 C   0  0  0  0  0  0  0  0  0  0  0  0
   25.1836   -5.1765  -17.6059 S   0  0  0  0  0  0  0  0  0  0  0  0
   24.1709   -5.5631  -16.1121 C   0  0  0  0  0  0  0  0  0  0  0  0
   22.8801   -6.1846  -16.5285 C   0  0  0  0  0  0  0  0  0  0  0  0
   22.0407   -6.5525  -15.3562 C   0  0  2  0  0  0  0  0  0  0  0  0
   20.6961   -6.9624  -15.7725 N   0  0  0  0  0  0  0  0  0  0  0  0
   21.8097   -5.3478  -14.4951 C   0  0  0  0  0  0  0  0  0  0  0  0
   20.9152   -4.5383  -14.7250 O   0  0  0  0  0  0  0  0  0  0  0  0
   22.6321   -5.1212  -13.3896 O   0  0  0  0  0  0  0  0  0  0  0  0
  2  1  1  6
  2  3  1  0
  3  4  1  0
  4  8  1  0
  5  4  2  0
  6  2  1  0
  7  6  2  0
  9  6  1  0
 10  9  1  0
 11 12  1  0
 10 11  1  1
 12 13  2  0
 14 13  1  0
 15 14  1  0
 16 15  2  0
 16 12  1  0
 17 18  2  0
 17 10  1  0
 20 19  1  0
 21 20  1  0
 23 22  1  6
 22 21  1  0
 23 24  1  0
 24 17  1  0
 25 23  1  0
 26 25  2  0
 27 25  1  0
M  END
$$$$
