DHM.pdb
     RDKit          3D

 27 27  0  0  1  0  0  0  0  0999 V2000
   17.5033  -12.3674  -13.2049 N   0  0  0  0  0  0  0  0  0  0  0  0
   17.0188  -11.8580  -14.4930 C   0  0  1  0  0  0  0  0  0  0  0  0
   15.6328  -12.4935  -14.6737 C   0  0  0  0  0  0  0  0  0  0  0  0
   15.8100  -13.9308  -14.9758 C   0  0  0  0  0  0  0  0  0  0  0  0
   14.9117  -14.7688  -14.7951 O   0  0  0  0  0  0  0  0  0  0  0  0
   16.7793  -10.4016  -14.4204 C   0  0  0  0  0  0  0  0  0  0  0  0
   15.8986   -9.8834  -15.1281 O   0  0  0  0  0  0  0  0  0  0  0  0
   17.0333  -14.3508  -15.4834 O   0  0  0  0  0  0  0  0  0  0  0  0
   17.5525   -9.6088  -13.5504 N   0  0  0  0  0  0  0  0  0  0  0  0
   17.3577   -8.1721  -13.4290 C   0  0  1  0  0  0  0  0  0  0  0  0
   17.6397   -7.7833  -12.0018 C   0  0  0  0  0  0  0  0  0  0  0  0
   16.4391   -7.8601  -11.1312 C   0  0  0  0  0  0  0  0  0  0  0  0
   15.1329   -8.1648  -11.4511 C   0  0  0  0  0  0  0  0  0  0  0  0
   14.4095   -8.0926  -10.3389 N   0  0  0  0  0  0  0  0  0  0  0  0
   15.2105   -7.7447   -9.2897 C   0  0  0  0  0  0  0  0  0  0  0  0
   16.4493   -7.6057   -9.7870 N   0  0  0  0  0  0  0  0  0  0  0  0
   18.2261   -7.4302  -14.3639 C   0  0  0  0  0  0  0  0  0  0  0  0
   19.4540   -7.6761  -14.3806 O   0  0  0  0  0  0  0  0  0  0  0  0
   19.3507   -3.9466  -21.2076 C   0  0  0  0  0  0  0  0  0  0  0  0
   18.1928   -4.8397  -20.1429 S   0  0  0  0  0  0  0  0  0  0  0  0
   18.9772   -4.9446  -18.4755 C   0  0  0  0  0  0  0  0  0  0  0  0
   18.0720   -5.6740  -17.5405 C   0  0  0  0  0  0  0  0  0  0  0  0
   18.6581   -5.7834  -16.1772 C   0  0  2  0  0  0  0  0  0  0  0  0
   17.7309   -6.4402  -15.2508 N   0  0  0  0  0  0  0  0  0  0  0  0
   18.8558   -4.4165  -15.5950 C   0  0  0  0  0  0  0  0  0  0  0  0
   18.0516   -3.9123  -14.8156 O   0  0  0  0  0  0  0  0  0  0  0  0
   19.9875   -3.6756  -15.9412 O   0  0  0  0  0  0  0  0  0  0  0  0
  2  1  1  1
  2  3  1  0
  3  4  1  0
  4  8  1  0
  5  4  2  0
  6  2  1  0
  7  6  2  0
  9  6  1  0
 10  9  1  0
 11 12  1  0
 10 11  1  1
 12 13  2  0
 14 13  1  0
 15 14  1  0
 16 15  2  0
 16 12  1  0
 17 18  2  0
 17 10  1  0
 20 19  1  0
 21 20  1  0
 23 22  1  6
 22 21  1  0
 23 24  1  0
 24 17  1  0
 25 23  1  0
 26 25  2  0
 27 25  1  0
M  END
$$$$
