DHM.pdb
     RDKit          3D

 27 27  0  0  1  0  0  0  0  0999 V2000
   18.9199  -20.4342  -16.5650 N   0  0  0  0  0  0  0  0  0  0  0  0
   18.3609  -19.1679  -17.0524 C   0  0  1  0  0  0  0  0  0  0  0  0
   17.3649  -18.7319  -15.9682 C   0  0  0  0  0  0  0  0  0  0  0  0
   16.2564  -19.7106  -15.9266 C   0  0  0  0  0  0  0  0  0  0  0  0
   15.7327  -20.1732  -16.9531 O   0  0  0  0  0  0  0  0  0  0  0  0
   19.3993  -18.1169  -17.0809 C   0  0  0  0  0  0  0  0  0  0  0  0
   19.6786  -17.4949  -16.0415 O   0  0  0  0  0  0  0  0  0  0  0  0
   15.7899  -20.1245  -14.6850 O   0  0  0  0  0  0  0  0  0  0  0  0
   20.0652  -17.8249  -18.2869 N   0  0  0  0  0  0  0  0  0  0  0  0
   21.0553  -16.7639  -18.3906 C   0  0  1  0  0  0  0  0  0  0  0  0
   21.9828  -17.1024  -19.5275 C   0  0  0  0  0  0  0  0  0  0  0  0
   23.0969  -16.1318  -19.6763 C   0  0  0  0  0  0  0  0  0  0  0  0
   23.3747  -14.9877  -18.9585 C   0  0  0  0  0  0  0  0  0  0  0  0
   24.4716  -14.4382  -19.4690 N   0  0  0  0  0  0  0  0  0  0  0  0
   24.9242  -15.1948  -20.5111 C   0  0  0  0  0  0  0  0  0  0  0  0
   24.0754  -16.2279  -20.6277 N   0  0  0  0  0  0  0  0  0  0  0  0
   20.4162  -15.4497  -18.5987 C   0  0  0  0  0  0  0  0  0  0  0  0
   19.3226  -15.3934  -19.2066 O   0  0  0  0  0  0  0  0  0  0  0  0
   17.4673  -10.1290  -22.0154 C   0  0  0  0  0  0  0  0  0  0  0  0
   18.2991  -11.7143  -21.7569 S   0  0  0  0  0  0  0  0  0  0  0  0
   18.9474  -11.6983  -20.0289 C   0  0  0  0  0  0  0  0  0  0  0  0
   19.7836  -12.9116  -19.7958 C   0  0  0  0  0  0  0  0  0  0  0  0
   20.2886  -12.9740  -18.3975 C   0  0  2  0  0  0  0  0  0  0  0  0
   20.9894  -14.2358  -18.1409 N   0  0  0  0  0  0  0  0  0  0  0  0
   19.1369  -12.9892  -17.4386 C   0  0  0  0  0  0  0  0  0  0  0  0
   18.7259  -14.0252  -16.9226 O   0  0  0  0  0  0  0  0  0  0  0  0
   18.4956  -11.7931  -17.1104 O   0  0  0  0  0  0  0  0  0  0  0  0
  2  1  1  1
  2  3  1  0
  3  4  1  0
  4  8  1  0
  5  4  2  0
  6  2  1  0
  7  6  2  0
  9  6  1  0
 10  9  1  0
 11 12  1  0
 10 11  1  6
 12 13  2  0
 14 13  1  0
 15 14  1  0
 16 15  2  0
 16 12  1  0
 17 18  2  0
 17 10  1  0
 20 19  1  0
 21 20  1  0
 23 22  1  6
 22 21  1  0
 23 24  1  0
 24 17  1  0
 25 23  1  0
 26 25  2  0
 27 25  1  0
M  END
$$$$
