QKE.pdb
     RDKit          3D

 28 27  0  0  1  0  0  0  0  0999 V2000
   16.2017  -18.4900   18.1988 N   0  0  0  0  0  0  0  0  0  0  0  0
   15.4610  -18.8225   17.0462 C   0  0  0  0  0  0  0  0  0  0  0  0
   16.0253  -18.9986   15.9489 O   0  0  0  0  0  0  0  0  0  0  0  0
   13.9889  -18.9674   17.1293 C   0  0  0  0  0  0  0  0  0  0  0  0
   13.5213  -18.7780   18.5568 C   0  0  0  0  0  0  0  0  0  0  0  0
   12.0369  -19.0366   18.6351 C   0  0  2  0  0  0  0  0  0  0  0  0
   11.4156  -18.1422   17.6761 N   0  0  0  0  0  0  0  0  0  0  0  0
   11.4957  -18.8223   19.9954 C   0  0  0  0  0  0  0  0  0  0  0  0
   11.7629  -17.7335   20.5607 O   0  0  0  0  0  0  0  0  0  0  0  0
   10.7039  -19.7981   20.6488 N   0  0  0  0  0  0  0  0  0  0  0  0
   10.1925  -19.6015   22.0262 C   0  0  1  0  0  0  0  0  0  0  0  0
    9.1075  -20.6261   22.2815 C   0  0  0  0  0  0  0  0  0  0  0  0
    8.5662  -20.6565   23.6656 C   0  0  0  0  0  0  0  0  0  0  0  0
    7.5418  -21.7640   23.8562 C   0  0  0  0  0  0  0  0  0  0  0  0
    6.9719  -21.7829   25.2489 C   0  0  0  0  0  0  0  0  0  0  0  0
    5.9135  -22.7530   25.4069 N   0  0  0  0  0  0  0  0  0  0  0  0
   11.3398  -19.6860   22.9427 C   0  0  0  0  0  0  0  0  0  0  0  0
   12.1623  -20.6639   22.8222 O   0  0  0  0  0  0  0  0  0  0  0  0
   11.6564  -18.7815   23.9756 N   0  0  0  0  0  0  0  0  0  0  0  0
   12.7720  -18.9663   24.9052 C   0  0  1  0  0  0  0  0  0  0  0  0
   13.7319  -17.8235   24.8530 C   0  0  0  0  0  0  0  0  0  0  0  0
   14.6059  -17.7693   23.6493 C   0  0  0  0  0  0  0  0  0  0  0  0
   14.8505  -16.4152   23.1104 C   0  0  0  0  0  0  0  0  0  0  0  0
   15.5459  -16.1571   22.1030 O   0  0  0  0  0  0  0  0  0  0  0  0
   12.3040  -19.1273   26.2868 C   0  0  0  0  0  0  0  0  0  0  0  0
   11.0908  -18.9489   26.5538 O   0  0  0  0  0  0  0  0  0  0  0  0
   14.2598  -15.3512   23.7781 O   0  0  0  0  0  0  0  0  0  0  0  0
   13.1510  -19.4723   27.3255 O   0  0  0  0  0  0  0  0  0  0  0  0
  1  2  1  0
  2  4  1  0
  2  3  2  0
  4  5  1  0
  5  6  1  0
  6  8  1  0
  6  7  1  6
  8  9  2  0
 10  8  1  0
 10 11  1  0
 11 12  1  1
 13 12  1  0
 14 15  1  0
 14 13  1  0
 16 15  1  0
 17 11  1  0
 17 18  2  0
 19 17  1  0
 20 25  1  0
 20 19  1  0
 20 21  1  1
 22 21  1  0
 23 22  1  0
 23 24  2  0
 25 28  1  0
 26 25  2  0
 27 23  1  0
M  END
$$$$
