QKE.pdb
     RDKit          3D

 28 27  0  0  1  0  0  0  0  0999 V2000
   10.0352  -21.6402   19.8234 N   0  0  0  0  0  0  0  0  0  0  0  0
    9.9674  -20.3976   20.4863 C   0  0  0  0  0  0  0  0  0  0  0  0
   10.1228  -20.3189   21.7205 O   0  0  0  0  0  0  0  0  0  0  0  0
    9.7080  -19.1604   19.7137 C   0  0  0  0  0  0  0  0  0  0  0  0
    8.2603  -18.7423   19.8603 C   0  0  0  0  0  0  0  0  0  0  0  0
    8.1431  -17.2563   19.6265 C   0  0  2  0  0  0  0  0  0  0  0  0
    8.8406  -16.9823   18.3839 N   0  0  0  0  0  0  0  0  0  0  0  0
    8.7041  -16.4617   20.7416 C   0  0  0  0  0  0  0  0  0  0  0  0
    9.9281  -16.1851   20.6980 O   0  0  0  0  0  0  0  0  0  0  0  0
    7.9040  -16.0213   21.8242 N   0  0  0  0  0  0  0  0  0  0  0  0
    8.4480  -15.1676   22.9071 C   0  0  1  0  0  0  0  0  0  0  0  0
    7.2857  -14.5884   23.6854 C   0  0  0  0  0  0  0  0  0  0  0  0
    7.6519  -13.7020   24.8212 C   0  0  0  0  0  0  0  0  0  0  0  0
    6.4296  -13.0929   25.4901 C   0  0  0  0  0  0  0  0  0  0  0  0
    6.7957  -12.1823   26.6310 C   0  0  0  0  0  0  0  0  0  0  0  0
    5.6406  -11.6116   27.2836 N   0  0  0  0  0  0  0  0  0  0  0  0
    9.3662  -15.9937   23.7056 C   0  0  0  0  0  0  0  0  0  0  0  0
    9.0073  -17.1803   24.0378 O   0  0  0  0  0  0  0  0  0  0  0  0
   10.6460  -15.6218   24.1634 N   0  0  0  0  0  0  0  0  0  0  0  0
   11.6499  -16.5764   24.6365 C   0  0  1  0  0  0  0  0  0  0  0  0
   13.0377  -16.1202   24.3268 C   0  0  0  0  0  0  0  0  0  0  0  0
   14.1278  -17.0501   24.7300 C   0  0  0  0  0  0  0  0  0  0  0  0
   15.4804  -16.6692   24.2727 C   0  0  0  0  0  0  0  0  0  0  0  0
   16.3010  -17.4432   23.7317 O   0  0  0  0  0  0  0  0  0  0  0  0
   11.5396  -16.8057   26.0818 C   0  0  0  0  0  0  0  0  0  0  0  0
   12.1961  -17.7341   26.6129 O   0  0  0  0  0  0  0  0  0  0  0  0
   15.8643  -15.3485   24.4605 O   0  0  0  0  0  0  0  0  0  0  0  0
   10.7328  -16.0339   26.8997 O   0  0  0  0  0  0  0  0  0  0  0  0
  1  2  1  0
  2  4  1  0
  2  3  2  0
  4  5  1  0
  5  6  1  0
  6  8  1  0
  6  7  1  6
  8  9  2  0
 10  8  1  0
 10 11  1  0
 11 12  1  1
 13 12  1  0
 14 15  1  0
 14 13  1  0
 16 15  1  0
 17 11  1  0
 17 18  2  0
 19 17  1  0
 20 25  1  0
 20 19  1  0
 20 21  1  1
 22 21  1  0
 23 22  1  0
 23 24  2  0
 25 28  1  0
 26 25  2  0
 27 23  1  0
M  END
$$$$
