QKE.pdb
     RDKit          3D

 28 27  0  0  1  0  0  0  0  0999 V2000
    9.2994  -17.0162   16.2233 N   0  0  0  0  0  0  0  0  0  0  0  0
    8.0998  -16.3534   16.5542 C   0  0  0  0  0  0  0  0  0  0  0  0
    7.5095  -15.6396   15.7202 O   0  0  0  0  0  0  0  0  0  0  0  0
    7.5235  -16.5006   17.9110 C   0  0  0  0  0  0  0  0  0  0  0  0
    8.3147  -17.5130   18.7118 C   0  0  0  0  0  0  0  0  0  0  0  0
    7.7349  -17.6147   20.1011 C   0  0  2  0  0  0  0  0  0  0  0  0
    6.3064  -17.3994   19.9640 N   0  0  0  0  0  0  0  0  0  0  0  0
    8.3356  -16.6398   21.0382 C   0  0  0  0  0  0  0  0  0  0  0  0
    9.5397  -16.3312   20.8606 O   0  0  0  0  0  0  0  0  0  0  0  0
    7.5940  -16.0667   22.1001 N   0  0  0  0  0  0  0  0  0  0  0  0
    8.2145  -15.1526   23.0883 C   0  0  1  0  0  0  0  0  0  0  0  0
    7.1090  -14.4146   23.8132 C   0  0  0  0  0  0  0  0  0  0  0  0
    7.5510  -13.5099   24.9069 C   0  0  0  0  0  0  0  0  0  0  0  0
    6.3863  -12.7661   25.5413 C   0  0  0  0  0  0  0  0  0  0  0  0
    6.8371  -11.7819   26.5867 C   0  0  0  0  0  0  0  0  0  0  0  0
    5.7412  -11.0423   27.1680 N   0  0  0  0  0  0  0  0  0  0  0  0
    9.0815  -15.9612   23.9588 C   0  0  0  0  0  0  0  0  0  0  0  0
    8.6073  -17.0277   24.4924 O   0  0  0  0  0  0  0  0  0  0  0  0
   10.4259  -15.6937   24.2852 N   0  0  0  0  0  0  0  0  0  0  0  0
   11.3573  -16.7044   24.7891 C   0  0  1  0  0  0  0  0  0  0  0  0
   12.7459  -16.4763   24.2894 C   0  0  0  0  0  0  0  0  0  0  0  0
   13.7818  -17.4074   24.8146 C   0  0  0  0  0  0  0  0  0  0  0  0
   15.1419  -17.2046   24.2734 C   0  0  0  0  0  0  0  0  0  0  0  0
   15.7574  -18.0199   23.5511 O   0  0  0  0  0  0  0  0  0  0  0  0
   11.3820  -16.7339   26.2561 C   0  0  0  0  0  0  0  0  0  0  0  0
   10.8817  -15.7817   26.9026 O   0  0  0  0  0  0  0  0  0  0  0  0
   15.7810  -16.0150   24.5949 O   0  0  0  0  0  0  0  0  0  0  0  0
   11.9398  -17.7790   26.9715 O   0  0  0  0  0  0  0  0  0  0  0  0
  1  2  1  0
  2  4  1  0
  2  3  2  0
  4  5  1  0
  5  6  1  0
  6  8  1  0
  6  7  1  6
  8  9  2  0
 10  8  1  0
 10 11  1  0
 11 12  1  1
 13 12  1  0
 14 15  1  0
 14 13  1  0
 16 15  1  0
 17 11  1  0
 17 18  2  0
 19 17  1  0
 20 25  1  0
 20 19  1  0
 20 21  1  1
 22 21  1  0
 23 22  1  0
 23 24  2  0
 25 28  1  0
 26 25  2  0
 27 23  1  0
M  END
$$$$
