QKE.pdb
     RDKit          3D

 28 27  0  0  1  0  0  0  0  0999 V2000
   13.7301  -18.8782   14.3653 N   0  0  0  0  0  0  0  0  0  0  0  0
   12.8524  -18.2362   13.4679 C   0  0  0  0  0  0  0  0  0  0  0  0
   12.6470  -18.6989   12.3289 O   0  0  0  0  0  0  0  0  0  0  0  0
   12.1586  -16.9920   13.8747 C   0  0  0  0  0  0  0  0  0  0  0  0
   10.7321  -17.2941   14.2822 C   0  0  0  0  0  0  0  0  0  0  0  0
    9.9738  -15.9998   14.4443 C   0  0  2  0  0  0  0  0  0  0  0  0
   10.2414  -15.2178   13.2516 N   0  0  0  0  0  0  0  0  0  0  0  0
   10.3655  -15.2631   15.6664 C   0  0  0  0  0  0  0  0  0  0  0  0
   11.5248  -14.7826   15.7070 O   0  0  0  0  0  0  0  0  0  0  0  0
    9.4780  -15.0968   16.7575 N   0  0  0  0  0  0  0  0  0  0  0  0
    9.8498  -14.3149   17.9608 C   0  0  1  0  0  0  0  0  0  0  0  0
    8.6322  -14.2097   18.8545 C   0  0  0  0  0  0  0  0  0  0  0  0
    8.8353  -13.4780   20.1324 C   0  0  0  0  0  0  0  0  0  0  0  0
    7.5532  -13.3742   20.9435 C   0  0  0  0  0  0  0  0  0  0  0  0
    7.7425  -12.5929   22.2157 C   0  0  0  0  0  0  0  0  0  0  0  0
    6.5208  -12.4534   22.9733 N   0  0  0  0  0  0  0  0  0  0  0  0
   11.0071  -14.9773   18.5813 C   0  0  0  0  0  0  0  0  0  0  0  0
   11.0211  -16.2579   18.6641 O   0  0  0  0  0  0  0  0  0  0  0  0
   12.1491  -14.3459   19.1130 N   0  0  0  0  0  0  0  0  0  0  0  0
   13.2933  -15.0692   19.6703 C   0  0  1  0  0  0  0  0  0  0  0  0
   14.5812  -14.3649   19.3960 C   0  0  0  0  0  0  0  0  0  0  0  0
   15.7995  -15.0024   19.9660 C   0  0  0  0  0  0  0  0  0  0  0  0
   17.0701  -14.3095   19.6670 C   0  0  0  0  0  0  0  0  0  0  0  0
   18.2028  -14.6959   20.0315 O   0  0  0  0  0  0  0  0  0  0  0  0
   13.1588  -15.2604   21.1191 C   0  0  0  0  0  0  0  0  0  0  0  0
   14.0154  -15.9393   21.7358 O   0  0  0  0  0  0  0  0  0  0  0  0
   16.9943  -13.1398   18.9234 O   0  0  0  0  0  0  0  0  0  0  0  0
   12.1152  -14.7185   21.8490 O   0  0  0  0  0  0  0  0  0  0  0  0
  1  2  1  0
  2  4  1  0
  2  3  2  0
  4  5  1  0
  5  6  1  0
  6  8  1  0
  6  7  1  6
  8  9  2  0
 10  8  1  0
 10 11  1  0
 11 12  1  1
 13 12  1  0
 14 15  1  0
 14 13  1  0
 16 15  1  0
 17 11  1  0
 17 18  2  0
 19 17  1  0
 20 25  1  0
 20 19  1  0
 20 21  1  1
 22 21  1  0
 23 22  1  0
 23 24  2  0
 25 28  1  0
 26 25  2  0
 27 23  1  0
M  END
$$$$
