QKE.pdb
     RDKit          3D

 28 27  0  0  1  0  0  0  0  0999 V2000
   15.5545  -17.7352   16.1912 N   0  0  0  0  0  0  0  0  0  0  0  0
   15.1677  -18.5357   17.2854 C   0  0  0  0  0  0  0  0  0  0  0  0
   16.0189  -19.0688   18.0236 O   0  0  0  0  0  0  0  0  0  0  0  0
   13.7304  -18.7532   17.5712 C   0  0  0  0  0  0  0  0  0  0  0  0
   12.8765  -18.0713   16.5232 C   0  0  0  0  0  0  0  0  0  0  0  0
   11.4193  -18.2560   16.8683 C   0  0  2  0  0  0  0  0  0  0  0  0
   10.6640  -17.6586   15.7828 N   0  0  0  0  0  0  0  0  0  0  0  0
   11.0633  -17.6448   18.1680 C   0  0  0  0  0  0  0  0  0  0  0  0
   11.8237  -16.7520   18.6164 O   0  0  0  0  0  0  0  0  0  0  0  0
    9.9114  -18.0402   18.8911 N   0  0  0  0  0  0  0  0  0  0  0  0
    9.5028  -17.3675   20.1472 C   0  0  1  0  0  0  0  0  0  0  0  0
    8.1060  -17.8313   20.5024 C   0  0  0  0  0  0  0  0  0  0  0  0
    7.5566  -17.2965   21.7760 C   0  0  0  0  0  0  0  0  0  0  0  0
    6.1855  -17.8715   22.0949 C   0  0  0  0  0  0  0  0  0  0  0  0
    5.5652  -17.2330   23.3084 C   0  0  0  0  0  0  0  0  0  0  0  0
    4.2606  -17.7700   23.6176 N   0  0  0  0  0  0  0  0  0  0  0  0
   10.5225  -17.6671   21.1639 C   0  0  0  0  0  0  0  0  0  0  0  0
   10.8758  -18.8867   21.3510 O   0  0  0  0  0  0  0  0  0  0  0  0
   11.1859  -16.7349   21.9863 N   0  0  0  0  0  0  0  0  0  0  0  0
   12.0818  -17.1094   23.0819 C   0  0  1  0  0  0  0  0  0  0  0  0
   13.3365  -16.2997   23.0731 C   0  0  0  0  0  0  0  0  0  0  0  0
   14.4593  -16.8581   22.2711 C   0  0  0  0  0  0  0  0  0  0  0  0
   15.6958  -16.0488   22.2716 C   0  0  0  0  0  0  0  0  0  0  0  0
   16.8154  -16.4463   21.8798 O   0  0  0  0  0  0  0  0  0  0  0  0
   11.4310  -16.9580   24.3885 C   0  0  0  0  0  0  0  0  0  0  0  0
   10.3099  -16.3986   24.4603 O   0  0  0  0  0  0  0  0  0  0  0  0
   15.6010  -14.7473   22.7446 O   0  0  0  0  0  0  0  0  0  0  0  0
   12.0046  -17.4104   25.5640 O   0  0  0  0  0  0  0  0  0  0  0  0
  1  2  1  0
  2  4  1  0
  2  3  2  0
  4  5  1  0
  5  6  1  0
  6  8  1  0
  6  7  1  6
  8  9  2  0
 10  8  1  0
 10 11  1  0
 11 12  1  1
 13 12  1  0
 14 15  1  0
 14 13  1  0
 16 15  1  0
 17 11  1  0
 17 18  2  0
 19 17  1  0
 20 25  1  0
 20 19  1  0
 20 21  1  1
 22 21  1  0
 23 22  1  0
 23 24  2  0
 25 28  1  0
 26 25  2  0
 27 23  1  0
M  END
$$$$
