QKE.pdb
     RDKit          3D

 28 27  0  0  1  0  0  0  0  0999 V2000
   16.6564  -16.7864   16.3234 N   0  0  0  0  0  0  0  0  0  0  0  0
   17.1234  -15.7992   17.2151 C   0  0  0  0  0  0  0  0  0  0  0  0
   18.3400  -15.6759   17.4566 O   0  0  0  0  0  0  0  0  0  0  0  0
   16.1622  -14.8894   17.8807 C   0  0  0  0  0  0  0  0  0  0  0  0
   14.7545  -15.1657   17.3967 C   0  0  0  0  0  0  0  0  0  0  0  0
   13.7955  -14.2267   18.0860 C   0  0  2  0  0  0  0  0  0  0  0  0
   14.4408  -12.9271   18.1069 N   0  0  0  0  0  0  0  0  0  0  0  0
   13.4491  -14.6742   19.4532 C   0  0  0  0  0  0  0  0  0  0  0  0
   14.2568  -14.4007   20.3748 O   0  0  0  0  0  0  0  0  0  0  0  0
   12.2552  -15.3846   19.7289 N   0  0  0  0  0  0  0  0  0  0  0  0
   11.9007  -15.8238   21.0996 C   0  0  1  0  0  0  0  0  0  0  0  0
   10.5412  -16.4882   21.0493 C   0  0  0  0  0  0  0  0  0  0  0  0
   10.1150  -17.1731   22.2980 C   0  0  0  0  0  0  0  0  0  0  0  0
    8.8439  -17.9843   22.1016 C   0  0  0  0  0  0  0  0  0  0  0  0
    8.4273  -18.7076   23.3538 C   0  0  0  0  0  0  0  0  0  0  0  0
    7.3658  -19.6594   23.1229 N   0  0  0  0  0  0  0  0  0  0  0  0
   12.9861  -16.6903   21.5834 C   0  0  0  0  0  0  0  0  0  0  0  0
   13.3699  -17.6739   20.8538 O   0  0  0  0  0  0  0  0  0  0  0  0
   13.6843  -16.5596   22.8004 N   0  0  0  0  0  0  0  0  0  0  0  0
   14.6551  -17.5395   23.2907 C   0  0  1  0  0  0  0  0  0  0  0  0
   16.0484  -17.1918   22.8811 C   0  0  0  0  0  0  0  0  0  0  0  0
   16.5384  -15.8587   23.3265 C   0  0  0  0  0  0  0  0  0  0  0  0
   17.8522  -15.4575   22.7817 C   0  0  0  0  0  0  0  0  0  0  0  0
   18.7430  -14.8563   23.4223 O   0  0  0  0  0  0  0  0  0  0  0  0
   14.6090  -17.6619   24.7524 C   0  0  0  0  0  0  0  0  0  0  0  0
   15.3170  -18.5265   25.3235 O   0  0  0  0  0  0  0  0  0  0  0  0
   18.1122  -15.7754   21.4558 O   0  0  0  0  0  0  0  0  0  0  0  0
   13.8090  -16.8557   25.5433 O   0  0  0  0  0  0  0  0  0  0  0  0
  1  2  1  0
  2  4  1  0
  2  3  2  0
  4  5  1  0
  5  6  1  0
  6  8  1  0
  6  7  1  1
  8  9  2  0
 10  8  1  0
 10 11  1  0
 11 12  1  6
 13 12  1  0
 14 15  1  0
 14 13  1  0
 16 15  1  0
 17 11  1  0
 17 18  2  0
 19 17  1  0
 20 25  1  0
 20 19  1  0
 20 21  1  1
 22 21  1  0
 23 22  1  0
 23 24  2  0
 25 28  1  0
 26 25  2  0
 27 23  1  0
M  END
$$$$
