QKE.pdb
     RDKit          3D

 28 27  0  0  1  0  0  0  0  0999 V2000
    8.4079  -18.4560   17.5635 N   0  0  0  0  0  0  0  0  0  0  0  0
    8.8611  -19.0007   18.7824 C   0  0  0  0  0  0  0  0  0  0  0  0
    9.5520  -20.0379   18.8047 O   0  0  0  0  0  0  0  0  0  0  0  0
    8.5167  -18.3383   20.0620 C   0  0  0  0  0  0  0  0  0  0  0  0
    7.4290  -17.3077   19.8450 C   0  0  0  0  0  0  0  0  0  0  0  0
    8.0401  -15.9282   19.8455 C   0  0  2  0  0  0  0  0  0  0  0  0
    9.1415  -15.9694   18.9016 N   0  0  0  0  0  0  0  0  0  0  0  0
    8.5016  -15.5138   21.1889 C   0  0  0  0  0  0  0  0  0  0  0  0
    9.7152  -15.6830   21.4626 O   0  0  0  0  0  0  0  0  0  0  0  0
    7.6206  -14.9455   22.1412 N   0  0  0  0  0  0  0  0  0  0  0  0
    8.1013  -14.4209   23.4416 C   0  0  1  0  0  0  0  0  0  0  0  0
    6.9700  -13.6535   24.0924 C   0  0  0  0  0  0  0  0  0  0  0  0
    7.2683  -13.0841   25.4328 C   0  0  0  0  0  0  0  0  0  0  0  0
    6.1011  -12.2828   25.9877 C   0  0  0  0  0  0  0  0  0  0  0  0
    6.3947  -11.7118   27.3488 C   0  0  0  0  0  0  0  0  0  0  0  0
    5.3207  -10.8883   27.8533 N   0  0  0  0  0  0  0  0  0  0  0  0
    8.5952  -15.5626   24.2264 C   0  0  0  0  0  0  0  0  0  0  0  0
    7.8794  -16.6255   24.2976 O   0  0  0  0  0  0  0  0  0  0  0  0
    9.8120  -15.6303   24.9338 N   0  0  0  0  0  0  0  0  0  0  0  0
   10.2622  -16.8150   25.6664 C   0  0  1  0  0  0  0  0  0  0  0  0
   11.5054  -17.3932   25.0747 C   0  0  0  0  0  0  0  0  0  0  0  0
   12.5769  -16.4151   24.7417 C   0  0  0  0  0  0  0  0  0  0  0  0
   13.7187  -16.9673   23.9832 C   0  0  0  0  0  0  0  0  0  0  0  0
   14.0170  -16.6602   22.8077 O   0  0  0  0  0  0  0  0  0  0  0  0
   10.5080  -16.5148   27.0817 C   0  0  0  0  0  0  0  0  0  0  0  0
   10.3790  -15.3371   27.4959 O   0  0  0  0  0  0  0  0  0  0  0  0
   14.5188  -17.8985   24.6310 O   0  0  0  0  0  0  0  0  0  0  0  0
   10.8811  -17.4847   27.9958 O   0  0  0  0  0  0  0  0  0  0  0  0
  1  2  1  0
  2  4  1  0
  2  3  2  0
  4  5  1  0
  5  6  1  0
  6  8  1  0
  6  7  1  6
  8  9  2  0
 10  8  1  0
 10 11  1  0
 11 12  1  1
 13 12  1  0
 14 15  1  0
 14 13  1  0
 16 15  1  0
 17 11  1  0
 17 18  2  0
 19 17  1  0
 20 25  1  0
 20 19  1  0
 20 21  1  6
 22 21  1  0
 23 22  1  0
 23 24  2  0
 25 28  1  0
 26 25  2  0
 27 23  1  0
M  END
$$$$
