QKE.pdb
     RDKit          3D

 28 27  0  0  1  0  0  0  0  0999 V2000
   15.4140  -14.9740   18.4943 N   0  0  0  0  0  0  0  0  0  0  0  0
   15.3092  -14.1980   19.6668 C   0  0  0  0  0  0  0  0  0  0  0  0
   16.2096  -13.3994   19.9909 O   0  0  0  0  0  0  0  0  0  0  0  0
   14.1149  -14.3259   20.5340 C   0  0  0  0  0  0  0  0  0  0  0  0
   12.8699  -13.9090   19.7799 C   0  0  0  0  0  0  0  0  0  0  0  0
   12.4855  -14.9980   18.8089 C   0  0  2  0  0  0  0  0  0  0  0  0
   11.2380  -14.5783   18.1980 N   0  0  0  0  0  0  0  0  0  0  0  0
   12.3433  -16.3169   19.4644 C   0  0  0  0  0  0  0  0  0  0  0  0
   11.3620  -16.4808   20.2303 O   0  0  0  0  0  0  0  0  0  0  0  0
   13.2701  -17.3655   19.2462 N   0  0  0  0  0  0  0  0  0  0  0  0
   13.1018  -18.7037   19.8613 C   0  0  1  0  0  0  0  0  0  0  0  0
   13.7767  -19.7249   18.9703 C   0  0  0  0  0  0  0  0  0  0  0  0
   12.9700  -20.2033   17.8169 C   0  0  0  0  0  0  0  0  0  0  0  0
   11.7522  -20.9989   18.2598 C   0  0  0  0  0  0  0  0  0  0  0  0
   10.9717  -21.5464   17.0954 C   0  0  0  0  0  0  0  0  0  0  0  0
    9.8187  -22.3132   17.5061 N   0  0  0  0  0  0  0  0  0  0  0  0
   13.6402  -18.6356   21.2283 C   0  0  0  0  0  0  0  0  0  0  0  0
   14.7848  -18.0877   21.4201 O   0  0  0  0  0  0  0  0  0  0  0  0
   13.0203  -19.1167   22.3987 N   0  0  0  0  0  0  0  0  0  0  0  0
   13.5832  -18.9594   23.7409 C   0  0  1  0  0  0  0  0  0  0  0  0
   12.6117  -19.3646   24.8001 C   0  0  0  0  0  0  0  0  0  0  0  0
   13.0804  -19.1986   26.2032 C   0  0  0  0  0  0  0  0  0  0  0  0
   12.1418  -19.6756   27.2402 C   0  0  0  0  0  0  0  0  0  0  0  0
   12.4618  -20.0002   28.4052 O   0  0  0  0  0  0  0  0  0  0  0  0
   14.8148  -19.7401   23.9059 C   0  0  0  0  0  0  0  0  0  0  0  0
   14.9613  -20.8080   23.2632 O   0  0  0  0  0  0  0  0  0  0  0  0
   10.8022  -19.7682   26.8881 O   0  0  0  0  0  0  0  0  0  0  0  0
   15.8389  -19.3476   24.7501 O   0  0  0  0  0  0  0  0  0  0  0  0
  1  2  1  0
  2  4  1  0
  2  3  2  0
  4  5  1  0
  5  6  1  0
  6  8  1  0
  6  7  1  1
  8  9  2  0
 10  8  1  0
 10 11  1  0
 11 12  1  6
 13 12  1  0
 14 15  1  0
 14 13  1  0
 16 15  1  0
 17 11  1  0
 17 18  2  0
 19 17  1  0
 20 25  1  0
 20 19  1  0
 20 21  1  1
 22 21  1  0
 23 22  1  0
 23 24  2  0
 25 28  1  0
 26 25  2  0
 27 23  1  0
M  END
$$$$
