QKE.pdb
     RDKit          3D

 28 27  0  0  1  0  0  0  0  0999 V2000
    8.9600  -18.3148   15.5240 N   0  0  0  0  0  0  0  0  0  0  0  0
    9.0895  -19.3370   16.4865 C   0  0  0  0  0  0  0  0  0  0  0  0
    9.8614  -20.2981   16.3025 O   0  0  0  0  0  0  0  0  0  0  0  0
    8.3006  -19.2775   17.7391 C   0  0  0  0  0  0  0  0  0  0  0  0
    8.9794  -18.3734   18.7461 C   0  0  0  0  0  0  0  0  0  0  0  0
    7.9352  -17.5648   19.4756 C   0  0  2  0  0  0  0  0  0  0  0  0
    7.2061  -16.8284   18.4599 N   0  0  0  0  0  0  0  0  0  0  0  0
    8.5253  -16.6513   20.4790 C   0  0  0  0  0  0  0  0  0  0  0  0
    9.7331  -16.3384   20.3386 O   0  0  0  0  0  0  0  0  0  0  0  0
    7.7697  -16.1398   21.5623 N   0  0  0  0  0  0  0  0  0  0  0  0
    8.3576  -15.2211   22.5661 C   0  0  1  0  0  0  0  0  0  0  0  0
    7.2268  -14.5468   23.3136 C   0  0  0  0  0  0  0  0  0  0  0  0
    7.6364  -13.6660   24.4389 C   0  0  0  0  0  0  0  0  0  0  0  0
    6.4411  -13.0537   25.1519 C   0  0  0  0  0  0  0  0  0  0  0  0
    6.8510  -12.1424   26.2772 C   0  0  0  0  0  0  0  0  0  0  0  0
    5.7221  -11.5810   26.9817 N   0  0  0  0  0  0  0  0  0  0  0  0
    9.2646  -16.0101   23.4135 C   0  0  0  0  0  0  0  0  0  0  0  0
    8.8873  -17.1672   23.8208 O   0  0  0  0  0  0  0  0  0  0  0  0
   10.5516  -15.6312   23.8443 N   0  0  0  0  0  0  0  0  0  0  0  0
   11.5338  -16.5671   24.3940 C   0  0  1  0  0  0  0  0  0  0  0  0
   12.9220  -16.2344   23.9555 C   0  0  0  0  0  0  0  0  0  0  0  0
   13.9920  -17.1383   24.4594 C   0  0  0  0  0  0  0  0  0  0  0  0
   15.3556  -16.8245   23.9841 C   0  0  0  0  0  0  0  0  0  0  0  0
   15.7907  -15.6738   23.7565 O   0  0  0  0  0  0  0  0  0  0  0  0
   11.4950  -16.5925   25.8608 C   0  0  0  0  0  0  0  0  0  0  0  0
   12.1510  -17.4635   26.4821 O   0  0  0  0  0  0  0  0  0  0  0  0
   16.2159  -17.8939   23.7760 O   0  0  0  0  0  0  0  0  0  0  0  0
   10.7574  -15.6866   26.6029 O   0  0  0  0  0  0  0  0  0  0  0  0
  1  2  1  0
  2  4  1  0
  2  3  2  0
  4  5  1  0
  5  6  1  0
  6  8  1  0
  6  7  1  6
  8  9  2  0
 10  8  1  0
 10 11  1  0
 11 12  1  1
 13 12  1  0
 14 15  1  0
 14 13  1  0
 16 15  1  0
 17 11  1  0
 17 18  2  0
 19 17  1  0
 20 25  1  0
 20 19  1  0
 20 21  1  1
 22 21  1  0
 23 22  1  0
 23 24  2  0
 25 28  1  0
 26 25  2  0
 27 23  1  0
M  END
$$$$
