TCI.pdb
     RDKit          3D

 22 21  0  0  1  0  0  0  0  0999 V2000
    5.7808  -20.1658   25.0737 C   0  0  0  0  0  0  0  0  0  0  0  0
    6.7750  -19.1730   24.5353 C   0  0  1  0  0  0  0  0  0  0  0  0
    7.9450  -19.2147   25.2822 O   0  0  0  0  0  0  0  0  0  0  0  0
    7.0265  -19.3301   23.0594 C   0  0  2  0  0  0  0  0  0  0  0  0
    7.4983  -20.6450   22.7692 N   0  0  0  0  0  0  0  0  0  0  0  0
    7.9855  -18.2704   22.6214 C   0  0  0  0  0  0  0  0  0  0  0  0
    9.1914  -18.5260   22.3768 O   0  0  0  0  0  0  0  0  0  0  0  0
    7.5741  -16.9031   22.4582 N   0  0  0  0  0  0  0  0  0  0  0  0
    8.5070  -15.8615   22.0902 C   0  0  1  0  0  0  0  0  0  0  0  0
    7.8756  -14.8741   21.1133 C   0  0  0  0  0  0  0  0  0  0  0  0
    6.3396  -14.1938   21.7586 S   0  0  0  0  0  0  0  0  0  0  0  0
    9.0272  -15.1271   23.2571 C   0  0  0  0  0  0  0  0  0  0  0  0
    9.8866  -14.2167   23.2033 O   0  0  0  0  0  0  0  0  0  0  0  0
    5.8428  -12.6675   26.1134 C   0  0  0  0  0  0  0  0  0  0  0  0
    7.0938  -13.1776   25.4430 C   0  0  0  0  0  0  0  0  0  0  0  0
    7.8000  -14.1093   26.3941 C   0  0  2  0  0  0  0  0  0  0  0  0
    8.2135  -13.3810   27.6320 C   0  0  0  0  0  0  0  0  0  0  0  0
    8.9736  -14.8050   25.7396 C   0  0  2  0  0  0  0  0  0  0  0  0
    8.5208  -15.4726   24.5396 N   0  0  0  0  0  0  0  0  0  0  0  0
    9.4594  -15.8308   26.6913 C   0  0  0  0  0  0  0  0  0  0  0  0
    9.1025  -17.0387   26.6098 O   0  0  0  0  0  0  0  0  0  0  0  0
   10.3313  -15.4499   27.6994 O   0  0  0  0  0  0  0  0  0  0  0  0
  2  3  1  0
  2  1  1  1
  4  2  1  0
  4  5  1  1
  6  4  1  0
  6  8  1  0
  7  6  2  0
  9  8  1  0
  9 12  1  0
  9 10  1  6
 11 10  1  0
 12 19  1  0
 13 12  2  0
 15 14  1  0
 16 17  1  1
 16 15  1  0
 18 20  1  0
 18 16  1  0
 18 19  1  6
 20 22  1  0
 21 20  2  0
M  END
$$$$
