TCI.pdb
     RDKit          3D

 22 21  0  0  1  0  0  0  0  0999 V2000
    8.3980  -13.5870   16.2667 C   0  0  0  0  0  0  0  0  0  0  0  0
    8.3232  -14.4642   17.4869 C   0  0  1  0  0  0  0  0  0  0  0  0
    9.5860  -14.9438   17.8093 O   0  0  0  0  0  0  0  0  0  0  0  0
    7.6440  -13.7973   18.6530 C   0  0  2  0  0  0  0  0  0  0  0  0
    8.3840  -12.6528   19.0756 N   0  0  0  0  0  0  0  0  0  0  0  0
    7.4734  -14.8018   19.7467 C   0  0  0  0  0  0  0  0  0  0  0  0
    6.8249  -15.8648   19.5769 O   0  0  0  0  0  0  0  0  0  0  0  0
    8.0444  -14.6005   21.0502 N   0  0  0  0  0  0  0  0  0  0  0  0
    7.9411  -15.5962   22.0935 C   0  0  1  0  0  0  0  0  0  0  0  0
    8.3716  -16.9707   21.5901 C   0  0  0  0  0  0  0  0  0  0  0  0
    8.5141  -18.1551   22.9374 S   0  0  0  0  0  0  0  0  0  0  0  0
    8.7268  -15.2477   23.2905 C   0  0  0  0  0  0  0  0  0  0  0  0
    9.9493  -14.9724   23.2876 O   0  0  0  0  0  0  0  0  0  0  0  0
    6.6229  -11.2940   26.9955 C   0  0  0  0  0  0  0  0  0  0  0  0
    7.7069  -12.3408   26.9357 C   0  0  0  0  0  0  0  0  0  0  0  0
    7.3206  -13.3708   25.9056 C   0  0  2  0  0  0  0  0  0  0  0  0
    6.0896  -14.1032   26.3320 C   0  0  0  0  0  0  0  0  0  0  0  0
    8.4571  -14.3224   25.6014 C   0  0  2  0  0  0  0  0  0  0  0  0
    8.0539  -15.2205   24.5423 N   0  0  0  0  0  0  0  0  0  0  0  0
    8.6980  -15.1206   26.8258 C   0  0  0  0  0  0  0  0  0  0  0  0
    9.1623  -14.6028   27.8791 O   0  0  0  0  0  0  0  0  0  0  0  0
    8.4040  -16.4752   26.8110 O   0  0  0  0  0  0  0  0  0  0  0  0
  2  3  1  0
  2  1  1  6
  4  2  1  0
  4  5  1  1
  6  4  1  0
  6  8  1  0
  7  6  2  0
  9  8  1  0
  9 12  1  0
  9 10  1  6
 11 10  1  0
 12 19  1  0
 13 12  2  0
 15 14  1  0
 16 17  1  1
 16 15  1  0
 18 20  1  0
 18 16  1  0
 18 19  1  6
 20 22  1  0
 21 20  2  0
M  END
$$$$
