TCI.pdb
     RDKit          3D

 22 21  0  0  1  0  0  0  0  0999 V2000
    8.6388  -12.7412   18.6660 C   0  0  0  0  0  0  0  0  0  0  0  0
    8.3443  -13.5669   19.8889 C   0  0  1  0  0  0  0  0  0  0  0  0
    7.2057  -13.0902   20.5250 O   0  0  0  0  0  0  0  0  0  0  0  0
    8.2697  -15.0426   19.6013 C   0  0  2  0  0  0  0  0  0  0  0  0
    7.3740  -15.2972   18.5202 N   0  0  0  0  0  0  0  0  0  0  0  0
    7.8700  -15.7551   20.8531 C   0  0  0  0  0  0  0  0  0  0  0  0
    6.9182  -16.5755   20.8753 O   0  0  0  0  0  0  0  0  0  0  0  0
    8.5567  -15.5361   22.0964 N   0  0  0  0  0  0  0  0  0  0  0  0
    8.2975  -16.3443   23.2670 C   0  0  1  0  0  0  0  0  0  0  0  0
    8.4854  -17.8283   22.9665 C   0  0  0  0  0  0  0  0  0  0  0  0
    8.4298  -18.8205   24.4668 S   0  0  0  0  0  0  0  0  0  0  0  0
    9.1424  -15.9689   24.4145 C   0  0  0  0  0  0  0  0  0  0  0  0
   10.3955  -15.9838   24.4143 O   0  0  0  0  0  0  0  0  0  0  0  0
    6.5615  -12.0396   26.7647 C   0  0  0  0  0  0  0  0  0  0  0  0
    7.5839  -12.9423   26.1212 C   0  0  0  0  0  0  0  0  0  0  0  0
    8.2448  -13.7614   27.1998 C   0  0  2  0  0  0  0  0  0  0  0  0
    8.9370  -12.8736   28.1829 C   0  0  0  0  0  0  0  0  0  0  0  0
    9.1864  -14.7985   26.6276 C   0  0  2  0  0  0  0  0  0  0  0  0
    8.4941  -15.5591   25.6113 N   0  0  0  0  0  0  0  0  0  0  0  0
    9.5500  -15.7156   27.7325 C   0  0  0  0  0  0  0  0  0  0  0  0
    8.8448  -16.7208   28.0245 O   0  0  0  0  0  0  0  0  0  0  0  0
   10.6985  -15.4595   28.4652 O   0  0  0  0  0  0  0  0  0  0  0  0
  2  3  1  0
  2  1  1  6
  4  2  1  0
  4  5  1  6
  6  4  1  0
  6  8  1  0
  7  6  2  0
  9  8  1  0
  9 12  1  0
  9 10  1  6
 11 10  1  0
 12 19  1  0
 13 12  2  0
 15 14  1  0
 16 17  1  1
 16 15  1  0
 18 20  1  0
 18 16  1  0
 18 19  1  6
 20 22  1  0
 21 20  2  0
M  END
$$$$
