TCI.pdb
     RDKit          3D

 22 21  0  0  1  0  0  0  0  0999 V2000
    9.8339  -12.7324   20.0251 C   0  0  0  0  0  0  0  0  0  0  0  0
    8.9250  -13.0617   18.8721 C   0  0  1  0  0  0  0  0  0  0  0  0
    9.4443  -12.5469   17.6915 O   0  0  0  0  0  0  0  0  0  0  0  0
    8.6070  -14.5296   18.7712 C   0  0  2  0  0  0  0  0  0  0  0  0
    7.7569  -14.7818   17.6532 N   0  0  0  0  0  0  0  0  0  0  0  0
    8.0004  -14.9783   20.0616 C   0  0  0  0  0  0  0  0  0  0  0  0
    6.8107  -14.7102   20.3650 O   0  0  0  0  0  0  0  0  0  0  0  0
    8.7505  -15.7406   21.0216 N   0  0  0  0  0  0  0  0  0  0  0  0
    8.2028  -16.1000   22.3105 C   0  0  1  0  0  0  0  0  0  0  0  0
    8.3421  -17.5967   22.5722 C   0  0  0  0  0  0  0  0  0  0  0  0
   10.0678  -18.1058   22.6058 S   0  0  0  0  0  0  0  0  0  0  0  0
    8.8217  -15.3520   23.4191 C   0  0  0  0  0  0  0  0  0  0  0  0
    9.9732  -14.8582   23.3927 O   0  0  0  0  0  0  0  0  0  0  0  0
    5.6670  -12.0586   26.1161 C   0  0  0  0  0  0  0  0  0  0  0  0
    6.8503  -12.7010   25.4368 C   0  0  0  0  0  0  0  0  0  0  0  0
    7.4884  -13.6677   26.4010 C   0  0  2  0  0  0  0  0  0  0  0  0
    7.9721  -12.9506   27.6199 C   0  0  0  0  0  0  0  0  0  0  0  0
    8.5951  -14.4693   25.7512 C   0  0  2  0  0  0  0  0  0  0  0  0
    8.0618  -15.1746   24.6072 N   0  0  0  0  0  0  0  0  0  0  0  0
    9.0529  -15.4677   26.7451 C   0  0  0  0  0  0  0  0  0  0  0  0
    8.5554  -16.6261   26.8049 O   0  0  0  0  0  0  0  0  0  0  0  0
   10.0569  -15.1163   27.6340 O   0  0  0  0  0  0  0  0  0  0  0  0
  2  3  1  0
  2  1  1  1
  4  2  1  0
  4  5  1  6
  6  4  1  0
  6  8  1  0
  7  6  2  0
  9  8  1  0
  9 12  1  0
  9 10  1  1
 11 10  1  0
 12 19  1  0
 13 12  2  0
 15 14  1  0
 16 17  1  1
 16 15  1  0
 18 20  1  0
 18 16  1  0
 18 19  1  6
 20 22  1  0
 21 20  2  0
M  END
$$$$
