TCI.pdb
     RDKit          3D

 22 21  0  0  1  0  0  0  0  0999 V2000
    9.3880  -18.0193   18.4999 C   0  0  0  0  0  0  0  0  0  0  0  0
    8.9288  -17.5226   19.8440 C   0  0  1  0  0  0  0  0  0  0  0  0
    9.4006  -16.2354   20.0649 O   0  0  0  0  0  0  0  0  0  0  0  0
    7.4400  -17.6329   20.0374 C   0  0  2  0  0  0  0  0  0  0  0  0
    6.7486  -16.8922   19.0328 N   0  0  0  0  0  0  0  0  0  0  0  0
    7.1011  -17.1740   21.4190 C   0  0  0  0  0  0  0  0  0  0  0  0
    6.5640  -16.0586   21.6354 O   0  0  0  0  0  0  0  0  0  0  0  0
    7.3738  -17.9884   22.5713 N   0  0  0  0  0  0  0  0  0  0  0  0
    7.0897  -17.5346   23.9144 C   0  0  1  0  0  0  0  0  0  0  0  0
    7.0023  -18.7070   24.8869 C   0  0  0  0  0  0  0  0  0  0  0  0
    6.8747  -18.1457   26.5919 S   0  0  0  0  0  0  0  0  0  0  0  0
    8.0835  -16.5651   24.4083 C   0  0  0  0  0  0  0  0  0  0  0  0
    9.3219  -16.6653   24.2448 O   0  0  0  0  0  0  0  0  0  0  0  0
    6.0579  -12.0411   27.3186 C   0  0  0  0  0  0  0  0  0  0  0  0
    6.6631  -13.3843   26.9964 C   0  0  0  0  0  0  0  0  0  0  0  0
    7.7604  -13.1837   25.9831 C   0  0  2  0  0  0  0  0  0  0  0  0
    7.2131  -12.5820   24.7292 C   0  0  0  0  0  0  0  0  0  0  0  0
    8.5142  -14.4653   25.7023 C   0  0  2  0  0  0  0  0  0  0  0  0
    7.6084  -15.4318   25.1227 N   0  0  0  0  0  0  0  0  0  0  0  0
    8.9865  -14.9887   27.0051 C   0  0  0  0  0  0  0  0  0  0  0  0
    8.4924  -16.0269   27.5256 O   0  0  0  0  0  0  0  0  0  0  0  0
   10.0007  -14.3164   27.6691 O   0  0  0  0  0  0  0  0  0  0  0  0
  2  3  1  0
  2  1  1  6
  4  2  1  0
  4  5  1  6
  6  4  1  0
  6  8  1  0
  7  6  2  0
  9  8  1  0
  9 12  1  0
  9 10  1  1
 11 10  1  0
 12 19  1  0
 13 12  2  0
 15 14  1  0
 16 17  1  6
 16 15  1  0
 18 20  1  0
 18 16  1  0
 18 19  1  1
 20 22  1  0
 21 20  2  0
M  END
$$$$
