TCI.pdb
     RDKit          3D

 22 21  0  0  1  0  0  0  0  0999 V2000
    9.7111  -18.0231   22.4754 C   0  0  0  0  0  0  0  0  0  0  0  0
    9.0689  -17.6085   21.1794 C   0  0  1  0  0  0  0  0  0  0  0  0
    8.9990  -18.6911   20.3124 O   0  0  0  0  0  0  0  0  0  0  0  0
    7.7364  -16.9344   21.3696 C   0  0  2  0  0  0  0  0  0  0  0  0
    7.0596  -16.8021   20.1205 N   0  0  0  0  0  0  0  0  0  0  0  0
    7.9573  -15.6173   22.0410 C   0  0  0  0  0  0  0  0  0  0  0  0
    7.7557  -14.5276   21.4483 O   0  0  0  0  0  0  0  0  0  0  0  0
    8.4127  -15.5323   23.4015 N   0  0  0  0  0  0  0  0  0  0  0  0
    8.0472  -14.4310   24.2640 C   0  0  1  0  0  0  0  0  0  0  0  0
    6.5350  -14.3549   24.4521 C   0  0  0  0  0  0  0  0  0  0  0  0
    6.0831  -13.1446   25.7048 S   0  0  0  0  0  0  0  0  0  0  0  0
    8.6992  -14.5027   25.5836 C   0  0  0  0  0  0  0  0  0  0  0  0
    8.6881  -13.5849   26.4368 O   0  0  0  0  0  0  0  0  0  0  0  0
    9.2694  -13.0717   29.2559 C   0  0  0  0  0  0  0  0  0  0  0  0
    9.5104  -13.6952   27.9040 C   0  0  0  0  0  0  0  0  0  0  0  0
   10.1637  -15.0381   28.1064 C   0  0  2  0  0  0  0  0  0  0  0  0
   11.3402  -14.9169   29.0202 C   0  0  0  0  0  0  0  0  0  0  0  0
   10.5435  -15.6876   26.7935 C   0  0  2  0  0  0  0  0  0  0  0  0
    9.3926  -15.6975   25.9182 N   0  0  0  0  0  0  0  0  0  0  0  0
   10.9172  -17.0896   27.0916 C   0  0  0  0  0  0  0  0  0  0  0  0
   10.0658  -18.0214   27.0915 O   0  0  0  0  0  0  0  0  0  0  0  0
   12.2412  -17.3833   27.3786 O   0  0  0  0  0  0  0  0  0  0  0  0
  2  3  1  0
  2  1  1  1
  4  2  1  0
  4  5  1  6
  6  4  1  0
  6  8  1  0
  7  6  2  0
  9  8  1  0
  9 12  1  0
  9 10  1  1
 11 10  1  0
 12 19  1  0
 13 12  2  0
 15 14  1  0
 16 17  1  1
 16 15  1  0
 18 20  1  0
 18 16  1  0
 18 19  1  6
 20 22  1  0
 21 20  2  0
M  END
$$$$
