TCI.pdb
     RDKit          3D

 22 21  0  0  1  0  0  0  0  0999 V2000
    7.8666  -12.9452   17.6372 C   0  0  0  0  0  0  0  0  0  0  0  0
    7.4121  -13.6277   18.8988 C   0  0  1  0  0  0  0  0  0  0  0  0
    6.5324  -14.6583   18.5948 O   0  0  0  0  0  0  0  0  0  0  0  0
    8.5536  -14.0810   19.7692 C   0  0  2  0  0  0  0  0  0  0  0  0
    9.2953  -15.1150   19.1236 N   0  0  0  0  0  0  0  0  0  0  0  0
    8.0059  -14.5124   21.0914 C   0  0  0  0  0  0  0  0  0  0  0  0
    7.4041  -13.7145   21.8533 O   0  0  0  0  0  0  0  0  0  0  0  0
    8.1412  -15.8651   21.5577 N   0  0  0  0  0  0  0  0  0  0  0  0
    7.5722  -16.3031   22.8126 C   0  0  1  0  0  0  0  0  0  0  0  0
    7.4547  -17.8234   22.8654 C   0  0  0  0  0  0  0  0  0  0  0  0
    7.0762  -18.4015   24.5270 S   0  0  0  0  0  0  0  0  0  0  0  0
    8.3403  -15.8330   23.9791 C   0  0  0  0  0  0  0  0  0  0  0  0
    9.5844  -15.9231   24.0988 O   0  0  0  0  0  0  0  0  0  0  0  0
    5.8858  -11.7230   26.5561 C   0  0  0  0  0  0  0  0  0  0  0  0
    6.8884  -12.6060   25.8564 C   0  0  0  0  0  0  0  0  0  0  0  0
    7.3891  -13.6330   26.8391 C   0  0  2  0  0  0  0  0  0  0  0  0
    8.0523  -12.9674   28.0014 C   0  0  0  0  0  0  0  0  0  0  0  0
    8.3011  -14.6473   26.1840 C   0  0  2  0  0  0  0  0  0  0  0  0
    7.6227  -15.2329   25.0493 N   0  0  0  0  0  0  0  0  0  0  0  0
    8.5547  -15.7142   27.1798 C   0  0  0  0  0  0  0  0  0  0  0  0
    7.7517  -16.6731   27.3491 O   0  0  0  0  0  0  0  0  0  0  0  0
    9.7081  -15.6547   27.9463 O   0  0  0  0  0  0  0  0  0  0  0  0
  2  3  1  0
  2  1  1  6
  4  2  1  0
  4  5  1  6
  6  4  1  0
  6  8  1  0
  7  6  2  0
  9  8  1  0
  9 12  1  0
  9 10  1  6
 11 10  1  0
 12 19  1  0
 13 12  2  0
 15 14  1  0
 16 17  1  1
 16 15  1  0
 18 20  1  0
 18 16  1  0
 18 19  1  6
 20 22  1  0
 21 20  2  0
M  END
$$$$
