TCI.pdb
     RDKit          3D

 22 21  0  0  1  0  0  0  0  0999 V2000
    9.9933  -14.6190   20.6827 C   0  0  0  0  0  0  0  0  0  0  0  0
    8.8430  -13.7058   20.3555 C   0  0  1  0  0  0  0  0  0  0  0  0
    8.9904  -13.1912   19.0742 O   0  0  0  0  0  0  0  0  0  0  0  0
    7.4989  -14.3495   20.5680 C   0  0  2  0  0  0  0  0  0  0  0  0
    6.4528  -13.4721   20.1536 N   0  0  0  0  0  0  0  0  0  0  0  0
    7.3778  -14.7428   22.0050 C   0  0  0  0  0  0  0  0  0  0  0  0
    7.3444  -13.8892   22.9267 O   0  0  0  0  0  0  0  0  0  0  0  0
    7.2935  -16.1208   22.4042 N   0  0  0  0  0  0  0  0  0  0  0  0
    7.2865  -16.5161   23.7950 C   0  0  1  0  0  0  0  0  0  0  0  0
    6.7632  -17.9395   23.9622 C   0  0  0  0  0  0  0  0  0  0  0  0
    6.5353  -18.3624   25.6964 S   0  0  0  0  0  0  0  0  0  0  0  0
    8.6155  -16.4088   24.4224 C   0  0  0  0  0  0  0  0  0  0  0  0
    9.7046  -16.5273   23.8139 O   0  0  0  0  0  0  0  0  0  0  0  0
    9.0013  -13.8115   29.5016 C   0  0  0  0  0  0  0  0  0  0  0  0
    8.9898  -15.0421   28.6299 C   0  0  0  0  0  0  0  0  0  0  0  0
    9.8439  -14.7768   27.4169 C   0  0  2  0  0  0  0  0  0  0  0  0
    9.3517  -13.5721   26.6819 C   0  0  0  0  0  0  0  0  0  0  0  0
    9.9315  -15.9848   26.5099 C   0  0  2  0  0  0  0  0  0  0  0  0
    8.6722  -16.1524   25.8194 N   0  0  0  0  0  0  0  0  0  0  0  0
   10.1515  -17.1663   27.3759 C   0  0  0  0  0  0  0  0  0  0  0  0
    9.2319  -17.9958   27.6189 O   0  0  0  0  0  0  0  0  0  0  0  0
   11.4050  -17.3636   27.9339 O   0  0  0  0  0  0  0  0  0  0  0  0
  2  3  1  0
  2  1  1  6
  4  2  1  0
  4  5  1  1
  6  4  1  0
  6  8  1  0
  7  6  2  0
  9  8  1  0
  9 12  1  0
  9 10  1  6
 11 10  1  0
 12 19  1  0
 13 12  2  0
 15 14  1  0
 16 17  1  6
 16 15  1  0
 18 20  1  0
 18 16  1  0
 18 19  1  1
 20 22  1  0
 21 20  2  0
M  END
$$$$
