TCI.pdb
     RDKit          3D

 22 21  0  0  1  0  0  0  0  0999 V2000
    6.1982  -19.7635   21.0606 C   0  0  0  0  0  0  0  0  0  0  0  0
    6.8786  -18.5497   21.6329 C   0  0  1  0  0  0  0  0  0  0  0  0
    6.5251  -17.4179   20.9101 O   0  0  0  0  0  0  0  0  0  0  0  0
    6.6484  -18.3855   23.1114 C   0  0  2  0  0  0  0  0  0  0  0  0
    5.2584  -18.2167   23.3858 N   0  0  0  0  0  0  0  0  0  0  0  0
    7.4698  -17.2360   23.5995 C   0  0  0  0  0  0  0  0  0  0  0  0
    8.7226  -17.2256   23.5007 O   0  0  0  0  0  0  0  0  0  0  0  0
    6.8652  -16.0828   24.2078 N   0  0  0  0  0  0  0  0  0  0  0  0
    7.6549  -15.0344   24.8144 C   0  0  1  0  0  0  0  0  0  0  0  0
    6.8261  -13.7712   25.0272 C   0  0  0  0  0  0  0  0  0  0  0  0
    5.5634  -14.0113   26.2867 S   0  0  0  0  0  0  0  0  0  0  0  0
    8.2549  -15.4450   26.0961 C   0  0  0  0  0  0  0  0  0  0  0  0
    7.7575  -16.2856   26.8812 O   0  0  0  0  0  0  0  0  0  0  0  0
   13.1144  -16.9303   26.0992 C   0  0  0  0  0  0  0  0  0  0  0  0
   11.6645  -16.7161   26.4545 C   0  0  0  0  0  0  0  0  0  0  0  0
   11.5761  -15.5762   27.4364 C   0  0  2  0  0  0  0  0  0  0  0  0
   12.3132  -15.9081   28.6934 C   0  0  0  0  0  0  0  0  0  0  0  0
   10.1430  -15.1815   27.7194 C   0  0  2  0  0  0  0  0  0  0  0  0
    9.4878  -14.8473   26.4745 N   0  0  0  0  0  0  0  0  0  0  0  0
   10.1835  -13.9679   28.5678 C   0  0  0  0  0  0  0  0  0  0  0  0
   10.2024  -12.8075   28.0717 O   0  0  0  0  0  0  0  0  0  0  0  0
   10.2012  -14.1144   29.9461 O   0  0  0  0  0  0  0  0  0  0  0  0
  2  3  1  0
  2  1  1  6
  4  2  1  0
  4  5  1  6
  6  4  1  0
  6  8  1  0
  7  6  2  0
  9  8  1  0
  9 12  1  0
  9 10  1  1
 11 10  1  0
 12 19  1  0
 13 12  2  0
 15 14  1  0
 16 17  1  1
 16 15  1  0
 18 20  1  0
 18 16  1  0
 18 19  1  6
 20 22  1  0
 21 20  2  0
M  END
$$$$
