HKW.pdb
     RDKit          3D

 34 36  0  0  1  0  0  0  0  0999 V2000
   21.8186  -19.5980  -15.8353 N   0  0  0  0  0  0  0  0  0  0  0  0
   22.4826  -18.9572  -14.7233 C   0  0  1  0  0  0  0  0  0  0  0  0
   21.6048  -17.9207  -14.0878 C   0  0  0  0  0  0  0  0  0  0  0  0
   21.3333  -16.7966  -15.0490 C   0  0  0  0  0  0  0  0  0  0  0  0
   21.8623  -16.6676  -16.3232 C   0  0  0  0  0  0  0  0  0  0  0  0
   21.3943  -15.5497  -16.8645 N   0  0  0  0  0  0  0  0  0  0  0  0
   20.5835  -14.9788  -15.9525 C   0  0  0  0  0  0  0  0  0  0  0  0
   20.5412  -15.7287  -14.8491 N   0  0  0  0  0  0  0  0  0  0  0  0
   23.0144  -19.9688  -13.7907 C   0  0  0  0  0  0  0  0  0  0  0  0
   22.3210  -20.5577  -12.9301 O   0  0  0  0  0  0  0  0  0  0  0  0
   24.3938  -20.3025  -13.8641 N   0  0  0  0  0  0  0  0  0  0  0  0
   24.9516  -21.3862  -13.0235 C   0  0  1  0  0  0  0  0  0  0  0  0
   25.7765  -22.2848  -13.8856 C   0  0  0  0  0  0  0  0  0  0  0  0
   25.1989  -23.6605  -13.9602 C   0  0  0  0  0  0  0  0  0  0  0  0
   23.7441  -23.6401  -14.4197 C   0  0  0  0  0  0  0  0  0  0  0  0
   23.2368  -25.0024  -14.7875 C   0  0  0  0  0  0  0  0  0  0  0  0
   23.6688  -26.0179  -13.8391 N   0  0  0  0  0  0  0  0  0  0  0  0
   25.8002  -20.7205  -12.0236 C   0  0  0  0  0  0  0  0  0  0  0  0
   26.5641  -19.7771  -12.4312 O   0  0  0  0  0  0  0  0  0  0  0  0
   25.8643  -21.0003  -10.6493 N   0  0  0  0  0  0  0  0  0  0  0  0
   26.8612  -20.3493   -9.7794 C   0  0  1  0  0  0  0  0  0  0  0  0
   26.2942  -20.3579   -8.4044 C   0  0  0  0  0  0  0  0  0  0  0  0
   27.1141  -19.6938   -7.3924 C   0  0  0  0  0  0  0  0  0  0  0  0
   27.3729  -18.3179   -7.2752 C   0  0  0  0  0  0  0  0  0  0  0  0
   28.1928  -18.1197   -6.2313 N   0  0  0  0  0  0  0  0  0  0  0  0
   28.4938  -19.2829   -5.6472 C   0  0  0  0  0  0  0  0  0  0  0  0
   29.2777  -19.5598   -4.5510 C   0  0  0  0  0  0  0  0  0  0  0  0
   29.4041  -20.8713   -4.1470 C   0  0  0  0  0  0  0  0  0  0  0  0
   28.7635  -21.9061   -4.8167 C   0  0  0  0  0  0  0  0  0  0  0  0
   27.9976  -21.5662   -5.9013 C   0  0  0  0  0  0  0  0  0  0  0  0
   27.8435  -20.2627   -6.3417 C   0  0  0  0  0  0  0  0  0  0  0  0
   28.2023  -20.8644   -9.9703 C   0  0  0  0  0  0  0  0  0  0  0  0
   29.2539  -20.1587   -9.8272 O   0  0  0  0  0  0  0  0  0  0  0  0
   28.3729  -22.2090  -10.3316 O   0  0  0  0  0  0  0  0  0  0  0  0
  2  1  1  6
  2  3  1  0
  3  4  1  0
  4  5  2  0
  4  8  1  0
  5  6  1  0
  6  7  1  0
  8  7  2  0
  9  2  1  0
  9 10  2  0
 11  9  1  0
 12 11  1  0
 12 13  1  6
 13 14  1  0
 14 15  1  0
 16 15  1  0
 17 16  1  0
 18 12  1  0
 19 18  2  0
 20 18  1  0
 21 20  1  0
 21 22  1  1
 22 23  1  0
 23 31  1  0
 24 23  2  0
 24 25  1  0
 25 26  1  0
 26 27  1  0
 27 28  2  0
 29 28  1  0
 30 29  2  0
 31 26  2  0
 31 30  1  0
 32 21  1  0
 32 34  1  0
 33 32  2  0
M  END
$$$$
