HKW.pdb
     RDKit          3D

 34 36  0  0  1  0  0  0  0  0999 V2000
   19.1656  -13.8524  -16.2448 N   0  0  0  0  0  0  0  0  0  0  0  0
   18.0852  -12.9040  -16.0975 C   0  0  1  0  0  0  0  0  0  0  0  0
   16.9915  -13.4535  -15.2312 C   0  0  0  0  0  0  0  0  0  0  0  0
   16.4171  -14.7050  -15.8353 C   0  0  0  0  0  0  0  0  0  0  0  0
   16.5161  -15.9836  -15.3104 C   0  0  0  0  0  0  0  0  0  0  0  0
   15.8874  -16.8243  -16.1226 N   0  0  0  0  0  0  0  0  0  0  0  0
   15.3981  -16.0947  -17.1442 C   0  0  0  0  0  0  0  0  0  0  0  0
   15.7149  -14.8089  -16.9772 N   0  0  0  0  0  0  0  0  0  0  0  0
   18.6081  -11.5924  -15.6706 C   0  0  0  0  0  0  0  0  0  0  0  0
   19.3509  -11.4273  -14.6760 O   0  0  0  0  0  0  0  0  0  0  0  0
   18.2541  -10.4413  -16.4250 N   0  0  0  0  0  0  0  0  0  0  0  0
   18.7787   -9.1076  -16.0535 C   0  0  1  0  0  0  0  0  0  0  0  0
   18.6626   -8.2010  -17.2349 C   0  0  0  0  0  0  0  0  0  0  0  0
   19.7957   -8.3910  -18.1896 C   0  0  0  0  0  0  0  0  0  0  0  0
   19.3348   -8.3001  -19.6413 C   0  0  0  0  0  0  0  0  0  0  0  0
   20.4443   -8.5611  -20.6157 C   0  0  0  0  0  0  0  0  0  0  0  0
   21.6930   -7.9428  -20.1963 N   0  0  0  0  0  0  0  0  0  0  0  0
   17.9197   -8.6303  -14.9593 C   0  0  0  0  0  0  0  0  0  0  0  0
   16.9292   -9.3681  -14.6210 O   0  0  0  0  0  0  0  0  0  0  0  0
   18.0677   -7.4423  -14.2258 N   0  0  0  0  0  0  0  0  0  0  0  0
   17.1572   -7.1076  -13.1153 C   0  0  1  0  0  0  0  0  0  0  0  0
   17.1774   -8.2684  -12.1857 C   0  0  0  0  0  0  0  0  0  0  0  0
   16.5075   -8.0479  -10.9051 C   0  0  0  0  0  0  0  0  0  0  0  0
   17.0284   -7.4008   -9.7722 C   0  0  0  0  0  0  0  0  0  0  0  0
   16.1082   -7.4316   -8.7956 N   0  0  0  0  0  0  0  0  0  0  0  0
   15.0060   -8.0605   -9.2129 C   0  0  0  0  0  0  0  0  0  0  0  0
   13.8184   -8.3136   -8.5661 C   0  0  0  0  0  0  0  0  0  0  0  0
   12.8248   -8.9786   -9.2515 C   0  0  0  0  0  0  0  0  0  0  0  0
   12.9968   -9.3931  -10.5661 C   0  0  0  0  0  0  0  0  0  0  0  0
   14.2021   -9.1121  -11.1552 C   0  0  0  0  0  0  0  0  0  0  0  0
   15.2272   -8.4474  -10.5039 C   0  0  0  0  0  0  0  0  0  0  0  0
   17.3937   -5.7871  -12.5670 C   0  0  0  0  0  0  0  0  0  0  0  0
   16.4926   -5.0917  -11.9936 O   0  0  0  0  0  0  0  0  0  0  0  0
   18.6764   -5.2273  -12.6621 O   0  0  0  0  0  0  0  0  0  0  0  0
  2  1  1  1
  2  3  1  0
  3  4  1  0
  4  5  2  0
  4  8  1  0
  5  6  1  0
  6  7  1  0
  8  7  2  0
  9  2  1  0
  9 10  2  0
 11  9  1  0
 12 11  1  0
 12 13  1  6
 13 14  1  0
 14 15  1  0
 16 15  1  0
 17 16  1  0
 18 12  1  0
 19 18  2  0
 20 18  1  0
 21 20  1  0
 21 22  1  1
 22 23  1  0
 23 31  1  0
 24 23  2  0
 24 25  1  0
 25 26  1  0
 26 27  1  0
 27 28  2  0
 29 28  1  0
 30 29  2  0
 31 26  2  0
 31 30  1  0
 32 21  1  0
 32 34  1  0
 33 32  2  0
M  END
$$$$
