HKW.pdb
     RDKit          3D

 34 36  0  0  1  0  0  0  0  0999 V2000
   15.9116  -26.1253   -7.1430 N   0  0  0  0  0  0  0  0  0  0  0  0
   16.7141  -25.5180   -6.1059 C   0  0  1  0  0  0  0  0  0  0  0  0
   16.6370  -24.0215   -6.1628 C   0  0  0  0  0  0  0  0  0  0  0  0
   17.1225  -23.5174   -7.4936 C   0  0  0  0  0  0  0  0  0  0  0  0
   16.3255  -23.1278   -8.5581 C   0  0  0  0  0  0  0  0  0  0  0  0
   17.1111  -22.7456   -9.5573 N   0  0  0  0  0  0  0  0  0  0  0  0
   18.3830  -22.8893   -9.1367 C   0  0  0  0  0  0  0  0  0  0  0  0
   18.3983  -23.3566   -7.8865 N   0  0  0  0  0  0  0  0  0  0  0  0
   16.3828  -26.1017   -4.7924 C   0  0  0  0  0  0  0  0  0  0  0  0
   15.2258  -26.1332   -4.3143 O   0  0  0  0  0  0  0  0  0  0  0  0
   17.4309  -26.6644   -4.0149 N   0  0  0  0  0  0  0  0  0  0  0  0
   17.1336  -27.3589   -2.7416 C   0  0  1  0  0  0  0  0  0  0  0  0
   18.1569  -28.4257   -2.5275 C   0  0  0  0  0  0  0  0  0  0  0  0
   17.9285  -29.1603   -1.2469 C   0  0  0  0  0  0  0  0  0  0  0  0
   18.8905  -30.3338   -1.0875 C   0  0  0  0  0  0  0  0  0  0  0  0
   18.6291  -31.1284    0.1570 C   0  0  0  0  0  0  0  0  0  0  0  0
   19.4768  -32.3084    0.2368 N   0  0  0  0  0  0  0  0  0  0  0  0
   17.2400  -26.3338   -1.6924 C   0  0  0  0  0  0  0  0  0  0  0  0
   18.0445  -25.3589   -1.8983 O   0  0  0  0  0  0  0  0  0  0  0  0
   16.5435  -26.2966   -0.4738 N   0  0  0  0  0  0  0  0  0  0  0  0
   16.7219  -25.1849    0.4783 C   0  0  1  0  0  0  0  0  0  0  0  0
   16.0640  -23.9971   -0.1285 C   0  0  0  0  0  0  0  0  0  0  0  0
   14.6042  -23.9899   -0.0495 C   0  0  0  0  0  0  0  0  0  0  0  0
   13.8107  -24.2993    1.0678 C   0  0  0  0  0  0  0  0  0  0  0  0
   12.5180  -24.2010    0.7203 N   0  0  0  0  0  0  0  0  0  0  0  0
   12.4056  -23.8437   -0.5620 C   0  0  0  0  0  0  0  0  0  0  0  0
   11.2907  -23.6132   -1.3345 C   0  0  0  0  0  0  0  0  0  0  0  0
   11.4671  -23.2323   -2.6471 C   0  0  0  0  0  0  0  0  0  0  0  0
   12.7328  -23.0785   -3.1985 C   0  0  0  0  0  0  0  0  0  0  0  0
   13.8034  -23.3232   -2.3785 C   0  0  0  0  0  0  0  0  0  0  0  0
   13.6720  -23.7082   -1.0551 C   0  0  0  0  0  0  0  0  0  0  0  0
   16.3707  -25.5419    1.8383 C   0  0  0  0  0  0  0  0  0  0  0  0
   16.6031  -24.7945    2.8442 O   0  0  0  0  0  0  0  0  0  0  0  0
   15.7402  -26.7712    2.0811 O   0  0  0  0  0  0  0  0  0  0  0  0
  2  1  1  6
  2  3  1  0
  3  4  1  0
  4  5  2  0
  4  8  1  0
  5  6  1  0
  6  7  1  0
  8  7  2  0
  9  2  1  0
  9 10  2  0
 11  9  1  0
 12 11  1  0
 12 13  1  1
 13 14  1  0
 14 15  1  0
 16 15  1  0
 17 16  1  0
 18 12  1  0
 19 18  2  0
 20 18  1  0
 21 20  1  0
 21 22  1  6
 22 23  1  0
 23 31  1  0
 24 23  2  0
 24 25  1  0
 25 26  1  0
 26 27  1  0
 27 28  2  0
 29 28  1  0
 30 29  2  0
 31 26  2  0
 31 30  1  0
 32 21  1  0
 32 34  1  0
 33 32  2  0
M  END
$$$$
