HKW.pdb
     RDKit          3D

 34 36  0  0  1  0  0  0  0  0999 V2000
   16.0877  -19.4793    1.4410 N   0  0  0  0  0  0  0  0  0  0  0  0
   16.0323  -19.6112    2.8790 C   0  0  1  0  0  0  0  0  0  0  0  0
   15.6826  -21.0117    3.2851 C   0  0  0  0  0  0  0  0  0  0  0  0
   14.4197  -21.4601    2.6032 C   0  0  0  0  0  0  0  0  0  0  0  0
   13.1269  -21.1678    3.0073 C   0  0  0  0  0  0  0  0  0  0  0  0
   12.2795  -21.7366    2.1588 N   0  0  0  0  0  0  0  0  0  0  0  0
   13.0187  -22.3781    1.2330 C   0  0  0  0  0  0  0  0  0  0  0  0
   14.3172  -22.2152    1.4954 N   0  0  0  0  0  0  0  0  0  0  0  0
   17.2661  -19.0829    3.4909 C   0  0  0  0  0  0  0  0  0  0  0  0
   18.4197  -19.4103    3.1301 O   0  0  0  0  0  0  0  0  0  0  0  0
   17.1506  -18.1465    4.5537 N   0  0  0  0  0  0  0  0  0  0  0  0
   18.3579  -17.5223    5.1410 C   0  0  1  0  0  0  0  0  0  0  0  0
   17.9734  -16.2125    5.7471 C   0  0  0  0  0  0  0  0  0  0  0  0
   18.1191  -15.0896    4.7727 C   0  0  0  0  0  0  0  0  0  0  0  0
   17.7895  -13.7419    5.4076 C   0  0  0  0  0  0  0  0  0  0  0  0
   17.9296  -12.6013    4.4444 C   0  0  0  0  0  0  0  0  0  0  0  0
   17.7541  -11.3131    5.0978 N   0  0  0  0  0  0  0  0  0  0  0  0
   18.8205  -18.4497    6.1845 C   0  0  0  0  0  0  0  0  0  0  0  0
   17.9433  -19.2000    6.7391 O   0  0  0  0  0  0  0  0  0  0  0  0
   20.1366  -18.6151    6.6449 N   0  0  0  0  0  0  0  0  0  0  0  0
   20.4631  -19.5904    7.7015 C   0  0  1  0  0  0  0  0  0  0  0  0
   21.4789  -20.5129    7.1278 C   0  0  0  0  0  0  0  0  0  0  0  0
   21.7746  -21.6913    7.9411 C   0  0  0  0  0  0  0  0  0  0  0  0
   22.6338  -21.7665    9.0500 C   0  0  0  0  0  0  0  0  0  0  0  0
   22.6512  -23.0315    9.4983 N   0  0  0  0  0  0  0  0  0  0  0  0
   21.8535  -23.8014    8.7530 C   0  0  0  0  0  0  0  0  0  0  0  0
   21.5539  -25.1407    8.8495 C   0  0  0  0  0  0  0  0  0  0  0  0
   20.6694  -25.6840    7.9430 C   0  0  0  0  0  0  0  0  0  0  0  0
   20.0817  -24.9152    6.9464 C   0  0  0  0  0  0  0  0  0  0  0  0
   20.4207  -23.5879    6.9020 C   0  0  0  0  0  0  0  0  0  0  0  0
   21.3047  -23.0014    7.7917 C   0  0  0  0  0  0  0  0  0  0  0  0
   20.7473  -18.9678    8.9789 C   0  0  0  0  0  0  0  0  0  0  0  0
   21.1765  -17.7739    9.0997 O   0  0  0  0  0  0  0  0  0  0  0  0
   20.5451  -19.7019   10.1570 O   0  0  0  0  0  0  0  0  0  0  0  0
  2  1  1  6
  2  3  1  0
  3  4  1  0
  4  5  2  0
  4  8  1  0
  5  6  1  0
  6  7  1  0
  8  7  2  0
  9  2  1  0
  9 10  2  0
 11  9  1  0
 12 11  1  0
 12 13  1  1
 13 14  1  0
 14 15  1  0
 16 15  1  0
 17 16  1  0
 18 12  1  0
 19 18  2  0
 20 18  1  0
 21 20  1  0
 21 22  1  6
 22 23  1  0
 23 31  1  0
 24 23  2  0
 24 25  1  0
 25 26  1  0
 26 27  1  0
 27 28  2  0
 29 28  1  0
 30 29  2  0
 31 26  2  0
 31 30  1  0
 32 21  1  0
 32 34  1  0
 33 32  2  0
M  END
$$$$
