HKW.pdb
     RDKit          3D

 34 36  0  0  1  0  0  0  0  0999 V2000
   23.7849  -15.0621  -20.6558 N   0  0  0  0  0  0  0  0  0  0  0  0
   23.9791  -15.3011  -19.2439 C   0  0  1  0  0  0  0  0  0  0  0  0
   22.9363  -14.6017  -18.4240 C   0  0  0  0  0  0  0  0  0  0  0  0
   23.0006  -13.1155  -18.6432 C   0  0  0  0  0  0  0  0  0  0  0  0
   22.0156  -12.3337  -19.2252 C   0  0  0  0  0  0  0  0  0  0  0  0
   22.4327  -11.0739  -19.2462 N   0  0  0  0  0  0  0  0  0  0  0  0
   23.6589  -11.0546  -18.6884 C   0  0  0  0  0  0  0  0  0  0  0  0
   24.0103  -12.2884  -18.3202 N   0  0  0  0  0  0  0  0  0  0  0  0
   24.1015  -16.7472  -18.9800 C   0  0  0  0  0  0  0  0  0  0  0  0
   23.2738  -17.6009  -19.3728 O   0  0  0  0  0  0  0  0  0  0  0  0
   25.2210  -17.2102  -18.2370 N   0  0  0  0  0  0  0  0  0  0  0  0
   25.3461  -18.6411  -17.8781 C   0  0  1  0  0  0  0  0  0  0  0  0
   26.7864  -18.9481  -17.6280 C   0  0  0  0  0  0  0  0  0  0  0  0
   26.9757  -20.3476  -17.1412 C   0  0  0  0  0  0  0  0  0  0  0  0
   28.4521  -20.6947  -16.9744 C   0  0  0  0  0  0  0  0  0  0  0  0
   28.6640  -22.1057  -16.5133 C   0  0  0  0  0  0  0  0  0  0  0  0
   30.0402  -22.3435  -16.1048 N   0  0  0  0  0  0  0  0  0  0  0  0
   24.5671  -18.8133  -16.6426 C   0  0  0  0  0  0  0  0  0  0  0  0
   24.6052  -17.8648  -15.7831 O   0  0  0  0  0  0  0  0  0  0  0  0
   23.7670  -19.9134  -16.2947 N   0  0  0  0  0  0  0  0  0  0  0  0
   22.9120  -19.8912  -15.0936 C   0  0  1  0  0  0  0  0  0  0  0  0
   22.0960  -18.6505  -15.1768 C   0  0  0  0  0  0  0  0  0  0  0  0
   20.7411  -18.7633  -14.6392 C   0  0  0  0  0  0  0  0  0  0  0  0
   20.3662  -19.2242  -13.3661 C   0  0  0  0  0  0  0  0  0  0  0  0
   19.0274  -19.1984  -13.2742 N   0  0  0  0  0  0  0  0  0  0  0  0
   18.4904  -18.7469  -14.4111 C   0  0  0  0  0  0  0  0  0  0  0  0
   17.1763  -18.5410  -14.7626 C   0  0  0  0  0  0  0  0  0  0  0  0
   16.9015  -18.0410  -16.0171 C   0  0  0  0  0  0  0  0  0  0  0  0
   17.9128  -17.7445  -16.9221 C   0  0  0  0  0  0  0  0  0  0  0  0
   19.2011  -17.9718  -16.5131 C   0  0  0  0  0  0  0  0  0  0  0  0
   19.5221  -18.4732  -15.2632 C   0  0  0  0  0  0  0  0  0  0  0  0
   22.2268  -21.1471  -14.8625 C   0  0  0  0  0  0  0  0  0  0  0  0
   22.0944  -22.0503  -15.7520 O   0  0  0  0  0  0  0  0  0  0  0  0
   21.6736  -21.4014  -13.5989 O   0  0  0  0  0  0  0  0  0  0  0  0
  2  1  1  6
  2  3  1  0
  3  4  1  0
  4  5  2  0
  4  8  1  0
  5  6  1  0
  6  7  1  0
  8  7  2  0
  9  2  1  0
  9 10  2  0
 11  9  1  0
 12 11  1  0
 12 13  1  1
 13 14  1  0
 14 15  1  0
 16 15  1  0
 17 16  1  0
 18 12  1  0
 19 18  2  0
 20 18  1  0
 21 20  1  0
 21 22  1  6
 22 23  1  0
 23 31  1  0
 24 23  2  0
 24 25  1  0
 25 26  1  0
 26 27  1  0
 27 28  2  0
 29 28  1  0
 30 29  2  0
 31 26  2  0
 31 30  1  0
 32 21  1  0
 32 34  1  0
 33 32  2  0
M  END
$$$$
