HKW.pdb
     RDKit          3D

 34 36  0  0  1  0  0  0  0  0999 V2000
   25.4072  -16.5634  -20.9676 N   0  0  0  0  0  0  0  0  0  0  0  0
   24.0429  -16.7791  -20.5428 C   0  0  1  0  0  0  0  0  0  0  0  0
   23.0825  -15.9676  -21.3600 C   0  0  0  0  0  0  0  0  0  0  0  0
   23.3939  -14.5014  -21.2400 C   0  0  0  0  0  0  0  0  0  0  0  0
   23.3587  -13.5735  -22.2685 C   0  0  0  0  0  0  0  0  0  0  0  0
   23.6944  -12.3863  -21.7790 N   0  0  0  0  0  0  0  0  0  0  0  0
   23.9383  -12.5557  -20.4648 C   0  0  0  0  0  0  0  0  0  0  0  0
   23.7582  -13.8353  -20.1303 N   0  0  0  0  0  0  0  0  0  0  0  0
   23.7425  -18.2224  -20.4938 C   0  0  0  0  0  0  0  0  0  0  0  0
   22.9806  -18.8045  -21.2994 O   0  0  0  0  0  0  0  0  0  0  0  0
   24.3478  -19.0085  -19.4763 N   0  0  0  0  0  0  0  0  0  0  0  0
   24.1020  -20.4668  -19.4059 C   0  0  1  0  0  0  0  0  0  0  0  0
   25.1546  -21.0891  -18.5481 C   0  0  0  0  0  0  0  0  0  0  0  0
   25.0800  -22.5808  -18.5781 C   0  0  0  0  0  0  0  0  0  0  0  0
   26.2006  -23.2207  -17.7639 C   0  0  0  0  0  0  0  0  0  0  0  0
   26.2538  -24.7102  -17.9276 C   0  0  0  0  0  0  0  0  0  0  0  0
   27.4320  -25.2850  -17.2961 N   0  0  0  0  0  0  0  0  0  0  0  0
   22.7797  -20.6200  -18.7807 C   0  0  0  0  0  0  0  0  0  0  0  0
   22.6202  -20.1301  -17.6083 O   0  0  0  0  0  0  0  0  0  0  0  0
   21.6510  -21.2456  -19.3339 N   0  0  0  0  0  0  0  0  0  0  0  0
   20.3932  -21.3701  -18.5744 C   0  0  1  0  0  0  0  0  0  0  0  0
   19.3300  -21.6891  -19.5643 C   0  0  0  0  0  0  0  0  0  0  0  0
   17.9819  -21.8025  -19.0100 C   0  0  0  0  0  0  0  0  0  0  0  0
   17.2470  -20.8049  -18.3480 C   0  0  0  0  0  0  0  0  0  0  0  0
   16.0656  -21.3175  -17.9699 N   0  0  0  0  0  0  0  0  0  0  0  0
   15.9717  -22.5970  -18.3423 C   0  0  0  0  0  0  0  0  0  0  0  0
   14.9507  -23.5051  -18.1822 C   0  0  0  0  0  0  0  0  0  0  0  0
   15.1155  -24.7763  -18.6884 C   0  0  0  0  0  0  0  0  0  0  0  0
   16.2778  -25.1537  -19.3488 C   0  0  0  0  0  0  0  0  0  0  0  0
   17.2584  -24.2045  -19.4758 C   0  0  0  0  0  0  0  0  0  0  0  0
   17.1350  -22.9168  -18.9823 C   0  0  0  0  0  0  0  0  0  0  0  0
   20.5183  -22.2190  -17.4065 C   0  0  0  0  0  0  0  0  0  0  0  0
   21.2078  -23.2906  -17.3863 O   0  0  0  0  0  0  0  0  0  0  0  0
   19.8529  -21.8587  -16.2254 O   0  0  0  0  0  0  0  0  0  0  0  0
  2  1  1  6
  2  3  1  0
  3  4  1  0
  4  5  2  0
  4  8  1  0
  5  6  1  0
  6  7  1  0
  8  7  2  0
  9  2  1  0
  9 10  2  0
 11  9  1  0
 12 11  1  0
 12 13  1  1
 13 14  1  0
 14 15  1  0
 16 15  1  0
 17 16  1  0
 18 12  1  0
 19 18  2  0
 20 18  1  0
 21 20  1  0
 21 22  1  6
 22 23  1  0
 23 31  1  0
 24 23  2  0
 24 25  1  0
 25 26  1  0
 26 27  1  0
 27 28  2  0
 29 28  1  0
 30 29  2  0
 31 26  2  0
 31 30  1  0
 32 21  1  0
 32 34  1  0
 33 32  2  0
M  END
$$$$
