HKW.pdb
     RDKit          3D

 34 36  0  0  1  0  0  0  0  0999 V2000
   11.2515  -20.7552    3.7044 N   0  0  0  0  0  0  0  0  0  0  0  0
   12.6856  -20.5782    3.7162 C   0  0  1  0  0  0  0  0  0  0  0  0
   13.0845  -19.4146    4.5738 C   0  0  0  0  0  0  0  0  0  0  0  0
   12.4611  -18.1444    4.0646 C   0  0  0  0  0  0  0  0  0  0  0  0
   11.5311  -17.3666    4.7354 C   0  0  0  0  0  0  0  0  0  0  0  0
   11.2157  -16.3293    3.9697 N   0  0  0  0  0  0  0  0  0  0  0  0
   11.9313  -16.4451    2.8339 C   0  0  0  0  0  0  0  0  0  0  0  0
   12.6888  -17.5429    2.8838 N   0  0  0  0  0  0  0  0  0  0  0  0
   13.3569  -21.8482    4.0513 C   0  0  0  0  0  0  0  0  0  0  0  0
   13.1244  -22.5077    5.0902 O   0  0  0  0  0  0  0  0  0  0  0  0
   14.3267  -22.3631    3.1491 N   0  0  0  0  0  0  0  0  0  0  0  0
   15.0183  -23.6403    3.4363 C   0  0  1  0  0  0  0  0  0  0  0  0
   15.7197  -24.0943    2.1982 C   0  0  0  0  0  0  0  0  0  0  0  0
   14.8877  -25.0556    1.4138 C   0  0  0  0  0  0  0  0  0  0  0  0
   15.5523  -25.4341    0.0935 C   0  0  0  0  0  0  0  0  0  0  0  0
   14.7553  -26.4366   -0.6863 C   0  0  0  0  0  0  0  0  0  0  0  0
   15.4220  -26.8187   -1.9221 N   0  0  0  0  0  0  0  0  0  0  0  0
   15.9957  -23.3373    4.4928 C   0  0  0  0  0  0  0  0  0  0  0  0
   16.7896  -22.3516    4.2980 O   0  0  0  0  0  0  0  0  0  0  0  0
   16.1558  -24.0113    5.7140 N   0  0  0  0  0  0  0  0  0  0  0  0
   17.1897  -23.6062    6.6841 C   0  0  1  0  0  0  0  0  0  0  0  0
   16.4869  -23.3441    7.9684 C   0  0  0  0  0  0  0  0  0  0  0  0
   17.3586  -23.0204    9.0965 C   0  0  0  0  0  0  0  0  0  0  0  0
   17.9022  -21.7659    9.4197 C   0  0  0  0  0  0  0  0  0  0  0  0
   18.6702  -21.8963   10.5127 N   0  0  0  0  0  0  0  0  0  0  0  0
   18.6686  -23.1636   10.9355 C   0  0  0  0  0  0  0  0  0  0  0  0
   19.2941  -23.7512   12.0107 C   0  0  0  0  0  0  0  0  0  0  0  0
   19.1028  -25.0987   12.2272 C   0  0  0  0  0  0  0  0  0  0  0  0
   18.3008  -25.8655   11.3916 C   0  0  0  0  0  0  0  0  0  0  0  0
   17.7055  -25.2226   10.3375 C   0  0  0  0  0  0  0  0  0  0  0  0
   17.8707  -23.8718   10.0827 C   0  0  0  0  0  0  0  0  0  0  0  0
   18.3330  -24.4968    6.6986 C   0  0  0  0  0  0  0  0  0  0  0  0
   19.4403  -24.2109    7.2612 O   0  0  0  0  0  0  0  0  0  0  0  0
   18.2352  -25.7448    6.0658 O   0  0  0  0  0  0  0  0  0  0  0  0
  2  1  1  1
  2  3  1  0
  3  4  1  0
  4  5  2  0
  4  8  1  0
  5  6  1  0
  6  7  1  0
  8  7  2  0
  9  2  1  0
  9 10  2  0
 11  9  1  0
 12 11  1  0
 12 13  1  6
 13 14  1  0
 14 15  1  0
 16 15  1  0
 17 16  1  0
 18 12  1  0
 19 18  2  0
 20 18  1  0
 21 20  1  0
 21 22  1  1
 22 23  1  0
 23 31  1  0
 24 23  2  0
 24 25  1  0
 25 26  1  0
 26 27  1  0
 27 28  2  0
 29 28  1  0
 30 29  2  0
 31 26  2  0
 31 30  1  0
 32 21  1  0
 32 34  1  0
 33 32  2  0
M  END
$$$$
