HKW.pdb
     RDKit          3D

 34 36  0  0  1  0  0  0  0  0999 V2000
   22.4963  -17.4904  -17.4252 N   0  0  0  0  0  0  0  0  0  0  0  0
   23.5313  -17.2111  -16.4561 C   0  0  1  0  0  0  0  0  0  0  0  0
   22.9812  -16.4860  -15.2644 C   0  0  0  0  0  0  0  0  0  0  0  0
   22.4074  -15.1574  -15.6726 C   0  0  0  0  0  0  0  0  0  0  0  0
   21.0615  -14.8315  -15.7240 C   0  0  0  0  0  0  0  0  0  0  0  0
   20.9461  -13.5729  -16.1292 N   0  0  0  0  0  0  0  0  0  0  0  0
   22.1940  -13.1072  -16.3315 C   0  0  0  0  0  0  0  0  0  0  0  0
   23.0855  -14.0618  -16.0567 N   0  0  0  0  0  0  0  0  0  0  0  0
   24.2805  -18.4409  -16.1363 C   0  0  0  0  0  0  0  0  0  0  0  0
   23.7428  -19.5546  -15.9397 O   0  0  0  0  0  0  0  0  0  0  0  0
   25.6968  -18.3691  -16.0431 N   0  0  0  0  0  0  0  0  0  0  0  0
   26.4874  -19.5626  -15.6655 C   0  0  1  0  0  0  0  0  0  0  0  0
   27.8021  -19.5096  -16.3724 C   0  0  0  0  0  0  0  0  0  0  0  0
   28.6942  -20.6359  -15.9635 C   0  0  0  0  0  0  0  0  0  0  0  0
   28.7665  -21.7193  -17.0354 C   0  0  0  0  0  0  0  0  0  0  0  0
   29.6412  -22.8693  -16.6343 C   0  0  0  0  0  0  0  0  0  0  0  0
   29.6422  -23.9263  -17.6344 N   0  0  0  0  0  0  0  0  0  0  0  0
   26.6871  -19.4665  -14.2116 C   0  0  0  0  0  0  0  0  0  0  0  0
   26.7612  -18.2942  -13.7016 O   0  0  0  0  0  0  0  0  0  0  0  0
   26.8002  -20.5303  -13.3023 N   0  0  0  0  0  0  0  0  0  0  0  0
   27.0167  -20.2904  -11.8636 C   0  0  1  0  0  0  0  0  0  0  0  0
   25.9941  -19.2966  -11.4409 C   0  0  0  0  0  0  0  0  0  0  0  0
   24.7301  -19.8673  -10.9782 C   0  0  0  0  0  0  0  0  0  0  0  0
   24.4522  -20.4046   -9.7102 C   0  0  0  0  0  0  0  0  0  0  0  0
   23.1858  -20.8490   -9.6972 N   0  0  0  0  0  0  0  0  0  0  0  0
   22.6053  -20.6380  -10.8818 C   0  0  0  0  0  0  0  0  0  0  0  0
   21.3299  -20.9142  -11.3174 C   0  0  0  0  0  0  0  0  0  0  0  0
   20.9856  -20.5682  -12.6062 C   0  0  0  0  0  0  0  0  0  0  0  0
   21.8899  -19.9537  -13.4631 C   0  0  0  0  0  0  0  0  0  0  0  0
   23.1447  -19.7056  -12.9708 C   0  0  0  0  0  0  0  0  0  0  0  0
   23.5330  -20.0367  -11.6838 C   0  0  0  0  0  0  0  0  0  0  0  0
   27.1398  -21.5143  -11.0973 C   0  0  0  0  0  0  0  0  0  0  0  0
   26.8154  -22.6617  -11.5473 O   0  0  0  0  0  0  0  0  0  0  0  0
   27.6414  -21.4537   -9.7887 O   0  0  0  0  0  0  0  0  0  0  0  0
  2  1  1  6
  2  3  1  0
  3  4  1  0
  4  5  2  0
  4  8  1  0
  5  6  1  0
  6  7  1  0
  8  7  2  0
  9  2  1  0
  9 10  2  0
 11  9  1  0
 12 11  1  0
 12 13  1  6
 13 14  1  0
 14 15  1  0
 16 15  1  0
 17 16  1  0
 18 12  1  0
 19 18  2  0
 20 18  1  0
 21 20  1  0
 21 22  1  1
 22 23  1  0
 23 31  1  0
 24 23  2  0
 24 25  1  0
 25 26  1  0
 26 27  1  0
 27 28  2  0
 29 28  1  0
 30 29  2  0
 31 26  2  0
 31 30  1  0
 32 21  1  0
 32 34  1  0
 33 32  2  0
M  END
$$$$
