HKW.pdb
     RDKit          3D

 34 36  0  0  1  0  0  0  0  0999 V2000
   24.9151  -16.9593  -18.5693 N   0  0  0  0  0  0  0  0  0  0  0  0
   25.2798  -17.3997  -17.2421 C   0  0  1  0  0  0  0  0  0  0  0  0
   25.0008  -16.3388  -16.2197 C   0  0  0  0  0  0  0  0  0  0  0  0
   26.0422  -15.2560  -16.2838 C   0  0  0  0  0  0  0  0  0  0  0  0
   27.1138  -15.2062  -17.1609 C   0  0  0  0  0  0  0  0  0  0  0  0
   27.8112  -14.1040  -16.9148 N   0  0  0  0  0  0  0  0  0  0  0  0
   27.1952  -13.4652  -15.9011 C   0  0  0  0  0  0  0  0  0  0  0  0
   26.1219  -14.1572  -15.5130 N   0  0  0  0  0  0  0  0  0  0  0  0
   24.6700  -18.7108  -16.9506 C   0  0  0  0  0  0  0  0  0  0  0  0
   23.4670  -18.9843  -17.1657 O   0  0  0  0  0  0  0  0  0  0  0  0
   25.4865  -19.7311  -16.3923 N   0  0  0  0  0  0  0  0  0  0  0  0
   24.8987  -21.0289  -15.9894 C   0  0  1  0  0  0  0  0  0  0  0  0
   26.0043  -21.9572  -15.6062 C   0  0  0  0  0  0  0  0  0  0  0  0
   25.4806  -23.2760  -15.1393 C   0  0  0  0  0  0  0  0  0  0  0  0
   25.0018  -24.1396  -16.3025 C   0  0  0  0  0  0  0  0  0  0  0  0
   24.4127  -25.4419  -15.8492 C   0  0  0  0  0  0  0  0  0  0  0  0
   25.3464  -26.5463  -16.0101 N   0  0  0  0  0  0  0  0  0  0  0  0
   24.0503  -20.7393  -14.8235 C   0  0  0  0  0  0  0  0  0  0  0  0
   24.6147  -20.2254  -13.7953 O   0  0  0  0  0  0  0  0  0  0  0  0
   22.6681  -20.9580  -14.7093 N   0  0  0  0  0  0  0  0  0  0  0  0
   21.9927  -20.9308  -13.3988 C   0  0  1  0  0  0  0  0  0  0  0  0
   21.1596  -19.6989  -13.3766 C   0  0  0  0  0  0  0  0  0  0  0  0
   20.2636  -19.5780  -12.2277 C   0  0  0  0  0  0  0  0  0  0  0  0
   20.5053  -18.8867  -11.0288 C   0  0  0  0  0  0  0  0  0  0  0  0
   19.4459  -19.0417  -10.2194 N   0  0  0  0  0  0  0  0  0  0  0  0
   18.5139  -19.7949  -10.8101 C   0  0  0  0  0  0  0  0  0  0  0  0
   17.2751  -20.1989  -10.3688 C   0  0  0  0  0  0  0  0  0  0  0  0
   16.4984  -20.9712  -11.2052 C   0  0  0  0  0  0  0  0  0  0  0  0
   16.9367  -21.3449  -12.4693 C   0  0  0  0  0  0  0  0  0  0  0  0
   18.1798  -20.9117  -12.8510 C   0  0  0  0  0  0  0  0  0  0  0  0
   18.9929  -20.1354  -12.0429 C   0  0  0  0  0  0  0  0  0  0  0  0
   21.3612  -22.1906  -13.0606 C   0  0  0  0  0  0  0  0  0  0  0  0
   21.1669  -22.5810  -11.8630 O   0  0  0  0  0  0  0  0  0  0  0  0
   20.9335  -23.0393  -14.0923 O   0  0  0  0  0  0  0  0  0  0  0  0
  2  1  1  6
  2  3  1  0
  3  4  1  0
  4  5  2  0
  4  8  1  0
  5  6  1  0
  6  7  1  0
  8  7  2  0
  9  2  1  0
  9 10  2  0
 11  9  1  0
 12 11  1  0
 12 13  1  1
 13 14  1  0
 14 15  1  0
 16 15  1  0
 17 16  1  0
 18 12  1  0
 19 18  2  0
 20 18  1  0
 21 20  1  0
 21 22  1  6
 22 23  1  0
 23 31  1  0
 24 23  2  0
 24 25  1  0
 25 26  1  0
 26 27  1  0
 27 28  2  0
 29 28  1  0
 30 29  2  0
 31 26  2  0
 31 30  1  0
 32 21  1  0
 32 34  1  0
 33 32  2  0
M  END
$$$$
