DPH.pdb
     RDKit          3D

 26 27  0  0  1  0  0  0  0  0999 V2000
   44.5595   -7.5984   -8.4475 N   0  0  0  0  0  0  0  0  0  0  0  0
   43.6237   -8.6463   -8.5352 C   0  0  1  0  0  0  0  0  0  0  0  0
   43.0853   -8.8465   -7.1004 C   0  0  0  0  0  0  0  0  0  0  0  0
   44.2548   -9.0520   -6.1731 C   0  0  0  0  0  0  0  0  0  0  0  0
   45.2335   -9.7368   -6.5621 O   0  0  0  0  0  0  0  0  0  0  0  0
   42.5013   -8.5021   -9.4658 C   0  0  0  0  0  0  0  0  0  0  0  0
   41.9984   -7.3186   -9.5010 O   0  0  0  0  0  0  0  0  0  0  0  0
   44.2938   -8.5183   -4.9147 O   0  0  0  0  0  0  0  0  0  0  0  0
   41.9378   -9.4700  -10.2893 N   0  0  0  0  0  0  0  0  0  0  0  0
   42.6467  -10.5341  -10.9803 C   0  0  0  0  0  0  0  0  0  0  0  0
   41.8441  -11.7464  -10.4830 C   0  0  0  0  0  0  0  0  0  0  0  0
   40.4830  -11.1722  -10.0294 C   0  0  0  0  0  0  0  0  0  0  0  0
   40.5812   -9.8102  -10.6567 C   0  0  1  0  0  0  0  0  0  0  0  0
   39.5027   -8.9200  -10.3958 C   0  0  0  0  0  0  0  0  0  0  0  0
   38.3614   -9.2088  -10.9324 O   0  0  0  0  0  0  0  0  0  0  0  0
   39.4501   -7.7341   -9.6349 N   0  0  0  0  0  0  0  0  0  0  0  0
   38.2279   -7.0745   -9.2297 C   0  0  1  0  0  0  0  0  0  0  0  0
   38.0212   -7.0190   -7.7520 C   0  0  0  0  0  0  0  0  0  0  0  0
   38.2387   -8.3195   -7.0749 C   0  0  0  0  0  0  0  0  0  0  0  0
   37.2243   -9.2422   -6.9146 C   0  0  0  0  0  0  0  0  0  0  0  0
   37.6922  -10.3081   -6.2804 N   0  0  0  0  0  0  0  0  0  0  0  0
   38.9890  -10.0611   -6.0424 C   0  0  0  0  0  0  0  0  0  0  0  0
   39.3255   -8.8518   -6.5245 N   0  0  0  0  0  0  0  0  0  0  0  0
   38.2558   -5.6783   -9.7441 C   0  0  0  0  0  0  0  0  0  0  0  0
   37.1836   -4.8120   -9.5435 O   0  0  0  0  0  0  0  0  0  0  0  0
   39.2365   -5.2110  -10.3796 O   0  0  0  0  0  0  0  0  0  0  0  0
  2  1  1  1
  2  3  1  0
  3  4  1  0
  4  8  1  0
  4  5  2  0
  6  2  1  0
  7  6  2  0
  9  6  1  0
  9 13  1  0
 10 11  1  0
 10  9  1  0
 11 12  1  0
 12 13  1  0
 13 14  1  1
 14 15  2  0
 16 14  1  0
 17 16  1  0
 17 24  1  0
 17 18  1  1
 19 23  1  0
 19 18  1  0
 20 19  2  0
 21 20  1  0
 21 22  1  0
 22 23  2  0
 24 25  1  0
 26 24  2  0
M  END
$$$$
