DPH.pdb
     RDKit          3D

 26 27  0  0  1  0  0  0  0  0999 V2000
   14.5760  -11.7164  -14.8273 N   0  0  0  0  0  0  0  0  0  0  0  0
   14.9000  -10.5053  -15.4675 C   0  0  1  0  0  0  0  0  0  0  0  0
   14.0354   -9.4248  -14.7794 C   0  0  0  0  0  0  0  0  0  0  0  0
   12.5840   -9.7919  -14.9487 C   0  0  0  0  0  0  0  0  0  0  0  0
   12.1421  -10.0328  -16.0998 O   0  0  0  0  0  0  0  0  0  0  0  0
   16.3014  -10.0780  -15.4817 C   0  0  0  0  0  0  0  0  0  0  0  0
   16.7206   -9.6181  -14.3559 O   0  0  0  0  0  0  0  0  0  0  0  0
   11.7215   -9.8739  -13.8909 O   0  0  0  0  0  0  0  0  0  0  0  0
   17.2001  -10.1136  -16.5418 N   0  0  0  0  0  0  0  0  0  0  0  0
   17.0830  -10.9196  -17.7455 C   0  0  0  0  0  0  0  0  0  0  0  0
   17.2253   -9.8198  -18.8091 C   0  0  0  0  0  0  0  0  0  0  0  0
   17.9382   -8.6519  -18.0910 C   0  0  0  0  0  0  0  0  0  0  0  0
   18.4048   -9.3808  -16.8624 C   0  0  1  0  0  0  0  0  0  0  0  0
   19.0711   -8.5947  -15.8817 C   0  0  0  0  0  0  0  0  0  0  0  0
   18.6904   -8.7425  -14.6542 O   0  0  0  0  0  0  0  0  0  0  0  0
   20.1059   -7.6453  -16.0091 N   0  0  0  0  0  0  0  0  0  0  0  0
   20.5293   -6.7489  -14.9555 C   0  0  1  0  0  0  0  0  0  0  0  0
   21.1484   -7.4315  -13.7807 C   0  0  0  0  0  0  0  0  0  0  0  0
   22.1352   -8.4727  -14.1537 C   0  0  0  0  0  0  0  0  0  0  0  0
   22.4746   -8.7250  -15.4680 C   0  0  0  0  0  0  0  0  0  0  0  0
   23.3726   -9.6989  -15.5136 N   0  0  0  0  0  0  0  0  0  0  0  0
   23.5983  -10.0582  -14.2410 C   0  0  0  0  0  0  0  0  0  0  0  0
   22.8469   -9.3142  -13.4103 N   0  0  0  0  0  0  0  0  0  0  0  0
   21.5300   -5.8024  -15.5190 C   0  0  0  0  0  0  0  0  0  0  0  0
   21.9583   -5.9049  -16.8406 O   0  0  0  0  0  0  0  0  0  0  0  0
   22.0367   -4.8708  -14.8412 O   0  0  0  0  0  0  0  0  0  0  0  0
  2  1  1  1
  2  3  1  0
  3  4  1  0
  4  8  1  0
  4  5  2  0
  6  2  1  0
  7  6  2  0
  9  6  1  0
  9 13  1  0
 10 11  1  0
 10  9  1  0
 11 12  1  0
 12 13  1  0
 13 14  1  1
 14 15  2  0
 16 14  1  0
 17 16  1  0
 17 24  1  0
 17 18  1  1
 19 23  1  0
 19 18  1  0
 20 19  2  0
 21 20  1  0
 21 22  1  0
 22 23  2  0
 24 25  1  0
 26 24  2  0
M  END
$$$$
