DPH.pdb
     RDKit          3D

 26 27  0  0  1  0  0  0  0  0999 V2000
   18.5256  -11.4296  -17.4235 N   0  0  0  0  0  0  0  0  0  0  0  0
   18.1223  -10.1983  -16.8734 C   0  0  1  0  0  0  0  0  0  0  0  0
   17.7415  -10.5009  -15.4064 C   0  0  0  0  0  0  0  0  0  0  0  0
   16.4784  -11.3220  -15.3979 C   0  0  0  0  0  0  0  0  0  0  0  0
   15.7048  -11.2683  -16.3864 O   0  0  0  0  0  0  0  0  0  0  0  0
   19.0622   -9.0752  -16.9156 C   0  0  0  0  0  0  0  0  0  0  0  0
   19.9375   -9.0884  -15.9731 O   0  0  0  0  0  0  0  0  0  0  0  0
   16.1376  -12.1301  -14.3488 O   0  0  0  0  0  0  0  0  0  0  0  0
   19.1128   -8.0308  -17.8318 N   0  0  0  0  0  0  0  0  0  0  0  0
   18.8821   -8.1269  -19.2635 C   0  0  0  0  0  0  0  0  0  0  0  0
   17.7969   -7.0511  -19.4245 C   0  0  0  0  0  0  0  0  0  0  0  0
   17.9517   -6.1324  -18.1915 C   0  0  0  0  0  0  0  0  0  0  0  0
   19.2979   -6.6013  -17.7161 C   0  0  1  0  0  0  0  0  0  0  0  0
   19.7765   -6.0161  -16.5111 C   0  0  0  0  0  0  0  0  0  0  0  0
   18.9501   -5.9622  -15.5171 O   0  0  0  0  0  0  0  0  0  0  0  0
   21.0321   -5.4593  -16.1922 N   0  0  0  0  0  0  0  0  0  0  0  0
   21.3882   -4.9321  -14.8929 C   0  0  1  0  0  0  0  0  0  0  0  0
   22.5973   -5.5627  -14.2849 C   0  0  0  0  0  0  0  0  0  0  0  0
   22.4977   -7.0366  -14.1626 C   0  0  0  0  0  0  0  0  0  0  0  0
   21.5573   -7.6441  -13.3548 C   0  0  0  0  0  0  0  0  0  0  0  0
   21.6912   -8.9605  -13.4332 N   0  0  0  0  0  0  0  0  0  0  0  0
   22.7060   -9.1824  -14.2820 C   0  0  0  0  0  0  0  0  0  0  0  0
   23.1995   -8.0138  -14.7281 N   0  0  0  0  0  0  0  0  0  0  0  0
   21.6504   -3.4740  -15.0344 C   0  0  0  0  0  0  0  0  0  0  0  0
   21.8976   -2.6724  -13.9222 O   0  0  0  0  0  0  0  0  0  0  0  0
   21.6628   -2.8940  -16.1513 O   0  0  0  0  0  0  0  0  0  0  0  0
  2  1  1  1
  2  3  1  0
  3  4  1  0
  4  8  1  0
  4  5  2  0
  6  2  1  0
  7  6  2  0
  9  6  1  0
  9 13  1  0
 10 11  1  0
 10  9  1  0
 11 12  1  0
 12 13  1  0
 13 14  1  1
 14 15  2  0
 16 14  1  0
 17 16  1  0
 17 24  1  0
 17 18  1  6
 19 23  1  0
 19 18  1  0
 20 19  2  0
 21 20  1  0
 21 22  1  0
 22 23  2  0
 24 25  1  0
 26 24  2  0
M  END
$$$$
