DPH.pdb
     RDKit          3D

 26 27  0  0  1  0  0  0  0  0999 V2000
   20.9019  -12.8923  -17.2424 N   0  0  0  0  0  0  0  0  0  0  0  0
   20.5939  -11.5873  -17.6708 C   0  0  1  0  0  0  0  0  0  0  0  0
   19.0519  -11.5294  -17.7579 C   0  0  0  0  0  0  0  0  0  0  0  0
   18.5785  -12.6535  -18.6422 C   0  0  0  0  0  0  0  0  0  0  0  0
   18.8046  -12.6000  -19.8769 O   0  0  0  0  0  0  0  0  0  0  0  0
   21.0840  -10.4589  -16.8752 C   0  0  0  0  0  0  0  0  0  0  0  0
   20.4982  -10.3259  -15.7377 O   0  0  0  0  0  0  0  0  0  0  0  0
   17.9070  -13.7386  -18.1506 O   0  0  0  0  0  0  0  0  0  0  0  0
   22.0802   -9.5457  -17.2013 N   0  0  0  0  0  0  0  0  0  0  0  0
   23.1995   -9.7741  -18.0998 C   0  0  0  0  0  0  0  0  0  0  0  0
   23.0159   -8.5819  -19.0516 C   0  0  0  0  0  0  0  0  0  0  0  0
   22.1733   -7.5572  -18.2590 C   0  0  0  0  0  0  0  0  0  0  0  0
   22.3085   -8.1531  -16.8860 C   0  0  1  0  0  0  0  0  0  0  0  0
   21.5845   -7.5053  -15.8469 C   0  0  0  0  0  0  0  0  0  0  0  0
   20.2935   -7.5630  -15.9081 O   0  0  0  0  0  0  0  0  0  0  0  0
   22.0339   -6.7809  -14.7238 N   0  0  0  0  0  0  0  0  0  0  0  0
   21.1695   -6.2473  -13.6938 C   0  0  1  0  0  0  0  0  0  0  0  0
   21.0837   -7.0923  -12.4658 C   0  0  0  0  0  0  0  0  0  0  0  0
   20.1737   -6.5437  -11.4323 C   0  0  0  0  0  0  0  0  0  0  0  0
   20.6445   -5.8722  -10.3217 C   0  0  0  0  0  0  0  0  0  0  0  0
   19.6221   -5.4925   -9.5682 N   0  0  0  0  0  0  0  0  0  0  0  0
   18.5167   -5.9198  -10.1966 C   0  0  0  0  0  0  0  0  0  0  0  0
   18.8482   -6.5601  -11.3316 N   0  0  0  0  0  0  0  0  0  0  0  0
   21.6839   -4.9083  -13.2970 C   0  0  0  0  0  0  0  0  0  0  0  0
   22.9506   -4.4765  -13.6838 O   0  0  0  0  0  0  0  0  0  0  0  0
   21.0115   -4.1045  -12.6000 O   0  0  0  0  0  0  0  0  0  0  0  0
  2  1  1  1
  2  3  1  0
  3  4  1  0
  4  8  1  0
  4  5  2  0
  6  2  1  0
  7  6  2  0
  9  6  1  0
  9 13  1  0
 10 11  1  0
 10  9  1  0
 11 12  1  0
 12 13  1  0
 13 14  1  1
 14 15  2  0
 16 14  1  0
 17 16  1  0
 17 24  1  0
 17 18  1  1
 19 23  1  0
 19 18  1  0
 20 19  2  0
 21 20  1  0
 21 22  1  0
 22 23  2  0
 24 25  1  0
 26 24  2  0
M  END
$$$$
