DPH.pdb
     RDKit          3D

 26 27  0  0  1  0  0  0  0  0999 V2000
   23.8280  -15.4265  -19.6545 N   0  0  0  0  0  0  0  0  0  0  0  0
   23.3800  -15.3450  -18.3225 C   0  0  1  0  0  0  0  0  0  0  0  0
   22.3906  -14.1583  -18.2864 C   0  0  0  0  0  0  0  0  0  0  0  0
   23.1052  -12.9226  -18.7685 C   0  0  0  0  0  0  0  0  0  0  0  0
   23.1431  -12.6768  -20.0000 O   0  0  0  0  0  0  0  0  0  0  0  0
   22.7526  -16.5265  -17.7249 C   0  0  0  0  0  0  0  0  0  0  0  0
   21.4676  -16.5236  -17.7834 O   0  0  0  0  0  0  0  0  0  0  0  0
   23.7191  -12.0510  -17.9123 O   0  0  0  0  0  0  0  0  0  0  0  0
   23.3710  -17.6158  -17.1220 N   0  0  0  0  0  0  0  0  0  0  0  0
   24.6363  -18.2148  -17.5126 C   0  0  0  0  0  0  0  0  0  0  0  0
   25.3731  -18.1671  -16.1651 C   0  0  0  0  0  0  0  0  0  0  0  0
   24.2600  -18.0598  -15.0986 C   0  0  0  0  0  0  0  0  0  0  0  0
   23.0782  -18.4180  -15.9550 C   0  0  1  0  0  0  0  0  0  0  0  0
   21.8051  -18.3607  -15.3230 C   0  0  0  0  0  0  0  0  0  0  0  0
   21.3279  -17.1848  -15.0714 O   0  0  0  0  0  0  0  0  0  0  0  0
   20.9387  -19.3900  -14.9008 N   0  0  0  0  0  0  0  0  0  0  0  0
   19.5891  -19.1804  -14.4236 C   0  0  1  0  0  0  0  0  0  0  0  0
   18.6983  -18.4748  -15.3921 C   0  0  0  0  0  0  0  0  0  0  0  0
   17.3382  -18.2144  -14.8634 C   0  0  0  0  0  0  0  0  0  0  0  0
   16.9835  -16.9968  -14.3178 C   0  0  0  0  0  0  0  0  0  0  0  0
   15.7176  -17.0393  -13.9269 N   0  0  0  0  0  0  0  0  0  0  0  0
   15.2770  -18.2713  -14.2226 C   0  0  0  0  0  0  0  0  0  0  0  0
   16.2605  -18.9896  -14.7928 N   0  0  0  0  0  0  0  0  0  0  0  0
   18.9859  -20.5077  -14.1248 C   0  0  0  0  0  0  0  0  0  0  0  0
   17.9703  -20.6447  -13.1813 O   0  0  0  0  0  0  0  0  0  0  0  0
   19.3558  -21.5639  -14.7006 O   0  0  0  0  0  0  0  0  0  0  0  0
  2  1  1  6
  2  3  1  0
  3  4  1  0
  4  8  1  0
  4  5  2  0
  6  2  1  0
  7  6  2  0
  9  6  1  0
  9 13  1  0
 10 11  1  0
 10  9  1  0
 11 12  1  0
 12 13  1  0
 13 14  1  1
 14 15  2  0
 16 14  1  0
 17 16  1  0
 17 24  1  0
 17 18  1  6
 19 23  1  0
 19 18  1  0
 20 19  2  0
 21 20  1  0
 21 22  1  0
 22 23  2  0
 24 25  1  0
 26 24  2  0
M  END
$$$$
