DPH.pdb
     RDKit          3D

 26 27  0  0  1  0  0  0  0  0999 V2000
   22.7813   -5.7992  -16.4415 N   0  0  0  0  0  0  0  0  0  0  0  0
   22.5146   -6.8503  -15.5439 C   0  0  1  0  0  0  0  0  0  0  0  0
   21.5223   -6.2739  -14.5087 C   0  0  0  0  0  0  0  0  0  0  0  0
   22.1815   -5.1165  -13.8045 C   0  0  0  0  0  0  0  0  0  0  0  0
   21.7954   -3.9469  -14.0522 O   0  0  0  0  0  0  0  0  0  0  0  0
   21.9895   -8.1084  -16.0806 C   0  0  0  0  0  0  0  0  0  0  0  0
   20.8454   -7.9952  -16.6574 O   0  0  0  0  0  0  0  0  0  0  0  0
   23.1915   -5.2898  -12.8991 O   0  0  0  0  0  0  0  0  0  0  0  0
   22.5715   -9.3702  -16.0382 N   0  0  0  0  0  0  0  0  0  0  0  0
   23.9934   -9.6668  -16.0877 C   0  0  0  0  0  0  0  0  0  0  0  0
   24.1232  -10.5282  -14.8219 C   0  0  0  0  0  0  0  0  0  0  0  0
   22.6959  -11.0484  -14.5382 C   0  0  0  0  0  0  0  0  0  0  0  0
   22.0556  -10.7086  -15.8546 C   0  0  1  0  0  0  0  0  0  0  0  0
   20.6640  -10.9826  -15.9646 C   0  0  0  0  0  0  0  0  0  0  0  0
   19.8529  -10.1062  -15.4672 O   0  0  0  0  0  0  0  0  0  0  0  0
   19.9827  -12.0782  -16.5338 N   0  0  0  0  0  0  0  0  0  0  0  0
   18.5447  -12.1719  -16.6611 C   0  0  1  0  0  0  0  0  0  0  0  0
   17.9282  -11.0823  -17.4747 C   0  0  0  0  0  0  0  0  0  0  0  0
   16.4564  -11.2014  -17.6049 C   0  0  0  0  0  0  0  0  0  0  0  0
   15.6061  -10.9939  -16.5372 C   0  0  0  0  0  0  0  0  0  0  0  0
   14.3519  -11.1639  -16.9313 N   0  0  0  0  0  0  0  0  0  0  0  0
   14.4094  -11.4756  -18.2348 C   0  0  0  0  0  0  0  0  0  0  0  0
   15.6887  -11.4994  -18.6484 N   0  0  0  0  0  0  0  0  0  0  0  0
   18.2148  -13.4720  -17.3060 C   0  0  0  0  0  0  0  0  0  0  0  0
   17.0714  -14.1850  -16.9528 O   0  0  0  0  0  0  0  0  0  0  0  0
   18.9412  -13.9905  -18.1935 O   0  0  0  0  0  0  0  0  0  0  0  0
  2  1  1  6
  2  3  1  0
  3  4  1  0
  4  8  1  0
  4  5  2  0
  6  2  1  0
  7  6  2  0
  9  6  1  0
  9 13  1  0
 10 11  1  0
 10  9  1  0
 11 12  1  0
 12 13  1  0
 13 14  1  1
 14 15  2  0
 16 14  1  0
 17 16  1  0
 17 24  1  0
 17 18  1  6
 19 23  1  0
 19 18  1  0
 20 19  2  0
 21 20  1  0
 21 22  1  0
 22 23  2  0
 24 25  1  0
 26 24  2  0
M  END
$$$$
