DPH.pdb
     RDKit          3D

 26 27  0  0  1  0  0  0  0  0999 V2000
   23.8306  -15.2010  -16.4206 N   0  0  0  0  0  0  0  0  0  0  0  0
   24.7516  -14.2905  -16.9721 C   0  0  1  0  0  0  0  0  0  0  0  0
   24.5356  -14.3525  -18.5011 C   0  0  0  0  0  0  0  0  0  0  0  0
   24.7077  -15.7795  -18.9528 C   0  0  0  0  0  0  0  0  0  0  0  0
   23.7033  -16.4248  -19.3439 O   0  0  0  0  0  0  0  0  0  0  0  0
   24.7053  -12.8959  -16.5252 C   0  0  0  0  0  0  0  0  0  0  0  0
   23.5457  -12.3494  -16.6322 O   0  0  0  0  0  0  0  0  0  0  0  0
   25.9235  -16.4053  -18.9540 O   0  0  0  0  0  0  0  0  0  0  0  0
   25.7411  -12.1223  -16.0140 N   0  0  0  0  0  0  0  0  0  0  0  0
   26.7911  -12.5716  -15.1151 C   0  0  0  0  0  0  0  0  0  0  0  0
   28.0254  -12.1246  -15.9136 C   0  0  0  0  0  0  0  0  0  0  0  0
   27.5135  -11.0200  -16.8653 C   0  0  0  0  0  0  0  0  0  0  0  0
   26.1776  -10.7604  -16.2279 C   0  0  1  0  0  0  0  0  0  0  0  0
   25.3425   -9.8142  -16.8843 C   0  0  0  0  0  0  0  0  0  0  0  0
   25.1235  -10.0012  -18.1456 O   0  0  0  0  0  0  0  0  0  0  0  0
   24.6897   -8.6646  -16.3938 N   0  0  0  0  0  0  0  0  0  0  0  0
   23.8091   -7.8258  -17.1772 C   0  0  1  0  0  0  0  0  0  0  0  0
   22.5189   -8.4752  -17.5557 C   0  0  0  0  0  0  0  0  0  0  0  0
   21.7088   -8.9050  -16.3912 C   0  0  0  0  0  0  0  0  0  0  0  0
   22.2835   -9.4310  -15.2514 C   0  0  0  0  0  0  0  0  0  0  0  0
   21.3348   -9.7285  -14.3748 N   0  0  0  0  0  0  0  0  0  0  0  0
   20.1725   -9.3937  -14.9549 C   0  0  0  0  0  0  0  0  0  0  0  0
   20.3960   -8.8921  -16.1823 N   0  0  0  0  0  0  0  0  0  0  0  0
   23.4961   -6.6056  -16.3848 C   0  0  0  0  0  0  0  0  0  0  0  0
   23.9487   -6.4575  -15.0757 O   0  0  0  0  0  0  0  0  0  0  0  0
   22.8147   -5.6543  -16.8482 O   0  0  0  0  0  0  0  0  0  0  0  0
  2  1  1  1
  2  3  1  0
  3  4  1  0
  4  8  1  0
  4  5  2  0
  6  2  1  0
  7  6  2  0
  9  6  1  0
  9 13  1  0
 10 11  1  0
 10  9  1  0
 11 12  1  0
 12 13  1  0
 13 14  1  6
 14 15  2  0
 16 14  1  0
 17 16  1  0
 17 24  1  0
 17 18  1  1
 19 23  1  0
 19 18  1  0
 20 19  2  0
 21 20  1  0
 21 22  1  0
 22 23  2  0
 24 25  1  0
 26 24  2  0
M  END
$$$$
