DPH.pdb
     RDKit          3D

 26 27  0  0  1  0  0  0  0  0999 V2000
   15.1910  -11.4305  -15.1806 N   0  0  0  0  0  0  0  0  0  0  0  0
   16.2253  -11.3248  -14.2316 C   0  0  1  0  0  0  0  0  0  0  0  0
   17.3454  -12.2668  -14.7279 C   0  0  0  0  0  0  0  0  0  0  0  0
   16.7968  -13.6681  -14.8013 C   0  0  0  0  0  0  0  0  0  0  0  0
   16.1971  -14.1452  -13.8058 O   0  0  0  0  0  0  0  0  0  0  0  0
   16.7844   -9.9990  -13.9553 C   0  0  0  0  0  0  0  0  0  0  0  0
   17.3138   -9.4294  -14.9800 O   0  0  0  0  0  0  0  0  0  0  0  0
   16.9266  -14.4476  -15.9172 O   0  0  0  0  0  0  0  0  0  0  0  0
   16.8053   -9.3096  -12.7483 N   0  0  0  0  0  0  0  0  0  0  0  0
   15.7340   -9.2539  -11.7677 C   0  0  0  0  0  0  0  0  0  0  0  0
   16.5037   -9.7040  -10.5164 C   0  0  0  0  0  0  0  0  0  0  0  0
   17.9905   -9.4276  -10.8344 C   0  0  0  0  0  0  0  0  0  0  0  0
   17.8138   -8.5510  -12.0422 C   0  0  1  0  0  0  0  0  0  0  0  0
   19.0073   -8.1299  -12.6916 C   0  0  0  0  0  0  0  0  0  0  0  0
   19.6152   -9.0047  -13.4257 O   0  0  0  0  0  0  0  0  0  0  0  0
   19.6757   -6.8884  -12.6768 N   0  0  0  0  0  0  0  0  0  0  0  0
   20.8809   -6.5981  -13.4224 C   0  0  1  0  0  0  0  0  0  0  0  0
   20.7860   -6.8956  -14.8825 C   0  0  0  0  0  0  0  0  0  0  0  0
   22.0183   -6.5619  -15.6357 C   0  0  0  0  0  0  0  0  0  0  0  0
   23.1617   -7.3308  -15.5499 C   0  0  0  0  0  0  0  0  0  0  0  0
   24.1050   -6.8082  -16.3208 N   0  0  0  0  0  0  0  0  0  0  0  0
   23.5628   -5.7200  -16.8879 C   0  0  0  0  0  0  0  0  0  0  0  0
   22.2928   -5.5668  -16.4734 N   0  0  0  0  0  0  0  0  0  0  0  0
   21.1921   -5.1512  -13.2659 C   0  0  0  0  0  0  0  0  0  0  0  0
   22.5019   -4.7070  -13.1000 O   0  0  0  0  0  0  0  0  0  0  0  0
   20.3008   -4.2627  -13.2748 O   0  0  0  0  0  0  0  0  0  0  0  0
  2  1  1  6
  2  3  1  0
  3  4  1  0
  4  8  1  0
  4  5  2  0
  6  2  1  0
  7  6  2  0
  9  6  1  0
  9 13  1  0
 10 11  1  0
 10  9  1  0
 11 12  1  0
 12 13  1  0
 13 14  1  6
 14 15  2  0
 16 14  1  0
 17 16  1  0
 17 24  1  0
 17 18  1  6
 19 23  1  0
 19 18  1  0
 20 19  2  0
 21 20  1  0
 21 22  1  0
 22 23  2  0
 24 25  1  0
 26 24  2  0
M  END
$$$$
