DPH.pdb
     RDKit          3D

 26 27  0  0  1  0  0  0  0  0999 V2000
   22.1050  -13.6312  -18.5166 N   0  0  0  0  0  0  0  0  0  0  0  0
   22.8924  -12.5299  -18.1312 C   0  0  1  0  0  0  0  0  0  0  0  0
   23.4517  -11.9365  -19.4440 C   0  0  0  0  0  0  0  0  0  0  0  0
   24.3000  -12.9819  -20.1203 C   0  0  0  0  0  0  0  0  0  0  0  0
   24.8693  -13.8567  -19.4211 O   0  0  0  0  0  0  0  0  0  0  0  0
   22.2656  -11.4683  -17.3396 C   0  0  0  0  0  0  0  0  0  0  0  0
   21.4953  -10.6934  -18.0186 O   0  0  0  0  0  0  0  0  0  0  0  0
   24.4764  -13.0168  -21.4758 O   0  0  0  0  0  0  0  0  0  0  0  0
   22.4050  -11.2135  -15.9801 N   0  0  0  0  0  0  0  0  0  0  0  0
   22.5807  -12.2031  -14.9303 C   0  0  0  0  0  0  0  0  0  0  0  0
   23.8554  -11.6566  -14.2689 C   0  0  0  0  0  0  0  0  0  0  0  0
   23.9143  -10.1663  -14.6736 C   0  0  0  0  0  0  0  0  0  0  0  0
   22.5121  -10.0070  -15.1901 C   0  0  1  0  0  0  0  0  0  0  0  0
   22.1866   -8.7360  -15.7396 C   0  0  0  0  0  0  0  0  0  0  0  0
   22.6930   -8.4499  -16.8952 O   0  0  0  0  0  0  0  0  0  0  0  0
   21.3870   -7.6906  -15.2335 N   0  0  0  0  0  0  0  0  0  0  0  0
   20.9747   -6.5322  -15.9957 C   0  0  1  0  0  0  0  0  0  0  0  0
   20.3251   -6.8555  -17.3007 C   0  0  0  0  0  0  0  0  0  0  0  0
   19.9910   -5.6581  -18.1080 C   0  0  0  0  0  0  0  0  0  0  0  0
   20.8063   -4.5445  -18.1413 C   0  0  0  0  0  0  0  0  0  0  0  0
   20.2718   -3.6286  -18.9366 N   0  0  0  0  0  0  0  0  0  0  0  0
   19.1302   -4.1584  -19.4011 C   0  0  0  0  0  0  0  0  0  0  0  0
   18.9558   -5.3936  -18.8991 N   0  0  0  0  0  0  0  0  0  0  0  0
   20.0049   -5.7538  -15.1782 C   0  0  0  0  0  0  0  0  0  0  0  0
   19.5329   -6.2382  -13.9604 O   0  0  0  0  0  0  0  0  0  0  0  0
   19.5646   -4.6310  -15.5380 O   0  0  0  0  0  0  0  0  0  0  0  0
  2  1  1  6
  2  3  1  0
  3  4  1  0
  4  8  1  0
  4  5  2  0
  6  2  1  0
  7  6  2  0
  9  6  1  0
  9 13  1  0
 10 11  1  0
 10  9  1  0
 11 12  1  0
 12 13  1  0
 13 14  1  6
 14 15  2  0
 16 14  1  0
 17 16  1  0
 17 24  1  0
 17 18  1  6
 19 23  1  0
 19 18  1  0
 20 19  2  0
 21 20  1  0
 21 22  1  0
 22 23  2  0
 24 25  1  0
 26 24  2  0
M  END
$$$$
