RYE.pdb
     RDKit          3D

 33 33  0  0  1  0  0  0  0  0999 V2000
   27.1484  -17.1064  -18.9881 N   0  0  0  0  0  0  0  0  0  0  0  0
   27.4866  -17.7838  -20.1838 C   0  0  0  0  0  0  0  0  0  0  0  0
   27.5847  -17.1056  -21.2731 N   0  0  0  0  0  0  0  0  0  0  0  0
   27.7200  -19.1797  -20.2241 N   0  0  0  0  0  0  0  0  0  0  0  0
   27.7479  -19.9973  -19.0105 C   0  0  0  0  0  0  0  0  0  0  0  0
   26.3967  -19.8561  -18.3627 C   0  0  0  0  0  0  0  0  0  0  0  0
   26.0747  -20.9841  -17.4198 C   0  0  0  0  0  0  0  0  0  0  0  0
   27.3136  -21.3742  -16.6519 C   0  0  2  0  0  0  0  0  0  0  0  0
   27.7881  -22.6146  -17.1973 N   0  0  0  0  0  0  0  0  0  0  0  0
   27.0141  -21.5164  -15.1991 C   0  0  0  0  0  0  0  0  0  0  0  0
   26.2591  -22.4386  -14.8066 O   0  0  0  0  0  0  0  0  0  0  0  0
   27.8517  -17.5712  -22.1543 O   0  0  0  0  0  0  0  0  0  0  0  0
   27.0587  -19.8293   -6.4550 C   0  0  0  0  0  0  0  0  0  0  0  0
   27.3644  -19.8728   -7.8299 C   0  0  0  0  0  0  0  0  0  0  0  0
   28.2214  -20.8136   -8.3339 C   0  0  0  0  0  0  0  0  0  0  0  0
   28.4984  -20.8282   -9.6800 C   0  0  0  0  0  0  0  0  0  0  0  0
   27.9554  -19.9365  -10.5682 C   0  0  0  0  0  0  0  0  0  0  0  0
   28.2821  -19.9967  -11.9848 C   0  0  1  0  0  0  0  0  0  0  0  0
   27.2599  -20.7304  -12.8183 N   0  0  0  0  0  0  0  0  0  0  0  0
   27.5630  -20.6295  -14.2317 C   0  0  0  0  0  0  0  0  0  0  0  0
   25.8886  -20.2813  -12.5915 O   0  0  0  0  0  0  0  0  0  0  0  0
   25.3748  -19.2631  -13.1281 C   0  0  0  0  0  0  0  0  0  0  0  0
   27.0944  -18.9912  -10.0625 C   0  0  0  0  0  0  0  0  0  0  0  0
   26.7980  -18.9588   -8.6916 N   0  0  0  0  0  0  0  0  0  0  0  0
   25.0428  -21.0070  -11.7187 C   0  0  2  0  0  0  0  0  0  0  0  0
   23.6397  -20.6011  -11.5137 C   0  0  0  0  0  0  0  0  0  0  0  0
   22.7779  -21.1641  -12.5858 C   0  0  0  0  0  0  0  0  0  0  0  0
   21.8966  -20.1163  -13.1906 C   0  0  0  0  0  0  0  0  0  0  0  0
   20.7045  -20.7090  -13.8538 O   0  0  0  0  0  0  0  0  0  0  0  0
   20.5846  -21.9457  -13.8989 C   0  0  0  0  0  0  0  0  0  0  0  0
   23.2422  -21.1533  -10.1984 O   0  0  0  0  0  0  0  0  0  0  0  0
   22.0738  -20.8761   -9.5205 O   0  0  0  0  0  0  0  0  0  0  0  0
   19.7487  -19.8917  -14.4088 O   0  0  0  0  0  0  0  0  0  0  0  0
  2  1  1  0
  3  2  2  0
  4  2  1  0
  5  4  1  0
  6  5  1  0
  7  6  1  0
  8 10  1  0
  8  7  1  0
  8  9  1  6
 10 19  1  0
 10 11  2  0
 12 13  1  0
 13 23  2  0
 13 14  1  0
 14 15  2  0
 15 16  1  0
 16 17  1  0
 18 17  1  1
 19 18  1  0
 20 24  1  0
 20 18  1  0
 21 20  2  0
 22 16  2  0
 23 22  1  0
 25 26  1  1
 25 30  1  0
 25 24  1  0
 27 28  1  0
 27 26  1  0
 28 32  1  0
 29 28  2  0
 30 31  1  0
 33 30  2  0
M  END
$$$$
