RYE.pdb
     RDKit          3D

 33 33  0  0  1  0  0  0  0  0999 V2000
   28.6792  -26.4573  -16.3439 N   0  0  0  0  0  0  0  0  0  0  0  0
   27.8670  -27.3502  -17.0829 C   0  0  0  0  0  0  0  0  0  0  0  0
   28.3479  -28.4979  -17.4107 N   0  0  0  0  0  0  0  0  0  0  0  0
   26.5456  -27.0255  -17.4744 N   0  0  0  0  0  0  0  0  0  0  0  0
   25.8433  -25.8570  -16.9419 C   0  0  0  0  0  0  0  0  0  0  0  0
   25.3825  -26.2234  -15.5567 C   0  0  0  0  0  0  0  0  0  0  0  0
   24.2819  -25.3323  -15.0470 C   0  0  0  0  0  0  0  0  0  0  0  0
   24.2928  -24.0271  -15.8039 C   0  0  2  0  0  0  0  0  0  0  0  0
   25.5609  -23.3982  -15.5637 N   0  0  0  0  0  0  0  0  0  0  0  0
   23.1747  -23.1476  -15.3603 C   0  0  0  0  0  0  0  0  0  0  0  0
   21.9935  -23.5676  -15.4143 O   0  0  0  0  0  0  0  0  0  0  0  0
   27.7772  -29.1670  -17.9503 O   0  0  0  0  0  0  0  0  0  0  0  0
   18.8999  -16.0324  -12.1402 C   0  0  0  0  0  0  0  0  0  0  0  0
   19.8889  -16.9578  -12.5288 C   0  0  0  0  0  0  0  0  0  0  0  0
   20.5814  -16.8024  -13.6992 C   0  0  0  0  0  0  0  0  0  0  0  0
   21.5397  -17.7235  -14.0488 C   0  0  0  0  0  0  0  0  0  0  0  0
   21.8504  -18.8134  -13.2779 C   0  0  0  0  0  0  0  0  0  0  0  0
   22.8751  -19.7586  -13.6948 C   0  0  1  0  0  0  0  0  0  0  0  0
   22.3353  -20.9647  -14.4241 N   0  0  0  0  0  0  0  0  0  0  0  0
   23.4064  -21.8316  -14.8721 C   0  0  0  0  0  0  0  0  0  0  0  0
   21.4863  -20.6277  -15.5639 O   0  0  0  0  0  0  0  0  0  0  0  0
   21.9154  -20.2064  -16.6716 C   0  0  0  0  0  0  0  0  0  0  0  0
   21.1551  -18.9700  -12.1020 C   0  0  0  0  0  0  0  0  0  0  0  0
   20.1730  -18.0413  -11.7263 N   0  0  0  0  0  0  0  0  0  0  0  0
   20.0812  -20.7683  -15.4642 C   0  0  2  0  0  0  0  0  0  0  0  0
   19.2073  -20.4693  -16.6142 C   0  0  0  0  0  0  0  0  0  0  0  0
   18.3896  -21.6601  -16.9641 C   0  0  0  0  0  0  0  0  0  0  0  0
   17.5183  -21.3993  -18.1530 C   0  0  0  0  0  0  0  0  0  0  0  0
   16.6368  -22.5573  -18.4596 O   0  0  0  0  0  0  0  0  0  0  0  0
   16.5924  -23.5153  -17.6683 C   0  0  0  0  0  0  0  0  0  0  0  0
   18.3292  -19.3578  -16.1823 O   0  0  0  0  0  0  0  0  0  0  0  0
   17.8770  -18.3245  -16.9758 O   0  0  0  0  0  0  0  0  0  0  0  0
   15.8813  -22.5616  -19.6080 O   0  0  0  0  0  0  0  0  0  0  0  0
  2  1  1  0
  3  2  2  0
  4  2  1  0
  5  4  1  0
  6  5  1  0
  7  6  1  0
  8 10  1  0
  8  7  1  0
  8  9  1  1
 10 19  1  0
 10 11  2  0
 12 13  1  0
 13 23  2  0
 13 14  1  0
 14 15  2  0
 15 16  1  0
 16 17  1  0
 18 17  1  1
 19 18  1  0
 20 24  1  0
 20 18  1  0
 21 20  2  0
 22 16  2  0
 23 22  1  0
 25 26  1  1
 25 30  1  0
 25 24  1  0
 27 28  1  0
 27 26  1  0
 28 32  1  0
 29 28  2  0
 30 31  1  0
 33 30  2  0
M  END
$$$$
