RYE.pdb
     RDKit          3D

 33 33  0  0  1  0  0  0  0  0999 V2000
   17.8069  -23.3243  -10.6649 N   0  0  0  0  0  0  0  0  0  0  0  0
   17.7594  -24.1704  -11.7984 C   0  0  0  0  0  0  0  0  0  0  0  0
   16.6269  -24.6686  -12.1523 N   0  0  0  0  0  0  0  0  0  0  0  0
   18.9128  -24.4883  -12.5557 N   0  0  0  0  0  0  0  0  0  0  0  0
   20.2479  -24.0340  -12.1643 C   0  0  0  0  0  0  0  0  0  0  0  0
   20.4078  -22.6404  -12.7099 C   0  0  0  0  0  0  0  0  0  0  0  0
   21.8160  -22.1215  -12.5969 C   0  0  0  0  0  0  0  0  0  0  0  0
   22.2882  -21.6350  -13.9448 C   0  0  2  0  0  0  0  0  0  0  0  0
   22.8674  -22.7553  -14.6308 N   0  0  0  0  0  0  0  0  0  0  0  0
   23.2836  -20.5365  -13.7931 C   0  0  0  0  0  0  0  0  0  0  0  0
   22.9261  -19.4350  -13.3100 O   0  0  0  0  0  0  0  0  0  0  0  0
   16.5673  -25.3009  -12.9654 O   0  0  0  0  0  0  0  0  0  0  0  0
   25.2389  -21.1159   -7.7559 C   0  0  0  0  0  0  0  0  0  0  0  0
   25.6184  -20.8716   -9.0908 C   0  0  0  0  0  0  0  0  0  0  0  0
   25.7346  -21.8959   -9.9913 C   0  0  0  0  0  0  0  0  0  0  0  0
   26.1071  -21.6232  -11.2858 C   0  0  0  0  0  0  0  0  0  0  0  0
   26.3753  -20.3579  -11.7393 C   0  0  0  0  0  0  0  0  0  0  0  0
   26.7655  -20.1243  -13.1215 C   0  0  2  0  0  0  0  0  0  0  0  0
   25.6351  -19.6583  -14.0065 N   0  0  0  0  0  0  0  0  0  0  0  0
   24.6421  -20.6987  -14.1831 C   0  0  0  0  0  0  0  0  0  0  0  0
   26.0741  -19.1904  -15.3186 O   0  0  0  0  0  0  0  0  0  0  0  0
   26.7490  -19.8784  -16.1310 C   0  0  0  0  0  0  0  0  0  0  0  0
   26.2586  -19.3284  -10.8353 C   0  0  0  0  0  0  0  0  0  0  0  0
   25.8796  -19.5850   -9.5091 N   0  0  0  0  0  0  0  0  0  0  0  0
   25.7424  -17.8834  -15.7498 C   0  0  2  0  0  0  0  0  0  0  0  0
   25.2309  -17.6431  -17.1123 C   0  0  0  0  0  0  0  0  0  0  0  0
   24.0583  -18.5151  -17.3843 C   0  0  0  0  0  0  0  0  0  0  0  0
   23.4261  -18.1919  -18.7020 C   0  0  0  0  0  0  0  0  0  0  0  0
   22.2485  -19.0570  -18.9794 O   0  0  0  0  0  0  0  0  0  0  0  0
   22.2514  -20.2354  -18.5830 C   0  0  0  0  0  0  0  0  0  0  0  0
   24.8266  -16.2191  -17.1520 O   0  0  0  0  0  0  0  0  0  0  0  0
   24.8501  -15.3987  -18.2602 O   0  0  0  0  0  0  0  0  0  0  0  0
   21.1709  -18.5520  -19.6676 O   0  0  0  0  0  0  0  0  0  0  0  0
  2  1  1  0
  3  2  2  0
  4  2  1  0
  5  4  1  0
  6  5  1  0
  7  6  1  0
  8 10  1  0
  8  7  1  0
  8  9  1  1
 10 19  1  0
 10 11  2  0
 12 13  1  0
 13 23  2  0
 13 14  1  0
 14 15  2  0
 15 16  1  0
 16 17  1  0
 18 17  1  1
 19 18  1  0
 20 24  1  0
 20 18  1  0
 21 20  2  0
 22 16  2  0
 23 22  1  0
 25 26  1  6
 25 30  1  0
 25 24  1  0
 27 28  1  0
 27 26  1  0
 28 32  1  0
 29 28  2  0
 30 31  1  0
 33 30  2  0
M  END
$$$$
