RYE.pdb
     RDKit          3D

 33 33  0  0  1  0  0  0  0  0999 V2000
   25.6342  -23.0225  -21.9574 N   0  0  0  0  0  0  0  0  0  0  0  0
   27.0271  -22.7917  -22.0548 C   0  0  0  0  0  0  0  0  0  0  0  0
   27.5291  -22.5098  -23.2057 N   0  0  0  0  0  0  0  0  0  0  0  0
   27.8871  -22.8605  -20.9321 N   0  0  0  0  0  0  0  0  0  0  0  0
   27.3732  -22.9839  -19.5672 C   0  0  0  0  0  0  0  0  0  0  0  0
   26.6480  -21.7012  -19.2605 C   0  0  0  0  0  0  0  0  0  0  0  0
   25.9209  -21.7361  -17.9432 C   0  0  0  0  0  0  0  0  0  0  0  0
   26.7857  -22.4037  -16.9026 C   0  0  2  0  0  0  0  0  0  0  0  0
   27.0022  -23.7588  -17.3245 N   0  0  0  0  0  0  0  0  0  0  0  0
   26.1306  -22.3654  -15.5648 C   0  0  0  0  0  0  0  0  0  0  0  0
   25.2365  -23.2004  -15.2855 O   0  0  0  0  0  0  0  0  0  0  0  0
   28.5452  -22.3628  -23.3089 O   0  0  0  0  0  0  0  0  0  0  0  0
   24.3953  -20.1030   -7.1460 C   0  0  0  0  0  0  0  0  0  0  0  0
   24.9876  -20.2632   -8.4145 C   0  0  0  0  0  0  0  0  0  0  0  0
   25.6133  -21.4305   -8.7601 C   0  0  0  0  0  0  0  0  0  0  0  0
   26.1810  -21.5539  -10.0056 C   0  0  0  0  0  0  0  0  0  0  0  0
   26.1576  -20.5549  -10.9439 C   0  0  0  0  0  0  0  0  0  0  0  0
   26.7741  -20.7382  -12.2490 C   0  0  1  0  0  0  0  0  0  0  0  0
   25.8503  -21.3315  -13.2847 N   0  0  0  0  0  0  0  0  0  0  0  0
   26.4904  -21.4011  -14.5827 C   0  0  0  0  0  0  0  0  0  0  0  0
   24.5827  -20.6176  -13.4158 O   0  0  0  0  0  0  0  0  0  0  0  0
   24.4500  -19.5007  -13.9847 C   0  0  0  0  0  0  0  0  0  0  0  0
   25.5291  -19.3821  -10.5974 C   0  0  0  0  0  0  0  0  0  0  0  0
   24.9431  -19.2354   -9.3312 N   0  0  0  0  0  0  0  0  0  0  0  0
   23.3972  -21.1794  -12.8839 C   0  0  2  0  0  0  0  0  0  0  0  0
   22.1052  -20.4792  -13.0103 C   0  0  0  0  0  0  0  0  0  0  0  0
   21.2527  -21.1492  -14.0270 C   0  0  0  0  0  0  0  0  0  0  0  0
   19.9163  -20.4859  -14.1480 C   0  0  0  0  0  0  0  0  0  0  0  0
   19.0519  -21.1589  -15.1540 O   0  0  0  0  0  0  0  0  0  0  0  0
   17.9653  -20.6419  -15.4668 C   0  0  0  0  0  0  0  0  0  0  0  0
   21.4652  -20.5582  -11.6773 O   0  0  0  0  0  0  0  0  0  0  0  0
   20.5281  -19.6811  -11.1729 O   0  0  0  0  0  0  0  0  0  0  0  0
   19.4567  -22.3404  -15.7284 O   0  0  0  0  0  0  0  0  0  0  0  0
  2  1  1  0
  3  2  2  0
  4  2  1  0
  5  4  1  0
  6  5  1  0
  7  6  1  0
  8 10  1  0
  8  7  1  0
  8  9  1  6
 10 19  1  0
 10 11  2  0
 12 13  1  0
 13 23  2  0
 13 14  1  0
 14 15  2  0
 15 16  1  0
 16 17  1  0
 18 17  1  1
 19 18  1  0
 20 24  1  0
 20 18  1  0
 21 20  2  0
 22 16  2  0
 23 22  1  0
 25 26  1  1
 25 30  1  0
 25 24  1  0
 27 28  1  0
 27 26  1  0
 28 32  1  0
 29 28  2  0
 30 31  1  0
 33 30  2  0
M  END
$$$$
