RYE.pdb
     RDKit          3D

 33 33  0  0  1  0  0  0  0  0999 V2000
   14.2640  -29.7820   -6.6812 N   0  0  0  0  0  0  0  0  0  0  0  0
   13.7068  -28.8673   -7.6063 C   0  0  0  0  0  0  0  0  0  0  0  0
   13.2300  -29.3189   -8.7130 N   0  0  0  0  0  0  0  0  0  0  0  0
   13.6559  -27.4743   -7.3578 N   0  0  0  0  0  0  0  0  0  0  0  0
   14.3272  -26.8659   -6.2083 C   0  0  0  0  0  0  0  0  0  0  0  0
   15.7897  -27.1972   -6.3363 C   0  0  0  0  0  0  0  0  0  0  0  0
   16.5952  -26.7823   -5.1346 C   0  0  0  0  0  0  0  0  0  0  0  0
   16.7279  -25.2796   -5.1057 C   0  0  2  0  0  0  0  0  0  0  0  0
   17.9965  -24.9459   -5.6891 N   0  0  0  0  0  0  0  0  0  0  0  0
   16.6372  -24.7661   -3.7098 C   0  0  0  0  0  0  0  0  0  0  0  0
   17.5313  -25.0591   -2.8795 O   0  0  0  0  0  0  0  0  0  0  0  0
   12.8854  -28.6682   -9.4358 O   0  0  0  0  0  0  0  0  0  0  0  0
   13.6814  -20.1867    3.3371 C   0  0  0  0  0  0  0  0  0  0  0  0
   13.9318  -20.6713    2.0380 C   0  0  0  0  0  0  0  0  0  0  0  0
   12.9063  -20.9160    1.1650 C   0  0  0  0  0  0  0  0  0  0  0  0
   13.1852  -21.3887   -0.0950 C   0  0  0  0  0  0  0  0  0  0  0  0
   14.4579  -21.6355   -0.5399 C   0  0  0  0  0  0  0  0  0  0  0  0
   14.6978  -22.1356   -1.8851 C   0  0  1  0  0  0  0  0  0  0  0  0
   15.4404  -23.4490   -1.9268 N   0  0  0  0  0  0  0  0  0  0  0  0
   15.5567  -23.9448   -3.2833 C   0  0  0  0  0  0  0  0  0  0  0  0
   14.8426  -24.4860   -1.0896 O   0  0  0  0  0  0  0  0  0  0  0  0
   13.8515  -25.1886   -1.4252 C   0  0  0  0  0  0  0  0  0  0  0  0
   15.4886  -21.3899    0.3365 C   0  0  0  0  0  0  0  0  0  0  0  0
   15.2259  -20.9071    1.6273 N   0  0  0  0  0  0  0  0  0  0  0  0
   15.3791  -24.7553    0.1924 C   0  0  2  0  0  0  0  0  0  0  0  0
   14.7229  -25.7142    1.1011 C   0  0  0  0  0  0  0  0  0  0  0  0
   15.7139  -26.2880    2.0485 C   0  0  0  0  0  0  0  0  0  0  0  0
   15.0649  -27.2122    3.0309 C   0  0  0  0  0  0  0  0  0  0  0  0
   16.0604  -27.8531    3.9311 O   0  0  0  0  0  0  0  0  0  0  0  0
   17.2637  -27.5633    3.8131 C   0  0  0  0  0  0  0  0  0  0  0  0
   13.6992  -24.9414    1.8411 O   0  0  0  0  0  0  0  0  0  0  0  0
   12.4442  -25.3884    2.1972 O   0  0  0  0  0  0  0  0  0  0  0  0
   15.6472  -28.7556    4.8821 O   0  0  0  0  0  0  0  0  0  0  0  0
  2  1  1  0
  3  2  2  0
  4  2  1  0
  5  4  1  0
  6  5  1  0
  7  6  1  0
  8 10  1  0
  8  7  1  0
  8  9  1  1
 10 19  1  0
 10 11  2  0
 12 13  1  0
 13 23  2  0
 13 14  1  0
 14 15  2  0
 15 16  1  0
 16 17  1  0
 18 17  1  6
 19 18  1  0
 20 24  1  0
 20 18  1  0
 21 20  2  0
 22 16  2  0
 23 22  1  0
 25 26  1  6
 25 30  1  0
 25 24  1  0
 27 28  1  0
 27 26  1  0
 28 32  1  0
 29 28  2  0
 30 31  1  0
 33 30  2  0
M  END
$$$$
