RYE.pdb
     RDKit          3D

 33 33  0  0  1  0  0  0  0  0999 V2000
   19.4844  -27.2406  -11.3279 N   0  0  0  0  0  0  0  0  0  0  0  0
   19.4272  -27.9761  -10.1201 C   0  0  0  0  0  0  0  0  0  0  0  0
   19.9993  -29.1276  -10.0687 N   0  0  0  0  0  0  0  0  0  0  0  0
   18.7630  -27.4906   -8.9678 N   0  0  0  0  0  0  0  0  0  0  0  0
   18.3362  -26.0957   -8.8478 C   0  0  0  0  0  0  0  0  0  0  0  0
   16.8325  -26.1074   -8.7843 C   0  0  0  0  0  0  0  0  0  0  0  0
   16.2998  -25.8870   -7.3941 C   0  0  0  0  0  0  0  0  0  0  0  0
   16.4977  -24.4450   -6.9965 C   0  0  2  0  0  0  0  0  0  0  0  0
   17.6921  -23.9781   -7.6419 N   0  0  0  0  0  0  0  0  0  0  0  0
   16.6115  -24.3139   -5.5165 C   0  0  0  0  0  0  0  0  0  0  0  0
   17.7389  -24.3855   -4.9702 O   0  0  0  0  0  0  0  0  0  0  0  0
   19.9723  -29.6844   -9.2005 O   0  0  0  0  0  0  0  0  0  0  0  0
   14.3832  -22.1049    2.8020 C   0  0  0  0  0  0  0  0  0  0  0  0
   14.4299  -22.2858    1.4053 C   0  0  0  0  0  0  0  0  0  0  0  0
   13.4990  -23.0548    0.7607 C   0  0  0  0  0  0  0  0  0  0  0  0
   13.5734  -23.2109   -0.6028 C   0  0  0  0  0  0  0  0  0  0  0  0
   14.5465  -22.6292   -1.3732 C   0  0  0  0  0  0  0  0  0  0  0  0
   14.5790  -22.8266   -2.8144 C   0  0  1  0  0  0  0  0  0  0  0  0
   15.5665  -23.8746   -3.2668 N   0  0  0  0  0  0  0  0  0  0  0  0
   15.4695  -24.1079   -4.6936 C   0  0  0  0  0  0  0  0  0  0  0  0
   15.4306  -25.1483   -2.5650 O   0  0  0  0  0  0  0  0  0  0  0  0
   14.5089  -25.9821   -2.7747 C   0  0  0  0  0  0  0  0  0  0  0  0
   15.4820  -21.8565   -0.7262 C   0  0  0  0  0  0  0  0  0  0  0  0
   15.4241  -21.6841    0.6649 N   0  0  0  0  0  0  0  0  0  0  0  0
   16.3741  -25.5136   -1.5749 C   0  0  2  0  0  0  0  0  0  0  0  0
   16.2322  -26.7746   -0.8230 C   0  0  0  0  0  0  0  0  0  0  0  0
   17.2625  -27.7535   -1.2581 C   0  0  0  0  0  0  0  0  0  0  0  0
   18.6216  -27.1297   -1.3232 C   0  0  0  0  0  0  0  0  0  0  0  0
   19.1679  -27.1327   -2.7065 O   0  0  0  0  0  0  0  0  0  0  0  0
   18.5050  -27.6505   -3.6221 C   0  0  0  0  0  0  0  0  0  0  0  0
   16.4314  -26.4254    0.6023 O   0  0  0  0  0  0  0  0  0  0  0  0
   16.3012  -27.2828    1.6745 O   0  0  0  0  0  0  0  0  0  0  0  0
   20.3941  -26.5667   -2.9631 O   0  0  0  0  0  0  0  0  0  0  0  0
  2  1  1  0
  3  2  2  0
  4  2  1  0
  5  4  1  0
  6  5  1  0
  7  6  1  0
  8 10  1  0
  8  7  1  0
  8  9  1  6
 10 19  1  0
 10 11  2  0
 12 13  1  0
 13 23  2  0
 13 14  1  0
 14 15  2  0
 15 16  1  0
 16 17  1  0
 18 17  1  6
 19 18  1  0
 20 24  1  0
 20 18  1  0
 21 20  2  0
 22 16  2  0
 23 22  1  0
 25 26  1  6
 25 30  1  0
 25 24  1  0
 27 28  1  0
 27 26  1  0
 28 32  1  0
 29 28  2  0
 30 31  1  0
 33 30  2  0
M  END
$$$$
