RYE.pdb
     RDKit          3D

 33 33  0  0  1  0  0  0  0  0999 V2000
   31.7118  -23.2597  -16.5287 N   0  0  0  0  0  0  0  0  0  0  0  0
   30.4886  -23.9715  -16.5277 C   0  0  0  0  0  0  0  0  0  0  0  0
   30.4905  -25.2055  -16.1625 N   0  0  0  0  0  0  0  0  0  0  0  0
   29.2642  -23.3748  -16.9145 N   0  0  0  0  0  0  0  0  0  0  0  0
   29.1364  -21.9322  -17.1257 C   0  0  0  0  0  0  0  0  0  0  0  0
   29.0818  -21.2985  -15.7616 C   0  0  0  0  0  0  0  0  0  0  0  0
   27.9804  -20.2815  -15.6282 C   0  0  0  0  0  0  0  0  0  0  0  0
   26.6490  -20.9843  -15.5270 C   0  0  2  0  0  0  0  0  0  0  0  0
   26.4023  -21.6273  -16.7867 N   0  0  0  0  0  0  0  0  0  0  0  0
   25.5619  -20.0169  -15.2062 C   0  0  0  0  0  0  0  0  0  0  0  0
   25.6315  -19.3269  -14.1603 O   0  0  0  0  0  0  0  0  0  0  0  0
   29.6049  -25.7309  -16.0980 O   0  0  0  0  0  0  0  0  0  0  0  0
   28.1430  -14.5791  -16.9917 C   0  0  0  0  0  0  0  0  0  0  0  0
   26.9818  -15.3772  -16.9831 C   0  0  0  0  0  0  0  0  0  0  0  0
   26.0062  -15.1954  -16.0404 C   0  0  0  0  0  0  0  0  0  0  0  0
   24.8859  -15.9912  -16.0601 C   0  0  0  0  0  0  0  0  0  0  0  0
   24.6825  -16.9788  -16.9886 C   0  0  0  0  0  0  0  0  0  0  0  0
   23.4769  -17.7931  -16.9647 C   0  0  2  0  0  0  0  0  0  0  0  0
   23.4466  -18.8095  -15.8493 N   0  0  0  0  0  0  0  0  0  0  0  0
   24.4346  -19.8488  -16.0574 C   0  0  0  0  0  0  0  0  0  0  0  0
   22.1374  -19.4279  -15.6567 O   0  0  0  0  0  0  0  0  0  0  0  0
   21.7996  -20.5440  -16.1353 C   0  0  0  0  0  0  0  0  0  0  0  0
   25.6622  -17.1620  -17.9359 C   0  0  0  0  0  0  0  0  0  0  0  0
   26.8136  -16.3604  -17.9337 N   0  0  0  0  0  0  0  0  0  0  0  0
   21.1498  -18.7663  -14.8879 C   0  0  2  0  0  0  0  0  0  0  0  0
   19.7954  -19.3332  -14.7466 C   0  0  0  0  0  0  0  0  0  0  0  0
   18.9662  -18.4736  -13.8619 C   0  0  0  0  0  0  0  0  0  0  0  0
   17.5627  -18.9832  -13.7578 C   0  0  0  0  0  0  0  0  0  0  0  0
   16.7000  -18.0736  -12.9574 O   0  0  0  0  0  0  0  0  0  0  0  0
   17.1963  -17.0520  -12.4516 C   0  0  0  0  0  0  0  0  0  0  0  0
   19.2206  -19.3639  -16.1110 O   0  0  0  0  0  0  0  0  0  0  0  0
   18.2773  -20.2563  -16.5751 O   0  0  0  0  0  0  0  0  0  0  0  0
   15.3681  -18.3656  -12.7829 O   0  0  0  0  0  0  0  0  0  0  0  0
  2  1  1  0
  3  2  2  0
  4  2  1  0
  5  4  1  0
  6  5  1  0
  7  6  1  0
  8 10  1  0
  8  7  1  0
  8  9  1  6
 10 19  1  0
 10 11  2  0
 12 13  1  0
 13 23  2  0
 13 14  1  0
 14 15  2  0
 15 16  1  0
 16 17  1  0
 18 17  1  1
 19 18  1  0
 20 24  1  0
 20 18  1  0
 21 20  2  0
 22 16  2  0
 23 22  1  0
 25 26  1  1
 25 30  1  0
 25 24  1  0
 27 28  1  0
 27 26  1  0
 28 32  1  0
 29 28  2  0
 30 31  1  0
 33 30  2  0
M  END
$$$$
