QAQ.pdb
     RDKit          3D

 24 23  0  0  1  0  0  0  0  0999 V2000
   13.4806  -11.4966  -17.1881 N   0  0  0  0  0  0  0  0  0  0  0  0
   14.4326  -12.5063  -17.4578 C   0  0  0  0  0  0  0  0  0  0  0  0
   14.0597  -13.5150  -18.1036 O   0  0  0  0  0  0  0  0  0  0  0  0
   15.8358  -12.4321  -17.0187 C   0  0  0  0  0  0  0  0  0  0  0  0
   16.1775  -11.2443  -16.1987 C   0  0  0  0  0  0  0  0  0  0  0  0
   17.5710  -11.1759  -15.6628 C   0  0  2  0  0  0  0  0  0  0  0  0
   17.6468  -12.2799  -14.6668 N   0  0  0  0  0  0  0  0  0  0  0  0
   17.8522   -9.9421  -14.8924 C   0  0  0  0  0  0  0  0  0  0  0  0
   17.8979   -8.7971  -15.4641 O   0  0  0  0  0  0  0  0  0  0  0  0
   18.2344   -8.7840  -11.3126 C   0  0  0  0  0  0  0  0  0  0  0  0
   18.2847   -8.6401  -12.8366 C   0  0  2  0  0  0  0  0  0  0  0  0
   18.0879   -9.9206  -13.4720 N   0  0  0  0  0  0  0  0  0  0  0  0
   19.6002   -8.0510  -13.1751 C   0  0  0  0  0  0  0  0  0  0  0  0
   20.6326   -8.8091  -13.2708 O   0  0  0  0  0  0  0  0  0  0  0  0
   21.5766   -6.0222  -17.8591 N   0  0  0  0  0  0  0  0  0  0  0  0
   22.6928   -5.5079  -17.1177 C   0  0  0  0  0  0  0  0  0  0  0  0
   23.6953   -5.0482  -17.7044 O   0  0  0  0  0  0  0  0  0  0  0  0
   22.6081   -5.5442  -15.6430 C   0  0  0  0  0  0  0  0  0  0  0  0
   21.2580   -6.0751  -15.2504 C   0  0  0  0  0  0  0  0  0  0  0  0
   21.1331   -6.1831  -13.7282 C   0  0  2  0  0  0  0  0  0  0  0  0
   19.8124   -6.6703  -13.4103 N   0  0  0  0  0  0  0  0  0  0  0  0
   21.4015   -4.8717  -13.0914 C   0  0  0  0  0  0  0  0  0  0  0  0
   20.3442   -4.0262  -12.8146 O   0  0  0  0  0  0  0  0  0  0  0  0
   22.5768   -4.5325  -12.8063 O   0  0  0  0  0  0  0  0  0  0  0  0
  2  3  2  0
  2  1  1  0
  4  2  1  0
  5  6  1  0
  5  4  1  0
  6  7  1  1
  8  6  1  0
  8  9  2  0
 11 10  1  1
 11 12  1  0
 11 13  1  0
 12  8  1  0
 13 21  1  0
 14 13  2  0
 15 16  1  0
 16 17  2  0
 18 19  1  0
 18 16  1  0
 20 19  1  6
 20 22  1  0
 21 20  1  0
 22 24  2  0
 22 23  1  0
M  END
$$$$
