QAQ.pdb
     RDKit          3D

 24 23  0  0  1  0  0  0  0  0999 V2000
   12.2688  -12.7326   -9.8808 N   0  0  0  0  0  0  0  0  0  0  0  0
   11.2444  -11.7663   -9.7563 C   0  0  0  0  0  0  0  0  0  0  0  0
   10.3754  -11.9354   -8.8675 O   0  0  0  0  0  0  0  0  0  0  0  0
   11.1480  -10.5754  -10.6162 C   0  0  0  0  0  0  0  0  0  0  0  0
   12.3270  -10.3251  -11.4806 C   0  0  0  0  0  0  0  0  0  0  0  0
   12.1882  -10.6793  -12.9260 C   0  0  2  0  0  0  0  0  0  0  0  0
   12.3716  -12.1560  -12.9717 N   0  0  0  0  0  0  0  0  0  0  0  0
   13.2675  -10.1304  -13.7794 C   0  0  0  0  0  0  0  0  0  0  0  0
   14.4149  -10.6954  -13.8459 O   0  0  0  0  0  0  0  0  0  0  0  0
   13.7169   -7.6937  -16.6029 C   0  0  0  0  0  0  0  0  0  0  0  0
   14.2143   -8.5939  -15.4680 C   0  0  2  0  0  0  0  0  0  0  0  0
   13.1253   -8.9491  -14.5904 N   0  0  0  0  0  0  0  0  0  0  0  0
   15.2781   -7.8498  -14.7563 C   0  0  0  0  0  0  0  0  0  0  0  0
   14.9917   -7.1890  -13.6928 O   0  0  0  0  0  0  0  0  0  0  0  0
   21.2853   -8.9938  -14.6332 N   0  0  0  0  0  0  0  0  0  0  0  0
   21.3055   -7.7427  -13.9301 C   0  0  0  0  0  0  0  0  0  0  0  0
   22.3521   -7.3283  -13.3883 O   0  0  0  0  0  0  0  0  0  0  0  0
   20.0469   -6.9706  -13.8739 C   0  0  0  0  0  0  0  0  0  0  0  0
   18.9671   -7.7577  -14.5618 C   0  0  0  0  0  0  0  0  0  0  0  0
   17.6061   -7.0739  -14.4051 C   0  0  2  0  0  0  0  0  0  0  0  0
   16.6317   -7.8117  -15.1724 N   0  0  0  0  0  0  0  0  0  0  0  0
   17.6845   -5.6576  -14.8354 C   0  0  0  0  0  0  0  0  0  0  0  0
   18.0590   -4.6931  -13.9194 O   0  0  0  0  0  0  0  0  0  0  0  0
   17.4135   -5.3373  -16.0193 O   0  0  0  0  0  0  0  0  0  0  0  0
  2  3  2  0
  2  1  1  0
  4  2  1  0
  5  6  1  0
  5  4  1  0
  6  7  1  1
  8  6  1  0
  8  9  2  0
 11 10  1  6
 11 12  1  0
 11 13  1  0
 12  8  1  0
 13 21  1  0
 14 13  2  0
 15 16  1  0
 16 17  2  0
 18 19  1  0
 18 16  1  0
 20 19  1  6
 20 22  1  0
 21 20  1  0
 22 24  2  0
 22 23  1  0
M  END
$$$$
