QAQ.pdb
     RDKit          3D

 24 23  0  0  1  0  0  0  0  0999 V2000
   15.1923  -13.3713  -15.9972 N   0  0  0  0  0  0  0  0  0  0  0  0
   16.3046  -14.2371  -15.8892 C   0  0  0  0  0  0  0  0  0  0  0  0
   16.0920  -15.4447  -15.6241 O   0  0  0  0  0  0  0  0  0  0  0  0
   17.6959  -13.7921  -16.0718 C   0  0  0  0  0  0  0  0  0  0  0  0
   17.8595  -12.3566  -16.4075 C   0  0  0  0  0  0  0  0  0  0  0  0
   18.3836  -11.4688  -15.3255 C   0  0  2  0  0  0  0  0  0  0  0  0
   17.3005  -11.4385  -14.3046 N   0  0  0  0  0  0  0  0  0  0  0  0
   18.5571  -10.0586  -15.7450 C   0  0  0  0  0  0  0  0  0  0  0  0
   19.4307   -9.7280  -16.6211 O   0  0  0  0  0  0  0  0  0  0  0  0
   16.9758   -6.6568  -15.2640 C   0  0  0  0  0  0  0  0  0  0  0  0
   18.0688   -7.6360  -15.7023 C   0  0  2  0  0  0  0  0  0  0  0  0
   17.7779   -8.9657  -15.2232 N   0  0  0  0  0  0  0  0  0  0  0  0
   19.3515   -7.1242  -15.1687 C   0  0  0  0  0  0  0  0  0  0  0  0
   19.7341   -7.4661  -13.9912 O   0  0  0  0  0  0  0  0  0  0  0  0
   24.3385   -5.9298  -18.3752 N   0  0  0  0  0  0  0  0  0  0  0  0
   24.8711   -5.6847  -17.0652 C   0  0  0  0  0  0  0  0  0  0  0  0
   26.0935   -5.4901  -16.8959 O   0  0  0  0  0  0  0  0  0  0  0  0
   23.9213   -5.6720  -15.9333 C   0  0  0  0  0  0  0  0  0  0  0  0
   22.5498   -6.0029  -16.4508 C   0  0  0  0  0  0  0  0  0  0  0  0
   21.5055   -5.9086  -15.3350 C   0  0  2  0  0  0  0  0  0  0  0  0
   20.2172   -6.2592  -15.8824 N   0  0  0  0  0  0  0  0  0  0  0  0
   21.4986   -4.5490  -14.7445 C   0  0  0  0  0  0  0  0  0  0  0  0
   22.3612   -4.2599  -13.7044 O   0  0  0  0  0  0  0  0  0  0  0  0
   20.7175   -3.6692  -15.1844 O   0  0  0  0  0  0  0  0  0  0  0  0
  2  3  2  0
  2  1  1  0
  4  2  1  0
  5  6  1  0
  5  4  1  0
  6  7  1  1
  8  6  1  0
  8  9  2  0
 11 10  1  1
 11 12  1  0
 11 13  1  0
 12  8  1  0
 13 21  1  0
 14 13  2  0
 15 16  1  0
 16 17  2  0
 18 19  1  0
 18 16  1  0
 20 19  1  6
 20 22  1  0
 21 20  1  0
 22 24  2  0
 22 23  1  0
M  END
$$$$
