QAQ.pdb
     RDKit          3D

 24 23  0  0  1  0  0  0  0  0999 V2000
   23.7629  -20.4157   -9.1048 N   0  0  0  0  0  0  0  0  0  0  0  0
   24.9635  -20.3139   -8.3653 C   0  0  0  0  0  0  0  0  0  0  0  0
   24.9089  -20.4732   -7.1222 O   0  0  0  0  0  0  0  0  0  0  0  0
   26.2703  -20.0308   -8.9810 C   0  0  0  0  0  0  0  0  0  0  0  0
   26.2368  -19.7762  -10.4418 C   0  0  0  0  0  0  0  0  0  0  0  0
   25.7501  -20.8929  -11.3077 C   0  0  2  0  0  0  0  0  0  0  0  0
   26.7690  -21.9664  -11.1471 N   0  0  0  0  0  0  0  0  0  0  0  0
   25.7552  -20.5701  -12.7536 C   0  0  0  0  0  0  0  0  0  0  0  0
   25.1167  -19.5588  -13.2115 O   0  0  0  0  0  0  0  0  0  0  0  0
   27.3608  -21.6663  -15.9939 C   0  0  0  0  0  0  0  0  0  0  0  0
   26.3054  -20.9697  -15.1298 C   0  0  2  0  0  0  0  0  0  0  0  0
   26.4622  -21.3401  -13.7440 N   0  0  0  0  0  0  0  0  0  0  0  0
   24.9801  -21.3619  -15.6606 C   0  0  0  0  0  0  0  0  0  0  0  0
   24.5304  -22.5451  -15.4423 O   0  0  0  0  0  0  0  0  0  0  0  0
   19.7351  -17.9014  -15.9274 N   0  0  0  0  0  0  0  0  0  0  0  0
   20.3106  -18.9616  -15.1497 C   0  0  0  0  0  0  0  0  0  0  0  0
   19.6295  -19.5789  -14.3036 O   0  0  0  0  0  0  0  0  0  0  0  0
   21.7310  -19.2906  -15.3891 C   0  0  0  0  0  0  0  0  0  0  0  0
   21.8351  -20.7463  -15.7481 C   0  0  0  0  0  0  0  0  0  0  0  0
   22.8537  -20.9624  -16.8705 C   0  0  2  0  0  0  0  0  0  0  0  0
   24.1431  -20.5024  -16.4140 N   0  0  0  0  0  0  0  0  0  0  0  0
   22.4252  -20.2583  -18.1026 C   0  0  0  0  0  0  0  0  0  0  0  0
   23.1718  -19.1914  -18.5651 O   0  0  0  0  0  0  0  0  0  0  0  0
   21.3952  -20.6270  -18.7196 O   0  0  0  0  0  0  0  0  0  0  0  0
  2  3  2  0
  2  1  1  0
  4  2  1  0
  5  6  1  0
  5  4  1  0
  6  7  1  6
  8  6  1  0
  8  9  2  0
 11 10  1  6
 11 12  1  0
 11 13  1  0
 12  8  1  0
 13 21  1  0
 14 13  2  0
 15 16  1  0
 16 17  2  0
 18 19  1  0
 18 16  1  0
 20 19  1  1
 20 22  1  0
 21 20  1  0
 22 24  2  0
 22 23  1  0
M  END
$$$$
