QAQ.pdb
     RDKit          3D

 24 23  0  0  1  0  0  0  0  0999 V2000
   16.9733  -13.0673  -14.9223 N   0  0  0  0  0  0  0  0  0  0  0  0
   17.1928  -14.1106  -15.8507 C   0  0  0  0  0  0  0  0  0  0  0  0
   16.3349  -15.0222  -15.9313 O   0  0  0  0  0  0  0  0  0  0  0  0
   18.3756  -14.1793  -16.7245 C   0  0  0  0  0  0  0  0  0  0  0  0
   19.3066  -13.0297  -16.6163 C   0  0  0  0  0  0  0  0  0  0  0  0
   20.4975  -13.0419  -17.5193 C   0  0  2  0  0  0  0  0  0  0  0  0
   21.3320  -14.1725  -17.0277 N   0  0  0  0  0  0  0  0  0  0  0  0
   21.3569  -11.8426  -17.3868 C   0  0  0  0  0  0  0  0  0  0  0  0
   21.8962  -11.5313  -16.2677 O   0  0  0  0  0  0  0  0  0  0  0  0
   23.1385   -9.3120  -19.5263 C   0  0  0  0  0  0  0  0  0  0  0  0
   22.5475   -9.8418  -18.2164 C   0  0  2  0  0  0  0  0  0  0  0  0
   21.6576  -10.9480  -18.4744 N   0  0  0  0  0  0  0  0  0  0  0  0
   21.8492   -8.7106  -17.5647 C   0  0  0  0  0  0  0  0  0  0  0  0
   20.6096   -8.4934  -17.8213 O   0  0  0  0  0  0  0  0  0  0  0  0
   23.2755   -6.0631  -12.2308 N   0  0  0  0  0  0  0  0  0  0  0  0
   22.1521   -5.2389  -12.5753 C   0  0  0  0  0  0  0  0  0  0  0  0
   21.7259   -4.3719  -11.7833 O   0  0  0  0  0  0  0  0  0  0  0  0
   21.5249   -5.4563  -13.8955 C   0  0  0  0  0  0  0  0  0  0  0  0
   22.2418   -6.5793  -14.5909 C   0  0  0  0  0  0  0  0  0  0  0  0
   21.6866   -6.7934  -16.0016 C   0  0  2  0  0  0  0  0  0  0  0  0
   22.4647   -7.8220  -16.6490 N   0  0  0  0  0  0  0  0  0  0  0  0
   21.7111   -5.5242  -16.7670 C   0  0  0  0  0  0  0  0  0  0  0  0
   20.5948   -4.7098  -16.7603 O   0  0  0  0  0  0  0  0  0  0  0  0
   22.7350   -5.1924  -17.4145 O   0  0  0  0  0  0  0  0  0  0  0  0
  2  3  2  0
  2  1  1  0
  4  2  1  0
  5  6  1  0
  5  4  1  0
  6  7  1  1
  8  6  1  0
  8  9  2  0
 11 10  1  6
 11 12  1  0
 11 13  1  0
 12  8  1  0
 13 21  1  0
 14 13  2  0
 15 16  1  0
 16 17  2  0
 18 19  1  0
 18 16  1  0
 20 19  1  1
 20 22  1  0
 21 20  1  0
 22 24  2  0
 22 23  1  0
M  END
$$$$
