KWF.pdb
     RDKit          3D

 35 37  0  0  1  0  0  0  0  0999 V2000
    7.5168  -16.0495   20.0760 N   0  0  0  0  0  0  0  0  0  0  0  0
    8.2804  -14.8615   20.2274 C   0  0  1  0  0  0  0  0  0  0  0  0
    7.6463  -13.6213   19.8103 C   0  0  0  0  0  0  0  0  0  0  0  0
    7.5326  -13.1591   18.4303 C   0  0  0  0  0  0  0  0  0  0  0  0
    7.6145  -14.0033   17.2484 C   0  0  0  0  0  0  0  0  0  0  0  0
    7.4862  -13.4982   15.8756 C   0  0  0  0  0  0  0  0  0  0  0  0
    7.5864  -14.5019   14.8278 N   0  0  0  0  0  0  0  0  0  0  0  0
    8.8346  -14.8386   21.6158 C   0  0  0  0  0  0  0  0  0  0  0  0
    9.5357  -13.8767   22.0258 O   0  0  0  0  0  0  0  0  0  0  0  0
    8.6115  -15.8825   22.5500 N   0  0  0  0  0  0  0  0  0  0  0  0
    9.4512  -16.0416   23.7183 C   0  0  1  0  0  0  0  0  0  0  0  0
    8.4888  -16.4152   24.8338 C   0  0  0  0  0  0  0  0  0  0  0  0
    7.3254  -15.5354   24.9573 C   0  0  0  0  0  0  0  0  0  0  0  0
    5.9970  -15.9677   24.8212 C   0  0  0  0  0  0  0  0  0  0  0  0
    5.2359  -14.8972   25.0251 N   0  0  0  0  0  0  0  0  0  0  0  0
    5.9596  -13.7936   25.2846 C   0  0  0  0  0  0  0  0  0  0  0  0
    5.6073  -12.4732   25.5495 C   0  0  0  0  0  0  0  0  0  0  0  0
    6.6047  -11.5565   25.7710 C   0  0  0  0  0  0  0  0  0  0  0  0
    7.9330  -11.8972   25.7400 C   0  0  0  0  0  0  0  0  0  0  0  0
    8.2382  -13.2162   25.4742 C   0  0  0  0  0  0  0  0  0  0  0  0
    7.2895  -14.2020   25.2405 C   0  0  0  0  0  0  0  0  0  0  0  0
   10.6158  -16.8795   23.5774 C   0  0  0  0  0  0  0  0  0  0  0  0
   10.6166  -17.9964   22.9904 O   0  0  0  0  0  0  0  0  0  0  0  0
   11.8472  -16.3854   24.1460 N   0  0  0  0  0  0  0  0  0  0  0  0
   12.0490  -16.3290   25.5788 C   0  0  1  0  0  0  0  0  0  0  0  0
   10.7168  -15.7995   26.1353 C   0  0  0  0  0  0  0  0  0  0  0  0
   10.8049  -15.5891   27.5880 C   0  0  0  0  0  0  0  0  0  0  0  0
   10.7664  -16.7159   28.4078 C   0  0  0  0  0  0  0  0  0  0  0  0
   10.8529  -16.5325   29.7561 C   0  0  0  0  0  0  0  0  0  0  0  0
   10.9763  -15.2623   30.3055 C   0  0  0  0  0  0  0  0  0  0  0  0
   11.0135  -14.1520   29.4810 C   0  0  0  0  0  0  0  0  0  0  0  0
   10.9275  -14.3205   28.1211 C   0  0  0  0  0  0  0  0  0  0  0  0
   12.3484  -17.6622   26.1268 C   0  0  0  0  0  0  0  0  0  0  0  0
   13.2823  -17.7776   26.9571 O   0  0  0  0  0  0  0  0  0  0  0  0
   11.6593  -18.8146   25.7847 O   0  0  0  0  0  0  0  0  0  0  0  0
  2  1  1  1
  2  3  1  0
  3  4  1  0
  4  5  1  0
  5  6  1  0
  7  6  1  0
  8  2  1  0
  8  9  2  0
 10  8  1  0
 11 10  1  0
 11 12  1  1
 12 13  1  0
 13 21  1  0
 14 13  2  0
 14 15  1  0
 15 16  1  0
 16 17  1  0
 17 18  2  0
 19 18  1  0
 20 19  2  0
 21 16  2  0
 21 20  1  0
 22 11  1  0
 23 22  2  0
 24 22  1  0
 25 24  1  0
 25 26  1  1
 26 27  1  0
 27 28  2  0
 28 29  1  0
 30 29  2  0
 31 30  1  0
 32 27  1  0
 32 31  2  0
 33 25  1  0
 34 33  2  0
 35 33  1  0
M  END
$$$$
