KWF.pdb
     RDKit          3D

 35 37  0  0  1  0  0  0  0  0999 V2000
    8.3706  -19.0125   20.8470 N   0  0  0  0  0  0  0  0  0  0  0  0
    9.5648  -18.5197   20.2569 C   0  0  1  0  0  0  0  0  0  0  0  0
    9.5495  -18.3296   18.8155 C   0  0  0  0  0  0  0  0  0  0  0  0
    8.8694  -19.1998   17.8609 C   0  0  0  0  0  0  0  0  0  0  0  0
    9.4639  -19.7583   16.6563 C   0  0  0  0  0  0  0  0  0  0  0  0
    8.7182  -20.5536   15.6727 C   0  0  0  0  0  0  0  0  0  0  0  0
    9.5059  -21.0864   14.5723 N   0  0  0  0  0  0  0  0  0  0  0  0
   10.0092  -17.3233   21.0358 C   0  0  0  0  0  0  0  0  0  0  0  0
   11.1131  -16.7639   20.8049 O   0  0  0  0  0  0  0  0  0  0  0  0
    9.2292  -16.7468   22.0709 N   0  0  0  0  0  0  0  0  0  0  0  0
    9.6027  -15.4910   22.6868 C   0  0  1  0  0  0  0  0  0  0  0  0
    8.3223  -14.6722   22.6940 C   0  0  0  0  0  0  0  0  0  0  0  0
    7.6426  -14.6122   23.9890 C   0  0  0  0  0  0  0  0  0  0  0  0
    7.1793  -15.7398   24.6847 C   0  0  0  0  0  0  0  0  0  0  0  0
    6.6500  -15.2857   25.8163 N   0  0  0  0  0  0  0  0  0  0  0  0
    6.7282  -13.9471   25.9198 C   0  0  0  0  0  0  0  0  0  0  0  0
    6.3132  -13.0491   26.8992 C   0  0  0  0  0  0  0  0  0  0  0  0
    6.5363  -11.7091   26.7021 C   0  0  0  0  0  0  0  0  0  0  0  0
    7.1527  -11.2268   25.5757 C   0  0  0  0  0  0  0  0  0  0  0  0
    7.5483  -12.1508   24.6305 C   0  0  0  0  0  0  0  0  0  0  0  0
    7.3600  -13.5203   24.7553 C   0  0  0  0  0  0  0  0  0  0  0  0
   10.3176  -15.5627   23.9366 C   0  0  0  0  0  0  0  0  0  0  0  0
   10.9551  -14.5987   24.4429 O   0  0  0  0  0  0  0  0  0  0  0  0
   10.2816  -16.8244   24.6369 N   0  0  0  0  0  0  0  0  0  0  0  0
   11.2558  -17.1504   25.6574 C   0  0  1  0  0  0  0  0  0  0  0  0
   10.4179  -17.4200   26.9185 C   0  0  0  0  0  0  0  0  0  0  0  0
   10.0160  -16.1581   27.5576 C   0  0  0  0  0  0  0  0  0  0  0  0
   10.9649  -15.4968   28.3358 C   0  0  0  0  0  0  0  0  0  0  0  0
   10.6044  -14.3230   28.9284 C   0  0  0  0  0  0  0  0  0  0  0  0
    9.3298  -13.7940   28.7664 C   0  0  0  0  0  0  0  0  0  0  0  0
    8.3973  -14.4599   27.9913 C   0  0  0  0  0  0  0  0  0  0  0  0
    8.7453  -15.6431   27.3880 C   0  0  0  0  0  0  0  0  0  0  0  0
   12.0359  -18.3426   25.2867 C   0  0  0  0  0  0  0  0  0  0  0  0
   12.9728  -18.7083   26.0374 O   0  0  0  0  0  0  0  0  0  0  0  0
   11.8027  -19.1002   24.1503 O   0  0  0  0  0  0  0  0  0  0  0  0
  2  1  1  1
  2  3  1  0
  3  4  1  0
  4  5  1  0
  5  6  1  0
  7  6  1  0
  8  2  1  0
  8  9  2  0
 10  8  1  0
 11 10  1  0
 11 12  1  1
 12 13  1  0
 13 21  1  0
 14 13  2  0
 14 15  1  0
 15 16  1  0
 16 17  1  0
 17 18  2  0
 19 18  1  0
 20 19  2  0
 21 16  2  0
 21 20  1  0
 22 11  1  0
 23 22  2  0
 24 22  1  0
 25 24  1  0
 25 26  1  1
 26 27  1  0
 27 28  2  0
 28 29  1  0
 30 29  2  0
 31 30  1  0
 32 27  1  0
 32 31  2  0
 33 25  1  0
 34 33  2  0
 35 33  1  0
M  END
$$$$
