KWF.pdb
     RDKit          3D

 35 37  0  0  1  0  0  0  0  0999 V2000
    9.7118  -19.2169   19.9711 N   0  0  0  0  0  0  0  0  0  0  0  0
   10.5126  -18.0690   19.7299 C   0  0  1  0  0  0  0  0  0  0  0  0
   10.3188  -17.3948   18.4563 C   0  0  0  0  0  0  0  0  0  0  0  0
   10.3630  -18.0417   17.1485 C   0  0  0  0  0  0  0  0  0  0  0  0
   11.5557  -18.5823   16.5146 C   0  0  0  0  0  0  0  0  0  0  0  0
   11.5933  -19.0686   15.1295 C   0  0  0  0  0  0  0  0  0  0  0  0
   12.2642  -18.1964   14.1784 N   0  0  0  0  0  0  0  0  0  0  0  0
   10.4177  -17.1761   20.9253 C   0  0  0  0  0  0  0  0  0  0  0  0
   11.0173  -16.0699   20.9663 O   0  0  0  0  0  0  0  0  0  0  0  0
    9.6576  -17.5096   22.0756 N   0  0  0  0  0  0  0  0  0  0  0  0
    9.7180  -16.7066   23.2786 C   0  0  1  0  0  0  0  0  0  0  0  0
    8.2942  -16.7063   23.8107 C   0  0  0  0  0  0  0  0  0  0  0  0
    7.4704  -15.5870   23.3512 C   0  0  0  0  0  0  0  0  0  0  0  0
    6.1669  -15.3337   23.8062 C   0  0  0  0  0  0  0  0  0  0  0  0
    5.7651  -14.2297   23.1844 N   0  0  0  0  0  0  0  0  0  0  0  0
    6.7021  -13.7365   22.3552 C   0  0  0  0  0  0  0  0  0  0  0  0
    6.7293  -12.6294   21.5117 C   0  0  0  0  0  0  0  0  0  0  0  0
    7.8597  -12.3939   20.7694 C   0  0  0  0  0  0  0  0  0  0  0  0
    8.9599  -13.2106   20.8308 C   0  0  0  0  0  0  0  0  0  0  0  0
    8.8910  -14.2963   21.6794 C   0  0  0  0  0  0  0  0  0  0  0  0
    7.7867  -14.6023   22.4625 C   0  0  0  0  0  0  0  0  0  0  0  0
   10.7513  -17.0308   24.2301 C   0  0  0  0  0  0  0  0  0  0  0  0
   11.4098  -18.1071   24.2198 O   0  0  0  0  0  0  0  0  0  0  0  0
   11.0365  -16.0441   25.2444 N   0  0  0  0  0  0  0  0  0  0  0  0
   11.0897  -16.3965   26.6479 C   0  0  1  0  0  0  0  0  0  0  0  0
    9.6187  -16.4188   27.0959 C   0  0  0  0  0  0  0  0  0  0  0  0
    9.1036  -15.0517   27.2639 C   0  0  0  0  0  0  0  0  0  0  0  0
    9.8942  -14.1452   27.9684 C   0  0  0  0  0  0  0  0  0  0  0  0
    9.4285  -12.8734   28.1252 C   0  0  0  0  0  0  0  0  0  0  0  0
    8.2021  -12.4837   27.6010 C   0  0  0  0  0  0  0  0  0  0  0  0
    7.4270  -13.3930   26.9036 C   0  0  0  0  0  0  0  0  0  0  0  0
    7.8825  -14.6775   26.7372 C   0  0  0  0  0  0  0  0  0  0  0  0
   11.7125  -17.7163   26.8418 C   0  0  0  0  0  0  0  0  0  0  0  0
   12.8280  -17.7791   27.4133 O   0  0  0  0  0  0  0  0  0  0  0  0
   11.1430  -18.9110   26.4318 O   0  0  0  0  0  0  0  0  0  0  0  0
  2  1  1  1
  2  3  1  0
  3  4  1  0
  4  5  1  0
  5  6  1  0
  7  6  1  0
  8  2  1  0
  8  9  2  0
 10  8  1  0
 11 10  1  0
 11 12  1  1
 12 13  1  0
 13 21  1  0
 14 13  2  0
 14 15  1  0
 15 16  1  0
 16 17  1  0
 17 18  2  0
 19 18  1  0
 20 19  2  0
 21 16  2  0
 21 20  1  0
 22 11  1  0
 23 22  2  0
 24 22  1  0
 25 24  1  0
 25 26  1  6
 26 27  1  0
 27 28  2  0
 28 29  1  0
 30 29  2  0
 31 30  1  0
 32 27  1  0
 32 31  2  0
 33 25  1  0
 34 33  2  0
 35 33  1  0
M  END
$$$$
