KWF.pdb
     RDKit          3D

 35 37  0  0  1  0  0  0  0  0999 V2000
    8.5525  -16.2257   18.7239 N   0  0  0  0  0  0  0  0  0  0  0  0
    9.0499  -14.9749   19.1772 C   0  0  1  0  0  0  0  0  0  0  0  0
    8.4224  -13.7850   18.6255 C   0  0  0  0  0  0  0  0  0  0  0  0
    7.6550  -13.7390   17.3846 C   0  0  0  0  0  0  0  0  0  0  0  0
    8.2118  -13.8376   16.0442 C   0  0  0  0  0  0  0  0  0  0  0  0
    7.4124  -13.7158   14.8185 C   0  0  0  0  0  0  0  0  0  0  0  0
    7.3563  -12.3834   14.2381 N   0  0  0  0  0  0  0  0  0  0  0  0
    9.1066  -15.0107   20.6708 C   0  0  0  0  0  0  0  0  0  0  0  0
    9.4642  -14.0043   21.3374 O   0  0  0  0  0  0  0  0  0  0  0  0
    8.7665  -16.1625   21.4258 N   0  0  0  0  0  0  0  0  0  0  0  0
    8.8675  -16.1749   22.8698 C   0  0  1  0  0  0  0  0  0  0  0  0
    7.5125  -16.6740   23.3442 C   0  0  0  0  0  0  0  0  0  0  0  0
    6.9342  -15.9119   24.4521 C   0  0  0  0  0  0  0  0  0  0  0  0
    6.3032  -16.4964   25.5613 C   0  0  0  0  0  0  0  0  0  0  0  0
    5.9389  -15.4923   26.3524 N   0  0  0  0  0  0  0  0  0  0  0  0
    6.2804  -14.2922   25.8505 C   0  0  0  0  0  0  0  0  0  0  0  0
    6.1048  -12.9904   26.3114 C   0  0  0  0  0  0  0  0  0  0  0  0
    6.5709  -11.9512   25.5451 C   0  0  0  0  0  0  0  0  0  0  0  0
    7.2019  -12.1522   24.3439 C   0  0  0  0  0  0  0  0  0  0  0  0
    7.3554  -13.4576   23.9245 C   0  0  0  0  0  0  0  0  0  0  0  0
    6.9134  -14.5615   24.6405 C   0  0  0  0  0  0  0  0  0  0  0  0
   10.0196  -16.8281   23.4392 C   0  0  0  0  0  0  0  0  0  0  0  0
   10.8241  -17.5437   22.7810 O   0  0  0  0  0  0  0  0  0  0  0  0
   10.2498  -16.6311   24.8505 N   0  0  0  0  0  0  0  0  0  0  0  0
   11.3435  -17.2867   25.5367 C   0  0  1  0  0  0  0  0  0  0  0  0
   10.9580  -17.2248   27.0241 C   0  0  0  0  0  0  0  0  0  0  0  0
   10.7955  -15.8309   27.4636 C   0  0  0  0  0  0  0  0  0  0  0  0
   10.3870  -15.6112   28.7782 C   0  0  0  0  0  0  0  0  0  0  0  0
   10.2386  -14.3225   29.1977 C   0  0  0  0  0  0  0  0  0  0  0  0
   10.4854  -13.2529   28.3458 C   0  0  0  0  0  0  0  0  0  0  0  0
   10.8905  -13.4844   27.0435 C   0  0  0  0  0  0  0  0  0  0  0  0
   11.0446  -14.7767   26.6062 C   0  0  0  0  0  0  0  0  0  0  0  0
   11.4879  -18.6835   25.0945 C   0  0  0  0  0  0  0  0  0  0  0  0
   10.5359  -19.2238   24.4808 O   0  0  0  0  0  0  0  0  0  0  0  0
   12.6195  -19.4531   25.3114 O   0  0  0  0  0  0  0  0  0  0  0  0
  2  1  1  1
  2  3  1  0
  3  4  1  0
  4  5  1  0
  5  6  1  0
  7  6  1  0
  8  2  1  0
  8  9  2  0
 10  8  1  0
 11 10  1  0
 11 12  1  1
 12 13  1  0
 13 21  1  0
 14 13  2  0
 14 15  1  0
 15 16  1  0
 16 17  1  0
 17 18  2  0
 19 18  1  0
 20 19  2  0
 21 16  2  0
 21 20  1  0
 22 11  1  0
 23 22  2  0
 24 22  1  0
 25 24  1  0
 25 26  1  1
 26 27  1  0
 27 28  2  0
 28 29  1  0
 30 29  2  0
 31 30  1  0
 32 27  1  0
 32 31  2  0
 33 25  1  0
 34 33  2  0
 35 33  1  0
M  END
$$$$
