KWF.pdb
     RDKit          3D

 35 37  0  0  1  0  0  0  0  0999 V2000
    7.9959  -16.0271   19.8156 N   0  0  0  0  0  0  0  0  0  0  0  0
    8.7831  -14.8658   20.0373 C   0  0  1  0  0  0  0  0  0  0  0  0
    8.2488  -13.6103   19.5349 C   0  0  0  0  0  0  0  0  0  0  0  0
    7.8759  -13.3518   18.1475 C   0  0  0  0  0  0  0  0  0  0  0  0
    8.4895  -13.9665   16.9804 C   0  0  0  0  0  0  0  0  0  0  0  0
    8.0279  -13.7437   15.6044 C   0  0  0  0  0  0  0  0  0  0  0  0
    8.7024  -14.5295   14.5832 N   0  0  0  0  0  0  0  0  0  0  0  0
    9.1774  -14.8395   21.4793 C   0  0  0  0  0  0  0  0  0  0  0  0
    9.9188  -13.9322   21.9395 O   0  0  0  0  0  0  0  0  0  0  0  0
    8.7494  -15.8195   22.4113 N   0  0  0  0  0  0  0  0  0  0  0  0
    9.2461  -15.8352   23.7710 C   0  0  1  0  0  0  0  0  0  0  0  0
    8.1057  -16.4195   24.5886 C   0  0  0  0  0  0  0  0  0  0  0  0
    7.1461  -15.4344   25.0901 C   0  0  0  0  0  0  0  0  0  0  0  0
    5.9977  -15.7629   25.8272 C   0  0  0  0  0  0  0  0  0  0  0  0
    5.4032  -14.6107   26.1205 N   0  0  0  0  0  0  0  0  0  0  0  0
    6.0704  -13.5493   25.6337 C   0  0  0  0  0  0  0  0  0  0  0  0
    5.8317  -12.1788   25.6840 C   0  0  0  0  0  0  0  0  0  0  0  0
    6.7185  -11.3321   25.0667 C   0  0  0  0  0  0  0  0  0  0  0  0
    7.8285  -11.7900   24.4039 C   0  0  0  0  0  0  0  0  0  0  0  0
    8.0275  -13.1551   24.3783 C   0  0  0  0  0  0  0  0  0  0  0  0
    7.1793  -14.0759   24.9776 C   0  0  0  0  0  0  0  0  0  0  0  0
   10.5460  -16.4203   23.9857 C   0  0  0  0  0  0  0  0  0  0  0  0
   11.2447  -16.9445   23.0750 O   0  0  0  0  0  0  0  0  0  0  0  0
   11.0617  -16.3866   25.3334 N   0  0  0  0  0  0  0  0  0  0  0  0
   12.2477  -17.1285   25.7076 C   0  0  1  0  0  0  0  0  0  0  0  0
   12.5523  -16.6701   27.1436 C   0  0  0  0  0  0  0  0  0  0  0  0
   11.4027  -15.9556   27.7183 C   0  0  0  0  0  0  0  0  0  0  0  0
   11.0363  -14.7444   27.1333 C   0  0  0  0  0  0  0  0  0  0  0  0
    9.9684  -14.0764   27.6548 C   0  0  0  0  0  0  0  0  0  0  0  0
    9.2598  -14.5813   28.7382 C   0  0  0  0  0  0  0  0  0  0  0  0
    9.6334  -15.7845   29.3096 C   0  0  0  0  0  0  0  0  0  0  0  0
   10.7068  -16.4691   28.7956 C   0  0  0  0  0  0  0  0  0  0  0  0
   12.0027  -18.5795   25.6658 C   0  0  0  0  0  0  0  0  0  0  0  0
   12.9488  -19.3593   25.9338 O   0  0  0  0  0  0  0  0  0  0  0  0
   10.7815  -19.1517   25.3476 O   0  0  0  0  0  0  0  0  0  0  0  0
  2  1  1  1
  2  3  1  0
  3  4  1  0
  4  5  1  0
  5  6  1  0
  7  6  1  0
  8  2  1  0
  8  9  2  0
 10  8  1  0
 11 10  1  0
 11 12  1  1
 12 13  1  0
 13 21  1  0
 14 13  2  0
 14 15  1  0
 15 16  1  0
 16 17  1  0
 17 18  2  0
 19 18  1  0
 20 19  2  0
 21 16  2  0
 21 20  1  0
 22 11  1  0
 23 22  2  0
 24 22  1  0
 25 24  1  0
 25 26  1  1
 26 27  1  0
 27 28  2  0
 28 29  1  0
 30 29  2  0
 31 30  1  0
 32 27  1  0
 32 31  2  0
 33 25  1  0
 34 33  2  0
 35 33  1  0
M  END
$$$$
