KWF.pdb
     RDKit          3D

 35 37  0  0  1  0  0  0  0  0999 V2000
    8.0843  -16.1503   19.1152 N   0  0  0  0  0  0  0  0  0  0  0  0
    8.7217  -14.9208   19.4305 C   0  0  1  0  0  0  0  0  0  0  0  0
    8.0994  -13.7126   18.9138 C   0  0  0  0  0  0  0  0  0  0  0  0
    7.8432  -13.4372   17.5034 C   0  0  0  0  0  0  0  0  0  0  0  0
    7.7490  -14.4382   16.4519 C   0  0  0  0  0  0  0  0  0  0  0  0
    7.4861  -14.1182   15.0432 C   0  0  0  0  0  0  0  0  0  0  0  0
    8.6643  -13.8691   14.2277 N   0  0  0  0  0  0  0  0  0  0  0  0
    8.9906  -14.9000   20.9011 C   0  0  0  0  0  0  0  0  0  0  0  0
    9.5604  -13.9204   21.4494 O   0  0  0  0  0  0  0  0  0  0  0  0
    8.6276  -15.9656   21.7642 N   0  0  0  0  0  0  0  0  0  0  0  0
    8.8697  -15.8977   23.1898 C   0  0  1  0  0  0  0  0  0  0  0  0
    7.6380  -16.5288   23.8180 C   0  0  0  0  0  0  0  0  0  0  0  0
    6.7971  -15.6027   24.5781 C   0  0  0  0  0  0  0  0  0  0  0  0
    5.7245  -16.0032   25.3902 C   0  0  0  0  0  0  0  0  0  0  0  0
    5.2311  -14.8920   25.9274 N   0  0  0  0  0  0  0  0  0  0  0  0
    5.8948  -13.7910   25.5321 C   0  0  0  0  0  0  0  0  0  0  0  0
    5.7382  -12.4384   25.8215 C   0  0  0  0  0  0  0  0  0  0  0  0
    6.5931  -11.5363   25.2386 C   0  0  0  0  0  0  0  0  0  0  0  0
    7.5933  -11.9221   24.3831 C   0  0  0  0  0  0  0  0  0  0  0  0
    7.7136  -13.2719   24.1237 C   0  0  0  0  0  0  0  0  0  0  0  0
    6.8909  -14.2456   24.6729 C   0  0  0  0  0  0  0  0  0  0  0  0
   10.1425  -16.3839   23.6609 C   0  0  0  0  0  0  0  0  0  0  0  0
   11.0877  -16.7394   22.9043 O   0  0  0  0  0  0  0  0  0  0  0  0
   10.3253  -16.4531   25.0911 N   0  0  0  0  0  0  0  0  0  0  0  0
   11.5620  -16.9317   25.6726 C   0  0  1  0  0  0  0  0  0  0  0  0
   11.2488  -17.0885   27.1700 C   0  0  0  0  0  0  0  0  0  0  0  0
   10.7018  -15.8402   27.7223 C   0  0  0  0  0  0  0  0  0  0  0  0
   11.3020  -14.6437   27.3333 C   0  0  0  0  0  0  0  0  0  0  0  0
   10.7991  -13.4800   27.8350 C   0  0  0  0  0  0  0  0  0  0  0  0
    9.7194  -13.4778   28.7096 C   0  0  0  0  0  0  0  0  0  0  0  0
    9.1324  -14.6721   29.0878 C   0  0  0  0  0  0  0  0  0  0  0  0
    9.6275  -15.8523   28.5908 C   0  0  0  0  0  0  0  0  0  0  0  0
   11.9610  -18.2221   25.0869 C   0  0  0  0  0  0  0  0  0  0  0  0
   11.1160  -18.8706   24.4232 O   0  0  0  0  0  0  0  0  0  0  0  0
   13.2237  -18.7771   25.2188 O   0  0  0  0  0  0  0  0  0  0  0  0
  2  1  1  1
  2  3  1  0
  3  4  1  0
  4  5  1  0
  5  6  1  0
  7  6  1  0
  8  2  1  0
  8  9  2  0
 10  8  1  0
 11 10  1  0
 11 12  1  1
 12 13  1  0
 13 21  1  0
 14 13  2  0
 14 15  1  0
 15 16  1  0
 16 17  1  0
 17 18  2  0
 19 18  1  0
 20 19  2  0
 21 16  2  0
 21 20  1  0
 22 11  1  0
 23 22  2  0
 24 22  1  0
 25 24  1  0
 25 26  1  1
 26 27  1  0
 27 28  2  0
 28 29  1  0
 30 29  2  0
 31 30  1  0
 32 27  1  0
 32 31  2  0
 33 25  1  0
 34 33  2  0
 35 33  1  0
M  END
$$$$
