KWF.pdb
     RDKit          3D

 35 37  0  0  1  0  0  0  0  0999 V2000
    8.5567  -16.3932   18.4921 N   0  0  0  0  0  0  0  0  0  0  0  0
    9.3039  -15.2114   18.7419 C   0  0  1  0  0  0  0  0  0  0  0  0
    8.9175  -14.0256   17.9944 C   0  0  0  0  0  0  0  0  0  0  0  0
    9.0450  -13.8655   16.5491 C   0  0  0  0  0  0  0  0  0  0  0  0
    7.9591  -13.9835   15.5882 C   0  0  0  0  0  0  0  0  0  0  0  0
    8.1203  -13.7648   14.1452 C   0  0  0  0  0  0  0  0  0  0  0  0
    9.4862  -13.8356   13.6505 N   0  0  0  0  0  0  0  0  0  0  0  0
    9.3813  -15.0141   20.2219 C   0  0  0  0  0  0  0  0  0  0  0  0
   10.0725  -14.0898   20.7246 O   0  0  0  0  0  0  0  0  0  0  0  0
    8.6919  -15.8417   21.1449 N   0  0  0  0  0  0  0  0  0  0  0  0
    8.9502  -15.7638   22.5672 C   0  0  1  0  0  0  0  0  0  0  0  0
    7.7722  -16.4771   23.2101 C   0  0  0  0  0  0  0  0  0  0  0  0
    7.0623  -15.6941   24.2229 C   0  0  0  0  0  0  0  0  0  0  0  0
    6.2556  -16.2553   25.2250 C   0  0  0  0  0  0  0  0  0  0  0  0
    5.8120  -15.2381   25.9569 N   0  0  0  0  0  0  0  0  0  0  0  0
    6.2635  -14.0510   25.5145 C   0  0  0  0  0  0  0  0  0  0  0  0
    6.0651  -12.7432   25.9485 C   0  0  0  0  0  0  0  0  0  0  0  0
    6.6734  -11.7216   25.2625 C   0  0  0  0  0  0  0  0  0  0  0  0
    7.4676  -11.9457   24.1670 C   0  0  0  0  0  0  0  0  0  0  0  0
    7.6379  -13.2562   23.7707 C   0  0  0  0  0  0  0  0  0  0  0  0
    7.0588  -14.3435   24.4103 C   0  0  0  0  0  0  0  0  0  0  0  0
   10.2591  -16.1671   23.0171 C   0  0  0  0  0  0  0  0  0  0  0  0
   11.3391  -15.7134   22.5480 O   0  0  0  0  0  0  0  0  0  0  0  0
   10.3114  -17.1472   24.0755 N   0  0  0  0  0  0  0  0  0  0  0  0
   10.7236  -16.7898   25.4169 C   0  0  1  0  0  0  0  0  0  0  0  0
    9.6357  -15.8208   25.9093 C   0  0  0  0  0  0  0  0  0  0  0  0
    9.9890  -15.2638   27.2236 C   0  0  0  0  0  0  0  0  0  0  0  0
   10.1592  -13.8833   27.3159 C   0  0  0  0  0  0  0  0  0  0  0  0
   10.4814  -13.3558   28.5311 C   0  0  0  0  0  0  0  0  0  0  0  0
   10.6376  -14.1638   29.6506 C   0  0  0  0  0  0  0  0  0  0  0  0
   10.4658  -15.5326   29.5457 C   0  0  0  0  0  0  0  0  0  0  0  0
   10.1410  -16.0788   28.3287 C   0  0  0  0  0  0  0  0  0  0  0  0
   10.7950  -17.9764   26.2854 C   0  0  0  0  0  0  0  0  0  0  0  0
   11.7915  -18.1164   27.0352 O   0  0  0  0  0  0  0  0  0  0  0  0
    9.8231  -18.9628   26.3333 O   0  0  0  0  0  0  0  0  0  0  0  0
  2  1  1  1
  2  3  1  0
  3  4  1  0
  4  5  1  0
  5  6  1  0
  7  6  1  0
  8  2  1  0
  8  9  2  0
 10  8  1  0
 11 10  1  0
 11 12  1  1
 12 13  1  0
 13 21  1  0
 14 13  2  0
 14 15  1  0
 15 16  1  0
 16 17  1  0
 17 18  2  0
 19 18  1  0
 20 19  2  0
 21 16  2  0
 21 20  1  0
 22 11  1  0
 23 22  2  0
 24 22  1  0
 25 24  1  0
 25 26  1  1
 26 27  1  0
 27 28  2  0
 28 29  1  0
 30 29  2  0
 31 30  1  0
 32 27  1  0
 32 31  2  0
 33 25  1  0
 34 33  2  0
 35 33  1  0
M  END
$$$$
