QNV.pdb
     RDKit          3D

 25 24  0  0  1  0  0  0  0  0999 V2000
    7.9133  -12.4482   18.0930 N   0  0  0  0  0  0  0  0  0  0  0  0
    7.9635  -13.5428   17.1908 C   0  0  0  0  0  0  0  0  0  0  0  0
    8.2771  -13.3445   15.9956 O   0  0  0  0  0  0  0  0  0  0  0  0
    7.6448  -14.8833   17.6867 C   0  0  0  0  0  0  0  0  0  0  0  0
    7.2656  -14.8872   19.1521 C   0  0  0  0  0  0  0  0  0  0  0  0
    8.5076  -14.8569   20.0272 C   0  0  2  0  0  0  0  0  0  0  0  0
    9.4512  -15.7883   19.4398 N   0  0  0  0  0  0  0  0  0  0  0  0
    8.2303  -15.2428   21.4102 C   0  0  0  0  0  0  0  0  0  0  0  0
    7.1420  -14.8702   21.9701 O   0  0  0  0  0  0  0  0  0  0  0  0
   10.4626  -19.3976   22.4422 N   0  0  0  0  0  0  0  0  0  0  0  0
    9.4147  -18.7914   23.1624 C   0  0  0  0  0  0  0  0  0  0  0  0
    8.2770  -19.2927   23.1329 O   0  0  0  0  0  0  0  0  0  0  0  0
    9.6625  -17.5712   23.9464 C   0  0  0  0  0  0  0  0  0  0  0  0
    8.7613  -16.4188   23.5811 C   0  0  2  0  0  0  0  0  0  0  0  0
    9.0870  -16.0229   22.2254 N   0  0  0  0  0  0  0  0  0  0  0  0
    9.0402  -15.3252   24.5498 C   0  0  0  0  0  0  0  0  0  0  0  0
   10.2138  -14.8952   24.6217 O   0  0  0  0  0  0  0  0  0  0  0  0
    7.1673  -11.9142   25.0991 C   0  0  0  0  0  0  0  0  0  0  0  0
    7.4113  -12.6113   26.4102 C   0  0  1  0  0  0  0  0  0  0  0  0
    6.1771  -13.1759   27.0323 C   0  0  0  0  0  0  0  0  0  0  0  0
    8.4539  -13.7014   26.3053 C   0  0  2  0  0  0  0  0  0  0  0  0
    8.0646  -14.7454   25.3897 N   0  0  0  0  0  0  0  0  0  0  0  0
    8.7416  -14.2995   27.6340 C   0  0  0  0  0  0  0  0  0  0  0  0
    9.2771  -13.5395   28.6683 O   0  0  0  0  0  0  0  0  0  0  0  0
    8.5204  -15.5177   27.9015 O   0  0  0  0  0  0  0  0  0  0  0  0
  2  1  1  0
  3  2  2  0
  4  2  1  0
  5  4  1  0
  6  5  1  0
  6  7  1  6
  8 15  1  0
  8  6  1  0
  9  8  2  0
 10 11  1  0
 11 13  1  0
 12 11  2  0
 14 13  1  1
 14 15  1  0
 16 14  1  0
 17 16  2  0
 19 18  1  6
 19 21  1  0
 19 20  1  0
 21 23  1  0
 21 22  1  6
 22 16  1  0
 23 24  1  0
 25 23  2  0
M  END
$$$$
