QNV.pdb
     RDKit          3D

 25 24  0  0  1  0  0  0  0  0999 V2000
    8.7547  -15.6299   15.8758 N   0  0  0  0  0  0  0  0  0  0  0  0
    8.3951  -14.4667   16.6055 C   0  0  0  0  0  0  0  0  0  0  0  0
    9.0373  -13.4064   16.4336 O   0  0  0  0  0  0  0  0  0  0  0  0
    7.2749  -14.5398   17.5458 C   0  0  0  0  0  0  0  0  0  0  0  0
    7.4066  -13.5534   18.6863 C   0  0  0  0  0  0  0  0  0  0  0  0
    8.4469  -14.0275   19.6875 C   0  0  2  0  0  0  0  0  0  0  0  0
    9.0384  -15.2297   19.1326 N   0  0  0  0  0  0  0  0  0  0  0  0
    7.8714  -14.3218   20.9993 C   0  0  0  0  0  0  0  0  0  0  0  0
    7.2344  -13.4122   21.6347 O   0  0  0  0  0  0  0  0  0  0  0  0
    5.5289  -17.9117   24.6550 N   0  0  0  0  0  0  0  0  0  0  0  0
    6.9194  -17.7343   24.5153 C   0  0  0  0  0  0  0  0  0  0  0  0
    7.6665  -17.9367   25.4887 O   0  0  0  0  0  0  0  0  0  0  0  0
    7.4872  -17.3117   23.2255 C   0  0  0  0  0  0  0  0  0  0  0  0
    7.3379  -15.8372   22.9478 C   0  0  2  0  0  0  0  0  0  0  0  0
    7.9544  -15.5704   21.6635 N   0  0  0  0  0  0  0  0  0  0  0  0
    8.0337  -15.1155   24.0465 C   0  0  0  0  0  0  0  0  0  0  0  0
    9.2828  -15.0452   23.9986 O   0  0  0  0  0  0  0  0  0  0  0  0
    7.1675  -11.5411   25.6355 C   0  0  0  0  0  0  0  0  0  0  0  0
    7.4155  -12.5983   26.6772 C   0  0  1  0  0  0  0  0  0  0  0  0
    6.1789  -13.0600   27.3748 C   0  0  0  0  0  0  0  0  0  0  0  0
    8.1482  -13.8001   26.1247 C   0  0  2  0  0  0  0  0  0  0  0  0
    7.3726  -14.5074   25.1358 N   0  0  0  0  0  0  0  0  0  0  0  0
    8.5319  -14.7405   27.2083 C   0  0  0  0  0  0  0  0  0  0  0  0
    9.4581  -14.3823   28.1820 O   0  0  0  0  0  0  0  0  0  0  0  0
    8.0472  -15.9064   27.3099 O   0  0  0  0  0  0  0  0  0  0  0  0
  2  1  1  0
  3  2  2  0
  4  2  1  0
  5  4  1  0
  6  5  1  0
  6  7  1  6
  8 15  1  0
  8  6  1  0
  9  8  2  0
 10 11  1  0
 11 13  1  0
 12 11  2  0
 14 13  1  1
 14 15  1  0
 16 14  1  0
 17 16  2  0
 19 18  1  6
 19 21  1  0
 19 20  1  0
 21 23  1  0
 21 22  1  6
 22 16  1  0
 23 24  1  0
 25 23  2  0
M  END
$$$$
