QNV.pdb
     RDKit          3D

 25 24  0  0  1  0  0  0  0  0999 V2000
    8.5201  -12.6668   17.9187 N   0  0  0  0  0  0  0  0  0  0  0  0
    8.1814  -13.8659   17.2388 C   0  0  0  0  0  0  0  0  0  0  0  0
    8.4857  -13.9990   16.0322 O   0  0  0  0  0  0  0  0  0  0  0  0
    7.4805  -14.9214   17.9729 C   0  0  0  0  0  0  0  0  0  0  0  0
    7.1875  -14.5371   19.4074 C   0  0  0  0  0  0  0  0  0  0  0  0
    8.1656  -15.2131   20.3538 C   0  0  2  0  0  0  0  0  0  0  0  0
    8.4695  -16.5094   19.7791 N   0  0  0  0  0  0  0  0  0  0  0  0
    7.6179  -15.3864   21.6986 C   0  0  0  0  0  0  0  0  0  0  0  0
    6.9439  -14.4428   22.2390 O   0  0  0  0  0  0  0  0  0  0  0  0
    5.2107  -18.8447   23.1086 N   0  0  0  0  0  0  0  0  0  0  0  0
    6.5791  -19.0639   23.3611 C   0  0  0  0  0  0  0  0  0  0  0  0
    7.1490  -20.0459   22.8537 O   0  0  0  0  0  0  0  0  0  0  0  0
    7.3325  -18.1373   24.2205 C   0  0  0  0  0  0  0  0  0  0  0  0
    7.1979  -16.6896   23.8206 C   0  0  2  0  0  0  0  0  0  0  0  0
    7.7677  -16.5482   22.4955 N   0  0  0  0  0  0  0  0  0  0  0  0
    7.9492  -15.8899   24.8248 C   0  0  0  0  0  0  0  0  0  0  0  0
    9.1953  -16.0078   24.8501 O   0  0  0  0  0  0  0  0  0  0  0  0
    6.1158  -12.8512   27.1394 C   0  0  0  0  0  0  0  0  0  0  0  0
    7.5755  -12.7945   26.7783 C   0  0  1  0  0  0  0  0  0  0  0  0
    8.4113  -12.0414   27.7597 C   0  0  0  0  0  0  0  0  0  0  0  0
    8.1773  -14.1655   26.5674 C   0  0  2  0  0  0  0  0  0  0  0  0
    7.3435  -15.0094   25.7474 N   0  0  0  0  0  0  0  0  0  0  0  0
    8.4347  -14.8445   27.8630 C   0  0  0  0  0  0  0  0  0  0  0  0
    9.4359  -14.4056   28.7228 O   0  0  0  0  0  0  0  0  0  0  0  0
    7.7693  -15.8477   28.2571 O   0  0  0  0  0  0  0  0  0  0  0  0
  2  1  1  0
  3  2  2  0
  4  2  1  0
  5  4  1  0
  6  5  1  0
  6  7  1  6
  8 15  1  0
  8  6  1  0
  9  8  2  0
 10 11  1  0
 11 13  1  0
 12 11  2  0
 14 13  1  1
 14 15  1  0
 16 14  1  0
 17 16  2  0
 19 18  1  1
 19 21  1  0
 19 20  1  0
 21 23  1  0
 21 22  1  6
 22 16  1  0
 23 24  1  0
 25 23  2  0
M  END
$$$$
