QNV.pdb
     RDKit          3D

 25 24  0  0  1  0  0  0  0  0999 V2000
    8.3023  -12.5548   17.0147 N   0  0  0  0  0  0  0  0  0  0  0  0
    8.2167  -13.9208   16.6383 C   0  0  0  0  0  0  0  0  0  0  0  0
    8.4456  -14.2506   15.4530 O   0  0  0  0  0  0  0  0  0  0  0  0
    7.8603  -14.9133   17.6543 C   0  0  0  0  0  0  0  0  0  0  0  0
    7.5150  -14.2842   18.9871 C   0  0  0  0  0  0  0  0  0  0  0  0
    8.5341  -14.6750   20.0444 C   0  0  2  0  0  0  0  0  0  0  0  0
    9.1957  -15.8712   19.5601 N   0  0  0  0  0  0  0  0  0  0  0  0
    7.9207  -14.9433   21.3445 C   0  0  0  0  0  0  0  0  0  0  0  0
    7.1304  -14.0831   21.8663 O   0  0  0  0  0  0  0  0  0  0  0  0
    6.2010  -18.5631   25.4635 N   0  0  0  0  0  0  0  0  0  0  0  0
    7.4859  -18.0274   25.2482 C   0  0  0  0  0  0  0  0  0  0  0  0
    8.2407  -17.8301   26.2167 O   0  0  0  0  0  0  0  0  0  0  0  0
    7.9350  -17.7020   23.8854 C   0  0  0  0  0  0  0  0  0  0  0  0
    7.5677  -16.3093   23.4390 C   0  0  2  0  0  0  0  0  0  0  0  0
    8.1255  -16.1140   22.1156 N   0  0  0  0  0  0  0  0  0  0  0  0
    8.1609  -15.3666   24.4247 C   0  0  0  0  0  0  0  0  0  0  0  0
    9.3829  -15.1129   24.3265 O   0  0  0  0  0  0  0  0  0  0  0  0
    6.7142  -11.8230   25.3739 C   0  0  0  0  0  0  0  0  0  0  0  0
    7.1479  -12.5864   26.5960 C   0  0  1  0  0  0  0  0  0  0  0  0
    6.0142  -13.0959   27.4231 C   0  0  0  0  0  0  0  0  0  0  0  0
    8.0740  -13.7354   26.2670 C   0  0  2  0  0  0  0  0  0  0  0  0
    7.4312  -14.7433   25.4603 N   0  0  0  0  0  0  0  0  0  0  0  0
    8.6082  -14.3654   27.5013 C   0  0  0  0  0  0  0  0  0  0  0  0
    9.4126  -13.6548   28.3857 O   0  0  0  0  0  0  0  0  0  0  0  0
    8.3678  -15.5681   27.8183 O   0  0  0  0  0  0  0  0  0  0  0  0
  2  1  1  0
  3  2  2  0
  4  2  1  0
  5  4  1  0
  6  5  1  0
  6  7  1  6
  8 15  1  0
  8  6  1  0
  9  8  2  0
 10 11  1  0
 11 13  1  0
 12 11  2  0
 14 13  1  1
 14 15  1  0
 16 14  1  0
 17 16  2  0
 19 18  1  6
 19 21  1  0
 19 20  1  0
 21 23  1  0
 21 22  1  1
 22 16  1  0
 23 24  1  0
 25 23  2  0
M  END
$$$$
