QNV.pdb
     RDKit          3D

 25 24  0  0  1  0  0  0  0  0999 V2000
    9.3160  -20.4861   18.9854 N   0  0  0  0  0  0  0  0  0  0  0  0
    7.9625  -20.6778   19.3676 C   0  0  0  0  0  0  0  0  0  0  0  0
    7.3692  -21.7280   19.0342 O   0  0  0  0  0  0  0  0  0  0  0  0
    7.2930  -19.6342   20.1468 C   0  0  0  0  0  0  0  0  0  0  0  0
    8.1897  -18.4457   20.4199 C   0  0  0  0  0  0  0  0  0  0  0  0
    8.0270  -17.9699   21.8539 C   0  0  2  0  0  0  0  0  0  0  0  0
    6.6031  -17.8123   22.0792 N   0  0  0  0  0  0  0  0  0  0  0  0
    8.7090  -16.7011   22.1060 C   0  0  0  0  0  0  0  0  0  0  0  0
    9.9629  -16.6907   22.3602 O   0  0  0  0  0  0  0  0  0  0  0  0
    6.4068  -13.2101   19.6905 N   0  0  0  0  0  0  0  0  0  0  0  0
    7.7155  -13.3829   20.1820 C   0  0  0  0  0  0  0  0  0  0  0  0
    8.6127  -13.7794   19.4175 O   0  0  0  0  0  0  0  0  0  0  0  0
    8.0221  -13.0964   21.5922 C   0  0  0  0  0  0  0  0  0  0  0  0
    8.8111  -14.1836   22.2773 C   0  0  2  0  0  0  0  0  0  0  0  0
    8.0892  -15.4272   22.0955 N   0  0  0  0  0  0  0  0  0  0  0  0
    8.9041  -13.8128   23.7146 C   0  0  0  0  0  0  0  0  0  0  0  0
    9.4793  -12.7391   24.0039 O   0  0  0  0  0  0  0  0  0  0  0  0
    7.6620  -11.8614   25.9891 C   0  0  0  0  0  0  0  0  0  0  0  0
    7.5499  -13.2219   26.6221 C   0  0  1  0  0  0  0  0  0  0  0  0
    6.2072  -13.8542   26.4603 C   0  0  0  0  0  0  0  0  0  0  0  0
    8.6098  -14.1821   26.1311 C   0  0  2  0  0  0  0  0  0  0  0  0
    8.3846  -14.5962   24.7682 N   0  0  0  0  0  0  0  0  0  0  0  0
    8.6899  -15.3842   26.9997 C   0  0  0  0  0  0  0  0  0  0  0  0
    9.0000  -15.2800   28.3514 O   0  0  0  0  0  0  0  0  0  0  0  0
    8.4840  -16.5577   26.5694 O   0  0  0  0  0  0  0  0  0  0  0  0
  2  1  1  0
  3  2  2  0
  4  2  1  0
  5  4  1  0
  6  5  1  0
  6  7  1  6
  8 15  1  0
  8  6  1  0
  9  8  2  0
 10 11  1  0
 11 13  1  0
 12 11  2  0
 14 13  1  6
 14 15  1  0
 16 14  1  0
 17 16  2  0
 19 18  1  6
 19 21  1  0
 19 20  1  0
 21 23  1  0
 21 22  1  6
 22 16  1  0
 23 24  1  0
 25 23  2  0
M  END
$$$$
