QNV.pdb
     RDKit          3D

 25 24  0  0  1  0  0  0  0  0999 V2000
    9.5559  -12.5620   18.7322 N   0  0  0  0  0  0  0  0  0  0  0  0
    8.7352  -13.2371   17.7913 C   0  0  0  0  0  0  0  0  0  0  0  0
    9.2291  -13.6309   16.7110 O   0  0  0  0  0  0  0  0  0  0  0  0
    7.3233  -13.4557   18.1127 C   0  0  0  0  0  0  0  0  0  0  0  0
    7.1150  -13.9102   19.5414 C   0  0  0  0  0  0  0  0  0  0  0  0
    7.8762  -15.1976   19.8107 C   0  0  2  0  0  0  0  0  0  0  0  0
    7.3841  -16.1765   18.8605 N   0  0  0  0  0  0  0  0  0  0  0  0
    7.6805  -15.6918   21.1731 C   0  0  0  0  0  0  0  0  0  0  0  0
    6.5014  -15.7535   21.6658 O   0  0  0  0  0  0  0  0  0  0  0  0
   10.7056  -18.2609   25.8402 N   0  0  0  0  0  0  0  0  0  0  0  0
    9.4949  -17.9324   25.1994 C   0  0  0  0  0  0  0  0  0  0  0  0
    8.4325  -17.9481   25.8456 O   0  0  0  0  0  0  0  0  0  0  0  0
    9.4847  -17.5722   23.7729 C   0  0  0  0  0  0  0  0  0  0  0  0
    8.5014  -16.4827   23.4266 C   0  0  2  0  0  0  0  0  0  0  0  0
    8.7147  -16.1278   22.0377 N   0  0  0  0  0  0  0  0  0  0  0  0
    8.7860  -15.3370   24.3314 C   0  0  0  0  0  0  0  0  0  0  0  0
    9.9113  -14.7946   24.2493 O   0  0  0  0  0  0  0  0  0  0  0  0
    5.8108  -13.0885   26.3978 C   0  0  0  0  0  0  0  0  0  0  0  0
    7.1751  -12.5889   26.0059 C   0  0  1  0  0  0  0  0  0  0  0  0
    7.6411  -11.4170   26.8048 C   0  0  0  0  0  0  0  0  0  0  0  0
    8.2292  -13.6718   26.0575 C   0  0  2  0  0  0  0  0  0  0  0  0
    7.8666  -14.8268   25.2737 N   0  0  0  0  0  0  0  0  0  0  0  0
    8.4968  -14.0950   27.4557 C   0  0  0  0  0  0  0  0  0  0  0  0
    8.2882  -15.4073   27.8663 O   0  0  0  0  0  0  0  0  0  0  0  0
    8.9242  -13.2999   28.3444 O   0  0  0  0  0  0  0  0  0  0  0  0
  2  1  1  0
  3  2  2  0
  4  2  1  0
  5  4  1  0
  6  5  1  0
  6  7  1  6
  8 15  1  0
  8  6  1  0
  9  8  2  0
 10 11  1  0
 11 13  1  0
 12 11  2  0
 14 13  1  1
 14 15  1  0
 16 14  1  0
 17 16  2  0
 19 18  1  1
 19 21  1  0
 19 20  1  0
 21 23  1  0
 21 22  1  6
 22 16  1  0
 23 24  1  0
 25 23  2  0
M  END
$$$$
