QNV.pdb
     RDKit          3D

 25 24  0  0  1  0  0  0  0  0999 V2000
    8.8197  -12.4335   18.0509 N   0  0  0  0  0  0  0  0  0  0  0  0
    8.6361  -13.7365   17.5188 C   0  0  0  0  0  0  0  0  0  0  0  0
    9.5509  -14.2642   16.8474 O   0  0  0  0  0  0  0  0  0  0  0  0
    7.3727  -14.4323   17.7719 C   0  0  0  0  0  0  0  0  0  0  0  0
    6.9391  -14.3441   19.2195 C   0  0  0  0  0  0  0  0  0  0  0  0
    8.0668  -14.7722   20.1438 C   0  0  2  0  0  0  0  0  0  0  0  0
    8.6300  -15.9826   19.5773 N   0  0  0  0  0  0  0  0  0  0  0  0
    7.6075  -15.0338   21.5073 C   0  0  0  0  0  0  0  0  0  0  0  0
    6.8022  -14.2185   22.0762 O   0  0  0  0  0  0  0  0  0  0  0  0
    6.1158  -18.4610   25.7082 N   0  0  0  0  0  0  0  0  0  0  0  0
    7.4547  -18.1854   25.3684 C   0  0  0  0  0  0  0  0  0  0  0  0
    8.3376  -18.2520   26.2418 O   0  0  0  0  0  0  0  0  0  0  0  0
    7.8096  -17.8205   23.9880 C   0  0  0  0  0  0  0  0  0  0  0  0
    7.4882  -16.3904   23.6340 C   0  0  2  0  0  0  0  0  0  0  0  0
    7.9839  -16.1507   22.2933 N   0  0  0  0  0  0  0  0  0  0  0  0
    8.1786  -15.5302   24.6319 C   0  0  0  0  0  0  0  0  0  0  0  0
    9.4223  -15.4176   24.5434 O   0  0  0  0  0  0  0  0  0  0  0  0
    7.3293  -11.8191   25.5447 C   0  0  0  0  0  0  0  0  0  0  0  0
    7.5300  -12.6497   26.7833 C   0  0  1  0  0  0  0  0  0  0  0  0
    6.2649  -12.9632   27.5113 C   0  0  0  0  0  0  0  0  0  0  0  0
    8.2726  -13.9376   26.5072 C   0  0  2  0  0  0  0  0  0  0  0  0
    7.5179  -14.8359   25.6686 N   0  0  0  0  0  0  0  0  0  0  0  0
    8.6303  -14.6330   27.7698 C   0  0  0  0  0  0  0  0  0  0  0  0
    9.5283  -14.0748   28.6732 O   0  0  0  0  0  0  0  0  0  0  0  0
    8.1473  -15.7579   28.0954 O   0  0  0  0  0  0  0  0  0  0  0  0
  2  1  1  0
  3  2  2  0
  4  2  1  0
  5  4  1  0
  6  5  1  0
  6  7  1  6
  8 15  1  0
  8  6  1  0
  9  8  2  0
 10 11  1  0
 11 13  1  0
 12 11  2  0
 14 13  1  1
 14 15  1  0
 16 14  1  0
 17 16  2  0
 19 18  1  6
 19 21  1  0
 19 20  1  0
 21 23  1  0
 21 22  1  6
 22 16  1  0
 23 24  1  0
 25 23  2  0
M  END
$$$$
