QNV.pdb
     RDKit          3D

 25 24  0  0  1  0  0  0  0  0999 V2000
   10.3851  -12.9741   19.9052 N   0  0  0  0  0  0  0  0  0  0  0  0
    9.9030  -13.0916   18.5754 C   0  0  0  0  0  0  0  0  0  0  0  0
   10.7152  -13.2335   17.6340 O   0  0  0  0  0  0  0  0  0  0  0  0
    8.4585  -13.0432   18.3399 C   0  0  0  0  0  0  0  0  0  0  0  0
    7.6571  -13.4948   19.5420 C   0  0  0  0  0  0  0  0  0  0  0  0
    7.9576  -14.9476   19.8715 C   0  0  2  0  0  0  0  0  0  0  0  0
    7.3616  -15.7437   18.8160 N   0  0  0  0  0  0  0  0  0  0  0  0
    7.4106  -15.3554   21.1649 C   0  0  0  0  0  0  0  0  0  0  0  0
    6.1471  -15.3196   21.3627 O   0  0  0  0  0  0  0  0  0  0  0  0
    6.1698  -17.9672   25.5936 N   0  0  0  0  0  0  0  0  0  0  0  0
    7.5310  -17.9679   25.2309 C   0  0  0  0  0  0  0  0  0  0  0  0
    8.3880  -18.3272   26.0573 O   0  0  0  0  0  0  0  0  0  0  0  0
    7.9392  -17.5462   23.8817 C   0  0  0  0  0  0  0  0  0  0  0  0
    7.6104  -16.1086   23.5671 C   0  0  2  0  0  0  0  0  0  0  0  0
    8.1771  -15.8056   22.2680 N   0  0  0  0  0  0  0  0  0  0  0  0
    8.2255  -15.2782   24.6368 C   0  0  0  0  0  0  0  0  0  0  0  0
    9.4751  -15.2172   24.6817 O   0  0  0  0  0  0  0  0  0  0  0  0
    7.1699  -11.5643   25.6722 C   0  0  0  0  0  0  0  0  0  0  0  0
    7.3917  -12.4558   26.8641 C   0  0  1  0  0  0  0  0  0  0  0  0
    6.1333  -12.8577   27.5596 C   0  0  0  0  0  0  0  0  0  0  0  0
    8.1854  -13.6970   26.5237 C   0  0  2  0  0  0  0  0  0  0  0  0
    7.4873  -14.5574   25.6007 N   0  0  0  0  0  0  0  0  0  0  0  0
    8.5279  -14.4679   27.7461 C   0  0  0  0  0  0  0  0  0  0  0  0
    9.4290  -13.9742   28.6833 O   0  0  0  0  0  0  0  0  0  0  0  0
    8.0284  -15.6028   28.0051 O   0  0  0  0  0  0  0  0  0  0  0  0
  2  1  1  0
  3  2  2  0
  4  2  1  0
  5  4  1  0
  6  5  1  0
  6  7  1  6
  8 15  1  0
  8  6  1  0
  9  8  2  0
 10 11  1  0
 11 13  1  0
 12 11  2  0
 14 13  1  1
 14 15  1  0
 16 14  1  0
 17 16  2  0
 19 18  1  6
 19 21  1  0
 19 20  1  0
 21 23  1  0
 21 22  1  6
 22 16  1  0
 23 24  1  0
 25 23  2  0
M  END
$$$$
