QNV.pdb
     RDKit          3D

 25 24  0  0  1  0  0  0  0  0999 V2000
    7.9392  -17.4753   16.7559 N   0  0  0  0  0  0  0  0  0  0  0  0
    9.0668  -18.1837   17.2473 C   0  0  0  0  0  0  0  0  0  0  0  0
    9.2813  -19.3525   16.8548 O   0  0  0  0  0  0  0  0  0  0  0  0
    9.9542  -17.5229   18.2065 C   0  0  0  0  0  0  0  0  0  0  0  0
    9.2404  -17.1220   19.4797 C   0  0  0  0  0  0  0  0  0  0  0  0
   10.2404  -16.8389   20.5884 C   0  0  2  0  0  0  0  0  0  0  0  0
   11.2202  -17.9072   20.5454 N   0  0  0  0  0  0  0  0  0  0  0  0
    9.6166  -16.7955   21.9103 C   0  0  0  0  0  0  0  0  0  0  0  0
    8.6826  -15.9539   22.1472 O   0  0  0  0  0  0  0  0  0  0  0  0
    8.9760  -20.9720   23.4006 N   0  0  0  0  0  0  0  0  0  0  0  0
    8.4328  -19.9220   24.1666 C   0  0  0  0  0  0  0  0  0  0  0  0
    7.1984  -19.7970   24.2518 O   0  0  0  0  0  0  0  0  0  0  0  0
    9.3193  -18.9768   24.8634 C   0  0  0  0  0  0  0  0  0  0  0  0
    9.2964  -17.5830   24.2883 C   0  0  2  0  0  0  0  0  0  0  0  0
    9.9611  -17.6310   23.0013 N   0  0  0  0  0  0  0  0  0  0  0  0
   10.0238  -16.7065   25.2448 C   0  0  0  0  0  0  0  0  0  0  0  0
   11.2752  -16.7375   25.2282 O   0  0  0  0  0  0  0  0  0  0  0  0
    8.0724  -13.9388   27.8459 C   0  0  0  0  0  0  0  0  0  0  0  0
    9.4566  -13.6781   27.3164 C   0  0  1  0  0  0  0  0  0  0  0  0
   10.3082  -12.8602   28.2301 C   0  0  0  0  0  0  0  0  0  0  0  0
   10.1938  -14.9497   26.9614 C   0  0  2  0  0  0  0  0  0  0  0  0
    9.3899  -15.8449   26.1665 N   0  0  0  0  0  0  0  0  0  0  0  0
   10.6562  -15.6609   28.1805 C   0  0  0  0  0  0  0  0  0  0  0  0
   11.6670  -15.1404   28.9815 O   0  0  0  0  0  0  0  0  0  0  0  0
   10.1664  -16.7663   28.5585 O   0  0  0  0  0  0  0  0  0  0  0  0
  2  1  1  0
  3  2  2  0
  4  2  1  0
  5  4  1  0
  6  5  1  0
  6  7  1  1
  8 15  1  0
  8  6  1  0
  9  8  2  0
 10 11  1  0
 11 13  1  0
 12 11  2  0
 14 13  1  1
 14 15  1  0
 16 14  1  0
 17 16  2  0
 19 18  1  1
 19 21  1  0
 19 20  1  0
 21 23  1  0
 21 22  1  1
 22 16  1  0
 23 24  1  0
 25 23  2  0
M  END
$$$$
