QNV.pdb
     RDKit          3D

 25 24  0  0  1  0  0  0  0  0999 V2000
   10.8209  -19.1535   15.3727 N   0  0  0  0  0  0  0  0  0  0  0  0
    9.5731  -19.2954   16.0343 C   0  0  0  0  0  0  0  0  0  0  0  0
    8.8618  -20.2988   15.8030 O   0  0  0  0  0  0  0  0  0  0  0  0
    9.1496  -18.2568   16.9756 C   0  0  0  0  0  0  0  0  0  0  0  0
   10.1867  -17.9801   18.0429 C   0  0  0  0  0  0  0  0  0  0  0  0
    9.5546  -18.0079   19.4246 C   0  0  2  0  0  0  0  0  0  0  0  0
    8.1620  -18.3660   19.2360 N   0  0  0  0  0  0  0  0  0  0  0  0
    9.6435  -16.7189   20.1094 C   0  0  0  0  0  0  0  0  0  0  0  0
   10.7893  -16.2243   20.3911 O   0  0  0  0  0  0  0  0  0  0  0  0
    8.0587  -12.0300   19.0986 N   0  0  0  0  0  0  0  0  0  0  0  0
    7.7140  -13.3574   19.4204 C   0  0  0  0  0  0  0  0  0  0  0  0
    7.5233  -14.1820   18.5092 O   0  0  0  0  0  0  0  0  0  0  0  0
    7.5797  -13.7686   20.8267 C   0  0  0  0  0  0  0  0  0  0  0  0
    8.6574  -14.7161   21.2901 C   0  0  2  0  0  0  0  0  0  0  0  0
    8.5360  -15.9306   20.5086 N   0  0  0  0  0  0  0  0  0  0  0  0
    8.4184  -14.9723   22.7356 C   0  0  0  0  0  0  0  0  0  0  0  0
    7.5441  -14.2868   23.3125 O   0  0  0  0  0  0  0  0  0  0  0  0
    7.7151  -17.4484   26.6718 C   0  0  0  0  0  0  0  0  0  0  0  0
    7.8721  -17.1912   25.1975 C   0  0  1  0  0  0  0  0  0  0  0  0
    6.5840  -16.9276   24.4903 C   0  0  0  0  0  0  0  0  0  0  0  0
    8.8367  -16.0649   24.9020 C   0  0  2  0  0  0  0  0  0  0  0  0
    9.1159  -15.9384   23.4929 N   0  0  0  0  0  0  0  0  0  0  0  0
   10.1138  -16.2439   25.6387 C   0  0  0  0  0  0  0  0  0  0  0  0
   10.1759  -16.1081   27.0215 O   0  0  0  0  0  0  0  0  0  0  0  0
   11.2058  -16.5264   25.0622 O   0  0  0  0  0  0  0  0  0  0  0  0
  2  1  1  0
  3  2  2  0
  4  2  1  0
  5  4  1  0
  6  5  1  0
  6  7  1  6
  8 15  1  0
  8  6  1  0
  9  8  2  0
 10 11  1  0
 11 13  1  0
 12 11  2  0
 14 13  1  6
 14 15  1  0
 16 14  1  0
 17 16  2  0
 19 18  1  1
 19 21  1  0
 19 20  1  0
 21 23  1  0
 21 22  1  6
 22 16  1  0
 23 24  1  0
 25 23  2  0
M  END
$$$$
