QNV.pdb
     RDKit          3D

 25 24  0  0  1  0  0  0  0  0999 V2000
    5.3884  -17.1389   20.3645 N   0  0  0  0  0  0  0  0  0  0  0  0
    6.3112  -17.1965   19.2875 C   0  0  0  0  0  0  0  0  0  0  0  0
    6.6285  -18.3065   18.8044 O   0  0  0  0  0  0  0  0  0  0  0  0
    6.8705  -15.9470   18.7678 C   0  0  0  0  0  0  0  0  0  0  0  0
    7.9541  -15.3788   19.6590 C   0  0  0  0  0  0  0  0  0  0  0  0
    7.5537  -14.0098   20.1834 C   0  0  2  0  0  0  0  0  0  0  0  0
    8.1481  -13.0340   19.2903 N   0  0  0  0  0  0  0  0  0  0  0  0
    8.0173  -13.7737   21.5501 C   0  0  0  0  0  0  0  0  0  0  0  0
    9.2283  -13.4181   21.7601 O   0  0  0  0  0  0  0  0  0  0  0  0
    8.2771  -13.1545   26.7437 N   0  0  0  0  0  0  0  0  0  0  0  0
    7.0034  -12.7920   26.2635 C   0  0  0  0  0  0  0  0  0  0  0  0
    6.2022  -12.2144   27.0192 O   0  0  0  0  0  0  0  0  0  0  0  0
    6.6205  -13.0941   24.8754 C   0  0  0  0  0  0  0  0  0  0  0  0
    7.7281  -13.7097   24.0580 C   0  0  2  0  0  0  0  0  0  0  0  0
    7.2213  -13.9063   22.7145 N   0  0  0  0  0  0  0  0  0  0  0  0
    8.0767  -15.0035   24.7035 C   0  0  0  0  0  0  0  0  0  0  0  0
    7.1625  -15.8456   24.8530 O   0  0  0  0  0  0  0  0  0  0  0  0
   10.3526  -17.6867   23.4726 C   0  0  0  0  0  0  0  0  0  0  0  0
   10.7344  -17.3613   24.8913 C   0  0  1  0  0  0  0  0  0  0  0  0
   11.9834  -16.5521   25.0097 C   0  0  0  0  0  0  0  0  0  0  0  0
    9.6242  -16.6688   25.6492 C   0  0  2  0  0  0  0  0  0  0  0  0
    9.3719  -15.3374   25.1559 N   0  0  0  0  0  0  0  0  0  0  0  0
    9.9256  -16.6022   27.1020 C   0  0  0  0  0  0  0  0  0  0  0  0
   10.0739  -17.7566   27.8633 O   0  0  0  0  0  0  0  0  0  0  0  0
   10.0637  -15.5083   27.7256 O   0  0  0  0  0  0  0  0  0  0  0  0
  2  1  1  0
  3  2  2  0
  4  2  1  0
  5  4  1  0
  6  5  1  0
  6  7  1  6
  8 15  1  0
  8  6  1  0
  9  8  2  0
 10 11  1  0
 11 13  1  0
 12 11  2  0
 14 13  1  1
 14 15  1  0
 16 14  1  0
 17 16  2  0
 19 18  1  6
 19 21  1  0
 19 20  1  0
 21 23  1  0
 21 22  1  6
 22 16  1  0
 23 24  1  0
 25 23  2  0
M  END
$$$$
