EPM.pdb
     RDKit          3D

 25 25  0  0  1  0  0  0  0  0999 V2000
   23.3412  -22.2721  -14.8037 N   0  0  0  0  0  0  0  0  0  0  0  0
   23.9953  -21.1892  -14.1478 C   0  0  1  0  0  0  0  0  0  0  0  0
   22.9459  -20.1512  -13.8597 C   0  0  0  0  0  0  0  0  0  0  0  0
   21.7004  -20.6503  -13.2033 C   0  0  0  0  0  0  0  0  0  0  0  0
   20.6730  -19.6007  -13.0368 C   0  0  0  0  0  0  0  0  0  0  0  0
   20.4324  -19.0309  -11.9542 O   0  0  0  0  0  0  0  0  0  0  0  0
   24.7552  -21.4963  -12.9351 C   0  0  0  0  0  0  0  0  0  0  0  0
   24.0225  -21.8759  -11.9398 O   0  0  0  0  0  0  0  0  0  0  0  0
   19.8887  -19.1775  -14.1268 O   0  0  0  0  0  0  0  0  0  0  0  0
   26.1429  -21.4252  -12.7438 N   0  0  0  0  0  0  0  0  0  0  0  0
   27.1708  -21.7208  -13.7768 C   0  0  0  0  0  0  0  0  0  0  0  0
   27.8728  -20.3604  -13.7612 C   0  0  0  0  0  0  0  0  0  0  0  0
   27.8218  -19.9643  -12.2777 C   0  0  0  0  0  0  0  0  0  0  0  0
   27.0116  -21.1107  -11.6473 C   0  0  1  0  0  0  0  0  0  0  0  0
   26.4833  -20.7662  -10.3566 C   0  0  0  0  0  0  0  0  0  0  0  0
   25.4532  -20.1175  -10.0490 O   0  0  0  0  0  0  0  0  0  0  0  0
   28.7398  -21.9386   -3.2404 C   0  0  0  0  0  0  0  0  0  0  0  0
   29.3985  -20.9015   -4.5448 S   0  0  0  0  0  0  0  0  0  0  0  0
   28.0099  -20.3637   -5.6249 C   0  0  0  0  0  0  0  0  0  0  0  0
   28.1591  -20.9941   -6.9765 C   0  0  0  0  0  0  0  0  0  0  0  0
   27.0349  -20.6534   -7.8761 C   0  0  2  0  0  0  0  0  0  0  0  0
   27.2246  -21.2186   -9.2099 N   0  0  0  0  0  0  0  0  0  0  0  0
   26.8131  -19.2019   -7.9635 C   0  0  0  0  0  0  0  0  0  0  0  0
   25.8490  -18.5861   -7.1238 O   0  0  0  0  0  0  0  0  0  0  0  0
   27.4016  -18.4078   -8.7266 O   0  0  0  0  0  0  0  0  0  0  0  0
  2  1  1  1
  2  7  1  0
  3  2  1  0
  4  3  1  0
  5  4  1  0
  6  5  2  0
  7  8  2  0
  7 10  1  0
  9  5  1  0
 10 14  1  0
 11 10  1  0
 11 12  1  0
 12 13  1  0
 14 15  1  1
 14 13  1  0
 15 16  2  0
 18 17  1  0
 19 18  1  0
 20 19  1  0
 21 20  1  1
 22 21  1  0
 22 15  1  0
 23 24  1  0
 23 21  1  0
 25 23  2  0
M  END
$$$$
