EPM.pdb
     RDKit          3D

 25 25  0  0  1  0  0  0  0  0999 V2000
   19.5324  -12.5816  -17.0683 N   0  0  0  0  0  0  0  0  0  0  0  0
   19.2103  -11.1938  -17.0420 C   0  0  1  0  0  0  0  0  0  0  0  0
   17.7416  -11.0888  -16.7357 C   0  0  0  0  0  0  0  0  0  0  0  0
   17.2734  -11.8379  -15.5312 C   0  0  0  0  0  0  0  0  0  0  0  0
   15.9752  -11.3537  -15.0164 C   0  0  0  0  0  0  0  0  0  0  0  0
   15.8593  -10.5719  -14.0520 O   0  0  0  0  0  0  0  0  0  0  0  0
   19.9820  -10.3401  -16.1375 C   0  0  0  0  0  0  0  0  0  0  0  0
   19.4033  -10.1216  -15.0021 O   0  0  0  0  0  0  0  0  0  0  0  0
   14.7649  -11.7636  -15.6075 O   0  0  0  0  0  0  0  0  0  0  0  0
   21.2366   -9.7546  -16.3623 N   0  0  0  0  0  0  0  0  0  0  0  0
   22.4116  -10.4400  -16.9628 C   0  0  0  0  0  0  0  0  0  0  0  0
   22.6139   -9.4954  -18.1504 C   0  0  0  0  0  0  0  0  0  0  0  0
   22.2704   -8.1202  -17.5582 C   0  0  0  0  0  0  0  0  0  0  0  0
   21.8242   -8.4681  -16.1271 C   0  0  1  0  0  0  0  0  0  0  0  0
   21.0723   -7.4095  -15.5125 C   0  0  0  0  0  0  0  0  0  0  0  0
   19.8886   -7.0379  -15.7056 O   0  0  0  0  0  0  0  0  0  0  0  0
   18.0398   -4.4586   -9.4244 C   0  0  0  0  0  0  0  0  0  0  0  0
   18.5721   -5.7507  -10.5461 S   0  0  0  0  0  0  0  0  0  0  0  0
   19.6797   -5.0082  -11.8134 C   0  0  0  0  0  0  0  0  0  0  0  0
   20.2689   -6.0974  -12.6576 C   0  0  0  0  0  0  0  0  0  0  0  0
   21.0883   -5.5601  -13.7663 C   0  0  2  0  0  0  0  0  0  0  0  0
   21.7492   -6.6285  -14.5120 N   0  0  0  0  0  0  0  0  0  0  0  0
   22.0770   -4.5757  -13.3003 C   0  0  0  0  0  0  0  0  0  0  0  0
   23.4622   -4.8484  -13.4435 O   0  0  0  0  0  0  0  0  0  0  0  0
   21.8299   -3.4738  -12.7671 O   0  0  0  0  0  0  0  0  0  0  0  0
  2  1  1  1
  2  7  1  0
  3  2  1  0
  4  3  1  0
  5  4  1  0
  6  5  2  0
  7  8  2  0
  7 10  1  0
  9  5  1  0
 10 14  1  0
 11 10  1  0
 11 12  1  0
 12 13  1  0
 14 15  1  6
 14 13  1  0
 15 16  2  0
 18 17  1  0
 19 18  1  0
 20 19  1  0
 21 20  1  1
 22 21  1  0
 22 15  1  0
 23 24  1  0
 23 21  1  0
 25 23  2  0
M  END
$$$$
