EPM.pdb
     RDKit          3D

 25 25  0  0  1  0  0  0  0  0999 V2000
   21.5090  -21.2913  -14.8650 N   0  0  0  0  0  0  0  0  0  0  0  0
   20.7115  -20.8487  -13.7702 C   0  0  1  0  0  0  0  0  0  0  0  0
   19.3072  -20.6903  -14.2847 C   0  0  0  0  0  0  0  0  0  0  0  0
   19.1447  -19.7881  -15.4640 C   0  0  0  0  0  0  0  0  0  0  0  0
   17.7353  -19.6256  -15.8791 C   0  0  0  0  0  0  0  0  0  0  0  0
   16.7616  -19.8773  -15.1420 O   0  0  0  0  0  0  0  0  0  0  0  0
   20.7204  -21.6663  -12.5562 C   0  0  0  0  0  0  0  0  0  0  0  0
   20.3213  -22.8823  -12.7406 O   0  0  0  0  0  0  0  0  0  0  0  0
   17.4102  -19.1636  -17.1687 O   0  0  0  0  0  0  0  0  0  0  0  0
   21.1016  -21.2860  -11.2610 N   0  0  0  0  0  0  0  0  0  0  0  0
   22.2706  -20.4313  -10.9236 C   0  0  0  0  0  0  0  0  0  0  0  0
   21.5081  -19.3208  -10.1961 C   0  0  0  0  0  0  0  0  0  0  0  0
   20.4017  -20.0901   -9.4583 C   0  0  0  0  0  0  0  0  0  0  0  0
   20.6179  -21.5372   -9.9350 C   0  0  1  0  0  0  0  0  0  0  0  0
   19.4683  -22.3685   -9.7089 C   0  0  0  0  0  0  0  0  0  0  0  0
   18.2745  -22.2160  -10.0669 O   0  0  0  0  0  0  0  0  0  0  0  0
   19.8962  -28.6711   -9.7857 C   0  0  0  0  0  0  0  0  0  0  0  0
   18.1411  -28.3807  -10.0009 S   0  0  0  0  0  0  0  0  0  0  0  0
   17.7116  -26.7732   -9.2163 C   0  0  0  0  0  0  0  0  0  0  0  0
   18.8923  -25.8529   -9.2908 C   0  0  0  0  0  0  0  0  0  0  0  0
   18.6072  -24.5327   -8.6867 C   0  0  2  0  0  0  0  0  0  0  0  0
   19.6783  -23.5764   -8.9567 N   0  0  0  0  0  0  0  0  0  0  0  0
   18.3584  -24.6255   -7.2399 C   0  0  0  0  0  0  0  0  0  0  0  0
   17.0620  -24.9596   -6.7695 O   0  0  0  0  0  0  0  0  0  0  0  0
   19.1939  -24.4358   -6.3314 O   0  0  0  0  0  0  0  0  0  0  0  0
  2  1  1  6
  2  7  1  0
  3  2  1  0
  4  3  1  0
  5  4  1  0
  6  5  2  0
  7  8  2  0
  7 10  1  0
  9  5  1  0
 10 14  1  0
 11 10  1  0
 11 12  1  0
 12 13  1  0
 14 15  1  6
 14 13  1  0
 15 16  2  0
 18 17  1  0
 19 18  1  0
 20 19  1  0
 21 20  1  1
 22 21  1  0
 22 15  1  0
 23 24  1  0
 23 21  1  0
 25 23  2  0
M  END
$$$$
