EPM.pdb
     RDKit          3D

 25 25  0  0  1  0  0  0  0  0999 V2000
   20.1584  -10.2770  -15.5143 N   0  0  0  0  0  0  0  0  0  0  0  0
   18.8826  -10.4320  -14.8988 C   0  0  1  0  0  0  0  0  0  0  0  0
   18.6408  -11.9092  -14.7537 C   0  0  0  0  0  0  0  0  0  0  0  0
   18.3642  -12.6504  -16.0207 C   0  0  0  0  0  0  0  0  0  0  0  0
   18.1085  -14.0903  -15.8053 C   0  0  0  0  0  0  0  0  0  0  0  0
   18.8845  -14.9950  -16.1711 O   0  0  0  0  0  0  0  0  0  0  0  0
   18.6637   -9.7516  -13.6215 C   0  0  0  0  0  0  0  0  0  0  0  0
   17.5593  -10.0808  -13.0351 O   0  0  0  0  0  0  0  0  0  0  0  0
   16.9384  -14.5274  -15.1556 O   0  0  0  0  0  0  0  0  0  0  0  0
   19.4932   -8.8144  -12.9883 N   0  0  0  0  0  0  0  0  0  0  0  0
   20.9786   -8.8678  -12.9482 C   0  0  0  0  0  0  0  0  0  0  0  0
   21.2494   -7.5142  -13.6102 C   0  0  0  0  0  0  0  0  0  0  0  0
   20.1205   -6.6300  -13.0589 C   0  0  0  0  0  0  0  0  0  0  0  0
   19.2914   -7.6198  -12.2216 C   0  0  1  0  0  0  0  0  0  0  0  0
   17.9697   -7.1315  -11.9418 C   0  0  0  0  0  0  0  0  0  0  0  0
   17.0324   -6.8356  -12.7231 O   0  0  0  0  0  0  0  0  0  0  0  0
   12.4157   -6.6597   -6.4170 C   0  0  0  0  0  0  0  0  0  0  0  0
   14.0405   -7.2650   -6.8692 S   0  0  0  0  0  0  0  0  0  0  0  0
   14.5744   -6.4172   -8.4120 C   0  0  0  0  0  0  0  0  0  0  0  0
   15.8822   -6.9907   -8.8670 C   0  0  0  0  0  0  0  0  0  0  0  0
   16.3461   -6.3816  -10.1330 C   0  0  2  0  0  0  0  0  0  0  0  0
   17.6285   -6.9378  -10.5579 N   0  0  0  0  0  0  0  0  0  0  0  0
   16.4290   -4.9155  -10.0469 C   0  0  0  0  0  0  0  0  0  0  0  0
   15.2759   -4.1297  -10.3052 O   0  0  0  0  0  0  0  0  0  0  0  0
   17.4438   -4.2470   -9.7592 O   0  0  0  0  0  0  0  0  0  0  0  0
  2  1  1  1
  2  7  1  0
  3  2  1  0
  4  3  1  0
  5  4  1  0
  6  5  2  0
  7  8  2  0
  7 10  1  0
  9  5  1  0
 10 14  1  0
 11 10  1  0
 11 12  1  0
 12 13  1  0
 14 15  1  6
 14 13  1  0
 15 16  2  0
 18 17  1  0
 19 18  1  0
 20 19  1  0
 21 20  1  1
 22 21  1  0
 22 15  1  0
 23 24  1  0
 23 21  1  0
 25 23  2  0
M  END
$$$$
