EPM.pdb
     RDKit          3D

 25 25  0  0  1  0  0  0  0  0999 V2000
   24.4745  -19.9707  -15.6233 N   0  0  0  0  0  0  0  0  0  0  0  0
   24.4482  -19.7687  -14.2130 C   0  0  1  0  0  0  0  0  0  0  0  0
   23.0320  -19.9989  -13.7620 C   0  0  0  0  0  0  0  0  0  0  0  0
   21.9884  -19.1858  -14.4556 C   0  0  0  0  0  0  0  0  0  0  0  0
   20.7204  -19.1050  -13.7003 C   0  0  0  0  0  0  0  0  0  0  0  0
   20.6569  -18.9193  -12.4690 O   0  0  0  0  0  0  0  0  0  0  0  0
   25.3762  -20.5580  -13.4018 C   0  0  0  0  0  0  0  0  0  0  0  0
   24.7979  -21.2852  -12.5026 O   0  0  0  0  0  0  0  0  0  0  0  0
   19.4802  -19.2380  -14.3535 O   0  0  0  0  0  0  0  0  0  0  0  0
   26.7751  -20.6082  -13.4919 N   0  0  0  0  0  0  0  0  0  0  0  0
   27.5751  -20.2284  -14.6863 C   0  0  0  0  0  0  0  0  0  0  0  0
   28.4246  -19.1398  -14.0251 C   0  0  0  0  0  0  0  0  0  0  0  0
   28.6675  -19.7018  -12.6161 C   0  0  0  0  0  0  0  0  0  0  0  0
   27.8446  -21.0022  -12.6221 C   0  0  1  0  0  0  0  0  0  0  0  0
   27.5823  -21.4934  -11.2979 C   0  0  0  0  0  0  0  0  0  0  0  0
   28.2837  -22.2150  -10.5471 O   0  0  0  0  0  0  0  0  0  0  0  0
   27.8874  -19.2547   -4.5036 C   0  0  0  0  0  0  0  0  0  0  0  0
   28.0591  -19.1135   -6.2817 S   0  0  0  0  0  0  0  0  0  0  0  0
   26.8156  -20.2090   -7.0803 C   0  0  0  0  0  0  0  0  0  0  0  0
   27.0581  -20.2404   -8.5590 C   0  0  0  0  0  0  0  0  0  0  0  0
   26.1044  -21.1282   -9.2601 C   0  0  2  0  0  0  0  0  0  0  0  0
   26.3263  -21.1205  -10.7041 N   0  0  0  0  0  0  0  0  0  0  0  0
   24.7051  -20.7911   -8.9567 C   0  0  0  0  0  0  0  0  0  0  0  0
   23.8843  -20.2226   -9.9650 O   0  0  0  0  0  0  0  0  0  0  0  0
   24.1250  -20.9539   -7.8629 O   0  0  0  0  0  0  0  0  0  0  0  0
  2  1  1  6
  2  7  1  0
  3  2  1  0
  4  3  1  0
  5  4  1  0
  6  5  2  0
  7  8  2  0
  7 10  1  0
  9  5  1  0
 10 14  1  0
 11 10  1  0
 11 12  1  0
 12 13  1  0
 14 15  1  1
 14 13  1  0
 15 16  2  0
 18 17  1  0
 19 18  1  0
 20 19  1  0
 21 20  1  1
 22 21  1  0
 22 15  1  0
 23 24  1  0
 23 21  1  0
 25 23  2  0
M  END
$$$$
