EPM.pdb
     RDKit          3D

 25 25  0  0  1  0  0  0  0  0999 V2000
   24.3769  -20.1690  -18.1562 N   0  0  0  0  0  0  0  0  0  0  0  0
   24.4096  -19.2767  -17.0456 C   0  0  1  0  0  0  0  0  0  0  0  0
   23.0357  -18.6775  -16.9223 C   0  0  0  0  0  0  0  0  0  0  0  0
   21.9673  -19.5969  -16.4279 C   0  0  0  0  0  0  0  0  0  0  0  0
   21.0025  -18.9321  -15.5267 C   0  0  0  0  0  0  0  0  0  0  0  0
   21.0552  -18.9993  -14.2828 O   0  0  0  0  0  0  0  0  0  0  0  0
   24.8467  -19.8190  -15.7583 C   0  0  0  0  0  0  0  0  0  0  0  0
   23.8786  -20.2368  -15.0099 O   0  0  0  0  0  0  0  0  0  0  0  0
   19.9411  -18.1647  -16.0435 O   0  0  0  0  0  0  0  0  0  0  0  0
   26.1558  -19.9298  -15.2671 N   0  0  0  0  0  0  0  0  0  0  0  0
   27.3502  -20.2951  -16.0739 C   0  0  0  0  0  0  0  0  0  0  0  0
   28.1746  -19.0345  -15.8002 C   0  0  0  0  0  0  0  0  0  0  0  0
   27.8366  -18.7139  -14.3363 C   0  0  0  0  0  0  0  0  0  0  0  0
   26.7863  -19.7833  -13.9878 C   0  0  1  0  0  0  0  0  0  0  0  0
   26.0236  -19.4448  -12.8184 C   0  0  0  0  0  0  0  0  0  0  0  0
   25.2926  -18.4506  -12.5870 O   0  0  0  0  0  0  0  0  0  0  0  0
   20.5510  -18.7549  -11.0768 C   0  0  0  0  0  0  0  0  0  0  0  0
   21.0699  -20.3708  -10.5016 S   0  0  0  0  0  0  0  0  0  0  0  0
   22.7951  -20.2449   -9.8756 C   0  0  0  0  0  0  0  0  0  0  0  0
   23.7505  -20.3689  -11.0238 C   0  0  0  0  0  0  0  0  0  0  0  0
   25.1613  -20.2995  -10.5833 C   0  0  2  0  0  0  0  0  0  0  0  0
   26.0812  -20.3673  -11.7162 N   0  0  0  0  0  0  0  0  0  0  0  0
   25.4877  -21.3414   -9.5975 C   0  0  0  0  0  0  0  0  0  0  0  0
   25.9778  -22.5979  -10.0386 O   0  0  0  0  0  0  0  0  0  0  0  0
   25.3792  -21.2468   -8.3571 O   0  0  0  0  0  0  0  0  0  0  0  0
  2  1  1  6
  2  7  1  0
  3  2  1  0
  4  3  1  0
  5  4  1  0
  6  5  2  0
  7  8  2  0
  7 10  1  0
  9  5  1  0
 10 14  1  0
 11 10  1  0
 11 12  1  0
 12 13  1  0
 14 15  1  1
 14 13  1  0
 15 16  2  0
 18 17  1  0
 19 18  1  0
 20 19  1  0
 21 20  1  6
 22 21  1  0
 22 15  1  0
 23 24  1  0
 23 21  1  0
 25 23  2  0
M  END
$$$$
