EGV.pdb
     RDKit          3D

 21 20  0  0  1  0  0  0  0  0999 V2000
   17.8575   -8.7351  -15.9714 N   0  0  0  0  0  0  0  0  0  0  0  0
   17.0068   -8.7280  -14.8022 C   0  0  1  0  0  0  0  0  0  0  0  0
   16.2537   -9.9983  -14.6110 C   0  0  0  0  0  0  0  0  0  0  0  0
   15.2677  -10.3170  -15.6771 C   0  0  0  0  0  0  0  0  0  0  0  0
   14.5724  -11.6152  -15.5161 C   0  0  0  0  0  0  0  0  0  0  0  0
   14.9009  -12.4147  -14.5833 O   0  0  0  0  0  0  0  0  0  0  0  0
   17.8960   -8.5320  -13.6056 C   0  0  0  0  0  0  0  0  0  0  0  0
   17.4157   -8.3899  -12.4530 O   0  0  0  0  0  0  0  0  0  0  0  0
   13.5425  -12.0656  -16.3279 O   0  0  0  0  0  0  0  0  0  0  0  0
   19.3105   -8.5010  -13.7388 N   0  0  0  0  0  0  0  0  0  0  0  0
   20.1913   -8.2946  -12.5935 C   0  0  0  0  0  0  0  0  0  0  0  0
   21.0732   -7.1219  -12.8404 C   0  0  0  0  0  0  0  0  0  0  0  0
   21.9976   -6.8574  -11.9994 O   0  0  0  0  0  0  0  0  0  0  0  0
   23.1101   -6.7198  -15.9070 C   0  0  0  0  0  0  0  0  0  0  0  0
   22.3654   -5.4204  -15.7227 C   0  0  1  0  0  0  0  0  0  0  0  0
   21.2628   -5.2214  -16.7196 C   0  0  0  0  0  0  0  0  0  0  0  0
   21.8991   -5.2935  -14.2888 C   0  0  2  0  0  0  0  0  0  0  0  0
   20.8995   -6.3116  -13.9789 N   0  0  0  0  0  0  0  0  0  0  0  0
   21.3363   -3.9456  -14.1132 C   0  0  0  0  0  0  0  0  0  0  0  0
   20.0934   -3.8058  -14.0401 O   0  0  0  0  0  0  0  0  0  0  0  0
   22.1568   -2.8428  -14.0290 O   0  0  0  0  0  0  0  0  0  0  0  0
  2  1  1  6
  3  2  1  0
  4  5  1  0
  4  3  1  0
  5  6  2  0
  7  2  1  0
  8  7  2  0
  9  5  1  0
 10  7  1  0
 11 12  1  0
 11 10  1  0
 12 18  1  0
 13 12  2  0
 15 14  1  1
 15 16  1  0
 17 18  1  6
 17 15  1  0
 19 17  1  0
 20 19  2  0
 21 19  1  0
M  END
$$$$
