EGV.pdb
     RDKit          3D

 21 20  0  0  1  0  0  0  0  0999 V2000
   21.4278  -13.2642  -17.4071 N   0  0  0  0  0  0  0  0  0  0  0  0
   20.4974  -12.1920  -17.6819 C   0  0  1  0  0  0  0  0  0  0  0  0
   19.1404  -12.6701  -18.0653 C   0  0  0  0  0  0  0  0  0  0  0  0
   19.0705  -13.4149  -19.3503 C   0  0  0  0  0  0  0  0  0  0  0  0
   18.7939  -12.5790  -20.5417 C   0  0  0  0  0  0  0  0  0  0  0  0
   18.5575  -11.3354  -20.4198 O   0  0  0  0  0  0  0  0  0  0  0  0
   20.3646  -11.3833  -16.4212 C   0  0  0  0  0  0  0  0  0  0  0  0
   19.7966  -11.8521  -15.4030 O   0  0  0  0  0  0  0  0  0  0  0  0
   18.7674  -13.0476  -21.8464 O   0  0  0  0  0  0  0  0  0  0  0  0
   20.8778  -10.0607  -16.3396 N   0  0  0  0  0  0  0  0  0  0  0  0
   20.7371   -9.2490  -15.1348 C   0  0  0  0  0  0  0  0  0  0  0  0
   21.3491   -7.9106  -15.3539 C   0  0  0  0  0  0  0  0  0  0  0  0
   22.0915   -7.7320  -16.3779 O   0  0  0  0  0  0  0  0  0  0  0  0
   21.2113   -3.1749  -15.2695 C   0  0  0  0  0  0  0  0  0  0  0  0
   20.6155   -4.5527  -15.1162 C   0  0  1  0  0  0  0  0  0  0  0  0
   19.8148   -4.9892  -16.3069 C   0  0  0  0  0  0  0  0  0  0  0  0
   21.6956   -5.5406  -14.7328 C   0  0  2  0  0  0  0  0  0  0  0  0
   21.1196   -6.8527  -14.4532 N   0  0  0  0  0  0  0  0  0  0  0  0
   22.3883   -5.0161  -13.5455 C   0  0  0  0  0  0  0  0  0  0  0  0
   21.9783   -5.3369  -12.4059 O   0  0  0  0  0  0  0  0  0  0  0  0
   23.4760   -4.1813  -13.6734 O   0  0  0  0  0  0  0  0  0  0  0  0
  2  1  1  1
  3  2  1  0
  4  5  1  0
  4  3  1  0
  5  6  2  0
  7  2  1  0
  8  7  2  0
  9  5  1  0
 10  7  1  0
 11 12  1  0
 11 10  1  0
 12 18  1  0
 13 12  2  0
 15 14  1  6
 15 16  1  0
 17 18  1  1
 17 15  1  0
 19 17  1  0
 20 19  2  0
 21 19  1  0
M  END
$$$$
