EGV.pdb
     RDKit          3D

 21 20  0  0  1  0  0  0  0  0999 V2000
   21.8440  -19.2227  -13.5044 N   0  0  0  0  0  0  0  0  0  0  0  0
   22.0519  -20.5142  -14.1203 C   0  0  1  0  0  0  0  0  0  0  0  0
   22.6147  -20.4296  -15.4963 C   0  0  0  0  0  0  0  0  0  0  0  0
   22.1892  -19.2419  -16.2830 C   0  0  0  0  0  0  0  0  0  0  0  0
   22.7813  -19.1459  -17.6377 C   0  0  0  0  0  0  0  0  0  0  0  0
   22.1729  -19.6260  -18.6460 O   0  0  0  0  0  0  0  0  0  0  0  0
   23.0342  -21.2636  -13.2633 C   0  0  0  0  0  0  0  0  0  0  0  0
   23.4734  -22.3895  -13.6077 O   0  0  0  0  0  0  0  0  0  0  0  0
   23.9997  -18.5507  -17.9267 O   0  0  0  0  0  0  0  0  0  0  0  0
   23.4989  -20.7224  -12.0342 N   0  0  0  0  0  0  0  0  0  0  0  0
   24.3602  -21.4798  -11.1317 C   0  0  0  0  0  0  0  0  0  0  0  0
   25.4891  -20.6245  -10.6754 C   0  0  0  0  0  0  0  0  0  0  0  0
   25.9317  -19.7178  -11.4588 O   0  0  0  0  0  0  0  0  0  0  0  0
   28.9397  -19.5107   -7.3327 C   0  0  0  0  0  0  0  0  0  0  0  0
   27.6119  -20.1684   -7.6174 C   0  0  1  0  0  0  0  0  0  0  0  0
   26.4795  -19.5880   -6.8236 C   0  0  0  0  0  0  0  0  0  0  0  0
   27.3499  -20.1748   -9.1076 C   0  0  2  0  0  0  0  0  0  0  0  0
   26.0661  -20.8042   -9.4035 N   0  0  0  0  0  0  0  0  0  0  0  0
   28.4474  -20.9083   -9.7573 C   0  0  0  0  0  0  0  0  0  0  0  0
   28.4390  -22.1610   -9.7438 O   0  0  0  0  0  0  0  0  0  0  0  0
   29.4775  -20.2358  -10.3762 O   0  0  0  0  0  0  0  0  0  0  0  0
  2  1  1  1
  3  2  1  0
  4  5  1  0
  4  3  1  0
  5  6  2  0
  7  2  1  0
  8  7  2  0
  9  5  1  0
 10  7  1  0
 11 12  1  0
 11 10  1  0
 12 18  1  0
 13 12  2  0
 15 14  1  6
 15 16  1  0
 17 18  1  1
 17 15  1  0
 19 17  1  0
 20 19  2  0
 21 19  1  0
M  END
$$$$
