IQW.pdb
     RDKit          3D

 32 33  0  0  1  0  0  0  0  0999 V2000
    7.5866  -11.7770   18.7524 C   0  0  0  0  0  0  0  0  0  0  0  0
    8.3663  -12.9795   18.3230 C   0  0  0  0  0  0  0  0  0  0  0  0
    8.1034  -14.0964   19.3216 C   0  0  2  0  0  0  0  0  0  0  0  0
    8.5453  -13.7091   20.7090 C   0  0  0  0  0  0  0  0  0  0  0  0
    8.9431  -15.2836   18.8829 C   0  0  2  0  0  0  0  0  0  0  0  0
    8.5355  -15.7541   17.5729 N   0  0  0  0  0  0  0  0  0  0  0  0
    8.7385  -16.3838   19.8532 C   0  0  0  0  0  0  0  0  0  0  0  0
    8.0384  -17.4041   19.5771 O   0  0  0  0  0  0  0  0  0  0  0  0
   11.3576  -20.4672   19.2160 N   0  0  0  0  0  0  0  0  0  0  0  0
   11.4224  -20.0600   20.5820 C   0  0  0  0  0  0  0  0  0  0  0  0
   11.8535  -20.8322   21.4600 O   0  0  0  0  0  0  0  0  0  0  0  0
   10.9710  -18.7109   20.9444 C   0  0  0  0  0  0  0  0  0  0  0  0
    9.5542  -18.6306   21.3852 C   0  0  0  0  0  0  0  0  0  0  0  0
    9.1260  -17.4026   22.1018 C   0  0  2  0  0  0  0  0  0  0  0  0
    9.3370  -16.3017   21.1244 N   0  0  0  0  0  0  0  0  0  0  0  0
    9.8714  -17.0439   23.3057 C   0  0  0  0  0  0  0  0  0  0  0  0
   11.0436  -16.6014   23.1960 O   0  0  0  0  0  0  0  0  0  0  0  0
    9.3628  -17.1569   24.6067 N   0  0  0  0  0  0  0  0  0  0  0  0
   10.1811  -16.7637   25.7678 C   0  0  1  0  0  0  0  0  0  0  0  0
    9.8436  -15.3214   25.9974 C   0  0  0  0  0  0  0  0  0  0  0  0
    8.4307  -14.9636   26.0434 C   0  0  0  0  0  0  0  0  0  0  0  0
    7.3761  -15.8467   25.7683 C   0  0  0  0  0  0  0  0  0  0  0  0
    6.2461  -15.1582   25.8772 N   0  0  0  0  0  0  0  0  0  0  0  0
    6.5194  -13.8853   26.2071 C   0  0  0  0  0  0  0  0  0  0  0  0
    5.7093  -12.7965   26.4498 C   0  0  0  0  0  0  0  0  0  0  0  0
    6.2449  -11.5711   26.8002 C   0  0  0  0  0  0  0  0  0  0  0  0
    7.5961  -11.4275   26.9099 C   0  0  0  0  0  0  0  0  0  0  0  0
    8.4207  -12.4825   26.6762 C   0  0  0  0  0  0  0  0  0  0  0  0
    7.8946  -13.7267   26.3208 C   0  0  0  0  0  0  0  0  0  0  0  0
    9.8347  -17.6517   26.8781 C   0  0  0  0  0  0  0  0  0  0  0  0
    8.9222  -18.5212   26.8394 O   0  0  0  0  0  0  0  0  0  0  0  0
   10.5304  -17.5662   28.0719 O   0  0  0  0  0  0  0  0  0  0  0  0
  2  1  1  0
  3  4  1  1
  3  5  1  0
  3  2  1  0
  5  6  1  6
  7  5  1  0
  7  8  2  0
 10  9  1  0
 10 12  1  0
 11 10  2  0
 12 13  1  0
 14 13  1  6
 14 15  1  0
 15  7  1  0
 16 17  2  0
 16 14  1  0
 18 16  1  0
 19 18  1  0
 19 20  1  1
 20 21  1  0
 21 29  1  0
 21 22  2  0
 22 23  1  0
 24 23  1  0
 24 25  2  0
 26 25  1  0
 27 26  2  0
 28 29  2  0
 28 27  1  0
 29 24  1  0
 30 19  1  0
 31 30  2  0
 32 30  1  0
M  END
$$$$
