IQW.pdb
     RDKit          3D

 32 33  0  0  1  0  0  0  0  0999 V2000
    6.9893  -22.2002   23.0659 C   0  0  0  0  0  0  0  0  0  0  0  0
    6.7155  -21.0996   22.0901 C   0  0  0  0  0  0  0  0  0  0  0  0
    7.8327  -20.0739   22.2064 C   0  0  2  0  0  0  0  0  0  0  0  0
    7.9135  -19.5040   23.5989 C   0  0  0  0  0  0  0  0  0  0  0  0
    7.4851  -18.9375   21.2607 C   0  0  2  0  0  0  0  0  0  0  0  0
    7.2857  -19.4265   19.9099 N   0  0  0  0  0  0  0  0  0  0  0  0
    8.6165  -17.9818   21.2437 C   0  0  0  0  0  0  0  0  0  0  0  0
    9.7000  -18.2312   20.6343 O   0  0  0  0  0  0  0  0  0  0  0  0
    7.5560  -12.2025   20.2053 N   0  0  0  0  0  0  0  0  0  0  0  0
    7.6082  -13.5370   19.7031 C   0  0  0  0  0  0  0  0  0  0  0  0
    7.4299  -13.7724   18.4924 O   0  0  0  0  0  0  0  0  0  0  0  0
    7.8751  -14.6384   20.6363 C   0  0  0  0  0  0  0  0  0  0  0  0
    9.2437  -14.6403   21.2152 C   0  0  0  0  0  0  0  0  0  0  0  0
    9.6611  -15.8374   21.9883 C   0  0  2  0  0  0  0  0  0  0  0  0
    8.4930  -16.7555   21.9232 N   0  0  0  0  0  0  0  0  0  0  0  0
    9.9618  -15.6402   23.4041 C   0  0  0  0  0  0  0  0  0  0  0  0
   10.7946  -14.7599   23.7408 O   0  0  0  0  0  0  0  0  0  0  0  0
    9.3738  -16.3767   24.4414 N   0  0  0  0  0  0  0  0  0  0  0  0
   10.0111  -16.4418   25.7687 C   0  0  1  0  0  0  0  0  0  0  0  0
    8.8897  -16.2192   26.7381 C   0  0  0  0  0  0  0  0  0  0  0  0
    7.7294  -15.4763   26.2605 C   0  0  0  0  0  0  0  0  0  0  0  0
    6.6022  -16.0583   25.6619 C   0  0  0  0  0  0  0  0  0  0  0  0
    5.7775  -15.0719   25.3308 N   0  0  0  0  0  0  0  0  0  0  0  0
    6.3140  -13.8927   25.6849 C   0  0  0  0  0  0  0  0  0  0  0  0
    5.8565  -12.5967   25.5770 C   0  0  0  0  0  0  0  0  0  0  0  0
    6.6048  -11.5331   26.0461 C   0  0  0  0  0  0  0  0  0  0  0  0
    7.8172  -11.7601   26.6266 C   0  0  0  0  0  0  0  0  0  0  0  0
    8.2954  -13.0269   26.7466 C   0  0  0  0  0  0  0  0  0  0  0  0
    7.5511  -14.1116   26.2771 C   0  0  0  0  0  0  0  0  0  0  0  0
   10.6641  -17.7461   25.8859 C   0  0  0  0  0  0  0  0  0  0  0  0
   11.3552  -18.1126   26.8750 O   0  0  0  0  0  0  0  0  0  0  0  0
   10.5416  -18.6725   24.8646 O   0  0  0  0  0  0  0  0  0  0  0  0
  2  1  1  0
  3  4  1  1
  3  5  1  0
  3  2  1  0
  5  6  1  6
  7  5  1  0
  7  8  2  0
 10  9  1  0
 10 12  1  0
 11 10  2  0
 12 13  1  0
 14 13  1  1
 14 15  1  0
 15  7  1  0
 16 17  2  0
 16 14  1  0
 18 16  1  0
 19 18  1  0
 19 20  1  1
 20 21  1  0
 21 29  1  0
 21 22  2  0
 22 23  1  0
 24 23  1  0
 24 25  2  0
 26 25  1  0
 27 26  2  0
 28 29  2  0
 28 27  1  0
 29 24  1  0
 30 19  1  0
 31 30  2  0
 32 30  1  0
M  END
$$$$
