IQW.pdb
     RDKit          3D

 32 33  0  0  1  0  0  0  0  0999 V2000
    7.2900  -11.6322   20.0795 C   0  0  0  0  0  0  0  0  0  0  0  0
    7.6241  -12.9730   19.5059 C   0  0  0  0  0  0  0  0  0  0  0  0
    7.8066  -13.9494   20.6577 C   0  0  2  0  0  0  0  0  0  0  0  0
    8.9572  -13.5467   21.5433 C   0  0  0  0  0  0  0  0  0  0  0  0
    8.1457  -15.2958   20.0420 C   0  0  2  0  0  0  0  0  0  0  0  0
    7.0556  -15.7806   19.2172 N   0  0  0  0  0  0  0  0  0  0  0  0
    8.3639  -16.2684   21.1376 C   0  0  0  0  0  0  0  0  0  0  0  0
    7.4036  -16.7573   21.8056 O   0  0  0  0  0  0  0  0  0  0  0  0
   12.8290  -20.3249   20.9536 N   0  0  0  0  0  0  0  0  0  0  0  0
   12.4781  -20.5012   22.3254 C   0  0  0  0  0  0  0  0  0  0  0  0
   13.0429  -21.3647   23.0243 O   0  0  0  0  0  0  0  0  0  0  0  0
   11.4353  -19.6481   22.9083 C   0  0  0  0  0  0  0  0  0  0  0  0
   10.9515  -18.5644   22.0141 C   0  0  0  0  0  0  0  0  0  0  0  0
    9.8942  -17.6625   22.5371 C   0  0  2  0  0  0  0  0  0  0  0  0
    9.6760  -16.6677   21.4533 N   0  0  0  0  0  0  0  0  0  0  0  0
   10.2079  -16.9045   23.7457 C   0  0  0  0  0  0  0  0  0  0  0  0
   10.9925  -15.9243   23.6725 O   0  0  0  0  0  0  0  0  0  0  0  0
    9.6837  -17.1950   25.0126 N   0  0  0  0  0  0  0  0  0  0  0  0
   10.1020  -16.4175   26.1927 C   0  0  1  0  0  0  0  0  0  0  0  0
    8.8562  -16.2780   27.0147 C   0  0  0  0  0  0  0  0  0  0  0  0
    7.7711  -15.4803   26.4557 C   0  0  0  0  0  0  0  0  0  0  0  0
    6.6077  -16.0111   25.8792 C   0  0  0  0  0  0  0  0  0  0  0  0
    5.8753  -14.9881   25.4549 N   0  0  0  0  0  0  0  0  0  0  0  0
    6.5050  -13.8339   25.7286 C   0  0  0  0  0  0  0  0  0  0  0  0
    6.1615  -12.5166   25.5109 C   0  0  0  0  0  0  0  0  0  0  0  0
    6.9905  -11.4859   25.9129 C   0  0  0  0  0  0  0  0  0  0  0  0
    8.1700  -11.7674   26.5357 C   0  0  0  0  0  0  0  0  0  0  0  0
    8.5365  -13.0563   26.7637 C   0  0  0  0  0  0  0  0  0  0  0  0
    7.7097  -14.1085   26.3630 C   0  0  0  0  0  0  0  0  0  0  0  0
   11.1831  -17.1524   26.8502 C   0  0  0  0  0  0  0  0  0  0  0  0
   11.8519  -16.7173   27.8267 O   0  0  0  0  0  0  0  0  0  0  0  0
   11.5296  -18.4157   26.4024 O   0  0  0  0  0  0  0  0  0  0  0  0
  2  1  1  0
  3  4  1  1
  3  5  1  0
  3  2  1  0
  5  6  1  6
  7  5  1  0
  7  8  2  0
 10  9  1  0
 10 12  1  0
 11 10  2  0
 12 13  1  0
 14 13  1  6
 14 15  1  0
 15  7  1  0
 16 17  2  0
 16 14  1  0
 18 16  1  0
 19 18  1  0
 19 20  1  1
 20 21  1  0
 21 29  1  0
 21 22  2  0
 22 23  1  0
 24 23  1  0
 24 25  2  0
 26 25  1  0
 27 26  2  0
 28 29  2  0
 28 27  1  0
 29 24  1  0
 30 19  1  0
 31 30  2  0
 32 30  1  0
M  END
$$$$
