IQW.pdb
     RDKit          3D

 32 33  0  0  1  0  0  0  0  0999 V2000
    7.1437  -12.0368   19.1652 C   0  0  0  0  0  0  0  0  0  0  0  0
    8.3027  -12.6700   19.8682 C   0  0  0  0  0  0  0  0  0  0  0  0
    7.7764  -13.8282   20.7018 C   0  0  2  0  0  0  0  0  0  0  0  0
    6.8188  -13.3517   21.7631 C   0  0  0  0  0  0  0  0  0  0  0  0
    8.9747  -14.4445   21.4026 C   0  0  2  0  0  0  0  0  0  0  0  0
   10.0438  -14.7190   20.4617 N   0  0  0  0  0  0  0  0  0  0  0  0
    8.5517  -15.7281   22.0086 C   0  0  0  0  0  0  0  0  0  0  0  0
    7.3794  -15.9075   22.4570 O   0  0  0  0  0  0  0  0  0  0  0  0
   11.6094  -22.0051   22.3236 N   0  0  0  0  0  0  0  0  0  0  0  0
   10.3997  -21.5129   21.7489 C   0  0  0  0  0  0  0  0  0  0  0  0
   10.0104  -21.9153   20.6355 O   0  0  0  0  0  0  0  0  0  0  0  0
    9.6134  -20.5186   22.4892 C   0  0  0  0  0  0  0  0  0  0  0  0
    9.7953  -19.1180   22.0273 C   0  0  0  0  0  0  0  0  0  0  0  0
    9.0734  -18.0514   22.7663 C   0  0  2  0  0  0  0  0  0  0  0  0
    9.4744  -16.7874   22.0931 N   0  0  0  0  0  0  0  0  0  0  0  0
    9.3941  -17.8929   24.1825 C   0  0  0  0  0  0  0  0  0  0  0  0
    9.1428  -18.8320   24.9804 O   0  0  0  0  0  0  0  0  0  0  0  0
    9.9784  -16.7432   24.7311 N   0  0  0  0  0  0  0  0  0  0  0  0
   10.0670  -16.5721   26.1923 C   0  0  1  0  0  0  0  0  0  0  0  0
    8.6429  -16.5715   26.6601 C   0  0  0  0  0  0  0  0  0  0  0  0
    7.7598  -15.5469   26.1154 C   0  0  0  0  0  0  0  0  0  0  0  0
    6.5456  -15.8068   25.4630 C   0  0  0  0  0  0  0  0  0  0  0  0
    6.0450  -14.6382   25.0804 N   0  0  0  0  0  0  0  0  0  0  0  0
    6.8706  -13.6463   25.4524 C   0  0  0  0  0  0  0  0  0  0  0  0
    6.7975  -12.2771   25.3094 C   0  0  0  0  0  0  0  0  0  0  0  0
    7.7886  -11.4525   25.8085 C   0  0  0  0  0  0  0  0  0  0  0  0
    8.8602  -11.9936   26.4543 C   0  0  0  0  0  0  0  0  0  0  0  0
    8.9607  -13.3402   26.6102 C   0  0  0  0  0  0  0  0  0  0  0  0
    7.9677  -14.1864   26.1111 C   0  0  0  0  0  0  0  0  0  0  0  0
   10.8784  -17.6692   26.7209 C   0  0  0  0  0  0  0  0  0  0  0  0
   11.3449  -18.6121   26.0255 O   0  0  0  0  0  0  0  0  0  0  0  0
   11.1792  -17.7154   28.0714 O   0  0  0  0  0  0  0  0  0  0  0  0
  2  1  1  0
  3  4  1  1
  3  5  1  0
  3  2  1  0
  5  6  1  6
  7  5  1  0
  7  8  2  0
 10  9  1  0
 10 12  1  0
 11 10  2  0
 12 13  1  0
 14 13  1  6
 14 15  1  0
 15  7  1  0
 16 17  2  0
 16 14  1  0
 18 16  1  0
 19 18  1  0
 19 20  1  1
 20 21  1  0
 21 29  1  0
 21 22  2  0
 22 23  1  0
 24 23  1  0
 24 25  2  0
 26 25  1  0
 27 26  2  0
 28 29  2  0
 28 27  1  0
 29 24  1  0
 30 19  1  0
 31 30  2  0
 32 30  1  0
M  END
$$$$
