FPP.pdb
     RDKit          3D

 26 28  0  0  1  0  0  0  0  0999 V2000
   24.7601  -22.1988  -11.8576 N   0  0  0  0  0  0  0  0  0  0  0  0
   25.5422  -21.0320  -11.3890 C   0  0  1  0  0  0  0  0  0  0  0  0
   24.4973  -19.9340  -11.2430 C   0  0  0  0  0  0  0  0  0  0  0  0
   23.9114  -19.5649  -12.5394 C   0  0  0  0  0  0  0  0  0  0  0  0
   22.5618  -19.7511  -12.7395 C   0  0  0  0  0  0  0  0  0  0  0  0
   21.9366  -19.4295  -13.9287 C   0  0  0  0  0  0  0  0  0  0  0  0
   22.6635  -18.9037  -14.9647 C   0  0  0  0  0  0  0  0  0  0  0  0
   24.0154  -18.7107  -14.7818 C   0  0  0  0  0  0  0  0  0  0  0  0
   24.6348  -19.0331  -13.5935 C   0  0  0  0  0  0  0  0  0  0  0  0
   26.2274  -21.3736  -10.1438 C   0  0  0  0  0  0  0  0  0  0  0  0
   25.4996  -21.5299   -9.0997 O   0  0  0  0  0  0  0  0  0  0  0  0
   27.6349  -21.5525   -9.9830 N   0  0  0  0  0  0  0  0  0  0  0  0
   28.4808  -22.1722  -10.9730 C   0  0  0  0  0  0  0  0  0  0  0  0
   29.6908  -21.2757  -10.9123 C   0  0  0  0  0  0  0  0  0  0  0  0
   29.7793  -20.8229   -9.4757 C   0  0  0  0  0  0  0  0  0  0  0  0
   28.4717  -21.2408   -8.8790 C   0  0  1  0  0  0  0  0  0  0  0  0
   27.9595  -20.2662   -7.9017 C   0  0  0  0  0  0  0  0  0  0  0  0
   27.5069  -19.1816   -8.3660 O   0  0  0  0  0  0  0  0  0  0  0  0
   27.9507  -20.4897   -6.5281 N   0  0  0  0  0  0  0  0  0  0  0  0
   27.8128  -21.8382   -5.9260 C   0  0  0  0  0  0  0  0  0  0  0  0
   28.8505  -21.7950   -4.8360 C   0  0  0  0  0  0  0  0  0  0  0  0
   29.2045  -20.3480   -4.6303 C   0  0  0  0  0  0  0  0  0  0  0  0
   28.0336  -19.6646   -5.3529 C   0  0  1  0  0  0  0  0  0  0  0  0
   28.2220  -18.2531   -5.4453 C   0  0  0  0  0  0  0  0  0  0  0  0
   29.2743  -17.5807   -5.9652 O   0  0  0  0  0  0  0  0  0  0  0  0
   27.2763  -17.5105   -4.9764 O   0  0  0  0  0  0  0  0  0  0  0  0
  2  1  1  1
  3  2  1  0
  4  3  1  0
  5  4  2  0
  6  5  1  0
  7  8  1  0
  7  6  2  0
  8  9  2  0
  9  4  1  0
 10  2  1  0
 10 12  1  0
 11 10  2  0
 12 13  1  0
 13 14  1  0
 15 14  1  0
 16 12  1  0
 16 15  1  0
 16 17  1  6
 18 17  2  0
 19 20  1  0
 19 17  1  0
 21 20  1  0
 22 23  1  0
 22 21  1  0
 23 24  1  6
 23 19  1  0
 24 25  1  0
 26 24  2  0
M  END
$$$$
