FPP.pdb
     RDKit          3D

 26 28  0  0  1  0  0  0  0  0999 V2000
   24.4806  -20.0678  -15.1711 N   0  0  0  0  0  0  0  0  0  0  0  0
   25.4706  -19.3728  -14.3168 C   0  0  1  0  0  0  0  0  0  0  0  0
   24.9291  -17.9528  -14.2215 C   0  0  0  0  0  0  0  0  0  0  0  0
   25.4409  -17.1017  -15.3049 C   0  0  0  0  0  0  0  0  0  0  0  0
   26.7485  -16.6730  -15.2562 C   0  0  0  0  0  0  0  0  0  0  0  0
   27.3037  -15.8714  -16.2350 C   0  0  0  0  0  0  0  0  0  0  0  0
   26.5464  -15.4734  -17.3057 C   0  0  0  0  0  0  0  0  0  0  0  0
   25.2358  -15.8932  -17.3705 C   0  0  0  0  0  0  0  0  0  0  0  0
   24.6863  -16.6929  -16.3915 C   0  0  0  0  0  0  0  0  0  0  0  0
   25.5720  -20.0607  -13.0311 C   0  0  0  0  0  0  0  0  0  0  0  0
   24.5709  -19.9644  -12.2357 O   0  0  0  0  0  0  0  0  0  0  0  0
   26.6841  -20.8342  -12.5793 N   0  0  0  0  0  0  0  0  0  0  0  0
   27.5156  -21.6255  -13.4522 C   0  0  0  0  0  0  0  0  0  0  0  0
   28.8802  -21.3370  -12.8812 C   0  0  0  0  0  0  0  0  0  0  0  0
   28.6598  -21.1442  -11.4010 C   0  0  0  0  0  0  0  0  0  0  0  0
   27.1729  -21.0423  -11.2625 C   0  0  1  0  0  0  0  0  0  0  0  0
   26.7666  -20.0711  -10.2335 C   0  0  0  0  0  0  0  0  0  0  0  0
   27.0702  -18.8625  -10.4428 O   0  0  0  0  0  0  0  0  0  0  0  0
   26.0773  -20.4225   -9.0766 N   0  0  0  0  0  0  0  0  0  0  0  0
   24.8334  -21.2302   -9.0867 C   0  0  0  0  0  0  0  0  0  0  0  0
   25.0808  -22.1888   -7.9524 C   0  0  0  0  0  0  0  0  0  0  0  0
   26.2136  -21.6207   -7.1428 C   0  0  0  0  0  0  0  0  0  0  0  0
   26.2416  -20.1775   -7.6690 C   0  0  1  0  0  0  0  0  0  0  0  0
   27.3631  -19.4536   -7.1646 C   0  0  0  0  0  0  0  0  0  0  0  0
   28.6773  -19.6823   -7.3887 O   0  0  0  0  0  0  0  0  0  0  0  0
   27.1064  -18.4504   -6.3943 O   0  0  0  0  0  0  0  0  0  0  0  0
  2  1  1  6
  3  2  1  0
  4  3  1  0
  5  4  2  0
  6  5  1  0
  7  8  1  0
  7  6  2  0
  8  9  2  0
  9  4  1  0
 10  2  1  0
 10 12  1  0
 11 10  2  0
 12 13  1  0
 13 14  1  0
 15 14  1  0
 16 12  1  0
 16 15  1  0
 16 17  1  1
 18 17  2  0
 19 20  1  0
 19 17  1  0
 21 20  1  0
 22 23  1  0
 22 21  1  0
 23 24  1  6
 23 19  1  0
 24 25  1  0
 26 24  2  0
M  END
$$$$
