FPP.pdb
     RDKit          3D

 26 28  0  0  1  0  0  0  0  0999 V2000
   25.7641  -21.9557  -18.6174 N   0  0  0  0  0  0  0  0  0  0  0  0
   25.1278  -21.0462  -17.6372 C   0  0  1  0  0  0  0  0  0  0  0  0
   23.6899  -21.5423  -17.5672 C   0  0  0  0  0  0  0  0  0  0  0  0
   22.7417  -20.4363  -17.3733 C   0  0  0  0  0  0  0  0  0  0  0  0
   22.1918  -20.2390  -16.1264 C   0  0  0  0  0  0  0  0  0  0  0  0
   21.2938  -19.2225  -15.8637 C   0  0  0  0  0  0  0  0  0  0  0  0
   20.9190  -18.3638  -16.8639 C   0  0  0  0  0  0  0  0  0  0  0  0
   21.4595  -18.5467  -18.1179 C   0  0  0  0  0  0  0  0  0  0  0  0
   22.3552  -19.5623  -18.3753 C   0  0  0  0  0  0  0  0  0  0  0  0
   25.8473  -21.1194  -16.3669 C   0  0  0  0  0  0  0  0  0  0  0  0
   25.8008  -22.2323  -15.7318 O   0  0  0  0  0  0  0  0  0  0  0  0
   26.6011  -20.0647  -15.7681 N   0  0  0  0  0  0  0  0  0  0  0  0
   27.4119  -19.1362  -16.5165 C   0  0  0  0  0  0  0  0  0  0  0  0
   27.0994  -17.8472  -15.8008 C   0  0  0  0  0  0  0  0  0  0  0  0
   26.8661  -18.2370  -14.3620 C   0  0  0  0  0  0  0  0  0  0  0  0
   26.7691  -19.7303  -14.3984 C   0  0  1  0  0  0  0  0  0  0  0  0
   25.7716  -20.2549  -13.4514 C   0  0  0  0  0  0  0  0  0  0  0  0
   24.5568  -20.0864  -13.7557 O   0  0  0  0  0  0  0  0  0  0  0  0
   26.1059  -20.9137  -12.2719 N   0  0  0  0  0  0  0  0  0  0  0  0
   27.3570  -21.6925  -12.1038 C   0  0  0  0  0  0  0  0  0  0  0  0
   27.8078  -21.2572  -10.7349 C   0  0  0  0  0  0  0  0  0  0  0  0
   26.6235  -20.6077  -10.0737 C   0  0  0  0  0  0  0  0  0  0  0  0
   25.4876  -21.0948  -10.9861 C   0  0  1  0  0  0  0  0  0  0  0  0
   24.2459  -20.4707  -10.6620 C   0  0  0  0  0  0  0  0  0  0  0  0
   23.1490  -21.0290  -10.1010 O   0  0  0  0  0  0  0  0  0  0  0  0
   24.1411  -19.2133  -10.9338 O   0  0  0  0  0  0  0  0  0  0  0  0
  2  1  1  6
  3  2  1  0
  4  3  1  0
  5  4  2  0
  6  5  1  0
  7  8  1  0
  7  6  2  0
  8  9  2  0
  9  4  1  0
 10  2  1  0
 10 12  1  0
 11 10  2  0
 12 13  1  0
 13 14  1  0
 15 14  1  0
 16 12  1  0
 16 15  1  0
 16 17  1  1
 18 17  2  0
 19 20  1  0
 19 17  1  0
 21 20  1  0
 22 23  1  0
 22 21  1  0
 23 24  1  6
 23 19  1  0
 24 25  1  0
 26 24  2  0
M  END
$$$$
