FPP.pdb
     RDKit          3D

 26 28  0  0  1  0  0  0  0  0999 V2000
   25.1277  -22.1092  -11.8870 N   0  0  0  0  0  0  0  0  0  0  0  0
   25.9089  -20.9632  -11.3679 C   0  0  1  0  0  0  0  0  0  0  0  0
   24.8616  -19.8767  -11.1650 C   0  0  0  0  0  0  0  0  0  0  0  0
   24.2425  -19.4739  -12.4356 C   0  0  0  0  0  0  0  0  0  0  0  0
   25.0082  -18.8174  -13.3730 C   0  0  0  0  0  0  0  0  0  0  0  0
   24.5003  -18.4064  -14.5903 C   0  0  0  0  0  0  0  0  0  0  0  0
   23.1879  -18.6486  -14.9021 C   0  0  0  0  0  0  0  0  0  0  0  0
   22.4071  -19.3045  -13.9757 C   0  0  0  0  0  0  0  0  0  0  0  0
   22.9183  -19.7126  -12.7624 C   0  0  0  0  0  0  0  0  0  0  0  0
   26.6016  -21.3610  -10.1438 C   0  0  0  0  0  0  0  0  0  0  0  0
   25.8777  -21.5927   -9.1111 O   0  0  0  0  0  0  0  0  0  0  0  0
   28.0127  -21.5186   -9.9922 N   0  0  0  0  0  0  0  0  0  0  0  0
   28.8650  -22.1035  -10.9977 C   0  0  0  0  0  0  0  0  0  0  0  0
   30.0594  -21.1875  -10.9239 C   0  0  0  0  0  0  0  0  0  0  0  0
   30.1463  -20.7620   -9.4788 C   0  0  0  0  0  0  0  0  0  0  0  0
   28.8487  -21.2145   -8.8854 C   0  0  1  0  0  0  0  0  0  0  0  0
   28.3239  -20.2687   -7.8868 C   0  0  0  0  0  0  0  0  0  0  0  0
   27.8669  -19.1756   -8.3259 O   0  0  0  0  0  0  0  0  0  0  0  0
   28.3081  -20.5274   -6.5194 N   0  0  0  0  0  0  0  0  0  0  0  0
   28.3618  -21.8967   -5.9518 C   0  0  0  0  0  0  0  0  0  0  0  0
   29.3469  -21.7238   -4.8264 C   0  0  0  0  0  0  0  0  0  0  0  0
   29.4670  -20.2456   -4.5774 C   0  0  0  0  0  0  0  0  0  0  0  0
   28.2271  -19.7311   -5.3245 C   0  0  1  0  0  0  0  0  0  0  0  0
   28.1981  -18.3055   -5.3798 C   0  0  0  0  0  0  0  0  0  0  0  0
   29.2428  -17.4464   -5.3959 O   0  0  0  0  0  0  0  0  0  0  0  0
   27.0334  -17.7507   -5.4191 O   0  0  0  0  0  0  0  0  0  0  0  0
  2  1  1  1
  3  2  1  0
  4  3  1  0
  5  4  2  0
  6  5  1  0
  7  8  1  0
  7  6  2  0
  8  9  2  0
  9  4  1  0
 10  2  1  0
 10 12  1  0
 11 10  2  0
 12 13  1  0
 13 14  1  0
 15 14  1  0
 16 12  1  0
 16 15  1  0
 16 17  1  6
 18 17  2  0
 19 20  1  0
 19 17  1  0
 21 20  1  0
 22 23  1  0
 22 21  1  0
 23 24  1  6
 23 19  1  0
 24 25  1  0
 26 24  2  0
M  END
$$$$
