FPP.pdb
     RDKit          3D

 26 28  0  0  1  0  0  0  0  0999 V2000
   24.5165  -21.7000  -12.0067 N   0  0  0  0  0  0  0  0  0  0  0  0
   25.7294  -20.8604  -11.8773 C   0  0  1  0  0  0  0  0  0  0  0  0
   25.2291  -19.4560  -12.1874 C   0  0  0  0  0  0  0  0  0  0  0  0
   25.9510  -18.8590  -13.3198 C   0  0  0  0  0  0  0  0  0  0  0  0
   27.1388  -18.2037  -13.0838 C   0  0  0  0  0  0  0  0  0  0  0  0
   27.8761  -17.6168  -14.0940 C   0  0  0  0  0  0  0  0  0  0  0  0
   27.4314  -17.6743  -15.3891 C   0  0  0  0  0  0  0  0  0  0  0  0
   26.2446  -18.3262  -15.6434 C   0  0  0  0  0  0  0  0  0  0  0  0
   25.5124  -18.9103  -14.6321 C   0  0  0  0  0  0  0  0  0  0  0  0
   26.2861  -21.0130  -10.5343 C   0  0  0  0  0  0  0  0  0  0  0  0
   25.4998  -20.7893   -9.5465 O   0  0  0  0  0  0  0  0  0  0  0  0
   27.6265  -21.3919  -10.2203 N   0  0  0  0  0  0  0  0  0  0  0  0
   28.4742  -22.1459  -11.1106 C   0  0  0  0  0  0  0  0  0  0  0  0
   29.7888  -21.4340  -10.9198 C   0  0  0  0  0  0  0  0  0  0  0  0
   29.7873  -20.9730   -9.4832 C   0  0  0  0  0  0  0  0  0  0  0  0
   28.3759  -21.1853   -9.0321 C   0  0  1  0  0  0  0  0  0  0  0  0
   27.9098  -20.1291   -8.1187 C   0  0  0  0  0  0  0  0  0  0  0  0
   27.6996  -18.9915   -8.6271 O   0  0  0  0  0  0  0  0  0  0  0  0
   27.6938  -20.3314   -6.7588 N   0  0  0  0  0  0  0  0  0  0  0  0
   27.1523  -21.5950   -6.2021 C   0  0  0  0  0  0  0  0  0  0  0  0
   28.0407  -21.8088   -5.0056 C   0  0  0  0  0  0  0  0  0  0  0  0
   28.7264  -20.4981   -4.7340 C   0  0  0  0  0  0  0  0  0  0  0  0
   27.8544  -19.5449   -5.5654 C   0  0  1  0  0  0  0  0  0  0  0  0
   28.4045  -18.2290   -5.6087 C   0  0  0  0  0  0  0  0  0  0  0  0
   29.4616  -17.7862   -6.3272 O   0  0  0  0  0  0  0  0  0  0  0  0
   27.8313  -17.3368   -4.8730 O   0  0  0  0  0  0  0  0  0  0  0  0
  2  1  1  1
  3  2  1  0
  4  3  1  0
  5  4  2  0
  6  5  1  0
  7  8  1  0
  7  6  2  0
  8  9  2  0
  9  4  1  0
 10  2  1  0
 10 12  1  0
 11 10  2  0
 12 13  1  0
 13 14  1  0
 15 14  1  0
 16 12  1  0
 16 15  1  0
 16 17  1  6
 18 17  2  0
 19 20  1  0
 19 17  1  0
 21 20  1  0
 22 23  1  0
 22 21  1  0
 23 24  1  6
 23 19  1  0
 24 25  1  0
 26 24  2  0
M  END
$$$$
