FPP.pdb
     RDKit          3D

 26 28  0  0  1  0  0  0  0  0999 V2000
   22.5185  -19.9069  -16.6824 N   0  0  0  0  0  0  0  0  0  0  0  0
   23.3813  -18.9730  -15.9233 C   0  0  1  0  0  0  0  0  0  0  0  0
   22.3890  -18.1136  -15.1516 C   0  0  0  0  0  0  0  0  0  0  0  0
   21.6893  -17.1673  -16.0317 C   0  0  0  0  0  0  0  0  0  0  0  0
   20.3609  -17.3832  -16.3229 C   0  0  0  0  0  0  0  0  0  0  0  0
   19.6340  -16.5403  -17.1412 C   0  0  0  0  0  0  0  0  0  0  0  0
   20.2332  -15.4403  -17.6972 C   0  0  0  0  0  0  0  0  0  0  0  0
   21.5620  -15.2088  -17.4165 C   0  0  0  0  0  0  0  0  0  0  0  0
   22.2832  -16.0527  -16.5995 C   0  0  0  0  0  0  0  0  0  0  0  0
   24.2965  -19.7353  -15.0760 C   0  0  0  0  0  0  0  0  0  0  0  0
   23.7901  -20.6758  -14.3665 O   0  0  0  0  0  0  0  0  0  0  0  0
   25.7055  -19.5311  -14.9674 N   0  0  0  0  0  0  0  0  0  0  0  0
   26.5462  -19.1490  -16.0751 C   0  0  0  0  0  0  0  0  0  0  0  0
   27.4509  -18.1438  -15.4099 C   0  0  0  0  0  0  0  0  0  0  0  0
   27.6062  -18.6267  -13.9890 C   0  0  0  0  0  0  0  0  0  0  0  0
   26.5650  -19.6929  -13.8488 C   0  0  1  0  0  0  0  0  0  0  0  0
   25.9395  -19.7000  -12.5162 C   0  0  0  0  0  0  0  0  0  0  0  0
   25.2874  -18.6679  -12.1901 O   0  0  0  0  0  0  0  0  0  0  0  0
   26.0323  -20.7699  -11.6310 N   0  0  0  0  0  0  0  0  0  0  0  0
   26.2233  -22.1733  -12.0713 C   0  0  0  0  0  0  0  0  0  0  0  0
   27.2647  -22.6607  -11.0992 C   0  0  0  0  0  0  0  0  0  0  0  0
   27.2921  -21.6767   -9.9623 C   0  0  0  0  0  0  0  0  0  0  0  0
   25.9715  -20.9294  -10.2029 C   0  0  1  0  0  0  0  0  0  0  0  0
   25.8345  -19.8066   -9.3330 C   0  0  0  0  0  0  0  0  0  0  0  0
   25.1505  -19.7275   -8.1687 O   0  0  0  0  0  0  0  0  0  0  0  0
   26.4335  -18.7206   -9.6900 O   0  0  0  0  0  0  0  0  0  0  0  0
  2  1  1  1
  3  2  1  0
  4  3  1  0
  5  4  2  0
  6  5  1  0
  7  8  1  0
  7  6  2  0
  8  9  2  0
  9  4  1  0
 10  2  1  0
 10 12  1  0
 11 10  2  0
 12 13  1  0
 13 14  1  0
 15 14  1  0
 16 12  1  0
 16 15  1  0
 16 17  1  1
 18 17  2  0
 19 20  1  0
 19 17  1  0
 21 20  1  0
 22 23  1  0
 22 21  1  0
 23 24  1  1
 23 19  1  0
 24 25  1  0
 26 24  2  0
M  END
$$$$
