FPP.pdb
     RDKit          3D

 26 28  0  0  1  0  0  0  0  0999 V2000
   25.1893  -22.0516  -18.2200 N   0  0  0  0  0  0  0  0  0  0  0  0
   25.0008  -20.8762  -17.3392 C   0  0  1  0  0  0  0  0  0  0  0  0
   23.4936  -20.8220  -17.1297 C   0  0  0  0  0  0  0  0  0  0  0  0
   22.8004  -20.2746  -18.3043 C   0  0  0  0  0  0  0  0  0  0  0  0
   21.8928  -21.0654  -18.9729 C   0  0  0  0  0  0  0  0  0  0  0  0
   21.2012  -20.6242  -20.0844 C   0  0  0  0  0  0  0  0  0  0  0  0
   21.4071  -19.3557  -20.5607 C   0  0  0  0  0  0  0  0  0  0  0  0
   22.3118  -18.5506  -19.9039 C   0  0  0  0  0  0  0  0  0  0  0  0
   22.9997  -18.9952  -18.7952 C   0  0  0  0  0  0  0  0  0  0  0  0
   25.7684  -21.0616  -16.1091 C   0  0  0  0  0  0  0  0  0  0  0  0
   25.6273  -22.1780  -15.4944 O   0  0  0  0  0  0  0  0  0  0  0  0
   26.6651  -20.1136  -15.5293 N   0  0  0  0  0  0  0  0  0  0  0  0
   27.5510  -19.2756  -16.2991 C   0  0  0  0  0  0  0  0  0  0  0  0
   27.4221  -17.9704  -15.5566 C   0  0  0  0  0  0  0  0  0  0  0  0
   27.2000  -18.3532  -14.1141 C   0  0  0  0  0  0  0  0  0  0  0  0
   26.9246  -19.8236  -14.1637 C   0  0  1  0  0  0  0  0  0  0  0  0
   25.9093  -20.2416  -13.1832 C   0  0  0  0  0  0  0  0  0  0  0  0
   24.7114  -19.9315  -13.4397 O   0  0  0  0  0  0  0  0  0  0  0  0
   26.2091  -20.9482  -12.0223 N   0  0  0  0  0  0  0  0  0  0  0  0
   27.4002  -21.8219  -11.8887 C   0  0  0  0  0  0  0  0  0  0  0  0
   27.9012  -21.4504  -10.5184 C   0  0  0  0  0  0  0  0  0  0  0  0
   26.7782  -20.7280   -9.8265 C   0  0  0  0  0  0  0  0  0  0  0  0
   25.5965  -21.1094  -10.7311 C   0  0  1  0  0  0  0  0  0  0  0  0
   24.4098  -20.4009  -10.3758 C   0  0  0  0  0  0  0  0  0  0  0  0
   23.3675  -20.8335   -9.6301 O   0  0  0  0  0  0  0  0  0  0  0  0
   24.3031  -19.1922  -10.8155 O   0  0  0  0  0  0  0  0  0  0  0  0
  2  1  1  6
  3  2  1  0
  4  3  1  0
  5  4  2  0
  6  5  1  0
  7  8  1  0
  7  6  2  0
  8  9  2  0
  9  4  1  0
 10  2  1  0
 10 12  1  0
 11 10  2  0
 12 13  1  0
 13 14  1  0
 15 14  1  0
 16 12  1  0
 16 15  1  0
 16 17  1  1
 18 17  2  0
 19 20  1  0
 19 17  1  0
 21 20  1  0
 22 23  1  0
 22 21  1  0
 23 24  1  6
 23 19  1  0
 24 25  1  0
 26 24  2  0
M  END
$$$$
