YET.pdb
     RDKit          3D

 29 29  0  0  1  0  0  0  0  0999 V2000
   25.1465  -21.2622   -7.5425 O   0  0  0  0  0  0  0  0  0  0  0  0
   25.2203  -20.8498   -8.8737 C   0  0  0  0  0  0  0  0  0  0  0  0
   26.4725  -20.7219   -9.4472 C   0  0  0  0  0  0  0  0  0  0  0  0
   26.5312  -20.3127  -10.7661 C   0  0  0  0  0  0  0  0  0  0  0  0
   25.3689  -20.0510  -11.4528 C   0  0  0  0  0  0  0  0  0  0  0  0
   25.4782  -19.6148  -12.8649 C   0  0  0  0  0  0  0  0  0  0  0  0
   24.8417  -20.7082  -13.7345 C   0  0  2  0  0  0  0  0  0  0  0  0
   25.8590  -21.6727  -14.0308 N   0  0  0  0  0  0  0  0  0  0  0  0
   24.3162  -20.0278  -14.9354 C   0  0  0  0  0  0  0  0  0  0  0  0
   25.1430  -19.6210  -15.7884 O   0  0  0  0  0  0  0  0  0  0  0  0
   24.1465  -20.1870  -10.8571 C   0  0  0  0  0  0  0  0  0  0  0  0
   24.0532  -20.5907   -9.5512 C   0  0  0  0  0  0  0  0  0  0  0  0
   22.9373  -19.8047  -15.1861 N   0  0  0  0  0  0  0  0  0  0  0  0
   22.4556  -19.0844  -16.3472 C   0  0  1  0  0  0  0  0  0  0  0  0
   21.8457  -20.1260  -17.2819 C   0  0  0  0  0  0  0  0  0  0  0  0
   21.4469  -19.4957  -18.5972 C   0  0  0  0  0  0  0  0  0  0  0  0
   20.7695  -20.5073  -19.4243 C   0  0  0  0  0  0  0  0  0  0  0  0
   19.9213  -20.1484  -20.2695 O   0  0  0  0  0  0  0  0  0  0  0  0
   21.4616  -18.0600  -16.0157 C   0  0  0  0  0  0  0  0  0  0  0  0
   20.6982  -18.2110  -15.0292 O   0  0  0  0  0  0  0  0  0  0  0  0
   21.0272  -21.8638  -19.3137 O   0  0  0  0  0  0  0  0  0  0  0  0
   19.8460  -13.4725  -17.0777 C   0  0  0  0  0  0  0  0  0  0  0  0
   20.7948  -14.6080  -17.3266 C   0  0  1  0  0  0  0  0  0  0  0  0
   22.0770  -14.1610  -17.0190 O   0  0  0  0  0  0  0  0  0  0  0  0
   20.4269  -15.8358  -16.5093 C   0  0  2  0  0  0  0  0  0  0  0  0
   21.3638  -16.8907  -16.8171 N   0  0  0  0  0  0  0  0  0  0  0  0
   19.0489  -16.2413  -16.9553 C   0  0  0  0  0  0  0  0  0  0  0  0
   18.0734  -16.0920  -16.1899 O   0  0  0  0  0  0  0  0  0  0  0  0
   18.8435  -16.7835  -18.2157 O   0  0  0  0  0  0  0  0  0  0  0  0
  2  1  1  0
  2  3  2  0
  4  3  1  0
  5  4  2  0
  6  5  1  0
  7  8  1  6
  7  6  1  0
  9  7  1  0
 10  9  2  0
 11 12  2  0
 11  5  1  0
 12  2  1  0
 13  9  1  0
 14 13  1  0
 15 16  1  0
 14 15  1  6
 16 17  1  0
 17 21  1  0
 17 18  2  0
 19 14  1  0
 19 26  1  0
 20 19  2  0
 23 22  1  1
 23 24  1  0
 25 23  1  0
 25 27  1  0
 25 26  1  6
 27 29  1  0
 28 27  2  0
M  END
$$$$
