YET.pdb
     RDKit          3D

 29 29  0  0  1  0  0  0  0  0999 V2000
   29.5387  -20.5831   -3.8335 O   0  0  0  0  0  0  0  0  0  0  0  0
   28.9063  -20.2947   -5.0437 C   0  0  0  0  0  0  0  0  0  0  0  0
   29.5589  -19.4651   -5.9377 C   0  0  0  0  0  0  0  0  0  0  0  0
   28.9215  -19.1876   -7.1323 C   0  0  0  0  0  0  0  0  0  0  0  0
   27.6855  -19.7325   -7.3900 C   0  0  0  0  0  0  0  0  0  0  0  0
   27.0382  -19.4086   -8.6832 C   0  0  0  0  0  0  0  0  0  0  0  0
   26.9864  -20.7021   -9.5083 C   0  0  2  0  0  0  0  0  0  0  0  0
   28.3369  -21.1024   -9.7712 N   0  0  0  0  0  0  0  0  0  0  0  0
   26.2247  -20.3817  -10.7323 C   0  0  0  0  0  0  0  0  0  0  0  0
   26.7614  -19.6214  -11.5753 O   0  0  0  0  0  0  0  0  0  0  0  0
   27.0670  -20.5489   -6.4853 C   0  0  0  0  0  0  0  0  0  0  0  0
   27.6715  -20.8439   -5.2917 C   0  0  0  0  0  0  0  0  0  0  0  0
   24.9258  -20.8780  -11.0160 N   0  0  0  0  0  0  0  0  0  0  0  0
   24.1977  -20.5329  -12.2201 C   0  0  1  0  0  0  0  0  0  0  0  0
   24.8967  -21.2521  -13.3711 C   0  0  0  0  0  0  0  0  0  0  0  0
   24.9284  -22.7442  -13.1286 C   0  0  0  0  0  0  0  0  0  0  0  0
   25.5909  -23.3983  -14.2686 C   0  0  0  0  0  0  0  0  0  0  0  0
   25.9564  -22.7129  -15.2481 O   0  0  0  0  0  0  0  0  0  0  0  0
   22.7851  -20.9190  -12.1673 C   0  0  0  0  0  0  0  0  0  0  0  0
   22.4217  -21.9075  -11.4821 O   0  0  0  0  0  0  0  0  0  0  0  0
   25.8360  -24.7608  -14.3148 O   0  0  0  0  0  0  0  0  0  0  0  0
   19.9332  -18.5825  -14.3995 C   0  0  0  0  0  0  0  0  0  0  0  0
   19.7855  -18.8888  -12.9380 C   0  0  1  0  0  0  0  0  0  0  0  0
   18.4256  -18.8751  -12.6397 O   0  0  0  0  0  0  0  0  0  0  0  0
   20.4166  -20.2241  -12.5781 C   0  0  2  0  0  0  0  0  0  0  0  0
   21.8240  -20.1683  -12.8966 N   0  0  0  0  0  0  0  0  0  0  0  0
   19.7454  -21.2543  -13.4444 C   0  0  0  0  0  0  0  0  0  0  0  0
   18.5638  -21.5893  -13.2184 O   0  0  0  0  0  0  0  0  0  0  0  0
   20.4257  -21.8432  -14.5004 O   0  0  0  0  0  0  0  0  0  0  0  0
  2  1  1  0
  2  3  2  0
  4  3  1  0
  5  4  2  0
  6  5  1  0
  7  8  1  6
  7  6  1  0
  9  7  1  0
 10  9  2  0
 11 12  2  0
 11  5  1  0
 12  2  1  0
 13  9  1  0
 14 13  1  0
 15 16  1  0
 14 15  1  6
 16 17  1  0
 17 21  1  0
 17 18  2  0
 19 14  1  0
 19 26  1  0
 20 19  2  0
 23 22  1  6
 23 24  1  0
 25 23  1  0
 25 27  1  0
 25 26  1  6
 27 29  1  0
 28 27  2  0
M  END
$$$$
