YET.pdb
     RDKit          3D

 29 29  0  0  1  0  0  0  0  0999 V2000
   28.4297  -20.0002   -6.8286 O   0  0  0  0  0  0  0  0  0  0  0  0
   27.8893  -19.9900   -8.1153 C   0  0  0  0  0  0  0  0  0  0  0  0
   26.5520  -19.6665   -8.2572 C   0  0  0  0  0  0  0  0  0  0  0  0
   26.0296  -19.6601   -9.5368 C   0  0  0  0  0  0  0  0  0  0  0  0
   26.8373  -19.9686  -10.6062 C   0  0  0  0  0  0  0  0  0  0  0  0
   26.2361  -19.9496  -11.9606 C   0  0  0  0  0  0  0  0  0  0  0  0
   25.2566  -21.1287  -12.0454 C   0  0  2  0  0  0  0  0  0  0  0  0
   26.0280  -22.3183  -12.2527 N   0  0  0  0  0  0  0  0  0  0  0  0
   24.3406  -20.8258  -13.1637 C   0  0  0  0  0  0  0  0  0  0  0  0
   24.7955  -20.9009  -14.3316 O   0  0  0  0  0  0  0  0  0  0  0  0
   28.1555  -20.2841  -10.4323 C   0  0  0  0  0  0  0  0  0  0  0  0
   28.7046  -20.2996   -9.1772 C   0  0  0  0  0  0  0  0  0  0  0  0
   22.9802  -20.4556  -13.0020 N   0  0  0  0  0  0  0  0  0  0  0  0
   22.1222  -20.1075  -14.1164 C   0  0  1  0  0  0  0  0  0  0  0  0
   20.6869  -20.2021  -13.6051 C   0  0  0  0  0  0  0  0  0  0  0  0
   20.1949  -21.6311  -13.6547 C   0  0  0  0  0  0  0  0  0  0  0  0
   20.4988  -22.2844  -12.3713 C   0  0  0  0  0  0  0  0  0  0  0  0
   20.0577  -21.7958  -11.3086 O   0  0  0  0  0  0  0  0  0  0  0  0
   22.3826  -18.7654  -14.6440 C   0  0  0  0  0  0  0  0  0  0  0  0
   22.8560  -17.8707  -13.8994 O   0  0  0  0  0  0  0  0  0  0  0  0
   21.2633  -23.4356  -12.2764 O   0  0  0  0  0  0  0  0  0  0  0  0
   24.4566  -18.9752  -17.5826 C   0  0  0  0  0  0  0  0  0  0  0  0
   24.2208  -17.6997  -16.8284 C   0  0  1  0  0  0  0  0  0  0  0  0
   24.8964  -16.6830  -17.4981 O   0  0  0  0  0  0  0  0  0  0  0  0
   22.7382  -17.3882  -16.7026 C   0  0  2  0  0  0  0  0  0  0  0  0
   22.0968  -18.4784  -16.0059 N   0  0  0  0  0  0  0  0  0  0  0  0
   22.2046  -17.3053  -18.1064 C   0  0  0  0  0  0  0  0  0  0  0  0
   22.5304  -16.3527  -18.8453 O   0  0  0  0  0  0  0  0  0  0  0  0
   21.3482  -18.2803  -18.5970 O   0  0  0  0  0  0  0  0  0  0  0  0
  2  1  1  0
  2  3  2  0
  4  3  1  0
  5  4  2  0
  6  5  1  0
  7  8  1  6
  7  6  1  0
  9  7  1  0
 10  9  2  0
 11 12  2  0
 11  5  1  0
 12  2  1  0
 13  9  1  0
 14 13  1  0
 15 16  1  0
 14 15  1  1
 16 17  1  0
 17 21  1  0
 17 18  2  0
 19 14  1  0
 19 26  1  0
 20 19  2  0
 23 22  1  6
 23 24  1  0
 25 23  1  0
 25 27  1  0
 25 26  1  1
 27 29  1  0
 28 27  2  0
M  END
$$$$
