YET.pdb
     RDKit          3D

 29 29  0  0  1  0  0  0  0  0999 V2000
   29.5183  -17.8474  -19.0377 O   0  0  0  0  0  0  0  0  0  0  0  0
   28.2465  -17.7049  -18.4812 C   0  0  0  0  0  0  0  0  0  0  0  0
   27.8110  -16.4294  -18.1702 C   0  0  0  0  0  0  0  0  0  0  0  0
   26.5496  -16.3025  -17.6197 C   0  0  0  0  0  0  0  0  0  0  0  0
   25.7828  -17.4232  -17.4028 C   0  0  0  0  0  0  0  0  0  0  0  0
   24.4365  -17.2412  -16.8107 C   0  0  0  0  0  0  0  0  0  0  0  0
   23.4243  -17.2292  -17.9649 C   0  0  2  0  0  0  0  0  0  0  0  0
   23.5451  -15.9677  -18.6336 N   0  0  0  0  0  0  0  0  0  0  0  0
   22.0968  -17.4397  -17.3529 C   0  0  0  0  0  0  0  0  0  0  0  0
   21.5407  -16.4563  -16.8048 O   0  0  0  0  0  0  0  0  0  0  0  0
   26.2423  -18.6702  -17.7212 C   0  0  0  0  0  0  0  0  0  0  0  0
   27.4881  -18.8308  -18.2683 C   0  0  0  0  0  0  0  0  0  0  0  0
   21.4104  -18.6818  -17.3450 N   0  0  0  0  0  0  0  0  0  0  0  0
   20.0548  -18.8280  -16.8552 C   0  0  1  0  0  0  0  0  0  0  0  0
   19.2112  -19.2852  -18.0427 C   0  0  0  0  0  0  0  0  0  0  0  0
   17.7479  -19.3469  -17.6668 C   0  0  0  0  0  0  0  0  0  0  0  0
   16.9711  -19.7694  -18.8434 C   0  0  0  0  0  0  0  0  0  0  0  0
   15.9180  -19.1644  -19.1393 O   0  0  0  0  0  0  0  0  0  0  0  0
   19.9422  -19.7903  -15.7559 C   0  0  0  0  0  0  0  0  0  0  0  0
   20.5299  -20.8991  -15.8193 O   0  0  0  0  0  0  0  0  0  0  0  0
   17.3528  -20.8235  -19.6570 O   0  0  0  0  0  0  0  0  0  0  0  0
   20.1410  -18.7343  -11.9160 C   0  0  0  0  0  0  0  0  0  0  0  0
   18.9014  -19.5229  -12.2213 C   0  0  1  0  0  0  0  0  0  0  0  0
   17.8473  -18.6214  -12.3420 O   0  0  0  0  0  0  0  0  0  0  0  0
   19.0630  -20.3561  -13.4825 C   0  0  2  0  0  0  0  0  0  0  0  0
   19.1630  -19.4637  -14.6134 N   0  0  0  0  0  0  0  0  0  0  0  0
   17.8129  -21.1835  -13.6037 C   0  0  0  0  0  0  0  0  0  0  0  0
   17.5821  -22.0944  -12.7812 O   0  0  0  0  0  0  0  0  0  0  0  0
   16.9040  -20.9476  -14.6251 O   0  0  0  0  0  0  0  0  0  0  0  0
  2  1  1  0
  2  3  2  0
  4  3  1  0
  5  4  2  0
  6  5  1  0
  7  8  1  1
  7  6  1  0
  9  7  1  0
 10  9  2  0
 11 12  2  0
 11  5  1  0
 12  2  1  0
 13  9  1  0
 14 13  1  0
 15 16  1  0
 14 15  1  6
 16 17  1  0
 17 21  1  0
 17 18  2  0
 19 14  1  0
 19 26  1  0
 20 19  2  0
 23 22  1  6
 23 24  1  0
 25 23  1  0
 25 27  1  0
 25 26  1  6
 27 29  1  0
 28 27  2  0
M  END
$$$$
