YET.pdb
     RDKit          3D

 29 29  0  0  1  0  0  0  0  0999 V2000
   19.4762  -20.3195  -19.5221 O   0  0  0  0  0  0  0  0  0  0  0  0
   20.6971  -20.8766  -19.1389 C   0  0  0  0  0  0  0  0  0  0  0  0
   21.3756  -20.2946  -18.0834 C   0  0  0  0  0  0  0  0  0  0  0  0
   22.5833  -20.8562  -17.7142 C   0  0  0  0  0  0  0  0  0  0  0  0
   23.0630  -21.9521  -18.3924 C   0  0  0  0  0  0  0  0  0  0  0  0
   24.3619  -22.5222  -17.9634 C   0  0  0  0  0  0  0  0  0  0  0  0
   24.0726  -23.8733  -17.2944 C   0  0  2  0  0  0  0  0  0  0  0  0
   23.6049  -23.6076  -15.9663 N   0  0  0  0  0  0  0  0  0  0  0  0
   25.3406  -24.6299  -17.3253 C   0  0  0  0  0  0  0  0  0  0  0  0
   26.2336  -24.3124  -16.5016 O   0  0  0  0  0  0  0  0  0  0  0  0
   22.3680  -22.5039  -19.4317 C   0  0  0  0  0  0  0  0  0  0  0  0
   21.1678  -21.9715  -19.8228 C   0  0  0  0  0  0  0  0  0  0  0  0
   25.6135  -25.6921  -18.2260 N   0  0  0  0  0  0  0  0  0  0  0  0
   26.8746  -26.4051  -18.2421 C   0  0  1  0  0  0  0  0  0  0  0  0
   26.5527  -27.8636  -17.9260 C   0  0  0  0  0  0  0  0  0  0  0  0
   26.7138  -28.1384  -16.4479 C   0  0  0  0  0  0  0  0  0  0  0  0
   28.1486  -28.2394  -16.1357 C   0  0  0  0  0  0  0  0  0  0  0  0
   28.8688  -29.0289  -16.7843 O   0  0  0  0  0  0  0  0  0  0  0  0
   27.5720  -26.3092  -19.5272 C   0  0  0  0  0  0  0  0  0  0  0  0
   26.9406  -26.0125  -20.5722 O   0  0  0  0  0  0  0  0  0  0  0  0
   28.7557  -27.4908  -15.1409 O   0  0  0  0  0  0  0  0  0  0  0  0
   32.0145  -26.4726  -21.7704 C   0  0  0  0  0  0  0  0  0  0  0  0
   31.1798  -26.6578  -20.5373 C   0  0  1  0  0  0  0  0  0  0  0  0
   31.6096  -25.7284  -19.5939 O   0  0  0  0  0  0  0  0  0  0  0  0
   29.6975  -26.4987  -20.8341 C   0  0  2  0  0  0  0  0  0  0  0  0
   28.9704  -26.5538  -19.5876 N   0  0  0  0  0  0  0  0  0  0  0  0
   29.3117  -27.6712  -21.6935 C   0  0  0  0  0  0  0  0  0  0  0  0
   28.9304  -28.7366  -21.1653 O   0  0  0  0  0  0  0  0  0  0  0  0
   29.3739  -27.5859  -23.0769 O   0  0  0  0  0  0  0  0  0  0  0  0
  2  1  1  0
  2  3  2  0
  4  3  1  0
  5  4  2  0
  6  5  1  0
  7  8  1  1
  7  6  1  0
  9  7  1  0
 10  9  2  0
 11 12  2  0
 11  5  1  0
 12  2  1  0
 13  9  1  0
 14 13  1  0
 15 16  1  0
 14 15  1  6
 16 17  1  0
 17 21  1  0
 17 18  2  0
 19 14  1  0
 19 26  1  0
 20 19  2  0
 23 22  1  6
 23 24  1  0
 25 23  1  0
 25 27  1  0
 25 26  1  1
 27 29  1  0
 28 27  2  0
M  END
$$$$
