IDL.pdb
     RDKit          3D

 25 24  0  0  1  0  0  0  0  0999 V2000
   12.4039   -9.2115   -7.2522 C   0  0  0  0  0  0  0  0  0  0  0  0
   11.9184   -9.5706   -8.6062 C   0  0  0  0  0  0  0  0  0  0  0  0
   13.0514   -9.9630   -9.5106 C   0  0  2  0  0  0  0  0  0  0  0  0
   13.9617   -8.7389   -9.5928 C   0  0  0  0  0  0  0  0  0  0  0  0
   12.5414  -10.2754  -10.8790 C   0  0  2  0  0  0  0  0  0  0  0  0
   11.7592  -11.5238  -10.8135 N   0  0  0  0  0  0  0  0  0  0  0  0
   13.6374  -10.5562  -11.8475 C   0  0  0  0  0  0  0  0  0  0  0  0
   14.1236  -11.7249  -11.9326 O   0  0  0  0  0  0  0  0  0  0  0  0
   14.1520   -9.5589  -12.6779 N   0  0  0  0  0  0  0  0  0  0  0  0
   15.1638   -9.8170  -13.7259 C   0  0  1  0  0  0  0  0  0  0  0  0
   14.6061   -9.3832  -15.0655 C   0  0  0  0  0  0  0  0  0  0  0  0
   15.5406   -9.5473  -16.1855 C   0  0  0  0  0  0  0  0  0  0  0  0
   16.1282  -10.6309  -16.3599 O   0  0  0  0  0  0  0  0  0  0  0  0
   16.3374   -8.9938  -13.4005 C   0  0  0  0  0  0  0  0  0  0  0  0
   16.1281   -7.9203  -12.7591 O   0  0  0  0  0  0  0  0  0  0  0  0
   15.7894   -8.5073  -17.0696 O   0  0  0  0  0  0  0  0  0  0  0  0
   21.6560   -7.4429  -13.6300 C   0  0  0  0  0  0  0  0  0  0  0  0
   21.2505   -8.6318  -12.8434 C   0  0  1  0  0  0  0  0  0  0  0  0
   21.4297   -8.3282  -11.3586 C   0  0  0  0  0  0  0  0  0  0  0  0
   19.9360   -9.1630  -13.1762 C   0  0  0  0  0  0  0  0  0  0  0  0
   18.7443   -8.2983  -13.3612 C   0  0  2  0  0  0  0  0  0  0  0  0
   17.6751   -9.2700  -13.7188 N   0  0  0  0  0  0  0  0  0  0  0  0
   18.7940   -7.2032  -14.3025 C   0  0  0  0  0  0  0  0  0  0  0  0
   19.0325   -5.9119  -13.7713 O   0  0  0  0  0  0  0  0  0  0  0  0
   18.6550   -7.2165  -15.5420 O   0  0  0  0  0  0  0  0  0  0  0  0
  1  2  1  0
  2  3  1  0
  3  5  1  0
  3  4  1  6
  5  6  1  1
  5  7  1  0
  7  8  2  0
  9  7  1  0
  9 10  1  0
 10 11  1  6
 12 16  1  0
 12 11  1  0
 13 12  2  0
 14 10  1  0
 14 15  2  0
 18 17  1  6
 18 20  1  0
 19 18  1  0
 21 20  1  6
 21 23  1  0
 21 22  1  0
 22 14  1  0
 23 24  1  0
 25 23  2  0
M  END
$$$$
