IDL.pdb
     RDKit          3D

 25 24  0  0  1  0  0  0  0  0999 V2000
   18.5849  -15.9247  -16.5761 C   0  0  0  0  0  0  0  0  0  0  0  0
   18.0355  -14.6706  -17.1446 C   0  0  0  0  0  0  0  0  0  0  0  0
   18.2403  -13.5092  -16.2147 C   0  0  2  0  0  0  0  0  0  0  0  0
   17.4305  -13.8323  -14.9603 C   0  0  0  0  0  0  0  0  0  0  0  0
   17.7050  -12.2545  -16.8225 C   0  0  2  0  0  0  0  0  0  0  0  0
   18.3394  -12.0645  -18.1400 N   0  0  0  0  0  0  0  0  0  0  0  0
   18.0674  -11.0402  -16.0401 C   0  0  0  0  0  0  0  0  0  0  0  0
   17.6610  -10.9118  -14.8451 O   0  0  0  0  0  0  0  0  0  0  0  0
   18.8534  -10.0252  -16.5886 N   0  0  0  0  0  0  0  0  0  0  0  0
   19.1761   -8.7714  -15.8726 C   0  0  1  0  0  0  0  0  0  0  0  0
   20.4858   -8.2255  -16.4023 C   0  0  0  0  0  0  0  0  0  0  0  0
   20.8965   -6.9554  -15.7918 C   0  0  0  0  0  0  0  0  0  0  0  0
   21.4091   -6.0601  -16.4886 O   0  0  0  0  0  0  0  0  0  0  0  0
   18.0979   -7.8178  -16.1712 C   0  0  0  0  0  0  0  0  0  0  0  0
   17.7126   -7.7430  -17.3768 O   0  0  0  0  0  0  0  0  0  0  0  0
   20.7246   -6.7238  -14.4346 O   0  0  0  0  0  0  0  0  0  0  0  0
   13.3324   -5.7648  -16.8046 C   0  0  0  0  0  0  0  0  0  0  0  0
   13.9672   -5.6178  -15.4734 C   0  0  1  0  0  0  0  0  0  0  0  0
   12.9173   -5.8651  -14.3937 C   0  0  0  0  0  0  0  0  0  0  0  0
   15.1862   -6.3934  -15.2908 C   0  0  0  0  0  0  0  0  0  0  0  0
   16.5146   -5.9211  -15.7538 C   0  0  2  0  0  0  0  0  0  0  0  0
   17.4387   -6.9787  -15.2611 N   0  0  0  0  0  0  0  0  0  0  0  0
   16.9766   -4.6045  -15.3786 C   0  0  0  0  0  0  0  0  0  0  0  0
   17.6994   -4.5008  -14.1649 O   0  0  0  0  0  0  0  0  0  0  0  0
   16.8341   -3.5159  -15.9707 O   0  0  0  0  0  0  0  0  0  0  0  0
  1  2  1  0
  2  3  1  0
  3  5  1  0
  3  4  1  1
  5  6  1  6
  5  7  1  0
  7  8  2  0
  9  7  1  0
  9 10  1  0
 10 11  1  6
 12 16  1  0
 12 11  1  0
 13 12  2  0
 14 10  1  0
 14 15  2  0
 18 17  1  6
 18 20  1  0
 19 18  1  0
 21 20  1  1
 21 23  1  0
 21 22  1  0
 22 14  1  0
 23 24  1  0
 25 23  2  0
M  END
$$$$
