IDL.pdb
     RDKit          3D

 25 24  0  0  1  0  0  0  0  0999 V2000
   17.0384  -16.6366  -18.6976 C   0  0  0  0  0  0  0  0  0  0  0  0
   17.1997  -15.7857  -17.4944 C   0  0  0  0  0  0  0  0  0  0  0  0
   17.5112  -14.3637  -17.8641 C   0  0  2  0  0  0  0  0  0  0  0  0
   18.8285  -14.4132  -18.6361 C   0  0  0  0  0  0  0  0  0  0  0  0
   17.7047  -13.5365  -16.6359 C   0  0  2  0  0  0  0  0  0  0  0  0
   16.4571  -13.5656  -15.8504 N   0  0  0  0  0  0  0  0  0  0  0  0
   17.9333  -12.0978  -16.9455 C   0  0  0  0  0  0  0  0  0  0  0  0
   18.9124  -11.7548  -17.6758 O   0  0  0  0  0  0  0  0  0  0  0  0
   17.0900  -11.1010  -16.4513 N   0  0  0  0  0  0  0  0  0  0  0  0
   17.3555   -9.6555  -16.6201 C   0  0  1  0  0  0  0  0  0  0  0  0
   16.1153   -8.8787  -16.2302 C   0  0  0  0  0  0  0  0  0  0  0  0
   16.2828   -7.4210  -16.2730 C   0  0  0  0  0  0  0  0  0  0  0  0
   17.0358   -6.8996  -17.1161 O   0  0  0  0  0  0  0  0  0  0  0  0
   18.4511   -9.3111  -15.7025 C   0  0  0  0  0  0  0  0  0  0  0  0
   18.4086   -9.8150  -14.5398 O   0  0  0  0  0  0  0  0  0  0  0  0
   15.6111   -6.5960  -15.3822 O   0  0  0  0  0  0  0  0  0  0  0  0
   22.4990   -9.6042  -12.8587 C   0  0  0  0  0  0  0  0  0  0  0  0
   22.7403   -9.5013  -14.3174 C   0  0  1  0  0  0  0  0  0  0  0  0
   23.6263  -10.6638  -14.7563 C   0  0  0  0  0  0  0  0  0  0  0  0
   21.5380   -9.3465  -15.1244 C   0  0  0  0  0  0  0  0  0  0  0  0
   20.5761   -8.2341  -14.9260 C   0  0  2  0  0  0  0  0  0  0  0  0
   19.5506   -8.4841  -15.9752 N   0  0  0  0  0  0  0  0  0  0  0  0
   21.0443   -6.8677  -14.9652 C   0  0  0  0  0  0  0  0  0  0  0  0
   20.9675   -6.1996  -16.2119 O   0  0  0  0  0  0  0  0  0  0  0  0
   21.5192   -6.1659  -14.0498 O   0  0  0  0  0  0  0  0  0  0  0  0
  1  2  1  0
  2  3  1  0
  3  5  1  0
  3  4  1  6
  5  6  1  1
  5  7  1  0
  7  8  2  0
  9  7  1  0
  9 10  1  0
 10 11  1  1
 12 16  1  0
 12 11  1  0
 13 12  2  0
 14 10  1  0
 14 15  2  0
 18 17  1  1
 18 20  1  0
 19 18  1  0
 21 20  1  6
 21 23  1  0
 21 22  1  0
 22 14  1  0
 23 24  1  0
 25 23  2  0
M  END
$$$$
