IDL.pdb
     RDKit          3D

 25 24  0  0  1  0  0  0  0  0999 V2000
   27.7899  -37.3251   -8.3603 C   0  0  0  0  0  0  0  0  0  0  0  0
   26.6349  -36.3958   -8.3413 C   0  0  0  0  0  0  0  0  0  0  0  0
   26.4546  -35.7702   -6.9880 C   0  0  2  0  0  0  0  0  0  0  0  0
   26.1718  -36.9255   -6.0294 C   0  0  0  0  0  0  0  0  0  0  0  0
   25.2783  -34.8500   -6.9920 C   0  0  2  0  0  0  0  0  0  0  0  0
   25.5952  -33.6886   -7.8435 N   0  0  0  0  0  0  0  0  0  0  0  0
   24.9956  -34.2774   -5.6466 C   0  0  0  0  0  0  0  0  0  0  0  0
   25.6682  -33.2876   -5.2252 O   0  0  0  0  0  0  0  0  0  0  0  0
   23.9975  -34.8027   -4.8239 N   0  0  0  0  0  0  0  0  0  0  0  0
   23.6488  -34.2317   -3.5044 C   0  0  1  0  0  0  0  0  0  0  0  0
   22.2039  -33.7786   -3.5307 C   0  0  0  0  0  0  0  0  0  0  0  0
   21.7227  -33.2354   -2.2548 C   0  0  0  0  0  0  0  0  0  0  0  0
   21.7554  -32.0093   -2.0416 O   0  0  0  0  0  0  0  0  0  0  0  0
   23.8003  -35.3103   -2.5172 C   0  0  0  0  0  0  0  0  0  0  0  0
   23.5623  -36.4911   -2.9130 O   0  0  0  0  0  0  0  0  0  0  0  0
   21.2236  -34.0685   -1.2637 O   0  0  0  0  0  0  0  0  0  0  0  0
   26.2274  -38.7263    0.6499 C   0  0  0  0  0  0  0  0  0  0  0  0
   25.6192  -38.5899   -0.6948 C   0  0  1  0  0  0  0  0  0  0  0  0
   24.4435  -39.5564   -0.8071 C   0  0  0  0  0  0  0  0  0  0  0  0
   25.2911  -37.2242   -1.0793 C   0  0  0  0  0  0  0  0  0  0  0  0
   24.3348  -36.3837   -0.3170 C   0  0  2  0  0  0  0  0  0  0  0  0
   24.1878  -35.1770   -1.1758 N   0  0  0  0  0  0  0  0  0  0  0  0
   24.6322  -36.0215    1.0498 C   0  0  0  0  0  0  0  0  0  0  0  0
   24.3195  -36.9764    2.0482 O   0  0  0  0  0  0  0  0  0  0  0  0
   25.1332  -34.9719    1.5006 O   0  0  0  0  0  0  0  0  0  0  0  0
  1  2  1  0
  2  3  1  0
  3  5  1  0
  3  4  1  1
  5  6  1  6
  5  7  1  0
  7  8  2  0
  9  7  1  0
  9 10  1  0
 10 11  1  6
 12 16  1  0
 12 11  1  0
 13 12  2  0
 14 10  1  0
 14 15  2  0
 18 17  1  1
 18 20  1  0
 19 18  1  0
 21 20  1  6
 21 23  1  0
 21 22  1  0
 22 14  1  0
 23 24  1  0
 25 23  2  0
M  END
$$$$
