IDL.pdb
     RDKit          3D

 25 24  0  0  1  0  0  0  0  0999 V2000
   25.5640  -32.5244   -6.5625 C   0  0  0  0  0  0  0  0  0  0  0  0
   26.6849  -33.4417   -6.2463 C   0  0  0  0  0  0  0  0  0  0  0  0
   26.6776  -33.8405   -4.7984 C   0  0  2  0  0  0  0  0  0  0  0  0
   26.7346  -32.5352   -4.0067 C   0  0  0  0  0  0  0  0  0  0  0  0
   27.8891  -34.6518   -4.4754 C   0  0  2  0  0  0  0  0  0  0  0  0
   27.8373  -35.9020   -5.2556 N   0  0  0  0  0  0  0  0  0  0  0  0
   27.9236  -35.0860   -3.0512 C   0  0  0  0  0  0  0  0  0  0  0  0
   27.0132  -35.8444   -2.5979 O   0  0  0  0  0  0  0  0  0  0  0  0
   28.9428  -34.6797   -2.1879 N   0  0  0  0  0  0  0  0  0  0  0  0
   28.9900  -35.0500   -0.7564 C   0  0  1  0  0  0  0  0  0  0  0  0
   30.4233  -34.9681   -0.2741 C   0  0  0  0  0  0  0  0  0  0  0  0
   30.6083  -35.3670    1.1264 C   0  0  0  0  0  0  0  0  0  0  0  0
   29.6330  -35.7264    1.8115 O   0  0  0  0  0  0  0  0  0  0  0  0
   28.1779  -34.0623   -0.0312 C   0  0  0  0  0  0  0  0  0  0  0  0
   28.2964  -32.8498   -0.3824 O   0  0  0  0  0  0  0  0  0  0  0  0
   31.8645  -35.3533    1.7156 O   0  0  0  0  0  0  0  0  0  0  0  0
   24.0042  -31.2934   -0.6776 C   0  0  0  0  0  0  0  0  0  0  0  0
   24.7213  -31.6246    0.5766 C   0  0  1  0  0  0  0  0  0  0  0  0
   23.7072  -31.7419    1.7110 C   0  0  0  0  0  0  0  0  0  0  0  0
   25.6235  -32.7637    0.4799 C   0  0  0  0  0  0  0  0  0  0  0  0
   26.4865  -33.2015    1.6049 C   0  0  2  0  0  0  0  0  0  0  0  0
   27.2745  -34.3159    1.0112 N   0  0  0  0  0  0  0  0  0  0  0  0
   25.8841  -33.5945    2.8580 C   0  0  0  0  0  0  0  0  0  0  0  0
   25.7515  -34.9843    3.0971 O   0  0  0  0  0  0  0  0  0  0  0  0
   25.4499  -32.8834    3.7862 O   0  0  0  0  0  0  0  0  0  0  0  0
  1  2  1  0
  2  3  1  0
  3  5  1  0
  3  4  1  1
  5  6  1  6
  5  7  1  0
  7  8  2  0
  9  7  1  0
  9 10  1  0
 10 11  1  1
 12 16  1  0
 12 11  1  0
 13 12  2  0
 14 10  1  0
 14 15  2  0
 18 17  1  6
 18 20  1  0
 19 18  1  0
 21 20  1  6
 21 23  1  0
 21 22  1  0
 22 14  1  0
 23 24  1  0
 25 23  2  0
M  END
$$$$
