IDL.pdb
     RDKit          3D

 25 24  0  0  1  0  0  0  0  0999 V2000
   20.9403  -25.9789   -0.0934 C   0  0  0  0  0  0  0  0  0  0  0  0
   20.0021  -26.6217    0.8576 C   0  0  0  0  0  0  0  0  0  0  0  0
   19.2884  -25.6030    1.6995 C   0  0  2  0  0  0  0  0  0  0  0  0
   20.3226  -25.0924    2.7012 C   0  0  0  0  0  0  0  0  0  0  0  0
   18.1665  -26.2415    2.4504 C   0  0  2  0  0  0  0  0  0  0  0  0
   17.2821  -26.9190    1.4843 N   0  0  0  0  0  0  0  0  0  0  0  0
   17.2980  -25.2455    3.1372 C   0  0  0  0  0  0  0  0  0  0  0  0
   16.1453  -24.9851    2.6757 O   0  0  0  0  0  0  0  0  0  0  0  0
   17.7188  -24.5815    4.2909 N   0  0  0  0  0  0  0  0  0  0  0  0
   16.8859  -23.5903    5.0068 C   0  0  1  0  0  0  0  0  0  0  0  0
   15.8186  -24.3216    5.7940 C   0  0  0  0  0  0  0  0  0  0  0  0
   14.9599  -23.4440    6.5984 C   0  0  0  0  0  0  0  0  0  0  0  0
   14.4923  -22.4001    6.1069 O   0  0  0  0  0  0  0  0  0  0  0  0
   17.7726  -22.8785    5.9384 C   0  0  0  0  0  0  0  0  0  0  0  0
   18.5433  -23.5862    6.6545 O   0  0  0  0  0  0  0  0  0  0  0  0
   14.6509  -23.7542    7.9150 O   0  0  0  0  0  0  0  0  0  0  0  0
   21.2753  -18.7244    5.2695 C   0  0  0  0  0  0  0  0  0  0  0  0
   20.7467  -19.9569    5.9006 C   0  0  1  0  0  0  0  0  0  0  0  0
   21.8016  -20.5196    6.8490 C   0  0  0  0  0  0  0  0  0  0  0  0
   19.4314  -19.8137    6.5092 C   0  0  0  0  0  0  0  0  0  0  0  0
   18.7364  -20.9339    7.1907 C   0  0  2  0  0  0  0  0  0  0  0  0
   17.8651  -21.4909    6.1202 N   0  0  0  0  0  0  0  0  0  0  0  0
   17.9859  -20.6810    8.3992 C   0  0  0  0  0  0  0  0  0  0  0  0
   18.7281  -20.5473    9.5982 O   0  0  0  0  0  0  0  0  0  0  0  0
   16.7545  -20.5600    8.5568 O   0  0  0  0  0  0  0  0  0  0  0  0
  1  2  1  0
  2  3  1  0
  3  5  1  0
  3  4  1  1
  5  6  1  6
  5  7  1  0
  7  8  2  0
  9  7  1  0
  9 10  1  0
 10 11  1  1
 12 16  1  0
 12 11  1  0
 13 12  2  0
 14 10  1  0
 14 15  2  0
 18 17  1  1
 18 20  1  0
 19 18  1  0
 21 20  1  6
 21 23  1  0
 21 22  1  0
 22 14  1  0
 23 24  1  0
 25 23  2  0
M  END
$$$$
