IDL.pdb
     RDKit          3D

 25 24  0  0  1  0  0  0  0  0999 V2000
   25.7573  -21.4113   -8.2080 C   0  0  0  0  0  0  0  0  0  0  0  0
   24.9322  -20.4583   -8.9884 C   0  0  0  0  0  0  0  0  0  0  0  0
   24.9181  -20.8105  -10.4483 C   0  0  2  0  0  0  0  0  0  0  0  0
   26.3794  -20.7992  -10.8935 C   0  0  0  0  0  0  0  0  0  0  0  0
   24.1707  -19.7777  -11.2261 C   0  0  2  0  0  0  0  0  0  0  0  0
   22.7773  -19.7462  -10.7446 N   0  0  0  0  0  0  0  0  0  0  0  0
   24.0720  -20.1125  -12.6739 C   0  0  0  0  0  0  0  0  0  0  0  0
   25.1249  -20.3350  -13.3459 O   0  0  0  0  0  0  0  0  0  0  0  0
   22.8387  -20.1922  -13.3231 N   0  0  0  0  0  0  0  0  0  0  0  0
   22.7001  -20.4284  -14.7770 C   0  0  1  0  0  0  0  0  0  0  0  0
   21.2284  -20.4526  -15.1334 C   0  0  0  0  0  0  0  0  0  0  0  0
   20.4803  -21.5550  -14.5171 C   0  0  0  0  0  0  0  0  0  0  0  0
   21.0226  -22.6620  -14.3425 O   0  0  0  0  0  0  0  0  0  0  0  0
   23.3449  -19.2967  -15.4584 C   0  0  0  0  0  0  0  0  0  0  0  0
   23.0166  -18.1325  -15.0781 O   0  0  0  0  0  0  0  0  0  0  0  0
   19.1618  -21.3912  -14.1174 O   0  0  0  0  0  0  0  0  0  0  0  0
   28.6357  -17.4593  -16.8268 C   0  0  0  0  0  0  0  0  0  0  0  0
   27.2324  -17.0630  -16.5615 C   0  0  1  0  0  0  0  0  0  0  0  0
   26.8155  -16.0048  -17.5790 C   0  0  0  0  0  0  0  0  0  0  0  0
   26.2954  -18.1729  -16.4562 C   0  0  0  0  0  0  0  0  0  0  0  0
   24.9197  -18.1168  -17.0097 C   0  0  2  0  0  0  0  0  0  0  0  0
   24.2954  -19.3629  -16.4875 N   0  0  0  0  0  0  0  0  0  0  0  0
   24.7267  -17.9914  -18.4361 C   0  0  0  0  0  0  0  0  0  0  0  0
   24.1753  -16.7732  -18.9035 O   0  0  0  0  0  0  0  0  0  0  0  0
   24.9748  -18.8094  -19.3445 O   0  0  0  0  0  0  0  0  0  0  0  0
  1  2  1  0
  2  3  1  0
  3  5  1  0
  3  4  1  6
  5  6  1  1
  5  7  1  0
  7  8  2  0
  9  7  1  0
  9 10  1  0
 10 11  1  1
 12 16  1  0
 12 11  1  0
 13 12  2  0
 14 10  1  0
 14 15  2  0
 18 17  1  6
 18 20  1  0
 19 18  1  0
 21 20  1  6
 21 23  1  0
 21 22  1  0
 22 14  1  0
 23 24  1  0
 25 23  2  0
M  END
$$$$
