IDL.pdb
     RDKit          3D

 25 24  0  0  1  0  0  0  0  0999 V2000
   11.7733  -11.5128  -16.2499 C   0  0  0  0  0  0  0  0  0  0  0  0
   13.2010  -11.8698  -16.4286 C   0  0  0  0  0  0  0  0  0  0  0  0
   14.1050  -10.8694  -15.7671 C   0  0  2  0  0  0  0  0  0  0  0  0
   13.9127   -9.5628  -16.5349 C   0  0  0  0  0  0  0  0  0  0  0  0
   15.5314  -11.2942  -15.8912 C   0  0  2  0  0  0  0  0  0  0  0  0
   15.7271  -12.5172  -15.0908 N   0  0  0  0  0  0  0  0  0  0  0  0
   16.4768  -10.2988  -15.3138 C   0  0  0  0  0  0  0  0  0  0  0  0
   16.5080  -10.1079  -14.0599 O   0  0  0  0  0  0  0  0  0  0  0  0
   17.3437   -9.5604  -16.1214 N   0  0  0  0  0  0  0  0  0  0  0  0
   18.3281   -8.5948  -15.5855 C   0  0  1  0  0  0  0  0  0  0  0  0
   19.6777   -8.8667  -16.2167 C   0  0  0  0  0  0  0  0  0  0  0  0
   20.7476   -7.9759  -15.7514 C   0  0  0  0  0  0  0  0  0  0  0  0
   21.8794   -8.0305  -16.2671 O   0  0  0  0  0  0  0  0  0  0  0  0
   17.8710   -7.2541  -15.9784 C   0  0  0  0  0  0  0  0  0  0  0  0
   17.5045   -7.1004  -17.1824 O   0  0  0  0  0  0  0  0  0  0  0  0
   20.5250   -7.0589  -14.7341 O   0  0  0  0  0  0  0  0  0  0  0  0
   14.6944   -3.3540  -16.9311 C   0  0  0  0  0  0  0  0  0  0  0  0
   15.1336   -3.5177  -15.5251 C   0  0  1  0  0  0  0  0  0  0  0  0
   13.9170   -3.4087  -14.6101 C   0  0  0  0  0  0  0  0  0  0  0  0
   15.9483   -4.6985  -15.2749 C   0  0  0  0  0  0  0  0  0  0  0  0
   17.3551   -4.8144  -15.7326 C   0  0  2  0  0  0  0  0  0  0  0  0
   17.7894   -6.1179  -15.1602 N   0  0  0  0  0  0  0  0  0  0  0  0
   18.2978   -3.7647  -15.4211 C   0  0  0  0  0  0  0  0  0  0  0  0
   18.2557   -2.6041  -16.2321 O   0  0  0  0  0  0  0  0  0  0  0  0
   19.1667   -3.7192  -14.5272 O   0  0  0  0  0  0  0  0  0  0  0  0
  1  2  1  0
  2  3  1  0
  3  5  1  0
  3  4  1  6
  5  6  1  1
  5  7  1  0
  7  8  2  0
  9  7  1  0
  9 10  1  0
 10 11  1  6
 12 16  1  0
 12 11  1  0
 13 12  2  0
 14 10  1  0
 14 15  2  0
 18 17  1  6
 18 20  1  0
 19 18  1  0
 21 20  1  1
 21 23  1  0
 21 22  1  0
 22 14  1  0
 23 24  1  0
 25 23  2  0
M  END
$$$$
