YGN.pdb
     RDKit          3D

 25 25  0  0  1  0  0  0  0  0999 V2000
    7.0803  -12.7949   17.1096 O   0  0  0  0  0  0  0  0  0  0  0  0
    7.6372  -13.2004   18.3369 C   0  0  0  0  0  0  0  0  0  0  0  0
    8.9602  -13.5886   18.3940 C   0  0  0  0  0  0  0  0  0  0  0  0
    9.4670  -13.9770   19.6069 C   0  0  0  0  0  0  0  0  0  0  0  0
    8.7350  -14.0024   20.7693 C   0  0  0  0  0  0  0  0  0  0  0  0
    9.2906  -14.4240   22.0818 C   0  0  0  0  0  0  0  0  0  0  0  0
    9.6483  -15.8914   21.9681 C   0  0  2  0  0  0  0  0  0  0  0  0
    8.4175  -16.6366   21.8538 N   0  0  0  0  0  0  0  0  0  0  0  0
   10.3805  -16.3556   23.1855 C   0  0  0  0  0  0  0  0  0  0  0  0
   11.4939  -15.8565   23.4895 O   0  0  0  0  0  0  0  0  0  0  0  0
    7.3998  -13.6030   20.6738 C   0  0  0  0  0  0  0  0  0  0  0  0
    6.8669  -13.2087   19.4678 C   0  0  0  0  0  0  0  0  0  0  0  0
    9.8544  -17.3650   24.0348 N   0  0  0  0  0  0  0  0  0  0  0  0
   10.6850  -17.9286   25.0561 C   0  0  0  0  0  0  0  0  0  0  0  0
   11.0455  -17.0386   26.1540 C   0  0  0  0  0  0  0  0  0  0  0  0
   12.0938  -16.3095   26.0457 O   0  0  0  0  0  0  0  0  0  0  0  0
   10.4590  -13.1414   27.2304 N   0  0  0  0  0  0  0  0  0  0  0  0
    9.5442  -14.2067   27.5801 C   0  0  0  0  0  0  0  0  0  0  0  0
    8.5417  -14.3507   26.8693 O   0  0  0  0  0  0  0  0  0  0  0  0
    9.8823  -15.0192   28.7404 C   0  0  0  0  0  0  0  0  0  0  0  0
   10.9172  -16.0956   28.5102 C   0  0  2  0  0  0  0  0  0  0  0  0
   10.3594  -16.8700   27.3718 N   0  0  0  0  0  0  0  0  0  0  0  0
   10.9702  -16.9639   29.7071 C   0  0  0  0  0  0  0  0  0  0  0  0
   11.4490  -16.4880   30.7597 O   0  0  0  0  0  0  0  0  0  0  0  0
   10.5177  -18.2546   29.7034 O   0  0  0  0  0  0  0  0  0  0  0  0
  2  1  1  0
  3  2  2  0
  4  5  2  0
  4  3  1  0
  5 11  1  0
  6  5  1  0
  7  6  1  0
  7  8  1  1
  9 13  1  0
  9  7  1  0
 10  9  2  0
 11 12  2  0
 12  2  1  0
 14 15  1  0
 14 13  1  0
 15 16  2  0
 18 17  1  0
 18 20  1  0
 19 18  2  0
 21 20  1  1
 22 21  1  0
 22 15  1  0
 23 25  1  0
 23 21  1  0
 24 23  2  0
M  END
$$$$
