YGN.pdb
     RDKit          3D

 25 25  0  0  1  0  0  0  0  0999 V2000
    6.3222  -11.3695   27.7670 O   0  0  0  0  0  0  0  0  0  0  0  0
    6.5718  -12.2471   26.6952 C   0  0  0  0  0  0  0  0  0  0  0  0
    6.5372  -13.6107   26.9040 C   0  0  0  0  0  0  0  0  0  0  0  0
    6.7855  -14.4336   25.8362 C   0  0  0  0  0  0  0  0  0  0  0  0
    7.0668  -13.9802   24.5702 C   0  0  0  0  0  0  0  0  0  0  0  0
    7.3346  -14.8777   23.4161 C   0  0  0  0  0  0  0  0  0  0  0  0
    8.7980  -15.2633   23.4766 C   0  0  2  0  0  0  0  0  0  0  0  0
    9.5773  -14.0656   23.2729 N   0  0  0  0  0  0  0  0  0  0  0  0
    9.1338  -16.2444   22.4003 C   0  0  0  0  0  0  0  0  0  0  0  0
    8.8655  -17.4646   22.5428 O   0  0  0  0  0  0  0  0  0  0  0  0
    7.0935  -12.5944   24.3960 C   0  0  0  0  0  0  0  0  0  0  0  0
    6.8477  -11.7468   25.4519 C   0  0  0  0  0  0  0  0  0  0  0  0
    9.7606  -15.8422   21.1910 N   0  0  0  0  0  0  0  0  0  0  0  0
   10.3578  -16.8313   20.3452 C   0  0  0  0  0  0  0  0  0  0  0  0
   11.8154  -16.8829   20.3479 C   0  0  0  0  0  0  0  0  0  0  0  0
   12.4393  -16.9131   19.2289 O   0  0  0  0  0  0  0  0  0  0  0  0
   12.9933  -14.5082   18.7901 N   0  0  0  0  0  0  0  0  0  0  0  0
   14.1913  -14.9162   19.4917 C   0  0  0  0  0  0  0  0  0  0  0  0
   15.2189  -15.0690   18.8197 O   0  0  0  0  0  0  0  0  0  0  0  0
   14.0846  -15.1124   20.9308 C   0  0  0  0  0  0  0  0  0  0  0  0
   14.1033  -16.5480   21.4017 C   0  0  2  0  0  0  0  0  0  0  0  0
   12.6630  -16.9048   21.4719 N   0  0  0  0  0  0  0  0  0  0  0  0
   14.6800  -16.5910   22.7636 C   0  0  0  0  0  0  0  0  0  0  0  0
   15.9154  -16.4402   22.8856 O   0  0  0  0  0  0  0  0  0  0  0  0
   13.9178  -16.7866   23.8822 O   0  0  0  0  0  0  0  0  0  0  0  0
  2  1  1  0
  3  2  2  0
  4  5  2  0
  4  3  1  0
  5 11  1  0
  6  5  1  0
  7  6  1  0
  7  8  1  6
  9 13  1  0
  9  7  1  0
 10  9  2  0
 11 12  2  0
 12  2  1  0
 14 15  1  0
 14 13  1  0
 15 16  2  0
 18 17  1  0
 18 20  1  0
 19 18  2  0
 21 20  1  1
 22 21  1  0
 22 15  1  0
 23 25  1  0
 23 21  1  0
 24 23  2  0
M  END
$$$$
