YGN.pdb
     RDKit          3D

 25 25  0  0  1  0  0  0  0  0999 V2000
    6.8774  -12.0655   28.3866 O   0  0  0  0  0  0  0  0  0  0  0  0
    6.9358  -12.5986   27.0853 C   0  0  0  0  0  0  0  0  0  0  0  0
    6.9245  -11.7508   25.9965 C   0  0  0  0  0  0  0  0  0  0  0  0
    6.9826  -12.3068   24.7450 C   0  0  0  0  0  0  0  0  0  0  0  0
    7.0517  -13.6588   24.5109 C   0  0  0  0  0  0  0  0  0  0  0  0
    7.1152  -14.2557   23.1512 C   0  0  0  0  0  0  0  0  0  0  0  0
    8.4216  -15.0161   23.0547 C   0  0  2  0  0  0  0  0  0  0  0  0
    9.4914  -14.0908   23.3417 N   0  0  0  0  0  0  0  0  0  0  0  0
    8.6164  -15.5647   21.6782 C   0  0  0  0  0  0  0  0  0  0  0  0
    7.9590  -16.5641   21.2907 O   0  0  0  0  0  0  0  0  0  0  0  0
    7.0612  -14.4865   25.6364 C   0  0  0  0  0  0  0  0  0  0  0  0
    7.0036  -13.9531   26.9036 C   0  0  0  0  0  0  0  0  0  0  0  0
    9.5393  -14.9865   20.7667 N   0  0  0  0  0  0  0  0  0  0  0  0
    9.7549  -15.6076   19.4946 C   0  0  0  0  0  0  0  0  0  0  0  0
   11.0294  -16.2962   19.3242 C   0  0  0  0  0  0  0  0  0  0  0  0
   11.2504  -16.9366   18.2365 O   0  0  0  0  0  0  0  0  0  0  0  0
   15.3897  -13.6436   17.9858 N   0  0  0  0  0  0  0  0  0  0  0  0
   15.1198  -14.9020   18.6472 C   0  0  0  0  0  0  0  0  0  0  0  0
   16.0508  -15.7131   18.7266 O   0  0  0  0  0  0  0  0  0  0  0  0
   13.7735  -15.1062   19.1636 C   0  0  0  0  0  0  0  0  0  0  0  0
   13.5172  -16.4423   19.8210 C   0  0  2  0  0  0  0  0  0  0  0  0
   12.0955  -16.3502   20.2421 N   0  0  0  0  0  0  0  0  0  0  0  0
   14.3728  -16.5492   21.0233 C   0  0  0  0  0  0  0  0  0  0  0  0
   15.4537  -17.1700   20.9242 O   0  0  0  0  0  0  0  0  0  0  0  0
   14.0275  -15.9979   22.2265 O   0  0  0  0  0  0  0  0  0  0  0  0
  2  1  1  0
  3  2  2  0
  4  5  2  0
  4  3  1  0
  5 11  1  0
  6  5  1  0
  7  6  1  0
  7  8  1  6
  9 13  1  0
  9  7  1  0
 10  9  2  0
 11 12  2  0
 12  2  1  0
 14 15  1  0
 14 13  1  0
 15 16  2  0
 18 17  1  0
 18 20  1  0
 19 18  2  0
 21 20  1  1
 22 21  1  0
 22 15  1  0
 23 25  1  0
 23 21  1  0
 24 23  2  0
M  END
$$$$
