YGN.pdb
     RDKit          3D

 25 25  0  0  1  0  0  0  0  0999 V2000
   20.3555  -15.6515   12.1835 O   0  0  0  0  0  0  0  0  0  0  0  0
   19.9371  -16.0343   13.4717 C   0  0  0  0  0  0  0  0  0  0  0  0
   19.0982  -15.2094   14.1929 C   0  0  0  0  0  0  0  0  0  0  0  0
   18.7123  -15.6158   15.4437 C   0  0  0  0  0  0  0  0  0  0  0  0
   19.1116  -16.7966   16.0216 C   0  0  0  0  0  0  0  0  0  0  0  0
   18.6891  -17.2322   17.3784 C   0  0  0  0  0  0  0  0  0  0  0  0
   17.4448  -18.0795   17.2113 C   0  0  2  0  0  0  0  0  0  0  0  0
   16.3503  -17.1952   16.8902 N   0  0  0  0  0  0  0  0  0  0  0  0
   17.1219  -18.8045   18.4777 C   0  0  0  0  0  0  0  0  0  0  0  0
   17.6036  -19.9443   18.7010 O   0  0  0  0  0  0  0  0  0  0  0  0
   19.9603  -17.6062   15.2627 C   0  0  0  0  0  0  0  0  0  0  0  0
   20.3624  -17.2207   14.0043 C   0  0  0  0  0  0  0  0  0  0  0  0
   16.2698  -18.2419   19.4648 N   0  0  0  0  0  0  0  0  0  0  0  0
   16.0862  -18.9265   20.7090 C   0  0  0  0  0  0  0  0  0  0  0  0
   17.0029  -18.5624   21.7835 C   0  0  0  0  0  0  0  0  0  0  0  0
   16.7335  -18.9272   22.9820 O   0  0  0  0  0  0  0  0  0  0  0  0
   22.6062  -17.5290   23.2043 N   0  0  0  0  0  0  0  0  0  0  0  0
   21.4317  -16.6910   23.0940 C   0  0  0  0  0  0  0  0  0  0  0  0
   21.4016  -15.6619   23.7804 O   0  0  0  0  0  0  0  0  0  0  0  0
   20.3841  -17.1313   22.1833 C   0  0  0  0  0  0  0  0  0  0  0  0
   19.0787  -17.5345   22.8284 C   0  0  2  0  0  0  0  0  0  0  0  0
   18.1991  -17.8288   21.6680 N   0  0  0  0  0  0  0  0  0  0  0  0
   18.5364  -16.3713   23.5647 C   0  0  0  0  0  0  0  0  0  0  0  0
   17.8870  -15.5175   22.9220 O   0  0  0  0  0  0  0  0  0  0  0  0
   18.7174  -16.1991   24.9094 O   0  0  0  0  0  0  0  0  0  0  0  0
  2  1  1  0
  3  2  2  0
  4  5  2  0
  4  3  1  0
  5 11  1  0
  6  5  1  0
  7  6  1  0
  7  8  1  1
  9 13  1  0
  9  7  1  0
 10  9  2  0
 11 12  2  0
 12  2  1  0
 14 15  1  0
 14 13  1  0
 15 16  2  0
 18 17  1  0
 18 20  1  0
 19 18  2  0
 21 20  1  6
 22 21  1  0
 22 15  1  0
 23 25  1  0
 23 21  1  0
 24 23  2  0
M  END
$$$$
