YGN.pdb
     RDKit          3D

 25 25  0  0  1  0  0  0  0  0999 V2000
    6.2076  -12.4728   18.2036 O   0  0  0  0  0  0  0  0  0  0  0  0
    7.4100  -12.9177   18.7842 C   0  0  0  0  0  0  0  0  0  0  0  0
    7.4715  -14.1719   19.3565 C   0  0  0  0  0  0  0  0  0  0  0  0
    8.6596  -14.5702   19.9120 C   0  0  0  0  0  0  0  0  0  0  0  0
    9.7930  -13.7939   19.9324 C   0  0  0  0  0  0  0  0  0  0  0  0
   11.0788  -14.2318   20.5358 C   0  0  0  0  0  0  0  0  0  0  0  0
   12.0078  -14.5987   19.3972 C   0  0  2  0  0  0  0  0  0  0  0  0
   11.3030  -15.5138   18.5317 N   0  0  0  0  0  0  0  0  0  0  0  0
   13.2378  -15.2741   19.9118 C   0  0  0  0  0  0  0  0  0  0  0  0
   13.9890  -14.6911   20.7346 O   0  0  0  0  0  0  0  0  0  0  0  0
    9.6939  -12.5307   19.3440 C   0  0  0  0  0  0  0  0  0  0  0  0
    8.5124  -12.1072   18.7796 C   0  0  0  0  0  0  0  0  0  0  0  0
   13.6012  -16.5828   19.4969 N   0  0  0  0  0  0  0  0  0  0  0  0
   14.7406  -17.2174   20.0880 C   0  0  0  0  0  0  0  0  0  0  0  0
   14.7512  -17.2899   21.5448 C   0  0  0  0  0  0  0  0  0  0  0  0
   15.3350  -16.3632   22.2099 O   0  0  0  0  0  0  0  0  0  0  0  0
   11.4717  -18.6463   26.1889 N   0  0  0  0  0  0  0  0  0  0  0  0
   12.7142  -19.1568   25.6508 C   0  0  0  0  0  0  0  0  0  0  0  0
   13.4967  -19.6969   26.4426 O   0  0  0  0  0  0  0  0  0  0  0  0
   12.9375  -18.9908   24.2213 C   0  0  0  0  0  0  0  0  0  0  0  0
   14.1889  -18.2376   23.8345 C   0  0  2  0  0  0  0  0  0  0  0  0
   14.1769  -18.2919   22.3500 N   0  0  0  0  0  0  0  0  0  0  0  0
   15.3637  -18.9835   24.3371 C   0  0  0  0  0  0  0  0  0  0  0  0
   15.7658  -19.9653   23.6752 O   0  0  0  0  0  0  0  0  0  0  0  0
   16.0194  -18.6402   25.4873 O   0  0  0  0  0  0  0  0  0  0  0  0
  2  1  1  0
  3  2  2  0
  4  5  2  0
  4  3  1  0
  5 11  1  0
  6  5  1  0
  7  6  1  0
  7  8  1  6
  9 13  1  0
  9  7  1  0
 10  9  2  0
 11 12  2  0
 12  2  1  0
 14 15  1  0
 14 13  1  0
 15 16  2  0
 18 17  1  0
 18 20  1  0
 19 18  2  0
 21 20  1  1
 22 21  1  0
 22 15  1  0
 23 25  1  0
 23 21  1  0
 24 23  2  0
M  END
$$$$
