YGN.pdb
     RDKit          3D

 25 25  0  0  1  0  0  0  0  0999 V2000
   11.0191  -15.2830   30.0120 O   0  0  0  0  0  0  0  0  0  0  0  0
   10.2609  -14.9467   28.8749 C   0  0  0  0  0  0  0  0  0  0  0  0
    9.6214  -13.7254   28.8145 C   0  0  0  0  0  0  0  0  0  0  0  0
    8.8923  -13.4335   27.6911 C   0  0  0  0  0  0  0  0  0  0  0  0
    8.7610  -14.2857   26.6214 C   0  0  0  0  0  0  0  0  0  0  0  0
    7.9694  -13.9631   25.4055 C   0  0  0  0  0  0  0  0  0  0  0  0
    8.2589  -15.0409   24.3816 C   0  0  2  0  0  0  0  0  0  0  0  0
    9.6446  -14.9205   23.9960 N   0  0  0  0  0  0  0  0  0  0  0  0
    7.4048  -14.8638   23.1680 C   0  0  0  0  0  0  0  0  0  0  0  0
    6.1839  -15.1632   23.1977 O   0  0  0  0  0  0  0  0  0  0  0  0
    9.4219  -15.5127   26.7174 C   0  0  0  0  0  0  0  0  0  0  0  0
   10.1602  -15.8298   27.8346 C   0  0  0  0  0  0  0  0  0  0  0  0
    7.9320  -14.3576   21.9502 N   0  0  0  0  0  0  0  0  0  0  0  0
    8.0248  -15.2202   20.8111 C   0  0  0  0  0  0  0  0  0  0  0  0
    9.3466  -15.7670   20.5260 C   0  0  0  0  0  0  0  0  0  0  0  0
    9.4857  -16.5795   19.5449 O   0  0  0  0  0  0  0  0  0  0  0  0
   11.8316  -13.3629   19.0117 N   0  0  0  0  0  0  0  0  0  0  0  0
   12.6011  -14.5769   19.1795 C   0  0  0  0  0  0  0  0  0  0  0  0
   13.0751  -15.0944   18.1604 O   0  0  0  0  0  0  0  0  0  0  0  0
   12.7519  -15.0863   20.5354 C   0  0  0  0  0  0  0  0  0  0  0  0
   11.8173  -16.2081   20.9240 C   0  0  2  0  0  0  0  0  0  0  0  0
   10.5426  -15.5053   21.2211 N   0  0  0  0  0  0  0  0  0  0  0  0
   12.3240  -16.8372   22.1637 C   0  0  0  0  0  0  0  0  0  0  0  0
   11.6434  -16.7176   23.2059 O   0  0  0  0  0  0  0  0  0  0  0  0
   13.4973  -17.5384   22.2093 O   0  0  0  0  0  0  0  0  0  0  0  0
  2  1  1  0
  3  2  2  0
  4  5  2  0
  4  3  1  0
  5 11  1  0
  6  5  1  0
  7  6  1  0
  7  8  1  6
  9 13  1  0
  9  7  1  0
 10  9  2  0
 11 12  2  0
 12  2  1  0
 14 15  1  0
 14 13  1  0
 15 16  2  0
 18 17  1  0
 18 20  1  0
 19 18  2  0
 21 20  1  1
 22 21  1  0
 22 15  1  0
 23 25  1  0
 23 21  1  0
 24 23  2  0
M  END
$$$$
