YGN.pdb
     RDKit          3D

 25 25  0  0  1  0  0  0  0  0999 V2000
    5.6558  -10.9190   27.9206 O   0  0  0  0  0  0  0  0  0  0  0  0
    6.2910  -11.6661   26.9110 C   0  0  0  0  0  0  0  0  0  0  0  0
    5.8349  -11.5877   25.6110 C   0  0  0  0  0  0  0  0  0  0  0  0
    6.4789  -12.3298   24.6552 C   0  0  0  0  0  0  0  0  0  0  0  0
    7.5520  -13.1472   24.9157 C   0  0  0  0  0  0  0  0  0  0  0  0
    8.2466  -13.9490   23.8748 C   0  0  0  0  0  0  0  0  0  0  0  0
    7.3734  -15.1498   23.5752 C   0  0  2  0  0  0  0  0  0  0  0  0
    7.2726  -15.9328   24.7835 N   0  0  0  0  0  0  0  0  0  0  0  0
    7.9822  -15.9951   22.5035 C   0  0  0  0  0  0  0  0  0  0  0  0
    8.1994  -15.5179   21.3606 O   0  0  0  0  0  0  0  0  0  0  0  0
    7.9863  -13.2017   26.2424 C   0  0  0  0  0  0  0  0  0  0  0  0
    7.3568  -12.4664   27.2206 C   0  0  0  0  0  0  0  0  0  0  0  0
    8.3341  -17.3521   22.7312 N   0  0  0  0  0  0  0  0  0  0  0  0
    8.9075  -18.1185   21.6663 C   0  0  0  0  0  0  0  0  0  0  0  0
   10.3602  -18.2492   21.6793 C   0  0  0  0  0  0  0  0  0  0  0  0
   10.9311  -18.9419   20.7648 O   0  0  0  0  0  0  0  0  0  0  0  0
   13.4080  -17.2590   20.6047 N   0  0  0  0  0  0  0  0  0  0  0  0
   13.6853  -16.5470   21.8337 C   0  0  0  0  0  0  0  0  0  0  0  0
   14.0397  -15.3654   21.7380 O   0  0  0  0  0  0  0  0  0  0  0  0
   13.5233  -17.2834   23.0795 C   0  0  0  0  0  0  0  0  0  0  0  0
   12.4871  -18.3829   23.0634 C   0  0  2  0  0  0  0  0  0  0  0  0
   11.2557  -17.6871   22.6090 N   0  0  0  0  0  0  0  0  0  0  0  0
   12.2882  -18.8651   24.4480 C   0  0  0  0  0  0  0  0  0  0  0  0
   13.2029  -19.5347   24.9760 O   0  0  0  0  0  0  0  0  0  0  0  0
   11.1519  -18.6061   25.1638 O   0  0  0  0  0  0  0  0  0  0  0  0
  2  1  1  0
  3  2  2  0
  4  5  2  0
  4  3  1  0
  5 11  1  0
  6  5  1  0
  7  6  1  0
  7  8  1  1
  9 13  1  0
  9  7  1  0
 10  9  2  0
 11 12  2  0
 12  2  1  0
 14 15  1  0
 14 13  1  0
 15 16  2  0
 18 17  1  0
 18 20  1  0
 19 18  2  0
 21 20  1  1
 22 21  1  0
 22 15  1  0
 23 25  1  0
 23 21  1  0
 24 23  2  0
M  END
$$$$
