YGN.pdb
     RDKit          3D

 25 25  0  0  1  0  0  0  0  0999 V2000
    9.5822  -11.6692   19.0832 O   0  0  0  0  0  0  0  0  0  0  0  0
    8.6929  -12.6805   19.4922 C   0  0  0  0  0  0  0  0  0  0  0  0
    8.1906  -12.6724   20.7775 C   0  0  0  0  0  0  0  0  0  0  0  0
    7.3273  -13.6738   21.1393 C   0  0  0  0  0  0  0  0  0  0  0  0
    6.9327  -14.6851   20.2973 C   0  0  0  0  0  0  0  0  0  0  0  0
    5.9957  -15.7680   20.6954 C   0  0  0  0  0  0  0  0  0  0  0  0
    6.8030  -16.8089   21.4429 C   0  0  2  0  0  0  0  0  0  0  0  0
    7.1651  -16.2490   22.7230 N   0  0  0  0  0  0  0  0  0  0  0  0
    8.0521  -17.1492   20.6961 C   0  0  0  0  0  0  0  0  0  0  0  0
    7.9912  -17.7209   19.5778 O   0  0  0  0  0  0  0  0  0  0  0  0
    7.4611  -14.6614   19.0043 C   0  0  0  0  0  0  0  0  0  0  0  0
    8.3297  -13.6670   18.6163 C   0  0  0  0  0  0  0  0  0  0  0  0
    9.3391  -16.8444   21.2136 N   0  0  0  0  0  0  0  0  0  0  0  0
   10.4981  -17.0985   20.4120 C   0  0  0  0  0  0  0  0  0  0  0  0
   11.6075  -16.1655   20.5736 C   0  0  0  0  0  0  0  0  0  0  0  0
   11.5747  -15.3200   21.5359 O   0  0  0  0  0  0  0  0  0  0  0  0
   15.5981  -14.3648   22.2610 N   0  0  0  0  0  0  0  0  0  0  0  0
   15.3205  -15.7826   22.3449 C   0  0  0  0  0  0  0  0  0  0  0  0
   15.7479  -16.3873   23.3361 O   0  0  0  0  0  0  0  0  0  0  0  0
   14.5607  -16.3769   21.2539 C   0  0  0  0  0  0  0  0  0  0  0  0
   14.0094  -15.4090   20.2330 C   0  0  2  0  0  0  0  0  0  0  0  0
   12.7614  -16.0702   19.7725 N   0  0  0  0  0  0  0  0  0  0  0  0
   14.9588  -15.3243   19.1014 C   0  0  0  0  0  0  0  0  0  0  0  0
   15.4472  -14.2069   18.8242 O   0  0  0  0  0  0  0  0  0  0  0  0
   15.3183  -16.4133   18.3562 O   0  0  0  0  0  0  0  0  0  0  0  0
  2  1  1  0
  3  2  2  0
  4  5  2  0
  4  3  1  0
  5 11  1  0
  6  5  1  0
  7  6  1  0
  7  8  1  1
  9 13  1  0
  9  7  1  0
 10  9  2  0
 11 12  2  0
 12  2  1  0
 14 15  1  0
 14 13  1  0
 15 16  2  0
 18 17  1  0
 18 20  1  0
 19 18  2  0
 21 20  1  1
 22 21  1  0
 22 15  1  0
 23 25  1  0
 23 21  1  0
 24 23  2  0
M  END
$$$$
