YGN.pdb
     RDKit          3D

 25 25  0  0  1  0  0  0  0  0999 V2000
    6.4629  -14.4854   49.5802 O   0  0  0  0  0  0  0  0  0  0  0  0
    7.2297  -14.3731   48.4054 C   0  0  0  0  0  0  0  0  0  0  0  0
    7.1242  -13.2407   47.6239 C   0  0  0  0  0  0  0  0  0  0  0  0
    7.8867  -13.1675   46.4872 C   0  0  0  0  0  0  0  0  0  0  0  0
    8.7501  -14.1557   46.0803 C   0  0  0  0  0  0  0  0  0  0  0  0
    9.5749  -14.0702   44.8468 C   0  0  0  0  0  0  0  0  0  0  0  0
    9.0694  -12.8861   44.0491 C   0  0  2  0  0  0  0  0  0  0  0  0
    7.8576  -13.2925   43.3785 N   0  0  0  0  0  0  0  0  0  0  0  0
   10.0719  -12.4710   43.0213 C   0  0  0  0  0  0  0  0  0  0  0  0
   10.1801  -13.1071   41.9421 O   0  0  0  0  0  0  0  0  0  0  0  0
    8.8311  -15.2872   46.8956 C   0  0  0  0  0  0  0  0  0  0  0  0
    8.0760  -15.3851   48.0419 C   0  0  0  0  0  0  0  0  0  0  0  0
   10.9299  -11.3570   43.2211 N   0  0  0  0  0  0  0  0  0  0  0  0
   12.1219  -11.5173   43.9981 C   0  0  0  0  0  0  0  0  0  0  0  0
   13.2101  -12.2500   43.3606 C   0  0  0  0  0  0  0  0  0  0  0  0
   14.4001  -12.1197   43.8179 O   0  0  0  0  0  0  0  0  0  0  0  0
   15.5697  -15.8657   43.2157 N   0  0  0  0  0  0  0  0  0  0  0  0
   14.4436  -16.3138   42.4250 C   0  0  0  0  0  0  0  0  0  0  0  0
   14.1658  -17.5190   42.4641 O   0  0  0  0  0  0  0  0  0  0  0  0
   13.7327  -15.3065   41.6500 C   0  0  0  0  0  0  0  0  0  0  0  0
   14.2744  -13.8993   41.7468 C   0  0  2  0  0  0  0  0  0  0  0  0
   13.1171  -13.1208   42.2582 N   0  0  0  0  0  0  0  0  0  0  0  0
   14.6117  -13.4282   40.3854 C   0  0  0  0  0  0  0  0  0  0  0  0
   13.7705  -12.7301   39.7780 O   0  0  0  0  0  0  0  0  0  0  0  0
   15.7989  -13.7248   39.7746 O   0  0  0  0  0  0  0  0  0  0  0  0
  2  1  1  0
  3  2  2  0
  4  5  2  0
  4  3  1  0
  5 11  1  0
  6  5  1  0
  7  6  1  0
  7  8  1  6
  9 13  1  0
  9  7  1  0
 10  9  2  0
 11 12  2  0
 12  2  1  0
 14 15  1  0
 14 13  1  0
 15 16  2  0
 18 17  1  0
 18 20  1  0
 19 18  2  0
 21 20  1  6
 22 21  1  0
 22 15  1  0
 23 25  1  0
 23 21  1  0
 24 23  2  0
M  END
$$$$
