KIR.pdb
     RDKit          3D

 29 28  0  0  1  0  0  0  0  0999 V2000
   28.7321  -20.7181  -15.0463 N   0  0  0  0  0  0  0  0  0  0  0  0
   28.0497  -19.8431  -14.0972 C   0  0  1  0  0  0  0  0  0  0  0  0
   27.3312  -18.8131  -14.8680 C   0  0  0  0  0  0  0  0  0  0  0  0
   28.0902  -17.8645  -15.6936 C   0  0  0  0  0  0  0  0  0  0  0  0
   27.3639  -16.8056  -16.3978 C   0  0  0  0  0  0  0  0  0  0  0  0
   28.1187  -15.8872  -17.2630 C   0  0  0  0  0  0  0  0  0  0  0  0
   27.1227  -14.8821  -17.7709 N   0  0  0  0  0  0  0  0  0  0  0  0
   26.9561  -20.6598  -13.4075 C   0  0  0  0  0  0  0  0  0  0  0  0
   26.5383  -21.7133  -13.9362 O   0  0  0  0  0  0  0  0  0  0  0  0
   27.0780  -20.3685   -8.0022 C   0  0  0  0  0  0  0  0  0  0  0  0
   26.9698  -20.9643   -9.4116 C   0  0  0  0  0  0  0  0  0  0  0  0
   25.6612  -20.5871  -10.0073 C   0  0  2  0  0  0  0  0  0  0  0  0
   24.4884  -20.9943   -9.1140 C   0  0  0  0  0  0  0  0  0  0  0  0
   25.4233  -20.9790  -11.4236 C   0  0  2  0  0  0  0  0  0  0  0  0
   26.4387  -20.2148  -12.1944 N   0  0  0  0  0  0  0  0  0  0  0  0
   24.1339  -20.6220  -12.0043 C   0  0  0  0  0  0  0  0  0  0  0  0
   23.6475  -19.4369  -11.8948 O   0  0  0  0  0  0  0  0  0  0  0  0
   20.1425  -21.1869  -19.1372 N   0  0  0  0  0  0  0  0  0  0  0  0
   19.0789  -20.7984  -18.2793 C   0  0  0  0  0  0  0  0  0  0  0  0
   17.8766  -20.6862  -18.7438 N   0  0  0  0  0  0  0  0  0  0  0  0
   19.2850  -20.5221  -16.9126 N   0  0  0  0  0  0  0  0  0  0  0  0
   20.5914  -20.5939  -16.2963 C   0  0  0  0  0  0  0  0  0  0  0  0
   20.6221  -21.7572  -15.3583 C   0  0  0  0  0  0  0  0  0  0  0  0
   21.8956  -21.9007  -14.6021 C   0  0  0  0  0  0  0  0  0  0  0  0
   22.0537  -21.0224  -13.4087 C   0  0  2  0  0  0  0  0  0  0  0  0
   23.2800  -21.4897  -12.7382 N   0  0  0  0  0  0  0  0  0  0  0  0
   20.8948  -21.1393  -12.4813 C   0  0  0  0  0  0  0  0  0  0  0  0
   19.8341  -20.2704  -12.6101 O   0  0  0  0  0  0  0  0  0  0  0  0
   20.9539  -22.0451  -11.6153 O   0  0  0  0  0  0  0  0  0  0  0  0
  2  1  1  6
  2  3  1  0
  3  4  1  0
  4  5  1  0
  6  5  1  0
  7  6  1  0
  8  2  1  0
  9  8  2  0
 11 12  1  0
 11 10  1  0
 12 14  1  0
 12 13  1  1
 14 15  1  6
 15  8  1  0
 16 14  1  0
 16 26  1  0
 17 16  2  0
 18 19  1  0
 19 20  2  0
 21 19  1  0
 21 22  1  0
 23 22  1  0
 24 23  1  0
 25 26  1  0
 25 24  1  6
 27 25  1  0
 28 27  1  0
 29 27  2  0
M  END
$$$$
