KIR.pdb
     RDKit          3D

 29 28  0  0  1  0  0  0  0  0999 V2000
   24.6134  -20.2497  -15.2361 N   0  0  0  0  0  0  0  0  0  0  0  0
   23.6741  -19.6902  -14.2682 C   0  0  1  0  0  0  0  0  0  0  0  0
   22.3516  -19.6142  -14.9135 C   0  0  0  0  0  0  0  0  0  0  0  0
   22.1954  -18.8503  -16.1582 C   0  0  0  0  0  0  0  0  0  0  0  0
   22.5646  -17.4330  -16.1658 C   0  0  0  0  0  0  0  0  0  0  0  0
   22.3841  -16.6634  -17.4055 C   0  0  0  0  0  0  0  0  0  0  0  0
   22.8457  -15.2660  -17.0978 N   0  0  0  0  0  0  0  0  0  0  0  0
   23.5070  -20.7040  -13.1354 C   0  0  0  0  0  0  0  0  0  0  0  0
   23.3670  -21.9178  -13.4015 O   0  0  0  0  0  0  0  0  0  0  0  0
   26.1079  -19.2642   -8.6353 C   0  0  0  0  0  0  0  0  0  0  0  0
   25.6045  -20.1730   -9.7640 C   0  0  0  0  0  0  0  0  0  0  0  0
   24.1578  -20.4510   -9.5650 C   0  0  2  0  0  0  0  0  0  0  0  0
   23.8805  -21.0855   -8.2013 C   0  0  0  0  0  0  0  0  0  0  0  0
   23.4520  -21.1803  -10.6541 C   0  0  2  0  0  0  0  0  0  0  0  0
   23.5127  -20.2571  -11.8172 N   0  0  0  0  0  0  0  0  0  0  0  0
   22.0369  -21.4697  -10.4515 C   0  0  0  0  0  0  0  0  0  0  0  0
   21.1446  -20.5449  -10.4923 O   0  0  0  0  0  0  0  0  0  0  0  0
   16.9220  -27.5714   -9.0117 N   0  0  0  0  0  0  0  0  0  0  0  0
   16.2164  -27.3089  -10.2165 C   0  0  0  0  0  0  0  0  0  0  0  0
   15.0987  -27.9132  -10.4603 N   0  0  0  0  0  0  0  0  0  0  0  0
   16.6960  -26.3982  -11.1794 N   0  0  0  0  0  0  0  0  0  0  0  0
   18.0973  -26.0597  -11.2951 C   0  0  0  0  0  0  0  0  0  0  0  0
   18.3439  -24.7662  -10.5880 C   0  0  0  0  0  0  0  0  0  0  0  0
   19.7328  -24.2494  -10.7234 C   0  0  0  0  0  0  0  0  0  0  0  0
   20.0273  -22.9664  -10.0252 C   0  0  2  0  0  0  0  0  0  0  0  0
   21.4750  -22.7503  -10.1969 N   0  0  0  0  0  0  0  0  0  0  0  0
   19.6957  -23.0392   -8.5755 C   0  0  0  0  0  0  0  0  0  0  0  0
   18.4030  -22.8025   -8.1639 O   0  0  0  0  0  0  0  0  0  0  0  0
   20.6368  -23.3191   -7.7945 O   0  0  0  0  0  0  0  0  0  0  0  0
  2  1  1  6
  2  3  1  0
  3  4  1  0
  4  5  1  0
  6  5  1  0
  7  6  1  0
  8  2  1  0
  9  8  2  0
 11 12  1  0
 11 10  1  0
 12 14  1  0
 12 13  1  1
 14 15  1  6
 15  8  1  0
 16 14  1  0
 16 26  1  0
 17 16  2  0
 18 19  1  0
 19 20  2  0
 21 19  1  0
 21 22  1  0
 23 22  1  0
 24 23  1  0
 25 26  1  0
 25 24  1  6
 27 25  1  0
 28 27  1  0
 29 27  2  0
M  END
$$$$
