KIR.pdb
     RDKit          3D

 29 28  0  0  1  0  0  0  0  0999 V2000
   28.7053  -21.1706  -15.2426 N   0  0  0  0  0  0  0  0  0  0  0  0
   28.1002  -20.1515  -14.3897 C   0  0  1  0  0  0  0  0  0  0  0  0
   27.5783  -19.0842  -15.2613 C   0  0  0  0  0  0  0  0  0  0  0  0
   28.5164  -18.2141  -15.9826 C   0  0  0  0  0  0  0  0  0  0  0  0
   29.3442  -18.7955  -17.0417 C   0  0  0  0  0  0  0  0  0  0  0  0
   28.9161  -18.6369  -18.4393 C   0  0  0  0  0  0  0  0  0  0  0  0
   29.7450  -17.5165  -19.0031 N   0  0  0  0  0  0  0  0  0  0  0  0
   26.8654  -20.7650  -13.7281 C   0  0  0  0  0  0  0  0  0  0  0  0
   26.2420  -21.6837  -14.3038 O   0  0  0  0  0  0  0  0  0  0  0  0
   27.1650  -20.5360   -8.4246 C   0  0  0  0  0  0  0  0  0  0  0  0
   26.8483  -21.1784   -9.7811 C   0  0  0  0  0  0  0  0  0  0  0  0
   25.5921  -20.5955  -10.3214 C   0  0  2  0  0  0  0  0  0  0  0  0
   24.3878  -20.9110   -9.4329 C   0  0  0  0  0  0  0  0  0  0  0  0
   25.2878  -20.8530  -11.7557 C   0  0  2  0  0  0  0  0  0  0  0  0
   26.4513  -20.2880  -12.4878 N   0  0  0  0  0  0  0  0  0  0  0  0
   24.1115  -20.1957  -12.3138 C   0  0  0  0  0  0  0  0  0  0  0  0
   24.1898  -19.0573  -12.9063 O   0  0  0  0  0  0  0  0  0  0  0  0
   24.0942  -25.4509  -17.5622 N   0  0  0  0  0  0  0  0  0  0  0  0
   23.6043  -25.4159  -16.2291 C   0  0  0  0  0  0  0  0  0  0  0  0
   23.7746  -26.4323  -15.4469 N   0  0  0  0  0  0  0  0  0  0  0  0
   22.9234  -24.2950  -15.7130 N   0  0  0  0  0  0  0  0  0  0  0  0
   22.6842  -23.1046  -16.4988 C   0  0  0  0  0  0  0  0  0  0  0  0
   21.9590  -22.1050  -15.6569 C   0  0  0  0  0  0  0  0  0  0  0  0
   22.6598  -21.7437  -14.3949 C   0  0  0  0  0  0  0  0  0  0  0  0
   21.9419  -20.8010  -13.4914 C   0  0  2  0  0  0  0  0  0  0  0  0
   22.7821  -20.6982  -12.2850 N   0  0  0  0  0  0  0  0  0  0  0  0
   20.5915  -21.3098  -13.1249 C   0  0  0  0  0  0  0  0  0  0  0  0
   20.4716  -22.2619  -12.1371 O   0  0  0  0  0  0  0  0  0  0  0  0
   19.6176  -20.8292  -13.7531 O   0  0  0  0  0  0  0  0  0  0  0  0
  2  1  1  6
  2  3  1  0
  3  4  1  0
  4  5  1  0
  6  5  1  0
  7  6  1  0
  8  2  1  0
  9  8  2  0
 11 12  1  0
 11 10  1  0
 12 14  1  0
 12 13  1  1
 14 15  1  6
 15  8  1  0
 16 14  1  0
 16 26  1  0
 17 16  2  0
 18 19  1  0
 19 20  2  0
 21 19  1  0
 21 22  1  0
 23 22  1  0
 24 23  1  0
 25 26  1  0
 25 24  1  6
 27 25  1  0
 28 27  1  0
 29 27  2  0
M  END
$$$$
