KIR.pdb
     RDKit          3D

 29 28  0  0  1  0  0  0  0  0999 V2000
   24.6033  -20.4732   -7.5278 N   0  0  0  0  0  0  0  0  0  0  0  0
   24.5142  -21.1674   -8.8093 C   0  0  1  0  0  0  0  0  0  0  0  0
   23.0900  -21.2580   -9.1763 C   0  0  0  0  0  0  0  0  0  0  0  0
   22.1058  -21.6677   -8.1659 C   0  0  0  0  0  0  0  0  0  0  0  0
   20.7396  -21.9724   -8.5964 C   0  0  0  0  0  0  0  0  0  0  0  0
   19.7633  -22.4112   -7.5884 C   0  0  0  0  0  0  0  0  0  0  0  0
   18.4625  -22.5909   -8.3205 N   0  0  0  0  0  0  0  0  0  0  0  0
   25.1440  -20.2695   -9.8751 C   0  0  0  0  0  0  0  0  0  0  0  0
   25.1560  -19.0291   -9.7167 O   0  0  0  0  0  0  0  0  0  0  0  0
   29.9663  -21.1639  -10.8891 C   0  0  0  0  0  0  0  0  0  0  0  0
   28.5933  -20.4978  -10.7323 C   0  0  0  0  0  0  0  0  0  0  0  0
   27.8236  -20.6516  -11.9947 C   0  0  2  0  0  0  0  0  0  0  0  0
   28.6380  -20.2223  -13.2160 C   0  0  0  0  0  0  0  0  0  0  0  0
   26.4532  -20.0712  -12.0276 C   0  0  2  0  0  0  0  0  0  0  0  0
   25.6971  -20.8503  -11.0126 N   0  0  0  0  0  0  0  0  0  0  0  0
   25.7034  -20.2079  -13.2711 C   0  0  0  0  0  0  0  0  0  0  0  0
   25.4546  -21.3585  -13.7882 O   0  0  0  0  0  0  0  0  0  0  0  0
   20.5815  -14.4349  -17.9800 N   0  0  0  0  0  0  0  0  0  0  0  0
   20.4683  -15.7328  -18.5464 C   0  0  0  0  0  0  0  0  0  0  0  0
   19.6564  -15.9439  -19.5313 N   0  0  0  0  0  0  0  0  0  0  0  0
   21.2198  -16.8247  -18.0671 N   0  0  0  0  0  0  0  0  0  0  0  0
   22.0842  -16.7227  -16.9121 C   0  0  0  0  0  0  0  0  0  0  0  0
   22.7623  -18.0369  -16.6959 C   0  0  0  0  0  0  0  0  0  0  0  0
   23.6442  -18.0813  -15.4982 C   0  0  0  0  0  0  0  0  0  0  0  0
   24.3647  -19.3637  -15.2600 C   0  0  2  0  0  0  0  0  0  0  0  0
   25.1672  -19.1421  -14.0439 N   0  0  0  0  0  0  0  0  0  0  0  0
   25.2583  -19.7134  -16.3984 C   0  0  0  0  0  0  0  0  0  0  0  0
   24.8140  -20.5895  -17.3637 O   0  0  0  0  0  0  0  0  0  0  0  0
   26.3918  -19.1759  -16.4120 O   0  0  0  0  0  0  0  0  0  0  0  0
  2  1  1  1
  2  3  1  0
  3  4  1  0
  4  5  1  0
  6  5  1  0
  7  6  1  0
  8  2  1  0
  9  8  2  0
 11 12  1  0
 11 10  1  0
 12 14  1  0
 12 13  1  6
 14 15  1  1
 15  8  1  0
 16 14  1  0
 16 26  1  0
 17 16  2  0
 18 19  1  0
 19 20  2  0
 21 19  1  0
 21 22  1  0
 23 22  1  0
 24 23  1  0
 25 26  1  0
 25 24  1  6
 27 25  1  0
 28 27  1  0
 29 27  2  0
M  END
$$$$
