KIR.pdb
     RDKit          3D

 29 28  0  0  1  0  0  0  0  0999 V2000
   18.0741  -12.3121    4.9904 N   0  0  0  0  0  0  0  0  0  0  0  0
   18.1487  -12.6922    6.3983 C   0  0  1  0  0  0  0  0  0  0  0  0
   16.7839  -13.0107    6.8534 C   0  0  0  0  0  0  0  0  0  0  0  0
   15.9512  -11.9538    7.4425 C   0  0  0  0  0  0  0  0  0  0  0  0
   14.6248  -12.3053    7.9543 C   0  0  0  0  0  0  0  0  0  0  0  0
   13.8110  -11.2559    8.5853 C   0  0  0  0  0  0  0  0  0  0  0  0
   12.5406  -11.9261    9.0294 N   0  0  0  0  0  0  0  0  0  0  0  0
   18.9169  -14.0115    6.4889 C   0  0  0  0  0  0  0  0  0  0  0  0
   19.0699  -14.7147    5.4662 O   0  0  0  0  0  0  0  0  0  0  0  0
   23.3482  -13.5668    9.1599 C   0  0  0  0  0  0  0  0  0  0  0  0
   22.3349  -14.0394    8.1097 C   0  0  0  0  0  0  0  0  0  0  0  0
   21.4614  -15.0857    8.7031 C   0  0  2  0  0  0  0  0  0  0  0  0
   22.2728  -16.2417    9.2899 C   0  0  0  0  0  0  0  0  0  0  0  0
   20.3372  -15.5852    7.8647 C   0  0  2  0  0  0  0  0  0  0  0  0
   19.4369  -14.4121    7.7163 N   0  0  0  0  0  0  0  0  0  0  0  0
   19.5121  -16.6493    8.4253 C   0  0  0  0  0  0  0  0  0  0  0  0
   18.8300  -16.4806    9.5020 O   0  0  0  0  0  0  0  0  0  0  0  0
   14.5597  -23.1957    5.0312 N   0  0  0  0  0  0  0  0  0  0  0  0
   14.5626  -23.3330    6.4452 C   0  0  0  0  0  0  0  0  0  0  0  0
   13.8267  -24.2331    7.0126 N   0  0  0  0  0  0  0  0  0  0  0  0
   15.3506  -22.5088    7.2737 N   0  0  0  0  0  0  0  0  0  0  0  0
   16.2490  -21.5081    6.7415 C   0  0  0  0  0  0  0  0  0  0  0  0
   16.8875  -20.7760    7.8774 C   0  0  0  0  0  0  0  0  0  0  0  0
   17.7835  -19.6629    7.4621 C   0  0  0  0  0  0  0  0  0  0  0  0
   18.5575  -19.0016    8.5502 C   0  0  2  0  0  0  0  0  0  0  0  0
   19.3525  -17.9543    7.8847 N   0  0  0  0  0  0  0  0  0  0  0  0
   19.4625  -19.9595    9.2431 C   0  0  0  0  0  0  0  0  0  0  0  0
   19.0216  -20.6110   10.3735 O   0  0  0  0  0  0  0  0  0  0  0  0
   20.6022  -20.1211    8.7440 O   0  0  0  0  0  0  0  0  0  0  0  0
  2  1  1  6
  2  3  1  0
  3  4  1  0
  4  5  1  0
  6  5  1  0
  7  6  1  0
  8  2  1  0
  9  8  2  0
 11 12  1  0
 11 10  1  0
 12 14  1  0
 12 13  1  6
 14 15  1  1
 15  8  1  0
 16 14  1  0
 16 26  1  0
 17 16  2  0
 18 19  1  0
 19 20  2  0
 21 19  1  0
 21 22  1  0
 23 22  1  0
 24 23  1  0
 25 26  1  0
 25 24  1  6
 27 25  1  0
 28 27  1  0
 29 27  2  0
M  END
$$$$
