KIR.pdb
     RDKit          3D

 29 28  0  0  1  0  0  0  0  0999 V2000
   23.3166  -16.6658  -19.6635 N   0  0  0  0  0  0  0  0  0  0  0  0
   23.5341  -16.2832  -18.2712 C   0  0  1  0  0  0  0  0  0  0  0  0
   22.2149  -16.0850  -17.6455 C   0  0  0  0  0  0  0  0  0  0  0  0
   21.3591  -14.9785  -18.0935 C   0  0  0  0  0  0  0  0  0  0  0  0
   20.0340  -14.8237  -17.4894 C   0  0  0  0  0  0  0  0  0  0  0  0
   19.1441  -13.7708  -18.0003 C   0  0  0  0  0  0  0  0  0  0  0  0
   17.8282  -13.9625  -17.2987 N   0  0  0  0  0  0  0  0  0  0  0  0
   24.1439  -17.4824  -17.5440 C   0  0  0  0  0  0  0  0  0  0  0  0
   23.8636  -18.6436  -17.9140 O   0  0  0  0  0  0  0  0  0  0  0  0
   28.3670  -18.5219  -17.4126 C   0  0  0  0  0  0  0  0  0  0  0  0
   27.9725  -17.2899  -16.5881 C   0  0  0  0  0  0  0  0  0  0  0  0
   27.0852  -17.7077  -15.4710 C   0  0  2  0  0  0  0  0  0  0  0  0
   27.8360  -18.5288  -14.4217 C   0  0  0  0  0  0  0  0  0  0  0  0
   25.7926  -18.3497  -15.8363 C   0  0  2  0  0  0  0  0  0  0  0  0
   25.0065  -17.2616  -16.4742 N   0  0  0  0  0  0  0  0  0  0  0  0
   24.9655  -18.8473  -14.7429 C   0  0  0  0  0  0  0  0  0  0  0  0
   24.5797  -18.0825  -13.7840 O   0  0  0  0  0  0  0  0  0  0  0  0
   18.3164  -23.2649  -11.5687 N   0  0  0  0  0  0  0  0  0  0  0  0
   18.2187  -22.1837  -12.4851 C   0  0  0  0  0  0  0  0  0  0  0  0
   17.1370  -21.4763  -12.5432 N   0  0  0  0  0  0  0  0  0  0  0  0
   19.2749  -21.8439  -13.3543 N   0  0  0  0  0  0  0  0  0  0  0  0
   20.4673  -22.6530  -13.4775 C   0  0  0  0  0  0  0  0  0  0  0  0
   21.6252  -21.9012  -12.9049 C   0  0  0  0  0  0  0  0  0  0  0  0
   22.5282  -21.2991  -13.9228 C   0  0  0  0  0  0  0  0  0  0  0  0
   23.7565  -20.6358  -13.4013 C   0  0  2  0  0  0  0  0  0  0  0  0
   24.4916  -20.1792  -14.5942 N   0  0  0  0  0  0  0  0  0  0  0  0
   24.6010  -21.5785  -12.6172 C   0  0  0  0  0  0  0  0  0  0  0  0
   24.4397  -21.6568  -11.2518 O   0  0  0  0  0  0  0  0  0  0  0  0
   25.4308  -22.2634  -13.2625 O   0  0  0  0  0  0  0  0  0  0  0  0
  2  1  1  6
  2  3  1  0
  3  4  1  0
  4  5  1  0
  6  5  1  0
  7  6  1  0
  8  2  1  0
  9  8  2  0
 11 12  1  0
 11 10  1  0
 12 14  1  0
 12 13  1  1
 14 15  1  1
 15  8  1  0
 16 14  1  0
 16 26  1  0
 17 16  2  0
 18 19  1  0
 19 20  2  0
 21 19  1  0
 21 22  1  0
 23 22  1  0
 24 23  1  0
 25 26  1  0
 25 24  1  6
 27 25  1  0
 28 27  1  0
 29 27  2  0
M  END
$$$$
