KIR.pdb
     RDKit          3D

 29 28  0  0  1  0  0  0  0  0999 V2000
   27.3592  -18.1286  -15.5054 N   0  0  0  0  0  0  0  0  0  0  0  0
   26.2773  -19.0264  -15.8998 C   0  0  1  0  0  0  0  0  0  0  0  0
   26.4362  -20.2835  -15.1477 C   0  0  0  0  0  0  0  0  0  0  0  0
   27.5529  -21.1828  -15.4667 C   0  0  0  0  0  0  0  0  0  0  0  0
   27.8258  -21.4960  -16.8711 C   0  0  0  0  0  0  0  0  0  0  0  0
   28.9241  -22.4209  -17.1874 C   0  0  0  0  0  0  0  0  0  0  0  0
   28.8877  -22.6149  -18.6778 N   0  0  0  0  0  0  0  0  0  0  0  0
   24.9626  -18.4264  -15.3997 C   0  0  0  0  0  0  0  0  0  0  0  0
   24.9129  -17.8876  -14.2722 O   0  0  0  0  0  0  0  0  0  0  0  0
   22.6990  -14.7434  -17.9499 C   0  0  0  0  0  0  0  0  0  0  0  0
   23.1598  -15.7205  -16.8608 C   0  0  0  0  0  0  0  0  0  0  0  0
   22.2305  -16.8797  -16.8131 C   0  0  2  0  0  0  0  0  0  0  0  0
   20.7677  -16.4371  -16.7541 C   0  0  0  0  0  0  0  0  0  0  0  0
   22.5165  -17.9363  -15.8042 C   0  0  2  0  0  0  0  0  0  0  0  0
   23.8341  -18.4901  -16.2120 N   0  0  0  0  0  0  0  0  0  0  0  0
   21.6058  -19.0745  -15.7575 C   0  0  0  0  0  0  0  0  0  0  0  0
   21.3367  -19.7692  -16.8054 O   0  0  0  0  0  0  0  0  0  0  0  0
   16.4640  -22.8467  -11.2630 N   0  0  0  0  0  0  0  0  0  0  0  0
   17.0851  -24.1198  -11.3714 C   0  0  0  0  0  0  0  0  0  0  0  0
   16.3844  -25.1988  -11.2349 N   0  0  0  0  0  0  0  0  0  0  0  0
   18.4645  -24.2584  -11.6255 N   0  0  0  0  0  0  0  0  0  0  0  0
   19.3520  -23.1207  -11.7246 C   0  0  0  0  0  0  0  0  0  0  0  0
   19.2237  -22.5228  -13.0884 C   0  0  0  0  0  0  0  0  0  0  0  0
   20.1701  -21.4069  -13.3592 C   0  0  0  0  0  0  0  0  0  0  0  0
   19.9798  -20.6819  -14.6471 C   0  0  2  0  0  0  0  0  0  0  0  0
   20.9256  -19.5525  -14.6044 N   0  0  0  0  0  0  0  0  0  0  0  0
   18.5888  -20.1709  -14.7914 C   0  0  0  0  0  0  0  0  0  0  0  0
   17.6470  -20.9430  -15.4345 O   0  0  0  0  0  0  0  0  0  0  0  0
   18.3501  -19.0388  -14.3063 O   0  0  0  0  0  0  0  0  0  0  0  0
  2  1  1  1
  2  3  1  0
  3  4  1  0
  4  5  1  0
  6  5  1  0
  7  6  1  0
  8  2  1  0
  9  8  2  0
 11 12  1  0
 11 10  1  0
 12 14  1  0
 12 13  1  1
 14 15  1  6
 15  8  1  0
 16 14  1  0
 16 26  1  0
 17 16  2  0
 18 19  1  0
 19 20  2  0
 21 19  1  0
 21 22  1  0
 23 22  1  0
 24 23  1  0
 25 26  1  0
 25 24  1  1
 27 25  1  0
 28 27  1  0
 29 27  2  0
M  END
$$$$
