KIR.pdb
     RDKit          3D

 29 28  0  0  1  0  0  0  0  0999 V2000
   27.1840  -22.2058  -15.2169 N   0  0  0  0  0  0  0  0  0  0  0  0
   25.8591  -22.3509  -15.8135 C   0  0  1  0  0  0  0  0  0  0  0  0
   25.3933  -23.7241  -15.5515 C   0  0  0  0  0  0  0  0  0  0  0  0
   25.5470  -24.7519  -16.5895 C   0  0  0  0  0  0  0  0  0  0  0  0
   26.8976  -25.1455  -16.9965 C   0  0  0  0  0  0  0  0  0  0  0  0
   27.0531  -26.0504  -18.1448 C   0  0  0  0  0  0  0  0  0  0  0  0
   28.5211  -26.0613  -18.4693 N   0  0  0  0  0  0  0  0  0  0  0  0
   24.8949  -21.4491  -15.0416 C   0  0  0  0  0  0  0  0  0  0  0  0
   25.1582  -21.1186  -13.8647 O   0  0  0  0  0  0  0  0  0  0  0  0
   24.6741  -17.4863  -15.0214 C   0  0  0  0  0  0  0  0  0  0  0  0
   24.2076  -18.2271  -16.2810 C   0  0  0  0  0  0  0  0  0  0  0  0
   22.8804  -18.8462  -16.0259 C   0  0  2  0  0  0  0  0  0  0  0  0
   21.8158  -17.7990  -15.6955 C   0  0  0  0  0  0  0  0  0  0  0  0
   22.8364  -19.9831  -15.0660 C   0  0  2  0  0  0  0  0  0  0  0  0
   23.7312  -21.0076  -15.6649 N   0  0  0  0  0  0  0  0  0  0  0  0
   21.5497  -20.6432  -14.8763 C   0  0  0  0  0  0  0  0  0  0  0  0
   20.7619  -20.8862  -15.8631 O   0  0  0  0  0  0  0  0  0  0  0  0
   17.2705  -26.4203  -11.5957 N   0  0  0  0  0  0  0  0  0  0  0  0
   18.6687  -26.3475  -11.3549 C   0  0  0  0  0  0  0  0  0  0  0  0
   19.4185  -27.3819  -11.5593 N   0  0  0  0  0  0  0  0  0  0  0  0
   19.2860  -25.1686  -10.8902 N   0  0  0  0  0  0  0  0  0  0  0  0
   18.5386  -23.9638  -10.6048 C   0  0  0  0  0  0  0  0  0  0  0  0
   18.4427  -23.1454  -11.8517 C   0  0  0  0  0  0  0  0  0  0  0  0
   19.7157  -22.4863  -12.2510 C   0  0  0  0  0  0  0  0  0  0  0  0
   19.6809  -21.7040  -13.5189 C   0  0  2  0  0  0  0  0  0  0  0  0
   21.0156  -21.0904  -13.6372 N   0  0  0  0  0  0  0  0  0  0  0  0
   18.6379  -20.6422  -13.4827 C   0  0  0  0  0  0  0  0  0  0  0  0
   17.4233  -20.8650  -14.0923 O   0  0  0  0  0  0  0  0  0  0  0  0
   18.9341  -19.5802  -12.8840 O   0  0  0  0  0  0  0  0  0  0  0  0
  2  1  1  1
  2  3  1  0
  3  4  1  0
  4  5  1  0
  6  5  1  0
  7  6  1  0
  8  2  1  0
  9  8  2  0
 11 12  1  0
 11 10  1  0
 12 14  1  0
 12 13  1  1
 14 15  1  6
 15  8  1  0
 16 14  1  0
 16 26  1  0
 17 16  2  0
 18 19  1  0
 19 20  2  0
 21 19  1  0
 21 22  1  0
 23 22  1  0
 24 23  1  0
 25 26  1  0
 25 24  1  1
 27 25  1  0
 28 27  1  0
 29 27  2  0
M  END
$$$$
