KIR.pdb
     RDKit          3D

 29 28  0  0  1  0  0  0  0  0999 V2000
   28.4717  -22.4614  -18.8631 N   0  0  0  0  0  0  0  0  0  0  0  0
   29.2750  -22.8190  -17.6973 C   0  0  1  0  0  0  0  0  0  0  0  0
   30.6949  -22.7027  -18.0738 C   0  0  0  0  0  0  0  0  0  0  0  0
   31.1626  -23.3011  -19.3310 C   0  0  0  0  0  0  0  0  0  0  0  0
   32.1442  -24.3864  -19.2721 C   0  0  0  0  0  0  0  0  0  0  0  0
   32.7857  -24.8263  -20.5198 C   0  0  0  0  0  0  0  0  0  0  0  0
   33.8418  -25.8177  -20.1168 N   0  0  0  0  0  0  0  0  0  0  0  0
   29.0569  -21.7462  -16.6294 C   0  0  0  0  0  0  0  0  0  0  0  0
   29.7200  -21.7785  -15.5696 O   0  0  0  0  0  0  0  0  0  0  0  0
   28.3854  -16.7014  -18.1880 C   0  0  0  0  0  0  0  0  0  0  0  0
   28.8078  -17.8647  -17.2817 C   0  0  0  0  0  0  0  0  0  0  0  0
   27.6015  -18.4600  -16.6491 C   0  0  2  0  0  0  0  0  0  0  0  0
   26.7909  -17.4201  -15.8741 C   0  0  0  0  0  0  0  0  0  0  0  0
   27.7983  -19.6989  -15.8475 C   0  0  2  0  0  0  0  0  0  0  0  0
   28.1173  -20.7443  -16.8546 N   0  0  0  0  0  0  0  0  0  0  0  0
   26.6467  -20.2009  -15.1066 C   0  0  0  0  0  0  0  0  0  0  0  0
   25.6273  -20.7088  -15.7033 O   0  0  0  0  0  0  0  0  0  0  0  0
   22.5614  -21.2018   -7.3764 N   0  0  0  0  0  0  0  0  0  0  0  0
   23.8367  -21.7989   -7.5639 C   0  0  0  0  0  0  0  0  0  0  0  0
   24.1553  -22.8701   -6.9120 N   0  0  0  0  0  0  0  0  0  0  0  0
   24.7912  -21.2589   -8.4493 N   0  0  0  0  0  0  0  0  0  0  0  0
   24.5215  -20.0934   -9.2620 C   0  0  0  0  0  0  0  0  0  0  0  0
   24.3030  -20.5274  -10.6754 C   0  0  0  0  0  0  0  0  0  0  0  0
   25.4601  -20.2801  -11.5778 C   0  0  0  0  0  0  0  0  0  0  0  0
   25.2423  -20.5770  -13.0218 C   0  0  2  0  0  0  0  0  0  0  0  0
   26.4997  -20.2019  -13.6927 N   0  0  0  0  0  0  0  0  0  0  0  0
   24.1139  -19.7844  -13.5832 C   0  0  0  0  0  0  0  0  0  0  0  0
   22.9016  -20.3977  -13.8082 O   0  0  0  0  0  0  0  0  0  0  0  0
   24.3393  -18.5740  -13.8242 O   0  0  0  0  0  0  0  0  0  0  0  0
  2  1  1  6
  2  3  1  0
  3  4  1  0
  4  5  1  0
  6  5  1  0
  7  6  1  0
  8  2  1  0
  9  8  2  0
 11 12  1  0
 11 10  1  0
 12 14  1  0
 12 13  1  1
 14 15  1  6
 15  8  1  0
 16 14  1  0
 16 26  1  0
 17 16  2  0
 18 19  1  0
 19 20  2  0
 21 19  1  0
 21 22  1  0
 23 22  1  0
 24 23  1  0
 25 26  1  0
 25 24  1  1
 27 25  1  0
 28 27  1  0
 29 27  2  0
M  END
$$$$
