KIR.pdb
     RDKit          3D

 29 28  0  0  1  0  0  0  0  0999 V2000
   23.9417  -19.7537  -14.5550 N   0  0  0  0  0  0  0  0  0  0  0  0
   24.6574  -21.0201  -14.4278 C   0  0  1  0  0  0  0  0  0  0  0  0
   26.0928  -20.7496  -14.6220 C   0  0  0  0  0  0  0  0  0  0  0  0
   26.5173  -19.7963  -15.6556 C   0  0  0  0  0  0  0  0  0  0  0  0
   27.9412  -19.7025  -15.9852 C   0  0  0  0  0  0  0  0  0  0  0  0
   28.3814  -18.6585  -16.9222 C   0  0  0  0  0  0  0  0  0  0  0  0
   27.4028  -18.6849  -18.0632 N   0  0  0  0  0  0  0  0  0  0  0  0
   24.5327  -21.4867  -12.9767 C   0  0  0  0  0  0  0  0  0  0  0  0
   25.1340  -22.5164  -12.5997 O   0  0  0  0  0  0  0  0  0  0  0  0
   25.4630  -20.3850   -8.1930 C   0  0  0  0  0  0  0  0  0  0  0  0
   23.9733  -20.1075   -8.4313 C   0  0  0  0  0  0  0  0  0  0  0  0
   23.7302  -19.9378   -9.8880 C   0  0  2  0  0  0  0  0  0  0  0  0
   22.6467  -18.8955  -10.1686 C   0  0  0  0  0  0  0  0  0  0  0  0
   23.5103  -21.1746  -10.6867 C   0  0  2  0  0  0  0  0  0  0  0  0
   23.7463  -20.7539  -12.0925 N   0  0  0  0  0  0  0  0  0  0  0  0
   22.1702  -21.7500  -10.6651 C   0  0  0  0  0  0  0  0  0  0  0  0
   21.3612  -21.6183  -11.6558 O   0  0  0  0  0  0  0  0  0  0  0  0
   16.1443  -26.1734   -6.7695 N   0  0  0  0  0  0  0  0  0  0  0  0
   17.4768  -26.6654   -6.7409 C   0  0  0  0  0  0  0  0  0  0  0  0
   17.7049  -27.9325   -6.8684 N   0  0  0  0  0  0  0  0  0  0  0  0
   18.5849  -25.8106   -6.5737 N   0  0  0  0  0  0  0  0  0  0  0  0
   18.4433  -24.3790   -6.4249 C   0  0  0  0  0  0  0  0  0  0  0  0
   18.5764  -23.7361   -7.7676 C   0  0  0  0  0  0  0  0  0  0  0  0
   19.9720  -23.3781   -8.1395 C   0  0  0  0  0  0  0  0  0  0  0  0
   20.1503  -22.7171   -9.4630 C   0  0  2  0  0  0  0  0  0  0  0  0
   21.6017  -22.5017   -9.6010 N   0  0  0  0  0  0  0  0  0  0  0  0
   19.4373  -21.4116   -9.5275 C   0  0  0  0  0  0  0  0  0  0  0  0
   18.2241  -21.3339  -10.1745 O   0  0  0  0  0  0  0  0  0  0  0  0
   19.9974  -20.4346   -8.9746 O   0  0  0  0  0  0  0  0  0  0  0  0
  2  1  1  1
  2  3  1  0
  3  4  1  0
  4  5  1  0
  6  5  1  0
  7  6  1  0
  8  2  1  0
  9  8  2  0
 11 12  1  0
 11 10  1  0
 12 14  1  0
 12 13  1  1
 14 15  1  6
 15  8  1  0
 16 14  1  0
 16 26  1  0
 17 16  2  0
 18 19  1  0
 19 20  2  0
 21 19  1  0
 21 22  1  0
 23 22  1  0
 24 23  1  0
 25 26  1  0
 25 24  1  1
 27 25  1  0
 28 27  1  0
 29 27  2  0
M  END
$$$$
