KIR.pdb
     RDKit          3D

 29 28  0  0  1  0  0  0  0  0999 V2000
   27.7807  -20.8795  -16.2047 N   0  0  0  0  0  0  0  0  0  0  0  0
   26.8034  -19.9836  -15.5929 C   0  0  1  0  0  0  0  0  0  0  0  0
   25.8668  -19.5503  -16.6447 C   0  0  0  0  0  0  0  0  0  0  0  0
   26.3406  -18.6663  -17.7178 C   0  0  0  0  0  0  0  0  0  0  0  0
   27.1706  -19.2337  -18.7827 C   0  0  0  0  0  0  0  0  0  0  0  0
   27.6053  -18.3581  -19.8810 C   0  0  0  0  0  0  0  0  0  0  0  0
   26.4929  -17.3679  -20.0880 N   0  0  0  0  0  0  0  0  0  0  0  0
   25.9571  -20.8054  -14.6197 C   0  0  0  0  0  0  0  0  0  0  0  0
   25.7110  -22.0060  -14.8687 O   0  0  0  0  0  0  0  0  0  0  0  0
   27.0913  -21.6941  -10.6758 C   0  0  0  0  0  0  0  0  0  0  0  0
   26.5653  -20.2615  -10.8309 C   0  0  0  0  0  0  0  0  0  0  0  0
   25.1125  -20.3008  -11.1434 C   0  0  2  0  0  0  0  0  0  0  0  0
   24.2906  -20.8391   -9.9712 C   0  0  0  0  0  0  0  0  0  0  0  0
   24.7122  -20.9443  -12.4247 C   0  0  2  0  0  0  0  0  0  0  0  0
   25.4700  -20.2004  -13.4646 N   0  0  0  0  0  0  0  0  0  0  0  0
   23.3089  -20.8433  -12.8090 C   0  0  0  0  0  0  0  0  0  0  0  0
   22.7054  -19.7099  -12.8757 O   0  0  0  0  0  0  0  0  0  0  0  0
   16.6826  -26.0998  -13.5060 N   0  0  0  0  0  0  0  0  0  0  0  0
   16.1459  -24.7851  -13.4673 C   0  0  0  0  0  0  0  0  0  0  0  0
   14.9737  -24.5465  -13.9602 N   0  0  0  0  0  0  0  0  0  0  0  0
   16.8548  -23.7055  -12.9029 N   0  0  0  0  0  0  0  0  0  0  0  0
   18.2737  -23.7687  -12.6299 C   0  0  0  0  0  0  0  0  0  0  0  0
   19.0200  -23.2607  -13.8211 C   0  0  0  0  0  0  0  0  0  0  0  0
   20.4893  -23.1413  -13.6179 C   0  0  0  0  0  0  0  0  0  0  0  0
   21.0096  -21.7660  -13.3767 C   0  0  2  0  0  0  0  0  0  0  0  0
   22.4566  -21.9288  -13.1496 N   0  0  0  0  0  0  0  0  0  0  0  0
   20.3779  -21.1394  -12.1829 C   0  0  0  0  0  0  0  0  0  0  0  0
   19.5033  -20.0892  -12.3523 O   0  0  0  0  0  0  0  0  0  0  0  0
   20.6871  -21.6170  -11.0647 O   0  0  0  0  0  0  0  0  0  0  0  0
  2  1  1  6
  2  3  1  0
  3  4  1  0
  4  5  1  0
  6  5  1  0
  7  6  1  0
  8  2  1  0
  9  8  2  0
 11 12  1  0
 11 10  1  0
 12 14  1  0
 12 13  1  1
 14 15  1  6
 15  8  1  0
 16 14  1  0
 16 26  1  0
 17 16  2  0
 18 19  1  0
 19 20  2  0
 21 19  1  0
 21 22  1  0
 23 22  1  0
 24 23  1  0
 25 26  1  0
 25 24  1  1
 27 25  1  0
 28 27  1  0
 29 27  2  0
M  END
$$$$
