KIR.pdb
     RDKit          3D

 29 28  0  0  1  0  0  0  0  0999 V2000
   28.6592  -21.5401  -15.2412 N   0  0  0  0  0  0  0  0  0  0  0  0
   28.0096  -20.4634  -14.4990 C   0  0  1  0  0  0  0  0  0  0  0  0
   27.3651  -19.5667  -15.4746 C   0  0  0  0  0  0  0  0  0  0  0  0
   28.1926  -18.8312  -16.4398 C   0  0  0  0  0  0  0  0  0  0  0  0
   27.5625  -17.7979  -17.2644 C   0  0  0  0  0  0  0  0  0  0  0  0
   28.3959  -17.0492  -18.2166 C   0  0  0  0  0  0  0  0  0  0  0  0
   27.4890  -16.0328  -18.8528 N   0  0  0  0  0  0  0  0  0  0  0  0
   26.8587  -21.0731  -13.6974 C   0  0  0  0  0  0  0  0  0  0  0  0
   26.3189  -22.1311  -14.0888 O   0  0  0  0  0  0  0  0  0  0  0  0
   27.1979  -20.3388   -8.3735 C   0  0  0  0  0  0  0  0  0  0  0  0
   26.9450  -21.0302   -9.7192 C   0  0  0  0  0  0  0  0  0  0  0  0
   25.6819  -20.5143  -10.3090 C   0  0  2  0  0  0  0  0  0  0  0  0
   24.4977  -20.6771   -9.3549 C   0  0  0  0  0  0  0  0  0  0  0  0
   25.3372  -20.9754  -11.6818 C   0  0  2  0  0  0  0  0  0  0  0  0
   26.4265  -20.4366  -12.5374 N   0  0  0  0  0  0  0  0  0  0  0  0
   24.0952  -20.4738  -12.2591 C   0  0  0  0  0  0  0  0  0  0  0  0
   23.7993  -19.2227  -12.2447 O   0  0  0  0  0  0  0  0  0  0  0  0
   23.9900  -19.0800  -17.2336 N   0  0  0  0  0  0  0  0  0  0  0  0
   22.7623  -18.7263  -17.8547 C   0  0  0  0  0  0  0  0  0  0  0  0
   22.7355  -18.4102  -19.1091 N   0  0  0  0  0  0  0  0  0  0  0  0
   21.5453  -18.7032  -17.1440 N   0  0  0  0  0  0  0  0  0  0  0  0
   21.4107  -19.2698  -15.8202 C   0  0  0  0  0  0  0  0  0  0  0  0
   21.6616  -20.7413  -15.8944 C   0  0  0  0  0  0  0  0  0  0  0  0
   21.4839  -21.4588  -14.6029 C   0  0  0  0  0  0  0  0  0  0  0  0
   21.8203  -20.6891  -13.3720 C   0  0  2  0  0  0  0  0  0  0  0  0
   23.0912  -21.2582  -12.8893 N   0  0  0  0  0  0  0  0  0  0  0  0
   20.7710  -20.8364  -12.3261 C   0  0  0  0  0  0  0  0  0  0  0  0
   19.7717  -19.8935  -12.2319 O   0  0  0  0  0  0  0  0  0  0  0  0
   20.8608  -21.8360  -11.5732 O   0  0  0  0  0  0  0  0  0  0  0  0
  2  1  1  6
  2  3  1  0
  3  4  1  0
  4  5  1  0
  6  5  1  0
  7  6  1  0
  8  2  1  0
  9  8  2  0
 11 12  1  0
 11 10  1  0
 12 14  1  0
 12 13  1  1
 14 15  1  6
 15  8  1  0
 16 14  1  0
 16 26  1  0
 17 16  2  0
 18 19  1  0
 19 20  2  0
 21 19  1  0
 21 22  1  0
 23 22  1  0
 24 23  1  0
 25 26  1  0
 25 24  1  6
 27 25  1  0
 28 27  1  0
 29 27  2  0
M  END
$$$$
