KIR.pdb
     RDKit          3D

 29 28  0  0  1  0  0  0  0  0999 V2000
   27.8054  -21.7840  -16.1796 N   0  0  0  0  0  0  0  0  0  0  0  0
   27.2840  -20.6414  -15.4347 C   0  0  1  0  0  0  0  0  0  0  0  0
   26.4863  -19.8219  -16.3638 C   0  0  0  0  0  0  0  0  0  0  0  0
   27.1649  -19.0369  -17.4033 C   0  0  0  0  0  0  0  0  0  0  0  0
   28.5932  -19.2617  -17.6359 C   0  0  0  0  0  0  0  0  0  0  0  0
   29.2829  -18.4384  -18.6400 C   0  0  0  0  0  0  0  0  0  0  0  0
   30.7304  -18.8413  -18.5843 N   0  0  0  0  0  0  0  0  0  0  0  0
   26.2816  -21.1684  -14.4069 C   0  0  0  0  0  0  0  0  0  0  0  0
   25.6741  -22.2401  -14.6221 O   0  0  0  0  0  0  0  0  0  0  0  0
   27.7705  -20.4752   -9.4479 C   0  0  0  0  0  0  0  0  0  0  0  0
   27.0742  -21.1996  -10.6069 C   0  0  0  0  0  0  0  0  0  0  0  0
   25.7848  -20.5236  -10.9073 C   0  0  2  0  0  0  0  0  0  0  0  0
   24.8137  -20.5960   -9.7280 C   0  0  0  0  0  0  0  0  0  0  0  0
   25.1116  -20.8856  -12.1848 C   0  0  2  0  0  0  0  0  0  0  0  0
   26.0588  -20.4421  -13.2407 N   0  0  0  0  0  0  0  0  0  0  0  0
   23.8479  -20.2206  -12.4816 C   0  0  0  0  0  0  0  0  0  0  0  0
   23.8069  -19.0702  -13.0543 O   0  0  0  0  0  0  0  0  0  0  0  0
   23.6520  -20.1600  -18.3153 N   0  0  0  0  0  0  0  0  0  0  0  0
   22.6295  -21.0881  -18.6488 C   0  0  0  0  0  0  0  0  0  0  0  0
   22.7260  -21.8040  -19.7222 N   0  0  0  0  0  0  0  0  0  0  0  0
   21.4878  -21.2635  -17.8410 N   0  0  0  0  0  0  0  0  0  0  0  0
   21.3073  -20.5580  -16.5915 C   0  0  0  0  0  0  0  0  0  0  0  0
   21.0132  -21.5496  -15.5125 C   0  0  0  0  0  0  0  0  0  0  0  0
   21.9338  -21.4761  -14.3458 C   0  0  0  0  0  0  0  0  0  0  0  0
   21.4485  -20.6935  -13.1742 C   0  0  2  0  0  0  0  0  0  0  0  0
   22.5508  -20.7276  -12.1966 N   0  0  0  0  0  0  0  0  0  0  0  0
   20.2249  -21.2964  -12.5775 C   0  0  0  0  0  0  0  0  0  0  0  0
   18.9937  -20.7460  -12.8563 O   0  0  0  0  0  0  0  0  0  0  0  0
   20.3914  -22.2956  -11.8373 O   0  0  0  0  0  0  0  0  0  0  0  0
  2  1  1  6
  2  3  1  0
  3  4  1  0
  4  5  1  0
  6  5  1  0
  7  6  1  0
  8  2  1  0
  9  8  2  0
 11 12  1  0
 11 10  1  0
 12 14  1  0
 12 13  1  1
 14 15  1  6
 15  8  1  0
 16 14  1  0
 16 26  1  0
 17 16  2  0
 18 19  1  0
 19 20  2  0
 21 19  1  0
 21 22  1  0
 23 22  1  0
 24 23  1  0
 25 26  1  0
 25 24  1  6
 27 25  1  0
 28 27  1  0
 29 27  2  0
M  END
$$$$
