LLW.pdb
     RDKit          3D

 31 32  0  0  1  0  0  0  0  0999 V2000
   18.3359  -23.7985   10.3729 C   0  0  0  0  0  0  0  0  0  0  0  0
   18.8040  -22.6327    9.5434 C   0  0  1  0  0  0  0  0  0  0  0  0
   17.7146  -22.3090    8.5239 C   0  0  0  0  0  0  0  0  0  0  0  0
   19.1739  -21.4285   10.3489 C   0  0  0  0  0  0  0  0  0  0  0  0
   19.7174  -20.2802    9.5795 C   0  0  2  0  0  0  0  0  0  0  0  0
   20.6700  -20.6692    8.5649 N   0  0  0  0  0  0  0  0  0  0  0  0
   20.2434  -19.1538   10.3666 C   0  0  0  0  0  0  0  0  0  0  0  0
   19.5888  -18.6813   11.3680 O   0  0  0  0  0  0  0  0  0  0  0  0
   23.3530  -18.1276   13.5520 C   0  0  0  0  0  0  0  0  0  0  0  0
   23.7097  -18.8560   12.2342 C   0  0  2  0  0  0  0  0  0  0  0  0
   25.1392  -19.2696   12.3843 C   0  0  0  0  0  0  0  0  0  0  0  0
   23.4431  -17.8933   11.1421 C   0  0  0  0  0  0  0  0  0  0  0  0
   22.0247  -17.5034   10.8906 C   0  0  2  0  0  0  0  0  0  0  0  0
   21.4861  -18.5710   10.0261 N   0  0  0  0  0  0  0  0  0  0  0  0
   21.9621  -16.2098   10.1688 C   0  0  0  0  0  0  0  0  0  0  0  0
   22.7098  -16.0408    9.1448 O   0  0  0  0  0  0  0  0  0  0  0  0
   21.1409  -15.1087   10.4913 N   0  0  0  0  0  0  0  0  0  0  0  0
   20.8781  -14.0636    9.5251 C   0  0  1  0  0  0  0  0  0  0  0  0
   21.1609  -14.4751    8.1268 C   0  0  0  0  0  0  0  0  0  0  0  0
   20.7180  -13.5558    7.0687 C   0  0  0  0  0  0  0  0  0  0  0  0
   21.2955  -12.2835    6.9228 C   0  0  0  0  0  0  0  0  0  0  0  0
   20.7527  -11.6523    5.8667 N   0  0  0  0  0  0  0  0  0  0  0  0
   19.8345  -12.4548    5.3032 C   0  0  0  0  0  0  0  0  0  0  0  0
   19.0075  -12.2759    4.2215 C   0  0  0  0  0  0  0  0  0  0  0  0
   18.1544  -13.3065    3.9022 C   0  0  0  0  0  0  0  0  0  0  0  0
   18.1179  -14.4672    4.6212 C   0  0  0  0  0  0  0  0  0  0  0  0
   18.9436  -14.6531    5.7055 C   0  0  0  0  0  0  0  0  0  0  0  0
   19.8160  -13.6196    6.0431 C   0  0  0  0  0  0  0  0  0  0  0  0
   19.5280  -13.5420    9.6796 C   0  0  0  0  0  0  0  0  0  0  0  0
   18.4447  -14.2833   10.1373 O   0  0  0  0  0  0  0  0  0  0  0  0
   19.2825  -12.3465    9.3854 O   0  0  0  0  0  0  0  0  0  0  0  0
  2  1  1  1
  3  2  1  0
  4  2  1  0
  5  6  1  1
  5  4  1  0
  7  5  1  0
  8  7  2  0
 10  9  1  1
 10 12  1  0
 11 10  1  0
 13 12  1  6
 13 15  1  0
 13 14  1  0
 14  7  1  0
 15 17  1  0
 16 15  2  0
 17 18  1  0
 18 19  1  6
 18 29  1  0
 19 20  1  0
 20 21  2  0
 22 21  1  0
 23 22  1  0
 24 23  2  0
 25 24  1  0
 26 27  1  0
 26 25  2  0
 27 28  2  0
 28 23  1  0
 28 20  1  0
 29 31  2  0
 29 30  1  0
M  END
$$$$
