LLW.pdb
     RDKit          3D

 31 32  0  0  1  0  0  0  0  0999 V2000
   20.0983  -26.4275  -11.8245 C   0  0  0  0  0  0  0  0  0  0  0  0
   19.4985  -27.7799  -11.5458 C   0  0  1  0  0  0  0  0  0  0  0  0
   20.6139  -28.8191  -11.6283 C   0  0  0  0  0  0  0  0  0  0  0  0
   18.7715  -27.8606  -10.2416 C   0  0  0  0  0  0  0  0  0  0  0  0
   18.1905  -29.1863   -9.9084 C   0  0  2  0  0  0  0  0  0  0  0  0
   17.2587  -29.6699  -10.9013 N   0  0  0  0  0  0  0  0  0  0  0  0
   17.6187  -29.3313   -8.5604 C   0  0  0  0  0  0  0  0  0  0  0  0
   16.4262  -28.9264   -8.2986 O   0  0  0  0  0  0  0  0  0  0  0  0
   15.9860  -32.4412   -5.8660 C   0  0  0  0  0  0  0  0  0  0  0  0
   17.4659  -32.6004   -6.2892 C   0  0  2  0  0  0  0  0  0  0  0  0
   17.8926  -33.9276   -5.7473 C   0  0  0  0  0  0  0  0  0  0  0  0
   18.1848  -31.4319   -5.7339 C   0  0  0  0  0  0  0  0  0  0  0  0
   17.7664  -30.0756   -6.1948 C   0  0  2  0  0  0  0  0  0  0  0  0
   18.3824  -29.9216   -7.5268 N   0  0  0  0  0  0  0  0  0  0  0  0
   18.2973  -29.0317   -5.2856 C   0  0  0  0  0  0  0  0  0  0  0  0
   19.5265  -29.0885   -4.9362 O   0  0  0  0  0  0  0  0  0  0  0  0
   17.5777  -27.9439   -4.7475 N   0  0  0  0  0  0  0  0  0  0  0  0
   18.2066  -27.0062   -3.8418 C   0  0  1  0  0  0  0  0  0  0  0  0
   18.4905  -25.6897   -4.4670 C   0  0  0  0  0  0  0  0  0  0  0  0
   17.3716  -25.0370   -5.1618 C   0  0  0  0  0  0  0  0  0  0  0  0
   16.2277  -24.6170   -4.4626 C   0  0  0  0  0  0  0  0  0  0  0  0
   15.3697  -24.0167   -5.3062 N   0  0  0  0  0  0  0  0  0  0  0  0
   15.8972  -24.0209   -6.5416 C   0  0  0  0  0  0  0  0  0  0  0  0
   15.4203  -23.5461   -7.7387 C   0  0  0  0  0  0  0  0  0  0  0  0
   16.2145  -23.7205   -8.8482 C   0  0  0  0  0  0  0  0  0  0  0  0
   17.4304  -24.3390   -8.7800 C   0  0  0  0  0  0  0  0  0  0  0  0
   17.9142  -24.8167   -7.5841 C   0  0  0  0  0  0  0  0  0  0  0  0
   17.1234  -24.6474   -6.4488 C   0  0  0  0  0  0  0  0  0  0  0  0
   17.4356  -26.8741   -2.6143 C   0  0  0  0  0  0  0  0  0  0  0  0
   16.1732  -27.4209   -2.4144 O   0  0  0  0  0  0  0  0  0  0  0  0
   17.9056  -26.2253   -1.6478 O   0  0  0  0  0  0  0  0  0  0  0  0
  2  1  1  1
  3  2  1  0
  4  2  1  0
  5  6  1  6
  5  4  1  0
  7  5  1  0
  8  7  2  0
 10  9  1  1
 10 12  1  0
 11 10  1  0
 13 12  1  1
 13 15  1  0
 13 14  1  0
 14  7  1  0
 15 17  1  0
 16 15  2  0
 17 18  1  0
 18 19  1  6
 18 29  1  0
 19 20  1  0
 20 21  2  0
 22 21  1  0
 23 22  1  0
 24 23  2  0
 25 24  1  0
 26 27  1  0
 26 25  2  0
 27 28  2  0
 28 23  1  0
 28 20  1  0
 29 31  2  0
 29 30  1  0
M  END
$$$$
