LLW.pdb
     RDKit          3D

 31 32  0  0  1  0  0  0  0  0999 V2000
   33.2210  -18.7617  -13.6397 C   0  0  0  0  0  0  0  0  0  0  0  0
   31.8709  -18.4332  -13.0602 C   0  0  1  0  0  0  0  0  0  0  0  0
   31.1477  -17.5099  -14.0376 C   0  0  0  0  0  0  0  0  0  0  0  0
   31.0457  -19.6363  -12.7325 C   0  0  0  0  0  0  0  0  0  0  0  0
   29.7750  -19.3696  -12.0113 C   0  0  2  0  0  0  0  0  0  0  0  0
   29.5934  -17.9785  -11.6649 N   0  0  0  0  0  0  0  0  0  0  0  0
   29.4889  -20.2251  -10.8488 C   0  0  0  0  0  0  0  0  0  0  0  0
   29.5777  -21.5058  -10.9298 O   0  0  0  0  0  0  0  0  0  0  0  0
   27.0920  -20.8630   -6.1153 C   0  0  0  0  0  0  0  0  0  0  0  0
   28.5416  -20.3385   -5.9797 C   0  0  2  0  0  0  0  0  0  0  0  0
   28.5184  -19.4076   -4.8093 C   0  0  0  0  0  0  0  0  0  0  0  0
   28.8798  -19.7120   -7.2773 C   0  0  0  0  0  0  0  0  0  0  0  0
   28.7059  -20.5329   -8.5113 C   0  0  2  0  0  0  0  0  0  0  0  0
   29.1073  -19.6430   -9.6178 N   0  0  0  0  0  0  0  0  0  0  0  0
   27.2844  -20.9177   -8.6829 C   0  0  0  0  0  0  0  0  0  0  0  0
   26.7299  -21.6381   -7.7829 O   0  0  0  0  0  0  0  0  0  0  0  0
   26.4443  -20.5643   -9.7599 N   0  0  0  0  0  0  0  0  0  0  0  0
   25.1645  -21.2120   -9.9538 C   0  0  1  0  0  0  0  0  0  0  0  0
   24.3003  -21.1726   -8.7471 C   0  0  0  0  0  0  0  0  0  0  0  0
   22.8488  -21.1500   -8.9785 C   0  0  0  0  0  0  0  0  0  0  0  0
   22.3072  -20.5779  -10.1417 C   0  0  0  0  0  0  0  0  0  0  0  0
   20.9695  -20.7152  -10.1398 N   0  0  0  0  0  0  0  0  0  0  0  0
   20.5981  -21.3565   -9.0193 C   0  0  0  0  0  0  0  0  0  0  0  0
   19.3629  -21.7263   -8.5469 C   0  0  0  0  0  0  0  0  0  0  0  0
   19.3189  -22.3722   -7.3332 C   0  0  0  0  0  0  0  0  0  0  0  0
   20.4481  -22.6422   -6.6139 C   0  0  0  0  0  0  0  0  0  0  0  0
   21.6886  -22.2748   -7.0813 C   0  0  0  0  0  0  0  0  0  0  0  0
   21.7525  -21.6204   -8.3104 C   0  0  0  0  0  0  0  0  0  0  0  0
   24.4881  -20.6827  -11.1288 C   0  0  0  0  0  0  0  0  0  0  0  0
   23.4294  -21.3085  -11.7770 O   0  0  0  0  0  0  0  0  0  0  0  0
   24.8593  -19.5908  -11.6249 O   0  0  0  0  0  0  0  0  0  0  0  0
  2  1  1  6
  3  2  1  0
  4  2  1  0
  5  6  1  1
  5  4  1  0
  7  5  1  0
  8  7  2  0
 10  9  1  6
 10 12  1  0
 11 10  1  0
 13 12  1  1
 13 15  1  0
 13 14  1  0
 14  7  1  0
 15 17  1  0
 16 15  2  0
 17 18  1  0
 18 19  1  1
 18 29  1  0
 19 20  1  0
 20 21  2  0
 22 21  1  0
 23 22  1  0
 24 23  2  0
 25 24  1  0
 26 27  1  0
 26 25  2  0
 27 28  2  0
 28 23  1  0
 28 20  1  0
 29 31  2  0
 29 30  1  0
M  END
$$$$
