LLW.pdb
     RDKit          3D

 31 32  0  0  1  0  0  0  0  0999 V2000
   21.0443  -18.6568  -17.8471 C   0  0  0  0  0  0  0  0  0  0  0  0
   21.6250  -18.4765  -16.4699 C   0  0  1  0  0  0  0  0  0  0  0  0
   20.4872  -18.5863  -15.4579 C   0  0  0  0  0  0  0  0  0  0  0  0
   22.7328  -19.4292  -16.1524 C   0  0  0  0  0  0  0  0  0  0  0  0
   23.3408  -19.2850  -14.8050 C   0  0  2  0  0  0  0  0  0  0  0  0
   23.5633  -17.9099  -14.4205 N   0  0  0  0  0  0  0  0  0  0  0  0
   24.5443  -20.0888  -14.5394 C   0  0  0  0  0  0  0  0  0  0  0  0
   24.5769  -21.3450  -14.8142 O   0  0  0  0  0  0  0  0  0  0  0  0
   28.0464  -19.4981  -16.3452 C   0  0  0  0  0  0  0  0  0  0  0  0
   27.9801  -18.5928  -15.0921 C   0  0  2  0  0  0  0  0  0  0  0  0
   29.1301  -17.6458  -15.2260 C   0  0  0  0  0  0  0  0  0  0  0  0
   28.0412  -19.4975  -13.9223 C   0  0  0  0  0  0  0  0  0  0  0  0
   26.8430  -20.3380  -13.6309 C   0  0  2  0  0  0  0  0  0  0  0  0
   25.6892  -19.4835  -13.9713 N   0  0  0  0  0  0  0  0  0  0  0  0
   26.7891  -20.6834  -12.1900 C   0  0  0  0  0  0  0  0  0  0  0  0
   27.8473  -21.1266  -11.6244 O   0  0  0  0  0  0  0  0  0  0  0  0
   25.6667  -20.5708  -11.3425 N   0  0  0  0  0  0  0  0  0  0  0  0
   25.7676  -20.8540   -9.9266 C   0  0  1  0  0  0  0  0  0  0  0  0
   26.8806  -20.1292   -9.2630 C   0  0  0  0  0  0  0  0  0  0  0  0
   26.8622  -20.0999   -7.7934 C   0  0  0  0  0  0  0  0  0  0  0  0
   25.6517  -20.1298   -7.0810 C   0  0  0  0  0  0  0  0  0  0  0  0
   25.8980  -20.1342   -5.7591 N   0  0  0  0  0  0  0  0  0  0  0  0
   27.2267  -20.1076   -5.5625 C   0  0  0  0  0  0  0  0  0  0  0  0
   27.9785  -20.0910   -4.4134 C   0  0  0  0  0  0  0  0  0  0  0  0
   29.3462  -20.0505   -4.5548 C   0  0  0  0  0  0  0  0  0  0  0  0
   29.9484  -20.0269   -5.7804 C   0  0  0  0  0  0  0  0  0  0  0  0
   29.2013  -20.0436   -6.9354 C   0  0  0  0  0  0  0  0  0  0  0  0
   27.8136  -20.0861   -6.8114 C   0  0  0  0  0  0  0  0  0  0  0  0
   24.4933  -20.6282   -9.2605 C   0  0  0  0  0  0  0  0  0  0  0  0
   23.3970  -20.0065   -9.8472 O   0  0  0  0  0  0  0  0  0  0  0  0
   24.3345  -21.0013   -8.0724 O   0  0  0  0  0  0  0  0  0  0  0  0
  2  1  1  6
  3  2  1  0
  4  2  1  0
  5  6  1  6
  5  4  1  0
  7  5  1  0
  8  7  2  0
 10  9  1  6
 10 12  1  0
 11 10  1  0
 13 12  1  1
 13 15  1  0
 13 14  1  0
 14  7  1  0
 15 17  1  0
 16 15  2  0
 17 18  1  0
 18 19  1  1
 18 29  1  0
 19 20  1  0
 20 21  2  0
 22 21  1  0
 23 22  1  0
 24 23  2  0
 25 24  1  0
 26 27  1  0
 26 25  2  0
 27 28  2  0
 28 23  1  0
 28 20  1  0
 29 31  2  0
 29 30  1  0
M  END
$$$$
