LLW.pdb
     RDKit          3D

 31 32  0  0  1  0  0  0  0  0999 V2000
   18.2245  -22.8588  -10.7302 C   0  0  0  0  0  0  0  0  0  0  0  0
   19.3301  -22.8699  -11.7518 C   0  0  1  0  0  0  0  0  0  0  0  0
   18.6981  -23.0306  -13.1323 C   0  0  0  0  0  0  0  0  0  0  0  0
   20.2179  -21.6681  -11.6936 C   0  0  0  0  0  0  0  0  0  0  0  0
   21.2176  -21.5515  -12.7858 C   0  0  2  0  0  0  0  0  0  0  0  0
   21.7868  -22.8199  -13.1800 N   0  0  0  0  0  0  0  0  0  0  0  0
   22.2816  -20.5529  -12.5968 C   0  0  0  0  0  0  0  0  0  0  0  0
   22.0056  -19.3497  -12.2354 O   0  0  0  0  0  0  0  0  0  0  0  0
   24.7565  -20.6588   -9.7363 C   0  0  0  0  0  0  0  0  0  0  0  0
   25.4158  -21.4845  -10.8668 C   0  0  2  0  0  0  0  0  0  0  0  0
   26.5693  -22.1867  -10.2238 C   0  0  0  0  0  0  0  0  0  0  0  0
   25.7777  -20.5196  -11.9292 C   0  0  0  0  0  0  0  0  0  0  0  0
   24.6670  -19.8640  -12.6798 C   0  0  2  0  0  0  0  0  0  0  0  0
   23.6330  -20.9081  -12.8146 N   0  0  0  0  0  0  0  0  0  0  0  0
   25.1248  -19.4505  -14.0281 C   0  0  0  0  0  0  0  0  0  0  0  0
   26.2205  -19.9322  -14.4795 O   0  0  0  0  0  0  0  0  0  0  0  0
   24.4650  -18.5595  -14.9007 N   0  0  0  0  0  0  0  0  0  0  0  0
   25.1980  -17.5459  -15.6290 C   0  0  1  0  0  0  0  0  0  0  0  0
   26.4768  -17.1668  -14.9768 C   0  0  0  0  0  0  0  0  0  0  0  0
   27.3004  -16.1693  -15.6750 C   0  0  0  0  0  0  0  0  0  0  0  0
   27.0535  -14.7938  -15.5310 C   0  0  0  0  0  0  0  0  0  0  0  0
   27.9597  -14.0898  -16.2322 N   0  0  0  0  0  0  0  0  0  0  0  0
   28.8011  -14.9433  -16.8390 C   0  0  0  0  0  0  0  0  0  0  0  0
   29.8773  -14.7306  -17.6650 C   0  0  0  0  0  0  0  0  0  0  0  0
   30.5365  -15.8401  -18.1408 C   0  0  0  0  0  0  0  0  0  0  0  0
   30.1495  -17.1089  -17.8154 C   0  0  0  0  0  0  0  0  0  0  0  0
   29.0726  -17.3291  -16.9884 C   0  0  0  0  0  0  0  0  0  0  0  0
   28.3932  -16.2162  -16.4955 C   0  0  0  0  0  0  0  0  0  0  0  0
   25.3876  -17.9400  -17.0173 C   0  0  0  0  0  0  0  0  0  0  0  0
   26.1428  -19.0317  -17.4302 O   0  0  0  0  0  0  0  0  0  0  0  0
   24.8529  -17.2711  -17.9354 O   0  0  0  0  0  0  0  0  0  0  0  0
  2  1  1  1
  3  2  1  0
  4  2  1  0
  5  6  1  1
  5  4  1  0
  7  5  1  0
  8  7  2  0
 10  9  1  1
 10 12  1  0
 11 10  1  0
 13 12  1  1
 13 15  1  0
 13 14  1  0
 14  7  1  0
 15 17  1  0
 16 15  2  0
 17 18  1  0
 18 19  1  1
 18 29  1  0
 19 20  1  0
 20 21  2  0
 22 21  1  0
 23 22  1  0
 24 23  2  0
 25 24  1  0
 26 27  1  0
 26 25  2  0
 27 28  2  0
 28 23  1  0
 28 20  1  0
 29 31  2  0
 29 30  1  0
M  END
$$$$
