LLW.pdb
     RDKit          3D

 31 32  0  0  1  0  0  0  0  0999 V2000
   28.6906  -20.0822  -15.5505 C   0  0  0  0  0  0  0  0  0  0  0  0
   28.1256  -19.4774  -14.2929 C   0  0  1  0  0  0  0  0  0  0  0  0
   26.9171  -18.6274  -14.6774 C   0  0  0  0  0  0  0  0  0  0  0  0
   27.7746  -20.4836  -13.2440 C   0  0  0  0  0  0  0  0  0  0  0  0
   27.3309  -19.9278  -11.9401 C   0  0  2  0  0  0  0  0  0  0  0  0
   27.7535  -18.5627  -11.7251 N   0  0  0  0  0  0  0  0  0  0  0  0
   27.6166  -20.7427  -10.7488 C   0  0  0  0  0  0  0  0  0  0  0  0
   27.6725  -22.0258  -10.8205 O   0  0  0  0  0  0  0  0  0  0  0  0
   29.5976  -18.8376   -6.0302 C   0  0  0  0  0  0  0  0  0  0  0  0
   28.2056  -19.4627   -6.2873 C   0  0  2  0  0  0  0  0  0  0  0  0
   27.7099  -19.8927   -4.9432 C   0  0  0  0  0  0  0  0  0  0  0  0
   28.4151  -20.5568   -7.2618 C   0  0  0  0  0  0  0  0  0  0  0  0
   27.3496  -20.7941   -8.2794 C   0  0  2  0  0  0  0  0  0  0  0  0
   27.8331  -20.1180   -9.4986 N   0  0  0  0  0  0  0  0  0  0  0  0
   26.0733  -20.1746   -7.8488 C   0  0  0  0  0  0  0  0  0  0  0  0
   26.0278  -18.9057   -7.6934 O   0  0  0  0  0  0  0  0  0  0  0  0
   24.8614  -20.8476   -7.5862 N   0  0  0  0  0  0  0  0  0  0  0  0
   23.6871  -20.6184   -8.4008 C   0  0  1  0  0  0  0  0  0  0  0  0
   23.9778  -20.6098   -9.8569 C   0  0  0  0  0  0  0  0  0  0  0  0
   22.8314  -20.4096  -10.7549 C   0  0  0  0  0  0  0  0  0  0  0  0
   21.7257  -19.6377  -10.3609 C   0  0  0  0  0  0  0  0  0  0  0  0
   20.8323  -19.5716  -11.3638 N   0  0  0  0  0  0  0  0  0  0  0  0
   21.2996  -20.2706  -12.4115 C   0  0  0  0  0  0  0  0  0  0  0  0
   20.7690  -20.5157  -13.6541 C   0  0  0  0  0  0  0  0  0  0  0  0
   21.5074  -21.2965  -14.5128 C   0  0  0  0  0  0  0  0  0  0  0  0
   22.7206  -21.8151  -14.1599 C   0  0  0  0  0  0  0  0  0  0  0  0
   23.2581  -21.5733  -12.9170 C   0  0  0  0  0  0  0  0  0  0  0  0
   22.5243  -20.7828  -12.0340 C   0  0  0  0  0  0  0  0  0  0  0  0
   22.6280  -21.5567   -8.0598 C   0  0  0  0  0  0  0  0  0  0  0  0
   21.2994  -21.2038   -7.8528 O   0  0  0  0  0  0  0  0  0  0  0  0
   22.8923  -22.7771   -7.9296 O   0  0  0  0  0  0  0  0  0  0  0  0
  2  1  1  6
  3  2  1  0
  4  2  1  0
  5  6  1  1
  5  4  1  0
  7  5  1  0
  8  7  2  0
 10  9  1  1
 10 12  1  0
 11 10  1  0
 13 12  1  1
 13 15  1  0
 13 14  1  0
 14  7  1  0
 15 17  1  0
 16 15  2  0
 17 18  1  0
 18 19  1  6
 18 29  1  0
 19 20  1  0
 20 21  2  0
 22 21  1  0
 23 22  1  0
 24 23  2  0
 25 24  1  0
 26 27  1  0
 26 25  2  0
 27 28  2  0
 28 23  1  0
 28 20  1  0
 29 31  2  0
 29 30  1  0
M  END
$$$$
