LLW.pdb
     RDKit          3D

 31 32  0  0  1  0  0  0  0  0999 V2000
   28.7484  -18.6356  -16.8633 C   0  0  0  0  0  0  0  0  0  0  0  0
   27.9121  -18.0204  -15.7731 C   0  0  1  0  0  0  0  0  0  0  0  0
   27.3012  -16.7306  -16.3154 C   0  0  0  0  0  0  0  0  0  0  0  0
   26.8625  -18.9354  -15.2283 C   0  0  0  0  0  0  0  0  0  0  0  0
   27.3508  -20.0176  -14.3359 C   0  0  2  0  0  0  0  0  0  0  0  0
   28.2008  -20.9744  -15.0069 N   0  0  0  0  0  0  0  0  0  0  0  0
   26.3333  -20.7152  -13.5339 C   0  0  0  0  0  0  0  0  0  0  0  0
   25.8037  -21.8133  -13.9439 O   0  0  0  0  0  0  0  0  0  0  0  0
   26.6871  -22.2017   -9.4983 C   0  0  0  0  0  0  0  0  0  0  0  0
   26.4449  -20.6737   -9.5348 C   0  0  2  0  0  0  0  0  0  0  0  0
   26.6074  -20.2128   -8.1212 C   0  0  0  0  0  0  0  0  0  0  0  0
   25.0948  -20.4807  -10.1098 C   0  0  0  0  0  0  0  0  0  0  0  0
   24.8785  -20.8918  -11.5279 C   0  0  2  0  0  0  0  0  0  0  0  0
   25.9207  -20.1794  -12.2919 N   0  0  0  0  0  0  0  0  0  0  0  0
   23.5417  -20.4545  -11.9970 C   0  0  0  0  0  0  0  0  0  0  0  0
   23.3305  -19.2052  -12.1724 O   0  0  0  0  0  0  0  0  0  0  0  0
   22.4406  -21.2881  -12.2857 N   0  0  0  0  0  0  0  0  0  0  0  0
   21.2106  -20.7437  -12.8202 C   0  0  1  0  0  0  0  0  0  0  0  0
   21.3716  -20.1520  -14.1724 C   0  0  0  0  0  0  0  0  0  0  0  0
   21.6440  -21.0891  -15.2718 C   0  0  0  0  0  0  0  0  0  0  0  0
   20.7854  -22.1694  -15.5354 C   0  0  0  0  0  0  0  0  0  0  0  0
   21.2243  -22.8524  -16.6074 N   0  0  0  0  0  0  0  0  0  0  0  0
   22.3432  -22.2694  -17.0685 C   0  0  0  0  0  0  0  0  0  0  0  0
   23.1684  -22.5833  -18.1203 C   0  0  0  0  0  0  0  0  0  0  0  0
   24.2644  -21.7776  -18.3247 C   0  0  0  0  0  0  0  0  0  0  0  0
   24.5361  -20.7054  -17.5235 C   0  0  0  0  0  0  0  0  0  0  0  0
   23.7136  -20.3852  -16.4684 C   0  0  0  0  0  0  0  0  0  0  0  0
   22.5971  -21.1899  -16.2469 C   0  0  0  0  0  0  0  0  0  0  0  0
   20.1444  -21.7338  -12.7796 C   0  0  0  0  0  0  0  0  0  0  0  0
   18.8072  -21.4629  -13.0465 O   0  0  0  0  0  0  0  0  0  0  0  0
   20.4084  -22.9247  -12.4825 O   0  0  0  0  0  0  0  0  0  0  0  0
  2  1  1  6
  3  2  1  0
  4  2  1  0
  5  6  1  6
  5  4  1  0
  7  5  1  0
  8  7  2  0
 10  9  1  1
 10 12  1  0
 11 10  1  0
 13 12  1  1
 13 15  1  0
 13 14  1  0
 14  7  1  0
 15 17  1  0
 16 15  2  0
 17 18  1  0
 18 19  1  6
 18 29  1  0
 19 20  1  0
 20 21  2  0
 22 21  1  0
 23 22  1  0
 24 23  2  0
 25 24  1  0
 26 27  1  0
 26 25  2  0
 27 28  2  0
 28 23  1  0
 28 20  1  0
 29 31  2  0
 29 30  1  0
M  END
$$$$
