LLW.pdb
     RDKit          3D

 31 32  0  0  1  0  0  0  0  0999 V2000
   31.2652  -21.3910  -14.0918 C   0  0  0  0  0  0  0  0  0  0  0  0
   29.9816  -20.6045  -14.0905 C   0  0  1  0  0  0  0  0  0  0  0  0
   29.5404  -20.4153  -15.5397 C   0  0  0  0  0  0  0  0  0  0  0  0
   28.8974  -21.2200  -13.2650 C   0  0  0  0  0  0  0  0  0  0  0  0
   27.6063  -20.4860  -13.2456 C   0  0  2  0  0  0  0  0  0  0  0  0
   27.7506  -19.0798  -12.9456 N   0  0  0  0  0  0  0  0  0  0  0  0
   26.5308  -21.0726  -12.4306 C   0  0  0  0  0  0  0  0  0  0  0  0
   26.1123  -22.2695  -12.6467 O   0  0  0  0  0  0  0  0  0  0  0  0
   26.7441  -21.5704   -8.2609 C   0  0  0  0  0  0  0  0  0  0  0  0
   26.2935  -20.1318   -8.6101 C   0  0  2  0  0  0  0  0  0  0  0  0
   26.3086  -19.3861   -7.3137 C   0  0  0  0  0  0  0  0  0  0  0  0
   24.9649  -20.2566   -9.2505 C   0  0  0  0  0  0  0  0  0  0  0  0
   24.8915  -20.9539  -10.5678 C   0  0  2  0  0  0  0  0  0  0  0  0
   25.9380  -20.3185  -11.3915 N   0  0  0  0  0  0  0  0  0  0  0  0
   23.5685  -20.7322  -11.1995 C   0  0  0  0  0  0  0  0  0  0  0  0
   22.8015  -19.8287  -10.7182 O   0  0  0  0  0  0  0  0  0  0  0  0
   23.0437  -21.4249  -12.3110 N   0  0  0  0  0  0  0  0  0  0  0  0
   21.7424  -21.0942  -12.8517 C   0  0  1  0  0  0  0  0  0  0  0  0
   21.7205  -21.0465  -14.3356 C   0  0  0  0  0  0  0  0  0  0  0  0
   22.5375  -20.0032  -14.9719 C   0  0  0  0  0  0  0  0  0  0  0  0
   22.1512  -18.6531  -14.9330 C   0  0  0  0  0  0  0  0  0  0  0  0
   23.0764  -17.8940  -15.5463 N   0  0  0  0  0  0  0  0  0  0  0  0
   24.0647  -18.6864  -15.9935 C   0  0  0  0  0  0  0  0  0  0  0  0
   25.2185  -18.4047  -16.6827 C   0  0  0  0  0  0  0  0  0  0  0  0
   26.0324  -19.4641  -17.0105 C   0  0  0  0  0  0  0  0  0  0  0  0
   25.7206  -20.7501  -16.6725 C   0  0  0  0  0  0  0  0  0  0  0  0
   24.5665  -21.0394  -15.9820 C   0  0  0  0  0  0  0  0  0  0  0  0
   23.7302  -19.9779  -15.6401 C   0  0  0  0  0  0  0  0  0  0  0  0
   20.7184  -21.9799  -12.3175 C   0  0  0  0  0  0  0  0  0  0  0  0
   19.3521  -21.8117  -12.5114 O   0  0  0  0  0  0  0  0  0  0  0  0
   21.0504  -22.9728  -11.6245 O   0  0  0  0  0  0  0  0  0  0  0  0
  2  1  1  6
  3  2  1  0
  4  2  1  0
  5  6  1  1
  5  4  1  0
  7  5  1  0
  8  7  2  0
 10  9  1  1
 10 12  1  0
 11 10  1  0
 13 12  1  1
 13 15  1  0
 13 14  1  0
 14  7  1  0
 15 17  1  0
 16 15  2  0
 17 18  1  0
 18 19  1  6
 18 29  1  0
 19 20  1  0
 20 21  2  0
 22 21  1  0
 23 22  1  0
 24 23  2  0
 25 24  1  0
 26 27  1  0
 26 25  2  0
 27 28  2  0
 28 23  1  0
 28 20  1  0
 29 31  2  0
 29 30  1  0
M  END
$$$$
