LLW.pdb
     RDKit          3D

 31 32  0  0  1  0  0  0  0  0999 V2000
   29.0469  -22.3613  -17.1607 C   0  0  0  0  0  0  0  0  0  0  0  0
   28.1530  -21.3115  -16.5561 C   0  0  1  0  0  0  0  0  0  0  0  0
   27.2490  -20.7667  -17.6591 C   0  0  0  0  0  0  0  0  0  0  0  0
   27.3571  -21.7968  -15.3870 C   0  0  0  0  0  0  0  0  0  0  0  0
   26.3614  -20.8387  -14.8426 C   0  0  2  0  0  0  0  0  0  0  0  0
   26.9356  -19.5674  -14.4652 N   0  0  0  0  0  0  0  0  0  0  0  0
   25.4867  -21.3403  -13.7710 C   0  0  0  0  0  0  0  0  0  0  0  0
   24.8810  -22.4695  -13.8830 O   0  0  0  0  0  0  0  0  0  0  0  0
   26.8694  -21.6554   -9.8558 C   0  0  0  0  0  0  0  0  0  0  0  0
   26.2901  -20.2342  -10.0538 C   0  0  2  0  0  0  0  0  0  0  0  0
   26.6454  -19.4845   -8.8093 C   0  0  0  0  0  0  0  0  0  0  0  0
   24.8398  -20.4065  -10.2939 C   0  0  0  0  0  0  0  0  0  0  0  0
   24.4212  -21.1164  -11.5380 C   0  0  2  0  0  0  0  0  0  0  0  0
   25.2988  -20.5778  -12.5949 N   0  0  0  0  0  0  0  0  0  0  0  0
   23.0097  -20.8017  -11.8653 C   0  0  0  0  0  0  0  0  0  0  0  0
   22.0969  -21.1364  -11.0341 O   0  0  0  0  0  0  0  0  0  0  0  0
   22.5439  -20.1493  -13.0264 N   0  0  0  0  0  0  0  0  0  0  0  0
   21.1314  -19.9109  -13.2343 C   0  0  1  0  0  0  0  0  0  0  0  0
   20.8588  -18.8204  -14.2043 C   0  0  0  0  0  0  0  0  0  0  0  0
   21.1282  -19.1162  -15.6188 C   0  0  0  0  0  0  0  0  0  0  0  0
   20.2409  -19.8952  -16.3801 C   0  0  0  0  0  0  0  0  0  0  0  0
   20.6845  -19.9896  -17.6461 N   0  0  0  0  0  0  0  0  0  0  0  0
   21.8343  -19.3039  -17.7580 C   0  0  0  0  0  0  0  0  0  0  0  0
   22.6758  -19.1021  -18.8243 C   0  0  0  0  0  0  0  0  0  0  0  0
   23.8033  -18.3456  -18.6039 C   0  0  0  0  0  0  0  0  0  0  0  0
   24.0898  -17.8099  -17.3807 C   0  0  0  0  0  0  0  0  0  0  0  0
   23.2512  -18.0079  -16.3084 C   0  0  0  0  0  0  0  0  0  0  0  0
   22.1028  -18.7710  -16.5136 C   0  0  0  0  0  0  0  0  0  0  0  0
   20.4442  -21.1438  -13.5896 C   0  0  0  0  0  0  0  0  0  0  0  0
   21.0715  -22.2795  -14.0891 O   0  0  0  0  0  0  0  0  0  0  0  0
   19.1987  -21.2262  -13.4551 O   0  0  0  0  0  0  0  0  0  0  0  0
  2  1  1  6
  3  2  1  0
  4  2  1  0
  5  6  1  1
  5  4  1  0
  7  5  1  0
  8  7  2  0
 10  9  1  1
 10 12  1  0
 11 10  1  0
 13 12  1  1
 13 15  1  0
 13 14  1  0
 14  7  1  0
 15 17  1  0
 16 15  2  0
 17 18  1  0
 18 19  1  6
 18 29  1  0
 19 20  1  0
 20 21  2  0
 22 21  1  0
 23 22  1  0
 24 23  2  0
 25 24  1  0
 26 27  1  0
 26 25  2  0
 27 28  2  0
 28 23  1  0
 28 20  1  0
 29 31  2  0
 29 30  1  0
M  END
$$$$
