LLW.pdb
     RDKit          3D

 31 32  0  0  1  0  0  0  0  0999 V2000
   24.6243  -28.8777  -21.2899 C   0  0  0  0  0  0  0  0  0  0  0  0
   24.1058  -28.5155  -19.9238 C   0  0  1  0  0  0  0  0  0  0  0  0
   22.8328  -27.6920  -20.1032 C   0  0  0  0  0  0  0  0  0  0  0  0
   23.8732  -29.6946  -19.0342 C   0  0  0  0  0  0  0  0  0  0  0  0
   23.3788  -29.3842  -17.6685 C   0  0  2  0  0  0  0  0  0  0  0  0
   24.3292  -28.6460  -16.8685 N   0  0  0  0  0  0  0  0  0  0  0  0
   22.8316  -30.5117  -16.8974 C   0  0  0  0  0  0  0  0  0  0  0  0
   21.8918  -31.2483  -17.3756 O   0  0  0  0  0  0  0  0  0  0  0  0
   24.1098  -34.3070  -16.1172 C   0  0  0  0  0  0  0  0  0  0  0  0
   24.8529  -33.2171  -15.3082 C   0  0  2  0  0  0  0  0  0  0  0  0
   26.0459  -33.9029  -14.7221 C   0  0  0  0  0  0  0  0  0  0  0  0
   23.8793  -32.6942  -14.3238 C   0  0  0  0  0  0  0  0  0  0  0  0
   22.7254  -31.9021  -14.8414 C   0  0  2  0  0  0  0  0  0  0  0  0
   23.3365  -30.7994  -15.6082 N   0  0  0  0  0  0  0  0  0  0  0  0
   21.9362  -31.3401  -13.7190 C   0  0  0  0  0  0  0  0  0  0  0  0
   21.2835  -32.1413  -12.9652 O   0  0  0  0  0  0  0  0  0  0  0  0
   21.8230  -29.9768  -13.3738 N   0  0  0  0  0  0  0  0  0  0  0  0
   20.9623  -29.5484  -12.2919 C   0  0  1  0  0  0  0  0  0  0  0  0
   21.5239  -28.4180  -11.5100 C   0  0  0  0  0  0  0  0  0  0  0  0
   20.6875  -27.2141  -11.4016 C   0  0  0  0  0  0  0  0  0  0  0  0
   19.8584  -27.0031  -10.2872 C   0  0  0  0  0  0  0  0  0  0  0  0
   19.2288  -25.8204  -10.4020 N   0  0  0  0  0  0  0  0  0  0  0  0
   19.6057  -25.2348  -11.5507 C   0  0  0  0  0  0  0  0  0  0  0  0
   19.2475  -24.0405  -12.1260 C   0  0  0  0  0  0  0  0  0  0  0  0
   19.8145  -23.7296  -13.3401 C   0  0  0  0  0  0  0  0  0  0  0  0
   20.6993  -24.5636  -13.9622 C   0  0  0  0  0  0  0  0  0  0  0  0
   21.0627  -25.7613  -13.3915 C   0  0  0  0  0  0  0  0  0  0  0  0
   20.4989  -26.0923  -12.1603 C   0  0  0  0  0  0  0  0  0  0  0  0
   19.6203  -29.2639  -12.7784 C   0  0  0  0  0  0  0  0  0  0  0  0
   18.4828  -29.2334  -11.9796 O   0  0  0  0  0  0  0  0  0  0  0  0
   19.4340  -29.0296  -13.9976 O   0  0  0  0  0  0  0  0  0  0  0  0
  2  1  1  6
  3  2  1  0
  4  2  1  0
  5  6  1  1
  5  4  1  0
  7  5  1  0
  8  7  2  0
 10  9  1  6
 10 12  1  0
 11 10  1  0
 13 12  1  1
 13 15  1  0
 13 14  1  0
 14  7  1  0
 15 17  1  0
 16 15  2  0
 17 18  1  0
 18 19  1  6
 18 29  1  0
 19 20  1  0
 20 21  2  0
 22 21  1  0
 23 22  1  0
 24 23  2  0
 25 24  1  0
 26 27  1  0
 26 25  2  0
 27 28  2  0
 28 23  1  0
 28 20  1  0
 29 31  2  0
 29 30  1  0
M  END
$$$$
