LLW.pdb
     RDKit          3D

 31 32  0  0  1  0  0  0  0  0999 V2000
   29.7734  -26.0740  -19.1733 C   0  0  0  0  0  0  0  0  0  0  0  0
   28.5603  -25.2174  -18.9266 C   0  0  1  0  0  0  0  0  0  0  0  0
   27.3781  -26.1408  -18.6428 C   0  0  0  0  0  0  0  0  0  0  0  0
   28.7430  -24.2121  -17.8349 C   0  0  0  0  0  0  0  0  0  0  0  0
   27.5540  -23.3799  -17.5192 C   0  0  2  0  0  0  0  0  0  0  0  0
   27.0302  -22.6706  -18.6641 N   0  0  0  0  0  0  0  0  0  0  0  0
   27.6772  -22.4701  -16.3694 C   0  0  0  0  0  0  0  0  0  0  0  0
   28.5571  -22.6737  -15.4536 O   0  0  0  0  0  0  0  0  0  0  0  0
   25.7878  -16.8224  -15.3545 C   0  0  0  0  0  0  0  0  0  0  0  0
   26.4198  -18.0187  -14.6035 C   0  0  2  0  0  0  0  0  0  0  0  0
   27.7106  -17.5027  -14.0513 C   0  0  0  0  0  0  0  0  0  0  0  0
   26.5493  -19.1100  -15.5948 C   0  0  0  0  0  0  0  0  0  0  0  0
   26.9864  -20.4487  -15.1011 C   0  0  2  0  0  0  0  0  0  0  0  0
   26.8194  -21.3514  -16.2564 N   0  0  0  0  0  0  0  0  0  0  0  0
   26.1127  -20.9039  -13.9930 C   0  0  0  0  0  0  0  0  0  0  0  0
   24.9042  -21.2295  -14.2575 O   0  0  0  0  0  0  0  0  0  0  0  0
   26.4761  -21.0270  -12.6353 N   0  0  0  0  0  0  0  0  0  0  0  0
   25.5154  -21.4521  -11.6397 C   0  0  1  0  0  0  0  0  0  0  0  0
   26.1477  -21.9650  -10.3981 C   0  0  0  0  0  0  0  0  0  0  0  0
   26.5643  -20.9605   -9.4091 C   0  0  0  0  0  0  0  0  0  0  0  0
   25.8282  -19.7790   -9.2189 C   0  0  0  0  0  0  0  0  0  0  0  0
   26.3845  -19.0454   -8.2388 N   0  0  0  0  0  0  0  0  0  0  0  0
   27.4640  -19.6921   -7.7684 C   0  0  0  0  0  0  0  0  0  0  0  0
   28.3676  -19.3649   -6.7875 C   0  0  0  0  0  0  0  0  0  0  0  0
   29.3898  -20.2540   -6.5493 C   0  0  0  0  0  0  0  0  0  0  0  0
   29.5160  -21.4191   -7.2507 C   0  0  0  0  0  0  0  0  0  0  0  0
   28.6143  -21.7531   -8.2343 C   0  0  0  0  0  0  0  0  0  0  0  0
   27.5708  -20.8645   -8.4886 C   0  0  0  0  0  0  0  0  0  0  0  0
   24.5503  -20.3973  -11.3668 C   0  0  0  0  0  0  0  0  0  0  0  0
   24.7836  -19.0428  -11.5753 O   0  0  0  0  0  0  0  0  0  0  0  0
   23.4194  -20.6888  -10.9061 O   0  0  0  0  0  0  0  0  0  0  0  0
  2  1  1  1
  3  2  1  0
  4  2  1  0
  5  6  1  6
  5  4  1  0
  7  5  1  0
  8  7  2  0
 10  9  1  6
 10 12  1  0
 11 10  1  0
 13 12  1  6
 13 15  1  0
 13 14  1  0
 14  7  1  0
 15 17  1  0
 16 15  2  0
 17 18  1  0
 18 19  1  1
 18 29  1  0
 19 20  1  0
 20 21  2  0
 22 21  1  0
 23 22  1  0
 24 23  2  0
 25 24  1  0
 26 27  1  0
 26 25  2  0
 27 28  2  0
 28 23  1  0
 28 20  1  0
 29 31  2  0
 29 30  1  0
M  END
$$$$
