VRG.pdb
     RDKit          3D

 23 22  0  0  1  0  0  0  0  0999 V2000
   22.5355  -18.7254  -18.0966 C   0  0  0  0  0  0  0  0  0  0  0  0
   21.3960  -18.6047  -17.1376 C   0  0  2  0  0  0  0  0  0  0  0  0
   20.8915  -17.1678  -17.2036 C   0  0  0  0  0  0  0  0  0  0  0  0
   21.7895  -18.9108  -15.7118 C   0  0  2  0  0  0  0  0  0  0  0  0
   20.6025  -18.7673  -14.8900 N   0  0  0  0  0  0  0  0  0  0  0  0
   22.8341  -17.9156  -15.2905 C   0  0  0  0  0  0  0  0  0  0  0  0
   22.5418  -16.7621  -14.8950 O   0  0  0  0  0  0  0  0  0  0  0  0
   26.3808  -22.0280  -13.1503 N   0  0  0  0  0  0  0  0  0  0  0  0
   26.2793  -21.1422  -12.0452 C   0  0  0  0  0  0  0  0  0  0  0  0
   25.5662  -21.5349  -11.0343 N   0  0  0  0  0  0  0  0  0  0  0  0
   26.9260  -19.8759  -12.0331 N   0  0  0  0  0  0  0  0  0  0  0  0
   27.7022  -19.5127  -13.1876 C   0  0  0  0  0  0  0  0  0  0  0  0
   26.8516  -19.0423  -14.3375 C   0  0  0  0  0  0  0  0  0  0  0  0
   26.1240  -17.7623  -13.9321 C   0  0  0  0  0  0  0  0  0  0  0  0
   25.2084  -17.2799  -15.0364 C   0  0  2  0  0  0  0  0  0  0  0  0
   24.2107  -18.2635  -15.3304 N   0  0  0  0  0  0  0  0  0  0  0  0
   26.0573  -16.9703  -16.2387 C   0  0  0  0  0  0  0  0  0  0  0  0
   26.2676  -17.8326  -17.1295 O   0  0  0  0  0  0  0  0  0  0  0  0
   25.3645  -20.9244  -10.2204 N   0  0  0  0  0  0  0  0  0  0  0  0
   26.6539  -15.6960  -16.4161 C   0  0  0  0  0  0  0  0  0  0  0  0
   27.4678  -15.3601  -17.5667 C   0  0  0  0  0  0  0  0  0  0  0  0
   26.7162  -14.6717  -18.6159 O   0  0  0  0  0  0  0  0  0  0  0  0
   27.2478  -13.7023  -19.4521 O   0  0  0  0  0  0  0  0  0  0  0  0
  2  1  1  6
  2  4  1  0
  3  2  1  0
  4  6  1  0
  4  5  1  1
  6 16  1  0
  6  7  2  0
  9  8  1  0
 10  9  2  0
 11  9  1  0
 12 11  1  0
 13 12  1  0
 14 13  1  0
 15 14  1  1
 16 15  1  0
 17 15  1  0
 18 17  2  0
 19 17  1  0
 20 19  1  0
 21 22  1  0
 21 20  1  0
 23 21  2  0
M  END
$$$$
