VRG.pdb
     RDKit          3D

 23 22  0  0  1  0  0  0  0  0999 V2000
   20.2231  -19.3046  -15.8156 C   0  0  0  0  0  0  0  0  0  0  0  0
   21.3274  -19.7638  -14.9199 C   0  0  2  0  0  0  0  0  0  0  0  0
   21.1079  -19.1212  -13.5552 C   0  0  0  0  0  0  0  0  0  0  0  0
   22.6967  -19.3704  -15.4216 C   0  0  2  0  0  0  0  0  0  0  0  0
   22.7739  -19.7444  -16.8213 N   0  0  0  0  0  0  0  0  0  0  0  0
   23.7223  -20.1282  -14.6261 C   0  0  0  0  0  0  0  0  0  0  0  0
   23.4453  -21.1799  -14.0020 O   0  0  0  0  0  0  0  0  0  0  0  0
   28.8713  -24.1201  -16.4231 N   0  0  0  0  0  0  0  0  0  0  0  0
   28.5868  -23.4198  -17.6251 C   0  0  0  0  0  0  0  0  0  0  0  0
   28.2636  -24.1298  -18.6625 N   0  0  0  0  0  0  0  0  0  0  0  0
   28.6494  -22.0014  -17.7032 N   0  0  0  0  0  0  0  0  0  0  0  0
   28.6446  -21.2649  -16.4684 C   0  0  0  0  0  0  0  0  0  0  0  0
   27.3008  -21.2745  -15.7892 C   0  0  0  0  0  0  0  0  0  0  0  0
   27.3672  -20.4071  -14.5340 C   0  0  0  0  0  0  0  0  0  0  0  0
   26.0392  -20.3917  -13.8083 C   0  0  2  0  0  0  0  0  0  0  0  0
   25.0625  -19.6623  -14.5589 N   0  0  0  0  0  0  0  0  0  0  0  0
   26.2621  -19.7884  -12.4488 C   0  0  0  0  0  0  0  0  0  0  0  0
   26.8290  -18.6741  -12.3136 O   0  0  0  0  0  0  0  0  0  0  0  0
   28.0100  -23.7056  -19.5743 N   0  0  0  0  0  0  0  0  0  0  0  0
   25.8430  -20.4503  -11.2667 C   0  0  0  0  0  0  0  0  0  0  0  0
   26.1325  -19.9498   -9.9383 C   0  0  0  0  0  0  0  0  0  0  0  0
   25.6175  -20.8155   -8.8776 O   0  0  0  0  0  0  0  0  0  0  0  0
   25.8535  -20.6220   -7.5254 O   0  0  0  0  0  0  0  0  0  0  0  0
  2  1  1  6
  2  4  1  0
  3  2  1  0
  4  6  1  0
  4  5  1  6
  6 16  1  0
  6  7  2  0
  9  8  1  0
 10  9  2  0
 11  9  1  0
 12 11  1  0
 13 12  1  0
 14 13  1  0
 15 14  1  6
 16 15  1  0
 17 15  1  0
 18 17  2  0
 19 17  1  0
 20 19  1  0
 21 22  1  0
 21 20  1  0
 23 21  2  0
M  END
$$$$
