VRG.pdb
     RDKit          3D

 23 22  0  0  1  0  0  0  0  0999 V2000
   16.5875  -26.1709   -8.5899 C   0  0  0  0  0  0  0  0  0  0  0  0
   18.0510  -26.2864   -8.3115 C   0  0  2  0  0  0  0  0  0  0  0  0
   18.2425  -27.4434   -7.3377 C   0  0  0  0  0  0  0  0  0  0  0  0
   18.6349  -25.0374   -7.6946 C   0  0  2  0  0  0  0  0  0  0  0  0
   17.8378  -24.7126   -6.5267 N   0  0  0  0  0  0  0  0  0  0  0  0
   18.5456  -23.9297   -8.7066 C   0  0  0  0  0  0  0  0  0  0  0  0
   17.6932  -23.0137   -8.6260 O   0  0  0  0  0  0  0  0  0  0  0  0
   19.9391  -18.7244  -13.8379 N   0  0  0  0  0  0  0  0  0  0  0  0
   21.3149  -18.9847  -14.0731 C   0  0  0  0  0  0  0  0  0  0  0  0
   21.8441  -18.4611  -15.1363 N   0  0  0  0  0  0  0  0  0  0  0  0
   22.0921  -19.7833  -13.1897 N   0  0  0  0  0  0  0  0  0  0  0  0
   21.8037  -21.1908  -13.1353 C   0  0  0  0  0  0  0  0  0  0  0  0
   20.4561  -21.4869  -12.5326 C   0  0  0  0  0  0  0  0  0  0  0  0
   20.6063  -22.5881  -11.4851 C   0  0  0  0  0  0  0  0  0  0  0  0
   19.2781  -22.9100  -10.8349 C   0  0  2  0  0  0  0  0  0  0  0  0
   19.4448  -23.8908   -9.8055 N   0  0  0  0  0  0  0  0  0  0  0  0
   18.3398  -23.3843  -11.9103 C   0  0  0  0  0  0  0  0  0  0  0  0
   18.4637  -24.5228  -12.4298 O   0  0  0  0  0  0  0  0  0  0  0  0
   22.8436  -18.5855  -15.3838 N   0  0  0  0  0  0  0  0  0  0  0  0
   17.2795  -22.5687  -12.3811 C   0  0  0  0  0  0  0  0  0  0  0  0
   16.3292  -23.0110  -13.3813 C   0  0  0  0  0  0  0  0  0  0  0  0
   15.3778  -21.9683  -13.7650 O   0  0  0  0  0  0  0  0  0  0  0  0
   14.4929  -22.0683  -14.8273 O   0  0  0  0  0  0  0  0  0  0  0  0
  2  1  1  1
  2  4  1  0
  3  2  1  0
  4  6  1  0
  4  5  1  1
  6 16  1  0
  6  7  2  0
  9  8  1  0
 10  9  2  0
 11  9  1  0
 12 11  1  0
 13 12  1  0
 14 13  1  0
 15 14  1  6
 16 15  1  0
 17 15  1  0
 18 17  2  0
 19 17  1  0
 20 19  1  0
 21 22  1  0
 21 20  1  0
 23 21  2  0
M  END
$$$$
