VRG.pdb
     RDKit          3D

 23 22  0  0  1  0  0  0  0  0999 V2000
   19.7009  -17.7040  -16.6411 C   0  0  0  0  0  0  0  0  0  0  0  0
   21.0971  -17.1749  -16.5850 C   0  0  2  0  0  0  0  0  0  0  0  0
   21.2192  -16.0896  -17.6483 C   0  0  0  0  0  0  0  0  0  0  0  0
   22.1406  -18.2327  -16.8562 C   0  0  2  0  0  0  0  0  0  0  0  0
   21.9124  -18.7389  -18.1966 N   0  0  0  0  0  0  0  0  0  0  0  0
   21.9627  -19.3347  -15.8496 C   0  0  0  0  0  0  0  0  0  0  0  0
   21.1390  -20.2660  -16.0120 O   0  0  0  0  0  0  0  0  0  0  0  0
   27.4885  -19.8661  -14.6300 N   0  0  0  0  0  0  0  0  0  0  0  0
   27.8177  -21.2368  -14.4601 C   0  0  0  0  0  0  0  0  0  0  0  0
   28.7421  -21.7243  -15.2298 N   0  0  0  0  0  0  0  0  0  0  0  0
   27.1703  -22.0524  -13.4918 N   0  0  0  0  0  0  0  0  0  0  0  0
   26.0581  -21.4852  -12.7786 C   0  0  0  0  0  0  0  0  0  0  0  0
   24.8833  -21.1877  -13.6721 C   0  0  0  0  0  0  0  0  0  0  0  0
   23.7612  -20.5744  -12.8372 C   0  0  0  0  0  0  0  0  0  0  0  0
   22.5157  -20.3575  -13.6692 C   0  0  2  0  0  0  0  0  0  0  0  0
   22.7405  -19.3502  -14.6612 N   0  0  0  0  0  0  0  0  0  0  0  0
   21.3966  -19.9821  -12.7372 C   0  0  0  0  0  0  0  0  0  0  0  0
   21.3771  -18.8674  -12.1554 O   0  0  0  0  0  0  0  0  0  0  0  0
   29.0612  -22.7091  -15.1670 N   0  0  0  0  0  0  0  0  0  0  0  0
   20.3203  -20.8681  -12.4771 C   0  0  0  0  0  0  0  0  0  0  0  0
   19.2373  -20.5477  -11.5696 C   0  0  0  0  0  0  0  0  0  0  0  0
   18.2282  -21.6036  -11.4900 O   0  0  0  0  0  0  0  0  0  0  0  0
   17.1241  -21.5699  -10.6524 O   0  0  0  0  0  0  0  0  0  0  0  0
  2  1  1  6
  2  4  1  0
  3  2  1  0
  4  6  1  0
  4  5  1  6
  6 16  1  0
  6  7  2  0
  9  8  1  0
 10  9  2  0
 11  9  1  0
 12 11  1  0
 13 12  1  0
 14 13  1  0
 15 14  1  1
 16 15  1  0
 17 15  1  0
 18 17  2  0
 19 17  1  0
 20 19  1  0
 21 22  1  0
 21 20  1  0
 23 21  2  0
M  END
$$$$
