VRG.pdb
     RDKit          3D

 23 22  0  0  1  0  0  0  0  0999 V2000
   20.2755  -18.5114  -16.9444 C   0  0  0  0  0  0  0  0  0  0  0  0
   21.6696  -18.5475  -16.4081 C   0  0  2  0  0  0  0  0  0  0  0  0
   22.5891  -18.9661  -17.5495 C   0  0  0  0  0  0  0  0  0  0  0  0
   21.8394  -19.5266  -15.2706 C   0  0  2  0  0  0  0  0  0  0  0  0
   20.8987  -19.1557  -14.2301 N   0  0  0  0  0  0  0  0  0  0  0  0
   23.2482  -19.4110  -14.7598 C   0  0  0  0  0  0  0  0  0  0  0  0
   23.8553  -18.3152  -14.7059 O   0  0  0  0  0  0  0  0  0  0  0  0
   22.9508  -20.3720  -10.0359 N   0  0  0  0  0  0  0  0  0  0  0  0
   24.1668  -20.5713   -9.3304 C   0  0  0  0  0  0  0  0  0  0  0  0
   24.1426  -21.3966   -8.3289 N   0  0  0  0  0  0  0  0  0  0  0  0
   25.3673  -19.9020   -9.6946 N   0  0  0  0  0  0  0  0  0  0  0  0
   25.6372  -19.7329  -11.0967 C   0  0  0  0  0  0  0  0  0  0  0  0
   26.4170  -20.8799  -11.6827 C   0  0  0  0  0  0  0  0  0  0  0  0
   25.6186  -21.4945  -12.8303 C   0  0  0  0  0  0  0  0  0  0  0  0
   25.3095  -20.4645  -13.8953 C   0  0  2  0  0  0  0  0  0  0  0  0
   23.9446  -20.5663  -14.3147 N   0  0  0  0  0  0  0  0  0  0  0  0
   26.2618  -20.6818  -15.0389 C   0  0  0  0  0  0  0  0  0  0  0  0
   25.9932  -21.4840  -15.9692 O   0  0  0  0  0  0  0  0  0  0  0  0
   24.9858  -21.6221   -7.7687 N   0  0  0  0  0  0  0  0  0  0  0  0
   27.4987  -19.9922  -15.1143 C   0  0  0  0  0  0  0  0  0  0  0  0
   28.4030  -20.1163  -16.2395 C   0  0  0  0  0  0  0  0  0  0  0  0
   28.8036  -21.4988  -16.4997 O   0  0  0  0  0  0  0  0  0  0  0  0
   29.1015  -22.0044  -17.7556 O   0  0  0  0  0  0  0  0  0  0  0  0
  2  1  1  6
  2  4  1  0
  3  2  1  0
  4  6  1  0
  4  5  1  1
  6 16  1  0
  6  7  2  0
  9  8  1  0
 10  9  2  0
 11  9  1  0
 12 11  1  0
 13 12  1  0
 14 13  1  0
 15 14  1  1
 16 15  1  0
 17 15  1  0
 18 17  2  0
 19 17  1  0
 20 19  1  0
 21 22  1  0
 21 20  1  0
 23 21  2  0
M  END
$$$$
