VRG.pdb
     RDKit          3D

 23 22  0  0  1  0  0  0  0  0999 V2000
   21.2060  -20.9386  -16.6015 C   0  0  0  0  0  0  0  0  0  0  0  0
   22.5904  -20.4646  -16.2992 C   0  0  2  0  0  0  0  0  0  0  0  0
   23.5607  -21.5080  -16.8408 C   0  0  0  0  0  0  0  0  0  0  0  0
   22.8458  -20.2928  -14.8204 C   0  0  2  0  0  0  0  0  0  0  0  0
   21.8874  -19.3250  -14.3206 N   0  0  0  0  0  0  0  0  0  0  0  0
   24.2453  -19.7737  -14.6443 C   0  0  0  0  0  0  0  0  0  0  0  0
   24.6112  -18.6626  -15.0957 O   0  0  0  0  0  0  0  0  0  0  0  0
   25.4836  -19.2437   -8.7380 N   0  0  0  0  0  0  0  0  0  0  0  0
   25.1200  -20.6145   -8.8075 C   0  0  0  0  0  0  0  0  0  0  0  0
   23.8989  -20.9207   -8.4915 N   0  0  0  0  0  0  0  0  0  0  0  0
   26.0441  -21.6196   -9.2049 N   0  0  0  0  0  0  0  0  0  0  0  0
   26.9434  -21.3097  -10.2831 C   0  0  0  0  0  0  0  0  0  0  0  0
   26.2302  -20.8123  -11.5123 C   0  0  0  0  0  0  0  0  0  0  0  0
   27.2467  -20.6081  -12.6336 C   0  0  0  0  0  0  0  0  0  0  0  0
   26.5760  -20.1146  -13.8974 C   0  0  2  0  0  0  0  0  0  0  0  0
   25.2117  -20.5457  -13.9460 N   0  0  0  0  0  0  0  0  0  0  0  0
   27.3650  -20.6279  -15.0703 C   0  0  0  0  0  0  0  0  0  0  0  0
   27.0944  -21.7327  -15.6065 O   0  0  0  0  0  0  0  0  0  0  0  0
   23.5406  -21.8936   -8.5189 N   0  0  0  0  0  0  0  0  0  0  0  0
   28.4440  -19.8884  -15.6181 C   0  0  0  0  0  0  0  0  0  0  0  0
   28.2549  -18.7334  -16.4720 C   0  0  0  0  0  0  0  0  0  0  0  0
   28.0250  -19.0902  -17.8718 O   0  0  0  0  0  0  0  0  0  0  0  0
   28.7564  -18.5894  -18.9376 O   0  0  0  0  0  0  0  0  0  0  0  0
  2  1  1  1
  2  4  1  0
  3  2  1  0
  4  6  1  0
  4  5  1  6
  6 16  1  0
  6  7  2  0
  9  8  1  0
 10  9  2  0
 11  9  1  0
 12 11  1  0
 13 12  1  0
 14 13  1  0
 15 14  1  1
 16 15  1  0
 17 15  1  0
 18 17  2  0
 19 17  1  0
 20 19  1  0
 21 22  1  0
 21 20  1  0
 23 21  2  0
M  END
$$$$
