VRG.pdb
     RDKit          3D

 23 22  0  0  1  0  0  0  0  0999 V2000
   21.1201  -20.3364  -13.2240 C   0  0  0  0  0  0  0  0  0  0  0  0
   21.7237  -21.5968  -12.6951 C   0  0  2  0  0  0  0  0  0  0  0  0
   20.5793  -22.5355  -12.3310 C   0  0  0  0  0  0  0  0  0  0  0  0
   22.5723  -21.3741  -11.4655 C   0  0  2  0  0  0  0  0  0  0  0  0
   21.7539  -20.6800  -10.4891 N   0  0  0  0  0  0  0  0  0  0  0  0
   23.7472  -20.5218  -11.8557 C   0  0  0  0  0  0  0  0  0  0  0  0
   23.7402  -19.2736  -11.7371 O   0  0  0  0  0  0  0  0  0  0  0  0
   31.9682  -22.0134  -10.9816 N   0  0  0  0  0  0  0  0  0  0  0  0
   30.6749  -22.0429  -10.3961 C   0  0  0  0  0  0  0  0  0  0  0  0
   30.5577  -22.6352   -9.2472 N   0  0  0  0  0  0  0  0  0  0  0  0
   29.5475  -21.4526  -11.0304 N   0  0  0  0  0  0  0  0  0  0  0  0
   29.7874  -20.6255  -12.1818 C   0  0  0  0  0  0  0  0  0  0  0  0
   28.5217  -20.0523  -12.7617 C   0  0  0  0  0  0  0  0  0  0  0  0
   27.3313  -20.8821  -12.2855 C   0  0  0  0  0  0  0  0  0  0  0  0
   26.0256  -20.3044  -12.7873 C   0  0  2  0  0  0  0  0  0  0  0  0
   24.9228  -21.1217  -12.3808 N   0  0  0  0  0  0  0  0  0  0  0  0
   26.1145  -20.1926  -14.2845 C   0  0  0  0  0  0  0  0  0  0  0  0
   25.8717  -21.1769  -15.0286 O   0  0  0  0  0  0  0  0  0  0  0  0
   29.6553  -22.6995   -8.7398 N   0  0  0  0  0  0  0  0  0  0  0  0
   26.4750  -18.9754  -14.9165 C   0  0  0  0  0  0  0  0  0  0  0  0
   26.3228  -18.7510  -16.3397 C   0  0  0  0  0  0  0  0  0  0  0  0
   27.4880  -19.1801  -17.1128 O   0  0  0  0  0  0  0  0  0  0  0  0
   27.5959  -19.0734  -18.4907 O   0  0  0  0  0  0  0  0  0  0  0  0
  2  1  1  1
  2  4  1  0
  3  2  1  0
  4  6  1  0
  4  5  1  1
  6 16  1  0
  6  7  2  0
  9  8  1  0
 10  9  2  0
 11  9  1  0
 12 11  1  0
 13 12  1  0
 14 13  1  0
 15 14  1  6
 16 15  1  0
 17 15  1  0
 18 17  2  0
 19 17  1  0
 20 19  1  0
 21 22  1  0
 21 20  1  0
 23 21  2  0
M  END
$$$$
