VRG.pdb
     RDKit          3D

 23 22  0  0  1  0  0  0  0  0999 V2000
   23.8672  -16.8801  -17.6789 C   0  0  0  0  0  0  0  0  0  0  0  0
   24.6112  -16.4271  -16.4648 C   0  0  2  0  0  0  0  0  0  0  0  0
   25.3269  -15.1299  -16.8233 C   0  0  0  0  0  0  0  0  0  0  0  0
   25.6391  -17.4289  -15.9944 C   0  0  2  0  0  0  0  0  0  0  0  0
   26.5978  -17.6091  -17.0685 N   0  0  0  0  0  0  0  0  0  0  0  0
   24.9332  -18.7245  -15.7080 C   0  0  0  0  0  0  0  0  0  0  0  0
   24.8634  -19.6515  -16.5494 O   0  0  0  0  0  0  0  0  0  0  0  0
   24.3031  -21.4423   -9.3191 N   0  0  0  0  0  0  0  0  0  0  0  0
   25.5170  -20.7310   -9.5101 C   0  0  0  0  0  0  0  0  0  0  0  0
   25.8779  -19.9114   -8.5706 N   0  0  0  0  0  0  0  0  0  0  0  0
   26.3133  -20.8996  -10.6760 N   0  0  0  0  0  0  0  0  0  0  0  0
   25.9089  -21.9061  -11.6197 C   0  0  0  0  0  0  0  0  0  0  0  0
   25.5130  -21.3295  -12.9531 C   0  0  0  0  0  0  0  0  0  0  0  0
   24.1060  -20.7448  -12.8486 C   0  0  0  0  0  0  0  0  0  0  0  0
   23.6495  -20.1764  -14.1749 C   0  0  2  0  0  0  0  0  0  0  0  0
   24.3128  -18.9375  -14.4481 N   0  0  0  0  0  0  0  0  0  0  0  0
   22.1561  -20.0082  -14.1164 C   0  0  0  0  0  0  0  0  0  0  0  0
   21.6323  -19.0149  -13.5504 O   0  0  0  0  0  0  0  0  0  0  0  0
   26.7381  -19.3349   -8.6303 N   0  0  0  0  0  0  0  0  0  0  0  0
   21.2800  -20.9609  -14.6959 C   0  0  0  0  0  0  0  0  0  0  0  0
   19.8394  -20.8933  -14.5579 C   0  0  0  0  0  0  0  0  0  0  0  0
   19.1981  -20.1362  -15.6327 O   0  0  0  0  0  0  0  0  0  0  0  0
   17.8966  -20.3392  -16.0647 O   0  0  0  0  0  0  0  0  0  0  0  0
  2  1  1  6
  2  4  1  0
  3  2  1  0
  4  6  1  0
  4  5  1  6
  6 16  1  0
  6  7  2  0
  9  8  1  0
 10  9  2  0
 11  9  1  0
 12 11  1  0
 13 12  1  0
 14 13  1  0
 15 14  1  1
 16 15  1  0
 17 15  1  0
 18 17  2  0
 19 17  1  0
 20 19  1  0
 21 22  1  0
 21 20  1  0
 23 21  2  0
M  END
$$$$
