VRG.pdb
     RDKit          3D

 23 22  0  0  1  0  0  0  0  0999 V2000
   23.3361  -19.7376  -10.0429 C   0  0  0  0  0  0  0  0  0  0  0  0
   24.1761  -20.9491   -9.7994 C   0  0  2  0  0  0  0  0  0  0  0  0
   24.0976  -21.2697   -8.3112 C   0  0  0  0  0  0  0  0  0  0  0  0
   25.6259  -20.7467  -10.1714 C   0  0  2  0  0  0  0  0  0  0  0  0
   26.1474  -19.6813   -9.3359 N   0  0  0  0  0  0  0  0  0  0  0  0
   25.6863  -20.3459  -11.6188 C   0  0  0  0  0  0  0  0  0  0  0  0
   25.7902  -19.1499  -11.9806 O   0  0  0  0  0  0  0  0  0  0  0  0
   29.8552  -23.9243  -18.0733 N   0  0  0  0  0  0  0  0  0  0  0  0
   29.4790  -24.0096  -16.7068 C   0  0  0  0  0  0  0  0  0  0  0  0
   29.9808  -24.9855  -16.0136 N   0  0  0  0  0  0  0  0  0  0  0  0
   28.5913  -23.0727  -16.1101 N   0  0  0  0  0  0  0  0  0  0  0  0
   27.6338  -22.4240  -16.9644 C   0  0  0  0  0  0  0  0  0  0  0  0
   26.7758  -21.4293  -16.2286 C   0  0  0  0  0  0  0  0  0  0  0  0
   26.5855  -21.9000  -14.7883 C   0  0  0  0  0  0  0  0  0  0  0  0
   25.6968  -20.9500  -14.0148 C   0  0  2  0  0  0  0  0  0  0  0  0
   25.6257  -21.3339  -12.6376 N   0  0  0  0  0  0  0  0  0  0  0  0
   24.3406  -20.9528  -14.6650 C   0  0  0  0  0  0  0  0  0  0  0  0
   23.5911  -21.9610  -14.6085 O   0  0  0  0  0  0  0  0  0  0  0  0
   29.7880  -25.1110  -15.0023 N   0  0  0  0  0  0  0  0  0  0  0  0
   23.8530  -19.8210  -15.3668 C   0  0  0  0  0  0  0  0  0  0  0  0
   22.5441  -19.7817  -15.9867 C   0  0  0  0  0  0  0  0  0  0  0  0
   21.4819  -19.4067  -15.0536 O   0  0  0  0  0  0  0  0  0  0  0  0
   20.4920  -18.4757  -15.3274 O   0  0  0  0  0  0  0  0  0  0  0  0
  2  1  1  1
  2  4  1  0
  3  2  1  0
  4  6  1  0
  4  5  1  1
  6 16  1  0
  6  7  2  0
  9  8  1  0
 10  9  2  0
 11  9  1  0
 12 11  1  0
 13 12  1  0
 14 13  1  0
 15 14  1  6
 16 15  1  0
 17 15  1  0
 18 17  2  0
 19 17  1  0
 20 19  1  0
 21 22  1  0
 21 20  1  0
 23 21  2  0
M  END
$$$$
