VRG.pdb
     RDKit          3D

 23 22  0  0  1  0  0  0  0  0999 V2000
   21.3227  -14.4695  -19.6410 C   0  0  0  0  0  0  0  0  0  0  0  0
   20.9578  -13.0600  -19.3053 C   0  0  2  0  0  0  0  0  0  0  0  0
   21.3007  -12.1974  -20.5144 C   0  0  0  0  0  0  0  0  0  0  0  0
   21.7056  -12.5260  -18.1066 C   0  0  2  0  0  0  0  0  0  0  0  0
   21.7436  -13.5797  -17.1098 N   0  0  0  0  0  0  0  0  0  0  0  0
   20.9525  -11.3385  -17.5758 C   0  0  0  0  0  0  0  0  0  0  0  0
   20.7758  -10.2980  -18.2529 O   0  0  0  0  0  0  0  0  0  0  0  0
   13.4103  -12.2100  -14.1798 N   0  0  0  0  0  0  0  0  0  0  0  0
   14.0632  -13.0183  -15.1475 C   0  0  0  0  0  0  0  0  0  0  0  0
   13.5486  -14.1849  -15.3902 N   0  0  0  0  0  0  0  0  0  0  0  0
   15.2320  -12.5810  -15.8292 N   0  0  0  0  0  0  0  0  0  0  0  0
   16.2456  -11.9165  -15.0558 C   0  0  0  0  0  0  0  0  0  0  0  0
   17.4204  -11.4775  -15.8890 C   0  0  0  0  0  0  0  0  0  0  0  0
   18.4345  -10.7703  -14.9925 C   0  0  0  0  0  0  0  0  0  0  0  0
   19.6169  -10.2687  -15.7932 C   0  0  2  0  0  0  0  0  0  0  0  0
   20.4089  -11.3644  -16.2638 N   0  0  0  0  0  0  0  0  0  0  0  0
   20.4119   -9.3434  -14.9135 C   0  0  0  0  0  0  0  0  0  0  0  0
   21.0128   -9.7676  -13.8936 O   0  0  0  0  0  0  0  0  0  0  0  0
   13.9348  -14.8296  -16.1049 N   0  0  0  0  0  0  0  0  0  0  0  0
   20.5158   -7.9580  -15.1980 C   0  0  0  0  0  0  0  0  0  0  0  0
   21.2842   -7.0411  -14.3808 C   0  0  0  0  0  0  0  0  0  0  0  0
   21.4188   -5.7151  -14.9836 O   0  0  0  0  0  0  0  0  0  0  0  0
   22.0556   -4.6418  -14.3802 O   0  0  0  0  0  0  0  0  0  0  0  0
  2  1  1  6
  2  4  1  0
  3  2  1  0
  4  6  1  0
  4  5  1  1
  6 16  1  0
  6  7  2  0
  9  8  1  0
 10  9  2  0
 11  9  1  0
 12 11  1  0
 13 12  1  0
 14 13  1  0
 15 14  1  1
 16 15  1  0
 17 15  1  0
 18 17  2  0
 19 17  1  0
 20 19  1  0
 21 22  1  0
 21 20  1  0
 23 21  2  0
M  END
$$$$
