KEN.pdb
     RDKit          3D

 27 26  0  0  1  0  0  0  0  0999 V2000
   26.1536  -24.5281  -15.7721 N   0  0  0  0  0  0  0  0  0  0  0  0
   24.7726  -24.6306  -16.1555 C   0  0  1  0  0  0  0  0  0  0  0  0
   24.2090  -26.0056  -16.1477 C   0  0  0  0  0  0  0  0  0  0  0  0
   24.8777  -26.8313  -17.2237 C   0  0  0  0  0  0  0  0  0  0  0  0
   24.3829  -28.2508  -17.2816 C   0  0  0  0  0  0  0  0  0  0  0  0
   24.9738  -29.0136  -18.4503 C   0  0  0  0  0  0  0  0  0  0  0  0
   24.5684  -30.3883  -18.3898 N   0  0  0  0  0  0  0  0  0  0  0  0
   23.9799  -23.6425  -15.3407 C   0  0  0  0  0  0  0  0  0  0  0  0
   23.9192  -23.7754  -14.0915 O   0  0  0  0  0  0  0  0  0  0  0  0
   23.2998  -22.5634  -15.9420 N   0  0  0  0  0  0  0  0  0  0  0  0
   22.4739  -21.5723  -15.3226 C   0  0  1  0  0  0  0  0  0  0  0  0
   22.7215  -20.1450  -15.7588 C   0  0  0  0  0  0  0  0  0  0  0  0
   24.1919  -19.8507  -15.6425 C   0  0  0  0  0  0  0  0  0  0  0  0
   24.5139  -18.5119  -16.2408 C   0  0  0  0  0  0  0  0  0  0  0  0
   23.5719  -17.8159  -16.6636 O   0  0  0  0  0  0  0  0  0  0  0  0
   21.0878  -21.9645  -15.1860 C   0  0  0  0  0  0  0  0  0  0  0  0
   20.5480  -22.5881  -16.1632 O   0  0  0  0  0  0  0  0  0  0  0  0
   25.8177  -18.1072  -16.3003 O   0  0  0  0  0  0  0  0  0  0  0  0
   19.4090  -24.7968  -13.2108 N   0  0  0  0  0  0  0  0  0  0  0  0
   18.8087  -23.8911  -12.2926 C   0  0  0  0  0  0  0  0  0  0  0  0
   18.5814  -24.3253  -11.1379 O   0  0  0  0  0  0  0  0  0  0  0  0
   18.4724  -22.5185  -12.6766 C   0  0  0  0  0  0  0  0  0  0  0  0
   18.8715  -22.1438  -14.0782 C   0  0  2  0  0  0  0  0  0  0  0  0
   20.2614  -21.7259  -14.0709 N   0  0  0  0  0  0  0  0  0  0  0  0
   17.9870  -21.1552  -14.6993 C   0  0  0  0  0  0  0  0  0  0  0  0
   16.9213  -21.5480  -15.4880 O   0  0  0  0  0  0  0  0  0  0  0  0
   18.1614  -19.9234  -14.5405 O   0  0  0  0  0  0  0  0  0  0  0  0
  2  1  1  1
  3  2  1  0
  4  5  1  0
  4  3  1  0
  5  6  1  0
  7  6  1  0
  8  9  2  0
  8  2  1  0
 10  8  1  0
 11 10  1  0
 11 12  1  6
 12 13  1  0
 13 14  1  0
 14 18  1  0
 15 14  2  0
 16 17  2  0
 16 11  1  0
 19 20  1  0
 20 22  1  0
 21 20  2  0
 23 22  1  1
 23 24  1  0
 24 16  1  0
 25 23  1  0
 26 25  1  0
 27 25  2  0
M  END
$$$$
