KEN.pdb
     RDKit          3D

 27 26  0  0  1  0  0  0  0  0999 V2000
   28.5589  -20.4493  -15.6010 N   0  0  0  0  0  0  0  0  0  0  0  0
   27.5810  -21.2793  -16.2488 C   0  0  1  0  0  0  0  0  0  0  0  0
   28.1080  -22.5266  -16.8609 C   0  0  0  0  0  0  0  0  0  0  0  0
   28.8274  -22.1922  -18.1484 C   0  0  0  0  0  0  0  0  0  0  0  0
   27.9172  -21.6556  -19.2193 C   0  0  0  0  0  0  0  0  0  0  0  0
   28.6505  -21.4165  -20.5239 C   0  0  0  0  0  0  0  0  0  0  0  0
   27.7566  -20.8406  -21.4867 N   0  0  0  0  0  0  0  0  0  0  0  0
   26.4412  -21.5052  -15.2904 C   0  0  0  0  0  0  0  0  0  0  0  0
   25.4158  -22.1205  -15.6798 O   0  0  0  0  0  0  0  0  0  0  0  0
   26.4914  -21.0448  -13.9584 N   0  0  0  0  0  0  0  0  0  0  0  0
   25.4790  -21.1192  -12.9496 C   0  0  1  0  0  0  0  0  0  0  0  0
   25.9556  -20.9329  -11.5259 C   0  0  0  0  0  0  0  0  0  0  0  0
   24.7897  -21.1259  -10.5954 C   0  0  0  0  0  0  0  0  0  0  0  0
   25.2167  -20.9513   -9.1667 C   0  0  0  0  0  0  0  0  0  0  0  0
   24.3755  -21.1607   -8.2728 O   0  0  0  0  0  0  0  0  0  0  0  0
   24.2481  -20.4449  -13.3019 C   0  0  0  0  0  0  0  0  0  0  0  0
   24.2487  -19.1662  -13.2962 O   0  0  0  0  0  0  0  0  0  0  0  0
   26.5020  -20.5721   -8.8991 O   0  0  0  0  0  0  0  0  0  0  0  0
   20.1225  -19.3976  -17.1489 N   0  0  0  0  0  0  0  0  0  0  0  0
   20.2119  -19.9284  -15.8322 C   0  0  0  0  0  0  0  0  0  0  0  0
   19.2197  -19.7548  -15.0846 O   0  0  0  0  0  0  0  0  0  0  0  0
   21.4044  -20.6429  -15.3715 C   0  0  0  0  0  0  0  0  0  0  0  0
   21.8683  -20.2639  -13.9912 C   0  0  2  0  0  0  0  0  0  0  0  0
   23.0327  -21.0625  -13.6552 N   0  0  0  0  0  0  0  0  0  0  0  0
   20.8173  -20.3404  -12.9738 C   0  0  0  0  0  0  0  0  0  0  0  0
   20.6816  -21.4587  -12.1718 O   0  0  0  0  0  0  0  0  0  0  0  0
   20.0062  -19.4011  -12.7926 O   0  0  0  0  0  0  0  0  0  0  0  0
  2  1  1  1
  3  2  1  0
  4  5  1  0
  4  3  1  0
  5  6  1  0
  7  6  1  0
  8  9  2  0
  8  2  1  0
 10  8  1  0
 11 10  1  0
 11 12  1  1
 12 13  1  0
 13 14  1  0
 14 18  1  0
 15 14  2  0
 16 17  2  0
 16 11  1  0
 19 20  1  0
 20 22  1  0
 21 20  2  0
 23 22  1  6
 23 24  1  0
 24 16  1  0
 25 23  1  0
 26 25  1  0
 27 25  2  0
M  END
$$$$
