KEN.pdb
     RDKit          3D

 27 26  0  0  1  0  0  0  0  0999 V2000
   12.7556   -9.0965   -9.7578 N   0  0  0  0  0  0  0  0  0  0  0  0
   14.1753   -9.2995   -9.6688 C   0  0  1  0  0  0  0  0  0  0  0  0
   14.6841  -10.5375  -10.3143 C   0  0  0  0  0  0  0  0  0  0  0  0
   13.5391  -11.5016  -10.5299 C   0  0  0  0  0  0  0  0  0  0  0  0
   13.9668  -12.8122  -11.1319 C   0  0  0  0  0  0  0  0  0  0  0  0
   13.9766  -13.9325  -10.1112 C   0  0  0  0  0  0  0  0  0  0  0  0
   14.2899  -15.1755  -10.7551 N   0  0  0  0  0  0  0  0  0  0  0  0
   14.8638   -8.0430  -10.1331 C   0  0  0  0  0  0  0  0  0  0  0  0
   14.6202   -7.5898  -11.2808 O   0  0  0  0  0  0  0  0  0  0  0  0
   15.7794   -7.3535   -9.3117 N   0  0  0  0  0  0  0  0  0  0  0  0
   16.4959   -6.1465   -9.5912 C   0  0  1  0  0  0  0  0  0  0  0  0
   16.4013   -5.0671   -8.5354 C   0  0  0  0  0  0  0  0  0  0  0  0
   15.0412   -4.4299   -8.6142 C   0  0  0  0  0  0  0  0  0  0  0  0
   14.0832   -5.1063   -7.6768 C   0  0  0  0  0  0  0  0  0  0  0  0
   12.9702   -5.4465   -8.1194 O   0  0  0  0  0  0  0  0  0  0  0  0
   17.8063   -6.3611  -10.1661 C   0  0  0  0  0  0  0  0  0  0  0  0
   18.7576   -6.6804   -9.3735 O   0  0  0  0  0  0  0  0  0  0  0  0
   14.4624   -5.3235   -6.3821 O   0  0  0  0  0  0  0  0  0  0  0  0
   21.9218   -7.3674  -13.2055 N   0  0  0  0  0  0  0  0  0  0  0  0
   20.7933   -8.2306  -13.2759 C   0  0  0  0  0  0  0  0  0  0  0  0
   20.9616   -9.3349  -13.8466 O   0  0  0  0  0  0  0  0  0  0  0  0
   19.4978   -7.8487  -12.7097 C   0  0  0  0  0  0  0  0  0  0  0  0
   19.4961   -6.5334  -11.9790 C   0  0  2  0  0  0  0  0  0  0  0  0
   18.1453   -6.2522  -11.5287 N   0  0  0  0  0  0  0  0  0  0  0  0
   20.0769   -5.4304  -12.7480 C   0  0  0  0  0  0  0  0  0  0  0  0
   19.3189   -4.3276  -13.0966 O   0  0  0  0  0  0  0  0  0  0  0  0
   21.2754   -5.4441  -13.1171 O   0  0  0  0  0  0  0  0  0  0  0  0
  2  1  1  6
  3  2  1  0
  4  5  1  0
  4  3  1  0
  5  6  1  0
  7  6  1  0
  8  9  2  0
  8  2  1  0
 10  8  1  0
 11 10  1  0
 11 12  1  1
 12 13  1  0
 13 14  1  0
 14 18  1  0
 15 14  2  0
 16 17  2  0
 16 11  1  0
 19 20  1  0
 20 22  1  0
 21 20  2  0
 23 22  1  6
 23 24  1  0
 24 16  1  0
 25 23  1  0
 26 25  1  0
 27 25  2  0
M  END
$$$$
