KEN.pdb
     RDKit          3D

 27 26  0  0  1  0  0  0  0  0999 V2000
   28.4025  -21.5401  -16.8345 N   0  0  0  0  0  0  0  0  0  0  0  0
   27.0454  -21.9987  -16.7217 C   0  0  1  0  0  0  0  0  0  0  0  0
   26.8832  -23.4075  -16.2777 C   0  0  0  0  0  0  0  0  0  0  0  0
   27.8343  -24.2932  -17.0510 C   0  0  0  0  0  0  0  0  0  0  0  0
   27.7315  -25.7475  -16.6802 C   0  0  0  0  0  0  0  0  0  0  0  0
   28.6756  -26.6113  -17.4922 C   0  0  0  0  0  0  0  0  0  0  0  0
   28.6206  -27.9661  -17.0243 N   0  0  0  0  0  0  0  0  0  0  0  0
   26.2770  -21.0054  -15.8902 C   0  0  0  0  0  0  0  0  0  0  0  0
   26.7817  -20.5652  -14.8256 O   0  0  0  0  0  0  0  0  0  0  0  0
   24.9989  -20.5497  -16.2742 N   0  0  0  0  0  0  0  0  0  0  0  0
   24.1403  -19.6259  -15.5979 C   0  0  1  0  0  0  0  0  0  0  0  0
   24.2342  -18.1867  -16.0545 C   0  0  0  0  0  0  0  0  0  0  0  0
   23.9086  -18.1214  -17.5215 C   0  0  0  0  0  0  0  0  0  0  0  0
   24.1046  -16.7288  -18.0469 C   0  0  0  0  0  0  0  0  0  0  0  0
   24.4656  -15.8450  -17.2475 O   0  0  0  0  0  0  0  0  0  0  0  0
   22.8058  -20.1316  -15.3585 C   0  0  0  0  0  0  0  0  0  0  0  0
   22.4313  -21.1578  -16.0233 O   0  0  0  0  0  0  0  0  0  0  0  0
   23.8820  -16.4814  -19.3723 O   0  0  0  0  0  0  0  0  0  0  0  0
   19.2997  -23.0033  -12.2970 N   0  0  0  0  0  0  0  0  0  0  0  0
   19.2868  -21.6276  -12.6589 C   0  0  0  0  0  0  0  0  0  0  0  0
   18.1642  -21.0719  -12.7268 O   0  0  0  0  0  0  0  0  0  0  0  0
   20.5238  -20.8953  -12.9386 C   0  0  0  0  0  0  0  0  0  0  0  0
   20.5666  -20.2287  -14.2869 C   0  0  2  0  0  0  0  0  0  0  0  0
   21.8643  -19.6010  -14.4554 N   0  0  0  0  0  0  0  0  0  0  0  0
   19.4559  -19.3035  -14.5232 C   0  0  0  0  0  0  0  0  0  0  0  0
   18.2129  -19.7669  -14.9136 O   0  0  0  0  0  0  0  0  0  0  0  0
   19.5892  -18.0645  -14.3817 O   0  0  0  0  0  0  0  0  0  0  0  0
  2  1  1  1
  3  2  1  0
  4  5  1  0
  4  3  1  0
  5  6  1  0
  7  6  1  0
  8  9  2  0
  8  2  1  0
 10  8  1  0
 11 10  1  0
 11 12  1  6
 12 13  1  0
 13 14  1  0
 14 18  1  0
 15 14  2  0
 16 17  2  0
 16 11  1  0
 19 20  1  0
 20 22  1  0
 21 20  2  0
 23 22  1  1
 23 24  1  0
 24 16  1  0
 25 23  1  0
 26 25  1  0
 27 25  2  0
M  END
$$$$
