KEN.pdb
     RDKit          3D

 27 26  0  0  1  0  0  0  0  0999 V2000
   25.0882  -24.6730  -18.2927 N   0  0  0  0  0  0  0  0  0  0  0  0
   25.4464  -24.8592  -16.9136 C   0  0  1  0  0  0  0  0  0  0  0  0
   26.8534  -25.2705  -16.6702 C   0  0  0  0  0  0  0  0  0  0  0  0
   27.1545  -26.5281  -17.4542 C   0  0  0  0  0  0  0  0  0  0  0  0
   26.9641  -27.7894  -16.6566 C   0  0  0  0  0  0  0  0  0  0  0  0
   28.1074  -28.7652  -16.8509 C   0  0  0  0  0  0  0  0  0  0  0  0
   27.8468  -29.9725  -16.1215 N   0  0  0  0  0  0  0  0  0  0  0  0
   25.0285  -23.6327  -16.1457 C   0  0  0  0  0  0  0  0  0  0  0  0
   25.3196  -23.5352  -14.9259 O   0  0  0  0  0  0  0  0  0  0  0  0
   24.3165  -22.5815  -16.7593 N   0  0  0  0  0  0  0  0  0  0  0  0
   23.8369  -21.3670  -16.1736 C   0  0  1  0  0  0  0  0  0  0  0  0
   24.0654  -20.1112  -16.9857 C   0  0  0  0  0  0  0  0  0  0  0  0
   25.5459  -19.8773  -17.1105 C   0  0  0  0  0  0  0  0  0  0  0  0
   25.8214  -18.6331  -17.9042 C   0  0  0  0  0  0  0  0  0  0  0  0
   26.1926  -17.6153  -17.2903 O   0  0  0  0  0  0  0  0  0  0  0  0
   22.5398  -21.4905  -15.5444 C   0  0  0  0  0  0  0  0  0  0  0  0
   21.6376  -22.1485  -16.1675 O   0  0  0  0  0  0  0  0  0  0  0  0
   25.6570  -18.6603  -19.2604 O   0  0  0  0  0  0  0  0  0  0  0  0
   18.3717  -21.5278  -12.3961 N   0  0  0  0  0  0  0  0  0  0  0  0
   19.5930  -21.8024  -11.7202 C   0  0  0  0  0  0  0  0  0  0  0  0
   19.5037  -22.2458  -10.5501 O   0  0  0  0  0  0  0  0  0  0  0  0
   20.8916  -21.5784  -12.3591 C   0  0  0  0  0  0  0  0  0  0  0  0
   20.8156  -21.1284  -13.7929 C   0  0  2  0  0  0  0  0  0  0  0  0
   22.1647  -20.9522  -14.2982 N   0  0  0  0  0  0  0  0  0  0  0  0
   19.9766  -19.9451  -13.9962 C   0  0  0  0  0  0  0  0  0  0  0  0
   18.6073  -20.0602  -14.1515 O   0  0  0  0  0  0  0  0  0  0  0  0
   20.4648  -18.7906  -14.0371 O   0  0  0  0  0  0  0  0  0  0  0  0
  2  1  1  6
  3  2  1  0
  4  5  1  0
  4  3  1  0
  5  6  1  0
  7  6  1  0
  8  9  2  0
  8  2  1  0
 10  8  1  0
 11 10  1  0
 11 12  1  6
 12 13  1  0
 13 14  1  0
 14 18  1  0
 15 14  2  0
 16 17  2  0
 16 11  1  0
 19 20  1  0
 20 22  1  0
 21 20  2  0
 23 22  1  1
 23 24  1  0
 24 16  1  0
 25 23  1  0
 26 25  1  0
 27 25  2  0
M  END
$$$$
