KEN.pdb
     RDKit          3D

 27 26  0  0  1  0  0  0  0  0999 V2000
   20.2219  -12.6138  -19.6187 N   0  0  0  0  0  0  0  0  0  0  0  0
   20.4755  -12.6555  -18.2050 C   0  0  1  0  0  0  0  0  0  0  0  0
   20.9584  -13.9598  -17.6820 C   0  0  0  0  0  0  0  0  0  0  0  0
   19.9375  -15.0339  -17.9837 C   0  0  0  0  0  0  0  0  0  0  0  0
   20.3781  -16.4108  -17.5676 C   0  0  0  0  0  0  0  0  0  0  0  0
   19.3362  -17.4639  -17.8874 C   0  0  0  0  0  0  0  0  0  0  0  0
   19.8094  -18.7561  -17.4824 N   0  0  0  0  0  0  0  0  0  0  0  0
   21.3605  -11.4903  -17.8477 C   0  0  0  0  0  0  0  0  0  0  0  0
   21.8807  -11.4340  -16.7039 O   0  0  0  0  0  0  0  0  0  0  0  0
   21.6265  -10.4534  -18.7657 N   0  0  0  0  0  0  0  0  0  0  0  0
   22.4001   -9.2653  -18.5708 C   0  0  1  0  0  0  0  0  0  0  0  0
   23.2011   -8.7995  -19.7666 C   0  0  0  0  0  0  0  0  0  0  0  0
   24.4115   -9.6805  -19.9122 C   0  0  0  0  0  0  0  0  0  0  0  0
   24.4039  -10.3768  -21.2423 C   0  0  0  0  0  0  0  0  0  0  0  0
   23.6046  -11.3170  -21.4082 O   0  0  0  0  0  0  0  0  0  0  0  0
   21.7136   -8.2334  -17.8238 C   0  0  0  0  0  0  0  0  0  0  0  0
   20.4426   -8.3234  -17.7169 O   0  0  0  0  0  0  0  0  0  0  0  0
   25.2666   -9.9585  -22.2160 O   0  0  0  0  0  0  0  0  0  0  0  0
   18.9481   -5.3266  -14.7749 N   0  0  0  0  0  0  0  0  0  0  0  0
   20.1246   -6.0182  -14.3737 C   0  0  0  0  0  0  0  0  0  0  0  0
   20.5051   -5.8466  -13.1907 O   0  0  0  0  0  0  0  0  0  0  0  0
   20.8564   -6.8884  -15.2967 C   0  0  0  0  0  0  0  0  0  0  0  0
   21.5056   -6.1736  -16.4507 C   0  0  2  0  0  0  0  0  0  0  0  0
   22.3115   -7.1246  -17.1941 N   0  0  0  0  0  0  0  0  0  0  0  0
   22.2582   -4.9802  -16.0575 C   0  0  0  0  0  0  0  0  0  0  0  0
   23.5942   -4.8396  -16.3855 O   0  0  0  0  0  0  0  0  0  0  0  0
   21.7234   -4.0469  -15.4126 O   0  0  0  0  0  0  0  0  0  0  0  0
  2  1  1  6
  3  2  1  0
  4  5  1  0
  4  3  1  0
  5  6  1  0
  7  6  1  0
  8  9  2  0
  8  2  1  0
 10  8  1  0
 11 10  1  0
 11 12  1  6
 12 13  1  0
 13 14  1  0
 14 18  1  0
 15 14  2  0
 16 17  2  0
 16 11  1  0
 19 20  1  0
 20 22  1  0
 21 20  2  0
 23 22  1  1
 23 24  1  0
 24 16  1  0
 25 23  1  0
 26 25  1  0
 27 25  2  0
M  END
$$$$
