KEN.pdb
     RDKit          3D

 27 26  0  0  1  0  0  0  0  0999 V2000
   14.4433  -10.5753  -14.1201 N   0  0  0  0  0  0  0  0  0  0  0  0
   15.5877  -10.5898  -13.2512 C   0  0  1  0  0  0  0  0  0  0  0  0
   16.7184  -11.4432  -13.7000 C   0  0  0  0  0  0  0  0  0  0  0  0
   16.4659  -11.9123  -15.1153 C   0  0  0  0  0  0  0  0  0  0  0  0
   17.5895  -12.7378  -15.6805 C   0  0  0  0  0  0  0  0  0  0  0  0
   17.2853  -13.2328  -17.0802 C   0  0  0  0  0  0  0  0  0  0  0  0
   18.4026  -13.9755  -17.5878 N   0  0  0  0  0  0  0  0  0  0  0  0
   15.9785   -9.1649  -12.9584 C   0  0  0  0  0  0  0  0  0  0  0  0
   15.7758   -8.2754  -13.8242 O   0  0  0  0  0  0  0  0  0  0  0  0
   16.5680   -8.7958  -11.7317 N   0  0  0  0  0  0  0  0  0  0  0  0
   16.9786   -7.4967  -11.2938 C   0  0  1  0  0  0  0  0  0  0  0  0
   16.4847   -7.0778   -9.9266 C   0  0  0  0  0  0  0  0  0  0  0  0
   16.8008   -5.6216   -9.7221 C   0  0  0  0  0  0  0  0  0  0  0  0
   16.3459   -5.1652   -8.3662 C   0  0  0  0  0  0  0  0  0  0  0  0
   15.8851   -6.0175   -7.5839 O   0  0  0  0  0  0  0  0  0  0  0  0
   18.3592   -7.1847  -11.5946 C   0  0  0  0  0  0  0  0  0  0  0  0
   19.2513   -8.0244  -11.2286 O   0  0  0  0  0  0  0  0  0  0  0  0
   16.4523   -3.8425   -8.0402 O   0  0  0  0  0  0  0  0  0  0  0  0
   22.7131   -6.0339  -14.0464 N   0  0  0  0  0  0  0  0  0  0  0  0
   21.7622   -7.0520  -14.3344 C   0  0  0  0  0  0  0  0  0  0  0  0
   22.0992   -7.9175  -15.1776 O   0  0  0  0  0  0  0  0  0  0  0  0
   20.4533   -7.0881  -13.6785 C   0  0  0  0  0  0  0  0  0  0  0  0
   20.1998   -5.9547  -12.7219 C   0  0  2  0  0  0  0  0  0  0  0  0
   18.8267   -6.0340  -12.2587 N   0  0  0  0  0  0  0  0  0  0  0  0
   20.5381   -4.6372  -13.2652 C   0  0  0  0  0  0  0  0  0  0  0  0
   19.7203   -4.0167  -14.1917 O   0  0  0  0  0  0  0  0  0  0  0  0
   21.5752   -4.0260  -12.9133 O   0  0  0  0  0  0  0  0  0  0  0  0
  2  1  1  6
  3  2  1  0
  4  5  1  0
  4  3  1  0
  5  6  1  0
  7  6  1  0
  8  9  2  0
  8  2  1  0
 10  8  1  0
 11 10  1  0
 11 12  1  1
 12 13  1  0
 13 14  1  0
 14 18  1  0
 15 14  2  0
 16 17  2  0
 16 11  1  0
 19 20  1  0
 20 22  1  0
 21 20  2  0
 23 22  1  6
 23 24  1  0
 24 16  1  0
 25 23  1  0
 26 25  1  0
 27 25  2  0
M  END
$$$$
