KEN.pdb
     RDKit          3D

 27 26  0  0  1  0  0  0  0  0999 V2000
   16.7641  -22.6396  -11.4222 N   0  0  0  0  0  0  0  0  0  0  0  0
   18.0480  -22.1277  -11.0296 C   0  0  1  0  0  0  0  0  0  0  0  0
   18.6471  -22.7626   -9.8270 C   0  0  0  0  0  0  0  0  0  0  0  0
   17.9599  -24.0825   -9.5578 C   0  0  0  0  0  0  0  0  0  0  0  0
   18.5343  -24.8265   -8.3832 C   0  0  0  0  0  0  0  0  0  0  0  0
   17.8809  -26.1803   -8.1907 C   0  0  0  0  0  0  0  0  0  0  0  0
   18.4682  -26.8492   -7.0659 N   0  0  0  0  0  0  0  0  0  0  0  0
   18.9502  -22.1348  -12.2357 C   0  0  0  0  0  0  0  0  0  0  0  0
   19.7017  -23.1218  -12.4427 O   0  0  0  0  0  0  0  0  0  0  0  0
   18.9758  -21.0595  -13.1478 N   0  0  0  0  0  0  0  0  0  0  0  0
   19.7466  -20.9235  -14.3458 C   0  0  1  0  0  0  0  0  0  0  0  0
   18.9826  -20.4705  -15.5705 C   0  0  0  0  0  0  0  0  0  0  0  0
   18.6082  -21.6796  -16.3830 C   0  0  0  0  0  0  0  0  0  0  0  0
   17.9236  -21.2725  -17.6556 C   0  0  0  0  0  0  0  0  0  0  0  0
   17.7259  -20.0591  -17.8536 O   0  0  0  0  0  0  0  0  0  0  0  0
   21.0436  -20.3146  -14.1438 C   0  0  0  0  0  0  0  0  0  0  0  0
   21.4427  -20.1525  -12.9398 O   0  0  0  0  0  0  0  0  0  0  0  0
   17.5444  -22.2386  -18.5444 O   0  0  0  0  0  0  0  0  0  0  0  0
   26.0791  -20.6428  -14.4498 N   0  0  0  0  0  0  0  0  0  0  0  0
   25.0714  -21.5614  -14.0445 C   0  0  0  0  0  0  0  0  0  0  0  0
   25.4612  -22.6342  -13.5240 O   0  0  0  0  0  0  0  0  0  0  0  0
   23.6478  -21.2692  -14.2259 C   0  0  0  0  0  0  0  0  0  0  0  0
   23.3596  -20.0038  -14.9873 C   0  0  2  0  0  0  0  0  0  0  0  0
   21.9233  -19.8762  -15.1525 N   0  0  0  0  0  0  0  0  0  0  0  0
   24.0862  -19.8993  -16.2548 C   0  0  0  0  0  0  0  0  0  0  0  0
   25.0628  -18.9378  -16.4395 O   0  0  0  0  0  0  0  0  0  0  0  0
   23.8517  -20.6723  -17.2141 O   0  0  0  0  0  0  0  0  0  0  0  0
  2  1  1  6
  3  2  1  0
  4  5  1  0
  4  3  1  0
  5  6  1  0
  7  6  1  0
  8  9  2  0
  8  2  1  0
 10  8  1  0
 11 10  1  0
 11 12  1  6
 12 13  1  0
 13 14  1  0
 14 18  1  0
 15 14  2  0
 16 17  2  0
 16 11  1  0
 19 20  1  0
 20 22  1  0
 21 20  2  0
 23 22  1  6
 23 24  1  0
 24 16  1  0
 25 23  1  0
 26 25  1  0
 27 25  2  0
M  END
$$$$
