SSL.pdb
     RDKit          3D

 21 20  0  0  1  0  0  0  0  0999 V2000
   12.5276   -9.7013  -14.3707 O   0  0  0  0  0  0  0  0  0  0  0  0
   13.8784   -9.7737  -14.6084 C   0  0  0  0  0  0  0  0  0  0  0  0
   14.2343  -10.7102  -15.7446 C   0  0  2  0  0  0  0  0  0  0  0  0
   13.9945  -12.0885  -15.3630 N   0  0  0  0  0  0  0  0  0  0  0  0
   15.6381  -10.5835  -16.1755 C   0  0  0  0  0  0  0  0  0  0  0  0
   16.4721  -11.4370  -15.8068 O   0  0  0  0  0  0  0  0  0  0  0  0
   16.8346   -8.9892  -19.7711 O   0  0  0  0  0  0  0  0  0  0  0  0
   17.4836   -8.4738  -18.6537 C   0  0  0  0  0  0  0  0  0  0  0  0
   17.4366   -9.4074  -17.4869 C   0  0  2  0  0  0  0  0  0  0  0  0
   16.0677   -9.5210  -16.9958 N   0  0  0  0  0  0  0  0  0  0  0  0
   18.3661   -9.0861  -16.4033 C   0  0  0  0  0  0  0  0  0  0  0  0
   17.9192   -8.3871  -15.4427 O   0  0  0  0  0  0  0  0  0  0  0  0
   22.4171   -9.9412  -12.8454 C   0  0  0  0  0  0  0  0  0  0  0  0
   22.8412   -9.4256  -14.2284 C   0  0  1  0  0  0  0  0  0  0  0  0
   24.1726  -10.1327  -14.5057 C   0  0  0  0  0  0  0  0  0  0  0  0
   21.8794   -9.8971  -15.2811 C   0  0  0  0  0  0  0  0  0  0  0  0
   20.6250   -9.1230  -15.2492 C   0  0  2  0  0  0  0  0  0  0  0  0
   19.7035   -9.4764  -16.3238 N   0  0  0  0  0  0  0  0  0  0  0  0
   20.9082   -7.6798  -15.4477 C   0  0  0  0  0  0  0  0  0  0  0  0
   21.0650   -6.8360  -14.5319 O   0  0  0  0  0  0  0  0  0  0  0  0
   21.0307   -7.1091  -16.7381 O   0  0  0  0  0  0  0  0  0  0  0  0
  1  2  1  0
  2  3  1  0
  3  4  1  1
  3  5  1  0
  5  6  2  0
  7  8  1  0
  9  8  1  6
 10  5  1  0
 10  9  1  0
 11 18  1  0
 11  9  1  0
 12 11  2  0
 14 13  1  1
 14 15  1  0
 17 16  1  6
 16 14  1  0
 17 18  1  0
 19 21  1  0
 19 17  1  0
 20 19  2  0
M  END
$$$$
