SSL.pdb
     RDKit          3D

 21 20  0  0  1  0  0  0  0  0999 V2000
   32.9649  -38.4085   -8.5425 O   0  0  0  0  0  0  0  0  0  0  0  0
   33.0779  -37.7584   -7.3379 C   0  0  0  0  0  0  0  0  0  0  0  0
   33.2498  -36.2604   -7.4828 C   0  0  2  0  0  0  0  0  0  0  0  0
   34.5787  -35.9448   -7.9698 N   0  0  0  0  0  0  0  0  0  0  0  0
   33.0309  -35.5320   -6.2203 C   0  0  0  0  0  0  0  0  0  0  0  0
   34.0125  -35.2234   -5.5124 O   0  0  0  0  0  0  0  0  0  0  0  0
   29.1331  -34.9288   -4.6423 O   0  0  0  0  0  0  0  0  0  0  0  0
   30.1048  -33.9441   -4.4948 C   0  0  0  0  0  0  0  0  0  0  0  0
   31.4908  -34.5042   -4.5147 C   0  0  2  0  0  0  0  0  0  0  0  0
   31.7388  -35.1723   -5.7876 N   0  0  0  0  0  0  0  0  0  0  0  0
   31.8201  -35.3730   -3.3843 C   0  0  0  0  0  0  0  0  0  0  0  0
   31.6827  -36.6235   -3.5533 O   0  0  0  0  0  0  0  0  0  0  0  0
   36.2243  -35.0146   -0.2299 C   0  0  0  0  0  0  0  0  0  0  0  0
   35.0201  -35.5100   -1.0441 C   0  0  1  0  0  0  0  0  0  0  0  0
   35.2832  -37.0075   -1.2389 C   0  0  0  0  0  0  0  0  0  0  0  0
   33.7593  -35.3991   -0.2356 C   0  0  0  0  0  0  0  0  0  0  0  0
   32.5834  -35.8368   -1.0097 C   0  0  2  0  0  0  0  0  0  0  0  0
   32.2734  -34.9571   -2.1317 N   0  0  0  0  0  0  0  0  0  0  0  0
   31.3694  -35.8104   -0.1565 C   0  0  0  0  0  0  0  0  0  0  0  0
   31.2083  -36.4671    0.9009 O   0  0  0  0  0  0  0  0  0  0  0  0
   30.2450  -35.0104   -0.4751 O   0  0  0  0  0  0  0  0  0  0  0  0
  1  2  1  0
  2  3  1  0
  3  4  1  1
  3  5  1  0
  5  6  2  0
  7  8  1  0
  9  8  1  1
 10  5  1  0
 10  9  1  0
 11 18  1  0
 11  9  1  0
 12 11  2  0
 14 13  1  1
 14 15  1  0
 17 16  1  1
 16 14  1  0
 17 18  1  0
 19 21  1  0
 19 17  1  0
 20 19  2  0
M  END
$$$$
