SSL.pdb
     RDKit          3D

 21 20  0  0  1  0  0  0  0  0999 V2000
   19.5482  -12.2116  -19.4270 O   0  0  0  0  0  0  0  0  0  0  0  0
   19.0820  -11.2171  -18.6023 C   0  0  0  0  0  0  0  0  0  0  0  0
   19.4528  -11.4257  -17.1485 C   0  0  2  0  0  0  0  0  0  0  0  0
   18.7598  -12.5782  -16.6061 N   0  0  0  0  0  0  0  0  0  0  0  0
   19.1460  -10.2573  -16.3039 C   0  0  0  0  0  0  0  0  0  0  0  0
   17.9952  -10.1234  -15.8373 O   0  0  0  0  0  0  0  0  0  0  0  0
   22.1054   -8.0807  -14.4060 O   0  0  0  0  0  0  0  0  0  0  0  0
   20.7694   -8.0689  -14.0180 C   0  0  0  0  0  0  0  0  0  0  0  0
   19.8369   -8.1102  -15.1858 C   0  0  2  0  0  0  0  0  0  0  0  0
   20.1196   -9.2826  -16.0066 N   0  0  0  0  0  0  0  0  0  0  0  0
   19.8063   -6.8900  -15.9929 C   0  0  0  0  0  0  0  0  0  0  0  0
   20.6705   -6.7825  -16.9162 O   0  0  0  0  0  0  0  0  0  0  0  0
   15.9582   -4.9425  -18.9563 C   0  0  0  0  0  0  0  0  0  0  0  0
   17.3698   -5.1901  -18.4045 C   0  0  1  0  0  0  0  0  0  0  0  0
   18.3031   -4.7606  -19.5420 C   0  0  0  0  0  0  0  0  0  0  0  0
   17.6504   -4.2704  -17.2508 C   0  0  0  0  0  0  0  0  0  0  0  0
   18.9408   -4.5871  -16.6119 C   0  0  2  0  0  0  0  0  0  0  0  0
   18.9136   -5.8277  -15.8446 N   0  0  0  0  0  0  0  0  0  0  0  0
   19.2962   -3.5358  -15.6264 C   0  0  0  0  0  0  0  0  0  0  0  0
   19.6253   -2.3573  -15.9058 O   0  0  0  0  0  0  0  0  0  0  0  0
   19.2943   -3.7825  -14.2318 O   0  0  0  0  0  0  0  0  0  0  0  0
  1  2  1  0
  2  3  1  0
  3  4  1  1
  3  5  1  0
  5  6  2  0
  7  8  1  0
  9  8  1  1
 10  5  1  0
 10  9  1  0
 11 18  1  0
 11  9  1  0
 12 11  2  0
 14 13  1  6
 14 15  1  0
 17 16  1  1
 16 14  1  0
 17 18  1  0
 19 21  1  0
 19 17  1  0
 20 19  2  0
M  END
$$$$
