SSL.pdb
     RDKit          3D

 21 20  0  0  1  0  0  0  0  0999 V2000
   27.4939  -32.9481  -13.3024 O   0  0  0  0  0  0  0  0  0  0  0  0
   26.8177  -33.4112  -12.2003 C   0  0  0  0  0  0  0  0  0  0  0  0
   26.9170  -34.9128  -12.0276 C   0  0  2  0  0  0  0  0  0  0  0  0
   25.9611  -35.5884  -12.8836 N   0  0  0  0  0  0  0  0  0  0  0  0
   26.6874  -35.3479  -10.6382 C   0  0  0  0  0  0  0  0  0  0  0  0
   25.5175  -35.5102  -10.2320 O   0  0  0  0  0  0  0  0  0  0  0  0
   28.5497  -37.1066   -6.5133 O   0  0  0  0  0  0  0  0  0  0  0  0
   28.6654  -36.7973   -7.8647 C   0  0  0  0  0  0  0  0  0  0  0  0
   27.5546  -35.9194   -8.3450 C   0  0  2  0  0  0  0  0  0  0  0  0
   27.7561  -35.5871   -9.7511 N   0  0  0  0  0  0  0  0  0  0  0  0
   27.3278  -34.7179   -7.5412 C   0  0  0  0  0  0  0  0  0  0  0  0
   28.1420  -33.7559   -7.6919 O   0  0  0  0  0  0  0  0  0  0  0  0
   22.4547  -32.6786   -6.7057 C   0  0  0  0  0  0  0  0  0  0  0  0
   23.9535  -32.9236   -6.9334 C   0  0  1  0  0  0  0  0  0  0  0  0
   24.4415  -31.6576   -7.6466 C   0  0  0  0  0  0  0  0  0  0  0  0
   24.6805  -32.9820   -5.6205 C   0  0  0  0  0  0  0  0  0  0  0  0
   26.1007  -33.3314   -5.8070 C   0  0  2  0  0  0  0  0  0  0  0  0
   26.2970  -34.5267   -6.6201 N   0  0  0  0  0  0  0  0  0  0  0  0
   26.7255  -33.6516   -4.4994 C   0  0  0  0  0  0  0  0  0  0  0  0
   27.0190  -34.8031   -4.0954 O   0  0  0  0  0  0  0  0  0  0  0  0
   27.0569  -32.6458   -3.5591 O   0  0  0  0  0  0  0  0  0  0  0  0
  1  2  1  0
  2  3  1  0
  3  4  1  6
  3  5  1  0
  5  6  2  0
  7  8  1  0
  9  8  1  1
 10  5  1  0
 10  9  1  0
 11 18  1  0
 11  9  1  0
 12 11  2  0
 14 13  1  1
 14 15  1  0
 17 16  1  1
 16 14  1  0
 17 18  1  0
 19 21  1  0
 19 17  1  0
 20 19  2  0
M  END
$$$$
