SSL.pdb
     RDKit          3D

 21 20  0  0  1  0  0  0  0  0999 V2000
   16.1270  -12.9832  -14.4141 O   0  0  0  0  0  0  0  0  0  0  0  0
   16.8790  -12.0259  -15.0501 C   0  0  0  0  0  0  0  0  0  0  0  0
   16.0421  -10.9316  -15.6798 C   0  0  2  0  0  0  0  0  0  0  0  0
   15.3213  -11.4399  -16.8308 N   0  0  0  0  0  0  0  0  0  0  0  0
   16.8423   -9.7699  -16.1069 C   0  0  0  0  0  0  0  0  0  0  0  0
   17.3272   -9.7490  -17.2578 O   0  0  0  0  0  0  0  0  0  0  0  0
   17.7447   -5.1707  -16.0699 O   0  0  0  0  0  0  0  0  0  0  0  0
   17.0127   -6.3231  -15.8024 C   0  0  0  0  0  0  0  0  0  0  0  0
   17.8847   -7.5266  -15.6395 C   0  0  2  0  0  0  0  0  0  0  0  0
   17.0768   -8.6767  -15.2488 N   0  0  0  0  0  0  0  0  0  0  0  0
   19.0231   -7.3447  -14.7383 C   0  0  0  0  0  0  0  0  0  0  0  0
   18.8059   -7.4748  -13.4945 O   0  0  0  0  0  0  0  0  0  0  0  0
   23.7724   -9.7643  -14.9862 C   0  0  0  0  0  0  0  0  0  0  0  0
   22.4928   -9.0442  -14.5364 C   0  0  1  0  0  0  0  0  0  0  0  0
   22.3662   -9.3884  -13.0481 C   0  0  0  0  0  0  0  0  0  0  0  0
   22.6732   -7.5554  -14.6171 C   0  0  0  0  0  0  0  0  0  0  0  0
   21.4514   -6.8421  -14.2027 C   0  0  2  0  0  0  0  0  0  0  0  0
   20.3314   -7.0406  -15.1166 N   0  0  0  0  0  0  0  0  0  0  0  0
   21.6887   -5.3771  -14.2016 C   0  0  0  0  0  0  0  0  0  0  0  0
   22.4844   -4.7690  -13.4449 O   0  0  0  0  0  0  0  0  0  0  0  0
   21.0111   -4.5059  -15.0891 O   0  0  0  0  0  0  0  0  0  0  0  0
  1  2  1  0
  2  3  1  0
  3  4  1  6
  3  5  1  0
  5  6  2  0
  7  8  1  0
  9  8  1  1
 10  5  1  0
 10  9  1  0
 11 18  1  0
 11  9  1  0
 12 11  2  0
 14 13  1  1
 14 15  1  0
 17 16  1  6
 16 14  1  0
 17 18  1  0
 19 21  1  0
 19 17  1  0
 20 19  2  0
M  END
$$$$
