SSL.pdb
     RDKit          3D

 21 20  0  0  1  0  0  0  0  0999 V2000
   15.6749  -12.4785  -14.8228 O   0  0  0  0  0  0  0  0  0  0  0  0
   15.0265  -12.0932  -15.9706 C   0  0  0  0  0  0  0  0  0  0  0  0
   15.8326  -12.3532  -17.2265 C   0  0  2  0  0  0  0  0  0  0  0  0
   16.1694  -13.7596  -17.3338 N   0  0  0  0  0  0  0  0  0  0  0  0
   17.0800  -11.5699  -17.2812 C   0  0  0  0  0  0  0  0  0  0  0  0
   18.1771  -12.1657  -17.3174 O   0  0  0  0  0  0  0  0  0  0  0  0
   17.0475   -7.2968  -17.6412 O   0  0  0  0  0  0  0  0  0  0  0  0
   17.8892   -8.1463  -18.3522 C   0  0  0  0  0  0  0  0  0  0  0  0
   18.2605   -9.3653  -17.5704 C   0  0  2  0  0  0  0  0  0  0  0  0
   17.0692  -10.1606  -17.2940 N   0  0  0  0  0  0  0  0  0  0  0  0
   19.0222   -9.1049  -16.3484 C   0  0  0  0  0  0  0  0  0  0  0  0
   18.3837   -9.1200  -15.2515 O   0  0  0  0  0  0  0  0  0  0  0  0
   24.2172  -10.6302  -15.1809 C   0  0  0  0  0  0  0  0  0  0  0  0
   22.7240  -10.2797  -15.1047 C   0  0  1  0  0  0  0  0  0  0  0  0
   22.2843  -10.7872  -13.7268 C   0  0  0  0  0  0  0  0  0  0  0  0
   22.5354   -8.7897  -15.0917 C   0  0  0  0  0  0  0  0  0  0  0  0
   21.1062   -8.4285  -15.0697 C   0  0  2  0  0  0  0  0  0  0  0  0
   20.3902   -8.8402  -16.2724 N   0  0  0  0  0  0  0  0  0  0  0  0
   20.9513   -6.9534  -15.0187 C   0  0  0  0  0  0  0  0  0  0  0  0
   20.5585   -6.2294  -15.9658 O   0  0  0  0  0  0  0  0  0  0  0  0
   21.2450   -6.2074  -13.8513 O   0  0  0  0  0  0  0  0  0  0  0  0
  1  2  1  0
  2  3  1  0
  3  4  1  1
  3  5  1  0
  5  6  2  0
  7  8  1  0
  9  8  1  1
 10  5  1  0
 10  9  1  0
 11 18  1  0
 11  9  1  0
 12 11  2  0
 14 13  1  1
 14 15  1  0
 17 16  1  6
 16 14  1  0
 17 18  1  0
 19 21  1  0
 19 17  1  0
 20 19  2  0
M  END
$$$$
