CML.pdb
     RDKit          3D

 23 22  0  0  1  0  0  0  0  0999 V2000
   28.0253  -21.4874  -16.2502 N   0  0  0  0  0  0  0  0  0  0  0  0
   27.9001  -20.4435  -15.2624 C   0  0  1  0  0  0  0  0  0  0  0  0
   27.5708  -19.1171  -15.8710 C   0  0  0  0  0  0  0  0  0  0  0  0
   26.0430  -19.2078  -16.8507 S   0  0  0  0  0  0  0  0  0  0  0  0
   26.8360  -20.8149  -14.2816 C   0  0  0  0  0  0  0  0  0  0  0  0
   25.9710  -21.6865  -14.5889 O   0  0  0  0  0  0  0  0  0  0  0  0
   26.7005  -20.6704   -7.6555 C   0  0  0  0  0  0  0  0  0  0  0  0
   25.5040  -21.6388   -8.5988 S   0  0  0  0  0  0  0  0  0  0  0  0
   24.7257  -20.6041   -9.8716 C   0  0  0  0  0  0  0  0  0  0  0  0
   25.7834  -19.9857  -10.7553 C   0  0  0  0  0  0  0  0  0  0  0  0
   25.6931  -20.6088  -12.1093 C   0  0  2  0  0  0  0  0  0  0  0  0
   26.7512  -20.2222  -12.9980 N   0  0  0  0  0  0  0  0  0  0  0  0
   24.3811  -20.3246  -12.7631 C   0  0  0  0  0  0  0  0  0  0  0  0
   24.2811  -19.2526  -13.4100 O   0  0  0  0  0  0  0  0  0  0  0  0
   20.1958  -22.1991  -16.3734 C   0  0  0  0  0  0  0  0  0  0  0  0
   20.8126  -21.1252  -15.5880 C   0  0  2  0  0  0  0  0  0  0  0  0
   21.3130  -20.0630  -16.6046 C   0  0  0  0  0  0  0  0  0  0  0  0
   21.9136  -21.3480  -14.6661 C   0  0  0  0  0  0  0  0  0  0  0  0
   22.0097  -20.7825  -13.3258 C   0  0  2  0  0  0  0  0  0  0  0  0
   23.2862  -21.1891  -12.6825 N   0  0  0  0  0  0  0  0  0  0  0  0
   20.9399  -21.0174  -12.3710 C   0  0  0  0  0  0  0  0  0  0  0  0
   20.9816  -22.0054  -11.5310 O   0  0  0  0  0  0  0  0  0  0  0  0
   19.8341  -20.1877  -12.3179 O   0  0  0  0  0  0  0  0  0  0  0  0
  2  1  1  6
  2  3  1  0
  2  5  1  0
  4  3  1  0
  5  6  2  0
  5 12  1  0
  7  8  1  0
  9 10  1  0
  9  8  1  0
 11 10  1  1
 11 13  1  0
 12 11  1  0
 13 20  1  0
 13 14  2  0
 16 17  1  6
 16 15  1  0
 16 18  1  0
 19 18  1  6
 19 21  1  0
 20 19  1  0
 21 23  1  0
 22 21  2  0
M  END
$$$$
