CML.pdb
     RDKit          3D

 23 22  0  0  1  0  0  0  0  0999 V2000
   21.0680  -13.2131  -19.8396 N   0  0  0  0  0  0  0  0  0  0  0  0
   21.4812  -12.0323  -20.5579 C   0  0  1  0  0  0  0  0  0  0  0  0
   20.3624  -11.4162  -21.3369 C   0  0  0  0  0  0  0  0  0  0  0  0
   20.2118  -12.1781  -22.9799 S   0  0  0  0  0  0  0  0  0  0  0  0
   22.0217  -11.0289  -19.5919 C   0  0  0  0  0  0  0  0  0  0  0  0
   21.5216  -10.9358  -18.4328 O   0  0  0  0  0  0  0  0  0  0  0  0
   28.2575   -8.5424  -18.0813 C   0  0  0  0  0  0  0  0  0  0  0  0
   27.6501   -9.6553  -19.3665 S   0  0  0  0  0  0  0  0  0  0  0  0
   25.9189  -10.0976  -19.0445 C   0  0  0  0  0  0  0  0  0  0  0  0
   25.0398   -8.8752  -19.1682 C   0  0  0  0  0  0  0  0  0  0  0  0
   23.6245   -9.2826  -18.9217 C   0  0  2  0  0  0  0  0  0  0  0  0
   23.0901  -10.1601  -19.9233 N   0  0  0  0  0  0  0  0  0  0  0  0
   22.7242   -8.0996  -18.7815 C   0  0  0  0  0  0  0  0  0  0  0  0
   22.2294   -7.6256  -19.8342 O   0  0  0  0  0  0  0  0  0  0  0  0
   17.6637   -6.3939  -18.1858 C   0  0  0  0  0  0  0  0  0  0  0  0
   19.0324   -5.8683  -18.1502 C   0  0  2  0  0  0  0  0  0  0  0  0
   19.1926   -4.9624  -19.4015 C   0  0  0  0  0  0  0  0  0  0  0  0
   20.2092   -6.7203  -18.1185 C   0  0  0  0  0  0  0  0  0  0  0  0
   21.4887   -6.3573  -17.5217 C   0  0  2  0  0  0  0  0  0  0  0  0
   22.4201   -7.5150  -17.5493 N   0  0  0  0  0  0  0  0  0  0  0  0
   21.5206   -5.7972  -16.1812 C   0  0  0  0  0  0  0  0  0  0  0  0
   22.0229   -6.4531  -15.1809 O   0  0  0  0  0  0  0  0  0  0  0  0
   21.0192   -4.5340  -15.9221 O   0  0  0  0  0  0  0  0  0  0  0  0
  2  1  1  1
  2  3  1  0
  2  5  1  0
  4  3  1  0
  5  6  2  0
  5 12  1  0
  7  8  1  0
  9 10  1  0
  9  8  1  0
 11 10  1  6
 11 13  1  0
 12 11  1  0
 13 20  1  0
 13 14  2  0
 16 17  1  6
 16 15  1  0
 16 18  1  0
 19 18  1  1
 19 21  1  0
 20 19  1  0
 21 23  1  0
 22 21  2  0
M  END
$$$$
