CML.pdb
     RDKit          3D

 23 22  0  0  1  0  0  0  0  0999 V2000
   18.8285  -12.9677  -16.6765 N   0  0  0  0  0  0  0  0  0  0  0  0
   19.2142  -11.7416  -17.3315 C   0  0  1  0  0  0  0  0  0  0  0  0
   18.0374  -10.8908  -17.6911 C   0  0  0  0  0  0  0  0  0  0  0  0
   16.9873  -11.7138  -18.9249 S   0  0  0  0  0  0  0  0  0  0  0  0
   20.1279  -10.9686  -16.4371 C   0  0  0  0  0  0  0  0  0  0  0  0
   19.7757  -10.7062  -15.2500 O   0  0  0  0  0  0  0  0  0  0  0  0
   26.8328  -10.1331  -16.5185 C   0  0  0  0  0  0  0  0  0  0  0  0
   26.1536  -10.1051  -14.8460 S   0  0  0  0  0  0  0  0  0  0  0  0
   24.4259   -9.5483  -14.8814 C   0  0  0  0  0  0  0  0  0  0  0  0
   23.6521  -10.3250  -15.9208 C   0  0  0  0  0  0  0  0  0  0  0  0
   22.2484   -9.8160  -15.9445 C   0  0  2  0  0  0  0  0  0  0  0  0
   21.3957  -10.5074  -16.8685 N   0  0  0  0  0  0  0  0  0  0  0  0
   22.1949   -8.3524  -16.2355 C   0  0  0  0  0  0  0  0  0  0  0  0
   22.4078   -7.9936  -17.4203 O   0  0  0  0  0  0  0  0  0  0  0  0
   20.3673   -3.0432  -15.9512 C   0  0  0  0  0  0  0  0  0  0  0  0
   20.2955   -4.2747  -16.7444 C   0  0  2  0  0  0  0  0  0  0  0  0
   18.8368   -4.3818  -17.2668 C   0  0  0  0  0  0  0  0  0  0  0  0
   20.6266   -5.5843  -16.2085 C   0  0  0  0  0  0  0  0  0  0  0  0
   21.9217   -5.9575  -15.6530 C   0  0  2  0  0  0  0  0  0  0  0  0
   21.9227   -7.3906  -15.2592 N   0  0  0  0  0  0  0  0  0  0  0  0
   22.4726   -5.1951  -14.5454 C   0  0  0  0  0  0  0  0  0  0  0  0
   22.4418   -5.6433  -13.3282 O   0  0  0  0  0  0  0  0  0  0  0  0
   23.0592   -3.9590  -14.7500 O   0  0  0  0  0  0  0  0  0  0  0  0
  2  1  1  1
  2  3  1  0
  2  5  1  0
  4  3  1  0
  5  6  2  0
  5 12  1  0
  7  8  1  0
  9 10  1  0
  9  8  1  0
 11 10  1  6
 11 13  1  0
 12 11  1  0
 13 20  1  0
 13 14  2  0
 16 17  1  1
 16 15  1  0
 16 18  1  0
 19 18  1  1
 19 21  1  0
 20 19  1  0
 21 23  1  0
 22 21  2  0
M  END
$$$$
