CML.pdb
     RDKit          3D

 23 22  0  0  1  0  0  0  0  0999 V2000
   23.1850  -12.5737  -16.7080 N   0  0  0  0  0  0  0  0  0  0  0  0
   23.1746  -11.5731  -15.6689 C   0  0  1  0  0  0  0  0  0  0  0  0
   24.4133  -10.7341  -15.6706 C   0  0  0  0  0  0  0  0  0  0  0  0
   25.8264  -11.6522  -14.9903 S   0  0  0  0  0  0  0  0  0  0  0  0
   21.9807  -10.6917  -15.8422 C   0  0  0  0  0  0  0  0  0  0  0  0
   21.6487  -10.2991  -16.9989 O   0  0  0  0  0  0  0  0  0  0  0  0
   14.9521   -9.1910  -15.3308 C   0  0  0  0  0  0  0  0  0  0  0  0
   16.4103  -10.0683  -14.7281 S   0  0  0  0  0  0  0  0  0  0  0  0
   17.7305   -8.8877  -14.3290 C   0  0  0  0  0  0  0  0  0  0  0  0
   18.9760   -9.6278  -13.9009 C   0  0  0  0  0  0  0  0  0  0  0  0
   19.9920   -9.5146  -14.9894 C   0  0  2  0  0  0  0  0  0  0  0  0
   21.1890  -10.2678  -14.7469 N   0  0  0  0  0  0  0  0  0  0  0  0
   20.3588   -8.0924  -15.2587 C   0  0  0  0  0  0  0  0  0  0  0  0
   21.3193   -7.6129  -14.6067 O   0  0  0  0  0  0  0  0  0  0  0  0
   19.9418   -2.9756  -17.9405 C   0  0  0  0  0  0  0  0  0  0  0  0
   20.5978   -4.2406  -18.2872 C   0  0  2  0  0  0  0  0  0  0  0  0
   20.5366   -4.3629  -19.8342 C   0  0  0  0  0  0  0  0  0  0  0  0
   20.1673   -5.5268  -17.7657 C   0  0  0  0  0  0  0  0  0  0  0  0
   20.1125   -5.8805  -16.3525 C   0  0  2  0  0  0  0  0  0  0  0  0
   19.6868   -7.2949  -16.1888 N   0  0  0  0  0  0  0  0  0  0  0  0
   19.3187   -5.0726  -15.4423 C   0  0  0  0  0  0  0  0  0  0  0  0
   18.0772   -5.3522  -15.1896 O   0  0  0  0  0  0  0  0  0  0  0  0
   19.8625   -3.9727  -14.8029 O   0  0  0  0  0  0  0  0  0  0  0  0
  2  1  1  6
  2  3  1  0
  2  5  1  0
  4  3  1  0
  5  6  2  0
  5 12  1  0
  7  8  1  0
  9 10  1  0
  9  8  1  0
 11 10  1  1
 11 13  1  0
 12 11  1  0
 13 20  1  0
 13 14  2  0
 16 17  1  6
 16 15  1  0
 16 18  1  0
 19 18  1  6
 19 21  1  0
 20 19  1  0
 21 23  1  0
 22 21  2  0
M  END
$$$$
