KYT.pdb
     RDKit          3D

 29 29  0  0  1  0  0  0  0  0999 V2000
   10.9836  -16.9813   19.4674 N   0  0  0  0  0  0  0  0  0  0  0  0
    9.6732  -16.7933   19.9827 C   0  0  1  0  0  0  0  0  0  0  0  0
    8.9676  -18.1607   20.0651 C   0  0  0  0  0  0  0  0  0  0  0  0
    8.8033  -18.6299   18.6637 C   0  0  0  0  0  0  0  0  0  0  0  0
    7.4989  -18.3651   18.0093 C   0  0  0  0  0  0  0  0  0  0  0  0
    7.3739  -18.9215   16.6250 C   0  0  0  0  0  0  0  0  0  0  0  0
    6.1449  -18.6552   15.9555 N   0  0  0  0  0  0  0  0  0  0  0  0
    9.6134  -16.2086   21.3446 C   0  0  0  0  0  0  0  0  0  0  0  0
   10.5848  -16.3760   22.1528 O   0  0  0  0  0  0  0  0  0  0  0  0
    6.9588  -11.8633   28.6795 O   0  0  0  0  0  0  0  0  0  0  0  0
    7.1176  -12.3519   27.3773 C   0  0  0  0  0  0  0  0  0  0  0  0
    8.2080  -12.0141   26.6039 C   0  0  0  0  0  0  0  0  0  0  0  0
    8.2993  -12.5294   25.3369 C   0  0  0  0  0  0  0  0  0  0  0  0
    7.3554  -13.3715   24.7904 C   0  0  0  0  0  0  0  0  0  0  0  0
    7.4470  -13.9255   23.4283 C   0  0  0  0  0  0  0  0  0  0  0  0
    8.5243  -14.9314   23.2231 C   0  0  2  0  0  0  0  0  0  0  0  0
    8.5334  -15.4482   21.8580 N   0  0  0  0  0  0  0  0  0  0  0  0
    8.4213  -16.0263   24.2073 C   0  0  0  0  0  0  0  0  0  0  0  0
    7.3606  -16.6847   24.2827 O   0  0  0  0  0  0  0  0  0  0  0  0
    6.2776  -13.6872   25.5954 C   0  0  0  0  0  0  0  0  0  0  0  0
    6.1442  -13.1927   26.8752 C   0  0  0  0  0  0  0  0  0  0  0  0
    9.5077  -19.2402   24.3281 C   0  0  0  0  0  0  0  0  0  0  0  0
   10.1488  -18.6421   25.5443 C   0  0  1  0  0  0  0  0  0  0  0  0
   11.4867  -18.3270   25.2786 O   0  0  0  0  0  0  0  0  0  0  0  0
    9.3920  -17.4171   26.0059 C   0  0  2  0  0  0  0  0  0  0  0  0
    9.5128  -16.3301   25.0596 N   0  0  0  0  0  0  0  0  0  0  0  0
    9.8746  -16.9549   27.3328 C   0  0  0  0  0  0  0  0  0  0  0  0
    9.7706  -17.8055   28.4198 O   0  0  0  0  0  0  0  0  0  0  0  0
   10.3691  -15.8160   27.4766 O   0  0  0  0  0  0  0  0  0  0  0  0
  2  1  1  1
  2  3  1  0
  4  3  1  0
  4  5  1  0
  6  5  1  0
  6  7  1  0
  8  2  1  0
  9  8  2  0
 10 11  1  0
 11 12  2  0
 12 13  1  0
 14 15  1  0
 14 13  2  0
 16 15  1  6
 16 17  1  0
 17  8  1  0
 18 16  1  0
 18 19  2  0
 20 14  1  0
 21 20  2  0
 21 11  1  0
 23 22  1  6
 23 25  1  0
 24 23  1  0
 25 26  1  6
 25 27  1  0
 26 18  1  0
 27 28  1  0
 29 27  2  0
M  END
$$$$
