KYT.pdb
     RDKit          3D

 29 29  0  0  1  0  0  0  0  0999 V2000
    8.1177  -12.5805   19.5892 N   0  0  0  0  0  0  0  0  0  0  0  0
    8.0529  -13.9557   19.9394 C   0  0  1  0  0  0  0  0  0  0  0  0
    8.9243  -14.7630   18.9579 C   0  0  0  0  0  0  0  0  0  0  0  0
    8.0593  -15.0693   17.7878 C   0  0  0  0  0  0  0  0  0  0  0  0
    8.1857  -16.4193   17.1869 C   0  0  0  0  0  0  0  0  0  0  0  0
    7.1949  -16.7126   16.1036 C   0  0  0  0  0  0  0  0  0  0  0  0
    7.2754  -18.0100   15.5207 N   0  0  0  0  0  0  0  0  0  0  0  0
    8.5457  -14.2795   21.3005 C   0  0  0  0  0  0  0  0  0  0  0  0
    9.7326  -13.9624   21.6403 O   0  0  0  0  0  0  0  0  0  0  0  0
    6.1969  -10.0521   26.7983 O   0  0  0  0  0  0  0  0  0  0  0  0
    6.4235  -11.3251   26.2618 C   0  0  0  0  0  0  0  0  0  0  0  0
    5.4133  -12.0527   25.6690 C   0  0  0  0  0  0  0  0  0  0  0  0
    5.7064  -13.2931   25.1644 C   0  0  0  0  0  0  0  0  0  0  0  0
    6.9629  -13.8563   25.2176 C   0  0  0  0  0  0  0  0  0  0  0  0
    7.2826  -15.1902   24.6798 C   0  0  0  0  0  0  0  0  0  0  0  0
    8.3370  -15.2155   23.6300 C   0  0  2  0  0  0  0  0  0  0  0  0
    7.7922  -14.9366   22.3048 N   0  0  0  0  0  0  0  0  0  0  0  0
    9.0706  -16.4959   23.6466 C   0  0  0  0  0  0  0  0  0  0  0  0
    8.4438  -17.5636   23.4691 O   0  0  0  0  0  0  0  0  0  0  0  0
    7.9488  -13.0975   25.8188 C   0  0  0  0  0  0  0  0  0  0  0  0
    7.7000  -11.8457   26.3398 C   0  0  0  0  0  0  0  0  0  0  0  0
   12.1451  -17.3868   21.6111 C   0  0  0  0  0  0  0  0  0  0  0  0
   12.4430  -17.7133   23.0438 C   0  0  1  0  0  0  0  0  0  0  0  0
   13.3226  -16.7662   23.5814 O   0  0  0  0  0  0  0  0  0  0  0  0
   11.1702  -17.7838   23.8570 C   0  0  2  0  0  0  0  0  0  0  0  0
   10.4718  -16.5174   23.8615 N   0  0  0  0  0  0  0  0  0  0  0  0
   11.4499  -18.1834   25.2604 C   0  0  0  0  0  0  0  0  0  0  0  0
   12.1017  -19.3805   25.5016 O   0  0  0  0  0  0  0  0  0  0  0  0
   11.1059  -17.4562   26.2171 O   0  0  0  0  0  0  0  0  0  0  0  0
  2  1  1  6
  2  3  1  0
  4  3  1  0
  4  5  1  0
  6  5  1  0
  6  7  1  0
  8  2  1  0
  9  8  2  0
 10 11  1  0
 11 12  2  0
 12 13  1  0
 14 15  1  0
 14 13  2  0
 16 15  1  1
 16 17  1  0
 17  8  1  0
 18 16  1  0
 18 19  2  0
 20 14  1  0
 21 20  2  0
 21 11  1  0
 23 22  1  6
 23 25  1  0
 24 23  1  0
 25 26  1  1
 25 27  1  0
 26 18  1  0
 27 28  1  0
 29 27  2  0
M  END
$$$$
