KYT.pdb
     RDKit          3D

 29 29  0  0  1  0  0  0  0  0999 V2000
    9.7794  -13.0906   18.7455 N   0  0  0  0  0  0  0  0  0  0  0  0
    8.6950  -13.6631   19.4627 C   0  0  1  0  0  0  0  0  0  0  0  0
    8.4006  -15.0631   18.8901 C   0  0  0  0  0  0  0  0  0  0  0  0
    8.2087  -14.8827   17.4266 C   0  0  0  0  0  0  0  0  0  0  0  0
    7.8409  -16.0841   16.6386 C   0  0  0  0  0  0  0  0  0  0  0  0
    7.7177  -15.8473   15.1655 C   0  0  0  0  0  0  0  0  0  0  0  0
    7.4340  -16.9958   14.3717 N   0  0  0  0  0  0  0  0  0  0  0  0
    8.9319  -13.8463   20.9155 C   0  0  0  0  0  0  0  0  0  0  0  0
   10.0639  -14.2620   21.3288 O   0  0  0  0  0  0  0  0  0  0  0  0
    7.9292  -13.8834   29.8053 O   0  0  0  0  0  0  0  0  0  0  0  0
    7.8326  -13.6864   28.4227 C   0  0  0  0  0  0  0  0  0  0  0  0
    8.9163  -13.8596   27.5880 C   0  0  0  0  0  0  0  0  0  0  0  0
    8.7499  -13.6495   26.2436 C   0  0  0  0  0  0  0  0  0  0  0  0
    7.5517  -13.2724   25.6772 C   0  0  0  0  0  0  0  0  0  0  0  0
    7.3681  -13.0422   24.2336 C   0  0  0  0  0  0  0  0  0  0  0  0
    8.2700  -13.8254   23.3460 C   0  0  2  0  0  0  0  0  0  0  0  0
    7.9801  -13.5933   21.9344 N   0  0  0  0  0  0  0  0  0  0  0  0
    8.2163  -15.2636   23.6722 C   0  0  0  0  0  0  0  0  0  0  0  0
    7.2547  -15.9497   23.2613 O   0  0  0  0  0  0  0  0  0  0  0  0
    6.4890  -13.1089   26.5452 C   0  0  0  0  0  0  0  0  0  0  0  0
    6.6100  -13.3091   27.9037 C   0  0  0  0  0  0  0  0  0  0  0  0
    8.4547  -17.6448   22.2770 C   0  0  0  0  0  0  0  0  0  0  0  0
    9.5186  -17.9943   23.2740 C   0  0  1  0  0  0  0  0  0  0  0  0
   10.7808  -17.6594   22.7696 O   0  0  0  0  0  0  0  0  0  0  0  0
    9.2689  -17.3015   24.5946 C   0  0  2  0  0  0  0  0  0  0  0  0
    9.2436  -15.8634   24.4436 N   0  0  0  0  0  0  0  0  0  0  0  0
   10.3061  -17.6615   25.5955 C   0  0  0  0  0  0  0  0  0  0  0  0
   11.1373  -16.6706   26.0887 O   0  0  0  0  0  0  0  0  0  0  0  0
   10.4349  -18.8394   25.9932 O   0  0  0  0  0  0  0  0  0  0  0  0
  2  1  1  6
  2  3  1  0
  4  3  1  0
  4  5  1  0
  6  5  1  0
  6  7  1  0
  8  2  1  0
  9  8  2  0
 10 11  1  0
 11 12  2  0
 12 13  1  0
 14 15  1  0
 14 13  2  0
 16 15  1  1
 16 17  1  0
 17  8  1  0
 18 16  1  0
 18 19  2  0
 20 14  1  0
 21 20  2  0
 21 11  1  0
 23 22  1  6
 23 25  1  0
 24 23  1  0
 25 26  1  6
 25 27  1  0
 26 18  1  0
 27 28  1  0
 29 27  2  0
M  END
$$$$
