KYT.pdb
     RDKit          3D

 29 29  0  0  1  0  0  0  0  0999 V2000
    7.6358  -13.1740   19.4039 N   0  0  0  0  0  0  0  0  0  0  0  0
    7.5841  -14.3635   20.1788 C   0  0  1  0  0  0  0  0  0  0  0  0
    8.2440  -15.5068   19.3840 C   0  0  0  0  0  0  0  0  0  0  0  0
    7.2765  -15.8878   18.3210 C   0  0  0  0  0  0  0  0  0  0  0  0
    7.6424  -17.0314   17.4504 C   0  0  0  0  0  0  0  0  0  0  0  0
    6.5862  -17.4252   16.4652 C   0  0  0  0  0  0  0  0  0  0  0  0
    5.5657  -18.2885   16.9581 N   0  0  0  0  0  0  0  0  0  0  0  0
    8.2927  -14.2949   21.4801 C   0  0  0  0  0  0  0  0  0  0  0  0
    9.4876  -13.8541   21.5321 O   0  0  0  0  0  0  0  0  0  0  0  0
   10.5165  -14.8768   30.0748 O   0  0  0  0  0  0  0  0  0  0  0  0
    9.8233  -14.8009   28.8610 C   0  0  0  0  0  0  0  0  0  0  0  0
    9.1817  -15.8961   28.3224 C   0  0  0  0  0  0  0  0  0  0  0  0
    8.5218  -15.7498   27.1298 C   0  0  0  0  0  0  0  0  0  0  0  0
    8.4642  -14.5610   26.4353 C   0  0  0  0  0  0  0  0  0  0  0  0
    7.7593  -14.3991   25.1518 C   0  0  0  0  0  0  0  0  0  0  0  0
    8.5508  -14.7560   23.9432 C   0  0  2  0  0  0  0  0  0  0  0  0
    7.7466  -14.6893   22.7269 N   0  0  0  0  0  0  0  0  0  0  0  0
    9.1800  -16.0822   24.0947 C   0  0  0  0  0  0  0  0  0  0  0  0
    8.4583  -17.0836   24.2963 O   0  0  0  0  0  0  0  0  0  0  0  0
    9.1188  -13.4863   27.0063 C   0  0  0  0  0  0  0  0  0  0  0  0
    9.7948  -13.5870   28.2035 C   0  0  0  0  0  0  0  0  0  0  0  0
   11.1174  -18.0065   21.7128 C   0  0  0  0  0  0  0  0  0  0  0  0
   11.9917  -17.9060   22.9268 C   0  0  1  0  0  0  0  0  0  0  0  0
   13.0136  -16.9743   22.7093 O   0  0  0  0  0  0  0  0  0  0  0  0
   11.1798  -17.5348   24.1472 C   0  0  2  0  0  0  0  0  0  0  0  0
   10.5886  -16.2218   24.0126 N   0  0  0  0  0  0  0  0  0  0  0  0
   12.0133  -17.5628   25.3767 C   0  0  0  0  0  0  0  0  0  0  0  0
   12.5959  -18.7562   25.7671 O   0  0  0  0  0  0  0  0  0  0  0  0
   12.1923  -16.5292   26.0563 O   0  0  0  0  0  0  0  0  0  0  0  0
  2  1  1  6
  2  3  1  0
  4  3  1  0
  4  5  1  0
  6  5  1  0
  6  7  1  0
  8  2  1  0
  9  8  2  0
 10 11  1  0
 11 12  2  0
 12 13  1  0
 14 15  1  0
 14 13  2  0
 16 15  1  1
 16 17  1  0
 17  8  1  0
 18 16  1  0
 18 19  2  0
 20 14  1  0
 21 20  2  0
 21 11  1  0
 23 22  1  6
 23 25  1  0
 24 23  1  0
 25 26  1  6
 25 27  1  0
 26 18  1  0
 27 28  1  0
 29 27  2  0
M  END
$$$$
