WGK.pdb
     RDKit          3D

 28 29  0  0  1  0  0  0  0  0999 V2000
    7.7564  -17.6634   23.7275 N   0  0  0  0  0  0  0  0  0  0  0  0
    7.6084  -16.8218   22.5651 C   0  0  1  0  0  0  0  0  0  0  0  0
    6.5934  -15.7398   22.8715 C   0  0  0  0  0  0  0  0  0  0  0  0
    6.6452  -15.3566   24.2995 C   0  0  0  0  0  0  0  0  0  0  0  0
    6.4513  -16.1774   25.3644 C   0  0  0  0  0  0  0  0  0  0  0  0
    6.5750  -15.4564   26.4977 N   0  0  0  0  0  0  0  0  0  0  0  0
    6.8473  -14.1759   26.1707 C   0  0  0  0  0  0  0  0  0  0  0  0
    7.0659  -13.0404   26.9427 C   0  0  0  0  0  0  0  0  0  0  0  0
    7.3283  -11.8441   26.3290 C   0  0  0  0  0  0  0  0  0  0  0  0
    7.3757  -11.7628   24.9735 C   0  0  0  0  0  0  0  0  0  0  0  0
    7.1611  -12.8788   24.1999 C   0  0  0  0  0  0  0  0  0  0  0  0
    6.8934  -14.1034   24.7942 C   0  0  0  0  0  0  0  0  0  0  0  0
    8.8905  -16.1451   22.2248 C   0  0  0  0  0  0  0  0  0  0  0  0
    8.9718  -15.4684   21.1623 O   0  0  0  0  0  0  0  0  0  0  0  0
   10.0027  -16.2747   23.1075 N   0  0  0  0  0  0  0  0  0  0  0  0
   11.2161  -15.6034   22.7507 C   0  0  0  0  0  0  0  0  0  0  0  0
   12.3185  -15.8472   23.7064 C   0  0  0  0  0  0  0  0  0  0  0  0
   13.4645  -15.3430   23.6034 O   0  0  0  0  0  0  0  0  0  0  0  0
   12.0645  -16.7038   24.8077 N   0  0  0  0  0  0  0  0  0  0  0  0
   13.1194  -17.2249   25.6730 C   0  0  1  0  0  0  0  0  0  0  0  0
   12.4711  -17.6205   26.9860 C   0  0  0  0  0  0  0  0  0  0  0  0
   12.2494  -16.4667   27.9088 C   0  0  0  0  0  0  0  0  0  0  0  0
   10.8369  -15.9638   27.8145 C   0  0  0  0  0  0  0  0  0  0  0  0
   10.6244  -14.7846   28.7446 C   0  0  0  0  0  0  0  0  0  0  0  0
    9.2398  -14.3720   28.6018 N   0  0  0  0  0  0  0  0  0  0  0  0
   13.7872  -18.3625   25.0143 C   0  0  0  0  0  0  0  0  0  0  0  0
   14.7881  -18.9173   25.5178 O   0  0  0  0  0  0  0  0  0  0  0  0
   13.2985  -18.8277   23.8146 O   0  0  0  0  0  0  0  0  0  0  0  0
  2  1  1  1
  2 13  1  0
  2  3  1  0
  4  3  1  0
  5  4  2  0
  6  5  1  0
  7  6  1  0
  7 12  2  0
  8  7  1  0
  9  8  2  0
  9 10  1  0
 10 11  2  0
 11 12  1  0
 12  4  1  0
 13 14  2  0
 15 13  1  0
 15 16  1  0
 17 16  1  0
 17 18  2  0
 19 17  1  0
 20 26  1  0
 20 19  1  0
 20 21  1  1
 22 21  1  0
 23 24  1  0
 23 22  1  0
 24 25  1  0
 26 27  2  0
 26 28  1  0
M  END
$$$$
