WGK.pdb
     RDKit          3D

 28 29  0  0  1  0  0  0  0  0999 V2000
    6.9871  -17.6141   23.5395 N   0  0  0  0  0  0  0  0  0  0  0  0
    7.7470  -16.4192   23.2637 C   0  0  1  0  0  0  0  0  0  0  0  0
    8.3899  -15.9415   24.5495 C   0  0  0  0  0  0  0  0  0  0  0  0
    7.4188  -15.1955   25.3797 C   0  0  0  0  0  0  0  0  0  0  0  0
    6.4395  -15.7297   26.1550 C   0  0  0  0  0  0  0  0  0  0  0  0
    5.7615  -14.7275   26.7515 N   0  0  0  0  0  0  0  0  0  0  0  0
    6.2971  -13.5506   26.3658 C   0  0  0  0  0  0  0  0  0  0  0  0
    5.9832  -12.2332   26.6805 C   0  0  0  0  0  0  0  0  0  0  0  0
    6.7134  -11.2128   26.1307 C   0  0  0  0  0  0  0  0  0  0  0  0
    7.7398  -11.4820   25.2821 C   0  0  0  0  0  0  0  0  0  0  0  0
    8.0594  -12.7806   24.9636 C   0  0  0  0  0  0  0  0  0  0  0  0
    7.3372  -13.8337   25.5055 C   0  0  0  0  0  0  0  0  0  0  0  0
    8.8432  -16.6915   22.2932 C   0  0  0  0  0  0  0  0  0  0  0  0
    9.1592  -17.8856   22.0333 O   0  0  0  0  0  0  0  0  0  0  0  0
    9.5150  -15.5962   21.6753 N   0  0  0  0  0  0  0  0  0  0  0  0
   10.6185  -15.8943   20.8129 C   0  0  0  0  0  0  0  0  0  0  0  0
   11.9062  -16.0040   21.5324 C   0  0  0  0  0  0  0  0  0  0  0  0
   13.0203  -15.7110   21.0315 O   0  0  0  0  0  0  0  0  0  0  0  0
   11.8801  -16.4692   22.8720 N   0  0  0  0  0  0  0  0  0  0  0  0
   13.0826  -16.6239   23.6863 C   0  0  1  0  0  0  0  0  0  0  0  0
   12.6318  -16.8949   25.1090 C   0  0  0  0  0  0  0  0  0  0  0  0
   11.9841  -15.7165   25.7601 C   0  0  0  0  0  0  0  0  0  0  0  0
   11.4738  -16.0689   27.1285 C   0  0  0  0  0  0  0  0  0  0  0  0
   10.8937  -14.8472   27.8153 C   0  0  0  0  0  0  0  0  0  0  0  0
   10.4367  -15.2711   29.1265 N   0  0  0  0  0  0  0  0  0  0  0  0
   13.9131  -17.7156   23.1456 C   0  0  0  0  0  0  0  0  0  0  0  0
   14.2955  -18.6662   23.8621 O   0  0  0  0  0  0  0  0  0  0  0  0
   14.2782  -17.6903   21.8187 O   0  0  0  0  0  0  0  0  0  0  0  0
  2  1  1  1
  2 13  1  0
  2  3  1  0
  4  3  1  0
  5  4  2  0
  6  5  1  0
  7  6  1  0
  7 12  2  0
  8  7  1  0
  9  8  2  0
  9 10  1  0
 10 11  2  0
 11 12  1  0
 12  4  1  0
 13 14  2  0
 15 13  1  0
 15 16  1  0
 17 16  1  0
 17 18  2  0
 19 17  1  0
 20 26  1  0
 20 19  1  0
 20 21  1  1
 22 21  1  0
 23 24  1  0
 23 22  1  0
 24 25  1  0
 26 27  2  0
 26 28  1  0
M  END
$$$$
