WGK.pdb
     RDKit          3D

 28 29  0  0  1  0  0  0  0  0999 V2000
    7.1408  -17.8325   23.8066 N   0  0  0  0  0  0  0  0  0  0  0  0
    7.8442  -16.6083   23.5100 C   0  0  1  0  0  0  0  0  0  0  0  0
    8.3503  -16.0094   24.8061 C   0  0  0  0  0  0  0  0  0  0  0  0
    7.3064  -15.1802   25.4475 C   0  0  0  0  0  0  0  0  0  0  0  0
    6.2294  -15.6308   26.1419 C   0  0  0  0  0  0  0  0  0  0  0  0
    5.5104  -14.5709   26.5657 N   0  0  0  0  0  0  0  0  0  0  0  0
    6.1167  -13.4398   26.1490 C   0  0  0  0  0  0  0  0  0  0  0  0
    5.8002  -12.0956   26.3109 C   0  0  0  0  0  0  0  0  0  0  0  0
    6.6153  -11.1376   25.7684 C   0  0  0  0  0  0  0  0  0  0  0  0
    7.7280  -11.4942   25.0751 C   0  0  0  0  0  0  0  0  0  0  0  0
    8.0510  -12.8200   24.9083 C   0  0  0  0  0  0  0  0  0  0  0  0
    7.2440  -13.8116   25.4468 C   0  0  0  0  0  0  0  0  0  0  0  0
    9.0297  -16.8655   22.6464 C   0  0  0  0  0  0  0  0  0  0  0  0
    9.5171  -18.0286   22.5921 O   0  0  0  0  0  0  0  0  0  0  0  0
    9.5917  -15.7911   21.8961 N   0  0  0  0  0  0  0  0  0  0  0  0
   10.7327  -16.0761   21.0794 C   0  0  0  0  0  0  0  0  0  0  0  0
   12.0161  -15.9215   21.7985 C   0  0  0  0  0  0  0  0  0  0  0  0
   13.0224  -15.3367   21.3259 O   0  0  0  0  0  0  0  0  0  0  0  0
   12.1154  -16.4680   23.1035 N   0  0  0  0  0  0  0  0  0  0  0  0
   13.2848  -16.2835   23.9588 C   0  0  1  0  0  0  0  0  0  0  0  0
   12.9106  -16.7715   25.3453 C   0  0  0  0  0  0  0  0  0  0  0  0
   12.0661  -15.8025   26.1068 C   0  0  0  0  0  0  0  0  0  0  0  0
   11.6438  -16.3776   27.4290 C   0  0  0  0  0  0  0  0  0  0  0  0
   10.8749  -15.3512   28.2389 C   0  0  0  0  0  0  0  0  0  0  0  0
   10.5593  -15.9646   29.5165 N   0  0  0  0  0  0  0  0  0  0  0  0
   14.4328  -17.0194   23.3981 C   0  0  0  0  0  0  0  0  0  0  0  0
   15.6113  -16.7117   23.6808 O   0  0  0  0  0  0  0  0  0  0  0  0
   14.2046  -18.0724   22.5416 O   0  0  0  0  0  0  0  0  0  0  0  0
  2  1  1  1
  2 13  1  0
  2  3  1  0
  4  3  1  0
  5  4  2  0
  6  5  1  0
  7  6  1  0
  7 12  2  0
  8  7  1  0
  9  8  2  0
  9 10  1  0
 10 11  2  0
 11 12  1  0
 12  4  1  0
 13 14  2  0
 15 13  1  0
 15 16  1  0
 17 16  1  0
 17 18  2  0
 19 17  1  0
 20 26  1  0
 20 19  1  0
 20 21  1  1
 22 21  1  0
 23 24  1  0
 23 22  1  0
 24 25  1  0
 26 27  2  0
 26 28  1  0
M  END
$$$$
