WGK.pdb
     RDKit          3D

 28 29  0  0  1  0  0  0  0  0999 V2000
    9.9781  -14.9363   23.7228 N   0  0  0  0  0  0  0  0  0  0  0  0
    9.5463  -15.9623   24.6405 C   0  0  1  0  0  0  0  0  0  0  0  0
    8.0612  -16.1938   24.4509 C   0  0  0  0  0  0  0  0  0  0  0  0
    7.3678  -14.9293   24.1212 C   0  0  0  0  0  0  0  0  0  0  0  0
    6.9469  -14.5348   22.8913 C   0  0  0  0  0  0  0  0  0  0  0  0
    6.3646  -13.3228   22.9987 N   0  0  0  0  0  0  0  0  0  0  0  0
    6.4072  -12.9330   24.2898 C   0  0  0  0  0  0  0  0  0  0  0  0
    5.9553  -11.7876   24.9356 C   0  0  0  0  0  0  0  0  0  0  0  0
    6.1360  -11.6559   26.2871 C   0  0  0  0  0  0  0  0  0  0  0  0
    6.7529  -12.6367   26.9968 C   0  0  0  0  0  0  0  0  0  0  0  0
    7.2039  -13.7736   26.3691 C   0  0  0  0  0  0  0  0  0  0  0  0
    7.0344  -13.9340   25.0016 C   0  0  0  0  0  0  0  0  0  0  0  0
   10.2359  -17.2534   24.3664 C   0  0  0  0  0  0  0  0  0  0  0  0
    9.9976  -18.2521   25.1007 O   0  0  0  0  0  0  0  0  0  0  0  0
   11.1529  -17.3363   23.2777 N   0  0  0  0  0  0  0  0  0  0  0  0
   11.9351  -18.5296   23.1570 C   0  0  0  0  0  0  0  0  0  0  0  0
   13.2136  -18.4646   23.8983 C   0  0  0  0  0  0  0  0  0  0  0  0
   13.3608  -17.8768   24.9987 O   0  0  0  0  0  0  0  0  0  0  0  0
   14.3432  -19.1068   23.3300 N   0  0  0  0  0  0  0  0  0  0  0  0
   15.6534  -19.1346   23.9749 C   0  0  1  0  0  0  0  0  0  0  0  0
   16.5724  -19.9583   23.0932 C   0  0  0  0  0  0  0  0  0  0  0  0
   17.1548  -21.1450   23.7893 C   0  0  0  0  0  0  0  0  0  0  0  0
   17.9652  -21.9828   22.8414 C   0  0  0  0  0  0  0  0  0  0  0  0
   18.3586  -23.2966   23.4893 C   0  0  0  0  0  0  0  0  0  0  0  0
   19.2785  -23.9609   22.5836 N   0  0  0  0  0  0  0  0  0  0  0  0
   16.1452  -17.7574   24.1626 C   0  0  0  0  0  0  0  0  0  0  0  0
   15.8427  -16.8385   23.3704 O   0  0  0  0  0  0  0  0  0  0  0  0
   16.9581  -17.4730   25.2363 O   0  0  0  0  0  0  0  0  0  0  0  0
  2  1  1  6
  2 13  1  0
  2  3  1  0
  4  3  1  0
  5  4  2  0
  6  5  1  0
  7  6  1  0
  7 12  2  0
  8  7  1  0
  9  8  2  0
  9 10  1  0
 10 11  2  0
 11 12  1  0
 12  4  1  0
 13 14  2  0
 15 13  1  0
 15 16  1  0
 17 16  1  0
 17 18  2  0
 19 17  1  0
 20 26  1  0
 20 19  1  0
 20 21  1  6
 22 21  1  0
 23 24  1  0
 23 22  1  0
 24 25  1  0
 26 27  2  0
 26 28  1  0
M  END
$$$$
