WGK.pdb
     RDKit          3D

 28 29  0  0  1  0  0  0  0  0999 V2000
    9.5820  -15.6135   22.4727 N   0  0  0  0  0  0  0  0  0  0  0  0
    9.5696  -15.7696   23.9068 C   0  0  1  0  0  0  0  0  0  0  0  0
    8.1332  -15.8899   24.3727 C   0  0  0  0  0  0  0  0  0  0  0  0
    7.3983  -14.6255   24.1495 C   0  0  0  0  0  0  0  0  0  0  0  0
    6.6809  -14.2914   23.0454 C   0  0  0  0  0  0  0  0  0  0  0  0
    6.1652  -13.0570   23.2187 N   0  0  0  0  0  0  0  0  0  0  0  0
    6.5453  -12.5929   24.4274 C   0  0  0  0  0  0  0  0  0  0  0  0
    6.2932  -11.3973   25.0909 C   0  0  0  0  0  0  0  0  0  0  0  0
    6.8183  -11.1916   26.3393 C   0  0  0  0  0  0  0  0  0  0  0  0
    7.5816  -12.1479   26.9300 C   0  0  0  0  0  0  0  0  0  0  0  0
    7.8376  -13.3339   26.2836 C   0  0  0  0  0  0  0  0  0  0  0  0
    7.3189  -13.5696   25.0188 C   0  0  0  0  0  0  0  0  0  0  0  0
   10.2760  -17.0144   24.3181 C   0  0  0  0  0  0  0  0  0  0  0  0
   10.2712  -17.3580   25.5327 O   0  0  0  0  0  0  0  0  0  0  0  0
   10.9445  -17.7953   23.3301 N   0  0  0  0  0  0  0  0  0  0  0  0
   11.6937  -18.9313   23.7756 C   0  0  0  0  0  0  0  0  0  0  0  0
   12.7935  -18.5771   24.6992 C   0  0  0  0  0  0  0  0  0  0  0  0
   13.4484  -17.5069   24.6373 O   0  0  0  0  0  0  0  0  0  0  0  0
   13.1285  -19.5048   25.7184 N   0  0  0  0  0  0  0  0  0  0  0  0
   14.2552  -19.3175   26.6286 C   0  0  1  0  0  0  0  0  0  0  0  0
   14.1104  -20.3381   27.7412 C   0  0  0  0  0  0  0  0  0  0  0  0
   12.8357  -20.2017   28.5083 C   0  0  0  0  0  0  0  0  0  0  0  0
   12.7269  -21.2622   29.5670 C   0  0  0  0  0  0  0  0  0  0  0  0
   11.4243  -21.1244   30.3319 C   0  0  0  0  0  0  0  0  0  0  0  0
   11.4065  -22.1716   31.3373 N   0  0  0  0  0  0  0  0  0  0  0  0
   15.5224  -19.4711   25.8906 C   0  0  0  0  0  0  0  0  0  0  0  0
   15.6413  -20.2904   24.9536 O   0  0  0  0  0  0  0  0  0  0  0  0
   16.6035  -18.6940   26.2396 O   0  0  0  0  0  0  0  0  0  0  0  0
  2  1  1  6
  2 13  1  0
  2  3  1  0
  4  3  1  0
  5  4  2  0
  6  5  1  0
  7  6  1  0
  7 12  2  0
  8  7  1  0
  9  8  2  0
  9 10  1  0
 10 11  2  0
 11 12  1  0
 12  4  1  0
 13 14  2  0
 15 13  1  0
 15 16  1  0
 17 16  1  0
 17 18  2  0
 19 17  1  0
 20 26  1  0
 20 19  1  0
 20 21  1  1
 22 21  1  0
 23 24  1  0
 23 22  1  0
 24 25  1  0
 26 27  2  0
 26 28  1  0
M  END
$$$$
