WGK.pdb
     RDKit          3D

 28 29  0  0  1  0  0  0  0  0999 V2000
    6.7897  -16.5173   23.0065 N   0  0  0  0  0  0  0  0  0  0  0  0
    8.1136  -16.1349   23.4337 C   0  0  1  0  0  0  0  0  0  0  0  0
    8.1314  -16.0426   24.9456 C   0  0  0  0  0  0  0  0  0  0  0  0
    7.2047  -14.9920   25.4212 C   0  0  0  0  0  0  0  0  0  0  0  0
    5.9874  -15.1858   25.9923 C   0  0  0  0  0  0  0  0  0  0  0  0
    5.4475  -13.9845   26.2841 N   0  0  0  0  0  0  0  0  0  0  0  0
    6.3086  -13.0173   25.9048 C   0  0  0  0  0  0  0  0  0  0  0  0
    6.2466  -11.6301   25.9767 C   0  0  0  0  0  0  0  0  0  0  0  0
    7.2913  -10.8800   25.5050 C   0  0  0  0  0  0  0  0  0  0  0  0
    8.3842  -11.4838   24.9691 C   0  0  0  0  0  0  0  0  0  0  0  0
    8.4566  -12.8545   24.8926 C   0  0  0  0  0  0  0  0  0  0  0  0
    7.4137  -13.6393   25.3625 C   0  0  0  0  0  0  0  0  0  0  0  0
    9.1219  -17.1573   23.0389 C   0  0  0  0  0  0  0  0  0  0  0  0
    8.8241  -18.0166   22.1635 O   0  0  0  0  0  0  0  0  0  0  0  0
   10.4061  -17.1450   23.6582 N   0  0  0  0  0  0  0  0  0  0  0  0
   11.2344  -18.3013   23.4936 C   0  0  0  0  0  0  0  0  0  0  0  0
   12.4964  -18.2271   24.2617 C   0  0  0  0  0  0  0  0  0  0  0  0
   13.1989  -17.1908   24.3641 O   0  0  0  0  0  0  0  0  0  0  0  0
   12.9399  -19.4003   24.9240 N   0  0  0  0  0  0  0  0  0  0  0  0
   13.8212  -19.3742   26.0883 C   0  0  1  0  0  0  0  0  0  0  0  0
   13.3486  -20.4603   27.0357 C   0  0  0  0  0  0  0  0  0  0  0  0
   13.5879  -20.1369   28.4746 C   0  0  0  0  0  0  0  0  0  0  0  0
   13.1583  -21.2711   29.3612 C   0  0  0  0  0  0  0  0  0  0  0  0
   13.3121  -20.8966   30.8230 C   0  0  0  0  0  0  0  0  0  0  0  0
   12.6777  -21.9451   31.6016 N   0  0  0  0  0  0  0  0  0  0  0  0
   15.2179  -19.5747   25.6602 C   0  0  0  0  0  0  0  0  0  0  0  0
   15.5004  -20.1921   24.6102 O   0  0  0  0  0  0  0  0  0  0  0  0
   16.2385  -19.0705   26.4339 O   0  0  0  0  0  0  0  0  0  0  0  0
  2  1  1  1
  2 13  1  0
  2  3  1  0
  4  3  1  0
  5  4  2  0
  6  5  1  0
  7  6  1  0
  7 12  2  0
  8  7  1  0
  9  8  2  0
  9 10  1  0
 10 11  2  0
 11 12  1  0
 12  4  1  0
 13 14  2  0
 15 13  1  0
 15 16  1  0
 17 16  1  0
 17 18  2  0
 19 17  1  0
 20 26  1  0
 20 19  1  0
 20 21  1  1
 22 21  1  0
 23 24  1  0
 23 22  1  0
 24 25  1  0
 26 27  2  0
 26 28  1  0
M  END
$$$$
