WGK.pdb
     RDKit          3D

 28 29  0  0  1  0  0  0  0  0999 V2000
    6.5411  -16.8414   26.2968 N   0  0  0  0  0  0  0  0  0  0  0  0
    6.5913  -17.0776   24.8745 C   0  0  1  0  0  0  0  0  0  0  0  0
    6.3062  -15.7765   24.1529 C   0  0  0  0  0  0  0  0  0  0  0  0
    7.1931  -14.6974   24.6401 C   0  0  0  0  0  0  0  0  0  0  0  0
    8.4759  -14.4697   24.2556 C   0  0  0  0  0  0  0  0  0  0  0  0
    8.9480  -13.3991   24.9270 N   0  0  0  0  0  0  0  0  0  0  0  0
    7.9780  -12.9350   25.7421 C   0  0  0  0  0  0  0  0  0  0  0  0
    7.9381  -11.8704   26.6356 C   0  0  0  0  0  0  0  0  0  0  0  0
    6.7932  -11.6254   27.3468 C   0  0  0  0  0  0  0  0  0  0  0  0
    5.7001  -12.4156   27.1833 C   0  0  0  0  0  0  0  0  0  0  0  0
    5.7278  -13.4710   26.3029 C   0  0  0  0  0  0  0  0  0  0  0  0
    6.8734  -13.7427   25.5693 C   0  0  0  0  0  0  0  0  0  0  0  0
    7.9450  -17.5324   24.4526 C   0  0  0  0  0  0  0  0  0  0  0  0
    8.1155  -17.9691   23.2806 O   0  0  0  0  0  0  0  0  0  0  0  0
    9.0240  -17.4651   25.3823 N   0  0  0  0  0  0  0  0  0  0  0  0
   10.2646  -18.0729   25.0058 C   0  0  0  0  0  0  0  0  0  0  0  0
   10.6642  -19.1817   25.8996 C   0  0  0  0  0  0  0  0  0  0  0  0
    9.9950  -19.5625   26.8922 O   0  0  0  0  0  0  0  0  0  0  0  0
   11.8791  -19.8566   25.6171 N   0  0  0  0  0  0  0  0  0  0  0  0
   12.5061  -20.7932   26.5460 C   0  0  1  0  0  0  0  0  0  0  0  0
   13.8598  -21.1617   25.9696 C   0  0  0  0  0  0  0  0  0  0  0  0
   14.6126  -22.1444   26.8061 C   0  0  0  0  0  0  0  0  0  0  0  0
   15.9875  -22.3848   26.2502 C   0  0  0  0  0  0  0  0  0  0  0  0
   16.6718  -23.5213   26.9856 C   0  0  0  0  0  0  0  0  0  0  0  0
   18.0032  -23.6542   26.4220 N   0  0  0  0  0  0  0  0  0  0  0  0
   12.6162  -20.1735   27.8794 C   0  0  0  0  0  0  0  0  0  0  0  0
   12.5878  -20.8576   28.9256 O   0  0  0  0  0  0  0  0  0  0  0  0
   12.7540  -18.8076   27.9780 O   0  0  0  0  0  0  0  0  0  0  0  0
  2  1  1  1
  2 13  1  0
  2  3  1  0
  4  3  1  0
  5  4  2  0
  6  5  1  0
  7  6  1  0
  7 12  2  0
  8  7  1  0
  9  8  2  0
  9 10  1  0
 10 11  2  0
 11 12  1  0
 12  4  1  0
 13 14  2  0
 15 13  1  0
 15 16  1  0
 17 16  1  0
 17 18  2  0
 19 17  1  0
 20 26  1  0
 20 19  1  0
 20 21  1  6
 22 21  1  0
 23 24  1  0
 23 22  1  0
 24 25  1  0
 26 27  2  0
 26 28  1  0
M  END
$$$$
