WGK.pdb
     RDKit          3D

 28 29  0  0  1  0  0  0  0  0999 V2000
    6.8123  -16.3139   22.3554 N   0  0  0  0  0  0  0  0  0  0  0  0
    8.0478  -15.6044   22.5823 C   0  0  1  0  0  0  0  0  0  0  0  0
    8.3770  -15.6569   24.0600 C   0  0  0  0  0  0  0  0  0  0  0  0
    7.3579  -14.9358   24.8538 C   0  0  0  0  0  0  0  0  0  0  0  0
    6.3341  -15.4925   25.5519 C   0  0  0  0  0  0  0  0  0  0  0  0
    5.6215  -14.5085   26.1382 N   0  0  0  0  0  0  0  0  0  0  0  0
    6.1790  -13.3209   25.8226 C   0  0  0  0  0  0  0  0  0  0  0  0
    5.8465  -12.0135   26.1593 C   0  0  0  0  0  0  0  0  0  0  0  0
    6.6081  -10.9776   25.6865 C   0  0  0  0  0  0  0  0  0  0  0  0
    7.6835  -11.2216   24.8927 C   0  0  0  0  0  0  0  0  0  0  0  0
    8.0218  -12.5100   24.5531 C   0  0  0  0  0  0  0  0  0  0  0  0
    7.2687  -13.5785   25.0174 C   0  0  0  0  0  0  0  0  0  0  0  0
    9.1769  -16.2446   21.8523 C   0  0  0  0  0  0  0  0  0  0  0  0
    8.9415  -16.9083   20.8048 O   0  0  0  0  0  0  0  0  0  0  0  0
   10.5040  -16.0944   22.3516 N   0  0  0  0  0  0  0  0  0  0  0  0
   11.5758  -16.6146   21.5574 C   0  0  0  0  0  0  0  0  0  0  0  0
   12.9034  -16.4402   22.1859 C   0  0  0  0  0  0  0  0  0  0  0  0
   13.9918  -16.7105   21.6198 O   0  0  0  0  0  0  0  0  0  0  0  0
   12.9492  -15.9358   23.5106 N   0  0  0  0  0  0  0  0  0  0  0  0
   13.5814  -16.6518   24.6155 C   0  0  1  0  0  0  0  0  0  0  0  0
   12.4908  -16.9974   25.6114 C   0  0  0  0  0  0  0  0  0  0  0  0
   12.9586  -17.8854   26.7180 C   0  0  0  0  0  0  0  0  0  0  0  0
   11.8303  -18.2269   27.6495 C   0  0  0  0  0  0  0  0  0  0  0  0
   12.3388  -19.0162   28.8408 C   0  0  0  0  0  0  0  0  0  0  0  0
   11.1769  -19.4282   29.6076 N   0  0  0  0  0  0  0  0  0  0  0  0
   14.2704  -17.8503   24.1027 C   0  0  0  0  0  0  0  0  0  0  0  0
   15.4867  -18.0488   24.3135 O   0  0  0  0  0  0  0  0  0  0  0  0
   13.5591  -18.7758   23.3734 O   0  0  0  0  0  0  0  0  0  0  0  0
  2  1  1  1
  2 13  1  0
  2  3  1  0
  4  3  1  0
  5  4  2  0
  6  5  1  0
  7  6  1  0
  7 12  2  0
  8  7  1  0
  9  8  2  0
  9 10  1  0
 10 11  2  0
 11 12  1  0
 12  4  1  0
 13 14  2  0
 15 13  1  0
 15 16  1  0
 17 16  1  0
 17 18  2  0
 19 17  1  0
 20 26  1  0
 20 19  1  0
 20 21  1  1
 22 21  1  0
 23 24  1  0
 23 22  1  0
 24 25  1  0
 26 27  2  0
 26 28  1  0
M  END
$$$$
