WGK.pdb
     RDKit          3D

 28 29  0  0  1  0  0  0  0  0999 V2000
    6.3807  -17.0166   23.5586 N   0  0  0  0  0  0  0  0  0  0  0  0
    7.7685  -16.8298   23.9056 C   0  0  1  0  0  0  0  0  0  0  0  0
    7.8659  -16.5341   25.3881 C   0  0  0  0  0  0  0  0  0  0  0  0
    7.0016  -15.3913   25.7563 C   0  0  0  0  0  0  0  0  0  0  0  0
    5.6477  -15.4039   25.8656 C   0  0  0  0  0  0  0  0  0  0  0  0
    5.2279  -14.1705   26.2153 N   0  0  0  0  0  0  0  0  0  0  0  0
    6.3023  -13.3627   26.3323 C   0  0  0  0  0  0  0  0  0  0  0  0
    6.4293  -12.0188   26.6658 C   0  0  0  0  0  0  0  0  0  0  0  0
    7.6730  -11.4463   26.7097 C   0  0  0  0  0  0  0  0  0  0  0  0
    8.7793  -12.1836   26.4296 C   0  0  0  0  0  0  0  0  0  0  0  0
    8.6661  -13.5131   26.0985 C   0  0  0  0  0  0  0  0  0  0  0  0
    7.4195  -14.1192   26.0464 C   0  0  0  0  0  0  0  0  0  0  0  0
    8.5585  -18.0652   23.6459 C   0  0  0  0  0  0  0  0  0  0  0  0
    7.9566  -19.1606   23.4690 O   0  0  0  0  0  0  0  0  0  0  0  0
    9.9814  -17.9862   23.6015 N   0  0  0  0  0  0  0  0  0  0  0  0
   10.6737  -18.9253   22.7714 C   0  0  0  0  0  0  0  0  0  0  0  0
   11.2914  -18.3037   21.5798 C   0  0  0  0  0  0  0  0  0  0  0  0
   11.9078  -18.9430   20.6913 O   0  0  0  0  0  0  0  0  0  0  0  0
   11.1799  -16.8975   21.4320 N   0  0  0  0  0  0  0  0  0  0  0  0
   11.8235  -16.1555   20.3512 C   0  0  1  0  0  0  0  0  0  0  0  0
   11.0374  -14.8734   20.1541 C   0  0  0  0  0  0  0  0  0  0  0  0
    9.6692  -15.0968   19.5970 C   0  0  0  0  0  0  0  0  0  0  0  0
    8.9584  -13.7925   19.3723 C   0  0  0  0  0  0  0  0  0  0  0  0
    7.5802  -14.0275   18.7842 C   0  0  0  0  0  0  0  0  0  0  0  0
    6.9338  -12.7316   18.6798 N   0  0  0  0  0  0  0  0  0  0  0  0
   13.2343  -15.8989   20.6946 C   0  0  0  0  0  0  0  0  0  0  0  0
   14.0681  -15.5532   19.8294 O   0  0  0  0  0  0  0  0  0  0  0  0
   13.6467  -16.0428   21.9998 O   0  0  0  0  0  0  0  0  0  0  0  0
  2  1  1  1
  2 13  1  0
  2  3  1  0
  4  3  1  0
  5  4  2  0
  6  5  1  0
  7  6  1  0
  7 12  2  0
  8  7  1  0
  9  8  2  0
  9 10  1  0
 10 11  2  0
 11 12  1  0
 12  4  1  0
 13 14  2  0
 15 13  1  0
 15 16  1  0
 17 16  1  0
 17 18  2  0
 19 17  1  0
 20 26  1  0
 20 19  1  0
 20 21  1  1
 22 21  1  0
 23 24  1  0
 23 22  1  0
 24 25  1  0
 26 27  2  0
 26 28  1  0
M  END
$$$$
