WGK.pdb
     RDKit          3D

 28 29  0  0  1  0  0  0  0  0999 V2000
    8.2146  -17.1462   24.1971 N   0  0  0  0  0  0  0  0  0  0  0  0
    7.6570  -16.8022   22.9118 C   0  0  1  0  0  0  0  0  0  0  0  0
    7.0251  -15.4286   23.0052 C   0  0  0  0  0  0  0  0  0  0  0  0
    6.9053  -14.9975   24.4154 C   0  0  0  0  0  0  0  0  0  0  0  0
    6.4624  -15.7500   25.4560 C   0  0  0  0  0  0  0  0  0  0  0  0
    6.4957  -15.0026   26.5786 N   0  0  0  0  0  0  0  0  0  0  0  0
    6.9572  -13.7731   26.2686 C   0  0  0  0  0  0  0  0  0  0  0  0
    7.1848  -12.6386   27.0395 C   0  0  0  0  0  0  0  0  0  0  0  0
    7.6699  -11.5029   26.4467 C   0  0  0  0  0  0  0  0  0  0  0  0
    7.9288  -11.4806   25.1130 C   0  0  0  0  0  0  0  0  0  0  0  0
    7.7075  -12.5961   24.3408 C   0  0  0  0  0  0  0  0  0  0  0  0
    7.2169  -13.7601   24.9142 C   0  0  0  0  0  0  0  0  0  0  0  0
    8.7161  -16.7341   21.8673 C   0  0  0  0  0  0  0  0  0  0  0  0
    8.3849  -16.6237   20.6542 O   0  0  0  0  0  0  0  0  0  0  0  0
   10.0858  -16.7944   22.2586 N   0  0  0  0  0  0  0  0  0  0  0  0
   10.9628  -15.7743   21.7681 C   0  0  0  0  0  0  0  0  0  0  0  0
   12.3314  -15.8683   22.3212 C   0  0  0  0  0  0  0  0  0  0  0  0
   13.2943  -15.1551   21.9439 O   0  0  0  0  0  0  0  0  0  0  0  0
   12.5704  -16.8239   23.3416 N   0  0  0  0  0  0  0  0  0  0  0  0
   13.5504  -16.6259   24.4063 C   0  0  1  0  0  0  0  0  0  0  0  0
   12.9277  -17.1344   25.6924 C   0  0  0  0  0  0  0  0  0  0  0  0
   12.0031  -16.1509   26.3326 C   0  0  0  0  0  0  0  0  0  0  0  0
   11.3714  -16.7286   27.5672 C   0  0  0  0  0  0  0  0  0  0  0  0
   10.5750  -15.6707   28.3071 C   0  0  0  0  0  0  0  0  0  0  0  0
   10.0268  -16.3014   29.4943 N   0  0  0  0  0  0  0  0  0  0  0  0
   14.7993  -17.3345   24.0716 C   0  0  0  0  0  0  0  0  0  0  0  0
   15.8279  -17.2189   24.7729 O   0  0  0  0  0  0  0  0  0  0  0  0
   14.8367  -18.1448   22.9595 O   0  0  0  0  0  0  0  0  0  0  0  0
  2  1  1  1
  2 13  1  0
  2  3  1  0
  4  3  1  0
  5  4  2  0
  6  5  1  0
  7  6  1  0
  7 12  2  0
  8  7  1  0
  9  8  2  0
  9 10  1  0
 10 11  2  0
 11 12  1  0
 12  4  1  0
 13 14  2  0
 15 13  1  0
 15 16  1  0
 17 16  1  0
 17 18  2  0
 19 17  1  0
 20 26  1  0
 20 19  1  0
 20 21  1  1
 22 21  1  0
 23 24  1  0
 23 22  1  0
 24 25  1  0
 26 27  2  0
 26 28  1  0
M  END
$$$$
