KWL.pdb
     RDKit          3D

 32 33  0  0  1  0  0  0  0  0999 V2000
    8.6118  -18.6715   20.3510 N   0  0  0  0  0  0  0  0  0  0  0  0
    9.4275  -17.4897   20.2836 C   0  0  1  0  0  0  0  0  0  0  0  0
    9.0317  -16.5979   19.1152 C   0  0  0  0  0  0  0  0  0  0  0  0
    9.7592  -17.0032   17.8527 C   0  0  0  0  0  0  0  0  0  0  0  0
    9.3269  -16.0179   16.7615 C   0  0  0  0  0  0  0  0  0  0  0  0
   10.1373  -16.3389   15.5181 C   0  0  0  0  0  0  0  0  0  0  0  0
    9.5940  -15.5192   14.4422 N   0  0  0  0  0  0  0  0  0  0  0  0
    9.4020  -16.7313   21.5576 C   0  0  0  0  0  0  0  0  0  0  0  0
    9.3689  -15.4799   21.5157 O   0  0  0  0  0  0  0  0  0  0  0  0
    9.4143  -17.3884   22.8229 N   0  0  0  0  0  0  0  0  0  0  0  0
    9.1757  -16.6629   24.0411 C   0  0  1  0  0  0  0  0  0  0  0  0
    8.0113  -17.2217   24.8185 C   0  0  0  0  0  0  0  0  0  0  0  0
    6.9522  -16.2201   25.0464 C   0  0  0  0  0  0  0  0  0  0  0  0
    5.5908  -16.4159   25.1557 C   0  0  0  0  0  0  0  0  0  0  0  0
    4.9945  -15.2392   25.3590 N   0  0  0  0  0  0  0  0  0  0  0  0
    5.8858  -14.2392   25.3949 C   0  0  0  0  0  0  0  0  0  0  0  0
    5.8322  -12.8625   25.5694 C   0  0  0  0  0  0  0  0  0  0  0  0
    6.9652  -12.0762   25.5551 C   0  0  0  0  0  0  0  0  0  0  0  0
    8.1914  -12.7211   25.3557 C   0  0  0  0  0  0  0  0  0  0  0  0
    8.2616  -14.0825   25.1813 C   0  0  0  0  0  0  0  0  0  0  0  0
    7.1270  -14.8597   25.1969 C   0  0  0  0  0  0  0  0  0  0  0  0
   10.4041  -16.8396   24.8991 C   0  0  0  0  0  0  0  0  0  0  0  0
   11.4132  -17.4270   24.4136 O   0  0  0  0  0  0  0  0  0  0  0  0
   11.0409  -13.7215   27.6347 C   0  0  0  0  0  0  0  0  0  0  0  0
   10.4658  -14.8837   28.4124 C   0  0  2  0  0  0  0  0  0  0  0  0
    9.8593  -14.5080   29.7324 C   0  0  0  0  0  0  0  0  0  0  0  0
   11.2894  -16.1075   28.4135 C   0  0  0  0  0  0  0  0  0  0  0  0
   11.5429  -16.8141   27.1386 C   0  0  2  0  0  0  0  0  0  0  0  0
   10.4607  -16.3681   26.2303 N   0  0  0  0  0  0  0  0  0  0  0  0
   11.5934  -18.2636   27.1502 C   0  0  0  0  0  0  0  0  0  0  0  0
   12.6702  -18.9526   27.6675 O   0  0  0  0  0  0  0  0  0  0  0  0
   10.6458  -18.9430   26.6799 O   0  0  0  0  0  0  0  0  0  0  0  0
  2  3  1  0
  2  1  1  1
  3  4  1  0
  5  4  1  0
  6  5  1  0
  7  6  1  0
  8  2  1  0
  8  9  2  0
 10  8  1  0
 11 10  1  0
 11 12  1  1
 13 14  2  0
 13 12  1  0
 15 14  1  0
 16 21  2  0
 16 15  1  0
 17 16  1  0
 18 19  1  0
 18 17  2  0
 19 20  2  0
 20 21  1  0
 21 13  1  0
 22 29  1  0
 22 11  1  0
 23 22  2  0
 25 24  1  1
 25 27  1  0
 26 25  1  0
 28 27  1  1
 28 29  1  0
 28 30  1  0
 30 32  2  0
 30 31  1  0
M  END
$$$$
