KWL.pdb
     RDKit          3D

 32 33  0  0  1  0  0  0  0  0999 V2000
    7.7656  -15.9333   20.2090 N   0  0  0  0  0  0  0  0  0  0  0  0
    8.7712  -14.9095   20.2926 C   0  0  1  0  0  0  0  0  0  0  0  0
    8.2665  -13.5787   19.7526 C   0  0  0  0  0  0  0  0  0  0  0  0
    7.5261  -13.7687   18.4476 C   0  0  0  0  0  0  0  0  0  0  0  0
    8.5834  -13.7631   17.3383 C   0  0  0  0  0  0  0  0  0  0  0  0
    7.8617  -14.0180   16.0269 C   0  0  0  0  0  0  0  0  0  0  0  0
    8.8890  -14.1238   14.9983 N   0  0  0  0  0  0  0  0  0  0  0  0
    9.2854  -14.7563   21.6750 C   0  0  0  0  0  0  0  0  0  0  0  0
   10.1699  -13.8983   21.8996 O   0  0  0  0  0  0  0  0  0  0  0  0
    8.8000  -15.5579   22.7498 N   0  0  0  0  0  0  0  0  0  0  0  0
    9.2922  -15.3843   24.0895 C   0  0  1  0  0  0  0  0  0  0  0  0
    8.3383  -15.9284   25.1221 C   0  0  0  0  0  0  0  0  0  0  0  0
    7.1165  -15.1108   25.2479 C   0  0  0  0  0  0  0  0  0  0  0  0
    5.7990  -15.5153   25.1822 C   0  0  0  0  0  0  0  0  0  0  0  0
    5.0068  -14.4538   25.3462 N   0  0  0  0  0  0  0  0  0  0  0  0
    5.7207  -13.3336   25.5225 C   0  0  0  0  0  0  0  0  0  0  0  0
    5.4328  -11.9910   25.7312 C   0  0  0  0  0  0  0  0  0  0  0  0
    6.4230  -11.0428   25.8810 C   0  0  0  0  0  0  0  0  0  0  0  0
    7.7496  -11.4843   25.8148 C   0  0  0  0  0  0  0  0  0  0  0  0
    8.0514  -12.8091   25.6089 C   0  0  0  0  0  0  0  0  0  0  0  0
    7.0581  -13.7488   25.4605 C   0  0  0  0  0  0  0  0  0  0  0  0
   10.5621  -16.1922   24.1933 C   0  0  0  0  0  0  0  0  0  0  0  0
   11.5111  -15.9506   23.3932 O   0  0  0  0  0  0  0  0  0  0  0  0
   11.8362  -15.6904   29.2029 C   0  0  0  0  0  0  0  0  0  0  0  0
   11.0381  -14.9971   28.1219 C   0  0  2  0  0  0  0  0  0  0  0  0
   10.1133  -13.9269   28.6228 C   0  0  0  0  0  0  0  0  0  0  0  0
   10.4831  -15.8856   27.0833 C   0  0  0  0  0  0  0  0  0  0  0  0
   11.3505  -16.9138   26.4672 C   0  0  2  0  0  0  0  0  0  0  0  0
   10.7230  -17.2120   25.1587 N   0  0  0  0  0  0  0  0  0  0  0  0
   11.5714  -18.1531   27.1877 C   0  0  0  0  0  0  0  0  0  0  0  0
   10.5263  -18.9273   27.6464 O   0  0  0  0  0  0  0  0  0  0  0  0
   12.7374  -18.5613   27.4208 O   0  0  0  0  0  0  0  0  0  0  0  0
  2  3  1  0
  2  1  1  1
  3  4  1  0
  5  4  1  0
  6  5  1  0
  7  6  1  0
  8  2  1  0
  8  9  2  0
 10  8  1  0
 11 10  1  0
 11 12  1  1
 13 14  2  0
 13 12  1  0
 15 14  1  0
 16 21  2  0
 16 15  1  0
 17 16  1  0
 18 19  1  0
 18 17  2  0
 19 20  2  0
 20 21  1  0
 21 13  1  0
 22 29  1  0
 22 11  1  0
 23 22  2  0
 25 24  1  1
 25 27  1  0
 26 25  1  0
 28 27  1  1
 28 29  1  0
 28 30  1  0
 30 32  2  0
 30 31  1  0
M  END
$$$$
