KWL.pdb
     RDKit          3D

 32 33  0  0  1  0  0  0  0  0999 V2000
    8.4001  -16.7194   20.0598 N   0  0  0  0  0  0  0  0  0  0  0  0
    9.4659  -15.7646   20.1975 C   0  0  1  0  0  0  0  0  0  0  0  0
    9.2097  -14.5115   19.3721 C   0  0  0  0  0  0  0  0  0  0  0  0
    8.3807  -14.8287   18.1475 C   0  0  0  0  0  0  0  0  0  0  0  0
    8.7485  -13.7861   17.0864 C   0  0  0  0  0  0  0  0  0  0  0  0
    7.8854  -14.0601   15.8675 C   0  0  0  0  0  0  0  0  0  0  0  0
    8.2470  -13.0637   14.8669 N   0  0  0  0  0  0  0  0  0  0  0  0
    9.7131  -15.4185   21.6180 C   0  0  0  0  0  0  0  0  0  0  0  0
   10.6638  -14.6522   21.8971 O   0  0  0  0  0  0  0  0  0  0  0  0
    8.8991  -15.9341   22.6691 N   0  0  0  0  0  0  0  0  0  0  0  0
    9.1817  -15.6325   24.0462 C   0  0  1  0  0  0  0  0  0  0  0  0
    8.1584  -16.2253   24.9810 C   0  0  0  0  0  0  0  0  0  0  0  0
    7.0884  -15.2696   25.3256 C   0  0  0  0  0  0  0  0  0  0  0  0
    5.7652  -15.5275   25.6193 C   0  0  0  0  0  0  0  0  0  0  0  0
    5.1410  -14.3756   25.8741 N   0  0  0  0  0  0  0  0  0  0  0  0
    5.9766  -13.3333   25.7690 C   0  0  0  0  0  0  0  0  0  0  0  0
    5.8756  -11.9563   25.9188 C   0  0  0  0  0  0  0  0  0  0  0  0
    6.9548  -11.1171   25.7366 C   0  0  0  0  0  0  0  0  0  0  0  0
    8.1756  -11.7076   25.3900 C   0  0  0  0  0  0  0  0  0  0  0  0
    8.2923  -13.0685   25.2380 C   0  0  0  0  0  0  0  0  0  0  0  0
    7.2112  -13.8987   25.4215 C   0  0  0  0  0  0  0  0  0  0  0  0
   10.5040  -16.2826   24.3703 C   0  0  0  0  0  0  0  0  0  0  0  0
   11.5437  -15.8967   23.7627 O   0  0  0  0  0  0  0  0  0  0  0  0
    9.6691  -14.5858   29.2392 C   0  0  0  0  0  0  0  0  0  0  0  0
   10.7754  -15.2703   28.4686 C   0  0  2  0  0  0  0  0  0  0  0  0
   12.0458  -14.4780   28.3706 C   0  0  0  0  0  0  0  0  0  0  0  0
   10.3504  -15.9509   27.2308 C   0  0  0  0  0  0  0  0  0  0  0  0
   11.1929  -17.0292   26.6683 C   0  0  2  0  0  0  0  0  0  0  0  0
   10.6155  -17.3111   25.3334 N   0  0  0  0  0  0  0  0  0  0  0  0
   11.3145  -18.2693   27.4108 C   0  0  0  0  0  0  0  0  0  0  0  0
   12.5095  -18.6718   27.9691 O   0  0  0  0  0  0  0  0  0  0  0  0
   10.3217  -19.0248   27.5661 O   0  0  0  0  0  0  0  0  0  0  0  0
  2  3  1  0
  2  1  1  1
  3  4  1  0
  5  4  1  0
  6  5  1  0
  7  6  1  0
  8  2  1  0
  8  9  2  0
 10  8  1  0
 11 10  1  0
 11 12  1  1
 13 14  2  0
 13 12  1  0
 15 14  1  0
 16 21  2  0
 16 15  1  0
 17 16  1  0
 18 19  1  0
 18 17  2  0
 19 20  2  0
 20 21  1  0
 21 13  1  0
 22 29  1  0
 22 11  1  0
 23 22  2  0
 25 24  1  6
 25 27  1  0
 26 25  1  0
 28 27  1  1
 28 29  1  0
 28 30  1  0
 30 32  2  0
 30 31  1  0
M  END
$$$$
