KWL.pdb
     RDKit          3D

 32 33  0  0  1  0  0  0  0  0999 V2000
    8.4910  -16.8383   20.0394 N   0  0  0  0  0  0  0  0  0  0  0  0
    9.2759  -15.6573   20.2760 C   0  0  1  0  0  0  0  0  0  0  0  0
    8.7364  -14.4592   19.5075 C   0  0  0  0  0  0  0  0  0  0  0  0
    8.4501  -14.8226   18.0676 C   0  0  0  0  0  0  0  0  0  0  0  0
    8.6043  -13.5350   17.2510 C   0  0  0  0  0  0  0  0  0  0  0  0
    8.2096  -13.8585   15.8209 C   0  0  0  0  0  0  0  0  0  0  0  0
    8.3302  -12.6190   15.0635 N   0  0  0  0  0  0  0  0  0  0  0  0
    9.3838  -15.3503   21.7227 C   0  0  0  0  0  0  0  0  0  0  0  0
   10.0796  -14.3732   22.0832 O   0  0  0  0  0  0  0  0  0  0  0  0
    8.7181  -16.1363   22.7087 N   0  0  0  0  0  0  0  0  0  0  0  0
    8.8122  -15.8133   24.1066 C   0  0  1  0  0  0  0  0  0  0  0  0
    7.6638  -16.3808   24.9012 C   0  0  0  0  0  0  0  0  0  0  0  0
    6.6811  -15.3502   25.2875 C   0  0  0  0  0  0  0  0  0  0  0  0
    5.3655  -15.5147   25.6691 C   0  0  0  0  0  0  0  0  0  0  0  0
    4.8337  -14.3193   25.9331 N   0  0  0  0  0  0  0  0  0  0  0  0
    5.7259  -13.3363   25.7503 C   0  0  0  0  0  0  0  0  0  0  0  0
    5.7229  -11.9528   25.8714 C   0  0  0  0  0  0  0  0  0  0  0  0
    6.8398  -11.1901   25.6015 C   0  0  0  0  0  0  0  0  0  0  0  0
    7.9958  -11.8664   25.1948 C   0  0  0  0  0  0  0  0  0  0  0  0
    8.0153  -13.2348   25.0700 C   0  0  0  0  0  0  0  0  0  0  0  0
    6.8972  -13.9885   25.3411 C   0  0  0  0  0  0  0  0  0  0  0  0
   10.0702  -16.4693   24.6198 C   0  0  0  0  0  0  0  0  0  0  0  0
   11.0211  -16.6880   23.8155 O   0  0  0  0  0  0  0  0  0  0  0  0
   11.4408  -13.9612   27.6008 C   0  0  0  0  0  0  0  0  0  0  0  0
   10.7536  -15.1082   28.3066 C   0  0  2  0  0  0  0  0  0  0  0  0
   10.4193  -14.8414   29.7448 C   0  0  0  0  0  0  0  0  0  0  0  0
   11.3059  -16.4451   28.0170 C   0  0  0  0  0  0  0  0  0  0  0  0
   11.5542  -16.8403   26.6131 C   0  0  2  0  0  0  0  0  0  0  0  0
   10.2177  -16.8473   25.9738 N   0  0  0  0  0  0  0  0  0  0  0  0
   12.2152  -18.1060   26.3582 C   0  0  0  0  0  0  0  0  0  0  0  0
   13.5752  -18.2655   26.5224 O   0  0  0  0  0  0  0  0  0  0  0  0
   11.5594  -19.1067   25.9720 O   0  0  0  0  0  0  0  0  0  0  0  0
  2  3  1  0
  2  1  1  1
  3  4  1  0
  5  4  1  0
  6  5  1  0
  7  6  1  0
  8  2  1  0
  8  9  2  0
 10  8  1  0
 11 10  1  0
 11 12  1  1
 13 14  2  0
 13 12  1  0
 15 14  1  0
 16 21  2  0
 16 15  1  0
 17 16  1  0
 18 19  1  0
 18 17  2  0
 19 20  2  0
 20 21  1  0
 21 13  1  0
 22 29  1  0
 22 11  1  0
 23 22  2  0
 25 24  1  1
 25 27  1  0
 26 25  1  0
 28 27  1  1
 28 29  1  0
 28 30  1  0
 30 32  2  0
 30 31  1  0
M  END
$$$$
