KWL.pdb
     RDKit          3D

 32 33  0  0  1  0  0  0  0  0999 V2000
   10.3292  -19.1753   21.0331 N   0  0  0  0  0  0  0  0  0  0  0  0
   11.3483  -18.1624   20.9881 C   0  0  1  0  0  0  0  0  0  0  0  0
   11.4822  -17.5595   19.5968 C   0  0  0  0  0  0  0  0  0  0  0  0
   11.5345  -18.6403   18.5401 C   0  0  0  0  0  0  0  0  0  0  0  0
   11.7515  -17.9322   17.1985 C   0  0  0  0  0  0  0  0  0  0  0  0
   12.9133  -18.6235   16.5071 C   0  0  0  0  0  0  0  0  0  0  0  0
   13.1090  -17.9398   15.2347 N   0  0  0  0  0  0  0  0  0  0  0  0
   11.1160  -17.1043   22.0008 C   0  0  0  0  0  0  0  0  0  0  0  0
   11.9747  -16.2034   22.1419 O   0  0  0  0  0  0  0  0  0  0  0  0
    9.9448  -17.0873   22.8139 N   0  0  0  0  0  0  0  0  0  0  0  0
    9.6642  -15.9844   23.6926 C   0  0  1  0  0  0  0  0  0  0  0  0
    8.1844  -15.7742   23.8888 C   0  0  0  0  0  0  0  0  0  0  0  0
    7.4713  -15.5592   22.6152 C   0  0  0  0  0  0  0  0  0  0  0  0
    6.5559  -16.3815   21.9913 C   0  0  0  0  0  0  0  0  0  0  0  0
    6.1545  -15.8070   20.8554 N   0  0  0  0  0  0  0  0  0  0  0  0
    6.7535  -14.6230   20.6682 C   0  0  0  0  0  0  0  0  0  0  0  0
    6.7172  -13.6304   19.6976 C   0  0  0  0  0  0  0  0  0  0  0  0
    7.4789  -12.4845   19.7909 C   0  0  0  0  0  0  0  0  0  0  0  0
    8.3037  -12.3518   20.9140 C   0  0  0  0  0  0  0  0  0  0  0  0
    8.3512  -13.3248   21.8834 C   0  0  0  0  0  0  0  0  0  0  0  0
    7.5883  -14.4648   21.7830 C   0  0  0  0  0  0  0  0  0  0  0  0
   10.2407  -16.3451   25.0393 C   0  0  0  0  0  0  0  0  0  0  0  0
   11.4682  -16.6369   25.1240 O   0  0  0  0  0  0  0  0  0  0  0  0
   11.1068  -13.2281   27.8947 C   0  0  0  0  0  0  0  0  0  0  0  0
    9.6530  -13.5973   27.7040 C   0  0  2  0  0  0  0  0  0  0  0  0
    8.6821  -12.5323   28.1217 C   0  0  0  0  0  0  0  0  0  0  0  0
    9.2980  -14.9742   28.0966 C   0  0  0  0  0  0  0  0  0  0  0  0
   10.0617  -16.1099   27.5344 C   0  0  2  0  0  0  0  0  0  0  0  0
    9.4492  -16.3669   26.2102 N   0  0  0  0  0  0  0  0  0  0  0  0
   10.1136  -17.3480   28.2882 C   0  0  0  0  0  0  0  0  0  0  0  0
    9.3762  -18.4554   27.9250 O   0  0  0  0  0  0  0  0  0  0  0  0
   10.8394  -17.4480   29.3099 O   0  0  0  0  0  0  0  0  0  0  0  0
  2  3  1  0
  2  1  1  6
  3  4  1  0
  5  4  1  0
  6  5  1  0
  7  6  1  0
  8  2  1  0
  8  9  2  0
 10  8  1  0
 11 10  1  0
 11 12  1  1
 13 14  2  0
 13 12  1  0
 15 14  1  0
 16 21  2  0
 16 15  1  0
 17 16  1  0
 18 19  1  0
 18 17  2  0
 19 20  2  0
 20 21  1  0
 21 13  1  0
 22 29  1  0
 22 11  1  0
 23 22  2  0
 25 24  1  1
 25 27  1  0
 26 25  1  0
 28 27  1  1
 28 29  1  0
 28 30  1  0
 30 32  2  0
 30 31  1  0
M  END
$$$$
