VHQ.pdb
     RDKit          3D

 27 27  0  0  1  0  0  0  0  0999 V2000
   25.3944  -17.1863  -15.5383 C   0  0  0  0  0  0  0  0  0  0  0  0
   26.4559  -17.9316  -16.3090 C   0  0  1  0  0  0  0  0  0  0  0  0
   27.2878  -16.9978  -17.1493 C   0  0  0  0  0  0  0  0  0  0  0  0
   27.3599  -18.7451  -15.3928 C   0  0  2  0  0  0  0  0  0  0  0  0
   28.3150  -19.4255  -16.2206 N   0  0  0  0  0  0  0  0  0  0  0  0
   26.5561  -19.7262  -14.6014 C   0  0  0  0  0  0  0  0  0  0  0  0
   26.0563  -20.7121  -15.1470 O   0  0  0  0  0  0  0  0  0  0  0  0
   26.3674  -19.5242  -13.2225 N   0  0  0  0  0  0  0  0  0  0  0  0
   25.5868  -20.2541  -12.2995 C   0  0  1  0  0  0  0  0  0  0  0  0
   26.1301  -20.4424  -10.9016 C   0  0  0  0  0  0  0  0  0  0  0  0
   27.5633  -20.8018  -10.8702 C   0  0  0  0  0  0  0  0  0  0  0  0
   28.2908  -21.0081  -12.0687 C   0  0  0  0  0  0  0  0  0  0  0  0
   29.5644  -21.3200  -11.7776 N   0  0  0  0  0  0  0  0  0  0  0  0
   29.6792  -21.3212  -10.4492 C   0  0  0  0  0  0  0  0  0  0  0  0
   28.4762  -21.0103   -9.9345 N   0  0  0  0  0  0  0  0  0  0  0  0
   24.1294  -20.0360  -12.3652 C   0  0  0  0  0  0  0  0  0  0  0  0
   23.6072  -18.9310  -11.9705 O   0  0  0  0  0  0  0  0  0  0  0  0
   23.7550  -21.4795  -17.0468 N   0  0  0  0  0  0  0  0  0  0  0  0
   22.4601  -20.9867  -16.7395 C   0  0  0  0  0  0  0  0  0  0  0  0
   21.8779  -20.2560  -17.5633 O   0  0  0  0  0  0  0  0  0  0  0  0
   21.8552  -21.3549  -15.4618 C   0  0  0  0  0  0  0  0  0  0  0  0
   21.6069  -20.2286  -14.5065 C   0  0  0  0  0  0  0  0  0  0  0  0
   21.8157  -20.6418  -13.0979 C   0  0  2  0  0  0  0  0  0  0  0  0
   23.2173  -20.9964  -12.8539 N   0  0  0  0  0  0  0  0  0  0  0  0
   20.9947  -21.8128  -12.7486 C   0  0  0  0  0  0  0  0  0  0  0  0
   21.5026  -22.9392  -12.5058 O   0  0  0  0  0  0  0  0  0  0  0  0
   19.6263  -21.7115  -12.6718 O   0  0  0  0  0  0  0  0  0  0  0  0
  2  1  1  1
  3  2  1  0
  4  2  1  0
  4  5  1  6
  6  4  1  0
  7  6  2  0
  8  6  1  0
  9  8  1  0
 10 11  1  0
  9 10  1  1
 11 15  1  0
 12 13  1  0
 12 11  2  0
 13 14  1  0
 14 15  2  0
 16 24  1  0
 16  9  1  0
 17 16  2  0
 19 18  1  0
 20 19  2  0
 21 19  1  0
 22 21  1  0
 23 24  1  0
 23 22  1  6
 25 23  1  0
 26 25  2  0
 27 25  1  0
M  END
$$$$
