VHQ.pdb
     RDKit          3D

 27 27  0  0  1  0  0  0  0  0999 V2000
   40.1414   -6.1316    1.3418 C   0  0  0  0  0  0  0  0  0  0  0  0
   40.3888   -6.2057    2.8282 C   0  0  1  0  0  0  0  0  0  0  0  0
   41.7549   -6.7628    3.1347 C   0  0  0  0  0  0  0  0  0  0  0  0
   40.2211   -4.8507    3.5022 C   0  0  2  0  0  0  0  0  0  0  0  0
   40.4137   -5.0419    4.9118 N   0  0  0  0  0  0  0  0  0  0  0  0
   38.8607   -4.2948    3.2277 C   0  0  0  0  0  0  0  0  0  0  0  0
   38.5194   -4.0120    2.0776 O   0  0  0  0  0  0  0  0  0  0  0  0
   37.9614   -4.0920    4.2897 N   0  0  0  0  0  0  0  0  0  0  0  0
   36.6734   -3.5132    4.2868 C   0  0  1  0  0  0  0  0  0  0  0  0
   35.7321   -3.8681    5.4148 C   0  0  0  0  0  0  0  0  0  0  0  0
   35.4349   -5.3132    5.5015 C   0  0  0  0  0  0  0  0  0  0  0  0
   35.9036   -6.2154    4.5143 C   0  0  0  0  0  0  0  0  0  0  0  0
   35.5072   -7.4628    4.8159 N   0  0  0  0  0  0  0  0  0  0  0  0
   34.8085   -7.3943    5.9493 C   0  0  0  0  0  0  0  0  0  0  0  0
   34.7806   -6.1063    6.3354 N   0  0  0  0  0  0  0  0  0  0  0  0
   36.5928   -2.1092    3.8415 C   0  0  0  0  0  0  0  0  0  0  0  0
   37.3166   -1.1993    4.3871 O   0  0  0  0  0  0  0  0  0  0  0  0
   38.0065    0.6468   -1.0541 N   0  0  0  0  0  0  0  0  0  0  0  0
   36.5955    0.7847   -1.1162 C   0  0  0  0  0  0  0  0  0  0  0  0
   36.0655    1.1186   -2.1928 O   0  0  0  0  0  0  0  0  0  0  0  0
   35.8128    0.5304    0.0907 C   0  0  0  0  0  0  0  0  0  0  0  0
   36.5792    0.0224    1.2728 C   0  0  0  0  0  0  0  0  0  0  0  0
   35.6939   -0.2492    2.4309 C   0  0  2  0  0  0  0  0  0  0  0  0
   35.7385   -1.6652    2.8089 N   0  0  0  0  0  0  0  0  0  0  0  0
   34.2919    0.0861    2.1324 C   0  0  0  0  0  0  0  0  0  0  0  0
   33.4266   -0.7980    1.8968 O   0  0  0  0  0  0  0  0  0  0  0  0
   33.8752    1.3954    2.1042 O   0  0  0  0  0  0  0  0  0  0  0  0
  2  1  1  6
  3  2  1  0
  4  2  1  0
  4  5  1  1
  6  4  1  0
  7  6  2  0
  8  6  1  0
  9  8  1  0
 10 11  1  0
  9 10  1  1
 11 15  1  0
 12 13  1  0
 12 11  2  0
 13 14  1  0
 14 15  2  0
 16 24  1  0
 16  9  1  0
 17 16  2  0
 19 18  1  0
 20 19  2  0
 21 19  1  0
 22 21  1  0
 23 24  1  0
 23 22  1  6
 25 23  1  0
 26 25  2  0
 27 25  1  0
M  END
$$$$
