VHQ.pdb
     RDKit          3D

 27 27  0  0  1  0  0  0  0  0999 V2000
   25.2089  -16.7080  -17.6957 C   0  0  0  0  0  0  0  0  0  0  0  0
   26.0971  -17.6309  -18.4928 C   0  0  1  0  0  0  0  0  0  0  0  0
   26.7945  -16.8993  -19.6102 C   0  0  0  0  0  0  0  0  0  0  0  0
   27.1248  -18.3319  -17.6147 C   0  0  2  0  0  0  0  0  0  0  0  0
   27.8893  -19.2067  -18.4577 N   0  0  0  0  0  0  0  0  0  0  0  0
   26.4458  -19.1063  -16.5311 C   0  0  0  0  0  0  0  0  0  0  0  0
   25.7273  -20.0697  -16.8049 O   0  0  0  0  0  0  0  0  0  0  0  0
   26.6272  -18.7338  -15.1872 N   0  0  0  0  0  0  0  0  0  0  0  0
   26.0866  -19.2979  -14.0109 C   0  0  1  0  0  0  0  0  0  0  0  0
   26.8276  -19.0785  -12.7119 C   0  0  0  0  0  0  0  0  0  0  0  0
   26.1866  -19.7305  -11.5508 C   0  0  0  0  0  0  0  0  0  0  0  0
   24.9859  -20.4685  -11.6987 C   0  0  0  0  0  0  0  0  0  0  0  0
   24.6074  -20.9612  -10.5079 N   0  0  0  0  0  0  0  0  0  0  0  0
   25.5125  -20.5700   -9.6105 C   0  0  0  0  0  0  0  0  0  0  0  0
   26.4397  -19.8404  -10.2561 N   0  0  0  0  0  0  0  0  0  0  0  0
   24.6168  -19.2643  -13.8900 C   0  0  0  0  0  0  0  0  0  0  0  0
   23.9856  -18.1495  -13.7995 O   0  0  0  0  0  0  0  0  0  0  0  0
   20.1727  -23.5810  -15.4684 N   0  0  0  0  0  0  0  0  0  0  0  0
   19.4545  -22.4383  -15.0296 C   0  0  0  0  0  0  0  0  0  0  0  0
   18.2161  -22.4130  -15.1610 O   0  0  0  0  0  0  0  0  0  0  0  0
   20.1974  -21.3280  -14.4388 C   0  0  0  0  0  0  0  0  0  0  0  0
   21.6874  -21.4762  -14.4157 C   0  0  0  0  0  0  0  0  0  0  0  0
   22.3491  -20.3139  -13.7755 C   0  0  2  0  0  0  0  0  0  0  0  0
   23.8086  -20.4216  -13.8655 N   0  0  0  0  0  0  0  0  0  0  0  0
   21.9993  -20.2081  -12.3495 C   0  0  0  0  0  0  0  0  0  0  0  0
   22.6901  -20.7517  -11.4477 O   0  0  0  0  0  0  0  0  0  0  0  0
   20.8921  -19.4987  -11.9502 O   0  0  0  0  0  0  0  0  0  0  0  0
  2  1  1  1
  3  2  1  0
  4  2  1  0
  4  5  1  6
  6  4  1  0
  7  6  2  0
  8  6  1  0
  9  8  1  0
 10 11  1  0
  9 10  1  1
 11 15  1  0
 12 13  1  0
 12 11  2  0
 13 14  1  0
 14 15  2  0
 16 24  1  0
 16  9  1  0
 17 16  2  0
 19 18  1  0
 20 19  2  0
 21 19  1  0
 22 21  1  0
 23 24  1  0
 23 22  1  1
 25 23  1  0
 26 25  2  0
 27 25  1  0
M  END
$$$$
