VHQ.pdb
     RDKit          3D

 27 27  0  0  1  0  0  0  0  0999 V2000
   19.6282  -13.8991  -22.3002 C   0  0  0  0  0  0  0  0  0  0  0  0
   20.2591  -13.1591  -21.1468 C   0  0  1  0  0  0  0  0  0  0  0  0
   19.2199  -12.5002  -20.2773 C   0  0  0  0  0  0  0  0  0  0  0  0
   21.1395  -14.0680  -20.2998 C   0  0  2  0  0  0  0  0  0  0  0  0
   20.3259  -15.1619  -19.8505 N   0  0  0  0  0  0  0  0  0  0  0  0
   21.7002  -13.3164  -19.1355 C   0  0  0  0  0  0  0  0  0  0  0  0
   20.9967  -13.0624  -18.1558 O   0  0  0  0  0  0  0  0  0  0  0  0
   23.0416  -12.8947  -19.1566 N   0  0  0  0  0  0  0  0  0  0  0  0
   23.7452  -12.0699  -18.2518 C   0  0  1  0  0  0  0  0  0  0  0  0
   25.2346  -12.2826  -18.1068 C   0  0  0  0  0  0  0  0  0  0  0  0
   25.8431  -11.4736  -17.0300 C   0  0  0  0  0  0  0  0  0  0  0  0
   26.7858  -10.4573  -17.3241 C   0  0  0  0  0  0  0  0  0  0  0  0
   27.1873   -9.8685  -16.1856 N   0  0  0  0  0  0  0  0  0  0  0  0
   26.5428  -10.4642  -15.1819 C   0  0  0  0  0  0  0  0  0  0  0  0
   25.7508  -11.4139  -15.7108 N   0  0  0  0  0  0  0  0  0  0  0  0
   23.3203  -10.6585  -18.1936 C   0  0  0  0  0  0  0  0  0  0  0  0
   23.2805   -9.9351  -19.2540 O   0  0  0  0  0  0  0  0  0  0  0  0
   18.6299   -7.9382  -15.2877 N   0  0  0  0  0  0  0  0  0  0  0  0
   19.3158   -6.8418  -15.8720 C   0  0  0  0  0  0  0  0  0  0  0  0
   18.7754   -5.7195  -15.8736 O   0  0  0  0  0  0  0  0  0  0  0  0
   20.6358   -7.0709  -16.4542 C   0  0  0  0  0  0  0  0  0  0  0  0
   21.1155   -8.4896  -16.4502 C   0  0  0  0  0  0  0  0  0  0  0  0
   22.4773   -8.6146  -17.0234 C   0  0  2  0  0  0  0  0  0  0  0  0
   22.9334  -10.0079  -17.0018 N   0  0  0  0  0  0  0  0  0  0  0  0
   23.4582   -7.8152  -16.2711 C   0  0  0  0  0  0  0  0  0  0  0  0
   24.3011   -8.3423  -15.4981 O   0  0  0  0  0  0  0  0  0  0  0  0
   23.4880   -6.4467  -16.3929 O   0  0  0  0  0  0  0  0  0  0  0  0
  2  1  1  6
  3  2  1  0
  4  2  1  0
  4  5  1  1
  6  4  1  0
  7  6  2  0
  8  6  1  0
  9  8  1  0
 10 11  1  0
  9 10  1  6
 11 15  1  0
 12 13  1  0
 12 11  2  0
 13 14  1  0
 14 15  2  0
 16 24  1  0
 16  9  1  0
 17 16  2  0
 19 18  1  0
 20 19  2  0
 21 19  1  0
 22 21  1  0
 23 24  1  0
 23 22  1  1
 25 23  1  0
 26 25  2  0
 27 25  1  0
M  END
$$$$
