VHQ.pdb
     RDKit          3D

 27 27  0  0  1  0  0  0  0  0999 V2000
   24.2768  -30.1883    3.3008 C   0  0  0  0  0  0  0  0  0  0  0  0
   23.8925  -29.6435    4.6542 C   0  0  1  0  0  0  0  0  0  0  0  0
   22.4554  -29.1915    4.6809 C   0  0  0  0  0  0  0  0  0  0  0  0
   24.1360  -30.6551    5.7658 C   0  0  2  0  0  0  0  0  0  0  0  0
   23.4647  -30.1764    6.9409 N   0  0  0  0  0  0  0  0  0  0  0  0
   25.6008  -30.8081    6.0223 C   0  0  0  0  0  0  0  0  0  0  0  0
   26.3579  -31.1865    5.1263 O   0  0  0  0  0  0  0  0  0  0  0  0
   26.1212  -30.5183    7.2962 N   0  0  0  0  0  0  0  0  0  0  0  0
   27.3989  -30.7866    7.8343 C   0  0  1  0  0  0  0  0  0  0  0  0
   27.7295  -30.2211    9.1965 C   0  0  0  0  0  0  0  0  0  0  0  0
   29.1567  -30.3513    9.5577 C   0  0  0  0  0  0  0  0  0  0  0  0
   30.0837  -29.3240    9.2523 C   0  0  0  0  0  0  0  0  0  0  0  0
   31.3071  -29.6756    9.6811 N   0  0  0  0  0  0  0  0  0  0  0  0
   31.1995  -30.8791   10.2448 C   0  0  0  0  0  0  0  0  0  0  0  0
   29.9119  -31.2576   10.1582 N   0  0  0  0  0  0  0  0  0  0  0  0
   27.9388  -32.1365    7.5848 C   0  0  0  0  0  0  0  0  0  0  0  0
   27.1821  -33.1727    7.6410 O   0  0  0  0  0  0  0  0  0  0  0  0
   27.4458  -36.0717    4.4720 N   0  0  0  0  0  0  0  0  0  0  0  0
   28.7590  -36.5335    4.7481 C   0  0  0  0  0  0  0  0  0  0  0  0
   29.0623  -37.7069    4.4603 O   0  0  0  0  0  0  0  0  0  0  0  0
   29.7108  -35.6123    5.3639 C   0  0  0  0  0  0  0  0  0  0  0  0
   29.1754  -34.2600    5.7208 C   0  0  0  0  0  0  0  0  0  0  0  0
   29.7516  -33.7543    6.9900 C   0  0  2  0  0  0  0  0  0  0  0  0
   29.2919  -32.3908    7.2722 N   0  0  0  0  0  0  0  0  0  0  0  0
   31.2227  -33.7257    6.9446 C   0  0  0  0  0  0  0  0  0  0  0  0
   31.8671  -32.6604    6.7553 O   0  0  0  0  0  0  0  0  0  0  0  0
   31.9515  -34.8785    7.1133 O   0  0  0  0  0  0  0  0  0  0  0  0
  2  1  1  6
  3  2  1  0
  4  2  1  0
  4  5  1  1
  6  4  1  0
  7  6  2  0
  8  6  1  0
  9  8  1  0
 10 11  1  0
  9 10  1  1
 11 15  1  0
 12 13  1  0
 12 11  2  0
 13 14  1  0
 14 15  2  0
 16 24  1  0
 16  9  1  0
 17 16  2  0
 19 18  1  0
 20 19  2  0
 21 19  1  0
 22 21  1  0
 23 24  1  0
 23 22  1  6
 25 23  1  0
 26 25  2  0
 27 25  1  0
M  END
$$$$
