VHQ.pdb
     RDKit          3D

 27 27  0  0  1  0  0  0  0  0999 V2000
   22.3574  -16.5465  -18.5657 C   0  0  0  0  0  0  0  0  0  0  0  0
   20.9275  -16.3030  -18.1506 C   0  0  1  0  0  0  0  0  0  0  0  0
   20.2011  -17.5956  -17.8831 C   0  0  0  0  0  0  0  0  0  0  0  0
   20.8347  -15.3969  -16.9304 C   0  0  2  0  0  0  0  0  0  0  0  0
   19.4798  -15.4439  -16.4588 N   0  0  0  0  0  0  0  0  0  0  0  0
   21.2191  -13.9971  -17.2878 C   0  0  0  0  0  0  0  0  0  0  0  0
   22.3587  -13.7411  -17.6817 O   0  0  0  0  0  0  0  0  0  0  0  0
   20.2737  -12.9622  -17.1744 N   0  0  0  0  0  0  0  0  0  0  0  0
   20.3855  -11.5940  -17.5052 C   0  0  1  0  0  0  0  0  0  0  0  0
   19.8045  -11.1312  -18.8216 C   0  0  0  0  0  0  0  0  0  0  0  0
   18.3378  -11.2916  -18.9069 C   0  0  0  0  0  0  0  0  0  0  0  0
   17.5977  -11.8274  -17.8237 C   0  0  0  0  0  0  0  0  0  0  0  0
   16.2936  -11.8693  -18.1428 N   0  0  0  0  0  0  0  0  0  0  0  0
   16.1716  -11.3846  -19.3789 C   0  0  0  0  0  0  0  0  0  0  0  0
   17.4005  -11.0489  -19.8097 N   0  0  0  0  0  0  0  0  0  0  0  0
   20.2161  -10.6403  -16.3927 C   0  0  0  0  0  0  0  0  0  0  0  0
   19.5845  -10.9742  -15.3253 O   0  0  0  0  0  0  0  0  0  0  0  0
   23.5228   -5.4402  -14.7304 N   0  0  0  0  0  0  0  0  0  0  0  0
   22.4328   -5.4800  -13.8224 C   0  0  0  0  0  0  0  0  0  0  0  0
   22.3800   -4.6434  -12.9011 O   0  0  0  0  0  0  0  0  0  0  0  0
   21.4089   -6.5064  -14.0014 C   0  0  0  0  0  0  0  0  0  0  0  0
   21.6006   -7.4255  -15.1681 C   0  0  0  0  0  0  0  0  0  0  0  0
   20.5088   -8.4236  -15.2712 C   0  0  2  0  0  0  0  0  0  0  0  0
   20.7205   -9.3218  -16.4106 N   0  0  0  0  0  0  0  0  0  0  0  0
   19.1986   -7.7776  -15.4530 C   0  0  0  0  0  0  0  0  0  0  0  0
   18.7166   -7.5488  -16.5937 O   0  0  0  0  0  0  0  0  0  0  0  0
   18.4462   -7.4009  -14.3665 O   0  0  0  0  0  0  0  0  0  0  0  0
  2  1  1  1
  3  2  1  0
  4  2  1  0
  4  5  1  6
  6  4  1  0
  7  6  2  0
  8  6  1  0
  9  8  1  0
 10 11  1  0
  9 10  1  6
 11 15  1  0
 12 13  1  0
 12 11  2  0
 13 14  1  0
 14 15  2  0
 16 24  1  0
 16  9  1  0
 17 16  2  0
 19 18  1  0
 20 19  2  0
 21 19  1  0
 22 21  1  0
 23 24  1  0
 23 22  1  6
 25 23  1  0
 26 25  2  0
 27 25  1  0
M  END
$$$$
