VDI.pdb
     RDKit          3D

 24 23  0  0  1  0  0  0  0  0999 V2000
    8.6165  -12.7177   20.9354 C   0  0  0  0  0  0  0  0  0  0  0  0
    7.5839  -13.3328   20.0156 C   0  0  1  0  0  0  0  0  0  0  0  0
    7.4980  -12.6240   18.6983 C   0  0  0  0  0  0  0  0  0  0  0  0
    7.9805  -14.7739   19.7985 C   0  0  2  0  0  0  0  0  0  0  0  0
    7.0996  -15.4736   18.9186 N   0  0  0  0  0  0  0  0  0  0  0  0
    8.1655  -15.4890   21.0879 C   0  0  0  0  0  0  0  0  0  0  0  0
    7.1515  -15.8844   21.7164 O   0  0  0  0  0  0  0  0  0  0  0  0
    9.4324  -15.7575   21.6627 N   0  0  0  0  0  0  0  0  0  0  0  0
    9.5885  -16.4659   22.9186 C   0  0  1  0  0  0  0  0  0  0  0  0
   10.7313  -17.4514   22.8638 C   0  0  0  0  0  0  0  0  0  0  0  0
   10.5652  -18.4832   21.8409 C   0  0  0  0  0  0  0  0  0  0  0  0
   11.1897  -18.5065   20.7518 O   0  0  0  0  0  0  0  0  0  0  0  0
    9.7400  -15.4797   24.0033 C   0  0  0  0  0  0  0  0  0  0  0  0
   10.6072  -14.5857   23.9517 O   0  0  0  0  0  0  0  0  0  0  0  0
    9.6651  -19.5132   22.0658 O   0  0  0  0  0  0  0  0  0  0  0  0
    5.9813  -12.5512   25.6787 C   0  0  0  0  0  0  0  0  0  0  0  0
    7.3104  -13.1681   25.3559 C   0  0  0  0  0  0  0  0  0  0  0  0
    7.8517  -13.9015   26.5831 C   0  0  2  0  0  0  0  0  0  0  0  0
    8.0589  -12.8912   27.6640 C   0  0  0  0  0  0  0  0  0  0  0  0
    9.1259  -14.6433   26.2329 C   0  0  2  0  0  0  0  0  0  0  0  0
    8.8958  -15.5313   25.1323 N   0  0  0  0  0  0  0  0  0  0  0  0
    9.5873  -15.4786   27.3810 C   0  0  0  0  0  0  0  0  0  0  0  0
   10.4393  -15.0123   28.3632 O   0  0  0  0  0  0  0  0  0  0  0  0
    9.1811  -16.6635   27.4581 O   0  0  0  0  0  0  0  0  0  0  0  0
  2  3  1  6
  2  1  1  0
  4  2  1  0
  4  5  1  6
  6  7  2  0
  6  4  1  0
  8  6  1  0
  9  8  1  0
  9 10  1  6
 10 11  1  0
 11 12  2  0
 11 15  1  0
 13  9  1  0
 14 13  2  0
 16 17  1  0
 18 17  1  0
 18 20  1  0
 18 19  1  1
 20 21  1  6
 21 13  1  0
 22 20  1  0
 22 23  1  0
 24 22  2  0
M  END
$$$$
