VDI.pdb
     RDKit          3D

 24 23  0  0  1  0  0  0  0  0999 V2000
    7.7815  -13.2758   18.7409 C   0  0  0  0  0  0  0  0  0  0  0  0
    8.1930  -13.4797   20.1829 C   0  0  1  0  0  0  0  0  0  0  0  0
    7.0833  -13.1739   21.1422 C   0  0  0  0  0  0  0  0  0  0  0  0
    8.6141  -14.9230   20.3278 C   0  0  2  0  0  0  0  0  0  0  0  0
    7.5904  -15.8477   19.9579 N   0  0  0  0  0  0  0  0  0  0  0  0
    9.1532  -15.2004   21.6844 C   0  0  0  0  0  0  0  0  0  0  0  0
   10.1352  -14.5340   22.0980 O   0  0  0  0  0  0  0  0  0  0  0  0
    8.6220  -16.1842   22.5548 N   0  0  0  0  0  0  0  0  0  0  0  0
    9.4473  -16.9462   23.4723 C   0  0  1  0  0  0  0  0  0  0  0  0
   10.5702  -17.6553   22.7536 C   0  0  0  0  0  0  0  0  0  0  0  0
   11.4740  -18.3766   23.6488 C   0  0  0  0  0  0  0  0  0  0  0  0
   11.1034  -19.2348   24.4870 O   0  0  0  0  0  0  0  0  0  0  0  0
    9.9312  -16.0457   24.5339 C   0  0  0  0  0  0  0  0  0  0  0  0
   10.9408  -15.3330   24.3708 O   0  0  0  0  0  0  0  0  0  0  0  0
   12.8335  -18.1125   23.5862 O   0  0  0  0  0  0  0  0  0  0  0  0
    6.8851  -12.4977   26.0628 C   0  0  0  0  0  0  0  0  0  0  0  0
    8.1003  -13.3317   25.7820 C   0  0  0  0  0  0  0  0  0  0  0  0
    8.5362  -14.0556   27.0559 C   0  0  2  0  0  0  0  0  0  0  0  0
    8.9248  -13.0193   28.0595 C   0  0  0  0  0  0  0  0  0  0  0  0
    9.6656  -15.0195   26.7530 C   0  0  2  0  0  0  0  0  0  0  0  0
    9.2517  -15.9742   25.7680 N   0  0  0  0  0  0  0  0  0  0  0  0
   10.0504  -15.7879   27.9737 C   0  0  0  0  0  0  0  0  0  0  0  0
   11.0071  -15.3551   28.8713 O   0  0  0  0  0  0  0  0  0  0  0  0
    9.4765  -16.8816   28.1959 O   0  0  0  0  0  0  0  0  0  0  0  0
  2  3  1  1
  2  1  1  0
  4  2  1  0
  4  5  1  1
  6  7  2  0
  6  4  1  0
  8  6  1  0
  9  8  1  0
  9 10  1  6
 10 11  1  0
 11 12  2  0
 11 15  1  0
 13  9  1  0
 14 13  2  0
 16 17  1  0
 18 17  1  0
 18 20  1  0
 18 19  1  1
 20 21  1  6
 21 13  1  0
 22 20  1  0
 22 23  1  0
 24 22  2  0
M  END
$$$$
