VDI.pdb
     RDKit          3D

 24 23  0  0  1  0  0  0  0  0999 V2000
    8.5921  -12.7393   20.8847 C   0  0  0  0  0  0  0  0  0  0  0  0
    7.6637  -13.3947   19.8851 C   0  0  1  0  0  0  0  0  0  0  0  0
    7.6263  -12.6652   18.5769 C   0  0  0  0  0  0  0  0  0  0  0  0
    8.1599  -14.8053   19.6725 C   0  0  2  0  0  0  0  0  0  0  0  0
    7.4282  -15.5144   18.6717 N   0  0  0  0  0  0  0  0  0  0  0  0
    8.2288  -15.5580   20.9519 C   0  0  0  0  0  0  0  0  0  0  0  0
    7.1652  -15.9929   21.4611 O   0  0  0  0  0  0  0  0  0  0  0  0
    9.4364  -15.8206   21.6449 N   0  0  0  0  0  0  0  0  0  0  0  0
    9.4780  -16.5515   22.8969 C   0  0  1  0  0  0  0  0  0  0  0  0
   10.5154  -17.6484   22.8673 C   0  0  0  0  0  0  0  0  0  0  0  0
   10.2314  -18.6955   21.8867 C   0  0  0  0  0  0  0  0  0  0  0  0
   10.8128  -18.8038   20.7791 O   0  0  0  0  0  0  0  0  0  0  0  0
    9.6938  -15.5948   23.9971 C   0  0  0  0  0  0  0  0  0  0  0  0
   10.6869  -14.8418   24.0175 O   0  0  0  0  0  0  0  0  0  0  0  0
    9.2608  -19.6418   22.1767 O   0  0  0  0  0  0  0  0  0  0  0  0
    5.9924  -12.4076   25.7293 C   0  0  0  0  0  0  0  0  0  0  0  0
    7.2657  -13.1088   25.3571 C   0  0  0  0  0  0  0  0  0  0  0  0
    7.7997  -13.8846   26.5612 C   0  0  2  0  0  0  0  0  0  0  0  0
    8.0566  -12.9038   27.6586 C   0  0  0  0  0  0  0  0  0  0  0  0
    9.0427  -14.6614   26.1772 C   0  0  2  0  0  0  0  0  0  0  0  0
    8.7685  -15.5141   25.0589 N   0  0  0  0  0  0  0  0  0  0  0  0
    9.4884  -15.5397   27.2991 C   0  0  0  0  0  0  0  0  0  0  0  0
   10.4085  -15.1451   28.2509 O   0  0  0  0  0  0  0  0  0  0  0  0
    9.0033  -16.6942   27.3821 O   0  0  0  0  0  0  0  0  0  0  0  0
  2  3  1  6
  2  1  1  0
  4  2  1  0
  4  5  1  6
  6  7  2  0
  6  4  1  0
  8  6  1  0
  9  8  1  0
  9 10  1  6
 10 11  1  0
 11 12  2  0
 11 15  1  0
 13  9  1  0
 14 13  2  0
 16 17  1  0
 18 17  1  0
 18 20  1  0
 18 19  1  1
 20 21  1  6
 21 13  1  0
 22 20  1  0
 22 23  1  0
 24 22  2  0
M  END
$$$$
