VDI.pdb
     RDKit          3D

 24 23  0  0  1  0  0  0  0  0999 V2000
    8.3750  -12.2250   18.6530 C   0  0  0  0  0  0  0  0  0  0  0  0
    8.3292  -13.0706   19.9073 C   0  0  1  0  0  0  0  0  0  0  0  0
    7.1360  -12.7633   20.7599 C   0  0  0  0  0  0  0  0  0  0  0  0
    8.2900  -14.5160   19.4708 C   0  0  2  0  0  0  0  0  0  0  0  0
    7.2103  -14.8064   18.5821 N   0  0  0  0  0  0  0  0  0  0  0  0
    8.3178  -15.4386   20.6354 C   0  0  0  0  0  0  0  0  0  0  0  0
    7.2409  -15.9489   21.0344 O   0  0  0  0  0  0  0  0  0  0  0  0
    9.5001  -15.7847   21.3354 N   0  0  0  0  0  0  0  0  0  0  0  0
    9.4880  -16.5811   22.5474 C   0  0  1  0  0  0  0  0  0  0  0  0
   10.5602  -17.6441   22.5260 C   0  0  0  0  0  0  0  0  0  0  0  0
   10.5689  -18.4900   23.7189 C   0  0  0  0  0  0  0  0  0  0  0  0
   11.1437  -18.1904   24.7943 O   0  0  0  0  0  0  0  0  0  0  0  0
    9.6044  -15.6799   23.7078 C   0  0  0  0  0  0  0  0  0  0  0  0
   10.5710  -14.9026   23.8320 O   0  0  0  0  0  0  0  0  0  0  0  0
    9.9060  -19.7071   23.6841 O   0  0  0  0  0  0  0  0  0  0  0  0
    6.2976  -11.8692   25.3185 C   0  0  0  0  0  0  0  0  0  0  0  0
    7.6124  -12.5921   25.3226 C   0  0  0  0  0  0  0  0  0  0  0  0
    7.4419  -13.9718   25.9585 C   0  0  2  0  0  0  0  0  0  0  0  0
    7.0503  -13.7710   27.3863 C   0  0  0  0  0  0  0  0  0  0  0  0
    8.7172  -14.7777   25.8165 C   0  0  2  0  0  0  0  0  0  0  0  0
    8.6117  -15.6817   24.7100 N   0  0  0  0  0  0  0  0  0  0  0  0
    8.9625  -15.6037   27.0356 C   0  0  0  0  0  0  0  0  0  0  0  0
    8.7557  -16.9688   27.0802 O   0  0  0  0  0  0  0  0  0  0  0  0
    9.3773  -15.0299   28.0718 O   0  0  0  0  0  0  0  0  0  0  0  0
  2  3  1  6
  2  1  1  0
  4  2  1  0
  4  5  1  1
  6  7  2  0
  6  4  1  0
  8  6  1  0
  9  8  1  0
  9 10  1  6
 10 11  1  0
 11 12  2  0
 11 15  1  0
 13  9  1  0
 14 13  2  0
 16 17  1  0
 18 17  1  0
 18 20  1  0
 18 19  1  1
 20 21  1  6
 21 13  1  0
 22 20  1  0
 22 23  1  0
 24 22  2  0
M  END
$$$$
