VDI.pdb
     RDKit          3D

 24 23  0  0  1  0  0  0  0  0999 V2000
    7.9153  -12.3063   18.3722 C   0  0  0  0  0  0  0  0  0  0  0  0
    7.6780  -13.3695   19.4229 C   0  0  1  0  0  0  0  0  0  0  0  0
    7.0876  -14.6202   18.8466 C   0  0  0  0  0  0  0  0  0  0  0  0
    9.0139  -13.6771   20.0571 C   0  0  2  0  0  0  0  0  0  0  0  0
    9.9770  -14.1749   19.1274 N   0  0  0  0  0  0  0  0  0  0  0  0
    8.8653  -14.5677   21.2373 C   0  0  0  0  0  0  0  0  0  0  0  0
    8.0096  -14.2820   22.1124 O   0  0  0  0  0  0  0  0  0  0  0  0
    9.6392  -15.7368   21.4418 N   0  0  0  0  0  0  0  0  0  0  0  0
    9.4188  -16.6369   22.5574 C   0  0  1  0  0  0  0  0  0  0  0  0
   10.3003  -17.8597   22.4689 C   0  0  0  0  0  0  0  0  0  0  0  0
   10.0551  -18.8354   23.5304 C   0  0  0  0  0  0  0  0  0  0  0  0
    9.1537  -18.7258   24.3975 O   0  0  0  0  0  0  0  0  0  0  0  0
    9.6079  -15.8897   23.8136 C   0  0  0  0  0  0  0  0  0  0  0  0
   10.7301  -15.4690   24.1564 O   0  0  0  0  0  0  0  0  0  0  0  0
   10.8577  -19.9633   23.6043 O   0  0  0  0  0  0  0  0  0  0  0  0
    7.0414  -11.5261   26.8561 C   0  0  0  0  0  0  0  0  0  0  0  0
    7.9084  -12.7430   26.9926 C   0  0  0  0  0  0  0  0  0  0  0  0
    7.6545  -13.6927   25.8218 C   0  0  2  0  0  0  0  0  0  0  0  0
    6.2559  -14.2035   25.9436 C   0  0  0  0  0  0  0  0  0  0  0  0
    8.6796  -14.8087   25.8181 C   0  0  2  0  0  0  0  0  0  0  0  0
    8.5085  -15.6349   24.6600 N   0  0  0  0  0  0  0  0  0  0  0  0
    8.5121  -15.6883   27.0126 C   0  0  0  0  0  0  0  0  0  0  0  0
    8.9446  -15.3394   28.2772 O   0  0  0  0  0  0  0  0  0  0  0  0
    7.9504  -16.8003   26.8608 O   0  0  0  0  0  0  0  0  0  0  0  0
  2  3  1  6
  2  1  1  0
  4  2  1  0
  4  5  1  6
  6  7  2  0
  6  4  1  0
  8  6  1  0
  9  8  1  0
  9 10  1  6
 10 11  1  0
 11 12  2  0
 11 15  1  0
 13  9  1  0
 14 13  2  0
 16 17  1  0
 18 17  1  0
 18 20  1  0
 18 19  1  1
 20 21  1  6
 21 13  1  0
 22 20  1  0
 22 23  1  0
 24 22  2  0
M  END
$$$$
