VDI.pdb
     RDKit          3D

 24 23  0  0  1  0  0  0  0  0999 V2000
    8.0129  -12.7644   19.6257 C   0  0  0  0  0  0  0  0  0  0  0  0
    8.2367  -13.5420   20.9047 C   0  0  1  0  0  0  0  0  0  0  0  0
    7.1680  -13.2859   21.9232 C   0  0  0  0  0  0  0  0  0  0  0  0
    8.2573  -15.0074   20.5391 C   0  0  2  0  0  0  0  0  0  0  0  0
    7.0770  -15.4339   19.8572 N   0  0  0  0  0  0  0  0  0  0  0  0
    8.5593  -15.8596   21.7183 C   0  0  0  0  0  0  0  0  0  0  0  0
    7.6217  -16.4853   22.2742 O   0  0  0  0  0  0  0  0  0  0  0  0
    9.8577  -16.0139   22.2643 N   0  0  0  0  0  0  0  0  0  0  0  0
   10.1281  -16.8511   23.4173 C   0  0  1  0  0  0  0  0  0  0  0  0
   11.2508  -17.8244   23.1478 C   0  0  0  0  0  0  0  0  0  0  0  0
   11.5588  -18.6912   24.2846 C   0  0  0  0  0  0  0  0  0  0  0  0
   12.6507  -18.6836   24.9045 O   0  0  0  0  0  0  0  0  0  0  0  0
   10.3936  -15.9851   24.5799 C   0  0  0  0  0  0  0  0  0  0  0  0
   11.3697  -15.2103   24.6031 O   0  0  0  0  0  0  0  0  0  0  0  0
   10.5979  -19.5883   24.7249 O   0  0  0  0  0  0  0  0  0  0  0  0
    7.1127  -12.5959   26.1018 C   0  0  0  0  0  0  0  0  0  0  0  0
    8.3279  -13.4403   25.8539 C   0  0  0  0  0  0  0  0  0  0  0  0
    8.6529  -14.2583   27.1037 C   0  0  2  0  0  0  0  0  0  0  0  0
    8.9341  -13.3007   28.2156 C   0  0  0  0  0  0  0  0  0  0  0  0
    9.8174  -15.1899   26.8345 C   0  0  2  0  0  0  0  0  0  0  0  0
    9.5368  -16.0189   25.7001 N   0  0  0  0  0  0  0  0  0  0  0  0
   10.0497  -16.0995   27.9953 C   0  0  0  0  0  0  0  0  0  0  0  0
   10.9202  -15.8049   29.0265 O   0  0  0  0  0  0  0  0  0  0  0  0
    9.4231  -17.1861   28.0367 O   0  0  0  0  0  0  0  0  0  0  0  0
  2  3  1  1
  2  1  1  0
  4  2  1  0
  4  5  1  1
  6  7  2  0
  6  4  1  0
  8  6  1  0
  9  8  1  0
  9 10  1  6
 10 11  1  0
 11 12  2  0
 11 15  1  0
 13  9  1  0
 14 13  2  0
 16 17  1  0
 18 17  1  0
 18 20  1  0
 18 19  1  1
 20 21  1  6
 21 13  1  0
 22 20  1  0
 22 23  1  0
 24 22  2  0
M  END
$$$$
