KNC.pdb
     RDKit          3D

 24 23  0  0  1  0  0  0  0  0999 V2000
   24.9428  -18.4011  -15.2257 N   0  0  0  0  0  0  0  0  0  0  0  0
   24.0123  -19.3285  -14.5280 C   0  0  1  0  0  0  0  0  0  0  0  0
   23.4005  -20.1436  -15.6477 C   0  0  0  0  0  0  0  0  0  0  0  0
   22.7010  -19.3511  -16.6957 C   0  0  0  0  0  0  0  0  0  0  0  0
   21.4012  -18.7598  -16.2210 C   0  0  0  0  0  0  0  0  0  0  0  0
   20.6752  -18.0379  -17.3480 C   0  0  0  0  0  0  0  0  0  0  0  0
   19.4238  -17.4763  -16.8812 N   0  0  0  0  0  0  0  0  0  0  0  0
   24.8698  -20.1370  -13.6205 C   0  0  0  0  0  0  0  0  0  0  0  0
   24.3827  -21.0995  -12.9616 O   0  0  0  0  0  0  0  0  0  0  0  0
   30.7742  -20.6807  -11.8713 N   0  0  0  0  0  0  0  0  0  0  0  0
   29.4706  -21.2182  -12.0137 C   0  0  0  0  0  0  0  0  0  0  0  0
   29.1965  -22.2666  -11.3676 O   0  0  0  0  0  0  0  0  0  0  0  0
   28.4720  -20.5979  -12.8685 C   0  0  0  0  0  0  0  0  0  0  0  0
   27.0701  -20.5786  -12.4212 C   0  0  2  0  0  0  0  0  0  0  0  0
   26.2678  -19.8915  -13.4381 N   0  0  0  0  0  0  0  0  0  0  0  0
   26.7609  -20.1215  -11.0722 C   0  0  0  0  0  0  0  0  0  0  0  0
   27.3355  -19.0287  -10.6958 O   0  0  0  0  0  0  0  0  0  0  0  0
   25.9121  -20.7308  -10.1292 N   0  0  0  0  0  0  0  0  0  0  0  0
   26.3146  -20.7782   -8.7307 C   0  0  1  0  0  0  0  0  0  0  0  0
   26.9720  -19.5173   -8.2541 C   0  0  0  0  0  0  0  0  0  0  0  0
   26.9372  -19.3711   -6.4557 S   0  0  0  0  0  0  0  0  0  0  0  0
   25.0980  -20.9937   -7.8633 C   0  0  0  0  0  0  0  0  0  0  0  0
   23.9451  -20.9060   -8.3263 O   0  0  0  0  0  0  0  0  0  0  0  0
   25.2840  -21.2901   -6.5400 O   0  0  0  0  0  0  0  0  0  0  0  0
  2  1  1  6
  3  2  1  0
  4  3  1  0
  4  5  1  0
  5  6  1  0
  7  6  1  0
  8 15  1  0
  8  2  1  0
  9  8  2  0
 10 11  1  0
 11 13  1  0
 12 11  2  0
 14 13  1  6
 14 15  1  0
 14 16  1  0
 16 18  1  0
 16 17  2  0
 18 19  1  0
 19 20  1  1
 21 20  1  0
 22 19  1  0
 22 24  1  0
 23 22  2  0
M  END
$$$$
