KNC.pdb
     RDKit          3D

 24 23  0  0  1  0  0  0  0  0999 V2000
   28.3998  -22.5949  -16.5534 N   0  0  0  0  0  0  0  0  0  0  0  0
   28.2177  -21.2953  -15.8529 C   0  0  1  0  0  0  0  0  0  0  0  0
   27.8421  -20.3328  -16.9596 C   0  0  0  0  0  0  0  0  0  0  0  0
   28.9764  -19.8689  -17.8044 C   0  0  0  0  0  0  0  0  0  0  0  0
   29.4038  -20.8838  -18.8299 C   0  0  0  0  0  0  0  0  0  0  0  0
   30.5159  -20.3418  -19.7176 C   0  0  0  0  0  0  0  0  0  0  0  0
   30.4508  -18.8970  -19.8044 N   0  0  0  0  0  0  0  0  0  0  0  0
   27.1155  -21.5236  -14.8805 C   0  0  0  0  0  0  0  0  0  0  0  0
   26.1846  -22.3380  -15.1412 O   0  0  0  0  0  0  0  0  0  0  0  0
   25.7940  -20.2884   -8.9346 N   0  0  0  0  0  0  0  0  0  0  0  0
   25.5558  -20.9346  -10.1733 C   0  0  0  0  0  0  0  0  0  0  0  0
   24.5250  -21.6558  -10.2680 O   0  0  0  0  0  0  0  0  0  0  0  0
   26.4553  -20.7837  -11.3049 C   0  0  0  0  0  0  0  0  0  0  0  0
   25.9597  -21.1087  -12.6519 C   0  0  2  0  0  0  0  0  0  0  0  0
   27.0363  -20.8592  -13.6155 N   0  0  0  0  0  0  0  0  0  0  0  0
   24.6851  -20.5560  -13.0927 C   0  0  0  0  0  0  0  0  0  0  0  0
   24.7117  -19.3413  -13.5288 O   0  0  0  0  0  0  0  0  0  0  0  0
   23.4273  -21.1875  -13.0975 N   0  0  0  0  0  0  0  0  0  0  0  0
   22.2607  -20.4536  -13.5671 C   0  0  1  0  0  0  0  0  0  0  0  0
   22.1504  -20.3981  -15.0617 C   0  0  0  0  0  0  0  0  0  0  0  0
   20.6110  -19.6257  -15.6009 S   0  0  0  0  0  0  0  0  0  0  0  0
   21.0064  -21.1227  -13.0590 C   0  0  0  0  0  0  0  0  0  0  0  0
   21.0369  -22.2558  -12.5430 O   0  0  0  0  0  0  0  0  0  0  0  0
   19.8171  -20.4555  -13.1771 O   0  0  0  0  0  0  0  0  0  0  0  0
  2  1  1  6
  3  2  1  0
  4  3  1  0
  4  5  1  0
  5  6  1  0
  7  6  1  0
  8 15  1  0
  8  2  1  0
  9  8  2  0
 10 11  1  0
 11 13  1  0
 12 11  2  0
 14 13  1  1
 14 15  1  0
 14 16  1  0
 16 18  1  0
 16 17  2  0
 18 19  1  0
 19 20  1  6
 21 20  1  0
 22 19  1  0
 22 24  1  0
 23 22  2  0
M  END
$$$$
