KNC.pdb
     RDKit          3D

 24 23  0  0  1  0  0  0  0  0999 V2000
   23.1036  -19.6221  -16.7624 N   0  0  0  0  0  0  0  0  0  0  0  0
   23.3712  -19.0873  -15.4004 C   0  0  1  0  0  0  0  0  0  0  0  0
   22.0845  -19.3475  -14.6459 C   0  0  0  0  0  0  0  0  0  0  0  0
   20.9280  -19.7516  -15.4913 C   0  0  0  0  0  0  0  0  0  0  0  0
   20.6079  -21.2188  -15.3935 C   0  0  0  0  0  0  0  0  0  0  0  0
   19.3177  -21.5559  -16.1284 C   0  0  0  0  0  0  0  0  0  0  0  0
   18.9626  -22.9477  -15.9386 N   0  0  0  0  0  0  0  0  0  0  0  0
   24.5192  -19.8803  -14.8849 C   0  0  0  0  0  0  0  0  0  0  0  0
   24.6835  -21.0821  -15.2402 O   0  0  0  0  0  0  0  0  0  0  0  0
   29.1410  -21.2170  -12.4949 N   0  0  0  0  0  0  0  0  0  0  0  0
   29.0744  -19.9029  -13.0216 C   0  0  0  0  0  0  0  0  0  0  0  0
   30.1428  -19.2329  -13.0588 O   0  0  0  0  0  0  0  0  0  0  0  0
   27.8293  -19.3308  -13.5063 C   0  0  0  0  0  0  0  0  0  0  0  0
   26.6068  -20.1484  -13.4549 C   0  0  2  0  0  0  0  0  0  0  0  0
   25.4932  -19.3517  -13.9794 N   0  0  0  0  0  0  0  0  0  0  0  0
   26.2607  -20.8322  -12.2152 C   0  0  0  0  0  0  0  0  0  0  0  0
   26.0657  -22.1052  -12.3025 O   0  0  0  0  0  0  0  0  0  0  0  0
   26.1110  -20.2700  -10.9336 N   0  0  0  0  0  0  0  0  0  0  0  0
   25.4500  -21.0387   -9.8885 C   0  0  1  0  0  0  0  0  0  0  0  0
   25.9732  -20.7516   -8.5127 C   0  0  0  0  0  0  0  0  0  0  0  0
   27.7443  -20.4047   -8.5184 S   0  0  0  0  0  0  0  0  0  0  0  0
   23.9770  -20.7087   -9.8756 C   0  0  0  0  0  0  0  0  0  0  0  0
   23.5118  -19.7821  -10.5657 O   0  0  0  0  0  0  0  0  0  0  0  0
   23.1481  -21.4537   -9.0809 O   0  0  0  0  0  0  0  0  0  0  0  0
  2  1  1  6
  3  2  1  0
  4  3  1  0
  4  5  1  0
  5  6  1  0
  7  6  1  0
  8 15  1  0
  8  2  1  0
  9  8  2  0
 10 11  1  0
 11 13  1  0
 12 11  2  0
 14 13  1  1
 14 15  1  0
 14 16  1  0
 16 18  1  0
 16 17  2  0
 18 19  1  0
 19 20  1  1
 21 20  1  0
 22 19  1  0
 22 24  1  0
 23 22  2  0
M  END
$$$$
