KNC.pdb
     RDKit          3D

 24 23  0  0  1  0  0  0  0  0999 V2000
   24.6299  -22.4988  -18.0936 N   0  0  0  0  0  0  0  0  0  0  0  0
   24.9194  -23.4803  -17.0141 C   0  0  1  0  0  0  0  0  0  0  0  0
   26.3680  -23.2180  -16.6601 C   0  0  0  0  0  0  0  0  0  0  0  0
   27.3412  -24.1960  -17.2187 C   0  0  0  0  0  0  0  0  0  0  0  0
   27.2130  -25.5685  -16.6151 C   0  0  0  0  0  0  0  0  0  0  0  0
   28.2456  -26.5273  -17.1919 C   0  0  0  0  0  0  0  0  0  0  0  0
   28.1973  -27.8077  -16.5155 N   0  0  0  0  0  0  0  0  0  0  0  0
   23.9800  -23.1413  -15.9118 C   0  0  0  0  0  0  0  0  0  0  0  0
   23.9924  -23.7957  -14.8305 O   0  0  0  0  0  0  0  0  0  0  0  0
   21.6711  -19.7507  -12.2422 N   0  0  0  0  0  0  0  0  0  0  0  0
   21.3934  -19.6738  -13.6298 C   0  0  0  0  0  0  0  0  0  0  0  0
   20.3554  -19.0507  -13.9849 O   0  0  0  0  0  0  0  0  0  0  0  0
   22.2615  -20.2843  -14.6229 C   0  0  0  0  0  0  0  0  0  0  0  0
   22.1295  -21.7257  -14.8888 C   0  0  2  0  0  0  0  0  0  0  0  0
   23.0259  -22.0778  -15.9944 N   0  0  0  0  0  0  0  0  0  0  0  0
   20.7996  -22.2993  -15.0522 C   0  0  0  0  0  0  0  0  0  0  0  0
   20.2668  -22.1773  -16.2216 O   0  0  0  0  0  0  0  0  0  0  0  0
   20.0250  -22.9686  -14.0862 N   0  0  0  0  0  0  0  0  0  0  0  0
   18.7159  -23.4885  -14.4548 C   0  0  1  0  0  0  0  0  0  0  0  0
   18.2116  -24.5527  -13.5262 C   0  0  0  0  0  0  0  0  0  0  0  0
   19.3807  -25.9174  -13.3587 S   0  0  0  0  0  0  0  0  0  0  0  0
   17.7038  -22.3686  -14.4297 C   0  0  0  0  0  0  0  0  0  0  0  0
   17.9993  -21.2340  -14.0097 O   0  0  0  0  0  0  0  0  0  0  0  0
   16.4370  -22.6235  -14.8813 O   0  0  0  0  0  0  0  0  0  0  0  0
  2  1  1  6
  3  2  1  0
  4  3  1  0
  4  5  1  0
  5  6  1  0
  7  6  1  0
  8 15  1  0
  8  2  1  0
  9  8  2  0
 10 11  1  0
 11 13  1  0
 12 11  2  0
 14 13  1  6
 14 15  1  0
 14 16  1  0
 16 18  1  0
 16 17  2  0
 18 19  1  0
 19 20  1  1
 21 20  1  0
 22 19  1  0
 22 24  1  0
 23 22  2  0
M  END
$$$$
