KNC.pdb
     RDKit          3D

 24 23  0  0  1  0  0  0  0  0999 V2000
   27.4792  -13.9769  -22.0943 N   0  0  0  0  0  0  0  0  0  0  0  0
   26.7902  -13.1207  -21.0919 C   0  0  1  0  0  0  0  0  0  0  0  0
   26.6119  -14.0302  -19.8947 C   0  0  0  0  0  0  0  0  0  0  0  0
   25.6712  -15.1655  -20.0992 C   0  0  0  0  0  0  0  0  0  0  0  0
   25.5574  -16.0633  -18.8969 C   0  0  0  0  0  0  0  0  0  0  0  0
   24.6748  -17.2697  -19.1864 C   0  0  0  0  0  0  0  0  0  0  0  0
   24.5821  -18.1332  -18.0266 N   0  0  0  0  0  0  0  0  0  0  0  0
   27.7227  -11.9914  -20.8316 C   0  0  0  0  0  0  0  0  0  0  0  0
   28.9599  -12.1113  -21.0613 O   0  0  0  0  0  0  0  0  0  0  0  0
   27.6799   -8.7970  -22.9276 N   0  0  0  0  0  0  0  0  0  0  0  0
   27.1912   -8.0084  -21.8561 C   0  0  0  0  0  0  0  0  0  0  0  0
   26.5121   -6.9852  -22.1453 O   0  0  0  0  0  0  0  0  0  0  0  0
   27.4527   -8.3503  -20.4678 C   0  0  0  0  0  0  0  0  0  0  0  0
   28.2021   -9.5814  -20.1707 C   0  0  2  0  0  0  0  0  0  0  0  0
   27.2960  -10.7243  -20.3214 N   0  0  0  0  0  0  0  0  0  0  0  0
   28.9871   -9.6572  -18.9449 C   0  0  0  0  0  0  0  0  0  0  0  0
   28.6448  -10.5762  -18.1056 O   0  0  0  0  0  0  0  0  0  0  0  0
   30.0728   -8.8460  -18.5653 N   0  0  0  0  0  0  0  0  0  0  0  0
   30.9109   -9.2514  -17.4457 C   0  0  1  0  0  0  0  0  0  0  0  0
   31.8257  -10.3956  -17.7667 C   0  0  0  0  0  0  0  0  0  0  0  0
   30.9681  -11.9830  -17.7255 S   0  0  0  0  0  0  0  0  0  0  0  0
   31.7854   -8.0946  -17.0263 C   0  0  0  0  0  0  0  0  0  0  0  0
   32.0153   -7.1410  -17.7938 O   0  0  0  0  0  0  0  0  0  0  0  0
   32.3312   -8.1105  -15.7711 O   0  0  0  0  0  0  0  0  0  0  0  0
  2  1  1  6
  3  2  1  0
  4  3  1  0
  4  5  1  0
  5  6  1  0
  7  6  1  0
  8 15  1  0
  8  2  1  0
  9  8  2  0
 10 11  1  0
 11 13  1  0
 12 11  2  0
 14 13  1  1
 14 15  1  0
 14 16  1  0
 16 18  1  0
 16 17  2  0
 18 19  1  0
 19 20  1  6
 21 20  1  0
 22 19  1  0
 22 24  1  0
 23 22  2  0
M  END
$$$$
