KNC.pdb
     RDKit          3D

 24 23  0  0  1  0  0  0  0  0999 V2000
   27.3528  -23.2112  -17.3267 N   0  0  0  0  0  0  0  0  0  0  0  0
   28.6600  -22.5015  -17.3429 C   0  0  1  0  0  0  0  0  0  0  0  0
   28.6847  -21.8108  -18.6900 C   0  0  0  0  0  0  0  0  0  0  0  0
   28.5836  -22.7177  -19.8660 C   0  0  0  0  0  0  0  0  0  0  0  0
   27.1734  -23.1564  -20.1551 C   0  0  0  0  0  0  0  0  0  0  0  0
   27.1080  -24.0295  -21.4008 C   0  0  0  0  0  0  0  0  0  0  0  0
   25.7543  -24.4864  -21.6418 N   0  0  0  0  0  0  0  0  0  0  0  0
   28.6050  -21.5495  -16.2012 C   0  0  0  0  0  0  0  0  0  0  0  0
   29.4294  -20.5950  -16.1178 O   0  0  0  0  0  0  0  0  0  0  0  0
   28.0662  -17.7151  -14.5296 N   0  0  0  0  0  0  0  0  0  0  0  0
   27.1403  -18.1781  -15.4976 C   0  0  0  0  0  0  0  0  0  0  0  0
   26.8001  -17.3775  -16.4114 O   0  0  0  0  0  0  0  0  0  0  0  0
   26.5917  -19.5234  -15.4555 C   0  0  0  0  0  0  0  0  0  0  0  0
   27.1075  -20.4676  -14.4515 C   0  0  2  0  0  0  0  0  0  0  0  0
   27.6393  -21.6424  -15.1492 N   0  0  0  0  0  0  0  0  0  0  0  0
   26.2646  -20.8322  -13.3197 C   0  0  0  0  0  0  0  0  0  0  0  0
   25.2079  -21.5205  -13.5953 O   0  0  0  0  0  0  0  0  0  0  0  0
   26.4635  -20.5213  -11.9615 N   0  0  0  0  0  0  0  0  0  0  0  0
   25.4569  -20.9108  -10.9842 C   0  0  1  0  0  0  0  0  0  0  0  0
   25.7488  -20.4215   -9.5969 C   0  0  0  0  0  0  0  0  0  0  0  0
   24.4473  -20.8710   -8.4303 S   0  0  0  0  0  0  0  0  0  0  0  0
   24.1196  -20.3335  -11.3809 C   0  0  0  0  0  0  0  0  0  0  0  0
   24.0204  -19.1835  -11.8486 O   0  0  0  0  0  0  0  0  0  0  0  0
   23.0008  -21.1045  -11.2150 O   0  0  0  0  0  0  0  0  0  0  0  0
  2  1  1  6
  3  2  1  0
  4  3  1  0
  4  5  1  0
  5  6  1  0
  7  6  1  0
  8 15  1  0
  8  2  1  0
  9  8  2  0
 10 11  1  0
 11 13  1  0
 12 11  2  0
 14 13  1  6
 14 15  1  0
 14 16  1  0
 16 18  1  0
 16 17  2  0
 18 19  1  0
 19 20  1  1
 21 20  1  0
 22 19  1  0
 22 24  1  0
 23 22  2  0
M  END
$$$$
