KNC.pdb
     RDKit          3D

 24 23  0  0  1  0  0  0  0  0999 V2000
   20.2152  -13.7933  -16.8182 N   0  0  0  0  0  0  0  0  0  0  0  0
   19.0508  -12.8763  -16.9437 C   0  0  1  0  0  0  0  0  0  0  0  0
   17.8812  -13.7001  -16.4479 C   0  0  0  0  0  0  0  0  0  0  0  0
   17.5928  -14.9270  -17.2399 C   0  0  0  0  0  0  0  0  0  0  0  0
   16.3812  -15.6745  -16.7523 C   0  0  0  0  0  0  0  0  0  0  0  0
   16.0682  -16.8674  -17.6453 C   0  0  0  0  0  0  0  0  0  0  0  0
   15.0026  -17.6707  -17.0808 N   0  0  0  0  0  0  0  0  0  0  0  0
   19.3639  -11.7199  -16.0621 C   0  0  0  0  0  0  0  0  0  0  0  0
   20.2242  -11.8254  -15.1421 O   0  0  0  0  0  0  0  0  0  0  0  0
   22.1457   -7.1503  -15.2508 N   0  0  0  0  0  0  0  0  0  0  0  0
   21.2448   -8.0974  -14.7030 C   0  0  0  0  0  0  0  0  0  0  0  0
   21.0261   -8.0463  -13.4615 O   0  0  0  0  0  0  0  0  0  0  0  0
   20.5869   -9.0986  -15.5259 C   0  0  0  0  0  0  0  0  0  0  0  0
   19.1313   -9.2741  -15.3997 C   0  0  2  0  0  0  0  0  0  0  0  0
   18.7339  -10.4416  -16.1928 N   0  0  0  0  0  0  0  0  0  0  0  0
   18.2556   -8.1306  -15.6234 C   0  0  0  0  0  0  0  0  0  0  0  0
   18.1624   -7.7149  -16.8419 O   0  0  0  0  0  0  0  0  0  0  0  0
   17.5009   -7.4233  -14.6690 N   0  0  0  0  0  0  0  0  0  0  0  0
   16.6974   -6.2856  -15.0934 C   0  0  1  0  0  0  0  0  0  0  0  0
   15.4792   -6.0643  -14.2470 C   0  0  0  0  0  0  0  0  0  0  0  0
   14.6324   -4.5263  -14.6647 S   0  0  0  0  0  0  0  0  0  0  0  0
   17.5246   -5.0256  -15.0098 C   0  0  0  0  0  0  0  0  0  0  0  0
   18.2152   -4.7660  -14.0064 O   0  0  0  0  0  0  0  0  0  0  0  0
   17.5027   -4.1590  -16.0692 O   0  0  0  0  0  0  0  0  0  0  0  0
  2  1  1  1
  3  2  1  0
  4  3  1  0
  4  5  1  0
  5  6  1  0
  7  6  1  0
  8 15  1  0
  8  2  1  0
  9  8  2  0
 10 11  1  0
 11 13  1  0
 12 11  2  0
 14 13  1  6
 14 15  1  0
 14 16  1  0
 16 18  1  0
 16 17  2  0
 18 19  1  0
 19 20  1  1
 21 20  1  0
 22 19  1  0
 22 24  1  0
 23 22  2  0
M  END
$$$$
