KNC.pdb
     RDKit          3D

 24 23  0  0  1  0  0  0  0  0999 V2000
   33.9372  -27.1275  -19.6552 N   0  0  0  0  0  0  0  0  0  0  0  0
   32.7623  -27.9883  -19.3529 C   0  0  1  0  0  0  0  0  0  0  0  0
   33.3708  -29.2452  -18.7678 C   0  0  0  0  0  0  0  0  0  0  0  0
   33.6434  -30.3303  -19.7496 C   0  0  0  0  0  0  0  0  0  0  0  0
   32.4181  -30.7623  -20.5091 C   0  0  0  0  0  0  0  0  0  0  0  0
   32.7147  -31.9533  -21.4102 C   0  0  0  0  0  0  0  0  0  0  0  0
   31.5100  -32.4166  -22.0685 N   0  0  0  0  0  0  0  0  0  0  0  0
   31.9544  -27.2197  -18.3685 C   0  0  0  0  0  0  0  0  0  0  0  0
   30.9265  -27.7308  -17.8394 O   0  0  0  0  0  0  0  0  0  0  0  0
   34.1286  -26.1254  -14.6414 N   0  0  0  0  0  0  0  0  0  0  0  0
   32.7792  -25.7557  -14.8678 C   0  0  0  0  0  0  0  0  0  0  0  0
   31.8929  -26.3219  -14.1710 O   0  0  0  0  0  0  0  0  0  0  0  0
   32.4105  -24.7619  -15.8623 C   0  0  0  0  0  0  0  0  0  0  0  0
   31.5036  -25.1539  -16.9529 C   0  0  2  0  0  0  0  0  0  0  0  0
   32.2776  -25.8869  -17.9596 N   0  0  0  0  0  0  0  0  0  0  0  0
   30.6336  -24.1483  -17.5498 C   0  0  0  0  0  0  0  0  0  0  0  0
   31.1844  -23.3556  -18.4068 O   0  0  0  0  0  0  0  0  0  0  0  0
   29.2646  -23.9361  -17.3016 N   0  0  0  0  0  0  0  0  0  0  0  0
   28.5647  -22.8768  -18.0145 C   0  0  1  0  0  0  0  0  0  0  0  0
   28.3011  -23.1983  -19.4555 C   0  0  0  0  0  0  0  0  0  0  0  0
   27.2692  -21.9501  -20.2520 S   0  0  0  0  0  0  0  0  0  0  0  0
   27.2230  -22.6347  -17.3663 C   0  0  0  0  0  0  0  0  0  0  0  0
   26.5167  -21.6574  -17.6780 O   0  0  0  0  0  0  0  0  0  0  0  0
   26.7885  -23.5184  -16.4155 O   0  0  0  0  0  0  0  0  0  0  0  0
  2  1  1  1
  3  2  1  0
  4  3  1  0
  4  5  1  0
  5  6  1  0
  7  6  1  0
  8 15  1  0
  8  2  1  0
  9  8  2  0
 10 11  1  0
 11 13  1  0
 12 11  2  0
 14 13  1  1
 14 15  1  0
 14 16  1  0
 16 18  1  0
 16 17  2  0
 18 19  1  0
 19 20  1  6
 21 20  1  0
 22 19  1  0
 22 24  1  0
 23 22  2  0
M  END
$$$$
