KNC.pdb
     RDKit          3D

 24 23  0  0  1  0  0  0  0  0999 V2000
   19.7052  -22.0449  -13.8366 N   0  0  0  0  0  0  0  0  0  0  0  0
   20.2065  -20.8239  -13.1507 C   0  0  1  0  0  0  0  0  0  0  0  0
   20.3326  -21.2441  -11.7016 C   0  0  0  0  0  0  0  0  0  0  0  0
   19.0559  -21.6376  -11.0453 C   0  0  0  0  0  0  0  0  0  0  0  0
   18.5399  -22.9732  -11.5086 C   0  0  0  0  0  0  0  0  0  0  0  0
   17.2390  -23.3394  -10.8073 C   0  0  0  0  0  0  0  0  0  0  0  0
   16.7426  -24.6186  -11.2728 N   0  0  0  0  0  0  0  0  0  0  0  0
   21.5176  -20.5257  -13.7868 C   0  0  0  0  0  0  0  0  0  0  0  0
   22.2319  -19.5686  -13.3726 O   0  0  0  0  0  0  0  0  0  0  0  0
   24.7494  -23.5894  -13.5350 N   0  0  0  0  0  0  0  0  0  0  0  0
   24.9614  -22.4266  -14.3170 C   0  0  0  0  0  0  0  0  0  0  0  0
   25.8628  -21.6269  -13.9433 O   0  0  0  0  0  0  0  0  0  0  0  0
   24.1786  -22.1485  -15.5096 C   0  0  0  0  0  0  0  0  0  0  0  0
   23.3204  -20.9532  -15.5309 C   0  0  2  0  0  0  0  0  0  0  0  0
   22.0493  -21.2828  -14.8787 N   0  0  0  0  0  0  0  0  0  0  0  0
   23.1278  -20.2389  -16.7867 C   0  0  0  0  0  0  0  0  0  0  0  0
   22.1488  -20.6409  -17.5258 O   0  0  0  0  0  0  0  0  0  0  0  0
   23.8835  -19.1643  -17.2916 N   0  0  0  0  0  0  0  0  0  0  0  0
   23.4575  -18.5048  -18.5179 C   0  0  1  0  0  0  0  0  0  0  0  0
   22.2524  -17.6302  -18.3394 C   0  0  0  0  0  0  0  0  0  0  0  0
   22.3918  -16.5703  -16.8854 S   0  0  0  0  0  0  0  0  0  0  0  0
   24.5701  -17.6204  -19.0269 C   0  0  0  0  0  0  0  0  0  0  0  0
   25.6027  -17.4243  -18.3586 O   0  0  0  0  0  0  0  0  0  0  0  0
   24.4240  -17.0276  -20.2520 O   0  0  0  0  0  0  0  0  0  0  0  0
  2  1  1  6
  3  2  1  0
  4  3  1  0
  4  5  1  0
  5  6  1  0
  7  6  1  0
  8 15  1  0
  8  2  1  0
  9  8  2  0
 10 11  1  0
 11 13  1  0
 12 11  2  0
 14 13  1  6
 14 15  1  0
 14 16  1  0
 16 18  1  0
 16 17  2  0
 18 19  1  0
 19 20  1  1
 21 20  1  0
 22 19  1  0
 22 24  1  0
 23 22  2  0
M  END
$$$$
