WCC.pdb
     RDKit          3D

 27 28  0  0  1  0  0  0  0  0999 V2000
   28.4221  -21.7377  -10.0245 N   0  0  0  0  0  0  0  0  0  0  0  0
   27.1905  -20.9915   -9.8819 C   0  0  1  0  0  0  0  0  0  0  0  0
   27.4309  -19.6237   -9.2813 C   0  0  0  0  0  0  0  0  0  0  0  0
   28.2027  -19.6580   -8.0192 C   0  0  0  0  0  0  0  0  0  0  0  0
   29.5513  -19.3995   -7.8930 C   0  0  0  0  0  0  0  0  0  0  0  0
   29.9362  -19.5433   -6.5984 N   0  0  0  0  0  0  0  0  0  0  0  0
   28.8684  -19.8909   -5.8715 C   0  0  0  0  0  0  0  0  0  0  0  0
   28.7440  -20.1454   -4.5234 C   0  0  0  0  0  0  0  0  0  0  0  0
   27.5045  -20.4861   -4.0082 C   0  0  0  0  0  0  0  0  0  0  0  0
   26.4383  -20.5606   -4.8478 C   0  0  0  0  0  0  0  0  0  0  0  0
   26.5823  -20.3012   -6.2033 C   0  0  0  0  0  0  0  0  0  0  0  0
   27.7798  -19.9655   -6.7453 C   0  0  0  0  0  0  0  0  0  0  0  0
   26.5022  -20.9605  -11.1721 C   0  0  0  0  0  0  0  0  0  0  0  0
   27.1250  -20.6182  -12.2085 O   0  0  0  0  0  0  0  0  0  0  0  0
   25.1133  -21.3053  -11.3646 N   0  0  0  0  0  0  0  0  0  0  0  0
   24.4824  -21.1607  -12.6648 C   0  0  1  0  0  0  0  0  0  0  0  0
   24.4914  -22.5318  -13.3705 C   0  0  0  0  0  0  0  0  0  0  0  0
   25.1448  -23.8071  -12.2743 S   0  0  0  0  0  0  0  0  0  0  0  0
   23.1392  -20.5942  -12.6373 C   0  0  0  0  0  0  0  0  0  0  0  0
   22.4056  -20.8450  -11.6190 O   0  0  0  0  0  0  0  0  0  0  0  0
   22.5255  -19.7785  -13.6176 N   0  0  0  0  0  0  0  0  0  0  0  0
   21.2448  -19.1365  -13.4240 C   0  0  1  0  0  0  0  0  0  0  0  0
   21.2675  -17.6889  -13.8782 C   0  0  0  0  0  0  0  0  0  0  0  0
   21.7821  -17.6773  -15.6181 S   0  0  0  0  0  0  0  0  0  0  0  0
   20.1084  -19.8456  -14.0069 C   0  0  0  0  0  0  0  0  0  0  0  0
   20.3241  -20.7385  -14.8765 O   0  0  0  0  0  0  0  0  0  0  0  0
   18.7859  -19.6062  -13.6683 O   0  0  0  0  0  0  0  0  0  0  0  0
  2  1  1  6
  3  2  1  0
  3  4  1  0
  4  5  2  0
  6  5  1  0
  7  6  1  0
  8  7  2  0
  9  8  1  0
 10  9  2  0
 10 11  1  0
 11 12  2  0
 12  7  1  0
 12  4  1  0
 13 14  2  0
 13  2  1  0
 15 13  1  0
 16 15  1  0
 16 17  1  1
 18 17  1  0
 19 16  1  0
 19 21  1  0
 20 19  2  0
 22 21  1  0
 22 25  1  0
 22 23  1  6
 23 24  1  0
 25 26  2  0
 25 27  1  0
M  END
$$$$
