WCC.pdb
     RDKit          3D

 27 28  0  0  1  0  0  0  0  0999 V2000
   15.8058  -23.5628   -5.1185 N   0  0  0  0  0  0  0  0  0  0  0  0
   14.8208  -23.0268   -4.2039 C   0  0  1  0  0  0  0  0  0  0  0  0
   13.4142  -23.4111   -4.6076 C   0  0  0  0  0  0  0  0  0  0  0  0
   12.9738  -22.7961   -5.8795 C   0  0  0  0  0  0  0  0  0  0  0  0
   13.0760  -23.3702   -7.1291 C   0  0  0  0  0  0  0  0  0  0  0  0
   12.5973  -22.5210   -8.0748 N   0  0  0  0  0  0  0  0  0  0  0  0
   12.1827  -21.4009   -7.4724 C   0  0  0  0  0  0  0  0  0  0  0  0
   11.6210  -20.2560   -7.9935 C   0  0  0  0  0  0  0  0  0  0  0  0
   11.2676  -19.2240   -7.1405 C   0  0  0  0  0  0  0  0  0  0  0  0
   11.4839  -19.3668   -5.8063 C   0  0  0  0  0  0  0  0  0  0  0  0
   12.0511  -20.5271   -5.2989 C   0  0  0  0  0  0  0  0  0  0  0  0
   12.4113  -21.5592   -6.1024 C   0  0  0  0  0  0  0  0  0  0  0  0
   15.1754  -23.4203   -2.8405 C   0  0  0  0  0  0  0  0  0  0  0  0
   15.7528  -24.5170   -2.6331 O   0  0  0  0  0  0  0  0  0  0  0  0
   14.9097  -22.6235   -1.6660 N   0  0  0  0  0  0  0  0  0  0  0  0
   15.3328  -23.0705   -0.3504 C   0  0  1  0  0  0  0  0  0  0  0  0
   15.6054  -21.8310    0.5256 C   0  0  0  0  0  0  0  0  0  0  0  0
   16.6501  -22.2631    1.9316 S   0  0  0  0  0  0  0  0  0  0  0  0
   14.4143  -23.9888    0.3122 C   0  0  0  0  0  0  0  0  0  0  0  0
   13.1609  -23.7439    0.2292 O   0  0  0  0  0  0  0  0  0  0  0  0
   14.7389  -25.1494    1.0542 N   0  0  0  0  0  0  0  0  0  0  0  0
   13.7453  -25.9883    1.6858 C   0  0  1  0  0  0  0  0  0  0  0  0
   14.0229  -27.4616    1.4517 C   0  0  0  0  0  0  0  0  0  0  0  0
   14.3286  -27.6777   -0.3236 S   0  0  0  0  0  0  0  0  0  0  0  0
   13.5282  -25.7202    3.1052 C   0  0  0  0  0  0  0  0  0  0  0  0
   14.4091  -25.0810    3.7497 O   0  0  0  0  0  0  0  0  0  0  0  0
   12.4045  -26.1231    3.8096 O   0  0  0  0  0  0  0  0  0  0  0  0
  2  1  1  6
  3  2  1  0
  3  4  1  0
  4  5  2  0
  6  5  1  0
  7  6  1  0
  8  7  2  0
  9  8  1  0
 10  9  2  0
 10 11  1  0
 11 12  2  0
 12  7  1  0
 12  4  1  0
 13 14  2  0
 13  2  1  0
 15 13  1  0
 16 15  1  0
 16 17  1  1
 18 17  1  0
 19 16  1  0
 19 21  1  0
 20 19  2  0
 22 21  1  0
 22 25  1  0
 22 23  1  1
 23 24  1  0
 25 26  2  0
 25 27  1  0
M  END
$$$$
