WCC.pdb
     RDKit          3D

 27 28  0  0  1  0  0  0  0  0999 V2000
   26.4397  -33.8936  -13.2636 N   0  0  0  0  0  0  0  0  0  0  0  0
   25.9122  -34.5125  -12.0666 C   0  0  1  0  0  0  0  0  0  0  0  0
   26.5158  -35.8797  -11.8305 C   0  0  0  0  0  0  0  0  0  0  0  0
   26.0135  -36.9174  -12.7581 C   0  0  0  0  0  0  0  0  0  0  0  0
   26.6852  -37.4071  -13.8583 C   0  0  0  0  0  0  0  0  0  0  0  0
   25.9236  -38.3319  -14.4983 N   0  0  0  0  0  0  0  0  0  0  0  0
   24.7655  -38.4599  -13.8413 C   0  0  0  0  0  0  0  0  0  0  0  0
   23.6762  -39.2658  -14.0900 C   0  0  0  0  0  0  0  0  0  0  0  0
   22.5845  -39.2134  -13.2397 C   0  0  0  0  0  0  0  0  0  0  0  0
   22.6150  -38.3661  -12.1775 C   0  0  0  0  0  0  0  0  0  0  0  0
   23.7207  -37.5613  -11.9424 C   0  0  0  0  0  0  0  0  0  0  0  0
   24.8083  -37.5835  -12.7530 C   0  0  0  0  0  0  0  0  0  0  0  0
   26.0756  -33.5897  -10.9436 C   0  0  0  0  0  0  0  0  0  0  0  0
   27.2151  -33.1437  -10.6575 O   0  0  0  0  0  0  0  0  0  0  0  0
   24.9961  -33.1273  -10.1035 N   0  0  0  0  0  0  0  0  0  0  0  0
   25.2575  -32.2847   -8.9497 C   0  0  1  0  0  0  0  0  0  0  0  0
   24.0344  -31.3742   -8.7190 C   0  0  0  0  0  0  0  0  0  0  0  0
   24.2845  -30.3281   -7.2705 S   0  0  0  0  0  0  0  0  0  0  0  0
   25.6137  -33.0025   -7.7317 C   0  0  0  0  0  0  0  0  0  0  0  0
   24.8307  -33.9346   -7.3367 O   0  0  0  0  0  0  0  0  0  0  0  0
   26.7461  -32.7972   -6.9079 N   0  0  0  0  0  0  0  0  0  0  0  0
   26.9545  -33.4974   -5.6605 C   0  0  1  0  0  0  0  0  0  0  0  0
   28.2786  -33.1234   -5.0206 C   0  0  0  0  0  0  0  0  0  0  0  0
   28.8785  -34.5849   -4.1284 S   0  0  0  0  0  0  0  0  0  0  0  0
   25.8612  -33.3772   -4.6991 C   0  0  0  0  0  0  0  0  0  0  0  0
   25.0569  -32.4067   -4.8042 O   0  0  0  0  0  0  0  0  0  0  0  0
   25.6375  -34.2677   -3.6609 O   0  0  0  0  0  0  0  0  0  0  0  0
  2  1  1  6
  3  2  1  0
  3  4  1  0
  4  5  2  0
  6  5  1  0
  7  6  1  0
  8  7  2  0
  9  8  1  0
 10  9  2  0
 10 11  1  0
 11 12  2  0
 12  7  1  0
 12  4  1  0
 13 14  2  0
 13  2  1  0
 15 13  1  0
 16 15  1  0
 16 17  1  1
 18 17  1  0
 19 16  1  0
 19 21  1  0
 20 19  2  0
 22 21  1  0
 22 25  1  0
 22 23  1  1
 23 24  1  0
 25 26  2  0
 25 27  1  0
M  END
$$$$
