WCC.pdb
     RDKit          3D

 27 28  0  0  1  0  0  0  0  0999 V2000
   25.0903  -20.7982  -13.2311 N   0  0  0  0  0  0  0  0  0  0  0  0
   23.8217  -20.3971  -12.6622 C   0  0  1  0  0  0  0  0  0  0  0  0
   22.6827  -20.5948  -13.6383 C   0  0  0  0  0  0  0  0  0  0  0  0
   22.7815  -19.7433  -14.8445 C   0  0  0  0  0  0  0  0  0  0  0  0
   23.9404  -19.4557  -15.5341 C   0  0  0  0  0  0  0  0  0  0  0  0
   23.6716  -18.6264  -16.5757 N   0  0  0  0  0  0  0  0  0  0  0  0
   22.3602  -18.3633  -16.5846 C   0  0  0  0  0  0  0  0  0  0  0  0
   21.6058  -17.5863  -17.4361 C   0  0  0  0  0  0  0  0  0  0  0  0
   20.2406  -17.4809  -17.2292 C   0  0  0  0  0  0  0  0  0  0  0  0
   19.6771  -18.1491  -16.1885 C   0  0  0  0  0  0  0  0  0  0  0  0
   20.4524  -18.9271  -15.3407 C   0  0  0  0  0  0  0  0  0  0  0  0
   21.7924  -19.0542  -15.5101 C   0  0  0  0  0  0  0  0  0  0  0  0
   23.6353  -21.0857  -11.3853 C   0  0  0  0  0  0  0  0  0  0  0  0
   23.4967  -22.3344  -11.3591 O   0  0  0  0  0  0  0  0  0  0  0  0
   23.5974  -20.4272  -10.1008 N   0  0  0  0  0  0  0  0  0  0  0  0
   23.3562  -21.1812   -8.8831 C   0  0  1  0  0  0  0  0  0  0  0  0
   24.1504  -20.5269   -7.7345 C   0  0  0  0  0  0  0  0  0  0  0  0
   25.8771  -20.2984   -8.2048 S   0  0  0  0  0  0  0  0  0  0  0  0
   21.9515  -21.3392   -8.5254 C   0  0  0  0  0  0  0  0  0  0  0  0
   21.1142  -20.4993   -9.0063 O   0  0  0  0  0  0  0  0  0  0  0  0
   21.3783  -22.3303   -7.6935 N   0  0  0  0  0  0  0  0  0  0  0  0
   19.9525  -22.4774   -7.5051 C   0  0  1  0  0  0  0  0  0  0  0  0
   19.2605  -22.9239   -8.7795 C   0  0  0  0  0  0  0  0  0  0  0  0
   18.5643  -24.5700   -8.4671 S   0  0  0  0  0  0  0  0  0  0  0  0
   19.5663  -23.3255   -6.3802 C   0  0  0  0  0  0  0  0  0  0  0  0
   20.3565  -24.2376   -6.0010 O   0  0  0  0  0  0  0  0  0  0  0  0
   18.3739  -23.1995   -5.6850 O   0  0  0  0  0  0  0  0  0  0  0  0
  2  1  1  6
  3  2  1  0
  3  4  1  0
  4  5  2  0
  6  5  1  0
  7  6  1  0
  8  7  2  0
  9  8  1  0
 10  9  2  0
 10 11  1  0
 11 12  2  0
 12  7  1  0
 12  4  1  0
 13 14  2  0
 13  2  1  0
 15 13  1  0
 16 15  1  0
 16 17  1  1
 18 17  1  0
 19 16  1  0
 19 21  1  0
 20 19  2  0
 22 21  1  0
 22 25  1  0
 22 23  1  6
 23 24  1  0
 25 26  2  0
 25 27  1  0
M  END
$$$$
