NVV.pdb
     RDKit          3D

 23 22  0  0  1  0  0  0  0  0999 V2000
   11.7129  -17.2386   17.4051 N   0  0  0  0  0  0  0  0  0  0  0  0
   11.8723  -16.4457   18.5615 C   0  0  0  0  0  0  0  0  0  0  0  0
   13.0097  -15.9545   18.7799 O   0  0  0  0  0  0  0  0  0  0  0  0
   10.7174  -16.2184   19.4684 C   0  0  0  0  0  0  0  0  0  0  0  0
   11.0606  -16.8117   20.8065 C   0  0  2  0  0  0  0  0  0  0  0  0
   10.9234  -18.2346   20.8116 N   0  0  0  0  0  0  0  0  0  0  0  0
   10.2796  -16.2222   21.9125 C   0  0  0  0  0  0  0  0  0  0  0  0
   10.2959  -14.9794   22.1095 O   0  0  0  0  0  0  0  0  0  0  0  0
    6.6433  -17.4469   23.0323 C   0  0  0  0  0  0  0  0  0  0  0  0
    7.5940  -17.3524   24.2025 C   0  0  1  0  0  0  0  0  0  0  0  0
    8.0737  -18.7524   24.5149 C   0  0  0  0  0  0  0  0  0  0  0  0
    8.7733  -16.4294   23.8710 C   0  0  2  0  0  0  0  0  0  0  0  0
    9.4874  -17.0282   22.7884 N   0  0  0  0  0  0  0  0  0  0  0  0
    9.5903  -16.2871   25.1015 C   0  0  0  0  0  0  0  0  0  0  0  0
   10.6557  -16.9459   25.2185 O   0  0  0  0  0  0  0  0  0  0  0  0
    9.4126  -12.8340   27.3699 C   0  0  0  0  0  0  0  0  0  0  0  0
    9.6117  -14.0817   28.1996 C   0  0  2  0  0  0  0  0  0  0  0  0
   10.5216  -13.7953   29.3530 C   0  0  0  0  0  0  0  0  0  0  0  0
   10.0511  -15.2581   27.3648 C   0  0  2  0  0  0  0  0  0  0  0  0
    9.2500  -15.4417   26.1833 N   0  0  0  0  0  0  0  0  0  0  0  0
    9.9632  -16.4657   28.2288 C   0  0  0  0  0  0  0  0  0  0  0  0
    8.9051  -17.1447   28.2105 O   0  0  0  0  0  0  0  0  0  0  0  0
   10.9832  -16.8902   29.0577 O   0  0  0  0  0  0  0  0  0  0  0  0
  1  2  1  0
  2  3  2  0
  4  5  1  0
  4  2  1  0
  5  6  1  6
  7  8  2  0
  7  5  1  0
 10  9  1  6
 10 12  1  0
 10 11  1  0
 12 13  1  6
 13  7  1  0
 14 20  1  0
 14 12  1  0
 15 14  2  0
 17 16  1  6
 17 19  1  0
 18 17  1  0
 19 20  1  6
 19 21  1  0
 21 23  1  0
 22 21  2  0
M  END
$$$$
