NVV.pdb
     RDKit          3D

 23 22  0  0  1  0  0  0  0  0999 V2000
   13.9542  -17.6267   18.0946 N   0  0  0  0  0  0  0  0  0  0  0  0
   12.6083  -17.7507   18.5002 C   0  0  0  0  0  0  0  0  0  0  0  0
   11.9938  -18.7979   18.1709 O   0  0  0  0  0  0  0  0  0  0  0  0
   11.9692  -16.6647   19.2876 C   0  0  0  0  0  0  0  0  0  0  0  0
   11.4331  -17.2706   20.5549 C   0  0  2  0  0  0  0  0  0  0  0  0
   10.3743  -18.1962   20.2987 N   0  0  0  0  0  0  0  0  0  0  0  0
   10.9952  -16.2566   21.5350 C   0  0  0  0  0  0  0  0  0  0  0  0
   11.7505  -15.2957   21.8350 O   0  0  0  0  0  0  0  0  0  0  0  0
    7.3687  -14.7078   21.7288 C   0  0  0  0  0  0  0  0  0  0  0  0
    7.8109  -15.2170   23.0807 C   0  0  1  0  0  0  0  0  0  0  0  0
    7.1450  -16.5567   23.3038 C   0  0  0  0  0  0  0  0  0  0  0  0
    9.3381  -15.3467   23.1391 C   0  0  2  0  0  0  0  0  0  0  0  0
    9.7166  -16.3263   22.1708 N   0  0  0  0  0  0  0  0  0  0  0  0
    9.7024  -15.7264   24.5267 C   0  0  0  0  0  0  0  0  0  0  0  0
   10.0944  -16.8974   24.7669 O   0  0  0  0  0  0  0  0  0  0  0  0
   10.6299  -14.2713   29.2492 C   0  0  0  0  0  0  0  0  0  0  0  0
   10.0273  -13.9706   27.8959 C   0  0  2  0  0  0  0  0  0  0  0  0
    8.6169  -13.4948   28.0527 C   0  0  0  0  0  0  0  0  0  0  0  0
   10.1689  -15.1269   26.9384 C   0  0  2  0  0  0  0  0  0  0  0  0
    9.6397  -14.8439   25.6303 N   0  0  0  0  0  0  0  0  0  0  0  0
    9.4482  -16.2823   27.5370 C   0  0  0  0  0  0  0  0  0  0  0  0
    8.2773  -16.5286   27.1508 O   0  0  0  0  0  0  0  0  0  0  0  0
    9.9928  -17.1087   28.5005 O   0  0  0  0  0  0  0  0  0  0  0  0
  1  2  1  0
  2  3  2  0
  4  5  1  0
  4  2  1  0
  5  6  1  6
  7  8  2  0
  7  5  1  0
 10  9  1  6
 10 12  1  0
 10 11  1  0
 12 13  1  6
 13  7  1  0
 14 20  1  0
 14 12  1  0
 15 14  2  0
 17 16  1  1
 17 19  1  0
 18 17  1  0
 19 20  1  6
 19 21  1  0
 21 23  1  0
 22 21  2  0
M  END
$$$$
