NVV.pdb
     RDKit          3D

 23 22  0  0  1  0  0  0  0  0999 V2000
   14.2784  -16.7688   18.9003 N   0  0  0  0  0  0  0  0  0  0  0  0
   12.9817  -17.2349   19.2045 C   0  0  0  0  0  0  0  0  0  0  0  0
   12.6575  -18.3749   18.7827 O   0  0  0  0  0  0  0  0  0  0  0  0
   12.0562  -16.3845   19.9972 C   0  0  0  0  0  0  0  0  0  0  0  0
   11.5368  -17.2123   21.1397 C   0  0  2  0  0  0  0  0  0  0  0  0
   10.5312  -18.1361   20.7168 N   0  0  0  0  0  0  0  0  0  0  0  0
   11.0341  -16.3922   22.2601 C   0  0  0  0  0  0  0  0  0  0  0  0
   11.7431  -15.4696   22.7398 O   0  0  0  0  0  0  0  0  0  0  0  0
    7.3287  -17.2655   24.3823 C   0  0  0  0  0  0  0  0  0  0  0  0
    7.7309  -15.8932   23.8951 C   0  0  1  0  0  0  0  0  0  0  0  0
    7.1107  -14.8776   24.8287 C   0  0  0  0  0  0  0  0  0  0  0  0
    9.2580  -15.7527   23.8675 C   0  0  2  0  0  0  0  0  0  0  0  0
    9.7430  -16.6111   22.8339 N   0  0  0  0  0  0  0  0  0  0  0  0
    9.7654  -16.1158   25.2139 C   0  0  0  0  0  0  0  0  0  0  0  0
   10.3341  -17.2250   25.3843 O   0  0  0  0  0  0  0  0  0  0  0  0
   10.5972  -13.0919   27.9951 C   0  0  0  0  0  0  0  0  0  0  0  0
   10.1381  -14.4010   28.5954 C   0  0  2  0  0  0  0  0  0  0  0  0
   10.8296  -14.6411   29.9010 C   0  0  0  0  0  0  0  0  0  0  0  0
   10.2669  -15.5494   27.6267 C   0  0  2  0  0  0  0  0  0  0  0  0
    9.6537  -15.2834   26.3521 N   0  0  0  0  0  0  0  0  0  0  0  0
    9.6242  -16.7316   28.2607 C   0  0  0  0  0  0  0  0  0  0  0  0
    8.3961  -16.9242   28.0719 O   0  0  0  0  0  0  0  0  0  0  0  0
   10.3014  -17.6391   29.0517 O   0  0  0  0  0  0  0  0  0  0  0  0
  1  2  1  0
  2  3  2  0
  4  5  1  0
  4  2  1  0
  5  6  1  6
  7  8  2  0
  7  5  1  0
 10  9  1  1
 10 12  1  0
 10 11  1  0
 12 13  1  6
 13  7  1  0
 14 20  1  0
 14 12  1  0
 15 14  2  0
 17 16  1  6
 17 19  1  0
 18 17  1  0
 19 20  1  6
 19 21  1  0
 21 23  1  0
 22 21  2  0
M  END
$$$$
