NVV.pdb
     RDKit          3D

 23 22  0  0  1  0  0  0  0  0999 V2000
   12.9298  -19.1125   19.1205 N   0  0  0  0  0  0  0  0  0  0  0  0
   13.5324  -18.3198   20.1204 C   0  0  0  0  0  0  0  0  0  0  0  0
   14.7083  -18.6070   20.4629 O   0  0  0  0  0  0  0  0  0  0  0  0
   12.7773  -17.1929   20.7270 C   0  0  0  0  0  0  0  0  0  0  0  0
   11.4136  -17.1609   20.0947 C   0  0  2  0  0  0  0  0  0  0  0  0
   11.4372  -16.5477   18.8036 N   0  0  0  0  0  0  0  0  0  0  0  0
   10.4007  -16.5083   20.9485 C   0  0  0  0  0  0  0  0  0  0  0  0
   10.2501  -15.2593   20.9134 O   0  0  0  0  0  0  0  0  0  0  0  0
    6.2987  -17.0197   23.6108 C   0  0  0  0  0  0  0  0  0  0  0  0
    7.3490  -17.5529   22.6648 C   0  0  1  0  0  0  0  0  0  0  0  0
    6.7033  -17.7060   21.3056 C   0  0  0  0  0  0  0  0  0  0  0  0
    8.5515  -16.6031   22.5973 C   0  0  2  0  0  0  0  0  0  0  0  0
    9.5654  -17.2584   21.8337 N   0  0  0  0  0  0  0  0  0  0  0  0
    8.9685  -16.3089   23.9907 C   0  0  0  0  0  0  0  0  0  0  0  0
    9.7946  -17.0651   24.5638 O   0  0  0  0  0  0  0  0  0  0  0  0
    8.5987  -12.4506   25.6663 C   0  0  0  0  0  0  0  0  0  0  0  0
    8.3154  -13.6062   26.5986 C   0  0  2  0  0  0  0  0  0  0  0  0
    8.7468  -13.2647   27.9905 C   0  0  0  0  0  0  0  0  0  0  0  0
    8.8927  -14.9036   26.0913 C   0  0  2  0  0  0  0  0  0  0  0  0
    8.4924  -15.2100   24.7433 N   0  0  0  0  0  0  0  0  0  0  0  0
    8.4333  -15.9774   27.0124 C   0  0  0  0  0  0  0  0  0  0  0  0
    7.3096  -16.5046   26.8114 O   0  0  0  0  0  0  0  0  0  0  0  0
    9.1735  -16.4347   28.0851 O   0  0  0  0  0  0  0  0  0  0  0  0
  1  2  1  0
  2  3  2  0
  4  5  1  0
  4  2  1  0
  5  6  1  6
  7  8  2  0
  7  5  1  0
 10  9  1  1
 10 12  1  0
 10 11  1  0
 12 13  1  6
 13  7  1  0
 14 20  1  0
 14 12  1  0
 15 14  2  0
 17 16  1  6
 17 19  1  0
 18 17  1  0
 19 20  1  6
 19 21  1  0
 21 23  1  0
 22 21  2  0
M  END
$$$$
