NVV.pdb
     RDKit          3D

 23 22  0  0  1  0  0  0  0  0999 V2000
    6.5294  -20.8269   25.8899 N   0  0  0  0  0  0  0  0  0  0  0  0
    6.1538  -20.1337   24.7195 C   0  0  0  0  0  0  0  0  0  0  0  0
    5.3398  -20.6973   23.9434 O   0  0  0  0  0  0  0  0  0  0  0  0
    6.7182  -18.7871   24.4433 C   0  0  0  0  0  0  0  0  0  0  0  0
    7.0706  -18.7278   22.9829 C   0  0  2  0  0  0  0  0  0  0  0  0
    7.7123  -19.9254   22.5386 N   0  0  0  0  0  0  0  0  0  0  0  0
    7.8955  -17.5521   22.6393 C   0  0  0  0  0  0  0  0  0  0  0  0
    9.1512  -17.6218   22.6863 O   0  0  0  0  0  0  0  0  0  0  0  0
    6.0067  -13.8874   21.6844 C   0  0  0  0  0  0  0  0  0  0  0  0
    7.3290  -14.2464   21.0482 C   0  0  1  0  0  0  0  0  0  0  0  0
    8.0785  -12.9572   20.7949 C   0  0  0  0  0  0  0  0  0  0  0  0
    8.1350  -15.1795   21.9605 C   0  0  2  0  0  0  0  0  0  0  0  0
    7.3085  -16.3091   22.2462 N   0  0  0  0  0  0  0  0  0  0  0  0
    8.5086  -14.4082   23.1720 C   0  0  0  0  0  0  0  0  0  0  0  0
    9.3155  -13.4482   23.0720 O   0  0  0  0  0  0  0  0  0  0  0  0
    6.2827  -12.4815   25.1865 C   0  0  0  0  0  0  0  0  0  0  0  0
    7.0794  -13.2361   26.2261 C   0  0  2  0  0  0  0  0  0  0  0  0
    7.3834  -12.3459   27.3903 C   0  0  0  0  0  0  0  0  0  0  0  0
    8.3010  -13.8976   25.6398 C   0  0  2  0  0  0  0  0  0  0  0  0
    8.0105  -14.6805   24.4676 N   0  0  0  0  0  0  0  0  0  0  0  0
    8.8794  -14.7673   26.6989 C   0  0  0  0  0  0  0  0  0  0  0  0
    9.3456  -14.2277   27.7345 O   0  0  0  0  0  0  0  0  0  0  0  0
    8.9357  -16.1446   26.6127 O   0  0  0  0  0  0  0  0  0  0  0  0
  1  2  1  0
  2  3  2  0
  4  5  1  0
  4  2  1  0
  5  6  1  1
  7  8  2  0
  7  5  1  0
 10  9  1  1
 10 12  1  0
 10 11  1  0
 12 13  1  1
 13  7  1  0
 14 20  1  0
 14 12  1  0
 15 14  2  0
 17 16  1  6
 17 19  1  0
 18 17  1  0
 19 20  1  6
 19 21  1  0
 21 23  1  0
 22 21  2  0
M  END
$$$$
