NVV.pdb
     RDKit          3D

 23 22  0  0  1  0  0  0  0  0999 V2000
   15.3869  -16.0466   19.6027 N   0  0  0  0  0  0  0  0  0  0  0  0
   14.0971  -16.6159   19.5432 C   0  0  0  0  0  0  0  0  0  0  0  0
   13.9733  -17.7196   18.9523 O   0  0  0  0  0  0  0  0  0  0  0  0
   12.9471  -15.9110   20.1665 C   0  0  0  0  0  0  0  0  0  0  0  0
   12.3660  -16.8183   21.2151 C   0  0  2  0  0  0  0  0  0  0  0  0
   11.5010  -17.8053   20.6483 N   0  0  0  0  0  0  0  0  0  0  0  0
   11.6639  -16.0820   22.2854 C   0  0  0  0  0  0  0  0  0  0  0  0
   12.2611  -15.1860   22.9369 O   0  0  0  0  0  0  0  0  0  0  0  0
    7.3572  -15.0283   24.4883 C   0  0  0  0  0  0  0  0  0  0  0  0
    8.1348  -15.8204   23.4636 C   0  0  1  0  0  0  0  0  0  0  0  0
    7.6791  -15.3669   22.0945 C   0  0  0  0  0  0  0  0  0  0  0  0
    9.6429  -15.6036   23.6397 C   0  0  2  0  0  0  0  0  0  0  0  0
   10.3002  -16.3544   22.6175 N   0  0  0  0  0  0  0  0  0  0  0  0
   10.0017  -16.0449   25.0103 C   0  0  0  0  0  0  0  0  0  0  0  0
   10.3405  -17.2402   25.2085 O   0  0  0  0  0  0  0  0  0  0  0  0
    8.9068  -14.0560   28.6868 C   0  0  0  0  0  0  0  0  0  0  0  0
   10.3475  -14.4524   28.4584 C   0  0  2  0  0  0  0  0  0  0  0  0
   11.1701  -13.2450   28.1330 C   0  0  0  0  0  0  0  0  0  0  0  0
   10.4807  -15.5616   27.4456 C   0  0  2  0  0  0  0  0  0  0  0  0
    9.9905  -15.1970   26.1424 N   0  0  0  0  0  0  0  0  0  0  0  0
    9.7150  -16.7254   27.9671 C   0  0  0  0  0  0  0  0  0  0  0  0
    8.5620  -16.9408   27.5141 O   0  0  0  0  0  0  0  0  0  0  0  0
   10.1986  -17.5918   28.9279 O   0  0  0  0  0  0  0  0  0  0  0  0
  1  2  1  0
  2  3  2  0
  4  5  1  0
  4  2  1  0
  5  6  1  6
  7  8  2  0
  7  5  1  0
 10  9  1  1
 10 12  1  0
 10 11  1  0
 12 13  1  6
 13  7  1  0
 14 20  1  0
 14 12  1  0
 15 14  2  0
 17 16  1  6
 17 19  1  0
 18 17  1  0
 19 20  1  6
 19 21  1  0
 21 23  1  0
 22 21  2  0
M  END
$$$$
