NVV.pdb
     RDKit          3D

 23 22  0  0  1  0  0  0  0  0999 V2000
   13.8343  -18.0630   20.8422 N   0  0  0  0  0  0  0  0  0  0  0  0
   13.6874  -16.8304   20.1710 C   0  0  0  0  0  0  0  0  0  0  0  0
   14.5580  -16.5241   19.3162 O   0  0  0  0  0  0  0  0  0  0  0  0
   12.5337  -15.9486   20.4864 C   0  0  0  0  0  0  0  0  0  0  0  0
   11.2784  -16.7613   20.3299 C   0  0  2  0  0  0  0  0  0  0  0  0
   10.9544  -16.9854   18.9558 N   0  0  0  0  0  0  0  0  0  0  0  0
   10.1223  -16.1722   21.0348 C   0  0  0  0  0  0  0  0  0  0  0  0
    9.6811  -15.0428   20.6977 O   0  0  0  0  0  0  0  0  0  0  0  0
    7.8904  -18.4311   23.9043 C   0  0  0  0  0  0  0  0  0  0  0  0
    7.3243  -17.3326   23.0354 C   0  0  1  0  0  0  0  0  0  0  0  0
    6.1116  -16.7702   23.7431 C   0  0  0  0  0  0  0  0  0  0  0  0
    8.3723  -16.2399   22.7899 C   0  0  2  0  0  0  0  0  0  0  0  0
    9.4699  -16.8516   22.1104 N   0  0  0  0  0  0  0  0  0  0  0  0
    8.7455  -15.6729   24.1096 C   0  0  0  0  0  0  0  0  0  0  0  0
    9.7524  -16.1221   24.7154 O   0  0  0  0  0  0  0  0  0  0  0  0
    6.0584  -13.1615   26.4030 C   0  0  0  0  0  0  0  0  0  0  0  0
    7.5437  -12.8810   26.4065 C   0  0  2  0  0  0  0  0  0  0  0  0
    7.8467  -11.6918   25.5495 C   0  0  0  0  0  0  0  0  0  0  0  0
    8.3558  -14.1008   26.0512 C   0  0  2  0  0  0  0  0  0  0  0  0
    8.0326  -14.6354   24.7547 N   0  0  0  0  0  0  0  0  0  0  0  0
    8.0934  -15.1226   27.0999 C   0  0  0  0  0  0  0  0  0  0  0  0
    7.2338  -16.0118   26.8740 O   0  0  0  0  0  0  0  0  0  0  0  0
    8.7432  -15.1537   28.3183 O   0  0  0  0  0  0  0  0  0  0  0  0
  1  2  1  0
  2  3  2  0
  4  5  1  0
  4  2  1  0
  5  6  1  6
  7  8  2  0
  7  5  1  0
 10  9  1  1
 10 12  1  0
 10 11  1  0
 12 13  1  1
 13  7  1  0
 14 20  1  0
 14 12  1  0
 15 14  2  0
 17 16  1  6
 17 19  1  0
 18 17  1  0
 19 20  1  6
 19 21  1  0
 21 23  1  0
 22 21  2  0
M  END
$$$$
