NVV.pdb
     RDKit          3D

 23 22  0  0  1  0  0  0  0  0999 V2000
   10.1584  -17.9615   14.9440 N   0  0  0  0  0  0  0  0  0  0  0  0
   10.1811  -18.2863   16.3171 C   0  0  0  0  0  0  0  0  0  0  0  0
    9.9669  -19.4839   16.6370 O   0  0  0  0  0  0  0  0  0  0  0  0
   10.4517  -17.2275   17.3240 C   0  0  0  0  0  0  0  0  0  0  0  0
    9.5691  -17.4883   18.5129 C   0  0  2  0  0  0  0  0  0  0  0  0
    8.1867  -17.5368   18.1522 N   0  0  0  0  0  0  0  0  0  0  0  0
    9.7753  -16.5154   19.6045 C   0  0  0  0  0  0  0  0  0  0  0  0
   10.9091  -16.3876   20.1356 O   0  0  0  0  0  0  0  0  0  0  0  0
    8.1790  -12.9772   19.6295 C   0  0  0  0  0  0  0  0  0  0  0  0
    7.9832  -13.6069   20.9887 C   0  0  1  0  0  0  0  0  0  0  0  0
    6.5400  -14.0497   21.0829 C   0  0  0  0  0  0  0  0  0  0  0  0
    8.9352  -14.7943   21.1792 C   0  0  2  0  0  0  0  0  0  0  0  0
    8.7116  -15.6941   20.0924 N   0  0  0  0  0  0  0  0  0  0  0  0
    8.6420  -15.3951   22.5041 C   0  0  0  0  0  0  0  0  0  0  0  0
    7.5443  -15.9806   22.6906 O   0  0  0  0  0  0  0  0  0  0  0  0
   11.8225  -17.1461   24.2566 C   0  0  0  0  0  0  0  0  0  0  0  0
   10.3685  -17.5005   24.4689 C   0  0  2  0  0  0  0  0  0  0  0  0
    9.8788  -18.3650   23.3494 C   0  0  0  0  0  0  0  0  0  0  0  0
    9.5126  -16.2819   24.7062 C   0  0  2  0  0  0  0  0  0  0  0  0
    9.5308  -15.3568   23.6038 N   0  0  0  0  0  0  0  0  0  0  0  0
   10.0272  -15.6173   25.9334 C   0  0  0  0  0  0  0  0  0  0  0  0
   10.6550  -14.5344   25.8148 O   0  0  0  0  0  0  0  0  0  0  0  0
    9.8554  -16.1227   27.2073 O   0  0  0  0  0  0  0  0  0  0  0  0
  1  2  1  0
  2  3  2  0
  4  5  1  0
  4  2  1  0
  5  6  1  6
  7  8  2  0
  7  5  1  0
 10  9  1  6
 10 12  1  0
 10 11  1  0
 12 13  1  6
 13  7  1  0
 14 20  1  0
 14 12  1  0
 15 14  2  0
 17 16  1  6
 17 19  1  0
 18 17  1  0
 19 20  1  6
 19 21  1  0
 21 23  1  0
 22 21  2  0
M  END
$$$$
