NVV.pdb
     RDKit          3D

 23 22  0  0  1  0  0  0  0  0999 V2000
    7.4223  -18.1232   19.0128 N   0  0  0  0  0  0  0  0  0  0  0  0
    6.9306  -17.1552   19.9142 C   0  0  0  0  0  0  0  0  0  0  0  0
    5.8359  -16.6015   19.6359 O   0  0  0  0  0  0  0  0  0  0  0  0
    7.7031  -16.8248   21.1398 C   0  0  0  0  0  0  0  0  0  0  0  0
    7.6336  -15.3362   21.3390 C   0  0  2  0  0  0  0  0  0  0  0  0
    8.1995  -14.6224   20.2373 N   0  0  0  0  0  0  0  0  0  0  0  0
    8.2578  -14.8970   22.6032 C   0  0  0  0  0  0  0  0  0  0  0  0
    9.5103  -14.8237   22.7011 O   0  0  0  0  0  0  0  0  0  0  0  0
    7.6911  -13.2306   27.2315 C   0  0  0  0  0  0  0  0  0  0  0  0
    7.1324  -13.4688   25.8483 C   0  0  1  0  0  0  0  0  0  0  0  0
    6.8888  -12.1168   25.2154 C   0  0  0  0  0  0  0  0  0  0  0  0
    8.1061  -14.3019   25.0053 C   0  0  2  0  0  0  0  0  0  0  0  0
    7.4755  -14.5437   23.7466 N   0  0  0  0  0  0  0  0  0  0  0  0
    8.4001  -15.5457   25.7595 C   0  0  0  0  0  0  0  0  0  0  0  0
    7.4738  -16.3653   25.9896 O   0  0  0  0  0  0  0  0  0  0  0  0
   12.4230  -17.1323   26.2405 C   0  0  0  0  0  0  0  0  0  0  0  0
   11.1129  -17.8859   26.2140 C   0  0  2  0  0  0  0  0  0  0  0  0
   10.7776  -18.2897   24.8123 C   0  0  0  0  0  0  0  0  0  0  0  0
   10.0054  -17.1295   26.9032 C   0  0  2  0  0  0  0  0  0  0  0  0
    9.6810  -15.8874   26.2525 N   0  0  0  0  0  0  0  0  0  0  0  0
   10.4543  -16.8687   28.2971 C   0  0  0  0  0  0  0  0  0  0  0  0
   10.7606  -15.6933   28.6222 O   0  0  0  0  0  0  0  0  0  0  0  0
   10.5559  -17.8488   29.2649 O   0  0  0  0  0  0  0  0  0  0  0  0
  1  2  1  0
  2  3  2  0
  4  5  1  0
  4  2  1  0
  5  6  1  6
  7  8  2  0
  7  5  1  0
 10  9  1  1
 10 12  1  0
 10 11  1  0
 12 13  1  6
 13  7  1  0
 14 20  1  0
 14 12  1  0
 15 14  2  0
 17 16  1  6
 17 19  1  0
 18 17  1  0
 19 20  1  6
 19 21  1  0
 21 23  1  0
 22 21  2  0
M  END
$$$$
