DRI.pdb
     RDKit          3D

 28 27  0  0  1  0  0  0  0  0999 V2000
   17.9695  -23.0644  -13.1544 N   0  0  0  0  0  0  0  0  0  0  0  0
   18.6362  -21.7930  -13.3949 C   0  0  1  0  0  0  0  0  0  0  0  0
   18.5491  -20.9019  -12.1946 C   0  0  0  0  0  0  0  0  0  0  0  0
   17.1947  -20.3221  -11.9970 C   0  0  0  0  0  0  0  0  0  0  0  0
   16.8830  -19.5157  -11.0956 O   0  0  0  0  0  0  0  0  0  0  0  0
   20.0531  -22.0085  -13.8051 C   0  0  0  0  0  0  0  0  0  0  0  0
   20.7978  -22.8276  -13.2277 O   0  0  0  0  0  0  0  0  0  0  0  0
   16.1827  -20.7111  -12.8949 O   0  0  0  0  0  0  0  0  0  0  0  0
   21.5336  -18.2535  -18.6937 N   0  0  0  0  0  0  0  0  0  0  0  0
   22.9289  -17.9445  -18.6704 C   0  0  0  0  0  0  0  0  0  0  0  0
   23.3776  -16.7235  -18.6490 N   0  0  0  0  0  0  0  0  0  0  0  0
   23.8695  -19.0141  -18.6737 N   0  0  0  0  0  0  0  0  0  0  0  0
   23.4014  -20.3822  -18.6764 C   0  0  0  0  0  0  0  0  0  0  0  0
   23.5068  -20.9760  -17.2590 C   0  0  0  0  0  0  0  0  0  0  0  0
   22.1258  -20.9141  -16.6999 C   0  0  0  0  0  0  0  0  0  0  0  0
   21.9892  -21.4686  -15.3137 C   0  0  2  0  0  0  0  0  0  0  0  0
   20.6180  -21.2668  -14.8965 N   0  0  0  0  0  0  0  0  0  0  0  0
   22.8134  -20.5955  -14.3892 C   0  0  0  0  0  0  0  0  0  0  0  0
   22.4773  -19.4241  -14.0875 O   0  0  0  0  0  0  0  0  0  0  0  0
   24.4039  -16.5549  -18.5911 C   0  0  0  0  0  0  0  0  0  0  0  0
   25.4319  -20.7236   -9.2360 C   0  0  0  0  0  0  0  0  0  0  0  0
   25.5709  -20.1122  -10.6311 C   0  0  2  0  0  0  0  0  0  0  0  0
   24.7970  -20.9206  -11.6152 C   0  0  0  0  0  0  0  0  0  0  0  0
   25.2058  -22.3580  -11.6844 C   0  0  2  0  0  0  0  0  0  0  0  0
   24.8756  -20.2906  -12.9814 N   0  0  0  0  0  0  0  0  0  0  0  0
   24.0086  -21.1162  -13.8430 C   0  0  0  0  0  0  0  0  0  0  0  0
   26.2110  -20.3119  -13.5929 O   0  0  0  0  0  0  0  0  0  0  0  0
   27.2118  -19.3856  -13.2651 O   0  0  0  0  0  0  0  0  0  0  0  0
  2  1  1  1
  2  3  1  0
  3  4  1  0
  4  8  1  0
  5  4  2  0
  6  2  1  0
  7  6  2  0
  9 10  1  0
 10 12  1  0
 11 10  2  0
 12 13  1  0
 13 14  1  0
 14 15  1  0
 16 15  1  6
 16 17  1  0
 17  6  1  0
 18 19  2  0
 18 16  1  0
 21 20  1  0
 21 22  1  0
 22 24  1  0
 22 23  1  6
 24 25  1  6
 25 18  1  0
 26 24  1  0
 27 26  1  0
 28 26  2  0
M  END
$$$$
