DRI.pdb
     RDKit          3D

 28 27  0  0  1  0  0  0  0  0999 V2000
   22.1833  -21.6624  -11.9129 N   0  0  0  0  0  0  0  0  0  0  0  0
   22.8394  -20.5105  -11.3118 C   0  0  1  0  0  0  0  0  0  0  0  0
   21.8596  -19.6605  -10.5636 C   0  0  0  0  0  0  0  0  0  0  0  0
   20.8098  -19.0751  -11.4381 C   0  0  0  0  0  0  0  0  0  0  0  0
   21.0183  -18.5165  -12.5356 O   0  0  0  0  0  0  0  0  0  0  0  0
   23.9623  -20.9418  -10.4313 C   0  0  0  0  0  0  0  0  0  0  0  0
   23.8041  -21.7572   -9.4992 O   0  0  0  0  0  0  0  0  0  0  0  0
   19.4756  -19.1552  -10.9964 O   0  0  0  0  0  0  0  0  0  0  0  0
   27.7577  -20.1845  -15.2673 N   0  0  0  0  0  0  0  0  0  0  0  0
   28.3662  -21.4778  -15.2574 C   0  0  0  0  0  0  0  0  0  0  0  0
   28.4255  -22.2342  -16.3141 N   0  0  0  0  0  0  0  0  0  0  0  0
   28.9288  -21.9629  -14.0421 N   0  0  0  0  0  0  0  0  0  0  0  0
   28.8348  -21.1665  -12.8388 C   0  0  0  0  0  0  0  0  0  0  0  0
   27.5033  -21.4557  -12.1205 C   0  0  0  0  0  0  0  0  0  0  0  0
   27.6264  -20.8089  -10.7825 C   0  0  0  0  0  0  0  0  0  0  0  0
   26.4197  -20.9572   -9.9052 C   0  0  2  0  0  0  0  0  0  0  0  0
   25.2859  -20.4231  -10.6293 N   0  0  0  0  0  0  0  0  0  0  0  0
   26.6003  -20.0308   -8.7197 C   0  0  0  0  0  0  0  0  0  0  0  0
   26.2080  -18.8382   -8.7276 O   0  0  0  0  0  0  0  0  0  0  0  0
   28.8137  -23.1976  -16.2346 C   0  0  0  0  0  0  0  0  0  0  0  0
   27.5814  -22.3902   -3.7882 C   0  0  0  0  0  0  0  0  0  0  0  0
   27.0162  -21.4594   -4.8622 C   0  0  2  0  0  0  0  0  0  0  0  0
   28.0840  -20.5377   -5.3432 C   0  0  0  0  0  0  0  0  0  0  0  0
   28.7255  -19.7259   -4.2628 C   0  0  2  0  0  0  0  0  0  0  0  0
   27.5441  -19.6351   -6.4219 N   0  0  0  0  0  0  0  0  0  0  0  0
   27.2349  -20.5245   -7.5572 C   0  0  0  0  0  0  0  0  0  0  0  0
   28.4980  -18.6369   -6.9234 O   0  0  0  0  0  0  0  0  0  0  0  0
   28.5250  -17.3127   -6.4621 O   0  0  0  0  0  0  0  0  0  0  0  0
  2  1  1  1
  2  3  1  0
  3  4  1  0
  4  8  1  0
  5  4  2  0
  6  2  1  0
  7  6  2  0
  9 10  1  0
 10 12  1  0
 11 10  2  0
 12 13  1  0
 13 14  1  0
 14 15  1  0
 16 15  1  6
 16 17  1  0
 17  6  1  0
 18 19  2  0
 18 16  1  0
 21 20  1  0
 21 22  1  0
 22 24  1  0
 22 23  1  6
 24 25  1  1
 25 18  1  0
 26 24  1  0
 27 26  1  0
 28 26  2  0
M  END
$$$$
