DRI.pdb
     RDKit          3D

 28 27  0  0  1  0  0  0  0  0999 V2000
   22.6982  -25.4642  -19.4975 N   0  0  0  0  0  0  0  0  0  0  0  0
   22.1384  -24.1364  -19.2921 C   0  0  1  0  0  0  0  0  0  0  0  0
   20.9913  -23.8842  -20.2211 C   0  0  0  0  0  0  0  0  0  0  0  0
   21.4245  -23.4981  -21.5896 C   0  0  0  0  0  0  0  0  0  0  0  0
   22.6107  -23.3587  -21.9551 O   0  0  0  0  0  0  0  0  0  0  0  0
   21.7323  -23.9482  -17.8701 C   0  0  0  0  0  0  0  0  0  0  0  0
   21.1433  -24.8374  -17.2211 O   0  0  0  0  0  0  0  0  0  0  0  0
   20.4210  -23.2712  -22.5504 O   0  0  0  0  0  0  0  0  0  0  0  0
   25.6115  -22.4746  -12.0034 N   0  0  0  0  0  0  0  0  0  0  0  0
   25.6127  -21.4710  -13.0211 C   0  0  0  0  0  0  0  0  0  0  0  0
   26.6894  -20.8340  -13.3781 N   0  0  0  0  0  0  0  0  0  0  0  0
   24.3865  -21.1503  -13.6710 N   0  0  0  0  0  0  0  0  0  0  0  0
   23.1482  -21.1840  -12.9253 C   0  0  0  0  0  0  0  0  0  0  0  0
   21.9558  -20.9756  -13.8780 C   0  0  0  0  0  0  0  0  0  0  0  0
   22.4192  -21.4695  -15.2066 C   0  0  0  0  0  0  0  0  0  0  0  0
   21.5023  -22.4612  -15.8572 C   0  0  2  0  0  0  0  0  0  0  0  0
   22.0094  -22.7156  -17.1888 N   0  0  0  0  0  0  0  0  0  0  0  0
   20.1667  -21.7776  -16.0696 C   0  0  0  0  0  0  0  0  0  0  0  0
   20.0345  -20.7632  -16.7973 O   0  0  0  0  0  0  0  0  0  0  0  0
   26.6449  -20.1502  -14.1627 C   0  0  0  0  0  0  0  0  0  0  0  0
   15.2389  -23.6017  -17.7568 C   0  0  0  0  0  0  0  0  0  0  0  0
   16.0691  -22.4140  -17.2672 C   0  0  2  0  0  0  0  0  0  0  0  0
   16.7732  -22.7774  -16.0050 C   0  0  0  0  0  0  0  0  0  0  0  0
   15.8606  -23.1397  -14.8764 C   0  0  2  0  0  0  0  0  0  0  0  0
   17.7003  -21.6653  -15.5886 N   0  0  0  0  0  0  0  0  0  0  0  0
   19.0220  -22.2990  -15.4248 C   0  0  0  0  0  0  0  0  0  0  0  0
   17.3745  -21.0433  -14.2983 O   0  0  0  0  0  0  0  0  0  0  0  0
   16.4746  -19.9746  -14.1755 O   0  0  0  0  0  0  0  0  0  0  0  0
  2  1  1  1
  2  3  1  0
  3  4  1  0
  4  8  1  0
  5  4  2  0
  6  2  1  0
  7  6  2  0
  9 10  1  0
 10 12  1  0
 11 10  2  0
 12 13  1  0
 13 14  1  0
 14 15  1  0
 16 15  1  1
 16 17  1  0
 17  6  1  0
 18 19  2  0
 18 16  1  0
 21 20  1  0
 21 22  1  0
 22 24  1  0
 22 23  1  6
 24 25  1  1
 25 18  1  0
 26 24  1  0
 27 26  1  0
 28 26  2  0
M  END
$$$$
