DRI.pdb
     RDKit          3D

 28 27  0  0  1  0  0  0  0  0999 V2000
   26.5832  -20.3331  -16.0585 N   0  0  0  0  0  0  0  0  0  0  0  0
   27.4602  -19.7056  -15.0810 C   0  0  1  0  0  0  0  0  0  0  0  0
   28.1558  -18.5150  -15.6651 C   0  0  0  0  0  0  0  0  0  0  0  0
   29.0179  -18.8564  -16.8269 C   0  0  0  0  0  0  0  0  0  0  0  0
   29.5185  -18.0292  -17.6176 O   0  0  0  0  0  0  0  0  0  0  0  0
   26.7031  -19.3381  -13.8505 C   0  0  0  0  0  0  0  0  0  0  0  0
   26.2856  -18.1796  -13.6450 O   0  0  0  0  0  0  0  0  0  0  0  0
   29.2926  -20.2179  -17.0559 O   0  0  0  0  0  0  0  0  0  0  0  0
   19.7031  -22.5245  -13.4434 N   0  0  0  0  0  0  0  0  0  0  0  0
   20.3295  -21.3149  -13.8763 C   0  0  0  0  0  0  0  0  0  0  0  0
   19.9397  -20.6605  -14.9310 N   0  0  0  0  0  0  0  0  0  0  0  0
   21.4275  -20.8037  -13.1268 N   0  0  0  0  0  0  0  0  0  0  0  0
   21.8855  -21.5098  -11.9511 C   0  0  0  0  0  0  0  0  0  0  0  0
   23.0439  -20.7370  -11.2924 C   0  0  0  0  0  0  0  0  0  0  0  0
   24.1715  -20.8083  -12.2656 C   0  0  0  0  0  0  0  0  0  0  0  0
   25.4172  -20.0974  -11.8292 C   0  0  2  0  0  0  0  0  0  0  0  0
   26.4254  -20.3221  -12.8430 N   0  0  0  0  0  0  0  0  0  0  0  0
   25.9378  -20.8045  -10.5941 C   0  0  0  0  0  0  0  0  0  0  0  0
   26.3777  -21.9800  -10.6230 O   0  0  0  0  0  0  0  0  0  0  0  0
   20.4453  -19.7948  -15.2138 C   0  0  0  0  0  0  0  0  0  0  0  0
   28.7039  -19.5377   -5.4354 C   0  0  0  0  0  0  0  0  0  0  0  0
   27.7296  -20.4871   -6.1346 C   0  0  2  0  0  0  0  0  0  0  0  0
   27.2782  -19.8876   -7.4221 C   0  0  0  0  0  0  0  0  0  0  0  0
   26.7017  -18.5135   -7.2899 C   0  0  2  0  0  0  0  0  0  0  0  0
   26.2938  -20.8018   -8.1040 N   0  0  0  0  0  0  0  0  0  0  0  0
   25.9295  -20.1175   -9.3589 C   0  0  0  0  0  0  0  0  0  0  0  0
   25.0407  -21.0156   -7.3680 O   0  0  0  0  0  0  0  0  0  0  0  0
   23.8275  -20.4210   -7.7441 O   0  0  0  0  0  0  0  0  0  0  0  0
  2  1  1  6
  2  3  1  0
  3  4  1  0
  4  8  1  0
  5  4  2  0
  6  2  1  0
  7  6  2  0
  9 10  1  0
 10 12  1  0
 11 10  2  0
 12 13  1  0
 13 14  1  0
 14 15  1  0
 16 15  1  6
 16 17  1  0
 17  6  1  0
 18 19  2  0
 18 16  1  0
 21 20  1  0
 21 22  1  0
 22 24  1  0
 22 23  1  6
 24 25  1  1
 25 18  1  0
 26 24  1  0
 27 26  1  0
 28 26  2  0
M  END
$$$$
