DRI.pdb
     RDKit          3D

 28 27  0  0  1  0  0  0  0  0999 V2000
   21.9184  -31.6938   -2.6965 N   0  0  0  0  0  0  0  0  0  0  0  0
   20.7901  -31.3243   -1.8546 C   0  0  1  0  0  0  0  0  0  0  0  0
   21.0722  -31.6184   -0.4136 C   0  0  0  0  0  0  0  0  0  0  0  0
   20.9950  -33.0669   -0.0890 C   0  0  0  0  0  0  0  0  0  0  0  0
   20.7427  -33.9744   -0.9092 O   0  0  0  0  0  0  0  0  0  0  0  0
   20.4300  -29.8912   -2.0523 C   0  0  0  0  0  0  0  0  0  0  0  0
   21.2733  -29.0302   -2.3782 O   0  0  0  0  0  0  0  0  0  0  0  0
   21.2235  -33.4478    1.2468 O   0  0  0  0  0  0  0  0  0  0  0  0
   18.4160  -25.1801   -7.3365 N   0  0  0  0  0  0  0  0  0  0  0  0
   17.4148  -24.5404   -6.5419 C   0  0  0  0  0  0  0  0  0  0  0  0
   16.7173  -23.5296   -6.9711 N   0  0  0  0  0  0  0  0  0  0  0  0
   17.1701  -25.0245   -5.2249 N   0  0  0  0  0  0  0  0  0  0  0  0
   17.5161  -26.3865   -4.8844 C   0  0  0  0  0  0  0  0  0  0  0  0
   17.0863  -26.6912   -3.4369 C   0  0  0  0  0  0  0  0  0  0  0  0
   17.6356  -28.0448   -3.1371 C   0  0  0  0  0  0  0  0  0  0  0  0
   18.7040  -28.0648   -2.0857 C   0  0  2  0  0  0  0  0  0  0  0  0
   19.0775  -29.4465   -1.8699 N   0  0  0  0  0  0  0  0  0  0  0  0
   18.0708  -27.6211   -0.7825 C   0  0  0  0  0  0  0  0  0  0  0  0
   17.3224  -28.3680   -0.1056 O   0  0  0  0  0  0  0  0  0  0  0  0
   15.9956  -23.1042   -6.3521 C   0  0  0  0  0  0  0  0  0  0  0  0
   20.9772  -24.6699    2.4710 C   0  0  0  0  0  0  0  0  0  0  0  0
   19.9352  -25.6325    1.8989 C   0  0  2  0  0  0  0  0  0  0  0  0
   18.6961  -24.8830    1.5472 C   0  0  0  0  0  0  0  0  0  0  0  0
   18.0791  -24.1461    2.6937 C   0  0  2  0  0  0  0  0  0  0  0  0
   17.6876  -25.8109    0.9215 N   0  0  0  0  0  0  0  0  0  0  0  0
   18.3301  -26.3157   -0.3064 C   0  0  0  0  0  0  0  0  0  0  0  0
   16.4361  -25.1666    0.5014 O   0  0  0  0  0  0  0  0  0  0  0  0
   15.2921  -25.1275    1.3118 O   0  0  0  0  0  0  0  0  0  0  0  0
  2  1  1  6
  2  3  1  0
  3  4  1  0
  4  8  1  0
  5  4  2  0
  6  2  1  0
  7  6  2  0
  9 10  1  0
 10 12  1  0
 11 10  2  0
 12 13  1  0
 13 14  1  0
 14 15  1  0
 16 15  1  6
 16 17  1  0
 17  6  1  0
 18 19  2  0
 18 16  1  0
 21 20  1  0
 21 22  1  0
 22 24  1  0
 22 23  1  6
 24 25  1  1
 25 18  1  0
 26 24  1  0
 27 26  1  0
 28 26  2  0
M  END
$$$$
