DRI.pdb
     RDKit          3D

 28 27  0  0  1  0  0  0  0  0999 V2000
   26.1658  -20.5023  -16.9165 N   0  0  0  0  0  0  0  0  0  0  0  0
   25.1385  -21.1882  -16.1465 C   0  0  1  0  0  0  0  0  0  0  0  0
   24.5572  -22.3314  -16.9195 C   0  0  0  0  0  0  0  0  0  0  0  0
   23.7000  -21.8927  -18.0518 C   0  0  0  0  0  0  0  0  0  0  0  0
   23.4857  -20.7046  -18.3722 O   0  0  0  0  0  0  0  0  0  0  0  0
   25.6779  -21.6435  -14.8334 C   0  0  0  0  0  0  0  0  0  0  0  0
   25.0788  -22.4724  -14.1173 O   0  0  0  0  0  0  0  0  0  0  0  0
   23.0801  -22.8927  -18.8246 O   0  0  0  0  0  0  0  0  0  0  0  0
   32.6591  -22.6202  -10.3415 N   0  0  0  0  0  0  0  0  0  0  0  0
   32.5399  -22.8334  -11.7498 C   0  0  0  0  0  0  0  0  0  0  0  0
   33.1654  -23.7903  -12.3708 N   0  0  0  0  0  0  0  0  0  0  0  0
   31.7058  -21.9628  -12.5082 N   0  0  0  0  0  0  0  0  0  0  0  0
   30.9891  -20.8965  -11.8448 C   0  0  0  0  0  0  0  0  0  0  0  0
   29.5151  -21.2980  -11.6474 C   0  0  0  0  0  0  0  0  0  0  0  0
   28.8810  -21.1493  -12.9889 C   0  0  0  0  0  0  0  0  0  0  0  0
   27.4240  -21.5000  -13.0317 C   0  0  2  0  0  0  0  0  0  0  0  0
   26.9257  -21.1335  -14.3403 N   0  0  0  0  0  0  0  0  0  0  0  0
   26.7042  -20.5807  -12.0658 C   0  0  0  0  0  0  0  0  0  0  0  0
   26.7267  -19.3305  -12.1782 O   0  0  0  0  0  0  0  0  0  0  0  0
   33.0130  -23.9247  -13.3925 C   0  0  0  0  0  0  0  0  0  0  0  0
   21.7614  -21.1771  -10.9365 C   0  0  0  0  0  0  0  0  0  0  0  0
   23.1487  -20.5435  -11.0532 C   0  0  2  0  0  0  0  0  0  0  0  0
   23.9400  -20.8329   -9.8240 C   0  0  0  0  0  0  0  0  0  0  0  0
   23.3212  -20.3212   -8.5618 C   0  0  2  0  0  0  0  0  0  0  0  0
   25.3412  -20.2992   -9.9705 N   0  0  0  0  0  0  0  0  0  0  0  0
   25.9779  -21.1487  -10.9945 C   0  0  0  0  0  0  0  0  0  0  0  0
   26.1712  -20.4099   -8.7636 O   0  0  0  0  0  0  0  0  0  0  0  0
   26.7765  -21.6107   -8.3650 O   0  0  0  0  0  0  0  0  0  0  0  0
  2  1  1  6
  2  3  1  0
  3  4  1  0
  4  8  1  0
  5  4  2  0
  6  2  1  0
  7  6  2  0
  9 10  1  0
 10 12  1  0
 11 10  2  0
 12 13  1  0
 13 14  1  0
 14 15  1  0
 16 15  1  6
 16 17  1  0
 17  6  1  0
 18 19  2  0
 18 16  1  0
 21 20  1  0
 21 22  1  0
 22 24  1  0
 22 23  1  1
 24 25  1  6
 25 18  1  0
 26 24  1  0
 27 26  1  0
 28 26  2  0
M  END
$$$$
