DRI.pdb
     RDKit          3D

 28 27  0  0  1  0  0  0  0  0999 V2000
   27.0095  -19.4679  -17.0368 N   0  0  0  0  0  0  0  0  0  0  0  0
   27.1688  -20.3694  -15.9053 C   0  0  1  0  0  0  0  0  0  0  0  0
   28.6149  -20.6567  -15.6431 C   0  0  0  0  0  0  0  0  0  0  0  0
   29.1035  -21.8725  -16.3451 C   0  0  0  0  0  0  0  0  0  0  0  0
   28.4163  -22.5901  -17.1019 O   0  0  0  0  0  0  0  0  0  0  0  0
   26.4997  -19.8186  -14.6923 C   0  0  0  0  0  0  0  0  0  0  0  0
   26.5029  -18.5992  -14.4242 O   0  0  0  0  0  0  0  0  0  0  0  0
   30.4454  -22.2463  -16.1422 O   0  0  0  0  0  0  0  0  0  0  0  0
   20.1975  -22.9131  -13.8767 N   0  0  0  0  0  0  0  0  0  0  0  0
   20.4921  -21.7065  -14.5840 C   0  0  0  0  0  0  0  0  0  0  0  0
   20.2626  -21.5644  -15.8566 N   0  0  0  0  0  0  0  0  0  0  0  0
   21.0631  -20.6140  -13.8704 N   0  0  0  0  0  0  0  0  0  0  0  0
   21.2328  -20.7023  -12.4372 C   0  0  0  0  0  0  0  0  0  0  0  0
   22.5707  -20.0588  -12.0262 C   0  0  0  0  0  0  0  0  0  0  0  0
   23.5803  -20.5996  -12.9812 C   0  0  0  0  0  0  0  0  0  0  0  0
   24.9887  -20.1612  -12.7136 C   0  0  2  0  0  0  0  0  0  0  0  0
   25.8187  -20.6884  -13.7758 N   0  0  0  0  0  0  0  0  0  0  0  0
   25.4577  -20.8712  -11.4597 C   0  0  0  0  0  0  0  0  0  0  0  0
   25.8034  -22.0781  -11.4553 O   0  0  0  0  0  0  0  0  0  0  0  0
   20.5226  -20.6729  -16.3287 C   0  0  0  0  0  0  0  0  0  0  0  0
   28.5259  -18.2828   -8.0293 C   0  0  0  0  0  0  0  0  0  0  0  0
   27.8399  -19.3933   -8.8266 C   0  0  2  0  0  0  0  0  0  0  0  0
   26.5680  -19.7839   -8.1551 C   0  0  0  0  0  0  0  0  0  0  0  0
   26.7396  -20.2641   -6.7488 C   0  0  2  0  0  0  0  0  0  0  0  0
   25.8450  -20.8208   -8.9748 N   0  0  0  0  0  0  0  0  0  0  0  0
   25.5093  -20.1504  -10.2450 C   0  0  0  0  0  0  0  0  0  0  0  0
   24.5746  -21.2832   -8.4002 O   0  0  0  0  0  0  0  0  0  0  0  0
   23.3392  -20.7018   -8.7208 O   0  0  0  0  0  0  0  0  0  0  0  0
  2  1  1  6
  2  3  1  0
  3  4  1  0
  4  8  1  0
  5  4  2  0
  6  2  1  0
  7  6  2  0
  9 10  1  0
 10 12  1  0
 11 10  2  0
 12 13  1  0
 13 14  1  0
 14 15  1  0
 16 15  1  6
 16 17  1  0
 17  6  1  0
 18 19  2  0
 18 16  1  0
 21 20  1  0
 21 22  1  0
 22 24  1  0
 22 23  1  6
 24 25  1  6
 25 18  1  0
 26 24  1  0
 27 26  1  0
 28 26  2  0
M  END
$$$$
