DRI.pdb
     RDKit          3D

 28 27  0  0  1  0  0  0  0  0999 V2000
   24.9174  -18.5156  -17.7648 N   0  0  0  0  0  0  0  0  0  0  0  0
   25.5510  -19.2619  -16.6877 C   0  0  1  0  0  0  0  0  0  0  0  0
   27.0154  -18.9589  -16.6092 C   0  0  0  0  0  0  0  0  0  0  0  0
   27.8062  -19.6268  -17.6760 C   0  0  0  0  0  0  0  0  0  0  0  0
   29.0490  -19.5738  -17.7889 O   0  0  0  0  0  0  0  0  0  0  0  0
   24.8737  -18.9915  -15.3875 C   0  0  0  0  0  0  0  0  0  0  0  0
   24.9869  -17.9009  -14.7904 O   0  0  0  0  0  0  0  0  0  0  0  0
   27.1013  -20.3781  -18.6353 O   0  0  0  0  0  0  0  0  0  0  0  0
   18.5363  -23.1774  -11.2567 N   0  0  0  0  0  0  0  0  0  0  0  0
   18.2333  -21.8064  -10.9894 C   0  0  0  0  0  0  0  0  0  0  0  0
   17.3885  -21.4400  -10.0704 N   0  0  0  0  0  0  0  0  0  0  0  0
   18.8782  -20.7974  -11.7606 N   0  0  0  0  0  0  0  0  0  0  0  0
   19.9795  -21.1506  -12.6284 C   0  0  0  0  0  0  0  0  0  0  0  0
   21.1501  -20.1723  -12.4158 C   0  0  0  0  0  0  0  0  0  0  0  0
   21.9702  -20.2598  -13.6582 C   0  0  0  0  0  0  0  0  0  0  0  0
   23.3699  -19.7412  -13.5188 C   0  0  2  0  0  0  0  0  0  0  0  0
   24.0553  -19.9949  -14.7681 N   0  0  0  0  0  0  0  0  0  0  0  0
   24.0791  -20.6088  -12.4987 C   0  0  0  0  0  0  0  0  0  0  0  0
   24.2836  -21.8344  -12.6788 O   0  0  0  0  0  0  0  0  0  0  0  0
   17.2610  -20.4268   -9.8649 C   0  0  0  0  0  0  0  0  0  0  0  0
   27.8175  -18.3010   -9.3737 C   0  0  0  0  0  0  0  0  0  0  0  0
   27.0430  -19.3319  -10.1965 C   0  0  2  0  0  0  0  0  0  0  0  0
   25.9255  -19.8893   -9.3832 C   0  0  0  0  0  0  0  0  0  0  0  0
   26.3617  -20.5532   -8.1155 C   0  0  2  0  0  0  0  0  0  0  0  0
   25.1033  -20.8407  -10.2129 N   0  0  0  0  0  0  0  0  0  0  0  0
   24.5295  -20.0195  -11.2955 C   0  0  0  0  0  0  0  0  0  0  0  0
   23.9684  -21.4501   -9.5069 O   0  0  0  0  0  0  0  0  0  0  0  0
   24.0641  -22.6736   -8.8281 O   0  0  0  0  0  0  0  0  0  0  0  0
  2  1  1  6
  2  3  1  0
  3  4  1  0
  4  8  1  0
  5  4  2  0
  6  2  1  0
  7  6  2  0
  9 10  1  0
 10 12  1  0
 11 10  2  0
 12 13  1  0
 13 14  1  0
 14 15  1  0
 16 15  1  6
 16 17  1  0
 17  6  1  0
 18 19  2  0
 18 16  1  0
 21 20  1  0
 21 22  1  0
 22 24  1  0
 22 23  1  1
 24 25  1  6
 25 18  1  0
 26 24  1  0
 27 26  1  0
 28 26  2  0
M  END
$$$$
