DRI.pdb
     RDKit          3D

 28 27  0  0  1  0  0  0  0  0999 V2000
   28.6815  -20.2005  -16.6670 N   0  0  0  0  0  0  0  0  0  0  0  0
   27.4091  -20.8203  -16.3273 C   0  0  1  0  0  0  0  0  0  0  0  0
   27.0547  -21.8973  -17.3055 C   0  0  0  0  0  0  0  0  0  0  0  0
   27.0204  -21.4180  -18.7121 C   0  0  0  0  0  0  0  0  0  0  0  0
   26.7298  -22.1200  -19.7034 O   0  0  0  0  0  0  0  0  0  0  0  0
   27.4326  -21.3451  -14.9321 C   0  0  0  0  0  0  0  0  0  0  0  0
   26.6213  -22.2040  -14.5286 O   0  0  0  0  0  0  0  0  0  0  0  0
   27.3404  -20.0675  -18.9476 O   0  0  0  0  0  0  0  0  0  0  0  0
   33.0149  -23.6818  -10.0258 N   0  0  0  0  0  0  0  0  0  0  0  0
   33.1770  -23.2189  -11.3684 C   0  0  0  0  0  0  0  0  0  0  0  0
   33.3470  -24.0265  -12.3740 N   0  0  0  0  0  0  0  0  0  0  0  0
   33.1553  -21.8169  -11.6189 N   0  0  0  0  0  0  0  0  0  0  0  0
   31.9443  -21.0634  -11.3814 C   0  0  0  0  0  0  0  0  0  0  0  0
   30.7625  -21.7236  -12.1165 C   0  0  0  0  0  0  0  0  0  0  0  0
   29.6160  -20.7855  -11.9458 C   0  0  0  0  0  0  0  0  0  0  0  0
   28.3403  -21.2367  -12.5911 C   0  0  2  0  0  0  0  0  0  0  0  0
   28.4058  -20.8704  -13.9899 N   0  0  0  0  0  0  0  0  0  0  0  0
   27.2165  -20.3972  -12.0177 C   0  0  0  0  0  0  0  0  0  0  0  0
   26.8940  -19.2819  -12.4956 O   0  0  0  0  0  0  0  0  0  0  0  0
   33.5210  -23.6345  -13.3233 C   0  0  0  0  0  0  0  0  0  0  0  0
   22.0078  -20.0618  -12.4994 C   0  0  0  0  0  0  0  0  0  0  0  0
   22.9665  -19.8389  -11.3286 C   0  0  2  0  0  0  0  0  0  0  0  0
   24.2740  -20.4937  -11.6160 C   0  0  0  0  0  0  0  0  0  0  0  0
   24.1742  -21.9554  -11.9185 C   0  0  2  0  0  0  0  0  0  0  0  0
   25.2326  -20.2619  -10.4772 N   0  0  0  0  0  0  0  0  0  0  0  0
   26.5006  -20.8850  -10.9008 C   0  0  0  0  0  0  0  0  0  0  0  0
   24.8540  -20.9073   -9.2131 O   0  0  0  0  0  0  0  0  0  0  0  0
   25.5266  -22.0258   -8.6996 O   0  0  0  0  0  0  0  0  0  0  0  0
  2  1  1  6
  2  3  1  0
  3  4  1  0
  4  8  1  0
  5  4  2  0
  6  2  1  0
  7  6  2  0
  9 10  1  0
 10 12  1  0
 11 10  2  0
 12 13  1  0
 13 14  1  0
 14 15  1  0
 16 15  1  1
 16 17  1  0
 17  6  1  0
 18 19  2  0
 18 16  1  0
 21 20  1  0
 21 22  1  0
 22 24  1  0
 22 23  1  6
 24 25  1  1
 25 18  1  0
 26 24  1  0
 27 26  1  0
 28 26  2  0
M  END
$$$$
