AHF.pdb
     RDKit          3D

 27 28  0  0  1  0  0  0  0  0999 V2000
    7.2524  -12.9103   19.4115 C   0  0  0  0  0  0  0  0  0  0  0  0
    8.5918  -13.2786   20.0637 C   0  0  2  0  0  0  0  0  0  0  0  0
    9.4060  -13.8654   19.0220 N   0  0  0  0  0  0  0  0  0  0  0  0
    8.2728  -14.3715   21.0351 C   0  0  0  0  0  0  0  0  0  0  0  0
    7.1485  -14.4753   21.5917 O   0  0  0  0  0  0  0  0  0  0  0  0
    9.3102  -15.2995   21.3047 N   0  0  0  0  0  0  0  0  0  0  0  0
    9.0079  -16.5212   22.1176 C   0  0  1  0  0  0  0  0  0  0  0  0
    9.7138  -17.6742   21.4935 C   0  0  0  0  0  0  0  0  0  0  0  0
    9.0354  -18.1599   20.2929 C   0  0  0  0  0  0  0  0  0  0  0  0
    7.9288  -18.9725   20.1506 C   0  0  0  0  0  0  0  0  0  0  0  0
    7.6728  -19.2080   18.8550 N   0  0  0  0  0  0  0  0  0  0  0  0
    8.6144  -18.5472   18.1583 C   0  0  0  0  0  0  0  0  0  0  0  0
    9.4362  -17.9157   19.0084 N   0  0  0  0  0  0  0  0  0  0  0  0
    9.3488  -16.1570   23.4798 C   0  0  0  0  0  0  0  0  0  0  0  0
   10.4913  -15.5987   23.6942 O   0  0  0  0  0  0  0  0  0  0  0  0
    8.4734  -16.3843   24.5734 N   0  0  0  0  0  0  0  0  0  0  0  0
    8.9365  -16.0574   25.9315 C   0  0  1  0  0  0  0  0  0  0  0  0
    7.7494  -15.5744   26.7515 C   0  0  0  0  0  0  0  0  0  0  0  0
    7.3256  -14.2036   26.4413 C   0  0  0  0  0  0  0  0  0  0  0  0
    8.2263  -13.1657   26.7028 C   0  0  0  0  0  0  0  0  0  0  0  0
    7.9207  -11.8552   26.4326 C   0  0  0  0  0  0  0  0  0  0  0  0
    6.7007  -11.5492   25.8917 C   0  0  0  0  0  0  0  0  0  0  0  0
    5.7829  -12.5353   25.6175 C   0  0  0  0  0  0  0  0  0  0  0  0
    6.1230  -13.8304   25.9003 C   0  0  0  0  0  0  0  0  0  0  0  0
    9.5959  -17.1784   26.5703 C   0  0  0  0  0  0  0  0  0  0  0  0
    9.6131  -18.3471   26.1440 O   0  0  0  0  0  0  0  0  0  0  0  0
   10.2831  -16.9588   27.7724 O   0  0  0  0  0  0  0  0  0  0  0  0
  2  1  1  6
  2  3  1  0
  4  2  1  0
  5  4  2  0
  6  4  1  0
  7  6  1  0
  7  8  1  6
  9  8  1  0
 10  9  2  0
 11 10  1  0
 12 11  1  0
 12 13  2  0
 13  9  1  0
 14 15  2  0
 14  7  1  0
 16 14  1  0
 17 16  1  0
 17 18  1  1
 18 19  1  0
 19 24  1  0
 19 20  2  0
 20 21  1  0
 21 22  2  0
 23 22  1  0
 24 23  2  0
 25 17  1  0
 26 25  2  0
 27 25  1  0
M  END
$$$$
