AHF.pdb
     RDKit          3D

 27 28  0  0  1  0  0  0  0  0999 V2000
    8.9011  -12.3112   19.8294 C   0  0  0  0  0  0  0  0  0  0  0  0
    8.4523  -13.6726   19.2815 C   0  0  2  0  0  0  0  0  0  0  0  0
    7.3787  -13.4044   18.3499 N   0  0  0  0  0  0  0  0  0  0  0  0
    7.8482  -14.3900   20.4478 C   0  0  0  0  0  0  0  0  0  0  0  0
    6.6744  -14.1679   20.8448 O   0  0  0  0  0  0  0  0  0  0  0  0
    8.6702  -15.3463   21.0958 N   0  0  0  0  0  0  0  0  0  0  0  0
    8.1067  -16.1508   22.2271 C   0  0  1  0  0  0  0  0  0  0  0  0
    7.9931  -17.5644   21.7733 C   0  0  0  0  0  0  0  0  0  0  0  0
    7.6082  -18.4686   22.8559 C   0  0  0  0  0  0  0  0  0  0  0  0
    6.4295  -18.5717   23.5665 C   0  0  0  0  0  0  0  0  0  0  0  0
    6.5245  -19.5161   24.5144 N   0  0  0  0  0  0  0  0  0  0  0  0
    7.7657  -20.0247   24.4171 C   0  0  0  0  0  0  0  0  0  0  0  0
    8.4243  -19.4053   23.4274 N   0  0  0  0  0  0  0  0  0  0  0  0
    8.9643  -15.8549   23.3590 C   0  0  0  0  0  0  0  0  0  0  0  0
   10.2367  -15.7894   23.1597 O   0  0  0  0  0  0  0  0  0  0  0  0
    8.4559  -15.6291   24.6646 N   0  0  0  0  0  0  0  0  0  0  0  0
    9.3818  -15.6934   25.8066 C   0  0  1  0  0  0  0  0  0  0  0  0
    9.4582  -14.3188   26.4541 C   0  0  0  0  0  0  0  0  0  0  0  0
    8.2483  -13.5063   26.2790 C   0  0  0  0  0  0  0  0  0  0  0  0
    8.4061  -12.1274   26.1048 C   0  0  0  0  0  0  0  0  0  0  0  0
    7.3325  -11.2921   25.9211 C   0  0  0  0  0  0  0  0  0  0  0  0
    6.0687  -11.8183   25.9071 C   0  0  0  0  0  0  0  0  0  0  0  0
    5.8639  -13.1675   26.0741 C   0  0  0  0  0  0  0  0  0  0  0  0
    6.9584  -13.9689   26.2547 C   0  0  0  0  0  0  0  0  0  0  0  0
    8.9968  -16.7070   26.7679 C   0  0  0  0  0  0  0  0  0  0  0  0
    7.9266  -17.3415   26.7616 O   0  0  0  0  0  0  0  0  0  0  0  0
    9.8858  -17.0233   27.8047 O   0  0  0  0  0  0  0  0  0  0  0  0
  2  1  1  1
  2  3  1  0
  4  2  1  0
  5  4  2  0
  6  4  1  0
  7  6  1  0
  7  8  1  6
  9  8  1  0
 10  9  2  0
 11 10  1  0
 12 11  1  0
 12 13  2  0
 13  9  1  0
 14 15  2  0
 14  7  1  0
 16 14  1  0
 17 16  1  0
 17 18  1  1
 18 19  1  0
 19 24  1  0
 19 20  2  0
 20 21  1  0
 21 22  2  0
 23 22  1  0
 24 23  2  0
 25 17  1  0
 26 25  2  0
 27 25  1  0
M  END
$$$$
