AHF.pdb
     RDKit          3D

 27 28  0  0  1  0  0  0  0  0999 V2000
    8.0271  -11.9717   20.2670 C   0  0  0  0  0  0  0  0  0  0  0  0
    8.3440  -13.2471   19.4747 C   0  0  2  0  0  0  0  0  0  0  0  0
    7.3662  -13.3212   18.4113 N   0  0  0  0  0  0  0  0  0  0  0  0
    8.0556  -14.3780   20.4114 C   0  0  0  0  0  0  0  0  0  0  0  0
    6.9064  -14.8761   20.5375 O   0  0  0  0  0  0  0  0  0  0  0  0
    9.1523  -14.8713   21.1626 N   0  0  0  0  0  0  0  0  0  0  0  0
    9.0394  -16.2053   21.8351 C   0  0  1  0  0  0  0  0  0  0  0  0
    9.9854  -17.1392   21.1641 C   0  0  0  0  0  0  0  0  0  0  0  0
    9.9379  -18.4853   21.7328 C   0  0  0  0  0  0  0  0  0  0  0  0
    9.9981  -18.9110   23.0443 C   0  0  0  0  0  0  0  0  0  0  0  0
    9.9678  -20.2504   23.1133 N   0  0  0  0  0  0  0  0  0  0  0  0
    9.8878  -20.6917   21.8455 C   0  0  0  0  0  0  0  0  0  0  0  0
    9.8692  -19.6439   21.0096 N   0  0  0  0  0  0  0  0  0  0  0  0
    9.2255  -15.9288   23.2468 C   0  0  0  0  0  0  0  0  0  0  0  0
   10.2172  -15.1823   23.5966 O   0  0  0  0  0  0  0  0  0  0  0  0
    8.3575  -16.4397   24.2466 N   0  0  0  0  0  0  0  0  0  0  0  0
    8.6462  -16.1374   25.6575 C   0  0  1  0  0  0  0  0  0  0  0  0
    7.3763  -15.6229   26.3188 C   0  0  0  0  0  0  0  0  0  0  0  0
    7.2543  -14.1601   26.3238 C   0  0  0  0  0  0  0  0  0  0  0  0
    6.0137  -13.6062   25.9910 C   0  0  0  0  0  0  0  0  0  0  0  0
    5.8040  -12.2498   25.9821 C   0  0  0  0  0  0  0  0  0  0  0  0
    6.8352  -11.4101   26.3076 C   0  0  0  0  0  0  0  0  0  0  0  0
    8.0724  -11.9080   26.6416 C   0  0  0  0  0  0  0  0  0  0  0  0
    8.2437  -13.2658   26.6395 C   0  0  0  0  0  0  0  0  0  0  0  0
    9.1806  -17.2834   26.3652 C   0  0  0  0  0  0  0  0  0  0  0  0
    9.1227  -18.4646   25.9788 O   0  0  0  0  0  0  0  0  0  0  0  0
    9.8254  -17.0755   27.5927 O   0  0  0  0  0  0  0  0  0  0  0  0
  2  1  1  1
  2  3  1  0
  4  2  1  0
  5  4  2  0
  6  4  1  0
  7  6  1  0
  7  8  1  6
  9  8  1  0
 10  9  2  0
 11 10  1  0
 12 11  1  0
 12 13  2  0
 13  9  1  0
 14 15  2  0
 14  7  1  0
 16 14  1  0
 17 16  1  0
 17 18  1  1
 18 19  1  0
 19 24  1  0
 19 20  2  0
 20 21  1  0
 21 22  2  0
 23 22  1  0
 24 23  2  0
 25 17  1  0
 26 25  2  0
 27 25  1  0
M  END
$$$$
