AHF.pdb
     RDKit          3D

 27 28  0  0  1  0  0  0  0  0999 V2000
    9.5464  -12.7817   19.4671 C   0  0  0  0  0  0  0  0  0  0  0  0
    8.5222  -13.8290   19.0096 C   0  0  2  0  0  0  0  0  0  0  0  0
    7.4365  -13.0974   18.3944 N   0  0  0  0  0  0  0  0  0  0  0  0
    7.9828  -14.4325   20.2684 C   0  0  0  0  0  0  0  0  0  0  0  0
    7.3369  -13.7635   21.1170 O   0  0  0  0  0  0  0  0  0  0  0  0
    8.2357  -15.8135   20.4656 N   0  0  0  0  0  0  0  0  0  0  0  0
    7.6676  -16.4981   21.6711 C   0  0  1  0  0  0  0  0  0  0  0  0
    7.3704  -17.9093   21.3003 C   0  0  0  0  0  0  0  0  0  0  0  0
    6.9167  -18.7022   22.4418 C   0  0  0  0  0  0  0  0  0  0  0  0
    6.8531  -18.3918   23.7852 C   0  0  0  0  0  0  0  0  0  0  0  0
    6.4141  -19.4404   24.4973 N   0  0  0  0  0  0  0  0  0  0  0  0
    6.1934  -20.4303   23.6141 C   0  0  0  0  0  0  0  0  0  0  0  0
    6.4908  -20.0002   22.3798 N   0  0  0  0  0  0  0  0  0  0  0  0
    8.6280  -16.2489   22.7293 C   0  0  0  0  0  0  0  0  0  0  0  0
    9.8707  -16.5043   22.4978 O   0  0  0  0  0  0  0  0  0  0  0  0
    8.2523  -15.7308   23.9959 N   0  0  0  0  0  0  0  0  0  0  0  0
    9.2717  -15.6346   25.0528 C   0  0  1  0  0  0  0  0  0  0  0  0
    9.4910  -14.1675   25.3907 C   0  0  0  0  0  0  0  0  0  0  0  0
    8.2657  -13.4485   25.7601 C   0  0  0  0  0  0  0  0  0  0  0  0
    8.1078  -13.0695   27.0973 C   0  0  0  0  0  0  0  0  0  0  0  0
    7.0011  -12.3830   27.5307 C   0  0  0  0  0  0  0  0  0  0  0  0
    6.0204  -12.0572   26.6326 C   0  0  0  0  0  0  0  0  0  0  0  0
    6.1312  -12.4084   25.3080 C   0  0  0  0  0  0  0  0  0  0  0  0
    7.2490  -13.0922   24.9130 C   0  0  0  0  0  0  0  0  0  0  0  0
    8.9131  -16.3978   26.2312 C   0  0  0  0  0  0  0  0  0  0  0  0
    7.7908  -16.8797   26.4679 O   0  0  0  0  0  0  0  0  0  0  0  0
    9.8937  -16.6317   27.2056 O   0  0  0  0  0  0  0  0  0  0  0  0
  2  1  1  1
  2  3  1  0
  4  2  1  0
  5  4  2  0
  6  4  1  0
  7  6  1  0
  7  8  1  6
  9  8  1  0
 10  9  2  0
 11 10  1  0
 12 11  1  0
 12 13  2  0
 13  9  1  0
 14 15  2  0
 14  7  1  0
 16 14  1  0
 17 16  1  0
 17 18  1  1
 18 19  1  0
 19 24  1  0
 19 20  2  0
 20 21  1  0
 21 22  2  0
 23 22  1  0
 24 23  2  0
 25 17  1  0
 26 25  2  0
 27 25  1  0
M  END
$$$$
