AHF.pdb
     RDKit          3D

 27 28  0  0  1  0  0  0  0  0999 V2000
    8.2914  -12.0647   19.9342 C   0  0  0  0  0  0  0  0  0  0  0  0
    8.5070  -13.4134   19.2346 C   0  0  2  0  0  0  0  0  0  0  0  0
    7.6263  -13.4241   18.0871 N   0  0  0  0  0  0  0  0  0  0  0  0
    7.9904  -14.4430   20.1900 C   0  0  0  0  0  0  0  0  0  0  0  0
    6.8197  -14.9010   20.1233 O   0  0  0  0  0  0  0  0  0  0  0  0
    8.8928  -14.8864   21.1895 N   0  0  0  0  0  0  0  0  0  0  0  0
    8.5906  -16.1453   21.9437 C   0  0  1  0  0  0  0  0  0  0  0  0
    9.2579  -17.2743   21.2385 C   0  0  0  0  0  0  0  0  0  0  0  0
    9.0838  -18.5479   21.9351 C   0  0  0  0  0  0  0  0  0  0  0  0
    9.9779  -19.3039   22.6658 C   0  0  0  0  0  0  0  0  0  0  0  0
    9.4053  -20.4389   23.0940 N   0  0  0  0  0  0  0  0  0  0  0  0
    8.1395  -20.4174   22.6401 C   0  0  0  0  0  0  0  0  0  0  0  0
    7.9351  -19.2899   21.9446 N   0  0  0  0  0  0  0  0  0  0  0  0
    8.9753  -15.8615   23.3132 C   0  0  0  0  0  0  0  0  0  0  0  0
   10.1040  -15.2732   23.5204 O   0  0  0  0  0  0  0  0  0  0  0  0
    8.1566  -16.1982   24.4224 N   0  0  0  0  0  0  0  0  0  0  0  0
    8.6594  -15.9350   25.7801 C   0  0  1  0  0  0  0  0  0  0  0  0
    7.5006  -15.4744   26.6517 C   0  0  0  0  0  0  0  0  0  0  0  0
    7.0884  -14.0856   26.4149 C   0  0  0  0  0  0  0  0  0  0  0  0
    8.0474  -13.0812   26.5833 C   0  0  0  0  0  0  0  0  0  0  0  0
    7.7554  -11.7569   26.3712 C   0  0  0  0  0  0  0  0  0  0  0  0
    6.4908  -11.4032   25.9837 C   0  0  0  0  0  0  0  0  0  0  0  0
    5.5150  -12.3550   25.8054 C   0  0  0  0  0  0  0  0  0  0  0  0
    5.8433  -13.6652   26.0262 C   0  0  0  0  0  0  0  0  0  0  0  0
    9.3217  -17.0896   26.3527 C   0  0  0  0  0  0  0  0  0  0  0  0
    9.2387  -18.2562   25.9284 O   0  0  0  0  0  0  0  0  0  0  0  0
   10.1340  -16.9087   27.4809 O   0  0  0  0  0  0  0  0  0  0  0  0
  2  1  1  1
  2  3  1  0
  4  2  1  0
  5  4  2  0
  6  4  1  0
  7  6  1  0
  7  8  1  6
  9  8  1  0
 10  9  2  0
 11 10  1  0
 12 11  1  0
 12 13  2  0
 13  9  1  0
 14 15  2  0
 14  7  1  0
 16 14  1  0
 17 16  1  0
 17 18  1  1
 18 19  1  0
 19 24  1  0
 19 20  2  0
 20 21  1  0
 21 22  2  0
 23 22  1  0
 24 23  2  0
 25 17  1  0
 26 25  2  0
 27 25  1  0
M  END
$$$$
