AHF.pdb
     RDKit          3D

 27 28  0  0  1  0  0  0  0  0999 V2000
    7.9351  -12.1466   20.5465 C   0  0  0  0  0  0  0  0  0  0  0  0
    8.1935  -13.4077   19.7111 C   0  0  2  0  0  0  0  0  0  0  0  0
    7.0456  -13.5668   18.8454 N   0  0  0  0  0  0  0  0  0  0  0  0
    8.1644  -14.5424   20.6864 C   0  0  0  0  0  0  0  0  0  0  0  0
    7.0968  -15.1183   21.0229 O   0  0  0  0  0  0  0  0  0  0  0  0
    9.4131  -14.9463   21.2229 N   0  0  0  0  0  0  0  0  0  0  0  0
    9.4993  -16.2273   21.9951 C   0  0  1  0  0  0  0  0  0  0  0  0
   10.6327  -17.0203   21.4438 C   0  0  0  0  0  0  0  0  0  0  0  0
   10.1998  -17.9833   20.4324 C   0  0  0  0  0  0  0  0  0  0  0  0
    8.9339  -18.3619   20.0335 C   0  0  0  0  0  0  0  0  0  0  0  0
    8.9951  -19.3217   19.0982 N   0  0  0  0  0  0  0  0  0  0  0  0
   10.3017  -19.5643   18.8918 C   0  0  0  0  0  0  0  0  0  0  0  0
   11.0331  -18.7689   19.6851 N   0  0  0  0  0  0  0  0  0  0  0  0
    9.5519  -15.8216   23.3867 C   0  0  0  0  0  0  0  0  0  0  0  0
   10.4612  -14.9793   23.7427 O   0  0  0  0  0  0  0  0  0  0  0  0
    8.6406  -16.3084   24.3597 N   0  0  0  0  0  0  0  0  0  0  0  0
    8.8888  -16.0044   25.7779 C   0  0  1  0  0  0  0  0  0  0  0  0
    7.5653  -15.6611   26.4450 C   0  0  0  0  0  0  0  0  0  0  0  0
    7.2325  -14.2317   26.4147 C   0  0  0  0  0  0  0  0  0  0  0  0
    8.1508  -13.3347   26.9706 C   0  0  0  0  0  0  0  0  0  0  0  0
    7.9294  -11.9801   26.9752 C   0  0  0  0  0  0  0  0  0  0  0  0
    6.7785  -11.4872   26.4211 C   0  0  0  0  0  0  0  0  0  0  0  0
    5.8467  -12.3299   25.8629 C   0  0  0  0  0  0  0  0  0  0  0  0
    6.1020  -13.6744   25.8768 C   0  0  0  0  0  0  0  0  0  0  0  0
    9.5565  -17.0928   26.4631 C   0  0  0  0  0  0  0  0  0  0  0  0
    9.9381  -17.0772   27.6471 O   0  0  0  0  0  0  0  0  0  0  0  0
    9.8064  -18.2788   25.7585 O   0  0  0  0  0  0  0  0  0  0  0  0
  2  1  1  1
  2  3  1  0
  4  2  1  0
  5  4  2  0
  6  4  1  0
  7  6  1  0
  7  8  1  6
  9  8  1  0
 10  9  2  0
 11 10  1  0
 12 11  1  0
 12 13  2  0
 13  9  1  0
 14 15  2  0
 14  7  1  0
 16 14  1  0
 17 16  1  0
 17 18  1  1
 18 19  1  0
 19 24  1  0
 19 20  2  0
 20 21  1  0
 21 22  2  0
 23 22  1  0
 24 23  2  0
 25 17  1  0
 26 25  2  0
 27 25  1  0
M  END
$$$$
