AHF.pdb
     RDKit          3D

 27 28  0  0  1  0  0  0  0  0999 V2000
    8.1097  -12.1613   20.4358 C   0  0  0  0  0  0  0  0  0  0  0  0
    8.3401  -13.4520   19.6383 C   0  0  2  0  0  0  0  0  0  0  0  0
    7.2308  -13.5668   18.7171 N   0  0  0  0  0  0  0  0  0  0  0  0
    8.1987  -14.5626   20.6313 C   0  0  0  0  0  0  0  0  0  0  0  0
    7.0912  -15.1026   20.8896 O   0  0  0  0  0  0  0  0  0  0  0  0
    9.3868  -14.9862   21.2787 N   0  0  0  0  0  0  0  0  0  0  0  0
    9.3839  -16.2717   22.0483 C   0  0  1  0  0  0  0  0  0  0  0  0
   10.4301  -17.1574   21.4667 C   0  0  0  0  0  0  0  0  0  0  0  0
   10.5175  -18.4441   22.1554 C   0  0  0  0  0  0  0  0  0  0  0  0
   11.5626  -19.0287   22.8417 C   0  0  0  0  0  0  0  0  0  0  0  0
   11.2224  -20.2502   23.2796 N   0  0  0  0  0  0  0  0  0  0  0  0
    9.9561  -20.4563   22.8763 C   0  0  0  0  0  0  0  0  0  0  0  0
    9.5231  -19.3817   22.2021 N   0  0  0  0  0  0  0  0  0  0  0  0
    9.5083  -15.8751   23.4380 C   0  0  0  0  0  0  0  0  0  0  0  0
   10.3599  -14.9534   23.7355 O   0  0  0  0  0  0  0  0  0  0  0  0
    8.7270  -16.4548   24.4712 N   0  0  0  0  0  0  0  0  0  0  0  0
    9.0258  -16.1024   25.8683 C   0  0  1  0  0  0  0  0  0  0  0  0
    7.7273  -15.7325   26.5694 C   0  0  0  0  0  0  0  0  0  0  0  0
    7.2441  -14.3812   26.2606 C   0  0  0  0  0  0  0  0  0  0  0  0
    7.9552  -13.2967   26.7850 C   0  0  0  0  0  0  0  0  0  0  0  0
    7.5841  -11.9986   26.5379 C   0  0  0  0  0  0  0  0  0  0  0  0
    6.4873  -11.7522   25.7564 C   0  0  0  0  0  0  0  0  0  0  0  0
    5.7570  -12.7856   25.2190 C   0  0  0  0  0  0  0  0  0  0  0  0
    6.1573  -14.0666   25.4872 C   0  0  0  0  0  0  0  0  0  0  0  0
    9.7156  -17.1682   26.5669 C   0  0  0  0  0  0  0  0  0  0  0  0
   10.1620  -17.1037   27.7263 O   0  0  0  0  0  0  0  0  0  0  0  0
    9.9106  -18.3895   25.9066 O   0  0  0  0  0  0  0  0  0  0  0  0
  2  1  1  1
  2  3  1  0
  4  2  1  0
  5  4  2  0
  6  4  1  0
  7  6  1  0
  7  8  1  6
  9  8  1  0
 10  9  2  0
 11 10  1  0
 12 11  1  0
 12 13  2  0
 13  9  1  0
 14 15  2  0
 14  7  1  0
 16 14  1  0
 17 16  1  0
 17 18  1  1
 18 19  1  0
 19 24  1  0
 19 20  2  0
 20 21  1  0
 21 22  2  0
 23 22  1  0
 24 23  2  0
 25 17  1  0
 26 25  2  0
 27 25  1  0
M  END
$$$$
