AHF.pdb
     RDKit          3D

 27 28  0  0  1  0  0  0  0  0999 V2000
    7.9977  -12.2369   20.3550 C   0  0  0  0  0  0  0  0  0  0  0  0
    8.1864  -13.5303   19.5509 C   0  0  2  0  0  0  0  0  0  0  0  0
    7.0564  -13.6215   18.6524 N   0  0  0  0  0  0  0  0  0  0  0  0
    8.0433  -14.6399   20.5449 C   0  0  0  0  0  0  0  0  0  0  0  0
    6.9355  -15.1797   20.8018 O   0  0  0  0  0  0  0  0  0  0  0  0
    9.2303  -15.0626   21.1948 N   0  0  0  0  0  0  0  0  0  0  0  0
    9.2097  -16.3148   22.0172 C   0  0  1  0  0  0  0  0  0  0  0  0
   10.1156  -17.3038   21.3704 C   0  0  0  0  0  0  0  0  0  0  0  0
    9.4870  -17.9764   20.2346 C   0  0  0  0  0  0  0  0  0  0  0  0
    8.2833  -18.6448   20.1378 C   0  0  0  0  0  0  0  0  0  0  0  0
    8.1189  -19.1568   18.9088 N   0  0  0  0  0  0  0  0  0  0  0  0
    9.2172  -18.8195   18.2097 C   0  0  0  0  0  0  0  0  0  0  0  0
   10.0438  -18.1124   18.9930 N   0  0  0  0  0  0  0  0  0  0  0  0
    9.5125  -15.8797   23.3675 C   0  0  0  0  0  0  0  0  0  0  0  0
   10.6131  -15.2386   23.5694 O   0  0  0  0  0  0  0  0  0  0  0  0
    8.6439  -16.1255   24.4625 N   0  0  0  0  0  0  0  0  0  0  0  0
    9.1280  -15.8550   25.8256 C   0  0  1  0  0  0  0  0  0  0  0  0
    7.9580  -15.3861   26.6776 C   0  0  0  0  0  0  0  0  0  0  0  0
    7.5885  -13.9813   26.4662 C   0  0  0  0  0  0  0  0  0  0  0  0
    6.2959  -13.7071   26.0071 C   0  0  0  0  0  0  0  0  0  0  0  0
    5.8592  -12.4235   25.7937 C   0  0  0  0  0  0  0  0  0  0  0  0
    6.7090  -11.3776   26.0356 C   0  0  0  0  0  0  0  0  0  0  0  0
    7.9885  -11.5977   26.4876 C   0  0  0  0  0  0  0  0  0  0  0  0
    8.3885  -12.8910   26.6887 C   0  0  0  0  0  0  0  0  0  0  0  0
    9.7791  -17.0077   26.4147 C   0  0  0  0  0  0  0  0  0  0  0  0
   10.3581  -17.0281   27.5157 O   0  0  0  0  0  0  0  0  0  0  0  0
    9.7714  -18.2188   25.7085 O   0  0  0  0  0  0  0  0  0  0  0  0
  2  1  1  1
  2  3  1  0
  4  2  1  0
  5  4  2  0
  6  4  1  0
  7  6  1  0
  7  8  1  6
  9  8  1  0
 10  9  2  0
 11 10  1  0
 12 11  1  0
 12 13  2  0
 13  9  1  0
 14 15  2  0
 14  7  1  0
 16 14  1  0
 17 16  1  0
 17 18  1  1
 18 19  1  0
 19 24  1  0
 19 20  2  0
 20 21  1  0
 21 22  2  0
 23 22  1  0
 24 23  2  0
 25 17  1  0
 26 25  2  0
 27 25  1  0
M  END
$$$$
