KEY.pdb
     RDKit          3D

 31 31  0  0  1  0  0  0  0  0999 V2000
   27.7372  -34.0461  -17.5373 N   0  0  0  0  0  0  0  0  0  0  0  0
   27.2662  -33.0557  -16.5880 C   0  0  1  0  0  0  0  0  0  0  0  0
   27.2648  -31.6520  -17.1819 C   0  0  0  0  0  0  0  0  0  0  0  0
   28.4300  -31.5483  -18.1397 C   0  0  0  0  0  0  0  0  0  0  0  0
   29.7532  -31.5919  -17.4474 C   0  0  0  0  0  0  0  0  0  0  0  0
   30.9193  -31.3833  -18.3804 C   0  0  0  0  0  0  0  0  0  0  0  0
   32.1881  -31.4750  -17.7323 N   0  0  0  0  0  0  0  0  0  0  0  0
   25.9560  -33.4287  -16.0509 C   0  0  0  0  0  0  0  0  0  0  0  0
   25.2722  -34.3223  -16.6227 O   0  0  0  0  0  0  0  0  0  0  0  0
   25.4313  -32.8111  -14.9004 N   0  0  0  0  0  0  0  0  0  0  0  0
   24.1656  -33.1501  -14.2754 C   0  0  1  0  0  0  0  0  0  0  0  0
   24.3279  -34.0276  -13.0932 C   0  0  0  0  0  0  0  0  0  0  0  0
   23.1405  -34.5218  -12.3865 C   0  0  0  0  0  0  0  0  0  0  0  0
   22.8448  -34.0621  -11.0329 C   0  0  0  0  0  0  0  0  0  0  0  0
   21.8719  -33.4311  -10.6116 O   0  0  0  0  0  0  0  0  0  0  0  0
   23.3631  -31.9546  -14.0679 C   0  0  0  0  0  0  0  0  0  0  0  0
   23.9261  -30.8687  -13.6928 O   0  0  0  0  0  0  0  0  0  0  0  0
   23.8078  -34.3731  -10.0139 O   0  0  0  0  0  0  0  0  0  0  0  0
   19.7553  -25.1393  -10.9732 O   0  0  0  0  0  0  0  0  0  0  0  0
   20.3098  -26.3260  -11.4271 C   0  0  0  0  0  0  0  0  0  0  0  0
   20.1557  -27.5103  -10.7136 C   0  0  0  0  0  0  0  0  0  0  0  0
   20.7080  -28.7126  -11.1580 C   0  0  0  0  0  0  0  0  0  0  0  0
   21.4264  -28.7367  -12.3326 C   0  0  0  0  0  0  0  0  0  0  0  0
   22.0318  -29.9870  -12.8265 C   0  0  0  0  0  0  0  0  0  0  0  0
   21.2142  -30.7341  -13.8308 C   0  0  2  0  0  0  0  0  0  0  0  0
   21.9571  -31.9280  -14.2622 N   0  0  0  0  0  0  0  0  0  0  0  0
   21.0403  -29.9016  -15.0414 C   0  0  0  0  0  0  0  0  0  0  0  0
   20.3562  -28.8542  -14.9561 O   0  0  0  0  0  0  0  0  0  0  0  0
   21.5749  -27.5591  -13.0344 C   0  0  0  0  0  0  0  0  0  0  0  0
   21.0276  -26.3679  -12.5944 C   0  0  0  0  0  0  0  0  0  0  0  0
   21.5903  -30.2085  -16.2742 O   0  0  0  0  0  0  0  0  0  0  0  0
  2  1  1  6
  2  3  1  0
  4  3  1  0
  5  4  1  0
  6  5  1  0
  7  6  1  0
  8  2  1  0
  9  8  2  0
 10  8  1  0
 11 10  1  0
 11 12  1  1
 13 14  1  0
 13 12  1  0
 14 15  2  0
 16 11  1  0
 16 17  2  0
 18 14  1  0
 20 19  1  0
 21 20  2  0
 22 21  1  0
 23 22  2  0
 23 29  1  0
 25 24  1  1
 24 23  1  0
 25 26  1  0
 26 16  1  0
 27 25  1  0
 28 27  2  0
 29 30  2  0
 30 20  1  0
 31 27  1  0
M  END
$$$$
