KEY.pdb
     RDKit          3D

 31 31  0  0  1  0  0  0  0  0999 V2000
   18.8556  -32.9020   -8.9261 N   0  0  0  0  0  0  0  0  0  0  0  0
   19.5614  -31.7926   -8.3136 C   0  0  1  0  0  0  0  0  0  0  0  0
   18.7035  -30.5343   -8.2539 C   0  0  0  0  0  0  0  0  0  0  0  0
   18.5489  -30.0064   -9.6622 C   0  0  0  0  0  0  0  0  0  0  0  0
   19.4789  -28.8761   -9.9613 C   0  0  0  0  0  0  0  0  0  0  0  0
   19.3649  -28.3715  -11.3777 C   0  0  0  0  0  0  0  0  0  0  0  0
   20.2417  -27.2819  -11.6643 N   0  0  0  0  0  0  0  0  0  0  0  0
   20.0825  -32.1679   -6.9976 C   0  0  0  0  0  0  0  0  0  0  0  0
   19.3235  -32.7200   -6.1538 O   0  0  0  0  0  0  0  0  0  0  0  0
   21.4229  -31.9271   -6.6429 N   0  0  0  0  0  0  0  0  0  0  0  0
   22.0181  -32.2555   -5.3602 C   0  0  1  0  0  0  0  0  0  0  0  0
   23.4967  -32.3249   -5.4162 C   0  0  0  0  0  0  0  0  0  0  0  0
   24.2529  -32.6937   -4.2138 C   0  0  0  0  0  0  0  0  0  0  0  0
   25.7123  -32.6587   -4.2222 C   0  0  0  0  0  0  0  0  0  0  0  0
   26.4980  -32.4015   -3.3064 O   0  0  0  0  0  0  0  0  0  0  0  0
   21.4657  -31.4124   -4.3111 C   0  0  0  0  0  0  0  0  0  0  0  0
   21.5916  -30.1414   -4.3852 O   0  0  0  0  0  0  0  0  0  0  0  0
   26.3645  -32.9639   -5.4648 O   0  0  0  0  0  0  0  0  0  0  0  0
   18.1060  -25.7171   -5.0377 O   0  0  0  0  0  0  0  0  0  0  0  0
   18.3078  -26.9213   -4.3813 C   0  0  0  0  0  0  0  0  0  0  0  0
   17.7478  -28.1022   -4.8580 C   0  0  0  0  0  0  0  0  0  0  0  0
   17.9422  -29.3220   -4.2079 C   0  0  0  0  0  0  0  0  0  0  0  0
   18.7068  -29.3672   -3.0635 C   0  0  0  0  0  0  0  0  0  0  0  0
   18.9247  -30.6367   -2.3461 C   0  0  0  0  0  0  0  0  0  0  0  0
   20.3574  -31.0039   -2.1275 C   0  0  2  0  0  0  0  0  0  0  0  0
   20.7806  -31.9362   -3.1835 N   0  0  0  0  0  0  0  0  0  0  0  0
   20.4870  -31.7440   -0.8531 C   0  0  0  0  0  0  0  0  0  0  0  0
   20.1824  -31.1598    0.2137 O   0  0  0  0  0  0  0  0  0  0  0  0
   19.2587  -28.1929   -2.5971 C   0  0  0  0  0  0  0  0  0  0  0  0
   19.0664  -26.9844   -3.2410 C   0  0  0  0  0  0  0  0  0  0  0  0
   20.9275  -33.0534   -0.7628 O   0  0  0  0  0  0  0  0  0  0  0  0
  2  1  1  1
  2  3  1  0
  4  3  1  0
  5  4  1  0
  6  5  1  0
  7  6  1  0
  8  2  1  0
  9  8  2  0
 10  8  1  0
 11 10  1  0
 11 12  1  6
 13 14  1  0
 13 12  1  0
 14 15  2  0
 16 11  1  0
 16 17  2  0
 18 14  1  0
 20 19  1  0
 21 20  2  0
 22 21  1  0
 23 22  2  0
 23 29  1  0
 25 24  1  6
 24 23  1  0
 25 26  1  0
 26 16  1  0
 27 25  1  0
 28 27  2  0
 29 30  2  0
 30 20  1  0
 31 27  1  0
M  END
$$$$
