KEY.pdb
     RDKit          3D

 31 31  0  0  1  0  0  0  0  0999 V2000
   20.1543  -13.9763  -18.1519 N   0  0  0  0  0  0  0  0  0  0  0  0
   21.2213  -12.9943  -18.1178 C   0  0  1  0  0  0  0  0  0  0  0  0
   22.1153  -13.0807  -19.3492 C   0  0  0  0  0  0  0  0  0  0  0  0
   22.5860  -14.5109  -19.4861 C   0  0  0  0  0  0  0  0  0  0  0  0
   23.5909  -14.6869  -20.5776 C   0  0  0  0  0  0  0  0  0  0  0  0
   24.1412  -16.0885  -20.6584 C   0  0  0  0  0  0  0  0  0  0  0  0
   25.2227  -16.2212  -21.5809 N   0  0  0  0  0  0  0  0  0  0  0  0
   20.6846  -11.6465  -17.9193 C   0  0  0  0  0  0  0  0  0  0  0  0
   19.8996  -11.1492  -18.7734 O   0  0  0  0  0  0  0  0  0  0  0  0
   21.0237  -10.8804  -16.7886 N   0  0  0  0  0  0  0  0  0  0  0  0
   20.4903   -9.5656  -16.4814 C   0  0  1  0  0  0  0  0  0  0  0  0
   19.4189   -9.6070  -15.4595 C   0  0  0  0  0  0  0  0  0  0  0  0
   18.8888   -8.3533  -14.9111 C   0  0  0  0  0  0  0  0  0  0  0  0
   17.8057   -8.3772  -13.9325 C   0  0  0  0  0  0  0  0  0  0  0  0
   17.8588   -8.4598  -12.7027 O   0  0  0  0  0  0  0  0  0  0  0  0
   21.5698   -8.6246  -16.2254 C   0  0  0  0  0  0  0  0  0  0  0  0
   22.5509   -8.9705  -15.4807 O   0  0  0  0  0  0  0  0  0  0  0  0
   16.4654   -8.2941  -14.4414 O   0  0  0  0  0  0  0  0  0  0  0  0
   26.6683   -1.3654  -16.1584 O   0  0  0  0  0  0  0  0  0  0  0  0
   25.7723   -2.3722  -16.4824 C   0  0  0  0  0  0  0  0  0  0  0  0
   24.4241   -2.0961  -16.6866 C   0  0  0  0  0  0  0  0  0  0  0  0
   23.5103   -3.0992  -17.0133 C   0  0  0  0  0  0  0  0  0  0  0  0
   23.9455   -4.3996  -17.1387 C   0  0  0  0  0  0  0  0  0  0  0  0
   23.0059   -5.4855  -17.4732 C   0  0  0  0  0  0  0  0  0  0  0  0
   22.6614   -6.3977  -16.3400 C   0  0  2  0  0  0  0  0  0  0  0  0
   21.5927   -7.3132  -16.7684 N   0  0  0  0  0  0  0  0  0  0  0  0
   22.0983   -5.6060  -15.2243 C   0  0  0  0  0  0  0  0  0  0  0  0
   20.8824   -5.3017  -15.2583 O   0  0  0  0  0  0  0  0  0  0  0  0
   25.2830   -4.6657  -16.9351 C   0  0  0  0  0  0  0  0  0  0  0  0
   26.1886   -3.6721  -16.6116 C   0  0  0  0  0  0  0  0  0  0  0  0
   22.8357   -5.1758  -14.1345 O   0  0  0  0  0  0  0  0  0  0  0  0
  2  1  1  6
  2  3  1  0
  4  3  1  0
  5  4  1  0
  6  5  1  0
  7  6  1  0
  8  2  1  0
  9  8  2  0
 10  8  1  0
 11 10  1  0
 11 12  1  1
 13 14  1  0
 13 12  1  0
 14 15  2  0
 16 11  1  0
 16 17  2  0
 18 14  1  0
 20 19  1  0
 21 20  2  0
 22 21  1  0
 23 22  2  0
 23 29  1  0
 25 24  1  6
 24 23  1  0
 25 26  1  0
 26 16  1  0
 27 25  1  0
 28 27  2  0
 29 30  2  0
 30 20  1  0
 31 27  1  0
M  END
$$$$
