DVV.pdb
     RDKit          3D

 23 22  0  0  1  0  0  0  0  0999 V2000
   31.2126  -30.9967  -16.8267 N   0  0  0  0  0  0  0  0  0  0  0  0
   30.3449  -32.1601  -16.8276 C   0  0  1  0  0  0  0  0  0  0  0  0
   31.0595  -33.2339  -16.0363 C   0  0  0  0  0  0  0  0  0  0  0  0
   31.5459  -34.2725  -16.9677 C   0  0  0  0  0  0  0  0  0  0  0  0
   32.2661  -35.2169  -16.6020 O   0  0  0  0  0  0  0  0  0  0  0  0
   29.0463  -31.7973  -16.2178 C   0  0  0  0  0  0  0  0  0  0  0  0
   28.9955  -31.0061  -15.2413 O   0  0  0  0  0  0  0  0  0  0  0  0
   31.1835  -34.1877  -18.3018 O   0  0  0  0  0  0  0  0  0  0  0  0
   24.2786  -31.1150  -16.7717 C   0  0  0  0  0  0  0  0  0  0  0  0
   25.6891  -31.3353  -17.2998 C   0  0  1  0  0  0  0  0  0  0  0  0
   26.2717  -30.0596  -17.8197 C   0  0  0  0  0  0  0  0  0  0  0  0
   26.5223  -31.9231  -16.1524 C   0  0  2  0  0  0  0  0  0  0  0  0
   27.7996  -32.3126  -16.6913 N   0  0  0  0  0  0  0  0  0  0  0  0
   25.7457  -33.0794  -15.6388 C   0  0  0  0  0  0  0  0  0  0  0  0
   25.5516  -34.0877  -16.3670 O   0  0  0  0  0  0  0  0  0  0  0  0
   24.0950  -35.7055  -11.7857 C   0  0  0  0  0  0  0  0  0  0  0  0
   24.8737  -34.5284  -12.3437 C   0  0  1  0  0  0  0  0  0  0  0  0
   26.3616  -34.7106  -12.1488 C   0  0  0  0  0  0  0  0  0  0  0  0
   24.5047  -34.2535  -13.7769 C   0  0  2  0  0  0  0  0  0  0  0  0
   25.1899  -33.1197  -14.3339 N   0  0  0  0  0  0  0  0  0  0  0  0
   23.0463  -33.9816  -13.8280 C   0  0  0  0  0  0  0  0  0  0  0  0
   22.1306  -34.9599  -14.1883 O   0  0  0  0  0  0  0  0  0  0  0  0
   22.5876  -32.8500  -13.5455 O   0  0  0  0  0  0  0  0  0  0  0  0
  2  1  1  1
  3  2  1  0
  4  3  1  0
  4  8  1  0
  5  4  2  0
  6  2  1  0
  7  6  2  0
 10  9  1  1
 10 11  1  0
 12 13  1  6
 12 10  1  0
 13  6  1  0
 14 12  1  0
 15 14  2  0
 17 18  1  6
 17 19  1  0
 17 16  1  0
 19 20  1  1
 20 14  1  0
 21 22  1  0
 21 19  1  0
 23 21  2  0
M  END
$$$$
