DVV.pdb
     RDKit          3D

 23 22  0  0  1  0  0  0  0  0999 V2000
   26.6199  -20.2609  -18.7817 N   0  0  0  0  0  0  0  0  0  0  0  0
   26.5082  -19.3811  -17.6328 C   0  0  1  0  0  0  0  0  0  0  0  0
   25.2287  -18.5936  -17.8133 C   0  0  0  0  0  0  0  0  0  0  0  0
   25.4928  -17.4481  -18.7082 C   0  0  0  0  0  0  0  0  0  0  0  0
   25.8739  -17.5887  -19.8826 O   0  0  0  0  0  0  0  0  0  0  0  0
   26.4849  -20.1962  -16.3979 C   0  0  0  0  0  0  0  0  0  0  0  0
   25.7257  -21.1945  -16.3031 O   0  0  0  0  0  0  0  0  0  0  0  0
   25.3077  -16.1668  -18.2158 O   0  0  0  0  0  0  0  0  0  0  0  0
   29.6320  -21.3002  -14.4497 C   0  0  0  0  0  0  0  0  0  0  0  0
   28.6953  -20.6422  -13.4464 C   0  0  1  0  0  0  0  0  0  0  0  0
   29.1397  -19.2489  -13.1326 C   0  0  0  0  0  0  0  0  0  0  0  0
   27.2832  -20.6744  -14.0474 C   0  0  2  0  0  0  0  0  0  0  0  0
   27.3056  -19.9044  -15.2642 N   0  0  0  0  0  0  0  0  0  0  0  0
   26.3912  -20.0842  -13.0178 C   0  0  0  0  0  0  0  0  0  0  0  0
   26.2923  -18.8344  -12.9044 O   0  0  0  0  0  0  0  0  0  0  0  0
   22.4460  -20.1972  -10.1559 C   0  0  0  0  0  0  0  0  0  0  0  0
   23.3303  -20.8172  -11.2220 C   0  0  1  0  0  0  0  0  0  0  0  0
   22.7499  -20.6173  -12.6034 C   0  0  0  0  0  0  0  0  0  0  0  0
   24.7501  -20.3295  -11.1121 C   0  0  2  0  0  0  0  0  0  0  0  0
   25.6171  -20.8682  -12.1237 N   0  0  0  0  0  0  0  0  0  0  0  0
   25.2736  -20.7453   -9.7868 C   0  0  0  0  0  0  0  0  0  0  0  0
   25.0580  -19.9893   -8.6435 O   0  0  0  0  0  0  0  0  0  0  0  0
   25.9341  -21.8021   -9.6534 O   0  0  0  0  0  0  0  0  0  0  0  0
  2  1  1  6
  3  2  1  0
  4  3  1  0
  4  8  1  0
  5  4  2  0
  6  2  1  0
  7  6  2  0
 10  9  1  6
 10 11  1  0
 12 13  1  6
 12 10  1  0
 13  6  1  0
 14 12  1  0
 15 14  2  0
 17 18  1  6
 17 19  1  0
 17 16  1  0
 19 20  1  6
 20 14  1  0
 21 22  1  0
 21 19  1  0
 23 21  2  0
M  END
$$$$
