DVV.pdb
     RDKit          3D

 23 22  0  0  1  0  0  0  0  0999 V2000
   18.7050  -12.2320  -18.3483 N   0  0  0  0  0  0  0  0  0  0  0  0
   19.3524  -10.9420  -18.5005 C   0  0  1  0  0  0  0  0  0  0  0  0
   18.3294  -10.0145  -19.1195 C   0  0  0  0  0  0  0  0  0  0  0  0
   18.1251  -10.3994  -20.5312 C   0  0  0  0  0  0  0  0  0  0  0  0
   17.0053  -10.6710  -20.9966 O   0  0  0  0  0  0  0  0  0  0  0  0
   19.7992  -10.4637  -17.1733 C   0  0  0  0  0  0  0  0  0  0  0  0
   18.9905  -10.3910  -16.2126 O   0  0  0  0  0  0  0  0  0  0  0  0
   19.2276  -10.4597  -21.3673 O   0  0  0  0  0  0  0  0  0  0  0  0
   23.8795  -10.0772  -16.4125 C   0  0  0  0  0  0  0  0  0  0  0  0
   22.8942  -10.3245  -15.2790 C   0  0  1  0  0  0  0  0  0  0  0  0
   23.4607   -9.8760  -13.9693 C   0  0  0  0  0  0  0  0  0  0  0  0
   21.5965   -9.5831  -15.6289 C   0  0  2  0  0  0  0  0  0  0  0  0
   21.1464  -10.0648  -16.9093 N   0  0  0  0  0  0  0  0  0  0  0  0
   21.9485   -8.1411  -15.6561 C   0  0  0  0  0  0  0  0  0  0  0  0
   22.5991   -7.6644  -16.6225 O   0  0  0  0  0  0  0  0  0  0  0  0
   20.4158   -5.1411  -16.4771 C   0  0  0  0  0  0  0  0  0  0  0  0
   20.7832   -4.9454  -15.0177 C   0  0  1  0  0  0  0  0  0  0  0  0
   19.5756   -5.0965  -14.1210 C   0  0  0  0  0  0  0  0  0  0  0  0
   21.9238   -5.8400  -14.6121 C   0  0  2  0  0  0  0  0  0  0  0  0
   21.5846   -7.2365  -14.6252 N   0  0  0  0  0  0  0  0  0  0  0  0
   22.3200   -5.4748  -13.2289 C   0  0  0  0  0  0  0  0  0  0  0  0
   23.0696   -4.3393  -12.9570 O   0  0  0  0  0  0  0  0  0  0  0  0
   21.9887   -6.1851  -12.2509 O   0  0  0  0  0  0  0  0  0  0  0  0
  2  1  1  1
  3  2  1  0
  4  3  1  0
  4  8  1  0
  5  4  2  0
  6  2  1  0
  7  6  2  0
 10  9  1  6
 10 11  1  0
 12 13  1  6
 12 10  1  0
 13  6  1  0
 14 12  1  0
 15 14  2  0
 17 18  1  1
 17 19  1  0
 17 16  1  0
 19 20  1  1
 20 14  1  0
 21 22  1  0
 21 19  1  0
 23 21  2  0
M  END
$$$$
