DVV.pdb
     RDKit          3D

 23 22  0  0  1  0  0  0  0  0999 V2000
   22.7707  -22.2073  -15.2276 N   0  0  0  0  0  0  0  0  0  0  0  0
   23.2120  -21.0028  -14.5487 C   0  0  1  0  0  0  0  0  0  0  0  0
   21.9816  -20.3835  -13.9221 C   0  0  0  0  0  0  0  0  0  0  0  0
   21.1567  -19.7743  -14.9857 C   0  0  0  0  0  0  0  0  0  0  0  0
   19.9362  -19.9834  -15.0901 O   0  0  0  0  0  0  0  0  0  0  0  0
   24.2268  -21.3622  -13.5334 C   0  0  0  0  0  0  0  0  0  0  0  0
   23.9746  -22.2234  -12.6520 O   0  0  0  0  0  0  0  0  0  0  0  0
   21.7709  -18.9371  -15.9023 O   0  0  0  0  0  0  0  0  0  0  0  0
   28.8941  -20.8765  -11.9116 C   0  0  0  0  0  0  0  0  0  0  0  0
   27.8830  -20.6768  -13.0317 C   0  0  1  0  0  0  0  0  0  0  0  0
   28.2463  -21.4911  -14.2327 C   0  0  0  0  0  0  0  0  0  0  0  0
   26.5025  -21.0542  -12.4766 C   0  0  2  0  0  0  0  0  0  0  0  0
   25.5255  -20.7657  -13.4944 N   0  0  0  0  0  0  0  0  0  0  0  0
   26.3156  -20.2264  -11.2584 C   0  0  0  0  0  0  0  0  0  0  0  0
   26.2047  -18.9760  -11.3514 O   0  0  0  0  0  0  0  0  0  0  0  0
   23.6057  -20.5616   -8.5307 C   0  0  0  0  0  0  0  0  0  0  0  0
   24.9684  -20.5891   -7.8632 C   0  0  1  0  0  0  0  0  0  0  0  0
   25.3127  -21.9765   -7.3717 C   0  0  0  0  0  0  0  0  0  0  0  0
   26.0314  -20.0087   -8.7570 C   0  0  2  0  0  0  0  0  0  0  0  0
   26.2519  -20.7762   -9.9519 N   0  0  0  0  0  0  0  0  0  0  0  0
   27.3021  -19.9736   -7.9906 C   0  0  0  0  0  0  0  0  0  0  0  0
   27.5349  -19.0299   -7.0004 O   0  0  0  0  0  0  0  0  0  0  0  0
   28.2164  -20.8016   -8.2130 O   0  0  0  0  0  0  0  0  0  0  0  0
  2  1  1  1
  3  2  1  0
  4  3  1  0
  4  8  1  0
  5  4  2  0
  6  2  1  0
  7  6  2  0
 10  9  1  1
 10 11  1  0
 12 13  1  6
 12 10  1  0
 13  6  1  0
 14 12  1  0
 15 14  2  0
 17 18  1  6
 17 19  1  0
 17 16  1  0
 19 20  1  6
 20 14  1  0
 21 22  1  0
 21 19  1  0
 23 21  2  0
M  END
$$$$
