DVV.pdb
     RDKit          3D

 23 22  0  0  1  0  0  0  0  0999 V2000
   23.3782  -13.9180  -18.0248 N   0  0  0  0  0  0  0  0  0  0  0  0
   22.0834  -14.3766  -18.4935 C   0  0  1  0  0  0  0  0  0  0  0  0
   22.3411  -15.5933  -19.3555 C   0  0  0  0  0  0  0  0  0  0  0  0
   23.0018  -15.1644  -20.6053 C   0  0  0  0  0  0  0  0  0  0  0  0
   24.2318  -15.0109  -20.6949 O   0  0  0  0  0  0  0  0  0  0  0  0
   21.2309  -14.6971  -17.3272 C   0  0  0  0  0  0  0  0  0  0  0  0
   21.7307  -15.1937  -16.2852 O   0  0  0  0  0  0  0  0  0  0  0  0
   22.2167  -14.9241  -21.7207 O   0  0  0  0  0  0  0  0  0  0  0  0
   17.0868  -13.8062  -14.8812 C   0  0  0  0  0  0  0  0  0  0  0  0
   18.1161  -13.4622  -15.9485 C   0  0  1  0  0  0  0  0  0  0  0  0
   18.9306  -12.2746  -15.5441 C   0  0  0  0  0  0  0  0  0  0  0  0
   18.9849  -14.7086  -16.1669 C   0  0  2  0  0  0  0  0  0  0  0  0
   19.8200  -14.4667  -17.3150 N   0  0  0  0  0  0  0  0  0  0  0  0
   18.0369  -15.8310  -16.3803 C   0  0  0  0  0  0  0  0  0  0  0  0
   17.2531  -15.8216  -17.3652 O   0  0  0  0  0  0  0  0  0  0  0  0
   18.5200  -19.5544  -14.3193 C   0  0  0  0  0  0  0  0  0  0  0  0
   17.7609  -19.3998  -15.6243 C   0  0  1  0  0  0  0  0  0  0  0  0
   16.8194  -20.5598  -15.8543 C   0  0  0  0  0  0  0  0  0  0  0  0
   17.0693  -18.0653  -15.7043 C   0  0  2  0  0  0  0  0  0  0  0  0
   17.9571  -16.9514  -15.5134 N   0  0  0  0  0  0  0  0  0  0  0  0
   16.0384  -18.0214  -14.6372 C   0  0  0  0  0  0  0  0  0  0  0  0
   14.7548  -18.5087  -14.8377 O   0  0  0  0  0  0  0  0  0  0  0  0
   16.2934  -17.5386  -13.5091 O   0  0  0  0  0  0  0  0  0  0  0  0
  2  1  1  1
  3  2  1  0
  4  3  1  0
  4  8  1  0
  5  4  2  0
  6  2  1  0
  7  6  2  0
 10  9  1  1
 10 11  1  0
 12 13  1  6
 12 10  1  0
 13  6  1  0
 14 12  1  0
 15 14  2  0
 17 18  1  1
 17 19  1  0
 17 16  1  0
 19 20  1  1
 20 14  1  0
 21 22  1  0
 21 19  1  0
 23 21  2  0
M  END
$$$$
