DVV.pdb
     RDKit          3D

 23 22  0  0  1  0  0  0  0  0999 V2000
   19.6547  -14.4010  -15.8980 N   0  0  0  0  0  0  0  0  0  0  0  0
   19.5323  -13.1855  -16.6817 C   0  0  1  0  0  0  0  0  0  0  0  0
   18.0831  -13.0882  -17.1063 C   0  0  0  0  0  0  0  0  0  0  0  0
   17.7896  -14.1749  -18.0631 C   0  0  0  0  0  0  0  0  0  0  0  0
   17.0147  -15.1097  -17.7988 O   0  0  0  0  0  0  0  0  0  0  0  0
   19.9433  -12.0305  -15.8530 C   0  0  0  0  0  0  0  0  0  0  0  0
   19.4105  -11.8237  -14.7325 O   0  0  0  0  0  0  0  0  0  0  0  0
   18.4045  -14.1487  -19.3039 O   0  0  0  0  0  0  0  0  0  0  0  0
   23.0719  -11.2558  -14.3257 C   0  0  0  0  0  0  0  0  0  0  0  0
   22.8452  -10.0515  -15.2285 C   0  0  1  0  0  0  0  0  0  0  0  0
   23.6278  -10.1780  -16.4969 C   0  0  0  0  0  0  0  0  0  0  0  0
   21.3361   -9.9521  -15.4907 C   0  0  2  0  0  0  0  0  0  0  0  0
   20.9481  -11.1014  -16.2668 N   0  0  0  0  0  0  0  0  0  0  0  0
   21.1355   -8.6770  -16.2243 C   0  0  0  0  0  0  0  0  0  0  0  0
   21.4998   -8.5709  -17.4245 O   0  0  0  0  0  0  0  0  0  0  0  0
   17.8293   -6.5029  -15.7135 C   0  0  0  0  0  0  0  0  0  0  0  0
   18.8186   -6.2478  -16.8357 C   0  0  1  0  0  0  0  0  0  0  0  0
   18.5130   -4.9541  -17.5555 C   0  0  0  0  0  0  0  0  0  0  0  0
   20.2395   -6.3173  -16.3437 C   0  0  2  0  0  0  0  0  0  0  0  0
   20.5383   -7.5321  -15.6363 N   0  0  0  0  0  0  0  0  0  0  0  0
   20.4572   -5.1785  -15.4168 C   0  0  0  0  0  0  0  0  0  0  0  0
   20.7681   -3.9074  -15.8779 O   0  0  0  0  0  0  0  0  0  0  0  0
   20.3672   -5.3267  -14.1755 O   0  0  0  0  0  0  0  0  0  0  0  0
  2  1  1  1
  3  2  1  0
  4  3  1  0
  4  8  1  0
  5  4  2  0
  6  2  1  0
  7  6  2  0
 10  9  1  1
 10 11  1  0
 12 13  1  6
 12 10  1  0
 13  6  1  0
 14 12  1  0
 15 14  2  0
 17 18  1  1
 17 19  1  0
 17 16  1  0
 19 20  1  1
 20 14  1  0
 21 22  1  0
 21 19  1  0
 23 21  2  0
M  END
$$$$
