DVV.pdb
     RDKit          3D

 23 22  0  0  1  0  0  0  0  0999 V2000
   22.4433  -21.9535  -15.2396 N   0  0  0  0  0  0  0  0  0  0  0  0
   22.8479  -20.8174  -14.4322 C   0  0  1  0  0  0  0  0  0  0  0  0
   21.5882  -20.2619  -13.8041 C   0  0  0  0  0  0  0  0  0  0  0  0
   21.0116  -19.2434  -14.7057 C   0  0  0  0  0  0  0  0  0  0  0  0
   19.9035  -18.7188  -14.5029 O   0  0  0  0  0  0  0  0  0  0  0  0
   23.8203  -21.2689  -13.4122 C   0  0  0  0  0  0  0  0  0  0  0  0
   23.5631  -22.2535  -12.6730 O   0  0  0  0  0  0  0  0  0  0  0  0
   21.7372  -18.8599  -15.8214 O   0  0  0  0  0  0  0  0  0  0  0  0
   27.5814  -21.6671  -13.9770 C   0  0  0  0  0  0  0  0  0  0  0  0
   27.4332  -20.7958  -12.7378 C   0  0  1  0  0  0  0  0  0  0  0  0
   27.6908  -19.3580  -13.0599 C   0  0  0  0  0  0  0  0  0  0  0  0
   26.0175  -21.0177  -12.1874 C   0  0  2  0  0  0  0  0  0  0  0  0
   25.0820  -20.6275  -13.2104 N   0  0  0  0  0  0  0  0  0  0  0  0
   25.9176  -20.1700  -10.9728 C   0  0  0  0  0  0  0  0  0  0  0  0
   25.6582  -18.9425  -11.0747 O   0  0  0  0  0  0  0  0  0  0  0  0
   23.7346  -20.6561   -7.8176 C   0  0  0  0  0  0  0  0  0  0  0  0
   25.1825  -20.5141   -7.3854 C   0  0  1  0  0  0  0  0  0  0  0  0
   25.7460  -21.8327   -6.9071 C   0  0  0  0  0  0  0  0  0  0  0  0
   26.0198  -19.8814   -8.4644 C   0  0  2  0  0  0  0  0  0  0  0  0
   26.1027  -20.6750   -9.6597 N   0  0  0  0  0  0  0  0  0  0  0  0
   27.3940  -19.7062   -7.9311 C   0  0  0  0  0  0  0  0  0  0  0  0
   27.6984  -18.7254   -6.9981 O   0  0  0  0  0  0  0  0  0  0  0  0
   28.3346  -20.4437   -8.3082 O   0  0  0  0  0  0  0  0  0  0  0  0
  2  1  1  6
  3  2  1  0
  4  3  1  0
  4  8  1  0
  5  4  2  0
  6  2  1  0
  7  6  2  0
 10  9  1  6
 10 11  1  0
 12 13  1  6
 12 10  1  0
 13  6  1  0
 14 12  1  0
 15 14  2  0
 17 18  1  6
 17 19  1  0
 17 16  1  0
 19 20  1  6
 20 14  1  0
 21 22  1  0
 21 19  1  0
 23 21  2  0
M  END
$$$$
