DVV.pdb
     RDKit          3D

 23 22  0  0  1  0  0  0  0  0999 V2000
   17.8934  -12.7352  -17.1562 N   0  0  0  0  0  0  0  0  0  0  0  0
   18.9635  -12.2061  -16.3308 C   0  0  1  0  0  0  0  0  0  0  0  0
   20.2561  -12.4843  -17.0669 C   0  0  0  0  0  0  0  0  0  0  0  0
   20.5174  -13.9382  -17.0446 C   0  0  0  0  0  0  0  0  0  0  0  0
   20.1622  -14.6688  -16.1042 O   0  0  0  0  0  0  0  0  0  0  0  0
   18.7464  -10.7568  -16.1253 C   0  0  0  0  0  0  0  0  0  0  0  0
   18.3813  -10.0219  -17.0785 O   0  0  0  0  0  0  0  0  0  0  0  0
   21.1856  -14.5073  -18.1159 O   0  0  0  0  0  0  0  0  0  0  0  0
   17.7288   -7.0742  -13.1026 C   0  0  0  0  0  0  0  0  0  0  0  0
   17.7326   -8.5441  -13.4978 C   0  0  1  0  0  0  0  0  0  0  0  0
   16.3617   -8.9974  -13.8882 C   0  0  0  0  0  0  0  0  0  0  0  0
   18.7412   -8.7088  -14.6432 C   0  0  2  0  0  0  0  0  0  0  0  0
   18.9344  -10.1194  -14.8594 N   0  0  0  0  0  0  0  0  0  0  0  0
   19.9810   -8.0280  -14.1922 C   0  0  0  0  0  0  0  0  0  0  0  0
   20.6157   -8.4600  -13.1947 O   0  0  0  0  0  0  0  0  0  0  0  0
   23.8243   -5.1456  -15.4562 C   0  0  0  0  0  0  0  0  0  0  0  0
   22.5216   -5.8430  -15.8024 C   0  0  1  0  0  0  0  0  0  0  0  0
   22.7386   -6.9426  -16.8167 C   0  0  0  0  0  0  0  0  0  0  0  0
   21.8093   -6.3243  -14.5669 C   0  0  2  0  0  0  0  0  0  0  0  0
   20.5127   -6.8818  -14.8380 N   0  0  0  0  0  0  0  0  0  0  0  0
   21.6310   -5.1617  -13.6614 C   0  0  0  0  0  0  0  0  0  0  0  0
   22.5509   -4.8588  -12.6678 O   0  0  0  0  0  0  0  0  0  0  0  0
   20.6354   -4.4072  -13.7635 O   0  0  0  0  0  0  0  0  0  0  0  0
  2  1  1  6
  3  2  1  0
  4  3  1  0
  4  8  1  0
  5  4  2  0
  6  2  1  0
  7  6  2  0
 10  9  1  6
 10 11  1  0
 12 13  1  1
 12 10  1  0
 13  6  1  0
 14 12  1  0
 15 14  2  0
 17 18  1  6
 17 19  1  0
 17 16  1  0
 19 20  1  6
 20 14  1  0
 21 22  1  0
 21 19  1  0
 23 21  2  0
M  END
$$$$
