DVV.pdb
     RDKit          3D

 23 22  0  0  1  0  0  0  0  0999 V2000
   18.6857  -12.8311  -17.1266 N   0  0  0  0  0  0  0  0  0  0  0  0
   19.1692  -11.5072  -17.4729 C   0  0  1  0  0  0  0  0  0  0  0  0
   17.9887  -10.7501  -18.0415 C   0  0  0  0  0  0  0  0  0  0  0  0
   17.6999  -11.2603  -19.3976 C   0  0  0  0  0  0  0  0  0  0  0  0
   18.5950  -11.5643  -20.2042 O   0  0  0  0  0  0  0  0  0  0  0  0
   19.7101  -10.8554  -16.2594 C   0  0  0  0  0  0  0  0  0  0  0  0
   19.0637  -10.8723  -15.1806 O   0  0  0  0  0  0  0  0  0  0  0  0
   16.3775  -11.4043  -19.7831 O   0  0  0  0  0  0  0  0  0  0  0  0
   22.7927  -11.5936  -14.5737 C   0  0  0  0  0  0  0  0  0  0  0  0
   22.9288  -10.1025  -14.8473 C   0  0  1  0  0  0  0  0  0  0  0  0
   23.8213   -9.8526  -16.0213 C   0  0  0  0  0  0  0  0  0  0  0  0
   21.5157   -9.5458  -15.0696 C   0  0  2  0  0  0  0  0  0  0  0  0
   20.9715  -10.1828  -16.2410 N   0  0  0  0  0  0  0  0  0  0  0  0
   21.6802   -8.0808  -15.2442 C   0  0  0  0  0  0  0  0  0  0  0  0
   22.0856   -7.6135  -16.3404 O   0  0  0  0  0  0  0  0  0  0  0  0
   20.4496   -3.4789  -14.4129 C   0  0  0  0  0  0  0  0  0  0  0  0
   20.2400   -4.9819  -14.3920 C   0  0  1  0  0  0  0  0  0  0  0  0
   19.3529   -5.4298  -15.5311 C   0  0  0  0  0  0  0  0  0  0  0  0
   21.5511   -5.7203  -14.3515 C   0  0  2  0  0  0  0  0  0  0  0  0
   21.3993   -7.1430  -14.2170 N   0  0  0  0  0  0  0  0  0  0  0  0
   22.3168   -5.2255  -13.1801 C   0  0  0  0  0  0  0  0  0  0  0  0
   22.3562   -5.9243  -11.9820 O   0  0  0  0  0  0  0  0  0  0  0  0
   22.9595   -4.1508  -13.2328 O   0  0  0  0  0  0  0  0  0  0  0  0
  2  1  1  1
  3  2  1  0
  4  3  1  0
  4  8  1  0
  5  4  2  0
  6  2  1  0
  7  6  2  0
 10  9  1  6
 10 11  1  0
 12 13  1  6
 12 10  1  0
 13  6  1  0
 14 12  1  0
 15 14  2  0
 17 18  1  6
 17 19  1  0
 17 16  1  0
 19 20  1  1
 20 14  1  0
 21 22  1  0
 21 19  1  0
 23 21  2  0
M  END
$$$$
