DVV.pdb
     RDKit          3D

 23 22  0  0  1  0  0  0  0  0999 V2000
   15.7709   -9.1304  -17.8026 N   0  0  0  0  0  0  0  0  0  0  0  0
   16.9945   -9.0314  -17.0283 C   0  0  1  0  0  0  0  0  0  0  0  0
   17.8650   -8.0072  -17.7233 C   0  0  0  0  0  0  0  0  0  0  0  0
   18.4845   -8.6309  -18.9107 C   0  0  0  0  0  0  0  0  0  0  0  0
   19.6626   -9.0263  -18.9225 O   0  0  0  0  0  0  0  0  0  0  0  0
   16.6616   -8.6250  -15.6448 C   0  0  0  0  0  0  0  0  0  0  0  0
   15.8502   -7.6883  -15.4297 O   0  0  0  0  0  0  0  0  0  0  0  0
   17.7195   -8.7795  -20.0556 O   0  0  0  0  0  0  0  0  0  0  0  0
   17.2503   -9.4485  -10.7788 C   0  0  0  0  0  0  0  0  0  0  0  0
   17.3468   -9.9746  -12.2038 C   0  0  1  0  0  0  0  0  0  0  0  0
   16.4465  -11.1526  -12.4021 C   0  0  0  0  0  0  0  0  0  0  0  0
   16.9938   -8.8154  -13.1460 C   0  0  2  0  0  0  0  0  0  0  0  0
   17.2294   -9.2585  -14.4958 N   0  0  0  0  0  0  0  0  0  0  0  0
   17.8802   -7.6907  -12.7543 C   0  0  0  0  0  0  0  0  0  0  0  0
   17.6895   -7.0798  -11.6703 O   0  0  0  0  0  0  0  0  0  0  0  0
   21.5870   -7.0907  -14.7081 C   0  0  0  0  0  0  0  0  0  0  0  0
   21.2844   -6.4510  -13.3656 C   0  0  1  0  0  0  0  0  0  0  0  0
   22.1644   -5.2470  -13.1187 C   0  0  0  0  0  0  0  0  0  0  0  0
   19.8189   -6.1389  -13.2220 C   0  0  2  0  0  0  0  0  0  0  0  0
   18.9656   -7.2468  -13.5532 N   0  0  0  0  0  0  0  0  0  0  0  0
   19.4989   -5.0192  -14.1425 C   0  0  0  0  0  0  0  0  0  0  0  0
   19.8614   -3.7104  -13.8584 O   0  0  0  0  0  0  0  0  0  0  0  0
   18.8852   -5.2186  -15.2169 O   0  0  0  0  0  0  0  0  0  0  0  0
  2  1  1  6
  3  2  1  0
  4  3  1  0
  4  8  1  0
  5  4  2  0
  6  2  1  0
  7  6  2  0
 10  9  1  1
 10 11  1  0
 12 13  1  6
 12 10  1  0
 13  6  1  0
 14 12  1  0
 15 14  2  0
 17 18  1  6
 17 19  1  0
 17 16  1  0
 19 20  1  6
 20 14  1  0
 21 22  1  0
 21 19  1  0
 23 21  2  0
M  END
$$$$
