DVV.pdb
     RDKit          3D

 23 22  0  0  1  0  0  0  0  0999 V2000
   19.7890  -14.5998  -18.0647 N   0  0  0  0  0  0  0  0  0  0  0  0
   19.8545  -13.2196  -18.5088 C   0  0  1  0  0  0  0  0  0  0  0  0
   18.5210  -12.9083  -19.1529 C   0  0  0  0  0  0  0  0  0  0  0  0
   18.4050  -13.6754  -20.4102 C   0  0  0  0  0  0  0  0  0  0  0  0
   19.3703  -14.2602  -20.9303 O   0  0  0  0  0  0  0  0  0  0  0  0
   20.1216  -12.3473  -17.3437 C   0  0  0  0  0  0  0  0  0  0  0  0
   19.4617  -12.4776  -16.2808 O   0  0  0  0  0  0  0  0  0  0  0  0
   17.1695  -13.7438  -21.0325 O   0  0  0  0  0  0  0  0  0  0  0  0
   23.2623   -9.7284  -14.7631 C   0  0  0  0  0  0  0  0  0  0  0  0
   22.9076  -10.7166  -15.8652 C   0  0  1  0  0  0  0  0  0  0  0  0
   23.1810  -12.1221  -15.4328 C   0  0  0  0  0  0  0  0  0  0  0  0
   21.4294  -10.5000  -16.2176 C   0  0  2  0  0  0  0  0  0  0  0  0
   21.1231  -11.3271  -17.3561 N   0  0  0  0  0  0  0  0  0  0  0  0
   21.2915   -9.0518  -16.5139 C   0  0  0  0  0  0  0  0  0  0  0  0
   21.7590   -8.5746  -17.5807 O   0  0  0  0  0  0  0  0  0  0  0  0
   17.9275   -7.1346  -15.9568 C   0  0  0  0  0  0  0  0  0  0  0  0
   19.1111   -6.5320  -16.6909 C   0  0  1  0  0  0  0  0  0  0  0  0
   18.8738   -5.0748  -17.0154 C   0  0  0  0  0  0  0  0  0  0  0  0
   20.3971   -6.7586  -15.9422 C   0  0  2  0  0  0  0  0  0  0  0  0
   20.6434   -8.1417  -15.6392 N   0  0  0  0  0  0  0  0  0  0  0  0
   20.3162   -6.0133  -14.6611 C   0  0  0  0  0  0  0  0  0  0  0  0
   20.7401   -4.6967  -14.5511 O   0  0  0  0  0  0  0  0  0  0  0  0
   19.8587   -6.5516  -13.6258 O   0  0  0  0  0  0  0  0  0  0  0  0
  2  1  1  1
  3  2  1  0
  4  3  1  0
  4  8  1  0
  5  4  2  0
  6  2  1  0
  7  6  2  0
 10  9  1  1
 10 11  1  0
 12 13  1  6
 12 10  1  0
 13  6  1  0
 14 12  1  0
 15 14  2  0
 17 18  1  1
 17 19  1  0
 17 16  1  0
 19 20  1  1
 20 14  1  0
 21 22  1  0
 21 19  1  0
 23 21  2  0
M  END
$$$$
