SSC.pdb
     RDKit          3D

 19 18  0  0  1  0  0  0  0  0999 V2000
    2.4274  -18.4860   22.4610 O   0  0  0  0  0  0  0  0  0  0  0  0
    3.8370  -18.4159   22.4796 C   0  0  0  0  0  0  0  0  0  0  0  0
    4.3114  -18.5523   21.0607 C   0  0  2  0  0  0  0  0  0  0  0  0
    4.1552  -19.9054   20.5927 N   0  0  0  0  0  0  0  0  0  0  0  0
    5.7430  -18.1783   20.9658 C   0  0  0  0  0  0  0  0  0  0  0  0
    6.6415  -18.9699   21.3610 O   0  0  0  0  0  0  0  0  0  0  0  0
    8.9321  -14.9652   19.2554 O   0  0  0  0  0  0  0  0  0  0  0  0
    7.5994  -15.3096   19.4718 C   0  0  0  0  0  0  0  0  0  0  0  0
    7.5297  -16.5647   20.3439 C   0  0  2  0  0  0  0  0  0  0  0  0
    6.1543  -16.9399   20.4374 N   0  0  0  0  0  0  0  0  0  0  0  0
    8.1765  -16.3561   21.6447 C   0  0  0  0  0  0  0  0  0  0  0  0
    7.4996  -15.8536   22.5785 O   0  0  0  0  0  0  0  0  0  0  0  0
    9.5235  -16.6834   21.9279 N   0  0  0  0  0  0  0  0  0  0  0  0
   10.1650  -16.3124   23.1403 C   0  0  1  0  0  0  0  0  0  0  0  0
    9.7710  -17.1476   24.3289 C   0  0  0  0  0  0  0  0  0  0  0  0
   10.7161  -16.7716   25.8020 S   0  0  0  0  0  0  0  0  0  0  0  0
   11.6439  -16.3483   22.9814 C   0  0  0  0  0  0  0  0  0  0  0  0
   12.4994  -15.8533   23.9514 O   0  0  0  0  0  0  0  0  0  0  0  0
   12.1422  -16.8418   21.9367 O   0  0  0  0  0  0  0  0  0  0  0  0
  2  1  1  0
  3  4  1  1
  3  2  1  0
  5  3  1  0
  6  5  2  0
  7  8  1  0
  9  8  1  6
  9 11  1  0
  9 10  1  0
 10  5  1  0
 11 12  2  0
 13 14  1  0
 13 11  1  0
 14 15  1  1
 15 16  1  0
 17 14  1  0
 18 17  1  0
 19 17  2  0
M  END
$$$$
