SSC.pdb
     RDKit          3D

 19 18  0  0  1  0  0  0  0  0999 V2000
    9.6378  -16.6093   13.7666 O   0  0  0  0  0  0  0  0  0  0  0  0
    8.6456  -16.4332   14.7549 C   0  0  0  0  0  0  0  0  0  0  0  0
    8.4273  -14.9552   14.9125 C   0  0  2  0  0  0  0  0  0  0  0  0
    9.1114  -14.2200   13.8801 N   0  0  0  0  0  0  0  0  0  0  0  0
    8.9329  -14.5052   16.2317 C   0  0  0  0  0  0  0  0  0  0  0  0
   10.1642  -14.3022   16.4128 O   0  0  0  0  0  0  0  0  0  0  0  0
    6.3840  -14.3147   19.5094 O   0  0  0  0  0  0  0  0  0  0  0  0
    7.3374  -13.3085   19.3682 C   0  0  0  0  0  0  0  0  0  0  0  0
    8.5437  -13.8502   18.5987 C   0  0  2  0  0  0  0  0  0  0  0  0
    8.0710  -14.2883   17.3236 N   0  0  0  0  0  0  0  0  0  0  0  0
    9.2476  -14.8898   19.3586 C   0  0  0  0  0  0  0  0  0  0  0  0
    9.0764  -16.0926   19.0318 O   0  0  0  0  0  0  0  0  0  0  0  0
   10.1159  -14.6338   20.4458 N   0  0  0  0  0  0  0  0  0  0  0  0
   10.6416  -15.6667   21.2681 C   0  0  1  0  0  0  0  0  0  0  0  0
   11.5075  -15.1771   22.3977 C   0  0  0  0  0  0  0  0  0  0  0  0
   12.2256  -16.5022   23.3638 S   0  0  0  0  0  0  0  0  0  0  0  0
    9.5437  -16.5071   21.8175 C   0  0  0  0  0  0  0  0  0  0  0  0
    9.6881  -17.8710   22.0097 O   0  0  0  0  0  0  0  0  0  0  0  0
    8.4461  -15.9713   22.1198 O   0  0  0  0  0  0  0  0  0  0  0  0
  2  1  1  0
  3  4  1  6
  3  2  1  0
  5  3  1  0
  6  5  2  0
  7  8  1  0
  9  8  1  1
  9 11  1  0
  9 10  1  0
 10  5  1  0
 11 12  2  0
 13 14  1  0
 13 11  1  0
 14 15  1  1
 15 16  1  0
 17 14  1  0
 18 17  1  0
 19 17  2  0
M  END
$$$$
