SSC.pdb
     RDKit          3D

 19 18  0  0  1  0  0  0  0  0999 V2000
   -0.7203   -0.2941   34.7270 O   0  0  0  0  0  0  0  0  0  0  0  0
   -1.7585    0.6619   34.7043 C   0  0  0  0  0  0  0  0  0  0  0  0
   -2.8619    0.1052   33.8503 C   0  0  2  0  0  0  0  0  0  0  0  0
   -3.3666    1.1044   32.9440 N   0  0  0  0  0  0  0  0  0  0  0  0
   -3.9767   -0.3678   34.7057 C   0  0  0  0  0  0  0  0  0  0  0  0
   -4.8141    0.4475   35.1791 O   0  0  0  0  0  0  0  0  0  0  0  0
   -6.2952   -4.2304   36.4817 O   0  0  0  0  0  0  0  0  0  0  0  0
   -5.1996   -3.7257   35.7844 C   0  0  0  0  0  0  0  0  0  0  0  0
   -5.2062   -2.1975   35.8563 C   0  0  2  0  0  0  0  0  0  0  0  0
   -4.1453   -1.7294   35.0216 N   0  0  0  0  0  0  0  0  0  0  0  0
   -5.1240   -1.7209   37.2419 C   0  0  0  0  0  0  0  0  0  0  0  0
   -3.9963   -1.6824   37.7981 O   0  0  0  0  0  0  0  0  0  0  0  0
   -6.2357   -1.2960   38.0070 N   0  0  0  0  0  0  0  0  0  0  0  0
   -6.1106   -0.7997   39.3326 C   0  0  1  0  0  0  0  0  0  0  0  0
   -6.1528    0.7012   39.4373 C   0  0  0  0  0  0  0  0  0  0  0  0
   -5.7184    1.3092   41.0641 S   0  0  0  0  0  0  0  0  0  0  0  0
   -7.1597   -1.3845   40.2108 C   0  0  0  0  0  0  0  0  0  0  0  0
   -7.0136   -1.4506   41.5863 O   0  0  0  0  0  0  0  0  0  0  0  0
   -8.2161   -1.8355   39.6970 O   0  0  0  0  0  0  0  0  0  0  0  0
  2  1  1  0
  3  4  1  6
  3  2  1  0
  5  3  1  0
  6  5  2  0
  7  8  1  0
  9  8  1  1
  9 11  1  0
  9 10  1  0
 10  5  1  0
 11 12  2  0
 13 14  1  0
 13 11  1  0
 14 15  1  6
 15 16  1  0
 17 14  1  0
 18 17  1  0
 19 17  2  0
M  END
$$$$
