SSC.pdb
     RDKit          3D

 19 18  0  0  1  0  0  0  0  0999 V2000
    9.3123  -21.3241   18.3521 O   0  0  0  0  0  0  0  0  0  0  0  0
   10.4357  -20.4837   18.5061 C   0  0  0  0  0  0  0  0  0  0  0  0
   10.0961  -19.1619   17.8781 C   0  0  2  0  0  0  0  0  0  0  0  0
   10.7958  -18.9887   16.6311 N   0  0  0  0  0  0  0  0  0  0  0  0
   10.4698  -18.0550   18.7910 C   0  0  0  0  0  0  0  0  0  0  0  0
   11.2081  -17.1140   18.3916 O   0  0  0  0  0  0  0  0  0  0  0  0
    8.8863  -17.9298   22.6007 O   0  0  0  0  0  0  0  0  0  0  0  0
    9.2290  -16.7329   21.9751 C   0  0  0  0  0  0  0  0  0  0  0  0
   10.4064  -16.9692   21.0271 C   0  0  2  0  0  0  0  0  0  0  0  0
   10.0221  -18.0084   20.1250 N   0  0  0  0  0  0  0  0  0  0  0  0
   11.6448  -17.2513   21.7625 C   0  0  0  0  0  0  0  0  0  0  0  0
   11.9702  -18.4515   21.9530 O   0  0  0  0  0  0  0  0  0  0  0  0
   12.5099  -16.2582   22.2792 N   0  0  0  0  0  0  0  0  0  0  0  0
   13.7128  -16.5709   22.9680 C   0  0  1  0  0  0  0  0  0  0  0  0
   14.7134  -15.4472   23.0060 C   0  0  0  0  0  0  0  0  0  0  0  0
   16.2657  -15.9079   23.7696 S   0  0  0  0  0  0  0  0  0  0  0  0
   13.4191  -17.0164   24.3568 C   0  0  0  0  0  0  0  0  0  0  0  0
   14.2176  -17.9343   25.0185 O   0  0  0  0  0  0  0  0  0  0  0  0
   12.4164  -16.5502   24.9573 O   0  0  0  0  0  0  0  0  0  0  0  0
  2  1  1  0
  3  4  1  6
  3  2  1  0
  5  3  1  0
  6  5  2  0
  7  8  1  0
  9  8  1  1
  9 11  1  0
  9 10  1  0
 10  5  1  0
 11 12  2  0
 13 14  1  0
 13 11  1  0
 14 15  1  1
 15 16  1  0
 17 14  1  0
 18 17  1  0
 19 17  2  0
M  END
$$$$
