LLF.pdb
     RDKit          3D

 28 28  0  0  1  0  0  0  0  0999 V2000
   20.6924  -19.0112  -14.4619 C   0  0  0  0  0  0  0  0  0  0  0  0
   22.0490  -19.3130  -15.0835 C   0  0  2  0  0  0  0  0  0  0  0  0
   21.9118  -19.3089  -16.5930 C   0  0  0  0  0  0  0  0  0  0  0  0
   22.5877  -20.6380  -14.5863 C   0  0  0  0  0  0  0  0  0  0  0  0
   23.0914  -20.4702  -13.1682 C   0  0  2  0  0  0  0  0  0  0  0  0
   23.0109  -19.1025  -12.7809 N   0  0  0  0  0  0  0  0  0  0  0  0
   24.4351  -20.9909  -12.9720 C   0  0  0  0  0  0  0  0  0  0  0  0
   24.7181  -22.2148  -13.3340 O   0  0  0  0  0  0  0  0  0  0  0  0
   28.9174  -18.7720  -14.6677 C   0  0  0  0  0  0  0  0  0  0  0  0
   27.8297  -19.6659  -14.1485 C   0  0  1  0  0  0  0  0  0  0  0  0
   27.9238  -20.9746  -14.9562 C   0  0  0  0  0  0  0  0  0  0  0  0
   27.8886  -20.0028  -12.7254 C   0  0  0  0  0  0  0  0  0  0  0  0
   26.7922  -20.8946  -12.1873 C   0  0  2  0  0  0  0  0  0  0  0  0
   25.4896  -20.2717  -12.4110 N   0  0  0  0  0  0  0  0  0  0  0  0
   26.8846  -21.2189  -10.7752 C   0  0  0  0  0  0  0  0  0  0  0  0
   28.0058  -21.5267  -10.2866 O   0  0  0  0  0  0  0  0  0  0  0  0
   25.7999  -21.2176   -9.8455 N   0  0  0  0  0  0  0  0  0  0  0  0
   26.0861  -21.0851   -8.4192 C   0  0  1  0  0  0  0  0  0  0  0  0
   26.9616  -19.8209   -8.2367 C   0  0  0  0  0  0  0  0  0  0  0  0
   27.6669  -19.8416   -6.9574 C   0  0  0  0  0  0  0  0  0  0  0  0
   28.1076  -18.6253   -6.4352 C   0  0  0  0  0  0  0  0  0  0  0  0
   28.7397  -18.6363   -5.2043 C   0  0  0  0  0  0  0  0  0  0  0  0
   28.9403  -19.7893   -4.4980 C   0  0  0  0  0  0  0  0  0  0  0  0
   28.5010  -21.0021   -5.0193 C   0  0  0  0  0  0  0  0  0  0  0  0
   27.8722  -20.9974   -6.2415 C   0  0  0  0  0  0  0  0  0  0  0  0
   24.8616  -20.9271   -7.6380 C   0  0  0  0  0  0  0  0  0  0  0  0
   24.6952  -21.4241   -6.3260 O   0  0  0  0  0  0  0  0  0  0  0  0
   23.8185  -20.3251   -8.0609 O   0  0  0  0  0  0  0  0  0  0  0  0
  2  1  1  1
  3  2  1  0
  4  2  1  0
  5  4  1  0
  5  6  1  6
  7  8  2  0
  7  5  1  0
 10  9  1  6
 10 12  1  0
 11 10  1  0
 13 12  1  1
 13 14  1  0
 14  7  1  0
 15 13  1  0
 15 17  1  0
 16 15  2  0
 18 17  1  0
 18 26  1  0
 18 19  1  6
 20 19  1  0
 20 21  2  0
 22 21  1  0
 23 22  2  0
 24 25  2  0
 24 23  1  0
 25 20  1  0
 26 28  2  0
 26 27  1  0
M  END
$$$$
