LLF.pdb
     RDKit          3D

 28 28  0  0  1  0  0  0  0  0999 V2000
   27.0011  -17.2022  -18.5990 C   0  0  0  0  0  0  0  0  0  0  0  0
   25.6736  -17.9455  -18.5437 C   0  0  2  0  0  0  0  0  0  0  0  0
   24.5418  -16.9412  -18.6332 C   0  0  0  0  0  0  0  0  0  0  0  0
   25.5714  -18.7743  -17.2806 C   0  0  0  0  0  0  0  0  0  0  0  0
   26.7945  -19.6596  -17.1656 C   0  0  2  0  0  0  0  0  0  0  0  0
   26.7811  -20.6455  -18.1927 N   0  0  0  0  0  0  0  0  0  0  0  0
   26.9369  -20.2727  -15.8543 C   0  0  0  0  0  0  0  0  0  0  0  0
   26.2823  -21.3689  -15.5739 O   0  0  0  0  0  0  0  0  0  0  0  0
   29.4195  -22.1366  -11.3895 C   0  0  0  0  0  0  0  0  0  0  0  0
   29.3670  -20.6433  -11.5275 C   0  0  1  0  0  0  0  0  0  0  0  0
   30.7204  -20.1143  -11.0154 C   0  0  0  0  0  0  0  0  0  0  0  0
   29.1552  -20.1220  -12.8787 C   0  0  0  0  0  0  0  0  0  0  0  0
   27.8439  -20.4680  -13.5479 C   0  0  2  0  0  0  0  0  0  0  0  0
   27.7421  -19.7756  -14.8304 N   0  0  0  0  0  0  0  0  0  0  0  0
   26.6490  -20.1533  -12.7855 C   0  0  0  0  0  0  0  0  0  0  0  0
   26.0561  -19.0600  -12.9943 O   0  0  0  0  0  0  0  0  0  0  0  0
   26.0481  -20.9869  -11.7931 N   0  0  0  0  0  0  0  0  0  0  0  0
   24.8563  -20.5137  -11.0937 C   0  0  1  0  0  0  0  0  0  0  0  0
   23.6413  -20.7748  -12.0175 C   0  0  0  0  0  0  0  0  0  0  0  0
   22.3938  -20.3421  -11.3920 C   0  0  0  0  0  0  0  0  0  0  0  0
   21.6135  -21.3076  -10.7554 C   0  0  0  0  0  0  0  0  0  0  0  0
   20.4520  -20.8948  -10.1267 C   0  0  0  0  0  0  0  0  0  0  0  0
   20.0557  -19.5866  -10.1131 C   0  0  0  0  0  0  0  0  0  0  0  0
   20.8339  -18.6241  -10.7484 C   0  0  0  0  0  0  0  0  0  0  0  0
   21.9889  -19.0282  -11.3744 C   0  0  0  0  0  0  0  0  0  0  0  0
   24.6533  -21.2273   -9.8350 C   0  0  0  0  0  0  0  0  0  0  0  0
   24.0490  -20.6541   -8.6938 O   0  0  0  0  0  0  0  0  0  0  0  0
   25.0010  -22.4395   -9.6383 O   0  0  0  0  0  0  0  0  0  0  0  0
  2  1  1  1
  3  2  1  0
  4  2  1  0
  5  4  1  0
  5  6  1  6
  7  8  2  0
  7  5  1  0
 10  9  1  6
 10 12  1  0
 11 10  1  0
 13 12  1  1
 13 14  1  0
 14  7  1  0
 15 13  1  0
 15 17  1  0
 16 15  2  0
 18 17  1  0
 18 26  1  0
 18 19  1  6
 20 19  1  0
 20 21  2  0
 22 21  1  0
 23 22  2  0
 24 25  2  0
 24 23  1  0
 25 20  1  0
 26 28  2  0
 26 27  1  0
M  END
$$$$
