LLF.pdb
     RDKit          3D

 28 28  0  0  1  0  0  0  0  0999 V2000
   22.9604  -16.2708  -17.7560 C   0  0  0  0  0  0  0  0  0  0  0  0
   22.1090  -17.4271  -18.2617 C   0  0  2  0  0  0  0  0  0  0  0  0
   20.6452  -17.0579  -18.1264 C   0  0  0  0  0  0  0  0  0  0  0  0
   22.4246  -18.7006  -17.5058 C   0  0  0  0  0  0  0  0  0  0  0  0
   23.9133  -18.9675  -17.5794 C   0  0  2  0  0  0  0  0  0  0  0  0
   24.2576  -19.4568  -18.8714 N   0  0  0  0  0  0  0  0  0  0  0  0
   24.3868  -19.8649  -16.5373 C   0  0  0  0  0  0  0  0  0  0  0  0
   24.1231  -21.1432  -16.6099 O   0  0  0  0  0  0  0  0  0  0  0  0
   29.2276  -19.6393  -14.0252 C   0  0  0  0  0  0  0  0  0  0  0  0
   27.9268  -20.1007  -14.6139 C   0  0  1  0  0  0  0  0  0  0  0  0
   28.1486  -21.5577  -15.0631 C   0  0  0  0  0  0  0  0  0  0  0  0
   26.7635  -20.0690  -13.7263 C   0  0  0  0  0  0  0  0  0  0  0  0
   25.4232  -20.4023  -14.3424 C   0  0  2  0  0  0  0  0  0  0  0  0
   25.1268  -19.4667  -15.4248 N   0  0  0  0  0  0  0  0  0  0  0  0
   24.2933  -20.3877  -13.4307 C   0  0  0  0  0  0  0  0  0  0  0  0
   24.3089  -19.6023  -12.4441 O   0  0  0  0  0  0  0  0  0  0  0  0
   23.1191  -21.1935  -13.5434 N   0  0  0  0  0  0  0  0  0  0  0  0
   22.0944  -21.1060  -12.5061 C   0  0  1  0  0  0  0  0  0  0  0  0
   21.6350  -19.6291  -12.4306 C   0  0  0  0  0  0  0  0  0  0  0  0
   20.5024  -19.4695  -11.5216 C   0  0  0  0  0  0  0  0  0  0  0  0
   19.2206  -19.4524  -12.0723 C   0  0  0  0  0  0  0  0  0  0  0  0
   18.1435  -19.3425  -11.2107 C   0  0  0  0  0  0  0  0  0  0  0  0
   18.2999  -19.2518   -9.8557 C   0  0  0  0  0  0  0  0  0  0  0  0
   19.5783  -19.2685   -9.3069 C   0  0  0  0  0  0  0  0  0  0  0  0
   20.6522  -19.3777  -10.1579 C   0  0  0  0  0  0  0  0  0  0  0  0
   20.9392  -21.9435  -12.8201 C   0  0  0  0  0  0  0  0  0  0  0  0
   20.6893  -22.4932  -14.0973 O   0  0  0  0  0  0  0  0  0  0  0  0
   20.0390  -22.2633  -11.9736 O   0  0  0  0  0  0  0  0  0  0  0  0
  2  1  1  1
  3  2  1  0
  4  2  1  0
  5  4  1  0
  5  6  1  6
  7  8  2  0
  7  5  1  0
 10  9  1  1
 10 12  1  0
 11 10  1  0
 13 12  1  1
 13 14  1  0
 14  7  1  0
 15 13  1  0
 15 17  1  0
 16 15  2  0
 18 17  1  0
 18 26  1  0
 18 19  1  6
 20 19  1  0
 20 21  2  0
 22 21  1  0
 23 22  2  0
 24 25  2  0
 24 23  1  0
 25 20  1  0
 26 28  2  0
 26 27  1  0
M  END
$$$$
