LLF.pdb
     RDKit          3D

 28 28  0  0  1  0  0  0  0  0999 V2000
   22.8890  -10.0952  -22.5007 C   0  0  0  0  0  0  0  0  0  0  0  0
   21.5738   -9.3581  -22.2890 C   0  0  2  0  0  0  0  0  0  0  0  0
   21.5994   -8.0662  -23.0812 C   0  0  0  0  0  0  0  0  0  0  0  0
   21.3344   -9.0933  -20.8175 C   0  0  0  0  0  0  0  0  0  0  0  0
   21.3189  -10.4105  -20.0705 C   0  0  2  0  0  0  0  0  0  0  0  0
   20.1453  -11.1452  -20.4022 N   0  0  0  0  0  0  0  0  0  0  0  0
   21.4483  -10.2541  -18.6303 C   0  0  0  0  0  0  0  0  0  0  0  0
   20.4009   -9.9426  -17.9129 O   0  0  0  0  0  0  0  0  0  0  0  0
   22.7143  -13.2794  -16.1155 C   0  0  0  0  0  0  0  0  0  0  0  0
   23.4946  -12.3160  -15.2700 C   0  0  1  0  0  0  0  0  0  0  0  0
   24.8121  -13.0280  -14.9079 C   0  0  0  0  0  0  0  0  0  0  0  0
   23.8253  -11.0302  -15.8861 C   0  0  0  0  0  0  0  0  0  0  0  0
   22.6784  -10.2360  -16.4700 C   0  0  2  0  0  0  0  0  0  0  0  0
   22.6370  -10.4143  -17.9195 N   0  0  0  0  0  0  0  0  0  0  0  0
   22.7061   -8.8086  -16.2060 C   0  0  0  0  0  0  0  0  0  0  0  0
   23.2425   -8.0375  -17.0476 O   0  0  0  0  0  0  0  0  0  0  0  0
   22.1619   -8.1617  -15.0544 N   0  0  0  0  0  0  0  0  0  0  0  0
   22.2262   -6.7055  -14.9599 C   0  0  1  0  0  0  0  0  0  0  0  0
   21.4574   -6.1270  -16.1731 C   0  0  0  0  0  0  0  0  0  0  0  0
   21.4663   -4.6660  -16.1620 C   0  0  0  0  0  0  0  0  0  0  0  0
   20.3342   -4.0100  -15.6778 C   0  0  0  0  0  0  0  0  0  0  0  0
   20.3549   -2.6273  -15.6276 C   0  0  0  0  0  0  0  0  0  0  0  0
   21.4383   -1.8991  -16.0332 C   0  0  0  0  0  0  0  0  0  0  0  0
   22.5669   -2.5537  -16.5163 C   0  0  0  0  0  0  0  0  0  0  0  0
   22.5523   -3.9271  -16.5684 C   0  0  0  0  0  0  0  0  0  0  0  0
   21.6030   -6.2188  -13.7313 C   0  0  0  0  0  0  0  0  0  0  0  0
   22.0514   -5.0856  -13.0166 O   0  0  0  0  0  0  0  0  0  0  0  0
   20.5915   -6.7674  -13.1790 O   0  0  0  0  0  0  0  0  0  0  0  0
  2  1  1  1
  3  2  1  0
  4  2  1  0
  5  4  1  0
  5  6  1  1
  7  8  2  0
  7  5  1  0
 10  9  1  6
 10 12  1  0
 11 10  1  0
 13 12  1  6
 13 14  1  0
 14  7  1  0
 15 13  1  0
 15 17  1  0
 16 15  2  0
 18 17  1  0
 18 26  1  0
 18 19  1  6
 20 19  1  0
 20 21  2  0
 22 21  1  0
 23 22  2  0
 24 25  2  0
 24 23  1  0
 25 20  1  0
 26 28  2  0
 26 27  1  0
M  END
$$$$
