LLF.pdb
     RDKit          3D

 28 28  0  0  1  0  0  0  0  0999 V2000
   28.7525  -19.1164  -16.6032 C   0  0  0  0  0  0  0  0  0  0  0  0
   28.2903  -17.7144  -16.2307 C   0  0  2  0  0  0  0  0  0  0  0  0
   29.4927  -16.7925  -16.1923 C   0  0  0  0  0  0  0  0  0  0  0  0
   27.5629  -17.7211  -14.9027 C   0  0  0  0  0  0  0  0  0  0  0  0
   26.4540  -18.7513  -14.9473 C   0  0  2  0  0  0  0  0  0  0  0  0
   25.4860  -18.3835  -15.9245 N   0  0  0  0  0  0  0  0  0  0  0  0
   25.8303  -18.9784  -13.6532 C   0  0  0  0  0  0  0  0  0  0  0  0
   25.3578  -17.9676  -12.9721 O   0  0  0  0  0  0  0  0  0  0  0  0
   21.6351  -21.8763  -13.1270 C   0  0  0  0  0  0  0  0  0  0  0  0
   22.7198  -20.8777  -12.8477 C   0  0  1  0  0  0  0  0  0  0  0  0
   22.0321  -19.6649  -12.1921 C   0  0  0  0  0  0  0  0  0  0  0  0
   23.8007  -21.3210  -11.9660 C   0  0  0  0  0  0  0  0  0  0  0  0
   24.9688  -20.3773  -11.7873 C   0  0  2  0  0  0  0  0  0  0  0  0
   25.6854  -20.2279  -13.0518 N   0  0  0  0  0  0  0  0  0  0  0  0
   25.9386  -20.7643  -10.7786 C   0  0  0  0  0  0  0  0  0  0  0  0
   26.7901  -21.6533  -11.0528 O   0  0  0  0  0  0  0  0  0  0  0  0
   26.0380  -20.2174   -9.4626 N   0  0  0  0  0  0  0  0  0  0  0  0
   26.7139  -20.9877   -8.4217 C   0  0  1  0  0  0  0  0  0  0  0  0
   28.0789  -20.3076   -8.1532 C   0  0  0  0  0  0  0  0  0  0  0  0
   28.1635  -19.8053   -6.7838 C   0  0  0  0  0  0  0  0  0  0  0  0
   27.6448  -18.5373   -6.5204 C   0  0  0  0  0  0  0  0  0  0  0  0
   27.6863  -18.0751   -5.2168 C   0  0  0  0  0  0  0  0  0  0  0  0
   28.2136  -18.8167   -4.1967 C   0  0  0  0  0  0  0  0  0  0  0  0
   28.7311  -20.0811   -4.4598 C   0  0  0  0  0  0  0  0  0  0  0  0
   28.6925  -20.5456   -5.7529 C   0  0  0  0  0  0  0  0  0  0  0  0
   25.9435  -21.0048   -7.1803 C   0  0  0  0  0  0  0  0  0  0  0  0
   26.1976  -21.8893   -6.1083 O   0  0  0  0  0  0  0  0  0  0  0  0
   24.9636  -20.2236   -6.9383 O   0  0  0  0  0  0  0  0  0  0  0  0
  2  1  1  1
  3  2  1  0
  4  2  1  0
  5  4  1  0
  5  6  1  6
  7  8  2  0
  7  5  1  0
 10  9  1  1
 10 12  1  0
 11 10  1  0
 13 12  1  6
 13 14  1  0
 14  7  1  0
 15 13  1  0
 15 17  1  0
 16 15  2  0
 18 17  1  0
 18 26  1  0
 18 19  1  1
 20 19  1  0
 20 21  2  0
 22 21  1  0
 23 22  2  0
 24 25  2  0
 24 23  1  0
 25 20  1  0
 26 28  2  0
 26 27  1  0
M  END
$$$$
