LLF.pdb
     RDKit          3D

 28 28  0  0  1  0  0  0  0  0999 V2000
   25.3153  -18.4319  -15.4837 C   0  0  0  0  0  0  0  0  0  0  0  0
   26.8018  -18.6191  -15.7542 C   0  0  2  0  0  0  0  0  0  0  0  0
   27.0034  -18.8963  -17.2307 C   0  0  0  0  0  0  0  0  0  0  0  0
   27.3682  -19.7374  -14.9049 C   0  0  0  0  0  0  0  0  0  0  0  0
   27.0286  -19.4801  -13.4518 C   0  0  2  0  0  0  0  0  0  0  0  0
   27.6162  -18.2561  -13.0232 N   0  0  0  0  0  0  0  0  0  0  0  0
   27.4040  -20.5763  -12.5728 C   0  0  0  0  0  0  0  0  0  0  0  0
   26.9630  -21.7833  -12.8129 O   0  0  0  0  0  0  0  0  0  0  0  0
   31.0406  -22.0056  -12.4732 C   0  0  0  0  0  0  0  0  0  0  0  0
   30.9381  -22.3574  -11.0181 C   0  0  1  0  0  0  0  0  0  0  0  0
   32.3507  -22.1779  -10.4297 C   0  0  0  0  0  0  0  0  0  0  0  0
   30.0066  -21.5589  -10.2199 C   0  0  0  0  0  0  0  0  0  0  0  0
   28.5490  -21.6046  -10.6203 C   0  0  2  0  0  0  0  0  0  0  0  0
   28.2257  -20.4489  -11.4536 N   0  0  0  0  0  0  0  0  0  0  0  0
   27.5984  -21.6319   -9.5233 C   0  0  0  0  0  0  0  0  0  0  0  0
   27.5703  -22.6340   -8.7582 O   0  0  0  0  0  0  0  0  0  0  0  0
   26.6628  -20.6007   -9.2034 N   0  0  0  0  0  0  0  0  0  0  0  0
   25.7278  -20.8063   -8.1001 C   0  0  1  0  0  0  0  0  0  0  0  0
   25.7661  -19.5355   -7.2161 C   0  0  0  0  0  0  0  0  0  0  0  0
   26.9744  -19.4935   -6.3958 C   0  0  0  0  0  0  0  0  0  0  0  0
   27.8735  -18.4487   -6.6110 C   0  0  0  0  0  0  0  0  0  0  0  0
   28.9987  -18.3827   -5.8083 C   0  0  0  0  0  0  0  0  0  0  0  0
   29.2482  -19.2996   -4.8257 C   0  0  0  0  0  0  0  0  0  0  0  0
   28.3515  -20.3415   -4.6116 C   0  0  0  0  0  0  0  0  0  0  0  0
   27.2318  -20.4122   -5.4058 C   0  0  0  0  0  0  0  0  0  0  0  0
   24.3629  -21.0039   -8.5825 C   0  0  0  0  0  0  0  0  0  0  0  0
   24.0024  -20.9994   -9.9486 O   0  0  0  0  0  0  0  0  0  0  0  0
   23.3584  -21.2001   -7.8199 O   0  0  0  0  0  0  0  0  0  0  0  0
  2  1  1  6
  3  2  1  0
  4  2  1  0
  5  4  1  0
  5  6  1  1
  7  8  2  0
  7  5  1  0
 10  9  1  6
 10 12  1  0
 11 10  1  0
 13 12  1  1
 13 14  1  0
 14  7  1  0
 15 13  1  0
 15 17  1  0
 16 15  2  0
 18 17  1  0
 18 26  1  0
 18 19  1  1
 20 19  1  0
 20 21  2  0
 22 21  1  0
 23 22  2  0
 24 25  2  0
 24 23  1  0
 25 20  1  0
 26 28  2  0
 26 27  1  0
M  END
$$$$
