LLF.pdb
     RDKit          3D

 28 28  0  0  1  0  0  0  0  0999 V2000
   26.8165  -40.3108   -5.8773 C   0  0  0  0  0  0  0  0  0  0  0  0
   28.3046  -40.2132   -6.1840 C   0  0  2  0  0  0  0  0  0  0  0  0
   29.0650  -41.1120   -5.2294 C   0  0  0  0  0  0  0  0  0  0  0  0
   28.7831  -38.7800   -6.0850 C   0  0  0  0  0  0  0  0  0  0  0  0
   27.9856  -37.9213   -7.0440 C   0  0  2  0  0  0  0  0  0  0  0  0
   28.3584  -38.2147   -8.3864 N   0  0  0  0  0  0  0  0  0  0  0  0
   28.0996  -36.4977   -6.7689 C   0  0  0  0  0  0  0  0  0  0  0  0
   29.1964  -35.8598   -7.0839 O   0  0  0  0  0  0  0  0  0  0  0  0
   25.2541  -32.5532   -8.5640 C   0  0  0  0  0  0  0  0  0  0  0  0
   26.3694  -33.3212   -7.9175 C   0  0  1  0  0  0  0  0  0  0  0  0
   27.6728  -32.5936   -8.2991 C   0  0  0  0  0  0  0  0  0  0  0  0
   26.3206  -33.4350   -6.4591 C   0  0  0  0  0  0  0  0  0  0  0  0
   27.3503  -34.3308   -5.8078 C   0  0  2  0  0  0  0  0  0  0  0  0
   27.1033  -35.7228   -6.1767 N   0  0  0  0  0  0  0  0  0  0  0  0
   27.4096  -34.2670   -4.3585 C   0  0  0  0  0  0  0  0  0  0  0  0
   27.0955  -33.1931   -3.7765 O   0  0  0  0  0  0  0  0  0  0  0  0
   27.7925  -35.3352   -3.4906 N   0  0  0  0  0  0  0  0  0  0  0  0
   27.2219  -35.3994   -2.1475 C   0  0  1  0  0  0  0  0  0  0  0  0
   25.6821  -35.4623   -2.2996 C   0  0  0  0  0  0  0  0  0  0  0  0
   25.0891  -34.1274   -2.2711 C   0  0  0  0  0  0  0  0  0  0  0  0
   24.3580  -33.7139   -3.3850 C   0  0  0  0  0  0  0  0  0  0  0  0
   23.7607  -32.4664   -3.3450 C   0  0  0  0  0  0  0  0  0  0  0  0
   23.8664  -31.6418   -2.2599 C   0  0  0  0  0  0  0  0  0  0  0  0
   24.5959  -32.0543   -1.1493 C   0  0  0  0  0  0  0  0  0  0  0  0
   25.1914  -33.2927   -1.1832 C   0  0  0  0  0  0  0  0  0  0  0  0
   27.6734  -36.5884   -1.4283 C   0  0  0  0  0  0  0  0  0  0  0  0
   27.3676  -36.8530   -0.0746 O   0  0  0  0  0  0  0  0  0  0  0  0
   28.3896  -37.5077   -1.9490 O   0  0  0  0  0  0  0  0  0  0  0  0
  2  1  1  1
  3  2  1  0
  4  2  1  0
  5  4  1  0
  5  6  1  6
  7  8  2  0
  7  5  1  0
 10  9  1  1
 10 12  1  0
 11 10  1  0
 13 12  1  1
 13 14  1  0
 14  7  1  0
 15 13  1  0
 15 17  1  0
 16 15  2  0
 18 17  1  0
 18 26  1  0
 18 19  1  6
 20 19  1  0
 20 21  2  0
 22 21  1  0
 23 22  2  0
 24 25  2  0
 24 23  1  0
 25 20  1  0
 26 28  2  0
 26 27  1  0
M  END
$$$$
