LLF.pdb
     RDKit          3D

 28 28  0  0  1  0  0  0  0  0999 V2000
   20.9627  -18.8879  -13.8388 C   0  0  0  0  0  0  0  0  0  0  0  0
   20.4123  -20.0301  -12.9960 C   0  0  2  0  0  0  0  0  0  0  0  0
   19.3635  -19.4829  -12.0483 C   0  0  0  0  0  0  0  0  0  0  0  0
   21.5237  -20.7267  -12.2395 C   0  0  0  0  0  0  0  0  0  0  0  0
   22.6861  -20.9738  -13.1779 C   0  0  2  0  0  0  0  0  0  0  0  0
   22.3578  -22.0090  -14.0987 N   0  0  0  0  0  0  0  0  0  0  0  0
   23.9304  -21.2666  -12.4841 C   0  0  0  0  0  0  0  0  0  0  0  0
   24.1086  -22.4390  -11.9341 O   0  0  0  0  0  0  0  0  0  0  0  0
   29.1901  -21.8510  -11.5743 C   0  0  0  0  0  0  0  0  0  0  0  0
   28.7186  -20.4327  -11.7073 C   0  0  1  0  0  0  0  0  0  0  0  0
   29.7888  -19.6978  -12.5371 C   0  0  0  0  0  0  0  0  0  0  0  0
   27.4224  -20.2365  -12.3582 C   0  0  0  0  0  0  0  0  0  0  0  0
   26.2031  -20.7446  -11.6219 C   0  0  2  0  0  0  0  0  0  0  0  0
   24.9919  -20.3726  -12.3494 N   0  0  0  0  0  0  0  0  0  0  0  0
   26.0543  -20.2743  -10.2564 C   0  0  0  0  0  0  0  0  0  0  0  0
   25.4909  -19.1660  -10.0453 O   0  0  0  0  0  0  0  0  0  0  0  0
   26.4879  -20.9652   -9.0835 N   0  0  0  0  0  0  0  0  0  0  0  0
   26.3365  -20.3203   -7.7817 C   0  0  1  0  0  0  0  0  0  0  0  0
   26.7261  -21.3587   -6.7010 C   0  0  0  0  0  0  0  0  0  0  0  0
   27.9125  -20.9367   -5.9600 C   0  0  0  0  0  0  0  0  0  0  0  0
   27.7233  -20.2211   -4.7774 C   0  0  0  0  0  0  0  0  0  0  0  0
   28.8434  -19.8553   -4.0519 C   0  0  0  0  0  0  0  0  0  0  0  0
   30.1100  -20.1719   -4.4570 C   0  0  0  0  0  0  0  0  0  0  0  0
   30.2982  -20.8852   -5.6365 C   0  0  0  0  0  0  0  0  0  0  0  0
   29.1893  -21.2515   -6.3615 C   0  0  0  0  0  0  0  0  0  0  0  0
   27.2105  -19.1564   -7.6538 C   0  0  0  0  0  0  0  0  0  0  0  0
   26.9595  -18.0759   -6.7788 O   0  0  0  0  0  0  0  0  0  0  0  0
   28.2881  -18.9973   -8.3189 O   0  0  0  0  0  0  0  0  0  0  0  0
  2  1  1  1
  3  2  1  0
  4  2  1  0
  5  4  1  0
  5  6  1  6
  7  8  2  0
  7  5  1  0
 10  9  1  6
 10 12  1  0
 11 10  1  0
 13 12  1  6
 13 14  1  0
 14  7  1  0
 15 13  1  0
 15 17  1  0
 16 15  2  0
 18 17  1  0
 18 26  1  0
 18 19  1  1
 20 19  1  0
 20 21  2  0
 22 21  1  0
 23 22  2  0
 24 25  2  0
 24 23  1  0
 25 20  1  0
 26 28  2  0
 26 27  1  0
M  END
$$$$
