LLF.pdb
     RDKit          3D

 28 28  0  0  1  0  0  0  0  0999 V2000
   27.1833  -12.9942  -15.4179 C   0  0  0  0  0  0  0  0  0  0  0  0
   27.4246  -11.9518  -16.5010 C   0  0  2  0  0  0  0  0  0  0  0  0
   28.7213  -11.2246  -16.2057 C   0  0  0  0  0  0  0  0  0  0  0  0
   26.2623  -10.9850  -16.5879 C   0  0  0  0  0  0  0  0  0  0  0  0
   25.0061  -11.7480  -16.9523 C   0  0  2  0  0  0  0  0  0  0  0  0
   25.1934  -12.4351  -18.1852 N   0  0  0  0  0  0  0  0  0  0  0  0
   23.8187  -10.9092  -16.9963 C   0  0  0  0  0  0  0  0  0  0  0  0
   23.5789  -10.1757  -18.0515 O   0  0  0  0  0  0  0  0  0  0  0  0
   18.8946   -9.1092  -17.0864 C   0  0  0  0  0  0  0  0  0  0  0  0
   19.2696   -9.6929  -15.7558 C   0  0  1  0  0  0  0  0  0  0  0  0
   18.0742  -10.5572  -15.3110 C   0  0  0  0  0  0  0  0  0  0  0  0
   20.4717  -10.5273  -15.7272 C   0  0  0  0  0  0  0  0  0  0  0  0
   21.7852   -9.8462  -16.0397 C   0  0  2  0  0  0  0  0  0  0  0  0
   22.8764  -10.8154  -15.9730 N   0  0  0  0  0  0  0  0  0  0  0  0
   22.1356   -8.7338  -15.1749 C   0  0  0  0  0  0  0  0  0  0  0  0
   22.3361   -8.9474  -13.9482 O   0  0  0  0  0  0  0  0  0  0  0  0
   22.2909   -7.3742  -15.5850 N   0  0  0  0  0  0  0  0  0  0  0  0
   22.6813   -6.3732  -14.5954 C   0  0  1  0  0  0  0  0  0  0  0  0
   24.1981   -6.1150  -14.7694 C   0  0  0  0  0  0  0  0  0  0  0  0
   24.5266   -5.7838  -16.1540 C   0  0  0  0  0  0  0  0  0  0  0  0
   24.5191   -4.4383  -16.5228 C   0  0  0  0  0  0  0  0  0  0  0  0
   24.8695   -4.1179  -17.8226 C   0  0  0  0  0  0  0  0  0  0  0  0
   25.2174   -5.0699  -18.7398 C   0  0  0  0  0  0  0  0  0  0  0  0
   25.2244   -6.4115  -18.3717 C   0  0  0  0  0  0  0  0  0  0  0  0
   24.8774   -6.7360  -17.0819 C   0  0  0  0  0  0  0  0  0  0  0  0
   21.9636   -5.1157  -14.7913 C   0  0  0  0  0  0  0  0  0  0  0  0
   22.0700   -4.0052  -13.9243 O   0  0  0  0  0  0  0  0  0  0  0  0
   21.1680   -4.8927  -15.7642 O   0  0  0  0  0  0  0  0  0  0  0  0
  2  1  1  1
  3  2  1  0
  4  2  1  0
  5  4  1  0
  5  6  1  6
  7  8  2  0
  7  5  1  0
 10  9  1  6
 10 12  1  0
 11 10  1  0
 13 12  1  1
 13 14  1  0
 14  7  1  0
 15 13  1  0
 15 17  1  0
 16 15  2  0
 18 17  1  0
 18 26  1  0
 18 19  1  6
 20 19  1  0
 20 21  2  0
 22 21  1  0
 23 22  2  0
 24 25  2  0
 24 23  1  0
 25 20  1  0
 26 28  2  0
 26 27  1  0
M  END
$$$$
