LLF.pdb
     RDKit          3D

 28 28  0  0  1  0  0  0  0  0999 V2000
   20.0200  -20.5303  -12.9954 C   0  0  0  0  0  0  0  0  0  0  0  0
   20.8750  -20.0562  -14.1624 C   0  0  2  0  0  0  0  0  0  0  0  0
   20.1494  -20.3556  -15.4591 C   0  0  0  0  0  0  0  0  0  0  0  0
   22.2390  -20.7131  -14.1340 C   0  0  0  0  0  0  0  0  0  0  0  0
   22.9109  -20.4086  -12.8116 C   0  0  2  0  0  0  0  0  0  0  0  0
   22.8502  -19.0114  -12.5443 N   0  0  0  0  0  0  0  0  0  0  0  0
   24.2793  -20.8959  -12.7385 C   0  0  0  0  0  0  0  0  0  0  0  0
   24.5409  -22.1457  -13.0189 O   0  0  0  0  0  0  0  0  0  0  0  0
   26.7227  -19.3183  -15.2210 C   0  0  0  0  0  0  0  0  0  0  0  0
   27.9052  -19.7105  -14.3847 C   0  0  1  0  0  0  0  0  0  0  0  0
   29.0301  -18.7174  -14.7344 C   0  0  0  0  0  0  0  0  0  0  0  0
   27.7120  -19.6886  -12.9341 C   0  0  0  0  0  0  0  0  0  0  0  0
   26.7271  -20.6822  -12.3598 C   0  0  2  0  0  0  0  0  0  0  0  0
   25.3799  -20.1173  -12.3829 N   0  0  0  0  0  0  0  0  0  0  0  0
   26.9954  -21.1164  -11.0006 C   0  0  0  0  0  0  0  0  0  0  0  0
   28.1334  -21.5794  -10.7159 O   0  0  0  0  0  0  0  0  0  0  0  0
   26.0739  -21.0644   -9.9102 N   0  0  0  0  0  0  0  0  0  0  0  0
   26.5867  -21.1090   -8.5432 C   0  0  1  0  0  0  0  0  0  0  0  0
   27.5350  -19.8981   -8.3632 C   0  0  0  0  0  0  0  0  0  0  0  0
   28.0057  -19.7905   -6.9843 C   0  0  0  0  0  0  0  0  0  0  0  0
   27.5977  -18.6834   -6.2397 C   0  0  0  0  0  0  0  0  0  0  0  0
   28.0080  -18.5989   -4.9210 C   0  0  0  0  0  0  0  0  0  0  0  0
   28.7900  -19.5566   -4.3379 C   0  0  0  0  0  0  0  0  0  0  0  0
   29.1970  -20.6603   -5.0808 C   0  0  0  0  0  0  0  0  0  0  0  0
   28.7923  -20.7497   -6.3913 C   0  0  0  0  0  0  0  0  0  0  0  0
   25.5087  -21.0133   -7.5617 C   0  0  0  0  0  0  0  0  0  0  0  0
   24.1716  -20.6959   -7.8894 O   0  0  0  0  0  0  0  0  0  0  0  0
   25.6649  -21.2062   -6.3097 O   0  0  0  0  0  0  0  0  0  0  0  0
  2  1  1  1
  3  2  1  0
  4  2  1  0
  5  4  1  0
  5  6  1  6
  7  8  2  0
  7  5  1  0
 10  9  1  6
 10 12  1  0
 11 10  1  0
 13 12  1  1
 13 14  1  0
 14  7  1  0
 15 13  1  0
 15 17  1  0
 16 15  2  0
 18 17  1  0
 18 26  1  0
 18 19  1  6
 20 19  1  0
 20 21  2  0
 22 21  1  0
 23 22  2  0
 24 25  2  0
 24 23  1  0
 25 20  1  0
 26 28  2  0
 26 27  1  0
M  END
$$$$
