QHE.pdb
     RDKit          3D

 29 29  0  0  1  0  0  0  0  0999 V2000
   20.6929   -9.5959  -19.3324 N   0  0  0  0  0  0  0  0  0  0  0  0
   22.0090   -9.0572  -19.3372 C   0  0  0  0  0  0  0  0  0  0  0  0
   22.1379   -7.8257  -19.2211 O   0  0  0  0  0  0  0  0  0  0  0  0
   23.1497  -10.0074  -19.4815 C   0  0  0  0  0  0  0  0  0  0  0  0
   22.5854  -11.3960  -19.2808 C   0  0  0  0  0  0  0  0  0  0  0  0
   23.6477  -12.4558  -19.2794 C   0  0  2  0  0  0  0  0  0  0  0  0
   24.2910  -12.5624  -20.5647 N   0  0  0  0  0  0  0  0  0  0  0  0
   23.1193  -13.7920  -18.9244 C   0  0  0  0  0  0  0  0  0  0  0  0
   22.7295  -14.5483  -19.8467 O   0  0  0  0  0  0  0  0  0  0  0  0
   23.0341  -14.2539  -17.5942 N   0  0  0  0  0  0  0  0  0  0  0  0
   22.3707  -15.5566  -17.2729 C   0  0  1  0  0  0  0  0  0  0  0  0
   23.3606  -16.4113  -16.5718 C   0  0  0  0  0  0  0  0  0  0  0  0
   22.9394  -17.7312  -16.1075 C   0  0  0  0  0  0  0  0  0  0  0  0
   21.6911  -18.2992  -16.1094 C   0  0  0  0  0  0  0  0  0  0  0  0
   21.7192  -19.5315  -15.5455 N   0  0  0  0  0  0  0  0  0  0  0  0
   22.9956  -19.7410  -15.1856 C   0  0  0  0  0  0  0  0  0  0  0  0
   23.7353  -18.6712  -15.5164 N   0  0  0  0  0  0  0  0  0  0  0  0
   21.0859  -15.3023  -16.6922 C   0  0  0  0  0  0  0  0  0  0  0  0
   20.9870  -14.4172  -15.7635 O   0  0  0  0  0  0  0  0  0  0  0  0
   19.8667  -15.9267  -17.0382 N   0  0  0  0  0  0  0  0  0  0  0  0
   18.6170  -15.5606  -16.3785 C   0  0  1  0  0  0  0  0  0  0  0  0
   17.4686  -16.1068  -17.2117 C   0  0  0  0  0  0  0  0  0  0  0  0
   17.3145  -17.5825  -17.1430 C   0  0  0  0  0  0  0  0  0  0  0  0
   16.2187  -18.1268  -17.9720 C   0  0  0  0  0  0  0  0  0  0  0  0
   15.4559  -17.3698  -18.6099 O   0  0  0  0  0  0  0  0  0  0  0  0
   18.5348  -16.2258  -15.0729 C   0  0  0  0  0  0  0  0  0  0  0  0
   19.2519  -17.2297  -14.7753 O   0  0  0  0  0  0  0  0  0  0  0  0
   15.9999  -19.4928  -18.0699 O   0  0  0  0  0  0  0  0  0  0  0  0
   17.6645  -15.7773  -14.1102 O   0  0  0  0  0  0  0  0  0  0  0  0
  2  1  1  0
  2  3  2  0
  4  2  1  0
  5  4  1  0
  6  7  1  6
  6  5  1  0
  8  6  1  0
  9  8  2  0
 10  8  1  0
 11 18  1  0
 11 10  1  0
 11 12  1  1
 13 12  1  0
 13 14  2  0
 15 14  1  0
 16 15  1  0
 17 16  2  0
 17 13  1  0
 18 19  2  0
 20 18  1  0
 21 20  1  0
 21 22  1  6
 23 22  1  0
 24 25  2  0
 24 23  1  0
 26 29  1  0
 26 21  1  0
 27 26  2  0
 28 24  1  0
M  END
$$$$
