QHE.pdb
     RDKit          3D

 29 29  0  0  1  0  0  0  0  0999 V2000
   20.8859  -35.6780    2.6173 N   0  0  0  0  0  0  0  0  0  0  0  0
   20.0552  -34.6089    2.1823 C   0  0  0  0  0  0  0  0  0  0  0  0
   18.9179  -34.5129    2.6764 O   0  0  0  0  0  0  0  0  0  0  0  0
   20.6046  -33.6717    1.1602 C   0  0  0  0  0  0  0  0  0  0  0  0
   22.0174  -34.1263    0.8701 C   0  0  0  0  0  0  0  0  0  0  0  0
   23.0485  -33.1481    1.3516 C   0  0  2  0  0  0  0  0  0  0  0  0
   22.8756  -31.8536    0.7422 N   0  0  0  0  0  0  0  0  0  0  0  0
   24.4320  -33.5973    1.0777 C   0  0  0  0  0  0  0  0  0  0  0  0
   24.7077  -34.8134    1.2182 O   0  0  0  0  0  0  0  0  0  0  0  0
   25.4556  -32.7186    0.6653 N   0  0  0  0  0  0  0  0  0  0  0  0
   26.7899  -33.2406    0.2325 C   0  0  1  0  0  0  0  0  0  0  0  0
   27.1795  -32.5238   -1.0070 C   0  0  0  0  0  0  0  0  0  0  0  0
   26.4824  -32.8473   -2.2497 C   0  0  0  0  0  0  0  0  0  0  0  0
   26.5954  -33.9551   -3.0503 C   0  0  0  0  0  0  0  0  0  0  0  0
   25.8005  -33.8460   -4.1427 N   0  0  0  0  0  0  0  0  0  0  0  0
   25.1820  -32.6598   -4.0290 C   0  0  0  0  0  0  0  0  0  0  0  0
   25.5817  -32.0529   -2.9008 N   0  0  0  0  0  0  0  0  0  0  0  0
   27.6717  -33.2779    1.3611 C   0  0  0  0  0  0  0  0  0  0  0  0
   27.7584  -32.2406    2.1175 O   0  0  0  0  0  0  0  0  0  0  0  0
   28.4819  -34.3638    1.7614 N   0  0  0  0  0  0  0  0  0  0  0  0
   29.3125  -34.2849    2.9594 C   0  0  1  0  0  0  0  0  0  0  0  0
   29.0691  -35.5394    3.7830 C   0  0  0  0  0  0  0  0  0  0  0  0
   29.9469  -35.6653    4.9745 C   0  0  0  0  0  0  0  0  0  0  0  0
   29.7126  -36.8775    5.7870 C   0  0  0  0  0  0  0  0  0  0  0  0
   30.6515  -37.4416    6.3887 O   0  0  0  0  0  0  0  0  0  0  0  0
   30.7299  -34.3070    2.5795 C   0  0  0  0  0  0  0  0  0  0  0  0
   31.1158  -34.6207    1.4119 O   0  0  0  0  0  0  0  0  0  0  0  0
   28.4459  -37.4291    5.9091 O   0  0  0  0  0  0  0  0  0  0  0  0
   31.7055  -33.9827    3.4896 O   0  0  0  0  0  0  0  0  0  0  0  0
  2  1  1  0
  2  3  2  0
  4  2  1  0
  5  4  1  0
  6  7  1  6
  6  5  1  0
  8  6  1  0
  9  8  2  0
 10  8  1  0
 11 18  1  0
 11 10  1  0
 11 12  1  6
 13 12  1  0
 13 14  2  0
 15 14  1  0
 16 15  1  0
 17 16  2  0
 17 13  1  0
 18 19  2  0
 20 18  1  0
 21 20  1  0
 21 22  1  1
 23 22  1  0
 24 25  2  0
 24 23  1  0
 26 29  1  0
 26 21  1  0
 27 26  2  0
 28 24  1  0
M  END
$$$$
