QHE.pdb
     RDKit          3D

 29 29  0  0  1  0  0  0  0  0999 V2000
   18.2593  -18.8162  -18.6529 N   0  0  0  0  0  0  0  0  0  0  0  0
   18.1639  -17.7015  -17.7751 C   0  0  0  0  0  0  0  0  0  0  0  0
   18.0143  -16.5731  -18.2760 O   0  0  0  0  0  0  0  0  0  0  0  0
   18.2499  -17.9607  -16.3087 C   0  0  0  0  0  0  0  0  0  0  0  0
   19.2545  -16.9766  -15.7526 C   0  0  0  0  0  0  0  0  0  0  0  0
   20.6641  -17.4852  -15.8303 C   0  0  2  0  0  0  0  0  0  0  0  0
   20.8598  -18.6343  -14.9827 N   0  0  0  0  0  0  0  0  0  0  0  0
   21.6614  -16.4618  -15.4444 C   0  0  0  0  0  0  0  0  0  0  0  0
   21.9083  -16.2931  -14.2257 O   0  0  0  0  0  0  0  0  0  0  0  0
   22.3474  -15.6667  -16.3863 N   0  0  0  0  0  0  0  0  0  0  0  0
   23.3348  -14.6316  -15.9459 C   0  0  1  0  0  0  0  0  0  0  0  0
   24.6809  -15.0657  -16.3947 C   0  0  0  0  0  0  0  0  0  0  0  0
   25.8222  -14.1943  -16.1246 C   0  0  0  0  0  0  0  0  0  0  0  0
   26.6707  -14.1769  -15.0473 C   0  0  0  0  0  0  0  0  0  0  0  0
   27.5779  -13.1763  -15.1616 N   0  0  0  0  0  0  0  0  0  0  0  0
   27.2982  -12.5586  -16.3205 C   0  0  0  0  0  0  0  0  0  0  0  0
   26.2500  -13.1583  -16.9057 N   0  0  0  0  0  0  0  0  0  0  0  0
   22.8380  -13.3308  -16.2831 C   0  0  0  0  0  0  0  0  0  0  0  0
   22.0536  -13.2075  -17.2956 O   0  0  0  0  0  0  0  0  0  0  0  0
   23.1118  -12.1225  -15.6041 N   0  0  0  0  0  0  0  0  0  0  0  0
   22.5376  -10.8575  -16.0523 C   0  0  1  0  0  0  0  0  0  0  0  0
   22.8141   -9.8115  -14.9843 C   0  0  0  0  0  0  0  0  0  0  0  0
   22.2470   -8.4716  -15.2829 C   0  0  0  0  0  0  0  0  0  0  0  0
   21.6441   -7.7849  -14.1213 C   0  0  0  0  0  0  0  0  0  0  0  0
   21.7415   -8.2602  -12.9696 O   0  0  0  0  0  0  0  0  0  0  0  0
   23.2286  -10.4040  -17.2652 C   0  0  0  0  0  0  0  0  0  0  0  0
   24.4139  -10.7603  -17.5455 O   0  0  0  0  0  0  0  0  0  0  0  0
   20.9513   -6.5925  -14.2693 O   0  0  0  0  0  0  0  0  0  0  0  0
   22.6058   -9.5643  -18.1553 O   0  0  0  0  0  0  0  0  0  0  0  0
  2  1  1  0
  2  3  2  0
  4  2  1  0
  5  4  1  0
  6  7  1  1
  6  5  1  0
  8  6  1  0
  9  8  2  0
 10  8  1  0
 11 18  1  0
 11 10  1  0
 11 12  1  6
 13 12  1  0
 13 14  2  0
 15 14  1  0
 16 15  1  0
 17 16  2  0
 17 13  1  0
 18 19  2  0
 20 18  1  0
 21 20  1  0
 21 22  1  1
 23 22  1  0
 24 25  2  0
 24 23  1  0
 26 29  1  0
 26 21  1  0
 27 26  2  0
 28 24  1  0
M  END
$$$$
