WRT.pdb
     RDKit          3D

 33 34  0  0  1  0  0  0  0  0999 V2000
    6.9762  -17.2972   25.5621 N   0  0  0  0  0  0  0  0  0  0  0  0
    7.2810  -16.7398   24.3216 C   0  0  1  0  0  0  0  0  0  0  0  0
    7.8306  -15.3456   24.4792 C   0  0  0  0  0  0  0  0  0  0  0  0
    6.9315  -14.6191   25.4354 C   0  0  0  0  0  0  0  0  0  0  0  0
    5.8124  -15.0741   26.0787 C   0  0  0  0  0  0  0  0  0  0  0  0
    5.3431  -14.0611   26.8291 N   0  0  0  0  0  0  0  0  0  0  0  0
    6.1036  -12.9772   26.7011 C   0  0  0  0  0  0  0  0  0  0  0  0
    6.0538  -11.6964   27.2491 C   0  0  0  0  0  0  0  0  0  0  0  0
    7.0175  -10.7825   26.9032 C   0  0  0  0  0  0  0  0  0  0  0  0
    8.0268  -11.1293   26.0206 C   0  0  0  0  0  0  0  0  0  0  0  0
    8.0780  -12.3940   25.4780 C   0  0  0  0  0  0  0  0  0  0  0  0
    7.1107  -13.3114   25.8252 C   0  0  0  0  0  0  0  0  0  0  0  0
    8.2344  -17.4983   23.4878 C   0  0  0  0  0  0  0  0  0  0  0  0
    8.9537  -18.3657   24.0337 O   0  0  0  0  0  0  0  0  0  0  0  0
    8.5150  -13.0286   16.6591 N   0  0  0  0  0  0  0  0  0  0  0  0
    7.9778  -13.2502   17.9760 C   0  0  0  0  0  0  0  0  0  0  0  0
    8.1599  -12.3298   18.8398 N   0  0  0  0  0  0  0  0  0  0  0  0
    7.2842  -14.4294   18.3085 N   0  0  0  0  0  0  0  0  0  0  0  0
    7.9444  -15.6882   18.4218 C   0  0  0  0  0  0  0  0  0  0  0  0
    8.4184  -16.0698   19.7821 C   0  0  0  0  0  0  0  0  0  0  0  0
    9.1639  -17.3687   19.8604 C   0  0  0  0  0  0  0  0  0  0  0  0
    9.4768  -17.7398   21.3130 C   0  0  2  0  0  0  0  0  0  0  0  0
    8.3692  -17.2884   22.1067 N   0  0  0  0  0  0  0  0  0  0  0  0
   10.7760  -17.2633   21.7748 C   0  0  0  0  0  0  0  0  0  0  0  0
   11.3598  -16.3026   21.1777 O   0  0  0  0  0  0  0  0  0  0  0  0
    7.8614  -12.4764   19.8215 C   0  0  0  0  0  0  0  0  0  0  0  0
   11.9942  -16.5897   25.6438 C   0  0  2  0  0  0  0  0  0  0  0  0
   12.7960  -17.5674   24.8398 O   0  0  0  0  0  0  0  0  0  0  0  0
   12.4093  -18.8689   25.0886 C   0  0  2  0  0  0  0  0  0  0  0  0
   12.7471  -17.3194   23.3527 N   0  0  0  0  0  0  0  0  0  0  0  0
   11.4660  -17.8148   22.8878 C   0  0  0  0  0  0  0  0  0  0  0  0
   13.8744  -17.9793   22.6440 O   0  0  0  0  0  0  0  0  0  0  0  0
   15.1963  -17.6401   22.8087 O   0  0  0  0  0  0  0  0  0  0  0  0
  2  1  1  1
  3  2  1  0
  4  5  2  0
  4  3  1  0
  6  5  1  0
  7 12  2  0
  7  6  1  0
  8  7  1  0
  9 10  1  0
  9  8  2  0
 10 11  2  0
 11 12  1  0
 12  4  1  0
 13  2  1  0
 14 13  2  0
 16 18  1  0
 16 15  1  0
 17 16  2  0
 19 20  1  0
 19 18  1  0
 20 21  1  0
 22 21  1  6
 22 24  1  0
 22 23  1  0
 23 13  1  0
 24 25  2  0
 27 26  1  1
 27 29  1  0
 27 28  1  0
 29 31  1  0
 30 24  1  0
 29 30  1  6
 31 32  1  0
 33 31  2  0
M  END
$$$$
