WRT.pdb
     RDKit          3D

 33 34  0  0  1  0  0  0  0  0999 V2000
    6.6708  -17.4327   24.3307 N   0  0  0  0  0  0  0  0  0  0  0  0
    7.6457  -16.5359   23.8971 C   0  0  1  0  0  0  0  0  0  0  0  0
    8.2372  -15.7816   25.0598 C   0  0  0  0  0  0  0  0  0  0  0  0
    7.1587  -14.8956   25.6094 C   0  0  0  0  0  0  0  0  0  0  0  0
    5.9546  -15.2450   26.1583 C   0  0  0  0  0  0  0  0  0  0  0  0
    5.3278  -14.1062   26.5048 N   0  0  0  0  0  0  0  0  0  0  0  0
    6.0677  -13.0417   26.2065 C   0  0  0  0  0  0  0  0  0  0  0  0
    5.8825  -11.6683   26.3566 C   0  0  0  0  0  0  0  0  0  0  0  0
    6.8666  -10.8101   25.9339 C   0  0  0  0  0  0  0  0  0  0  0  0
    8.0292  -11.3033   25.3655 C   0  0  0  0  0  0  0  0  0  0  0  0
    8.2143  -12.6598   25.2164 C   0  0  0  0  0  0  0  0  0  0  0  0
    7.2266  -13.5213   25.6406 C   0  0  0  0  0  0  0  0  0  0  0  0
    8.7665  -17.1180   23.1327 C   0  0  0  0  0  0  0  0  0  0  0  0
    9.1425  -18.2805   23.4067 O   0  0  0  0  0  0  0  0  0  0  0  0
   14.8302  -13.6798   18.6608 N   0  0  0  0  0  0  0  0  0  0  0  0
   14.6508  -14.9660   18.0401 C   0  0  0  0  0  0  0  0  0  0  0  0
   15.6361  -15.4346   17.3797 N   0  0  0  0  0  0  0  0  0  0  0  0
   13.4434  -15.6822   18.1465 N   0  0  0  0  0  0  0  0  0  0  0  0
   13.0364  -16.3007   19.3652 C   0  0  0  0  0  0  0  0  0  0  0  0
   12.6081  -15.3881   20.4627 C   0  0  0  0  0  0  0  0  0  0  0  0
   11.1449  -15.4219   20.7904 C   0  0  0  0  0  0  0  0  0  0  0  0
   10.8471  -16.4520   21.8840 C   0  0  2  0  0  0  0  0  0  0  0  0
    9.4298  -16.4227   22.1097 N   0  0  0  0  0  0  0  0  0  0  0  0
   11.6479  -16.2766   23.0906 C   0  0  0  0  0  0  0  0  0  0  0  0
   12.3338  -15.2178   23.2611 O   0  0  0  0  0  0  0  0  0  0  0  0
   15.5572  -16.3611   16.9219 C   0  0  0  0  0  0  0  0  0  0  0  0
   11.0769  -15.7701   26.7202 C   0  0  2  0  0  0  0  0  0  0  0  0
   11.7678  -17.0818   26.5021 O   0  0  0  0  0  0  0  0  0  0  0  0
   10.8695  -18.1289   26.4580 C   0  0  2  0  0  0  0  0  0  0  0  0
   12.6246  -17.1210   25.2612 N   0  0  0  0  0  0  0  0  0  0  0  0
   11.7215  -17.2397   24.1328 C   0  0  0  0  0  0  0  0  0  0  0  0
   13.5996  -18.2420   25.2969 O   0  0  0  0  0  0  0  0  0  0  0  0
   14.6413  -18.3331   26.1892 O   0  0  0  0  0  0  0  0  0  0  0  0
  2  1  1  1
  3  2  1  0
  4  5  2  0
  4  3  1  0
  6  5  1  0
  7 12  2  0
  7  6  1  0
  8  7  1  0
  9 10  1  0
  9  8  2  0
 10 11  2  0
 11 12  1  0
 12  4  1  0
 13  2  1  0
 14 13  2  0
 16 18  1  0
 16 15  1  0
 17 16  2  0
 19 20  1  0
 19 18  1  0
 20 21  1  0
 22 21  1  6
 22 24  1  0
 22 23  1  0
 23 13  1  0
 24 25  2  0
 27 26  1  1
 27 29  1  0
 27 28  1  0
 29 31  1  0
 30 24  1  0
 29 30  1  1
 31 32  1  0
 33 31  2  0
M  END
$$$$
