WRT.pdb
     RDKit          3D

 33 34  0  0  1  0  0  0  0  0999 V2000
    6.4931  -17.6034   24.6672 N   0  0  0  0  0  0  0  0  0  0  0  0
    7.4261  -16.6579   24.2452 C   0  0  1  0  0  0  0  0  0  0  0  0
    8.0899  -15.9945   25.4242 C   0  0  0  0  0  0  0  0  0  0  0  0
    7.1319  -14.9691   25.9543 C   0  0  0  0  0  0  0  0  0  0  0  0
    5.9049  -15.1550   26.5313 C   0  0  0  0  0  0  0  0  0  0  0  0
    5.4214  -13.9390   26.8432 N   0  0  0  0  0  0  0  0  0  0  0  0
    6.2754  -12.9799   26.4960 C   0  0  0  0  0  0  0  0  0  0  0  0
    6.2546  -11.5898   26.5972 C   0  0  0  0  0  0  0  0  0  0  0  0
    7.3249  -10.8686   26.1302 C   0  0  0  0  0  0  0  0  0  0  0  0
    8.4119  -11.5148   25.5657 C   0  0  0  0  0  0  0  0  0  0  0  0
    8.4347  -12.8880   25.4648 C   0  0  0  0  0  0  0  0  0  0  0  0
    7.3604  -13.6120   25.9334 C   0  0  0  0  0  0  0  0  0  0  0  0
    8.4965  -17.1556   23.3587 C   0  0  0  0  0  0  0  0  0  0  0  0
    9.1676  -18.1477   23.7236 O   0  0  0  0  0  0  0  0  0  0  0  0
    6.6235  -12.6592   17.9560 N   0  0  0  0  0  0  0  0  0  0  0  0
    7.4145  -13.6309   17.2475 C   0  0  0  0  0  0  0  0  0  0  0  0
    7.1582  -13.7969   16.0093 N   0  0  0  0  0  0  0  0  0  0  0  0
    8.4261  -14.3746   17.8843 N   0  0  0  0  0  0  0  0  0  0  0  0
    9.1137  -13.8857   19.0340 C   0  0  0  0  0  0  0  0  0  0  0  0
    9.1481  -14.7867   20.2205 C   0  0  0  0  0  0  0  0  0  0  0  0
    9.7592  -16.1357   19.9839 C   0  0  0  0  0  0  0  0  0  0  0  0
    9.9170  -16.9090   21.2964 C   0  0  2  0  0  0  0  0  0  0  0  0
    8.7945  -16.5633   22.1217 N   0  0  0  0  0  0  0  0  0  0  0  0
   11.2124  -16.7179   21.9392 C   0  0  0  0  0  0  0  0  0  0  0  0
   11.6065  -15.5511   22.2614 O   0  0  0  0  0  0  0  0  0  0  0  0
    7.7369  -14.4452   15.4444 C   0  0  0  0  0  0  0  0  0  0  0  0
   12.6405  -18.1623   25.2599 C   0  0  2  0  0  0  0  0  0  0  0  0
   13.4223  -18.5802   24.0518 O   0  0  0  0  0  0  0  0  0  0  0  0
   13.0139  -19.8125   23.5826 C   0  0  2  0  0  0  0  0  0  0  0  0
   13.3725  -17.5855   22.9190 N   0  0  0  0  0  0  0  0  0  0  0  0
   12.1033  -17.7816   22.2454 C   0  0  0  0  0  0  0  0  0  0  0  0
   14.5154  -17.7535   21.9840 O   0  0  0  0  0  0  0  0  0  0  0  0
   14.3904  -18.1420   20.6714 O   0  0  0  0  0  0  0  0  0  0  0  0
  2  1  1  1
  3  2  1  0
  4  5  2  0
  4  3  1  0
  6  5  1  0
  7 12  2  0
  7  6  1  0
  8  7  1  0
  9 10  1  0
  9  8  2  0
 10 11  2  0
 11 12  1  0
 12  4  1  0
 13  2  1  0
 14 13  2  0
 16 18  1  0
 16 15  1  0
 17 16  2  0
 19 20  1  0
 19 18  1  0
 20 21  1  0
 22 21  1  6
 22 24  1  0
 22 23  1  0
 23 13  1  0
 24 25  2  0
 27 26  1  1
 27 29  1  0
 27 28  1  0
 29 31  1  0
 30 24  1  0
 29 30  1  6
 31 32  1  0
 33 31  2  0
M  END
$$$$
