WRT.pdb
     RDKit          3D

 33 34  0  0  1  0  0  0  0  0999 V2000
    7.1819  -18.2186   26.4827 N   0  0  0  0  0  0  0  0  0  0  0  0
    7.4208  -16.9926   25.8643 C   0  0  1  0  0  0  0  0  0  0  0  0
    8.4515  -16.1989   26.6249 C   0  0  0  0  0  0  0  0  0  0  0  0
    7.7314  -15.0725   27.3054 C   0  0  0  0  0  0  0  0  0  0  0  0
    7.3142  -14.9788   28.6055 C   0  0  0  0  0  0  0  0  0  0  0  0
    6.7136  -13.7835   28.7474 N   0  0  0  0  0  0  0  0  0  0  0  0
    6.7230  -13.1033   27.6042 C   0  0  0  0  0  0  0  0  0  0  0  0
    6.2444  -11.8500   27.2260 C   0  0  0  0  0  0  0  0  0  0  0  0
    6.4188  -11.4296   25.9312 C   0  0  0  0  0  0  0  0  0  0  0  0
    7.0627  -12.2413   25.0122 C   0  0  0  0  0  0  0  0  0  0  0  0
    7.5364  -13.4799   25.3836 C   0  0  0  0  0  0  0  0  0  0  0  0
    7.3614  -13.9019   26.6833 C   0  0  0  0  0  0  0  0  0  0  0  0
    7.8609  -17.0526   24.4564 C   0  0  0  0  0  0  0  0  0  0  0  0
    8.4709  -18.0715   24.0594 O   0  0  0  0  0  0  0  0  0  0  0  0
    8.1175  -15.2349   16.8539 N   0  0  0  0  0  0  0  0  0  0  0  0
    8.1260  -13.8081   17.0434 C   0  0  0  0  0  0  0  0  0  0  0  0
    8.6901  -13.1058   16.1406 N   0  0  0  0  0  0  0  0  0  0  0  0
    7.5445  -13.2036   18.1741 N   0  0  0  0  0  0  0  0  0  0  0  0
    6.8538  -13.9614   19.1651 C   0  0  0  0  0  0  0  0  0  0  0  0
    7.6832  -14.8753   20.0003 C   0  0  0  0  0  0  0  0  0  0  0  0
    7.3622  -14.8735   21.4653 C   0  0  0  0  0  0  0  0  0  0  0  0
    8.1385  -15.9685   22.2027 C   0  0  2  0  0  0  0  0  0  0  0  0
    7.6242  -16.0145   23.5421 N   0  0  0  0  0  0  0  0  0  0  0  0
    9.5872  -15.8168   22.1240 C   0  0  0  0  0  0  0  0  0  0  0  0
   10.1432  -14.7335   22.4950 O   0  0  0  0  0  0  0  0  0  0  0  0
    8.6593  -12.0713   16.1964 C   0  0  0  0  0  0  0  0  0  0  0  0
   12.3688  -17.3445   24.0023 C   0  0  2  0  0  0  0  0  0  0  0  0
   12.4616  -17.7257   22.5561 O   0  0  0  0  0  0  0  0  0  0  0  0
   11.8427  -18.9343   22.3077 C   0  0  2  0  0  0  0  0  0  0  0  0
   11.9023  -16.6883   21.6148 N   0  0  0  0  0  0  0  0  0  0  0  0
   10.4595  -16.8308   21.6444 C   0  0  0  0  0  0  0  0  0  0  0  0
   12.4356  -16.8463   20.2366 O   0  0  0  0  0  0  0  0  0  0  0  0
   11.6818  -17.2369   19.1555 O   0  0  0  0  0  0  0  0  0  0  0  0
  2  1  1  1
  3  2  1  0
  4  5  2  0
  4  3  1  0
  6  5  1  0
  7 12  2  0
  7  6  1  0
  8  7  1  0
  9 10  1  0
  9  8  2  0
 10 11  2  0
 11 12  1  0
 12  4  1  0
 13  2  1  0
 14 13  2  0
 16 18  1  0
 16 15  1  0
 17 16  2  0
 19 20  1  0
 19 18  1  0
 20 21  1  0
 22 21  1  6
 22 24  1  0
 22 23  1  0
 23 13  1  0
 24 25  2  0
 27 26  1  1
 27 29  1  0
 27 28  1  0
 29 31  1  0
 30 24  1  0
 29 30  1  6
 31 32  1  0
 33 31  2  0
M  END
$$$$
