WRT.pdb
     RDKit          3D

 33 34  0  0  1  0  0  0  0  0999 V2000
    6.1539  -18.1191   24.7013 N   0  0  0  0  0  0  0  0  0  0  0  0
    6.7661  -16.8836   24.4984 C   0  0  1  0  0  0  0  0  0  0  0  0
    7.2890  -16.3233   25.7958 C   0  0  0  0  0  0  0  0  0  0  0  0
    6.4194  -15.1559   26.1581 C   0  0  0  0  0  0  0  0  0  0  0  0
    5.1047  -15.1477   26.5387 C   0  0  0  0  0  0  0  0  0  0  0  0
    4.7599  -13.8659   26.7574 N   0  0  0  0  0  0  0  0  0  0  0  0
    5.7862  -13.0488   26.5366 C   0  0  0  0  0  0  0  0  0  0  0  0
    5.9509  -11.6671   26.6172 C   0  0  0  0  0  0  0  0  0  0  0  0
    7.1727  -11.1198   26.3146 C   0  0  0  0  0  0  0  0  0  0  0  0
    8.2285  -11.9312   25.9341 C   0  0  0  0  0  0  0  0  0  0  0  0
    8.0681  -13.2966   25.8538 C   0  0  0  0  0  0  0  0  0  0  0  0
    6.8418  -13.8460   26.1575 C   0  0  0  0  0  0  0  0  0  0  0  0
    7.8793  -16.8643   23.5289 C   0  0  0  0  0  0  0  0  0  0  0  0
    8.6033  -17.8804   23.4235 O   0  0  0  0  0  0  0  0  0  0  0  0
    9.6470  -14.3204   17.9905 N   0  0  0  0  0  0  0  0  0  0  0  0
    8.4398  -13.8170   17.3896 C   0  0  0  0  0  0  0  0  0  0  0  0
    8.2889  -14.0121   16.1384 N   0  0  0  0  0  0  0  0  0  0  0  0
    7.4637  -13.1336   18.1395 N   0  0  0  0  0  0  0  0  0  0  0  0
    7.5648  -12.9842   19.5540 C   0  0  0  0  0  0  0  0  0  0  0  0
    7.7682  -14.2331   20.3411 C   0  0  0  0  0  0  0  0  0  0  0  0
    9.0925  -14.3447   21.0359 C   0  0  0  0  0  0  0  0  0  0  0  0
    9.2263  -15.6884   21.7584 C   0  0  2  0  0  0  0  0  0  0  0  0
    8.1612  -15.7536   22.7186 N   0  0  0  0  0  0  0  0  0  0  0  0
   10.5518  -15.9248   22.3196 C   0  0  0  0  0  0  0  0  0  0  0  0
   10.9713  -15.2276   23.2986 O   0  0  0  0  0  0  0  0  0  0  0  0
    7.4933  -13.5736   15.6395 C   0  0  0  0  0  0  0  0  0  0  0  0
   12.2607  -19.0194   23.9399 C   0  0  2  0  0  0  0  0  0  0  0  0
   12.9146  -18.5902   22.6617 O   0  0  0  0  0  0  0  0  0  0  0  0
   12.4370  -19.3041   21.5811 C   0  0  2  0  0  0  0  0  0  0  0  0
   12.7781  -17.1162   22.3719 N   0  0  0  0  0  0  0  0  0  0  0  0
   11.4460  -16.9169   21.8347 C   0  0  0  0  0  0  0  0  0  0  0  0
   13.8217  -16.6387   21.4277 O   0  0  0  0  0  0  0  0  0  0  0  0
   15.1657  -16.6021   21.7140 O   0  0  0  0  0  0  0  0  0  0  0  0
  2  1  1  1
  3  2  1  0
  4  5  2  0
  4  3  1  0
  6  5  1  0
  7 12  2  0
  7  6  1  0
  8  7  1  0
  9 10  1  0
  9  8  2  0
 10 11  2  0
 11 12  1  0
 12  4  1  0
 13  2  1  0
 14 13  2  0
 16 18  1  0
 16 15  1  0
 17 16  2  0
 19 20  1  0
 19 18  1  0
 20 21  1  0
 22 21  1  1
 22 24  1  0
 22 23  1  0
 23 13  1  0
 24 25  2  0
 27 26  1  1
 27 29  1  0
 27 28  1  0
 29 31  1  0
 30 24  1  0
 29 30  1  1
 31 32  1  0
 33 31  2  0
M  END
$$$$
