WRT.pdb
     RDKit          3D

 33 34  0  0  1  0  0  0  0  0999 V2000
    6.3608  -17.8593   25.4382 N   0  0  0  0  0  0  0  0  0  0  0  0
    6.9941  -16.8490   24.7166 C   0  0  1  0  0  0  0  0  0  0  0  0
    7.8060  -15.9656   25.6282 C   0  0  0  0  0  0  0  0  0  0  0  0
    6.9014  -14.8678   26.1044 C   0  0  0  0  0  0  0  0  0  0  0  0
    5.7279  -14.9618   26.8024 C   0  0  0  0  0  0  0  0  0  0  0  0
    5.2781  -13.7093   26.9986 N   0  0  0  0  0  0  0  0  0  0  0  0
    6.1028  -12.8140   26.4621 C   0  0  0  0  0  0  0  0  0  0  0  0
    6.0964  -11.4220   26.3889 C   0  0  0  0  0  0  0  0  0  0  0  0
    7.1254  -10.7808   25.7456 C   0  0  0  0  0  0  0  0  0  0  0  0
    8.1571  -11.5086   25.1766 C   0  0  0  0  0  0  0  0  0  0  0  0
    8.1656  -12.8839   25.2479 C   0  0  0  0  0  0  0  0  0  0  0  0
    7.1328  -13.5275   25.8935 C   0  0  0  0  0  0  0  0  0  0  0  0
    7.8836  -17.2930   23.6253 C   0  0  0  0  0  0  0  0  0  0  0  0
    8.8723  -18.0075   23.9076 O   0  0  0  0  0  0  0  0  0  0  0  0
    7.4219  -13.5452   15.7645 N   0  0  0  0  0  0  0  0  0  0  0  0
    8.3372  -13.4700   16.8728 C   0  0  0  0  0  0  0  0  0  0  0  0
    8.4149  -12.3552   17.4872 N   0  0  0  0  0  0  0  0  0  0  0  0
    9.1210  -14.5710   17.2672 N   0  0  0  0  0  0  0  0  0  0  0  0
    8.5432  -15.8363   17.5811 C   0  0  0  0  0  0  0  0  0  0  0  0
    9.0114  -16.4872   18.8372 C   0  0  0  0  0  0  0  0  0  0  0  0
    8.0822  -16.3643   20.0080 C   0  0  0  0  0  0  0  0  0  0  0  0
    8.6314  -17.1066   21.2299 C   0  0  2  0  0  0  0  0  0  0  0  0
    7.6678  -16.9480   22.2821 N   0  0  0  0  0  0  0  0  0  0  0  0
    9.9870  -16.7124   21.5970 C   0  0  0  0  0  0  0  0  0  0  0  0
   10.2353  -15.5175   21.9592 O   0  0  0  0  0  0  0  0  0  0  0  0
    9.0600  -12.2527   18.2919 C   0  0  0  0  0  0  0  0  0  0  0  0
   12.5145  -17.4048   24.3291 C   0  0  2  0  0  0  0  0  0  0  0  0
   12.9599  -17.9555   23.0086 O   0  0  0  0  0  0  0  0  0  0  0  0
   12.5916  -19.2772   22.8581 C   0  0  2  0  0  0  0  0  0  0  0  0
   12.4604  -17.1712   21.8209 N   0  0  0  0  0  0  0  0  0  0  0  0
   11.0963  -17.6001   21.5800 C   0  0  0  0  0  0  0  0  0  0  0  0
   13.3145  -17.3774   20.6224 O   0  0  0  0  0  0  0  0  0  0  0  0
   14.6254  -16.9748   20.5280 O   0  0  0  0  0  0  0  0  0  0  0  0
  2  1  1  1
  3  2  1  0
  4  5  2  0
  4  3  1  0
  6  5  1  0
  7 12  2  0
  7  6  1  0
  8  7  1  0
  9 10  1  0
  9  8  2  0
 10 11  2  0
 11 12  1  0
 12  4  1  0
 13  2  1  0
 14 13  2  0
 16 18  1  0
 16 15  1  0
 17 16  2  0
 19 20  1  0
 19 18  1  0
 20 21  1  0
 22 21  1  6
 22 24  1  0
 22 23  1  0
 23 13  1  0
 24 25  2  0
 27 26  1  1
 27 29  1  0
 27 28  1  0
 29 31  1  0
 30 24  1  0
 29 30  1  6
 31 32  1  0
 33 31  2  0
M  END
$$$$
