WRT.pdb
     RDKit          3D

 33 34  0  0  1  0  0  0  0  0999 V2000
    6.0155  -17.6722   24.8652 N   0  0  0  0  0  0  0  0  0  0  0  0
    7.0476  -16.7564   24.6684 C   0  0  1  0  0  0  0  0  0  0  0  0
    7.4019  -16.0609   25.9574 C   0  0  0  0  0  0  0  0  0  0  0  0
    6.4020  -14.9608   26.1581 C   0  0  0  0  0  0  0  0  0  0  0  0
    5.0789  -15.0519   26.4965 C   0  0  0  0  0  0  0  0  0  0  0  0
    4.5946  -13.7983   26.5568 N   0  0  0  0  0  0  0  0  0  0  0  0
    5.5391  -12.9052   26.2742 C   0  0  0  0  0  0  0  0  0  0  0  0
    5.5565  -11.5133   26.2011 C   0  0  0  0  0  0  0  0  0  0  0  0
    6.7265  -10.8748   25.8739 C   0  0  0  0  0  0  0  0  0  0  0  0
    7.8754  -11.6051   25.6199 C   0  0  0  0  0  0  0  0  0  0  0  0
    7.8606  -12.9803   25.6917 C   0  0  0  0  0  0  0  0  0  0  0  0
    6.6862  -13.6213   26.0200 C   0  0  0  0  0  0  0  0  0  0  0  0
    8.2977  -17.3015   24.1031 C   0  0  0  0  0  0  0  0  0  0  0  0
    8.6303  -18.4725   24.3961 O   0  0  0  0  0  0  0  0  0  0  0  0
    7.7970  -14.7172   18.4344 N   0  0  0  0  0  0  0  0  0  0  0  0
    8.7376  -13.7426   18.9215 C   0  0  0  0  0  0  0  0  0  0  0  0
    8.3401  -12.5324   18.9833 N   0  0  0  0  0  0  0  0  0  0  0  0
   10.0431  -14.0974   19.3110 N   0  0  0  0  0  0  0  0  0  0  0  0
   10.4571  -15.4579   19.4158 C   0  0  0  0  0  0  0  0  0  0  0  0
   10.0588  -16.1798   20.6571 C   0  0  0  0  0  0  0  0  0  0  0  0
   10.9585  -15.9686   21.8384 C   0  0  0  0  0  0  0  0  0  0  0  0
   10.5228  -16.8315   23.0263 C   0  0  2  0  0  0  0  0  0  0  0  0
    9.1306  -16.5619   23.2493 N   0  0  0  0  0  0  0  0  0  0  0  0
   11.3599  -16.6684   24.2098 C   0  0  0  0  0  0  0  0  0  0  0  0
   12.6110  -16.4655   24.0916 O   0  0  0  0  0  0  0  0  0  0  0  0
    8.9951  -11.7884   19.2861 C   0  0  0  0  0  0  0  0  0  0  0  0
   10.9022  -14.1336   27.0623 C   0  0  2  0  0  0  0  0  0  0  0  0
   10.9461  -15.5336   27.5945 O   0  0  0  0  0  0  0  0  0  0  0  0
    9.6791  -16.0286   27.8294 C   0  0  2  0  0  0  0  0  0  0  0  0
   11.6912  -16.5000   26.7078 N   0  0  0  0  0  0  0  0  0  0  0  0
   10.8613  -16.7209   25.5393 C   0  0  0  0  0  0  0  0  0  0  0  0
   11.9924  -17.7752   27.4091 O   0  0  0  0  0  0  0  0  0  0  0  0
   12.7778  -17.8733   28.5329 O   0  0  0  0  0  0  0  0  0  0  0  0
  2  1  1  1
  3  2  1  0
  4  5  2  0
  4  3  1  0
  6  5  1  0
  7 12  2  0
  7  6  1  0
  8  7  1  0
  9 10  1  0
  9  8  2  0
 10 11  2  0
 11 12  1  0
 12  4  1  0
 13  2  1  0
 14 13  2  0
 16 18  1  0
 16 15  1  0
 17 16  2  0
 19 20  1  0
 19 18  1  0
 20 21  1  0
 22 21  1  6
 22 24  1  0
 22 23  1  0
 23 13  1  0
 24 25  2  0
 27 26  1  1
 27 29  1  0
 27 28  1  0
 29 31  1  0
 30 24  1  0
 29 30  1  1
 31 32  1  0
 33 31  2  0
M  END
$$$$
