WRT.pdb
     RDKit          3D

 33 34  0  0  1  0  0  0  0  0999 V2000
    7.0306  -17.7332   26.5613 N   0  0  0  0  0  0  0  0  0  0  0  0
    7.4876  -16.6594   25.7993 C   0  0  1  0  0  0  0  0  0  0  0  0
    8.7007  -16.0287   26.4327 C   0  0  0  0  0  0  0  0  0  0  0  0
    8.2204  -14.8702   27.2559 C   0  0  0  0  0  0  0  0  0  0  0  0
    8.1807  -14.7402   28.6177 C   0  0  0  0  0  0  0  0  0  0  0  0
    7.6678  -13.5265   28.8886 N   0  0  0  0  0  0  0  0  0  0  0  0
    7.3755  -12.8688   27.7698 C   0  0  0  0  0  0  0  0  0  0  0  0
    6.8375  -11.6103   27.5059 C   0  0  0  0  0  0  0  0  0  0  0  0
    6.6563  -11.2197   26.2027 C   0  0  0  0  0  0  0  0  0  0  0  0
    7.0041  -12.0661   25.1632 C   0  0  0  0  0  0  0  0  0  0  0  0
    7.5358  -13.3099   25.4217 C   0  0  0  0  0  0  0  0  0  0  0  0
    7.7177  -13.7020   26.7297 C   0  0  0  0  0  0  0  0  0  0  0  0
    7.8295  -16.9612   24.3952 C   0  0  0  0  0  0  0  0  0  0  0  0
    8.2081  -18.1185   24.1034 O   0  0  0  0  0  0  0  0  0  0  0  0
    9.2489  -14.8839   16.9874 N   0  0  0  0  0  0  0  0  0  0  0  0
    8.6907  -13.6089   17.3540 C   0  0  0  0  0  0  0  0  0  0  0  0
    9.2752  -12.5682   16.9046 N   0  0  0  0  0  0  0  0  0  0  0  0
    7.5525  -13.5029   18.1758 N   0  0  0  0  0  0  0  0  0  0  0  0
    6.9169  -14.6488   18.7380 C   0  0  0  0  0  0  0  0  0  0  0  0
    7.7285  -15.4587   19.6898 C   0  0  0  0  0  0  0  0  0  0  0  0
    7.4457  -15.2150   21.1424 C   0  0  0  0  0  0  0  0  0  0  0  0
    8.2148  -16.1996   22.0281 C   0  0  2  0  0  0  0  0  0  0  0  0
    7.7480  -16.0046   23.3715 N   0  0  0  0  0  0  0  0  0  0  0  0
    9.6637  -16.1147   21.8810 C   0  0  0  0  0  0  0  0  0  0  0  0
   10.2857  -15.0582   22.2235 O   0  0  0  0  0  0  0  0  0  0  0  0
    8.9423  -11.6274   17.1844 C   0  0  0  0  0  0  0  0  0  0  0  0
   12.4433  -18.2615   23.4197 C   0  0  2  0  0  0  0  0  0  0  0  0
   12.4639  -18.3212   21.9226 O   0  0  0  0  0  0  0  0  0  0  0  0
   11.7890  -19.4279   21.4481 C   0  0  2  0  0  0  0  0  0  0  0  0
   11.9087  -17.0876   21.2553 N   0  0  0  0  0  0  0  0  0  0  0  0
   10.4648  -17.1676   21.3627 C   0  0  0  0  0  0  0  0  0  0  0  0
   12.3430  -16.9819   19.8379 O   0  0  0  0  0  0  0  0  0  0  0  0
   11.5270  -17.2242   18.7586 O   0  0  0  0  0  0  0  0  0  0  0  0
  2  1  1  1
  3  2  1  0
  4  5  2  0
  4  3  1  0
  6  5  1  0
  7 12  2  0
  7  6  1  0
  8  7  1  0
  9 10  1  0
  9  8  2  0
 10 11  2  0
 11 12  1  0
 12  4  1  0
 13  2  1  0
 14 13  2  0
 16 18  1  0
 16 15  1  0
 17 16  2  0
 19 20  1  0
 19 18  1  0
 20 21  1  0
 22 21  1  6
 22 24  1  0
 22 23  1  0
 23 13  1  0
 24 25  2  0
 27 26  1  1
 27 29  1  0
 27 28  1  0
 29 31  1  0
 30 24  1  0
 29 30  1  6
 31 32  1  0
 33 31  2  0
M  END
$$$$
