WRT.pdb
     RDKit          3D

 33 34  0  0  1  0  0  0  0  0999 V2000
    7.3007  -17.5990   25.3618 N   0  0  0  0  0  0  0  0  0  0  0  0
    7.8233  -16.5590   24.5951 C   0  0  1  0  0  0  0  0  0  0  0  0
    9.0368  -15.9601   25.2579 C   0  0  0  0  0  0  0  0  0  0  0  0
    8.5457  -15.0464   26.3415 C   0  0  0  0  0  0  0  0  0  0  0  0
    8.5341  -15.2458   27.6955 C   0  0  0  0  0  0  0  0  0  0  0  0
    7.9962  -14.1479   28.2567 N   0  0  0  0  0  0  0  0  0  0  0  0
    7.6610  -13.2520   27.3322 C   0  0  0  0  0  0  0  0  0  0  0  0
    7.0844  -11.9841   27.3851 C   0  0  0  0  0  0  0  0  0  0  0  0
    6.8629  -11.3001   26.2160 C   0  0  0  0  0  0  0  0  0  0  0  0
    7.2085  -11.8635   24.9990 C   0  0  0  0  0  0  0  0  0  0  0  0
    7.7783  -13.1160   24.9443 C   0  0  0  0  0  0  0  0  0  0  0  0
    8.0006  -13.8026   26.1177 C   0  0  0  0  0  0  0  0  0  0  0  0
    8.2014  -16.9026   23.2100 C   0  0  0  0  0  0  0  0  0  0  0  0
    8.2429  -18.1095   22.8793 O   0  0  0  0  0  0  0  0  0  0  0  0
    7.1423  -14.9166   16.9220 N   0  0  0  0  0  0  0  0  0  0  0  0
    7.6193  -13.6073   17.2827 C   0  0  0  0  0  0  0  0  0  0  0  0
    8.3163  -12.9839   16.4156 N   0  0  0  0  0  0  0  0  0  0  0  0
    7.3388  -13.0321   18.5367 N   0  0  0  0  0  0  0  0  0  0  0  0
    6.4659  -13.6557   19.4761 C   0  0  0  0  0  0  0  0  0  0  0  0
    7.0216  -14.8132   20.2325 C   0  0  0  0  0  0  0  0  0  0  0  0
    8.4834  -15.0744   20.0222 C   0  0  0  0  0  0  0  0  0  0  0  0
    8.9749  -16.2169   20.9159 C   0  0  2  0  0  0  0  0  0  0  0  0
    8.5168  -15.9324   22.2462 N   0  0  0  0  0  0  0  0  0  0  0  0
   10.4092  -16.4643   20.8182 C   0  0  0  0  0  0  0  0  0  0  0  0
   10.9263  -16.8326   19.7148 O   0  0  0  0  0  0  0  0  0  0  0  0
    8.6462  -12.0214   16.6130 C   0  0  0  0  0  0  0  0  0  0  0  0
   13.1845  -14.4297   20.6708 C   0  0  2  0  0  0  0  0  0  0  0  0
   13.4577  -15.3084   21.8534 O   0  0  0  0  0  0  0  0  0  0  0  0
   13.1681  -14.6676   23.0412 C   0  0  2  0  0  0  0  0  0  0  0  0
   12.7231  -16.6253   21.8174 N   0  0  0  0  0  0  0  0  0  0  0  0
   11.3088  -16.3181   21.9083 C   0  0  0  0  0  0  0  0  0  0  0  0
   13.1542  -17.5299   22.9149 O   0  0  0  0  0  0  0  0  0  0  0  0
   14.4112  -18.0765   23.0182 O   0  0  0  0  0  0  0  0  0  0  0  0
  2  1  1  1
  3  2  1  0
  4  5  2  0
  4  3  1  0
  6  5  1  0
  7 12  2  0
  7  6  1  0
  8  7  1  0
  9 10  1  0
  9  8  2  0
 10 11  2  0
 11 12  1  0
 12  4  1  0
 13  2  1  0
 14 13  2  0
 16 18  1  0
 16 15  1  0
 17 16  2  0
 19 20  1  0
 19 18  1  0
 20 21  1  0
 22 21  1  6
 22 24  1  0
 22 23  1  0
 23 13  1  0
 24 25  2  0
 27 26  1  1
 27 29  1  0
 27 28  1  0
 29 31  1  0
 30 24  1  0
 29 30  1  6
 31 32  1  0
 33 31  2  0
M  END
$$$$
