WRT.pdb
     RDKit          3D

 33 34  0  0  1  0  0  0  0  0999 V2000
    6.0999  -18.0598   24.7145 N   0  0  0  0  0  0  0  0  0  0  0  0
    6.8351  -16.8941   24.5066 C   0  0  1  0  0  0  0  0  0  0  0  0
    7.4147  -16.3862   25.8016 C   0  0  0  0  0  0  0  0  0  0  0  0
    6.6606  -15.1423   26.1683 C   0  0  0  0  0  0  0  0  0  0  0  0
    5.3664  -15.0151   26.5949 C   0  0  0  0  0  0  0  0  0  0  0  0
    5.1392  -13.7046   26.7969 N   0  0  0  0  0  0  0  0  0  0  0  0
    6.2218  -12.9822   26.5217 C   0  0  0  0  0  0  0  0  0  0  0  0
    6.5053  -11.6181   26.5656 C   0  0  0  0  0  0  0  0  0  0  0  0
    7.7567  -11.1827   26.2078 C   0  0  0  0  0  0  0  0  0  0  0  0
    8.7255  -12.0881   25.8084 C   0  0  0  0  0  0  0  0  0  0  0  0
    8.4477  -13.4362   25.7644 C   0  0  0  0  0  0  0  0  0  0  0  0
    7.1916  -13.8734   26.1234 C   0  0  0  0  0  0  0  0  0  0  0  0
    7.9429  -16.9919   23.5357 C   0  0  0  0  0  0  0  0  0  0  0  0
    8.6404  -18.0316   23.5211 O   0  0  0  0  0  0  0  0  0  0  0  0
    7.9258  -12.3194   17.4822 N   0  0  0  0  0  0  0  0  0  0  0  0
    8.0277  -13.7216   17.1741 C   0  0  0  0  0  0  0  0  0  0  0  0
    8.8785  -14.0609   16.2867 N   0  0  0  0  0  0  0  0  0  0  0  0
    7.2251  -14.6850   17.8144 N   0  0  0  0  0  0  0  0  0  0  0  0
    7.6124  -15.2952   19.0436 C   0  0  0  0  0  0  0  0  0  0  0  0
    9.0391  -15.1366   19.4434 C   0  0  0  0  0  0  0  0  0  0  0  0
    9.2638  -14.7202   20.8666 C   0  0  0  0  0  0  0  0  0  0  0  0
    9.4092  -15.9388   21.7828 C   0  0  2  0  0  0  0  0  0  0  0  0
    8.2480  -15.9673   22.6263 N   0  0  0  0  0  0  0  0  0  0  0  0
   10.6748  -15.9823   22.5069 C   0  0  0  0  0  0  0  0  0  0  0  0
   11.0671  -14.9760   23.1805 O   0  0  0  0  0  0  0  0  0  0  0  0
    8.9240  -15.0448   15.9641 C   0  0  0  0  0  0  0  0  0  0  0  0
   12.3679  -18.6784   25.0308 C   0  0  2  0  0  0  0  0  0  0  0  0
   13.0674  -18.4701   23.7221 O   0  0  0  0  0  0  0  0  0  0  0  0
   12.7028  -19.4235   22.7928 C   0  0  2  0  0  0  0  0  0  0  0  0
   12.8526  -17.1009   23.1269 N   0  0  0  0  0  0  0  0  0  0  0  0
   11.5372  -17.1116   22.5166 C   0  0  0  0  0  0  0  0  0  0  0  0
   13.9072  -16.7552   22.1385 O   0  0  0  0  0  0  0  0  0  0  0  0
   15.2151  -16.4864   22.4649 O   0  0  0  0  0  0  0  0  0  0  0  0
  2  1  1  1
  3  2  1  0
  4  5  2  0
  4  3  1  0
  6  5  1  0
  7 12  2  0
  7  6  1  0
  8  7  1  0
  9 10  1  0
  9  8  2  0
 10 11  2  0
 11 12  1  0
 12  4  1  0
 13  2  1  0
 14 13  2  0
 16 18  1  0
 16 15  1  0
 17 16  2  0
 19 20  1  0
 19 18  1  0
 20 21  1  0
 22 21  1  1
 22 24  1  0
 22 23  1  0
 23 13  1  0
 24 25  2  0
 27 26  1  1
 27 29  1  0
 27 28  1  0
 29 31  1  0
 30 24  1  0
 29 30  1  6
 31 32  1  0
 33 31  2  0
M  END
$$$$
