WRT.pdb
     RDKit          3D

 33 34  0  0  1  0  0  0  0  0999 V2000
    6.6117  -18.1704   25.8788 N   0  0  0  0  0  0  0  0  0  0  0  0
    7.0763  -16.9506   25.3900 C   0  0  1  0  0  0  0  0  0  0  0  0
    8.3000  -16.5002   26.1452 C   0  0  0  0  0  0  0  0  0  0  0  0
    7.8506  -15.4861   27.1551 C   0  0  0  0  0  0  0  0  0  0  0  0
    7.5156  -15.6706   28.4692 C   0  0  0  0  0  0  0  0  0  0  0  0
    7.1743  -14.4684   28.9673 N   0  0  0  0  0  0  0  0  0  0  0  0
    7.2727  -13.5197   28.0400 C   0  0  0  0  0  0  0  0  0  0  0  0
    7.0408  -12.1452   28.0410 C   0  0  0  0  0  0  0  0  0  0  0  0
    7.2419  -11.4316   26.8860 C   0  0  0  0  0  0  0  0  0  0  0  0
    7.6702  -12.0700   25.7341 C   0  0  0  0  0  0  0  0  0  0  0  0
    7.9000  -13.4278   25.7308 C   0  0  0  0  0  0  0  0  0  0  0  0
    7.6981  -14.1442   26.8901 C   0  0  0  0  0  0  0  0  0  0  0  0
    7.4068  -16.9132   23.9517 C   0  0  0  0  0  0  0  0  0  0  0  0
    7.9670  -17.9076   23.4368 O   0  0  0  0  0  0  0  0  0  0  0  0
    9.4250  -14.9067   16.4928 N   0  0  0  0  0  0  0  0  0  0  0  0
    8.2021  -14.1534   16.5859 C   0  0  0  0  0  0  0  0  0  0  0  0
    7.7796  -13.5977   15.5186 N   0  0  0  0  0  0  0  0  0  0  0  0
    7.4972  -14.0249   17.7978 N   0  0  0  0  0  0  0  0  0  0  0  0
    7.9852  -14.5778   19.0183 C   0  0  0  0  0  0  0  0  0  0  0  0
    7.9713  -13.6794   20.2071 C   0  0  0  0  0  0  0  0  0  0  0  0
    7.1989  -14.1892   21.3872 C   0  0  0  0  0  0  0  0  0  0  0  0
    7.7690  -15.5195   21.8882 C   0  0  2  0  0  0  0  0  0  0  0  0
    7.1192  -15.8086   23.1351 N   0  0  0  0  0  0  0  0  0  0  0  0
    9.2260  -15.5474   21.9533 C   0  0  0  0  0  0  0  0  0  0  0  0
    9.8657  -14.5897   22.4957 O   0  0  0  0  0  0  0  0  0  0  0  0
    6.8768  -13.0887   15.5238 C   0  0  0  0  0  0  0  0  0  0  0  0
   11.7888  -18.1861   23.4277 C   0  0  2  0  0  0  0  0  0  0  0  0
   11.8787  -17.9915   21.9447 O   0  0  0  0  0  0  0  0  0  0  0  0
   11.1354  -18.9332   21.2619 C   0  0  2  0  0  0  0  0  0  0  0  0
   11.4657  -16.6159   21.4839 N   0  0  0  0  0  0  0  0  0  0  0  0
   10.0164  -16.6084   21.4352 C   0  0  0  0  0  0  0  0  0  0  0  0
   12.0554  -16.2741   20.1633 O   0  0  0  0  0  0  0  0  0  0  0  0
   13.3834  -15.9821   19.9612 O   0  0  0  0  0  0  0  0  0  0  0  0
  2  1  1  1
  3  2  1  0
  4  5  2  0
  4  3  1  0
  6  5  1  0
  7 12  2  0
  7  6  1  0
  8  7  1  0
  9 10  1  0
  9  8  2  0
 10 11  2  0
 11 12  1  0
 12  4  1  0
 13  2  1  0
 14 13  2  0
 16 18  1  0
 16 15  1  0
 17 16  2  0
 19 20  1  0
 19 18  1  0
 20 21  1  0
 22 21  1  1
 22 24  1  0
 22 23  1  0
 23 13  1  0
 24 25  2  0
 27 26  1  6
 27 29  1  0
 27 28  1  0
 29 31  1  0
 30 24  1  0
 29 30  1  6
 31 32  1  0
 33 31  2  0
M  END
$$$$
