NDN.pdb
     RDKit          3D

 25 24  0  0  1  0  0  0  0  0999 V2000
   15.7864  -14.5884  -15.5676 N   0  0  0  0  0  0  0  0  0  0  0  0
   16.1881  -13.2864  -16.0199 C   0  0  0  0  0  0  0  0  0  0  0  0
   15.6336  -12.7417  -16.9838 O   0  0  0  0  0  0  0  0  0  0  0  0
   17.2783  -12.6056  -15.3066 C   0  0  0  0  0  0  0  0  0  0  0  0
   18.2464  -11.9402  -16.2796 C   0  0  2  0  0  0  0  0  0  0  0  0
   18.9685  -12.9047  -17.0507 N   0  0  0  0  0  0  0  0  0  0  0  0
   19.1558  -11.0736  -15.4801 C   0  0  0  0  0  0  0  0  0  0  0  0
   19.3932  -11.3205  -14.2696 O   0  0  0  0  0  0  0  0  0  0  0  0
   19.7847   -9.9288  -16.0754 N   0  0  0  0  0  0  0  0  0  0  0  0
   20.8302   -9.2215  -15.3678 C   0  0  1  0  0  0  0  0  0  0  0  0
   21.9649   -8.8162  -16.2780 C   0  0  0  0  0  0  0  0  0  0  0  0
   21.5669   -7.9047  -17.3410 C   0  0  0  0  0  0  0  0  0  0  0  0
   21.6898   -6.6643  -17.2184 O   0  0  0  0  0  0  0  0  0  0  0  0
   20.2777   -8.0426  -14.6336 C   0  0  0  0  0  0  0  0  0  0  0  0
   19.2886   -7.3966  -15.0827 O   0  0  0  0  0  0  0  0  0  0  0  0
   21.0418   -8.3936  -18.5194 O   0  0  0  0  0  0  0  0  0  0  0  0
   19.2613   -4.4036  -10.9704 N   0  0  0  0  0  0  0  0  0  0  0  0
   19.2996   -5.7457  -10.5699 C   0  0  0  0  0  0  0  0  0  0  0  0
   18.8346   -6.0046   -9.3983 O   0  0  0  0  0  0  0  0  0  0  0  0
   19.8212   -6.8393  -11.3861 C   0  0  0  0  0  0  0  0  0  0  0  0
   20.3534   -6.3785  -12.7080 C   0  0  2  0  0  0  0  0  0  0  0  0
   20.8189   -7.5902  -13.4144 N   0  0  0  0  0  0  0  0  0  0  0  0
   21.4638   -5.4180  -12.6206 C   0  0  0  0  0  0  0  0  0  0  0  0
   21.1783   -4.1305  -12.1150 O   0  0  0  0  0  0  0  0  0  0  0  0
   22.6402   -5.6545  -12.9577 O   0  0  0  0  0  0  0  0  0  0  0  0
  2  1  1  0
  2  3  2  0
  4  2  1  0
  5  4  1  0
  5  6  1  1
  7  5  1  0
  8  7  2  0
  9  7  1  0
 10  9  1  0
 10 11  1  6
 12 11  1  0
 12 13  2  0
 14 10  1  0
 14 22  1  0
 15 14  2  0
 16 12  1  0
 18 17  1  0
 18 19  2  0
 21 20  1  1
 20 18  1  0
 21 22  1  0
 21 23  1  0
 23 25  2  0
 23 24  1  0
M  END
$$$$
