NDN.pdb
     RDKit          3D

 25 24  0  0  1  0  0  0  0  0999 V2000
   14.3489  -11.0603  -16.3775 N   0  0  0  0  0  0  0  0  0  0  0  0
   14.5806   -9.6434  -16.3761 C   0  0  0  0  0  0  0  0  0  0  0  0
   13.6949   -8.8472  -16.7148 O   0  0  0  0  0  0  0  0  0  0  0  0
   15.9015   -9.1529  -15.9573 C   0  0  0  0  0  0  0  0  0  0  0  0
   16.8298  -10.3061  -15.5896 C   0  0  2  0  0  0  0  0  0  0  0  0
   16.3692  -11.0078  -14.4313 N   0  0  0  0  0  0  0  0  0  0  0  0
   18.1908   -9.7358  -15.3898 C   0  0  0  0  0  0  0  0  0  0  0  0
   18.6063   -9.4290  -14.2427 O   0  0  0  0  0  0  0  0  0  0  0  0
   19.0641   -9.5202  -16.5084 N   0  0  0  0  0  0  0  0  0  0  0  0
   20.3995   -9.0027  -16.3011 C   0  0  1  0  0  0  0  0  0  0  0  0
   21.3672   -9.4741  -17.3602 C   0  0  0  0  0  0  0  0  0  0  0  0
   21.5851  -10.9135  -17.3566 C   0  0  0  0  0  0  0  0  0  0  0  0
   20.9171  -11.6774  -18.0906 O   0  0  0  0  0  0  0  0  0  0  0  0
   20.3875   -7.5112  -16.2040 C   0  0  0  0  0  0  0  0  0  0  0  0
   19.6538   -6.8120  -16.9592 O   0  0  0  0  0  0  0  0  0  0  0  0
   22.5436  -11.4721  -16.5366 O   0  0  0  0  0  0  0  0  0  0  0  0
   20.6241   -2.5998  -14.5557 N   0  0  0  0  0  0  0  0  0  0  0  0
   19.5912   -3.5445  -14.4945 C   0  0  0  0  0  0  0  0  0  0  0  0
   18.4305   -3.0994  -14.1621 O   0  0  0  0  0  0  0  0  0  0  0  0
   19.7521   -4.9679  -14.7813 C   0  0  0  0  0  0  0  0  0  0  0  0
   21.1616   -5.3379  -15.1271 C   0  0  2  0  0  0  0  0  0  0  0  0
   21.1811   -6.8079  -15.2770 N   0  0  0  0  0  0  0  0  0  0  0  0
   22.1623   -4.9448  -14.1234 C   0  0  0  0  0  0  0  0  0  0  0  0
   22.9612   -5.9644  -13.5604 O   0  0  0  0  0  0  0  0  0  0  0  0
   22.3605   -3.7782  -13.7321 O   0  0  0  0  0  0  0  0  0  0  0  0
  2  1  1  0
  2  3  2  0
  4  2  1  0
  5  4  1  0
  5  6  1  1
  7  5  1  0
  8  7  2  0
  9  7  1  0
 10  9  1  0
 10 11  1  6
 12 11  1  0
 12 13  2  0
 14 10  1  0
 14 22  1  0
 15 14  2  0
 16 12  1  0
 18 17  1  0
 18 19  2  0
 21 20  1  1
 20 18  1  0
 21 22  1  0
 21 23  1  0
 23 25  2  0
 23 24  1  0
M  END
$$$$
