NDN.pdb
     RDKit          3D

 25 24  0  0  1  0  0  0  0  0999 V2000
   16.6061  -12.9595  -15.9364 N   0  0  0  0  0  0  0  0  0  0  0  0
   17.8574  -13.5223  -15.5135 C   0  0  0  0  0  0  0  0  0  0  0  0
   17.9394  -14.7011  -15.1436 O   0  0  0  0  0  0  0  0  0  0  0  0
   19.0504  -12.6637  -15.5323 C   0  0  0  0  0  0  0  0  0  0  0  0
   18.7136  -11.2578  -16.0187 C   0  0  2  0  0  0  0  0  0  0  0  0
   18.5508  -11.2138  -17.4392 N   0  0  0  0  0  0  0  0  0  0  0  0
   19.8023  -10.3536  -15.5554 C   0  0  0  0  0  0  0  0  0  0  0  0
   20.1534  -10.3227  -14.3477 O   0  0  0  0  0  0  0  0  0  0  0  0
   20.4789   -9.4904  -16.4813 N   0  0  0  0  0  0  0  0  0  0  0  0
   21.5505   -8.6308  -16.0265 C   0  0  1  0  0  0  0  0  0  0  0  0
   22.8192   -8.8276  -16.8214 C   0  0  0  0  0  0  0  0  0  0  0  0
   23.3997  -10.1552  -16.6802 C   0  0  0  0  0  0  0  0  0  0  0  0
   23.7746  -10.5894  -15.5669 O   0  0  0  0  0  0  0  0  0  0  0  0
   21.1263   -7.1975  -16.0301 C   0  0  0  0  0  0  0  0  0  0  0  0
   20.2209   -6.7848  -16.8094 O   0  0  0  0  0  0  0  0  0  0  0  0
   23.5490  -10.9723  -17.7817 O   0  0  0  0  0  0  0  0  0  0  0  0
   19.9837   -2.3464  -14.5214 N   0  0  0  0  0  0  0  0  0  0  0  0
   19.2835   -3.5471  -14.3453 C   0  0  0  0  0  0  0  0  0  0  0  0
   18.0798   -3.4454  -13.9021 O   0  0  0  0  0  0  0  0  0  0  0  0
   19.8270   -4.8727  -14.6309 C   0  0  0  0  0  0  0  0  0  0  0  0
   21.2502   -4.8322  -15.0960 C   0  0  2  0  0  0  0  0  0  0  0  0
   21.7019   -6.2370  -15.1757 N   0  0  0  0  0  0  0  0  0  0  0  0
   22.1614   -4.0846  -14.2162 C   0  0  0  0  0  0  0  0  0  0  0  0
   22.6685   -4.7515  -13.0792 O   0  0  0  0  0  0  0  0  0  0  0  0
   22.5222   -2.9056  -14.3988 O   0  0  0  0  0  0  0  0  0  0  0  0
  2  1  1  0
  2  3  2  0
  4  2  1  0
  5  4  1  0
  5  6  1  6
  7  5  1  0
  8  7  2  0
  9  7  1  0
 10  9  1  0
 10 11  1  6
 12 11  1  0
 12 13  2  0
 14 10  1  0
 14 22  1  0
 15 14  2  0
 16 12  1  0
 18 17  1  0
 18 19  2  0
 21 20  1  1
 20 18  1  0
 21 22  1  0
 21 23  1  0
 23 25  2  0
 23 24  1  0
M  END
$$$$
