NDN.pdb
     RDKit          3D

 25 24  0  0  1  0  0  0  0  0999 V2000
   14.0472  -10.5267  -16.9277 N   0  0  0  0  0  0  0  0  0  0  0  0
   14.2581   -9.2125  -16.3895 C   0  0  0  0  0  0  0  0  0  0  0  0
   13.3570   -8.3632  -16.3964 O   0  0  0  0  0  0  0  0  0  0  0  0
   15.5762   -8.8941  -15.8221 C   0  0  0  0  0  0  0  0  0  0  0  0
   16.5227  -10.0866  -15.9165 C   0  0  2  0  0  0  0  0  0  0  0  0
   16.0873  -11.1744  -15.0960 N   0  0  0  0  0  0  0  0  0  0  0  0
   17.8800   -9.6091  -15.5330 C   0  0  0  0  0  0  0  0  0  0  0  0
   18.1339   -9.2458  -14.3556 O   0  0  0  0  0  0  0  0  0  0  0  0
   18.9354   -9.5504  -16.5040 N   0  0  0  0  0  0  0  0  0  0  0  0
   20.2370   -9.0366  -16.1354 C   0  0  1  0  0  0  0  0  0  0  0  0
   21.3548   -9.7100  -16.8953 C   0  0  0  0  0  0  0  0  0  0  0  0
   22.6834   -9.2625  -16.5028 C   0  0  0  0  0  0  0  0  0  0  0  0
   22.8458   -8.4149  -15.5952 O   0  0  0  0  0  0  0  0  0  0  0  0
   20.2921   -7.5515  -16.2949 C   0  0  0  0  0  0  0  0  0  0  0  0
   19.6759   -6.9706  -17.2332 O   0  0  0  0  0  0  0  0  0  0  0  0
   23.8037   -9.7696  -17.1281 O   0  0  0  0  0  0  0  0  0  0  0  0
   20.1683   -2.5451  -14.8682 N   0  0  0  0  0  0  0  0  0  0  0  0
   19.1958   -3.5522  -14.8114 C   0  0  0  0  0  0  0  0  0  0  0  0
   18.0016   -3.1755  -14.5151 O   0  0  0  0  0  0  0  0  0  0  0  0
   19.4531   -4.9677  -15.0651 C   0  0  0  0  0  0  0  0  0  0  0  0
   20.8899   -5.2528  -15.3776 C   0  0  2  0  0  0  0  0  0  0  0  0
   21.0224   -6.7240  -15.4198 N   0  0  0  0  0  0  0  0  0  0  0  0
   21.8483   -4.7127  -14.4014 C   0  0  0  0  0  0  0  0  0  0  0  0
   22.6128   -5.6356  -13.6541 O   0  0  0  0  0  0  0  0  0  0  0  0
   22.0388   -3.5003  -14.1841 O   0  0  0  0  0  0  0  0  0  0  0  0
  2  1  1  0
  2  3  2  0
  4  2  1  0
  5  4  1  0
  5  6  1  1
  7  5  1  0
  8  7  2  0
  9  7  1  0
 10  9  1  0
 10 11  1  6
 12 11  1  0
 12 13  2  0
 14 10  1  0
 14 22  1  0
 15 14  2  0
 16 12  1  0
 18 17  1  0
 18 19  2  0
 21 20  1  1
 20 18  1  0
 21 22  1  0
 21 23  1  0
 23 25  2  0
 23 24  1  0
M  END
$$$$
