NDN.pdb
     RDKit          3D

 25 24  0  0  1  0  0  0  0  0999 V2000
   14.3655  -12.7830  -10.1053 N   0  0  0  0  0  0  0  0  0  0  0  0
   15.5822  -12.3264  -10.7155 C   0  0  0  0  0  0  0  0  0  0  0  0
   16.4249  -13.1256  -11.1448 O   0  0  0  0  0  0  0  0  0  0  0  0
   15.8073  -10.8779  -10.8244 C   0  0  0  0  0  0  0  0  0  0  0  0
   14.6941  -10.0912  -10.1398 C   0  0  2  0  0  0  0  0  0  0  0  0
   13.4051  -10.4459  -10.6485 N   0  0  0  0  0  0  0  0  0  0  0  0
   14.9888   -8.6442  -10.3314 C   0  0  0  0  0  0  0  0  0  0  0  0
   14.7468   -8.0695  -11.4240 O   0  0  0  0  0  0  0  0  0  0  0  0
   15.5606   -7.8679   -9.2681 N   0  0  0  0  0  0  0  0  0  0  0  0
   15.8725   -6.4697   -9.4729 C   0  0  1  0  0  0  0  0  0  0  0  0
   15.4976   -5.6190   -8.2829 C   0  0  0  0  0  0  0  0  0  0  0  0
   15.7536   -4.1986   -8.4736 C   0  0  0  0  0  0  0  0  0  0  0  0
   16.3273   -3.5143   -7.5955 O   0  0  0  0  0  0  0  0  0  0  0  0
   17.3111   -6.2888   -9.8359 C   0  0  0  0  0  0  0  0  0  0  0  0
   18.2332   -6.5804   -9.0222 O   0  0  0  0  0  0  0  0  0  0  0  0
   15.3668   -3.5701   -9.6392 O   0  0  0  0  0  0  0  0  0  0  0  0
   21.7856   -5.7883  -12.4954 N   0  0  0  0  0  0  0  0  0  0  0  0
   21.0358   -6.9525  -12.2819 C   0  0  0  0  0  0  0  0  0  0  0  0
   21.6120   -8.0641  -12.5788 O   0  0  0  0  0  0  0  0  0  0  0  0
   19.6741   -6.9758  -11.7534 C   0  0  0  0  0  0  0  0  0  0  0  0
   19.1301   -5.6070  -11.4818 C   0  0  2  0  0  0  0  0  0  0  0  0
   17.7173   -5.7911  -11.0894 N   0  0  0  0  0  0  0  0  0  0  0  0
   19.1938   -4.6841  -12.6252 C   0  0  0  0  0  0  0  0  0  0  0  0
   20.4316   -4.0598  -12.8952 O   0  0  0  0  0  0  0  0  0  0  0  0
   18.2375   -4.4117  -13.3767 O   0  0  0  0  0  0  0  0  0  0  0  0
  2  1  1  0
  2  3  2  0
  4  2  1  0
  5  4  1  0
  5  6  1  6
  7  5  1  0
  8  7  2  0
  9  7  1  0
 10  9  1  0
 10 11  1  1
 12 11  1  0
 12 13  2  0
 14 10  1  0
 14 22  1  0
 15 14  2  0
 16 12  1  0
 18 17  1  0
 18 19  2  0
 21 20  1  6
 20 18  1  0
 21 22  1  0
 21 23  1  0
 23 25  2  0
 23 24  1  0
M  END
$$$$
