SGL.pdb
     RDKit          3D

 19 18  0  0  1  0  0  0  0  0999 V2000
   17.5115  -13.5179  -17.3526 O   0  0  0  0  0  0  0  0  0  0  0  0
   17.7022  -12.1749  -17.6613 C   0  0  0  0  0  0  0  0  0  0  0  0
   17.7773  -11.3353  -16.3927 C   0  0  2  0  0  0  0  0  0  0  0  0
   16.4605  -11.1515  -15.8865 N   0  0  0  0  0  0  0  0  0  0  0  0
   18.5254  -10.0967  -16.6144 C   0  0  0  0  0  0  0  0  0  0  0  0
   19.7872  -10.1697  -16.6405 O   0  0  0  0  0  0  0  0  0  0  0  0
   17.9509   -8.8238  -16.8021 N   0  0  0  0  0  0  0  0  0  0  0  0
   18.7013   -7.6149  -16.9270 C   0  0  0  0  0  0  0  0  0  0  0  0
   19.3713   -7.2499  -15.6356 C   0  0  0  0  0  0  0  0  0  0  0  0
   18.7157   -7.2529  -14.5907 O   0  0  0  0  0  0  0  0  0  0  0  0
   21.5566   -9.1347  -12.6175 C   0  0  0  0  0  0  0  0  0  0  0  0
   22.2061   -9.0487  -14.0098 C   0  0  2  0  0  0  0  0  0  0  0  0
   23.4040   -9.9722  -13.9564 C   0  0  0  0  0  0  0  0  0  0  0  0
   22.6239   -7.6096  -14.1668 C   0  0  0  0  0  0  0  0  0  0  0  0
   21.4879   -6.6524  -14.3907 C   0  0  2  0  0  0  0  0  0  0  0  0
   20.7483   -6.8994  -15.5875 N   0  0  0  0  0  0  0  0  0  0  0  0
   21.8472   -5.2296  -14.2739 C   0  0  0  0  0  0  0  0  0  0  0  0
   21.7602   -4.5023  -15.2884 O   0  0  0  0  0  0  0  0  0  0  0  0
   22.2780   -4.6470  -13.0979 O   0  0  0  0  0  0  0  0  0  0  0  0
  1  2  1  0
  2  3  1  0
  3  4  1  6
  3  5  1  0
  5  6  2  0
  7  5  1  0
  7  8  1  0
  9  8  1  0
  9 10  2  0
 12 14  1  0
 12 11  1  1
 13 12  1  0
 15 14  1  6
 15 16  1  0
 16  9  1  0
 17 15  1  0
 17 19  1  0
 18 17  2  0
M  END
$$$$
