SGL.pdb
     RDKit          3D

 19 18  0  0  1  0  0  0  0  0999 V2000
   17.4899  -11.7523  -19.4792 O   0  0  0  0  0  0  0  0  0  0  0  0
   17.8924  -11.6222  -18.1538 C   0  0  0  0  0  0  0  0  0  0  0  0
   18.9387  -10.5244  -18.0131 C   0  0  2  0  0  0  0  0  0  0  0  0
   20.0474  -10.8387  -18.8474 N   0  0  0  0  0  0  0  0  0  0  0  0
   19.2783  -10.2858  -16.6093 C   0  0  0  0  0  0  0  0  0  0  0  0
   18.3485   -9.9215  -15.8342 O   0  0  0  0  0  0  0  0  0  0  0  0
   20.5631  -10.4298  -16.0491 N   0  0  0  0  0  0  0  0  0  0  0  0
   20.8933  -10.0933  -14.7008 C   0  0  0  0  0  0  0  0  0  0  0  0
   21.9764   -9.0572  -14.6441 C   0  0  0  0  0  0  0  0  0  0  0  0
   23.1286   -9.3671  -14.9573 O   0  0  0  0  0  0  0  0  0  0  0  0
   23.1278   -5.4815  -18.3271 C   0  0  0  0  0  0  0  0  0  0  0  0
   23.2341   -5.3572  -16.7971 C   0  0  2  0  0  0  0  0  0  0  0  0
   24.7124   -5.4444  -16.4848 C   0  0  0  0  0  0  0  0  0  0  0  0
   22.4820   -6.5415  -16.2475 C   0  0  0  0  0  0  0  0  0  0  0  0
   22.3607   -6.5616  -14.7503 C   0  0  2  0  0  0  0  0  0  0  0  0
   21.7054   -7.7223  -14.2368 N   0  0  0  0  0  0  0  0  0  0  0  0
   21.8037   -5.3337  -14.1594 C   0  0  0  0  0  0  0  0  0  0  0  0
   20.5663   -5.1534  -14.2025 O   0  0  0  0  0  0  0  0  0  0  0  0
   22.5763   -4.3614  -13.5546 O   0  0  0  0  0  0  0  0  0  0  0  0
  1  2  1  0
  2  3  1  0
  3  4  1  6
  3  5  1  0
  5  6  2  0
  7  5  1  0
  7  8  1  0
  9  8  1  0
  9 10  2  0
 12 14  1  0
 12 11  1  6
 13 12  1  0
 15 14  1  6
 15 16  1  0
 16  9  1  0
 17 15  1  0
 17 19  1  0
 18 17  2  0
M  END
$$$$
