SGL.pdb
     RDKit          3D

 19 18  0  0  1  0  0  0  0  0999 V2000
   18.8273  -16.8544  -16.2430 O   0  0  0  0  0  0  0  0  0  0  0  0
   19.8430  -15.9623  -16.5715 C   0  0  0  0  0  0  0  0  0  0  0  0
   19.4920  -15.1865  -17.8343 C   0  0  2  0  0  0  0  0  0  0  0  0
   19.4000  -16.0992  -18.9218 N   0  0  0  0  0  0  0  0  0  0  0  0
   20.4137  -14.0698  -18.0497 C   0  0  0  0  0  0  0  0  0  0  0  0
   21.4697  -14.2986  -18.7060 O   0  0  0  0  0  0  0  0  0  0  0  0
   20.2189  -12.7547  -17.5831 N   0  0  0  0  0  0  0  0  0  0  0  0
   21.1143  -11.6715  -17.8380 C   0  0  0  0  0  0  0  0  0  0  0  0
   21.4858  -10.9582  -16.5718 C   0  0  0  0  0  0  0  0  0  0  0  0
   20.9113  -11.2510  -15.5203 O   0  0  0  0  0  0  0  0  0  0  0  0
   25.0908  -11.0690  -14.1234 C   0  0  0  0  0  0  0  0  0  0  0  0
   25.2277  -10.3447  -15.4740 C   0  0  2  0  0  0  0  0  0  0  0  0
   26.7052  -10.0569  -15.6321 C   0  0  0  0  0  0  0  0  0  0  0  0
   24.4295   -9.0751  -15.3286 C   0  0  0  0  0  0  0  0  0  0  0  0
   22.9405   -9.2659  -15.3857 C   0  0  2  0  0  0  0  0  0  0  0  0
   22.4876   -9.9494  -16.5553 N   0  0  0  0  0  0  0  0  0  0  0  0
   22.1520   -8.0461  -15.1461 C   0  0  0  0  0  0  0  0  0  0  0  0
   21.6367   -7.4613  -16.1250 O   0  0  0  0  0  0  0  0  0  0  0  0
   21.9467   -7.5063  -13.8913 O   0  0  0  0  0  0  0  0  0  0  0  0
  1  2  1  0
  2  3  1  0
  3  4  1  6
  3  5  1  0
  5  6  2  0
  7  5  1  0
  7  8  1  0
  9  8  1  0
  9 10  2  0
 12 14  1  0
 12 11  1  1
 13 12  1  0
 15 14  1  6
 15 16  1  0
 16  9  1  0
 17 15  1  0
 17 19  1  0
 18 17  2  0
M  END
$$$$
