SGL.pdb
     RDKit          3D

 19 18  0  0  1  0  0  0  0  0999 V2000
   19.3568  -12.8571  -18.0220 O   0  0  0  0  0  0  0  0  0  0  0  0
   20.3097  -12.2483  -17.2116 C   0  0  0  0  0  0  0  0  0  0  0  0
   20.8226  -10.9654  -17.8526 C   0  0  2  0  0  0  0  0  0  0  0  0
   21.4900  -11.2943  -19.0652 N   0  0  0  0  0  0  0  0  0  0  0  0
   21.6196  -10.1781  -16.9103 C   0  0  0  0  0  0  0  0  0  0  0  0
   21.0306   -9.7019  -15.8981 O   0  0  0  0  0  0  0  0  0  0  0  0
   22.9961   -9.9065  -17.0402 N   0  0  0  0  0  0  0  0  0  0  0  0
   23.7436   -9.0960  -16.1321 C   0  0  0  0  0  0  0  0  0  0  0  0
   23.2317   -7.6863  -16.1070 C   0  0  0  0  0  0  0  0  0  0  0  0
   23.0830   -7.0765  -17.1689 O   0  0  0  0  0  0  0  0  0  0  0  0
   19.1008   -4.3341  -16.2787 C   0  0  0  0  0  0  0  0  0  0  0  0
   20.4110   -4.2280  -15.4788 C   0  0  2  0  0  0  0  0  0  0  0  0
   21.2369   -3.1783  -16.1906 C   0  0  0  0  0  0  0  0  0  0  0  0
   21.0476   -5.5903  -15.5733 C   0  0  0  0  0  0  0  0  0  0  0  0
   22.3132   -5.7426  -14.7784 C   0  0  2  0  0  0  0  0  0  0  0  0
   22.9130   -7.0346  -14.8843 N   0  0  0  0  0  0  0  0  0  0  0  0
   22.2141   -5.3180  -13.3723 C   0  0  0  0  0  0  0  0  0  0  0  0
   22.0170   -4.1079  -13.1221 O   0  0  0  0  0  0  0  0  0  0  0  0
   22.3268   -6.1872  -12.3047 O   0  0  0  0  0  0  0  0  0  0  0  0
  1  2  1  0
  2  3  1  0
  3  4  1  6
  3  5  1  0
  5  6  2  0
  7  5  1  0
  7  8  1  0
  9  8  1  0
  9 10  2  0
 12 14  1  0
 12 11  1  6
 13 12  1  0
 15 14  1  1
 15 16  1  0
 16  9  1  0
 17 15  1  0
 17 19  1  0
 18 17  2  0
M  END
$$$$
