SGL.pdb
     RDKit          3D

 19 18  0  0  1  0  0  0  0  0999 V2000
   18.2562  -15.5809  -18.4435 O   0  0  0  0  0  0  0  0  0  0  0  0
   18.6141  -14.2736  -18.7571 C   0  0  0  0  0  0  0  0  0  0  0  0
   19.8212  -14.2529  -19.6857 C   0  0  2  0  0  0  0  0  0  0  0  0
   20.6754  -15.3402  -19.3509 N   0  0  0  0  0  0  0  0  0  0  0  0
   20.4726  -12.9419  -19.6872 C   0  0  0  0  0  0  0  0  0  0  0  0
   20.9191  -12.5096  -20.7881 O   0  0  0  0  0  0  0  0  0  0  0  0
   20.6432  -12.1188  -18.5564 N   0  0  0  0  0  0  0  0  0  0  0  0
   21.3004  -10.8509  -18.5781 C   0  0  0  0  0  0  0  0  0  0  0  0
   21.3794  -10.2510  -17.2056 C   0  0  0  0  0  0  0  0  0  0  0  0
   20.6565  -10.6924  -16.3087 O   0  0  0  0  0  0  0  0  0  0  0  0
   23.9487  -10.9252  -13.9996 C   0  0  0  0  0  0  0  0  0  0  0  0
   24.5370  -10.2381  -15.2443 C   0  0  2  0  0  0  0  0  0  0  0  0
   26.0381  -10.2715  -15.0548 C   0  0  0  0  0  0  0  0  0  0  0  0
   24.0065   -8.8282  -15.2098 C   0  0  0  0  0  0  0  0  0  0  0  0
   22.5623   -8.6967  -15.6020 C   0  0  2  0  0  0  0  0  0  0  0  0
   22.2706   -9.1826  -16.9132 N   0  0  0  0  0  0  0  0  0  0  0  0
   21.9848   -7.3589  -15.3920 C   0  0  0  0  0  0  0  0  0  0  0  0
   21.7656   -6.6353  -16.3891 O   0  0  0  0  0  0  0  0  0  0  0  0
   21.6680   -6.8533  -14.1462 O   0  0  0  0  0  0  0  0  0  0  0  0
  1  2  1  0
  2  3  1  0
  3  4  1  1
  3  5  1  0
  5  6  2  0
  7  5  1  0
  7  8  1  0
  9  8  1  0
  9 10  2  0
 12 14  1  0
 12 11  1  1
 13 12  1  0
 15 14  1  6
 15 16  1  0
 16  9  1  0
 17 15  1  0
 17 19  1  0
 18 17  2  0
M  END
$$$$
