SGL.pdb
     RDKit          3D

 19 18  0  0  1  0  0  0  0  0999 V2000
   19.6382  -12.4059  -18.1185 O   0  0  0  0  0  0  0  0  0  0  0  0
   19.3915  -12.6154  -19.4715 C   0  0  0  0  0  0  0  0  0  0  0  0
   20.3612  -11.8111  -20.3274 C   0  0  2  0  0  0  0  0  0  0  0  0
   21.6763  -12.3150  -20.1259 N   0  0  0  0  0  0  0  0  0  0  0  0
   20.2150  -10.3734  -20.0940 C   0  0  0  0  0  0  0  0  0  0  0  0
   19.0809   -9.8566  -20.3061 O   0  0  0  0  0  0  0  0  0  0  0  0
   21.2401   -9.5146  -19.6503 N   0  0  0  0  0  0  0  0  0  0  0  0
   21.0316   -8.1651  -19.2313 C   0  0  0  0  0  0  0  0  0  0  0  0
   20.6092   -8.0967  -17.7936 C   0  0  0  0  0  0  0  0  0  0  0  0
   19.4330   -8.3199  -17.4962 O   0  0  0  0  0  0  0  0  0  0  0  0
   21.1843  -10.7644  -14.4547 C   0  0  0  0  0  0  0  0  0  0  0  0
   22.3979   -9.9839  -14.9892 C   0  0  2  0  0  0  0  0  0  0  0  0
   23.6068  -10.6131  -14.3311 C   0  0  0  0  0  0  0  0  0  0  0  0
   22.1936   -8.5641  -14.5282 C   0  0  0  0  0  0  0  0  0  0  0  0
   21.2332   -7.7694  -15.3666 C   0  0  2  0  0  0  0  0  0  0  0  0
   21.5355   -7.7799  -16.7626 N   0  0  0  0  0  0  0  0  0  0  0  0
   20.9837   -6.3995  -14.8888 C   0  0  0  0  0  0  0  0  0  0  0  0
   20.5486   -6.2379  -13.7268 O   0  0  0  0  0  0  0  0  0  0  0  0
   21.2051   -5.2730  -15.6569 O   0  0  0  0  0  0  0  0  0  0  0  0
  1  2  1  0
  2  3  1  0
  3  4  1  1
  3  5  1  0
  5  6  2  0
  7  5  1  0
  7  8  1  0
  9  8  1  0
  9 10  2  0
 12 14  1  0
 12 11  1  1
 13 12  1  0
 15 14  1  1
 15 16  1  0
 16  9  1  0
 17 15  1  0
 17 19  1  0
 18 17  2  0
M  END
$$$$
