SGL.pdb
     RDKit          3D

 19 18  0  0  1  0  0  0  0  0999 V2000
   27.4634  -13.2545  -18.6064 O   0  0  0  0  0  0  0  0  0  0  0  0
   27.7865  -11.9579  -18.9934 C   0  0  0  0  0  0  0  0  0  0  0  0
   28.4968  -11.2199  -17.8662 C   0  0  2  0  0  0  0  0  0  0  0  0
   29.6822  -11.9305  -17.5289 N   0  0  0  0  0  0  0  0  0  0  0  0
   27.5952  -10.9663  -16.7411 C   0  0  0  0  0  0  0  0  0  0  0  0
   27.9282  -11.4186  -15.6086 O   0  0  0  0  0  0  0  0  0  0  0  0
   26.3808  -10.2559  -16.8181 N   0  0  0  0  0  0  0  0  0  0  0  0
   25.5317   -9.9939  -15.6998 C   0  0  0  0  0  0  0  0  0  0  0  0
   24.3481   -9.1609  -16.0937 C   0  0  0  0  0  0  0  0  0  0  0  0
   24.5253   -8.1174  -16.7272 O   0  0  0  0  0  0  0  0  0  0  0  0
   18.1511   -9.7102  -15.7923 C   0  0  0  0  0  0  0  0  0  0  0  0
   19.3233   -8.8807  -16.3450 C   0  0  2  0  0  0  0  0  0  0  0  0
   19.1878   -8.9401  -17.8512 C   0  0  0  0  0  0  0  0  0  0  0  0
   20.5685   -9.5862  -15.8736 C   0  0  0  0  0  0  0  0  0  0  0  0
   21.8429   -8.8291  -16.1169 C   0  0  2  0  0  0  0  0  0  0  0  0
   23.0229   -9.5471  -15.7532 N   0  0  0  0  0  0  0  0  0  0  0  0
   21.8639   -7.4630  -15.5686 C   0  0  0  0  0  0  0  0  0  0  0  0
   21.3737   -6.5344  -16.2492 O   0  0  0  0  0  0  0  0  0  0  0  0
   22.3980   -7.1458  -14.3349 O   0  0  0  0  0  0  0  0  0  0  0  0
  1  2  1  0
  2  3  1  0
  3  4  1  1
  3  5  1  0
  5  6  2  0
  7  5  1  0
  7  8  1  0
  9  8  1  0
  9 10  2  0
 12 14  1  0
 12 11  1  1
 13 12  1  0
 15 14  1  1
 15 16  1  0
 16  9  1  0
 17 15  1  0
 17 19  1  0
 18 17  2  0
M  END
$$$$
