SGL.pdb
     RDKit          3D

 19 18  0  0  1  0  0  0  0  0999 V2000
   13.7051  -13.0934  -17.3372 O   0  0  0  0  0  0  0  0  0  0  0  0
   14.6146  -12.1217  -17.7420 C   0  0  0  0  0  0  0  0  0  0  0  0
   16.0070  -12.4300  -17.2072 C   0  0  2  0  0  0  0  0  0  0  0  0
   15.9288  -12.5998  -15.7969 N   0  0  0  0  0  0  0  0  0  0  0  0
   16.9830  -11.4327  -17.6496 C   0  0  0  0  0  0  0  0  0  0  0  0
   17.2234  -11.3558  -18.8884 O   0  0  0  0  0  0  0  0  0  0  0  0
   17.6796  -10.5473  -16.8034 N   0  0  0  0  0  0  0  0  0  0  0  0
   18.5826   -9.5407  -17.2631 C   0  0  0  0  0  0  0  0  0  0  0  0
   19.1709   -8.7686  -16.1195 C   0  0  0  0  0  0  0  0  0  0  0  0
   18.5236   -8.6419  -15.0771 O   0  0  0  0  0  0  0  0  0  0  0  0
   21.6370   -9.8235  -12.9992 C   0  0  0  0  0  0  0  0  0  0  0  0
   22.2317   -9.8515  -14.4181 C   0  0  2  0  0  0  0  0  0  0  0  0
   23.5417  -10.5992  -14.2942 C   0  0  0  0  0  0  0  0  0  0  0  0
   22.4521   -8.4073  -14.7869 C   0  0  0  0  0  0  0  0  0  0  0  0
   21.1959   -7.6474  -15.1051 C   0  0  2  0  0  0  0  0  0  0  0  0
   20.4609   -8.1777  -16.2091 N   0  0  0  0  0  0  0  0  0  0  0  0
   21.3712   -6.1916  -15.2355 C   0  0  0  0  0  0  0  0  0  0  0  0
   21.2127   -5.6652  -16.3596 O   0  0  0  0  0  0  0  0  0  0  0  0
   21.7029   -5.3668  -14.1783 O   0  0  0  0  0  0  0  0  0  0  0  0
  1  2  1  0
  2  3  1  0
  3  4  1  1
  3  5  1  0
  5  6  2  0
  7  5  1  0
  7  8  1  0
  9  8  1  0
  9 10  2  0
 12 14  1  0
 12 11  1  1
 13 12  1  0
 15 14  1  6
 15 16  1  0
 16  9  1  0
 17 15  1  0
 17 19  1  0
 18 17  2  0
M  END
$$$$
