VSG.pdb
     RDKit          3D

 18 17  0  0  1  0  0  0  0  0999 V2000
   19.8036  -12.7960  -19.3114 C   0  0  0  0  0  0  0  0  0  0  0  0
   19.6765  -11.3575  -18.8612 C   0  0  1  0  0  0  0  0  0  0  0  0
   18.2229  -10.9524  -18.9224 C   0  0  0  0  0  0  0  0  0  0  0  0
   20.2051  -11.1498  -17.4691 C   0  0  2  0  0  0  0  0  0  0  0  0
   19.4980  -12.0362  -16.5615 N   0  0  0  0  0  0  0  0  0  0  0  0
   20.0323   -9.7432  -17.0095 C   0  0  0  0  0  0  0  0  0  0  0  0
   20.6339   -8.8015  -17.5734 O   0  0  0  0  0  0  0  0  0  0  0  0
   17.4347   -8.8215  -13.6488 O   0  0  0  0  0  0  0  0  0  0  0  0
   17.6647   -7.9586  -14.6918 C   0  0  0  0  0  0  0  0  0  0  0  0
   19.0058   -8.1396  -15.3467 C   0  0  2  0  0  0  0  0  0  0  0  0
   19.1847   -9.4436  -15.9266 N   0  0  0  0  0  0  0  0  0  0  0  0
   20.1288   -7.7607  -14.4730 C   0  0  0  0  0  0  0  0  0  0  0  0
   20.7510   -8.6383  -13.8480 O   0  0  0  0  0  0  0  0  0  0  0  0
   20.5199   -6.4083  -14.3268 N   0  0  0  0  0  0  0  0  0  0  0  0
   21.6145   -6.0262  -13.4542 C   0  0  0  0  0  0  0  0  0  0  0  0
   21.8597   -4.5786  -13.5359 C   0  0  0  0  0  0  0  0  0  0  0  0
   22.8478   -4.0303  -12.7136 O   0  0  0  0  0  0  0  0  0  0  0  0
   21.2053   -3.8355  -14.3218 O   0  0  0  0  0  0  0  0  0  0  0  0
  2  1  1  1
  2  3  1  0
  4  2  1  0
  4  5  1  1
  6  4  1  0
  6 11  1  0
  7  6  2  0
  9  8  1  0
 10 11  1  0
 10  9  1  1
 12 10  1  0
 13 12  2  0
 14 12  1  0
 15 14  1  0
 15 16  1  0
 16 18  2  0
 16 17  1  0
M  END
$$$$
