VSG.pdb
     RDKit          3D

 18 17  0  0  1  0  0  0  0  0999 V2000
   20.0488  -12.0131  -18.1236 C   0  0  0  0  0  0  0  0  0  0  0  0
   19.6963  -10.7585  -17.3555 C   0  0  1  0  0  0  0  0  0  0  0  0
   19.5105  -11.1127  -15.8991 C   0  0  0  0  0  0  0  0  0  0  0  0
   20.7506   -9.6953  -17.4907 C   0  0  2  0  0  0  0  0  0  0  0  0
   22.0209  -10.2334  -17.0366 N   0  0  0  0  0  0  0  0  0  0  0  0
   20.4240   -8.4795  -16.6941 C   0  0  0  0  0  0  0  0  0  0  0  0
   19.3747   -7.8311  -16.9070 O   0  0  0  0  0  0  0  0  0  0  0  0
   21.0250   -7.8812  -12.7103 O   0  0  0  0  0  0  0  0  0  0  0  0
   21.6742   -6.9651  -13.5006 C   0  0  0  0  0  0  0  0  0  0  0  0
   21.1068   -6.8480  -14.8879 C   0  0  2  0  0  0  0  0  0  0  0  0
   21.2932   -8.0333  -15.6810 N   0  0  0  0  0  0  0  0  0  0  0  0
   21.5513   -5.6330  -15.5909 C   0  0  0  0  0  0  0  0  0  0  0  0
   22.5577   -5.6729  -16.3214 O   0  0  0  0  0  0  0  0  0  0  0  0
   20.8531   -4.4095  -15.4531 N   0  0  0  0  0  0  0  0  0  0  0  0
   21.2627   -3.2181  -16.1731 C   0  0  0  0  0  0  0  0  0  0  0  0
   20.3698   -2.0924  -15.8604 C   0  0  0  0  0  0  0  0  0  0  0  0
   20.6821   -0.8371  -16.3895 O   0  0  0  0  0  0  0  0  0  0  0  0
   19.3442   -2.2372  -15.1355 O   0  0  0  0  0  0  0  0  0  0  0  0
  2  1  1  6
  2  3  1  0
  4  2  1  0
  4  5  1  1
  6  4  1  0
  6 11  1  0
  7  6  2  0
  9  8  1  0
 10 11  1  0
 10  9  1  1
 12 10  1  0
 13 12  2  0
 14 12  1  0
 15 14  1  0
 15 16  1  0
 16 18  2  0
 16 17  1  0
M  END
$$$$
