VSG.pdb
     RDKit          3D

 18 17  0  0  1  0  0  0  0  0999 V2000
   16.9164   -8.7432  -17.4387 C   0  0  0  0  0  0  0  0  0  0  0  0
   16.6760   -9.9558  -16.5669 C   0  0  1  0  0  0  0  0  0  0  0  0
   15.6572  -10.8463  -17.2377 C   0  0  0  0  0  0  0  0  0  0  0  0
   17.9392  -10.7298  -16.3107 C   0  0  2  0  0  0  0  0  0  0  0  0
   17.6239  -11.8833  -15.4864 N   0  0  0  0  0  0  0  0  0  0  0  0
   18.9701   -9.9051  -15.6204 C   0  0  0  0  0  0  0  0  0  0  0  0
   18.8191   -9.5464  -14.4308 O   0  0  0  0  0  0  0  0  0  0  0  0
   22.9616  -10.4245  -15.5298 O   0  0  0  0  0  0  0  0  0  0  0  0
   22.5797   -9.2545  -16.1384 C   0  0  0  0  0  0  0  0  0  0  0  0
   21.2234   -8.7631  -15.7150 C   0  0  2  0  0  0  0  0  0  0  0  0
   20.1404   -9.5107  -16.2956 N   0  0  0  0  0  0  0  0  0  0  0  0
   21.0555   -7.3113  -15.8940 C   0  0  0  0  0  0  0  0  0  0  0  0
   20.5814   -6.8685  -16.9557 O   0  0  0  0  0  0  0  0  0  0  0  0
   21.4247   -6.3997  -14.8761 N   0  0  0  0  0  0  0  0  0  0  0  0
   21.1483   -4.9801  -14.9936 C   0  0  0  0  0  0  0  0  0  0  0  0
   21.6620   -4.2546  -13.8222 C   0  0  0  0  0  0  0  0  0  0  0  0
   21.4760   -2.8704  -13.7708 O   0  0  0  0  0  0  0  0  0  0  0  0
   22.2574   -4.8494  -12.8787 O   0  0  0  0  0  0  0  0  0  0  0  0
  2  1  1  6
  2  3  1  0
  4  2  1  0
  4  5  1  1
  6  4  1  0
  6 11  1  0
  7  6  2  0
  9  8  1  0
 10 11  1  0
 10  9  1  6
 12 10  1  0
 13 12  2  0
 14 12  1  0
 15 14  1  0
 15 16  1  0
 16 18  2  0
 16 17  1  0
M  END
$$$$
