VSG.pdb
     RDKit          3D

 18 17  0  0  1  0  0  0  0  0999 V2000
   18.3258  -11.8235  -18.9954 C   0  0  0  0  0  0  0  0  0  0  0  0
   18.4112  -10.7060  -17.9796 C   0  0  1  0  0  0  0  0  0  0  0  0
   17.0406  -10.4767  -17.3883 C   0  0  0  0  0  0  0  0  0  0  0  0
   19.3947  -11.0094  -16.8836 C   0  0  2  0  0  0  0  0  0  0  0  0
   18.9630  -12.2067  -16.1838 N   0  0  0  0  0  0  0  0  0  0  0  0
   19.5079   -9.8892  -15.9081 C   0  0  0  0  0  0  0  0  0  0  0  0
   18.6978   -9.7740  -14.9608 O   0  0  0  0  0  0  0  0  0  0  0  0
   21.9240   -6.7079  -13.4555 O   0  0  0  0  0  0  0  0  0  0  0  0
   21.8600   -7.7731  -14.3196 C   0  0  0  0  0  0  0  0  0  0  0  0
   20.6649   -7.7459  -15.2313 C   0  0  2  0  0  0  0  0  0  0  0  0
   20.5332   -8.9331  -16.0326 N   0  0  0  0  0  0  0  0  0  0  0  0
   20.5854   -6.5178  -16.0396 C   0  0  0  0  0  0  0  0  0  0  0  0
   21.1734   -6.4575  -17.1345 O   0  0  0  0  0  0  0  0  0  0  0  0
   19.8485   -5.3940  -15.5952 N   0  0  0  0  0  0  0  0  0  0  0  0
   19.8098   -4.1622  -16.3611 C   0  0  0  0  0  0  0  0  0  0  0  0
   20.8067   -3.2072  -15.8550 C   0  0  0  0  0  0  0  0  0  0  0  0
   20.3488   -2.0734  -15.1781 O   0  0  0  0  0  0  0  0  0  0  0  0
   22.0470   -3.3898  -16.0181 O   0  0  0  0  0  0  0  0  0  0  0  0
  2  1  1  6
  2  3  1  0
  4  2  1  0
  4  5  1  1
  6  4  1  0
  6 11  1  0
  7  6  2  0
  9  8  1  0
 10 11  1  0
 10  9  1  6
 12 10  1  0
 13 12  2  0
 14 12  1  0
 15 14  1  0
 15 16  1  0
 16 18  2  0
 16 17  1  0
M  END
$$$$
