VSG.pdb
     RDKit          3D

 18 17  0  0  1  0  0  0  0  0999 V2000
   15.6554   -9.2546  -17.1547 C   0  0  0  0  0  0  0  0  0  0  0  0
   16.9998   -8.8953  -16.5617 C   0  0  1  0  0  0  0  0  0  0  0  0
   16.8200   -7.7389  -15.6071 C   0  0  0  0  0  0  0  0  0  0  0  0
   17.6314  -10.0554  -15.8435 C   0  0  2  0  0  0  0  0  0  0  0  0
   16.7012  -10.5518  -14.8446 N   0  0  0  0  0  0  0  0  0  0  0  0
   18.9059   -9.6717  -15.1741 C   0  0  0  0  0  0  0  0  0  0  0  0
   18.9392   -9.4123  -13.9501 O   0  0  0  0  0  0  0  0  0  0  0  0
   22.7208  -11.2089  -15.5202 O   0  0  0  0  0  0  0  0  0  0  0  0
   22.5354   -9.9380  -16.0057 C   0  0  0  0  0  0  0  0  0  0  0  0
   21.3828   -9.2078  -15.3744 C   0  0  2  0  0  0  0  0  0  0  0  0
   20.1039   -9.5927  -15.9085 N   0  0  0  0  0  0  0  0  0  0  0  0
   21.5638   -7.7466  -15.3634 C   0  0  0  0  0  0  0  0  0  0  0  0
   21.1576   -7.0647  -16.3216 O   0  0  0  0  0  0  0  0  0  0  0  0
   22.1951   -7.0942  -14.2775 N   0  0  0  0  0  0  0  0  0  0  0  0
   22.4260   -5.6616  -14.2847 C   0  0  0  0  0  0  0  0  0  0  0  0
   21.3209   -4.9565  -13.6186 C   0  0  0  0  0  0  0  0  0  0  0  0
   21.4192   -3.5705  -13.4683 O   0  0  0  0  0  0  0  0  0  0  0  0
   20.3030   -5.5699  -13.1875 O   0  0  0  0  0  0  0  0  0  0  0  0
  2  1  1  1
  2  3  1  0
  4  2  1  0
  4  5  1  1
  6  4  1  0
  6 11  1  0
  7  6  2  0
  9  8  1  0
 10 11  1  0
 10  9  1  6
 12 10  1  0
 13 12  2  0
 14 12  1  0
 15 14  1  0
 15 16  1  0
 16 18  2  0
 16 17  1  0
M  END
$$$$
