EPW.pdb
     RDKit          3D

 31 33  0  0  1  0  0  0  0  0999 V2000
   26.5272  -18.2696  -16.6854 N   0  0  0  0  0  0  0  0  0  0  0  0
   26.7756  -18.3114  -15.2588 C   0  0  1  0  0  0  0  0  0  0  0  0
   25.7199  -17.4698  -14.6130 C   0  0  0  0  0  0  0  0  0  0  0  0
   25.8715  -16.0411  -14.9907 C   0  0  0  0  0  0  0  0  0  0  0  0
   24.9701  -15.7721  -16.1705 C   0  0  0  0  0  0  0  0  0  0  0  0
   25.4228  -15.2835  -17.2278 O   0  0  0  0  0  0  0  0  0  0  0  0
   26.9284  -19.6658  -14.7366 C   0  0  0  0  0  0  0  0  0  0  0  0
   26.2872  -20.6408  -15.2474 O   0  0  0  0  0  0  0  0  0  0  0  0
   23.6288  -16.0860  -16.0362 O   0  0  0  0  0  0  0  0  0  0  0  0
   27.7885  -20.0193  -13.6333 N   0  0  0  0  0  0  0  0  0  0  0  0
   28.4469  -19.0265  -12.8315 C   0  0  0  0  0  0  0  0  0  0  0  0
   29.3305  -19.7644  -11.8877 C   0  0  0  0  0  0  0  0  0  0  0  0
   29.4553  -21.1406  -12.4926 C   0  0  0  0  0  0  0  0  0  0  0  0
   28.1066  -21.3443  -13.1938 C   0  0  1  0  0  0  0  0  0  0  0  0
   27.1850  -21.8198  -12.1161 C   0  0  0  0  0  0  0  0  0  0  0  0
   27.3434  -22.9717  -11.6415 O   0  0  0  0  0  0  0  0  0  0  0  0
   26.1387  -21.0245  -11.6066 N   0  0  0  0  0  0  0  0  0  0  0  0
   25.1795  -21.4373  -10.6185 C   0  0  1  0  0  0  0  0  0  0  0  0
   25.8435  -21.8544   -9.3201 C   0  0  0  0  0  0  0  0  0  0  0  0
   26.3294  -20.6951   -8.5471 C   0  0  0  0  0  0  0  0  0  0  0  0
   26.0283  -19.3698   -8.8249 C   0  0  0  0  0  0  0  0  0  0  0  0
   26.6466  -18.5715   -7.9113 N   0  0  0  0  0  0  0  0  0  0  0  0
   27.3385  -19.3369   -7.0503 C   0  0  0  0  0  0  0  0  0  0  0  0
   28.1148  -18.9791   -5.9666 C   0  0  0  0  0  0  0  0  0  0  0  0
   28.7295  -19.9747   -5.2333 C   0  0  0  0  0  0  0  0  0  0  0  0
   28.5459  -21.2899   -5.6096 C   0  0  0  0  0  0  0  0  0  0  0  0
   27.7576  -21.6265   -6.7074 C   0  0  0  0  0  0  0  0  0  0  0  0
   27.1484  -20.6389   -7.4342 C   0  0  0  0  0  0  0  0  0  0  0  0
   24.2987  -20.2786  -10.3105 C   0  0  0  0  0  0  0  0  0  0  0  0
   23.1022  -20.4316   -9.6237 O   0  0  0  0  0  0  0  0  0  0  0  0
   24.6191  -19.1195  -10.6683 O   0  0  0  0  0  0  0  0  0  0  0  0
  2  1  1  6
  2  3  1  0
  3  4  1  0
  5  9  1  0
  5  4  1  0
  6  5  2  0
  7 10  1  0
  7  2  1  0
  8  7  2  0
 10 11  1  0
 11 12  1  0
 12 13  1  0
 14 15  1  1
 14 10  1  0
 14 13  1  0
 15 16  2  0
 17 18  1  0
 17 15  1  0
 18 29  1  0
 18 19  1  1
 20 19  1  0
 21 20  2  0
 22 21  1  0
 23 22  1  0
 23 28  2  0
 24 23  1  0
 25 24  2  0
 25 26  1  0
 26 27  2  0
 27 28  1  0
 28 20  1  0
 29 31  2  0
 29 30  1  0
M  END
$$$$
