EPW.pdb
     RDKit          3D

 31 33  0  0  1  0  0  0  0  0999 V2000
   25.4959  -22.5363  -16.9661 N   0  0  0  0  0  0  0  0  0  0  0  0
   25.9408  -21.3478  -16.2673 C   0  0  1  0  0  0  0  0  0  0  0  0
   24.8692  -20.3180  -16.4437 C   0  0  0  0  0  0  0  0  0  0  0  0
   23.8928  -20.3672  -15.3253 C   0  0  0  0  0  0  0  0  0  0  0  0
   22.8479  -19.3066  -15.5709 C   0  0  0  0  0  0  0  0  0  0  0  0
   22.2865  -19.2018  -16.6824 O   0  0  0  0  0  0  0  0  0  0  0  0
   26.3653  -21.6072  -14.8951 C   0  0  0  0  0  0  0  0  0  0  0  0
   26.0210  -22.6762  -14.2941 O   0  0  0  0  0  0  0  0  0  0  0  0
   22.5375  -18.4585  -14.5222 O   0  0  0  0  0  0  0  0  0  0  0  0
   27.1857  -20.7123  -14.1152 N   0  0  0  0  0  0  0  0  0  0  0  0
   27.5423  -19.4023  -14.5830 C   0  0  0  0  0  0  0  0  0  0  0  0
   28.4826  -18.8367  -13.5772 C   0  0  0  0  0  0  0  0  0  0  0  0
   28.9545  -20.0354  -12.7924 C   0  0  0  0  0  0  0  0  0  0  0  0
   27.7464  -20.9796  -12.8252 C   0  0  1  0  0  0  0  0  0  0  0  0
   26.8630  -20.5066  -11.7149 C   0  0  0  0  0  0  0  0  0  0  0  0
   25.9704  -19.6588  -11.9636 O   0  0  0  0  0  0  0  0  0  0  0  0
   26.9905  -20.9751  -10.3916 N   0  0  0  0  0  0  0  0  0  0  0  0
   25.9250  -21.5084   -9.5870 C   0  0  1  0  0  0  0  0  0  0  0  0
   26.3419  -21.6934   -8.1404 C   0  0  0  0  0  0  0  0  0  0  0  0
   26.9143  -20.4609   -7.5652 C   0  0  0  0  0  0  0  0  0  0  0  0
   26.6681  -19.1767   -8.0283 C   0  0  0  0  0  0  0  0  0  0  0  0
   27.3604  -18.2872   -7.2643 N   0  0  0  0  0  0  0  0  0  0  0  0
   28.0474  -18.9537   -6.3210 C   0  0  0  0  0  0  0  0  0  0  0  0
   28.8825  -18.4828   -5.3282 C   0  0  0  0  0  0  0  0  0  0  0  0
   29.4760  -19.3912   -4.4742 C   0  0  0  0  0  0  0  0  0  0  0  0
   29.2133  -20.7355   -4.6438 C   0  0  0  0  0  0  0  0  0  0  0  0
   28.3667  -21.1870   -5.6533 C   0  0  0  0  0  0  0  0  0  0  0  0
   27.7785  -20.2858   -6.4998 C   0  0  0  0  0  0  0  0  0  0  0  0
   24.7990  -20.5362   -9.6001 C   0  0  0  0  0  0  0  0  0  0  0  0
   24.9501  -19.2484  -10.0957 O   0  0  0  0  0  0  0  0  0  0  0  0
   23.6702  -20.8597   -9.1579 O   0  0  0  0  0  0  0  0  0  0  0  0
  2  1  1  1
  2  3  1  0
  3  4  1  0
  5  9  1  0
  5  4  1  0
  6  5  2  0
  7 10  1  0
  7  2  1  0
  8  7  2  0
 10 11  1  0
 11 12  1  0
 12 13  1  0
 14 15  1  1
 14 10  1  0
 14 13  1  0
 15 16  2  0
 17 18  1  0
 17 15  1  0
 18 29  1  0
 18 19  1  1
 20 19  1  0
 21 20  2  0
 22 21  1  0
 23 22  1  0
 23 28  2  0
 24 23  1  0
 25 24  2  0
 25 26  1  0
 26 27  2  0
 27 28  1  0
 28 20  1  0
 29 31  2  0
 29 30  1  0
M  END
$$$$
