EPW.pdb
     RDKit          3D

 31 33  0  0  1  0  0  0  0  0999 V2000
   25.1408  -18.3762  -18.4187 N   0  0  0  0  0  0  0  0  0  0  0  0
   25.1506  -18.4472  -16.9718 C   0  0  1  0  0  0  0  0  0  0  0  0
   23.7229  -18.3815  -16.5277 C   0  0  0  0  0  0  0  0  0  0  0  0
   23.4387  -17.0993  -15.8334 C   0  0  0  0  0  0  0  0  0  0  0  0
   21.9431  -16.8995  -15.8161 C   0  0  0  0  0  0  0  0  0  0  0  0
   21.1818  -17.6867  -16.4181 O   0  0  0  0  0  0  0  0  0  0  0  0
   25.9362  -19.5620  -16.4517 C   0  0  0  0  0  0  0  0  0  0  0  0
   25.8617  -20.7186  -16.9804 O   0  0  0  0  0  0  0  0  0  0  0  0
   21.4501  -15.8154  -15.1110 O   0  0  0  0  0  0  0  0  0  0  0  0
   26.8401  -19.4663  -15.3310 N   0  0  0  0  0  0  0  0  0  0  0  0
   26.9518  -18.2722  -14.5415 C   0  0  0  0  0  0  0  0  0  0  0  0
   28.0565  -18.5089  -13.5723 C   0  0  0  0  0  0  0  0  0  0  0  0
   28.8125  -19.6806  -14.1476 C   0  0  0  0  0  0  0  0  0  0  0  0
   27.7230  -20.4908  -14.8610 C   0  0  1  0  0  0  0  0  0  0  0  0
   27.1019  -21.3237  -13.7851 C   0  0  0  0  0  0  0  0  0  0  0  0
   27.7146  -22.3371  -13.3669 O   0  0  0  0  0  0  0  0  0  0  0  0
   25.8490  -21.0176  -13.2164 N   0  0  0  0  0  0  0  0  0  0  0  0
   24.9972  -21.9442  -12.5215 C   0  0  1  0  0  0  0  0  0  0  0  0
   25.6557  -22.4946  -11.2708 C   0  0  0  0  0  0  0  0  0  0  0  0
   25.9598  -21.4344  -10.2905 C   0  0  0  0  0  0  0  0  0  0  0  0
   25.0506  -20.4964   -9.8240 C   0  0  0  0  0  0  0  0  0  0  0  0
   25.6745  -19.6750   -8.9351 N   0  0  0  0  0  0  0  0  0  0  0  0
   26.9588  -20.0505   -8.8105 C   0  0  0  0  0  0  0  0  0  0  0  0
   27.9694  -19.5223   -8.0331 C   0  0  0  0  0  0  0  0  0  0  0  0
   29.2214  -20.1021   -8.0887 C   0  0  0  0  0  0  0  0  0  0  0  0
   29.4170  -21.1877   -8.9184 C   0  0  0  0  0  0  0  0  0  0  0  0
   28.3813  -21.7034   -9.6938 C   0  0  0  0  0  0  0  0  0  0  0  0
   27.1401  -21.1279   -9.6382 C   0  0  0  0  0  0  0  0  0  0  0  0
   23.7716  -21.2191  -12.0914 C   0  0  0  0  0  0  0  0  0  0  0  0
   23.6355  -19.8480  -12.2607 O   0  0  0  0  0  0  0  0  0  0  0  0
   22.8180  -21.8361  -11.5582 O   0  0  0  0  0  0  0  0  0  0  0  0
  2  1  1  6
  2  3  1  0
  3  4  1  0
  5  9  1  0
  5  4  1  0
  6  5  2  0
  7 10  1  0
  7  2  1  0
  8  7  2  0
 10 11  1  0
 11 12  1  0
 12 13  1  0
 14 15  1  1
 14 10  1  0
 14 13  1  0
 15 16  2  0
 17 18  1  0
 17 15  1  0
 18 29  1  0
 18 19  1  1
 20 19  1  0
 21 20  2  0
 22 21  1  0
 23 22  1  0
 23 28  2  0
 24 23  1  0
 25 24  2  0
 25 26  1  0
 26 27  2  0
 27 28  1  0
 28 20  1  0
 29 31  2  0
 29 30  1  0
M  END
$$$$
