EPW.pdb
     RDKit          3D

 31 33  0  0  1  0  0  0  0  0999 V2000
   26.1232  -22.3821  -16.9151 N   0  0  0  0  0  0  0  0  0  0  0  0
   26.4375  -21.2163  -16.1146 C   0  0  1  0  0  0  0  0  0  0  0  0
   25.3172  -20.2436  -16.3119 C   0  0  0  0  0  0  0  0  0  0  0  0
   24.1035  -20.6699  -15.5690 C   0  0  0  0  0  0  0  0  0  0  0  0
   23.0648  -19.5845  -15.7100 C   0  0  0  0  0  0  0  0  0  0  0  0
   23.0369  -18.8478  -16.7189 O   0  0  0  0  0  0  0  0  0  0  0  0
   26.7758  -21.5372  -14.7315 C   0  0  0  0  0  0  0  0  0  0  0  0
   26.4340  -22.6504  -14.2151 O   0  0  0  0  0  0  0  0  0  0  0  0
   22.1488  -19.4376  -14.6829 O   0  0  0  0  0  0  0  0  0  0  0  0
   27.5032  -20.6585  -13.8478 N   0  0  0  0  0  0  0  0  0  0  0  0
   27.9050  -19.3387  -14.2461 C   0  0  0  0  0  0  0  0  0  0  0  0
   28.7279  -18.7938  -13.1318 C   0  0  0  0  0  0  0  0  0  0  0  0
   29.1145  -20.0086  -12.3253 C   0  0  0  0  0  0  0  0  0  0  0  0
   27.9200  -20.9527  -12.5100 C   0  0  1  0  0  0  0  0  0  0  0  0
   26.9190  -20.5038  -11.4935 C   0  0  0  0  0  0  0  0  0  0  0  0
   26.1401  -19.5607  -11.7785 O   0  0  0  0  0  0  0  0  0  0  0  0
   26.8117  -21.0984  -10.2200 N   0  0  0  0  0  0  0  0  0  0  0  0
   25.5827  -21.4517   -9.5629 C   0  0  1  0  0  0  0  0  0  0  0  0
   25.7336  -21.4868   -8.0541 C   0  0  0  0  0  0  0  0  0  0  0  0
   26.5739  -20.3817   -7.5539 C   0  0  0  0  0  0  0  0  0  0  0  0
   26.5432  -19.0792   -8.0301 C   0  0  0  0  0  0  0  0  0  0  0  0
   27.4497  -18.3317   -7.3418 N   0  0  0  0  0  0  0  0  0  0  0  0
   28.0669  -19.1079   -6.4349 C   0  0  0  0  0  0  0  0  0  0  0  0
   29.0506  -18.7962   -5.5184 C   0  0  0  0  0  0  0  0  0  0  0  0
   29.5231  -19.7927   -4.6875 C   0  0  0  0  0  0  0  0  0  0  0  0
   28.9957  -21.0629   -4.8031 C   0  0  0  0  0  0  0  0  0  0  0  0
   28.0032  -21.3535   -5.7360 C   0  0  0  0  0  0  0  0  0  0  0  0
   27.5350  -20.3650   -6.5596 C   0  0  0  0  0  0  0  0  0  0  0  0
   24.5681  -20.4110   -9.8801 C   0  0  0  0  0  0  0  0  0  0  0  0
   24.7881  -19.4480  -10.8553 O   0  0  0  0  0  0  0  0  0  0  0  0
   23.4742  -20.3771   -9.2665 O   0  0  0  0  0  0  0  0  0  0  0  0
  2  1  1  6
  2  3  1  0
  3  4  1  0
  5  9  1  0
  5  4  1  0
  6  5  2  0
  7 10  1  0
  7  2  1  0
  8  7  2  0
 10 11  1  0
 11 12  1  0
 12 13  1  0
 14 15  1  1
 14 10  1  0
 14 13  1  0
 15 16  2  0
 17 18  1  0
 17 15  1  0
 18 29  1  0
 18 19  1  1
 20 19  1  0
 21 20  2  0
 22 21  1  0
 23 22  1  0
 23 28  2  0
 24 23  1  0
 25 24  2  0
 25 26  1  0
 26 27  2  0
 27 28  1  0
 28 20  1  0
 29 31  2  0
 29 30  1  0
M  END
$$$$
