EPW.pdb
     RDKit          3D

 31 33  0  0  1  0  0  0  0  0999 V2000
   26.2619  -20.1209  -18.1220 N   0  0  0  0  0  0  0  0  0  0  0  0
   26.4934  -19.3556  -16.9139 C   0  0  1  0  0  0  0  0  0  0  0  0
   25.5728  -18.1769  -16.9677 C   0  0  0  0  0  0  0  0  0  0  0  0
   26.3279  -16.9039  -16.8410 C   0  0  0  0  0  0  0  0  0  0  0  0
   26.3458  -16.2353  -18.1936 C   0  0  0  0  0  0  0  0  0  0  0  0
   25.2885  -15.8412  -18.7305 O   0  0  0  0  0  0  0  0  0  0  0  0
   26.4380  -20.1613  -15.6981 C   0  0  0  0  0  0  0  0  0  0  0  0
   25.4887  -20.9879  -15.5029 O   0  0  0  0  0  0  0  0  0  0  0  0
   27.5732  -16.0765  -18.8132 O   0  0  0  0  0  0  0  0  0  0  0  0
   27.4164  -20.1028  -14.6390 N   0  0  0  0  0  0  0  0  0  0  0  0
   28.5628  -19.2408  -14.7070 C   0  0  0  0  0  0  0  0  0  0  0  0
   29.3915  -19.5455  -13.5086 C   0  0  0  0  0  0  0  0  0  0  0  0
   28.8830  -20.8842  -13.0344 C   0  0  0  0  0  0  0  0  0  0  0  0
   27.3997  -20.8591  -13.4235 C   0  0  1  0  0  0  0  0  0  0  0  0
   26.7259  -20.1243  -12.3086 C   0  0  0  0  0  0  0  0  0  0  0  0
   26.8356  -18.8747  -12.2467 O   0  0  0  0  0  0  0  0  0  0  0  0
   25.9676  -20.7791  -11.3171 N   0  0  0  0  0  0  0  0  0  0  0  0
   25.3156  -20.1413  -10.2058 C   0  0  1  0  0  0  0  0  0  0  0  0
   24.1193  -19.3181  -10.6437 C   0  0  0  0  0  0  0  0  0  0  0  0
   23.2113  -20.0810  -11.5218 C   0  0  0  0  0  0  0  0  0  0  0  0
   22.4575  -21.1770  -11.1286 C   0  0  0  0  0  0  0  0  0  0  0  0
   21.7402  -21.6297  -12.1938 N   0  0  0  0  0  0  0  0  0  0  0  0
   22.0049  -20.8623  -13.2647 C   0  0  0  0  0  0  0  0  0  0  0  0
   21.5195  -20.9359  -14.5546 C   0  0  0  0  0  0  0  0  0  0  0  0
   21.9583  -20.0120  -15.4824 C   0  0  0  0  0  0  0  0  0  0  0  0
   22.8652  -19.0495  -15.0872 C   0  0  0  0  0  0  0  0  0  0  0  0
   23.3408  -18.9952  -13.7793 C   0  0  0  0  0  0  0  0  0  0  0  0
   22.9054  -19.9115  -12.8598 C   0  0  0  0  0  0  0  0  0  0  0  0
   24.8106  -21.2001   -9.2908 C   0  0  0  0  0  0  0  0  0  0  0  0
   24.2443  -20.8949   -8.0608 O   0  0  0  0  0  0  0  0  0  0  0  0
   24.8847  -22.4108   -9.6119 O   0  0  0  0  0  0  0  0  0  0  0  0
  2  1  1  6
  2  3  1  0
  3  4  1  0
  5  9  1  0
  5  4  1  0
  6  5  2  0
  7 10  1  0
  7  2  1  0
  8  7  2  0
 10 11  1  0
 11 12  1  0
 12 13  1  0
 14 15  1  1
 14 10  1  0
 14 13  1  0
 15 16  2  0
 17 18  1  0
 17 15  1  0
 18 29  1  0
 18 19  1  6
 20 19  1  0
 21 20  2  0
 22 21  1  0
 23 22  1  0
 23 28  2  0
 24 23  1  0
 25 24  2  0
 25 26  1  0
 26 27  2  0
 27 28  1  0
 28 20  1  0
 29 31  2  0
 29 30  1  0
M  END
$$$$
