EPW.pdb
     RDKit          3D

 31 33  0  0  1  0  0  0  0  0999 V2000
   26.8743  -36.1366   -8.6936 N   0  0  0  0  0  0  0  0  0  0  0  0
   27.6029  -35.2024   -7.8598 C   0  0  1  0  0  0  0  0  0  0  0  0
   26.6841  -34.0499   -7.6000 C   0  0  0  0  0  0  0  0  0  0  0  0
   26.4417  -33.2706   -8.8412 C   0  0  0  0  0  0  0  0  0  0  0  0
   25.4559  -32.1745   -8.5190 C   0  0  0  0  0  0  0  0  0  0  0  0
   25.0109  -32.0295   -7.3603 O   0  0  0  0  0  0  0  0  0  0  0  0
   28.2059  -35.8231   -6.6845 C   0  0  0  0  0  0  0  0  0  0  0  0
   27.5325  -36.6073   -5.9399 O   0  0  0  0  0  0  0  0  0  0  0  0
   25.0657  -31.3402   -9.5521 O   0  0  0  0  0  0  0  0  0  0  0  0
   29.5719  -35.6175   -6.2673 N   0  0  0  0  0  0  0  0  0  0  0  0
   30.5004  -34.8503   -7.0490 C   0  0  0  0  0  0  0  0  0  0  0  0
   31.8199  -34.9655   -6.3697 C   0  0  0  0  0  0  0  0  0  0  0  0
   31.6672  -36.1577   -5.4583 C   0  0  0  0  0  0  0  0  0  0  0  0
   30.1824  -36.1245   -5.0756 C   0  0  1  0  0  0  0  0  0  0  0  0
   30.1030  -35.1527   -3.9414 C   0  0  0  0  0  0  0  0  0  0  0  0
   30.8241  -34.1248   -3.9663 O   0  0  0  0  0  0  0  0  0  0  0  0
   29.2471  -35.3428   -2.8376 N   0  0  0  0  0  0  0  0  0  0  0  0
   28.9754  -34.3714   -1.8131 C   0  0  1  0  0  0  0  0  0  0  0  0
   28.1054  -33.2372   -2.3205 C   0  0  0  0  0  0  0  0  0  0  0  0
   26.7910  -33.7136   -2.7925 C   0  0  0  0  0  0  0  0  0  0  0  0
   25.9921  -34.6337   -2.1295 C   0  0  0  0  0  0  0  0  0  0  0  0
   24.8561  -34.8394   -2.8516 N   0  0  0  0  0  0  0  0  0  0  0  0
   24.8931  -34.0822   -3.9612 C   0  0  0  0  0  0  0  0  0  0  0  0
   23.9757  -33.9573   -4.9847 C   0  0  0  0  0  0  0  0  0  0  0  0
   24.2579  -33.0973   -6.0275 C   0  0  0  0  0  0  0  0  0  0  0  0
   25.4457  -32.3944   -6.0090 C   0  0  0  0  0  0  0  0  0  0  0  0
   26.3562  -32.5371   -4.9648 C   0  0  0  0  0  0  0  0  0  0  0  0
   26.0758  -33.3900   -3.9311 C   0  0  0  0  0  0  0  0  0  0  0  0
   28.2268  -35.0450   -0.7182 C   0  0  0  0  0  0  0  0  0  0  0  0
   27.8411  -36.3756   -0.8065 O   0  0  0  0  0  0  0  0  0  0  0  0
   27.9212  -34.4197    0.3258 O   0  0  0  0  0  0  0  0  0  0  0  0
  2  1  1  1
  2  3  1  0
  3  4  1  0
  5  9  1  0
  5  4  1  0
  6  5  2  0
  7 10  1  0
  7  2  1  0
  8  7  2  0
 10 11  1  0
 11 12  1  0
 12 13  1  0
 14 15  1  1
 14 10  1  0
 14 13  1  0
 15 16  2  0
 17 18  1  0
 17 15  1  0
 18 29  1  0
 18 19  1  6
 20 19  1  0
 21 20  2  0
 22 21  1  0
 23 22  1  0
 23 28  2  0
 24 23  1  0
 25 24  2  0
 25 26  1  0
 26 27  2  0
 27 28  1  0
 28 20  1  0
 29 31  2  0
 29 30  1  0
M  END
$$$$
