EPW.pdb
     RDKit          3D

 31 33  0  0  1  0  0  0  0  0999 V2000
   27.9654  -23.5674  -16.7325 N   0  0  0  0  0  0  0  0  0  0  0  0
   27.7501  -22.4822  -15.7972 C   0  0  1  0  0  0  0  0  0  0  0  0
   27.9810  -21.2108  -16.5522 C   0  0  0  0  0  0  0  0  0  0  0  0
   26.7916  -20.8498  -17.3657 C   0  0  0  0  0  0  0  0  0  0  0  0
   26.7278  -19.3450  -17.4567 C   0  0  0  0  0  0  0  0  0  0  0  0
   25.7418  -18.7151  -17.0178 O   0  0  0  0  0  0  0  0  0  0  0  0
   26.4855  -22.5819  -15.0751 C   0  0  0  0  0  0  0  0  0  0  0  0
   25.5075  -23.2419  -15.5552 O   0  0  0  0  0  0  0  0  0  0  0  0
   27.7988  -18.6929  -18.0427 O   0  0  0  0  0  0  0  0  0  0  0  0
   26.2297  -21.9665  -13.7952 N   0  0  0  0  0  0  0  0  0  0  0  0
   27.1997  -21.1328  -13.1427 C   0  0  0  0  0  0  0  0  0  0  0  0
   26.6330  -20.7899  -11.8097 C   0  0  0  0  0  0  0  0  0  0  0  0
   25.5406  -21.8080  -11.5960 C   0  0  0  0  0  0  0  0  0  0  0  0
   25.0348  -22.0899  -13.0162 C   0  0  1  0  0  0  0  0  0  0  0  0
   24.0593  -20.9918  -13.2981 C   0  0  0  0  0  0  0  0  0  0  0  0
   24.4713  -19.8064  -13.3466 O   0  0  0  0  0  0  0  0  0  0  0  0
   22.6871  -21.2323  -13.5132 N   0  0  0  0  0  0  0  0  0  0  0  0
   21.7181  -20.2480  -13.9119 C   0  0  1  0  0  0  0  0  0  0  0  0
   21.5640  -20.1789  -15.4194 C   0  0  0  0  0  0  0  0  0  0  0  0
   21.2344  -21.4927  -16.0049 C   0  0  0  0  0  0  0  0  0  0  0  0
   20.0102  -22.1339  -15.8844 C   0  0  0  0  0  0  0  0  0  0  0  0
   20.0630  -23.3228  -16.5461 N   0  0  0  0  0  0  0  0  0  0  0  0
   21.2820  -23.4727  -17.0916 C   0  0  0  0  0  0  0  0  0  0  0  0
   21.7987  -24.5065  -17.8460 C   0  0  0  0  0  0  0  0  0  0  0  0
   23.1021  -24.4148  -18.2927 C   0  0  0  0  0  0  0  0  0  0  0  0
   23.8403  -23.2942  -17.9694 C   0  0  0  0  0  0  0  0  0  0  0  0
   23.2969  -22.2635  -17.2065 C   0  0  0  0  0  0  0  0  0  0  0  0
   22.0045  -22.3550  -16.7638 C   0  0  0  0  0  0  0  0  0  0  0  0
   20.3969  -20.6401  -13.3516 C   0  0  0  0  0  0  0  0  0  0  0  0
   19.3071  -19.7807  -13.3777 O   0  0  0  0  0  0  0  0  0  0  0  0
   20.2324  -21.7715  -12.8348 O   0  0  0  0  0  0  0  0  0  0  0  0
  2  1  1  6
  2  3  1  0
  3  4  1  0
  5  9  1  0
  5  4  1  0
  6  5  2  0
  7 10  1  0
  7  2  1  0
  8  7  2  0
 10 11  1  0
 11 12  1  0
 12 13  1  0
 14 15  1  6
 14 10  1  0
 14 13  1  0
 15 16  2  0
 17 18  1  0
 17 15  1  0
 18 29  1  0
 18 19  1  6
 20 19  1  0
 21 20  2  0
 22 21  1  0
 23 22  1  0
 23 28  2  0
 24 23  1  0
 25 24  2  0
 25 26  1  0
 26 27  2  0
 27 28  1  0
 28 20  1  0
 29 31  2  0
 29 30  1  0
M  END
$$$$
