EPW.pdb
     RDKit          3D

 31 33  0  0  1  0  0  0  0  0999 V2000
   25.0308  -18.9870  -15.8429 N   0  0  0  0  0  0  0  0  0  0  0  0
   25.9657  -18.7021  -14.7736 C   0  0  1  0  0  0  0  0  0  0  0  0
   25.5443  -17.3997  -14.1686 C   0  0  0  0  0  0  0  0  0  0  0  0
   26.5056  -16.3187  -14.5063 C   0  0  0  0  0  0  0  0  0  0  0  0
   26.0613  -15.6874  -15.8028 C   0  0  0  0  0  0  0  0  0  0  0  0
   24.9401  -15.1447  -15.9032 O   0  0  0  0  0  0  0  0  0  0  0  0
   26.1427  -19.8156  -13.8467 C   0  0  0  0  0  0  0  0  0  0  0  0
   25.1643  -20.5690  -13.5338 O   0  0  0  0  0  0  0  0  0  0  0  0
   26.9399  -15.7329  -16.8712 O   0  0  0  0  0  0  0  0  0  0  0  0
   27.3956  -20.1591  -13.2186 N   0  0  0  0  0  0  0  0  0  0  0  0
   28.5663  -19.3388  -13.3540 C   0  0  0  0  0  0  0  0  0  0  0  0
   29.6744  -20.0706  -12.6814 C   0  0  0  0  0  0  0  0  0  0  0  0
   29.1694  -21.4873  -12.5658 C   0  0  0  0  0  0  0  0  0  0  0  0
   27.6535  -21.3127  -12.4108 C   0  0  1  0  0  0  0  0  0  0  0  0
   27.4484  -21.0413  -10.9543 C   0  0  0  0  0  0  0  0  0  0  0  0
   28.3997  -21.2341  -10.1573 O   0  0  0  0  0  0  0  0  0  0  0  0
   26.2241  -20.5750  -10.4343 N   0  0  0  0  0  0  0  0  0  0  0  0
   25.3836  -21.2855   -9.5092 C   0  0  1  0  0  0  0  0  0  0  0  0
   26.0958  -21.5781   -8.2024 C   0  0  0  0  0  0  0  0  0  0  0  0
   26.7217  -20.3713   -7.6283 C   0  0  0  0  0  0  0  0  0  0  0  0
   26.5997  -19.0891   -8.1433 C   0  0  0  0  0  0  0  0  0  0  0  0
   27.3080  -18.2265   -7.3634 N   0  0  0  0  0  0  0  0  0  0  0  0
   27.8851  -18.9084   -6.3594 C   0  0  0  0  0  0  0  0  0  0  0  0
   28.6906  -18.4657   -5.3300 C   0  0  0  0  0  0  0  0  0  0  0  0
   29.1622  -19.3851   -4.4140 C   0  0  0  0  0  0  0  0  0  0  0  0
   28.8117  -20.7120   -4.5605 C   0  0  0  0  0  0  0  0  0  0  0  0
   27.9971  -21.1352   -5.6080 C   0  0  0  0  0  0  0  0  0  0  0  0
   27.5298  -20.2230   -6.5159 C   0  0  0  0  0  0  0  0  0  0  0  0
   24.2115  -20.4270   -9.1896 C   0  0  0  0  0  0  0  0  0  0  0  0
   23.2179  -20.8421   -8.3136 O   0  0  0  0  0  0  0  0  0  0  0  0
   24.0899  -19.2918   -9.7101 O   0  0  0  0  0  0  0  0  0  0  0  0
  2  1  1  6
  2  3  1  0
  3  4  1  0
  5  9  1  0
  5  4  1  0
  6  5  2  0
  7 10  1  0
  7  2  1  0
  8  7  2  0
 10 11  1  0
 11 12  1  0
 12 13  1  0
 14 15  1  1
 14 10  1  0
 14 13  1  0
 15 16  2  0
 17 18  1  0
 17 15  1  0
 18 29  1  0
 18 19  1  1
 20 19  1  0
 21 20  2  0
 22 21  1  0
 23 22  1  0
 23 28  2  0
 24 23  1  0
 25 24  2  0
 25 26  1  0
 26 27  2  0
 27 28  1  0
 28 20  1  0
 29 31  2  0
 29 30  1  0
M  END
$$$$
