EPW.pdb
     RDKit          3D

 31 33  0  0  1  0  0  0  0  0999 V2000
   23.6196  -19.5859  -18.3035 N   0  0  0  0  0  0  0  0  0  0  0  0
   24.4024  -18.8955  -17.2989 C   0  0  1  0  0  0  0  0  0  0  0  0
   23.5040  -17.8690  -16.6832 C   0  0  0  0  0  0  0  0  0  0  0  0
   23.4311  -16.6488  -17.5273 C   0  0  0  0  0  0  0  0  0  0  0  0
   22.2934  -16.8236  -18.5030 C   0  0  0  0  0  0  0  0  0  0  0  0
   21.1281  -17.0310  -18.1021 O   0  0  0  0  0  0  0  0  0  0  0  0
   25.0806  -19.7967  -16.3725 C   0  0  0  0  0  0  0  0  0  0  0  0
   24.4957  -20.8351  -15.9226 O   0  0  0  0  0  0  0  0  0  0  0  0
   22.5897  -16.7458  -19.8527 O   0  0  0  0  0  0  0  0  0  0  0  0
   26.4288  -19.6071  -15.8944 N   0  0  0  0  0  0  0  0  0  0  0  0
   27.2515  -18.5198  -16.3447 C   0  0  0  0  0  0  0  0  0  0  0  0
   28.5938  -18.7257  -15.7352 C   0  0  0  0  0  0  0  0  0  0  0  0
   28.5899  -20.1714  -15.3046 C   0  0  0  0  0  0  0  0  0  0  0  0
   27.1206  -20.4330  -14.9514 C   0  0  1  0  0  0  0  0  0  0  0  0
   26.9720  -19.9370  -13.5483 C   0  0  0  0  0  0  0  0  0  0  0  0
   27.3401  -18.7686  -13.2714 O   0  0  0  0  0  0  0  0  0  0  0  0
   26.4325  -20.7306  -12.5158 N   0  0  0  0  0  0  0  0  0  0  0  0
   26.2919  -20.3325  -11.1416 C   0  0  1  0  0  0  0  0  0  0  0  0
   25.2568  -19.2371  -10.9694 C   0  0  0  0  0  0  0  0  0  0  0  0
   23.9448  -19.6201  -11.5257 C   0  0  0  0  0  0  0  0  0  0  0  0
   23.0276  -20.4531  -10.9019 C   0  0  0  0  0  0  0  0  0  0  0  0
   21.9332  -20.5882  -11.7008 N   0  0  0  0  0  0  0  0  0  0  0  0
   22.1116  -19.8694  -12.8221 C   0  0  0  0  0  0  0  0  0  0  0  0
   21.2832  -19.7015  -13.9132 C   0  0  0  0  0  0  0  0  0  0  0  0
   21.7091  -18.8980  -14.9523 C   0  0  0  0  0  0  0  0  0  0  0  0
   22.9463  -18.2925  -14.8628 C   0  0  0  0  0  0  0  0  0  0  0  0
   23.7649  -18.4770  -13.7512 C   0  0  0  0  0  0  0  0  0  0  0  0
   23.3420  -19.2739  -12.7212 C   0  0  0  0  0  0  0  0  0  0  0  0
   25.8227  -21.5086  -10.3607 C   0  0  0  0  0  0  0  0  0  0  0  0
   25.6057  -22.7432  -10.9569 O   0  0  0  0  0  0  0  0  0  0  0  0
   25.6087  -21.4131   -9.1280 O   0  0  0  0  0  0  0  0  0  0  0  0
  2  1  1  6
  2  3  1  0
  3  4  1  0
  5  9  1  0
  5  4  1  0
  6  5  2  0
  7 10  1  0
  7  2  1  0
  8  7  2  0
 10 11  1  0
 11 12  1  0
 12 13  1  0
 14 15  1  1
 14 10  1  0
 14 13  1  0
 15 16  2  0
 17 18  1  0
 17 15  1  0
 18 29  1  0
 18 19  1  6
 20 19  1  0
 21 20  2  0
 22 21  1  0
 23 22  1  0
 23 28  2  0
 24 23  1  0
 25 24  2  0
 25 26  1  0
 26 27  2  0
 27 28  1  0
 28 20  1  0
 29 31  2  0
 29 30  1  0
M  END
$$$$
