EPW.pdb
     RDKit          3D

 31 33  0  0  1  0  0  0  0  0999 V2000
   27.3203  -17.7975  -15.9202 N   0  0  0  0  0  0  0  0  0  0  0  0
   26.3848  -18.8503  -15.5810 C   0  0  1  0  0  0  0  0  0  0  0  0
   26.9358  -20.1177  -16.1555 C   0  0  0  0  0  0  0  0  0  0  0  0
   28.2856  -20.4091  -15.6077 C   0  0  0  0  0  0  0  0  0  0  0  0
   28.3434  -21.8776  -15.2658 C   0  0  0  0  0  0  0  0  0  0  0  0
   27.3531  -22.6189  -15.4428 O   0  0  0  0  0  0  0  0  0  0  0  0
   26.0381  -18.8829  -14.1636 C   0  0  0  0  0  0  0  0  0  0  0  0
   26.6494  -18.1466  -13.3228 O   0  0  0  0  0  0  0  0  0  0  0  0
   29.5304  -22.3689  -14.7507 O   0  0  0  0  0  0  0  0  0  0  0  0
   25.0078  -19.7199  -13.5978 N   0  0  0  0  0  0  0  0  0  0  0  0
   24.3016  -20.6943  -14.3812 C   0  0  0  0  0  0  0  0  0  0  0  0
   23.2480  -21.2634  -13.4970 C   0  0  0  0  0  0  0  0  0  0  0  0
   23.1291  -20.2676  -12.3703 C   0  0  0  0  0  0  0  0  0  0  0  0
   24.5502  -19.7055  -12.2413 C   0  0  1  0  0  0  0  0  0  0  0  0
   25.2760  -20.6968  -11.3884 C   0  0  0  0  0  0  0  0  0  0  0  0
   25.7485  -21.7310  -11.9217 O   0  0  0  0  0  0  0  0  0  0  0  0
   25.4536  -20.5186  -10.0014 N   0  0  0  0  0  0  0  0  0  0  0  0
   26.2001  -21.3899   -9.1352 C   0  0  1  0  0  0  0  0  0  0  0  0
   27.6376  -20.9344   -8.9712 C   0  0  0  0  0  0  0  0  0  0  0  0
   27.7996  -20.0037   -7.8377 C   0  0  0  0  0  0  0  0  0  0  0  0
   27.3110  -18.7061   -7.7963 C   0  0  0  0  0  0  0  0  0  0  0  0
   27.6461  -18.1416   -6.6034 N   0  0  0  0  0  0  0  0  0  0  0  0
   28.3362  -19.0316   -5.8702 C   0  0  0  0  0  0  0  0  0  0  0  0
   28.8795  -18.9140   -4.6070 C   0  0  0  0  0  0  0  0  0  0  0  0
   29.5526  -19.9940   -4.0710 C   0  0  0  0  0  0  0  0  0  0  0  0
   29.6578  -21.1508   -4.8166 C   0  0  0  0  0  0  0  0  0  0  0  0
   29.1010  -21.2458   -6.0896 C   0  0  0  0  0  0  0  0  0  0  0  0
   28.4337  -20.1745   -6.6206 C   0  0  0  0  0  0  0  0  0  0  0  0
   25.5715  -21.3584   -7.7872 C   0  0  0  0  0  0  0  0  0  0  0  0
   25.8994  -22.2830   -6.8053 O   0  0  0  0  0  0  0  0  0  0  0  0
   24.7183  -20.4842   -7.5003 O   0  0  0  0  0  0  0  0  0  0  0  0
  2  1  1  1
  2  3  1  0
  3  4  1  0
  5  9  1  0
  5  4  1  0
  6  5  2  0
  7 10  1  0
  7  2  1  0
  8  7  2  0
 10 11  1  0
 11 12  1  0
 12 13  1  0
 14 15  1  1
 14 10  1  0
 14 13  1  0
 15 16  2  0
 17 18  1  0
 17 15  1  0
 18 29  1  0
 18 19  1  1
 20 19  1  0
 21 20  2  0
 22 21  1  0
 23 22  1  0
 23 28  2  0
 24 23  1  0
 25 24  2  0
 25 26  1  0
 26 27  2  0
 27 28  1  0
 28 20  1  0
 29 31  2  0
 29 30  1  0
M  END
$$$$
