REI.pdb
     RDKit          3D

 29 28  0  0  1  0  0  0  0  0999 V2000
   19.2844  -16.7211  -18.0168 N   0  0  0  0  0  0  0  0  0  0  0  0
   18.9283  -17.8063  -18.8469 C   0  0  0  0  0  0  0  0  0  0  0  0
   18.5529  -17.6302  -20.0878 N   0  0  0  0  0  0  0  0  0  0  0  0
   18.9532  -19.1604  -18.3927 N   0  0  0  0  0  0  0  0  0  0  0  0
   19.9575  -19.5871  -17.4164 C   0  0  0  0  0  0  0  0  0  0  0  0
   20.9057  -20.5618  -18.0751 C   0  0  0  0  0  0  0  0  0  0  0  0
   21.9276  -21.0754  -17.1158 C   0  0  0  0  0  0  0  0  0  0  0  0
   22.8314  -20.0317  -16.5283 C   0  0  2  0  0  0  0  0  0  0  0  0
   23.3878  -19.1110  -17.4634 N   0  0  0  0  0  0  0  0  0  0  0  0
   23.8516  -20.6063  -15.6051 C   0  0  0  0  0  0  0  0  0  0  0  0
   23.4991  -21.4911  -14.8110 O   0  0  0  0  0  0  0  0  0  0  0  0
   18.3061  -18.3949  -20.7228 N   0  0  0  0  0  0  0  0  0  0  0  0
   25.1984  -20.1859  -15.5975 C   0  0  1  0  0  0  0  0  0  0  0  0
   26.1915  -20.6859  -14.6754 C   0  0  0  0  0  0  0  0  0  0  0  0
   27.6006  -20.4263  -15.1499 C   0  0  0  0  0  0  0  0  0  0  0  0
   27.8974  -21.2589  -16.4048 C   0  0  0  0  0  0  0  0  0  0  0  0
   28.2939  -20.2828  -17.4588 O   0  0  0  0  0  0  0  0  0  0  0  0
   28.3124  -19.0437  -17.2858 C   0  0  0  0  0  0  0  0  0  0  0  0
   26.0491  -20.1090  -13.3233 O   0  0  0  0  0  0  0  0  0  0  0  0
   25.9870  -18.8713  -13.1048 O   0  0  0  0  0  0  0  0  0  0  0  0
   28.6577  -20.8080  -18.6903 C   0  0  0  0  0  0  0  0  0  0  0  0
   21.7944  -19.2190  -10.4337 C   0  0  0  0  0  0  0  0  0  0  0  0
   23.1837  -19.6987  -10.0309 C   0  0  2  0  0  0  0  0  0  0  0  0
   23.9377  -20.1987  -11.2115 C   0  0  0  0  0  0  0  0  0  0  0  0
   23.1661  -21.3790  -11.8195 C   0  0  2  0  0  0  0  0  0  0  0  0
   25.3249  -20.6687  -10.9641 N   0  0  0  0  0  0  0  0  0  0  0  0
   25.9786  -20.9973  -12.2157 C   0  0  0  0  0  0  0  0  0  0  0  0
   25.4963  -21.7038   -9.9482 O   0  0  0  0  0  0  0  0  0  0  0  0
   25.2977  -21.5877   -8.7356 O   0  0  0  0  0  0  0  0  0  0  0  0
  1  2  1  0
  2  3  2  0
  4  2  1  0
  4  5  1  0
  6  5  1  0
  7  6  1  0
  8 10  1  0
  8  7  1  0
  8  9  1  6
 10 11  2  0
 12 13  1  0
 12 10  1  0
 13 14  1  6
 15 14  1  0
 16 20  1  0
 16 15  1  0
 17 16  2  0
 18 19  2  0
 18 13  1  0
 21 22  1  0
 22 23  1  0
 23 25  1  0
 23 24  1  6
 25 26  1  1
 25 27  1  0
 26 18  1  0
 27 29  1  0
 28 27  2  0
M  END
$$$$
