REI.pdb
     RDKit          3D

 29 28  0  0  1  0  0  0  0  0999 V2000
   22.9127  -35.6203  -16.6747 N   0  0  0  0  0  0  0  0  0  0  0  0
   23.9470  -35.1079  -15.8615 C   0  0  0  0  0  0  0  0  0  0  0  0
   24.7859  -35.8940  -15.2371 N   0  0  0  0  0  0  0  0  0  0  0  0
   24.1469  -33.7070  -15.6661 N   0  0  0  0  0  0  0  0  0  0  0  0
   23.0112  -32.7866  -15.7478 C   0  0  0  0  0  0  0  0  0  0  0  0
   23.4765  -31.3932  -15.3940 C   0  0  0  0  0  0  0  0  0  0  0  0
   24.5166  -30.8983  -16.3435 C   0  0  0  0  0  0  0  0  0  0  0  0
   23.9862  -30.2347  -17.5803 C   0  0  2  0  0  0  0  0  0  0  0  0
   24.9760  -29.7636  -18.4914 N   0  0  0  0  0  0  0  0  0  0  0  0
   22.9407  -29.2140  -17.2834 C   0  0  0  0  0  0  0  0  0  0  0  0
   23.2761  -28.1797  -16.6872 O   0  0  0  0  0  0  0  0  0  0  0  0
   25.5623  -35.5565  -14.6608 N   0  0  0  0  0  0  0  0  0  0  0  0
   21.5883  -29.3757  -17.6518 C   0  0  2  0  0  0  0  0  0  0  0  0
   20.5509  -28.4195  -17.3426 C   0  0  0  0  0  0  0  0  0  0  0  0
   19.5543  -28.2672  -18.4659 C   0  0  0  0  0  0  0  0  0  0  0  0
   18.5732  -27.1296  -18.1513 C   0  0  0  0  0  0  0  0  0  0  0  0
   17.6326  -27.0698  -19.3056 O   0  0  0  0  0  0  0  0  0  0  0  0
   17.9845  -26.7937  -20.4742 C   0  0  0  0  0  0  0  0  0  0  0  0
   19.8082  -28.7680  -16.1145 O   0  0  0  0  0  0  0  0  0  0  0  0
   19.5978  -29.9537  -15.7491 O   0  0  0  0  0  0  0  0  0  0  0  0
   16.2985  -27.3403  -19.0379 C   0  0  0  0  0  0  0  0  0  0  0  0
   21.1927  -27.1824  -11.3962 C   0  0  0  0  0  0  0  0  0  0  0  0
   20.5405  -27.9466  -12.5421 C   0  0  2  0  0  0  0  0  0  0  0  0
   19.2452  -27.3254  -12.9278 C   0  0  0  0  0  0  0  0  0  0  0  0
   18.2857  -27.4150  -11.7323 C   0  0  2  0  0  0  0  0  0  0  0  0
   18.5429  -27.9212  -14.0933 N   0  0  0  0  0  0  0  0  0  0  0  0
   19.3078  -27.7108  -15.3066 C   0  0  0  0  0  0  0  0  0  0  0  0
   17.1302  -27.5861  -14.2503 O   0  0  0  0  0  0  0  0  0  0  0  0
   16.6625  -26.6438  -14.8959 O   0  0  0  0  0  0  0  0  0  0  0  0
  1  2  1  0
  2  3  2  0
  4  2  1  0
  4  5  1  0
  6  5  1  0
  7  6  1  0
  8 10  1  0
  8  7  1  0
  8  9  1  1
 10 11  2  0
 12 13  1  0
 12 10  1  0
 13 14  1  6
 15 14  1  0
 16 20  1  0
 16 15  1  0
 17 16  2  0
 18 19  2  0
 18 13  1  0
 21 22  1  0
 22 23  1  0
 23 25  1  0
 23 24  1  6
 25 26  1  1
 25 27  1  0
 26 18  1  0
 27 29  1  0
 28 27  2  0
M  END
$$$$
