REI.pdb
     RDKit          3D

 29 28  0  0  1  0  0  0  0  0999 V2000
   31.3973  -22.9874  -17.9554 N   0  0  0  0  0  0  0  0  0  0  0  0
   30.4799  -23.5506  -17.0417 C   0  0  0  0  0  0  0  0  0  0  0  0
   30.8665  -24.3544  -16.0845 N   0  0  0  0  0  0  0  0  0  0  0  0
   29.0778  -23.2837  -17.0991 N   0  0  0  0  0  0  0  0  0  0  0  0
   28.5620  -22.2722  -18.0234 C   0  0  0  0  0  0  0  0  0  0  0  0
   28.9739  -20.9018  -17.5380 C   0  0  0  0  0  0  0  0  0  0  0  0
   27.7936  -20.0171  -17.3084 C   0  0  0  0  0  0  0  0  0  0  0  0
   26.4646  -20.7134  -17.3146 C   0  0  2  0  0  0  0  0  0  0  0  0
   25.8105  -20.7670  -18.5799 N   0  0  0  0  0  0  0  0  0  0  0  0
   25.5663  -20.2506  -16.2182 C   0  0  0  0  0  0  0  0  0  0  0  0
   26.0643  -20.0055  -15.1093 O   0  0  0  0  0  0  0  0  0  0  0  0
   30.2381  -24.7351  -15.3711 N   0  0  0  0  0  0  0  0  0  0  0  0
   24.1762  -20.0804  -16.3896 C   0  0  2  0  0  0  0  0  0  0  0  0
   23.3039  -19.5244  -15.3814 C   0  0  0  0  0  0  0  0  0  0  0  0
   21.9316  -19.2025  -15.9210 C   0  0  0  0  0  0  0  0  0  0  0  0
   21.0949  -18.4929  -14.8475 C   0  0  0  0  0  0  0  0  0  0  0  0
   19.7783  -18.2011  -15.4819 O   0  0  0  0  0  0  0  0  0  0  0  0
   19.4617  -18.5822  -16.6308 C   0  0  0  0  0  0  0  0  0  0  0  0
   23.1412  -20.4197  -14.2181 O   0  0  0  0  0  0  0  0  0  0  0  0
   22.8540  -21.6405  -14.3226 O   0  0  0  0  0  0  0  0  0  0  0  0
   18.8742  -17.4635  -14.7315 C   0  0  0  0  0  0  0  0  0  0  0  0
   26.7976  -20.6515  -10.4238 C   0  0  0  0  0  0  0  0  0  0  0  0
   25.6461  -20.9837  -11.3653 C   0  0  2  0  0  0  0  0  0  0  0  0
   24.3549  -20.4786  -10.8268 C   0  0  0  0  0  0  0  0  0  0  0  0
   24.0536  -21.2130   -9.5123 C   0  0  2  0  0  0  0  0  0  0  0  0
   23.1623  -20.6409  -11.6974 N   0  0  0  0  0  0  0  0  0  0  0  0
   23.3185  -19.8739  -12.9176 C   0  0  0  0  0  0  0  0  0  0  0  0
   21.8588  -20.4442  -11.0691 O   0  0  0  0  0  0  0  0  0  0  0  0
   21.1874  -19.4085  -11.0708 O   0  0  0  0  0  0  0  0  0  0  0  0
  1  2  1  0
  2  3  2  0
  4  2  1  0
  4  5  1  0
  6  5  1  0
  7  6  1  0
  8 10  1  0
  8  7  1  0
  8  9  1  6
 10 11  2  0
 12 13  1  0
 12 10  1  0
 13 14  1  6
 15 14  1  0
 16 20  1  0
 16 15  1  0
 17 16  2  0
 18 19  2  0
 18 13  1  0
 21 22  1  0
 22 23  1  0
 23 25  1  0
 23 24  1  6
 25 26  1  6
 25 27  1  0
 26 18  1  0
 27 29  1  0
 28 27  2  0
M  END
$$$$
