REI.pdb
     RDKit          3D

 29 28  0  0  1  0  0  0  0  0999 V2000
   19.1451  -10.9019    7.4988 N   0  0  0  0  0  0  0  0  0  0  0  0
   20.3162  -11.2358    6.7841 C   0  0  0  0  0  0  0  0  0  0  0  0
   21.4184  -10.5416    6.9048 N   0  0  0  0  0  0  0  0  0  0  0  0
   20.3773  -12.3458    5.8870 N   0  0  0  0  0  0  0  0  0  0  0  0
   19.2256  -12.6699    5.0430 C   0  0  0  0  0  0  0  0  0  0  0  0
   18.1810  -13.3720    5.8790 C   0  0  0  0  0  0  0  0  0  0  0  0
   17.0468  -13.8697    5.0458 C   0  0  0  0  0  0  0  0  0  0  0  0
   16.0199  -14.6769    5.7842 C   0  0  2  0  0  0  0  0  0  0  0  0
   15.1205  -13.9244    6.5946 N   0  0  0  0  0  0  0  0  0  0  0  0
   16.6108  -15.8415    6.5039 C   0  0  0  0  0  0  0  0  0  0  0  0
   17.0665  -15.6635    7.6433 O   0  0  0  0  0  0  0  0  0  0  0  0
   22.3021  -10.7914    6.4515 N   0  0  0  0  0  0  0  0  0  0  0  0
   16.6728  -17.1348    5.9433 C   0  0  2  0  0  0  0  0  0  0  0  0
   17.2117  -18.2845    6.6319 C   0  0  0  0  0  0  0  0  0  0  0  0
   16.8078  -19.5861    5.9833 C   0  0  0  0  0  0  0  0  0  0  0  0
   17.1845  -20.7669    6.8886 C   0  0  0  0  0  0  0  0  0  0  0  0
   16.7525  -21.9939    6.1615 O   0  0  0  0  0  0  0  0  0  0  0  0
   16.3230  -21.9892    4.9863 C   0  0  0  0  0  0  0  0  0  0  0  0
   18.6858  -18.2527    6.7177 O   0  0  0  0  0  0  0  0  0  0  0  0
   19.4213  -17.8252    5.7904 O   0  0  0  0  0  0  0  0  0  0  0  0
   16.8434  -23.1932    6.8528 C   0  0  0  0  0  0  0  0  0  0  0  0
   23.0156  -15.9932    9.5125 C   0  0  0  0  0  0  0  0  0  0  0  0
   22.6705  -17.3660    8.9477 C   0  0  2  0  0  0  0  0  0  0  0  0
   21.2042  -17.5030    8.7390 C   0  0  0  0  0  0  0  0  0  0  0  0
   20.5051  -17.3980   10.1022 C   0  0  2  0  0  0  0  0  0  0  0  0
   20.7373  -18.7641    8.1081 N   0  0  0  0  0  0  0  0  0  0  0  0
   19.3021  -18.7283    7.9072 C   0  0  0  0  0  0  0  0  0  0  0  0
   21.1917  -20.0109    8.7179 O   0  0  0  0  0  0  0  0  0  0  0  0
   20.5136  -20.7947    9.3883 O   0  0  0  0  0  0  0  0  0  0  0  0
  1  2  1  0
  2  3  2  0
  4  2  1  0
  4  5  1  0
  6  5  1  0
  7  6  1  0
  8 10  1  0
  8  7  1  0
  8  9  1  1
 10 11  2  0
 12 13  1  0
 12 10  1  0
 13 14  1  6
 15 14  1  0
 16 20  1  0
 16 15  1  0
 17 16  2  0
 18 19  2  0
 18 13  1  0
 21 22  1  0
 22 23  1  0
 23 25  1  0
 23 24  1  6
 25 26  1  1
 25 27  1  0
 26 18  1  0
 27 29  1  0
 28 27  2  0
M  END
$$$$
