REI.pdb
     RDKit          3D

 29 28  0  0  1  0  0  0  0  0999 V2000
   19.1018  -20.2662  -10.4002 N   0  0  0  0  0  0  0  0  0  0  0  0
   18.0702  -21.0365  -10.9801 C   0  0  0  0  0  0  0  0  0  0  0  0
   17.3030  -20.5595  -11.9264 N   0  0  0  0  0  0  0  0  0  0  0  0
   17.7955  -22.3789  -10.5765 N   0  0  0  0  0  0  0  0  0  0  0  0
   18.5954  -23.0050   -9.5220 C   0  0  0  0  0  0  0  0  0  0  0  0
   18.0999  -24.4143   -9.2953 C   0  0  0  0  0  0  0  0  0  0  0  0
   17.2309  -24.5085   -8.0851 C   0  0  0  0  0  0  0  0  0  0  0  0
   16.6517  -25.8671   -7.8208 C   0  0  2  0  0  0  0  0  0  0  0  0
   15.8338  -26.3942   -8.8624 N   0  0  0  0  0  0  0  0  0  0  0  0
   16.0146  -25.9704   -6.4767 C   0  0  0  0  0  0  0  0  0  0  0  0
   14.8682  -25.5212   -6.3293 O   0  0  0  0  0  0  0  0  0  0  0  0
   16.5676  -21.1001  -12.3909 N   0  0  0  0  0  0  0  0  0  0  0  0
   16.6607  -26.5567   -5.3677 C   0  0  2  0  0  0  0  0  0  0  0  0
   16.0922  -26.6086   -4.0409 C   0  0  0  0  0  0  0  0  0  0  0  0
   16.7909  -27.6097   -3.1536 C   0  0  0  0  0  0  0  0  0  0  0  0
   16.0041  -27.7994   -1.8493 C   0  0  0  0  0  0  0  0  0  0  0  0
   16.7693  -28.7991   -1.0518 O   0  0  0  0  0  0  0  0  0  0  0  0
   17.8378  -29.3237   -1.4375 C   0  0  0  0  0  0  0  0  0  0  0  0
   16.1189  -25.2969   -3.3625 O   0  0  0  0  0  0  0  0  0  0  0  0
   17.0441  -24.4585   -3.5191 O   0  0  0  0  0  0  0  0  0  0  0  0
   16.2419  -29.1475    0.1831 C   0  0  0  0  0  0  0  0  0  0  0  0
   11.9053  -21.2787   -1.8533 C   0  0  0  0  0  0  0  0  0  0  0  0
   13.2855  -21.7869   -1.4541 C   0  0  2  0  0  0  0  0  0  0  0  0
   13.5850  -23.0873   -2.1111 C   0  0  0  0  0  0  0  0  0  0  0  0
   12.5304  -24.1120   -1.6687 C   0  0  2  0  0  0  0  0  0  0  0  0
   14.9154  -23.6844   -1.8281 N   0  0  0  0  0  0  0  0  0  0  0  0
   15.0456  -24.9671   -2.4907 C   0  0  0  0  0  0  0  0  0  0  0  0
   15.3324  -23.7260   -0.4291 O   0  0  0  0  0  0  0  0  0  0  0  0
   15.5842  -22.7587    0.2951 O   0  0  0  0  0  0  0  0  0  0  0  0
  1  2  1  0
  2  3  2  0
  4  2  1  0
  4  5  1  0
  6  5  1  0
  7  6  1  0
  8 10  1  0
  8  7  1  0
  8  9  1  6
 10 11  2  0
 12 13  1  0
 12 10  1  0
 13 14  1  6
 15 14  1  0
 16 20  1  0
 16 15  1  0
 17 16  2  0
 18 19  2  0
 18 13  1  0
 21 22  1  0
 22 23  1  0
 23 25  1  0
 23 24  1  6
 25 26  1  1
 25 27  1  0
 26 18  1  0
 27 29  1  0
 28 27  2  0
M  END
$$$$
