REI.pdb
     RDKit          3D

 29 28  0  0  1  0  0  0  0  0999 V2000
   29.3115  -21.4954  -17.5969 N   0  0  0  0  0  0  0  0  0  0  0  0
   28.7602  -20.7821  -18.6835 C   0  0  0  0  0  0  0  0  0  0  0  0
   28.0800  -21.3814  -19.6269 N   0  0  0  0  0  0  0  0  0  0  0  0
   28.9059  -19.3683  -18.8266 N   0  0  0  0  0  0  0  0  0  0  0  0
   29.2092  -18.5412  -17.6571 C   0  0  0  0  0  0  0  0  0  0  0  0
   27.9604  -18.3908  -16.8197 C   0  0  0  0  0  0  0  0  0  0  0  0
   28.2506  -18.5286  -15.3619 C   0  0  0  0  0  0  0  0  0  0  0  0
   27.7725  -19.8052  -14.7350 C   0  0  2  0  0  0  0  0  0  0  0  0
   27.2487  -20.7712  -15.6429 N   0  0  0  0  0  0  0  0  0  0  0  0
   26.8834  -19.5730  -13.5608 C   0  0  0  0  0  0  0  0  0  0  0  0
   26.5349  -18.4112  -13.3033 O   0  0  0  0  0  0  0  0  0  0  0  0
   27.7699  -20.9201  -20.4870 N   0  0  0  0  0  0  0  0  0  0  0  0
   26.4231  -20.6182  -12.7322 C   0  0  1  0  0  0  0  0  0  0  0  0
   25.6056  -20.4135  -11.5591 C   0  0  0  0  0  0  0  0  0  0  0  0
   24.1687  -20.8189  -11.7805 C   0  0  0  0  0  0  0  0  0  0  0  0
   23.8101  -20.7027  -13.2683 C   0  0  0  0  0  0  0  0  0  0  0  0
   22.3558  -21.0141  -13.3640 O   0  0  0  0  0  0  0  0  0  0  0  0
   21.6489  -21.3363  -12.3832 C   0  0  0  0  0  0  0  0  0  0  0  0
   26.1129  -21.1463  -10.3814 O   0  0  0  0  0  0  0  0  0  0  0  0
   27.2099  -21.7628  -10.3729 O   0  0  0  0  0  0  0  0  0  0  0  0
   21.7823  -20.9335  -14.6247 C   0  0  0  0  0  0  0  0  0  0  0  0
   29.2268  -21.1252   -6.7001 C   0  0  0  0  0  0  0  0  0  0  0  0
   27.8073  -20.6581   -6.4011 C   0  0  2  0  0  0  0  0  0  0  0  0
   27.0373  -20.4556   -7.6575 C   0  0  0  0  0  0  0  0  0  0  0  0
   26.5138  -19.0122   -7.6819 C   0  0  2  0  0  0  0  0  0  0  0  0
   25.8669  -21.3451   -7.8708 N   0  0  0  0  0  0  0  0  0  0  0  0
   25.3218  -21.1540   -9.2003 C   0  0  0  0  0  0  0  0  0  0  0  0
   24.8399  -21.3395   -6.8325 O   0  0  0  0  0  0  0  0  0  0  0  0
   23.8123  -20.6560   -6.8146 O   0  0  0  0  0  0  0  0  0  0  0  0
  1  2  1  0
  2  3  2  0
  4  2  1  0
  4  5  1  0
  6  5  1  0
  7  6  1  0
  8 10  1  0
  8  7  1  0
  8  9  1  6
 10 11  2  0
 12 13  1  0
 12 10  1  0
 13 14  1  6
 15 14  1  0
 16 20  1  0
 16 15  1  0
 17 16  2  0
 18 19  2  0
 18 13  1  0
 21 22  1  0
 22 23  1  0
 23 25  1  0
 23 24  1  6
 25 26  1  1
 25 27  1  0
 26 18  1  0
 27 29  1  0
 28 27  2  0
M  END
$$$$
