REI.pdb
     RDKit          3D

 29 28  0  0  1  0  0  0  0  0999 V2000
   12.1099  -19.1467   -3.9030 N   0  0  0  0  0  0  0  0  0  0  0  0
   11.4776  -19.4176   -5.1361 C   0  0  0  0  0  0  0  0  0  0  0  0
   10.2370  -19.0710   -5.3649 N   0  0  0  0  0  0  0  0  0  0  0  0
   12.1438  -20.0834   -6.2100 N   0  0  0  0  0  0  0  0  0  0  0  0
   13.1372  -21.1206   -5.9250 C   0  0  0  0  0  0  0  0  0  0  0  0
   12.4799  -22.2344   -5.1435 C   0  0  0  0  0  0  0  0  0  0  0  0
   13.4423  -23.3296   -4.8231 C   0  0  0  0  0  0  0  0  0  0  0  0
   13.7347  -24.2718   -5.9536 C   0  0  2  0  0  0  0  0  0  0  0  0
   12.5901  -24.8410   -6.5842 N   0  0  0  0  0  0  0  0  0  0  0  0
   14.7680  -25.2883   -5.6041 C   0  0  0  0  0  0  0  0  0  0  0  0
   14.4485  -26.2230   -4.8545 O   0  0  0  0  0  0  0  0  0  0  0  0
    9.7297  -19.3022   -6.2240 N   0  0  0  0  0  0  0  0  0  0  0  0
   16.0915  -25.2310   -6.0898 C   0  0  2  0  0  0  0  0  0  0  0  0
   17.0952  -26.2309   -5.8086 C   0  0  0  0  0  0  0  0  0  0  0  0
   18.2230  -26.2130   -6.8114 C   0  0  0  0  0  0  0  0  0  0  0  0
   17.6827  -26.4984   -8.2195 C   0  0  0  0  0  0  0  0  0  0  0  0
   18.8567  -26.4114   -9.1334 O   0  0  0  0  0  0  0  0  0  0  0  0
   19.8867  -27.1108   -9.0088 C   0  0  0  0  0  0  0  0  0  0  0  0
   17.6782  -26.0833   -4.4597 O   0  0  0  0  0  0  0  0  0  0  0  0
   18.1120  -24.9902   -4.0119 O   0  0  0  0  0  0  0  0  0  0  0  0
   18.7728  -25.4943  -10.1709 C   0  0  0  0  0  0  0  0  0  0  0  0
   16.0347  -27.0861    0.9441 C   0  0  0  0  0  0  0  0  0  0  0  0
   17.3162  -27.1969    0.1267 C   0  0  2  0  0  0  0  0  0  0  0  0
   17.0208  -27.1869   -1.3310 C   0  0  0  0  0  0  0  0  0  0  0  0
   16.1769  -28.4251   -1.6666 C   0  0  2  0  0  0  0  0  0  0  0  0
   18.1905  -27.1981   -2.2465 N   0  0  0  0  0  0  0  0  0  0  0  0
   17.7517  -27.2336   -3.6277 C   0  0  0  0  0  0  0  0  0  0  0  0
   19.2386  -28.1744   -1.9611 O   0  0  0  0  0  0  0  0  0  0  0  0
   19.9541  -28.2165   -0.9563 O   0  0  0  0  0  0  0  0  0  0  0  0
  1  2  1  0
  2  3  2  0
  4  2  1  0
  4  5  1  0
  6  5  1  0
  7  6  1  0
  8 10  1  0
  8  7  1  0
  8  9  1  1
 10 11  2  0
 12 13  1  0
 12 10  1  0
 13 14  1  6
 15 14  1  0
 16 20  1  0
 16 15  1  0
 17 16  2  0
 18 19  2  0
 18 13  1  0
 21 22  1  0
 22 23  1  0
 23 25  1  0
 23 24  1  6
 25 26  1  1
 25 27  1  0
 26 18  1  0
 27 29  1  0
 28 27  2  0
M  END
$$$$
