HND.pdb
     RDKit          3D

 27 27  0  0  1  0  0  0  0  0999 V2000
   17.0134  -12.1011  -16.3075 N   0  0  0  0  0  0  0  0  0  0  0  0
   17.0613  -10.6886  -16.5215 C   0  0  1  0  0  0  0  0  0  0  0  0
   15.8205   -9.9390  -16.1702 C   0  0  0  0  0  0  0  0  0  0  0  0
   14.6525  -10.3324  -17.0013 C   0  0  0  0  0  0  0  0  0  0  0  0
   14.6553  -10.2056  -18.3758 C   0  0  0  0  0  0  0  0  0  0  0  0
   13.4638  -10.6415  -18.8466 N   0  0  0  0  0  0  0  0  0  0  0  0
   12.7494  -11.0258  -17.7800 C   0  0  0  0  0  0  0  0  0  0  0  0
   13.4699  -10.8376  -16.6696 N   0  0  0  0  0  0  0  0  0  0  0  0
   18.1672  -10.1461  -15.6561 C   0  0  0  0  0  0  0  0  0  0  0  0
   18.1693  -10.3715  -14.4159 O   0  0  0  0  0  0  0  0  0  0  0  0
   23.8788   -8.6799  -14.9981 N   0  0  0  0  0  0  0  0  0  0  0  0
   22.5397   -8.9948  -14.5726 C   0  0  0  0  0  0  0  0  0  0  0  0
   22.3252   -8.7486  -13.3453 O   0  0  0  0  0  0  0  0  0  0  0  0
   21.5326   -9.5481  -15.4896 C   0  0  0  0  0  0  0  0  0  0  0  0
   20.2353   -8.8266  -15.3159 C   0  0  2  0  0  0  0  0  0  0  0  0
   19.2274   -9.3761  -16.1930 N   0  0  0  0  0  0  0  0  0  0  0  0
   20.3945   -7.3471  -15.5756 C   0  0  0  0  0  0  0  0  0  0  0  0
   20.4341   -6.9289  -16.7603 O   0  0  0  0  0  0  0  0  0  0  0  0
   20.5015   -6.4103  -14.5129 N   0  0  0  0  0  0  0  0  0  0  0  0
   20.6819   -5.0175  -14.7636 C   0  0  1  0  0  0  0  0  0  0  0  0
   19.5210   -4.1649  -14.3161 C   0  0  0  0  0  0  0  0  0  0  0  0
   19.6705   -2.7393  -14.6989 C   0  0  0  0  0  0  0  0  0  0  0  0
   20.6636   -2.3529  -15.3444 O   0  0  0  0  0  0  0  0  0  0  0  0
   21.9703   -4.4932  -14.2539 C   0  0  0  0  0  0  0  0  0  0  0  0
   22.8273   -3.8063  -15.1023 O   0  0  0  0  0  0  0  0  0  0  0  0
   18.7208   -1.7887  -14.3576 O   0  0  0  0  0  0  0  0  0  0  0  0
   22.3634   -4.6278  -13.0618 O   0  0  0  0  0  0  0  0  0  0  0  0
  2  1  1  1
  2  9  1  0
  3  4  1  0
  3  2  1  0
  4  5  2  0
  4  8  1  0
  5  6  1  0
  6  7  1  0
  8  7  2  0
  9 10  2  0
 11 12  1  0
 12 14  1  0
 13 12  2  0
 15 14  1  6
 15 17  1  0
 16  9  1  0
 16 15  1  0
 17 19  1  0
 17 18  2  0
 19 20  1  0
 20 24  1  0
 20 21  1  1
 22 21  1  0
 23 22  2  0
 24 25  1  0
 26 22  1  0
 27 24  2  0
M  END
$$$$
