HND.pdb
     RDKit          3D

 27 27  0  0  1  0  0  0  0  0999 V2000
   22.2814  -15.2639  -17.3005 N   0  0  0  0  0  0  0  0  0  0  0  0
   22.0516  -14.0505  -18.0203 C   0  0  1  0  0  0  0  0  0  0  0  0
   20.6261  -13.7468  -18.3375 C   0  0  0  0  0  0  0  0  0  0  0  0
   20.0111  -14.7468  -19.2494 C   0  0  0  0  0  0  0  0  0  0  0  0
   19.4575  -15.9218  -18.7821 C   0  0  0  0  0  0  0  0  0  0  0  0
   18.9821  -16.6193  -19.8396 N   0  0  0  0  0  0  0  0  0  0  0  0
   19.2413  -15.8840  -20.9295 C   0  0  0  0  0  0  0  0  0  0  0  0
   19.8618  -14.7560  -20.5690 N   0  0  0  0  0  0  0  0  0  0  0  0
   22.5655  -12.9233  -17.1650 C   0  0  0  0  0  0  0  0  0  0  0  0
   22.2083  -12.8291  -15.9598 O   0  0  0  0  0  0  0  0  0  0  0  0
   25.5558  -10.2916  -14.6744 N   0  0  0  0  0  0  0  0  0  0  0  0
   26.0890  -10.1476  -16.0043 C   0  0  0  0  0  0  0  0  0  0  0  0
   27.2887   -9.7317  -16.0286 O   0  0  0  0  0  0  0  0  0  0  0  0
   25.3009  -10.4586  -17.2057 C   0  0  0  0  0  0  0  0  0  0  0  0
   23.9217  -10.8808  -16.8144 C   0  0  2  0  0  0  0  0  0  0  0  0
   23.4534  -11.9441  -17.6730 N   0  0  0  0  0  0  0  0  0  0  0  0
   22.9601   -9.7168  -16.8628 C   0  0  0  0  0  0  0  0  0  0  0  0
   22.5840   -9.2726  -17.9769 O   0  0  0  0  0  0  0  0  0  0  0  0
   22.4666   -9.1068  -15.6784 N   0  0  0  0  0  0  0  0  0  0  0  0
   21.5729   -7.9960  -15.7298 C   0  0  1  0  0  0  0  0  0  0  0  0
   20.3229   -8.1840  -14.9070 C   0  0  0  0  0  0  0  0  0  0  0  0
   19.4362   -6.9946  -14.9244 C   0  0  0  0  0  0  0  0  0  0  0  0
   19.3712   -6.2620  -15.9299 O   0  0  0  0  0  0  0  0  0  0  0  0
   22.2302   -6.7019  -15.4331 C   0  0  0  0  0  0  0  0  0  0  0  0
   21.5420   -5.5117  -15.6219 O   0  0  0  0  0  0  0  0  0  0  0  0
   18.6517   -6.6535  -13.8333 O   0  0  0  0  0  0  0  0  0  0  0  0
   23.4130   -6.5944  -15.0050 O   0  0  0  0  0  0  0  0  0  0  0  0
  2  1  1  1
  2  9  1  0
  3  4  1  0
  3  2  1  0
  4  5  2  0
  4  8  1  0
  5  6  1  0
  6  7  1  0
  8  7  2  0
  9 10  2  0
 11 12  1  0
 12 14  1  0
 13 12  2  0
 15 14  1  6
 15 17  1  0
 16  9  1  0
 16 15  1  0
 17 19  1  0
 17 18  2  0
 19 20  1  0
 20 24  1  0
 20 21  1  1
 22 21  1  0
 23 22  2  0
 24 25  1  0
 26 22  1  0
 27 24  2  0
M  END
$$$$
