HND.pdb
     RDKit          3D

 27 27  0  0  1  0  0  0  0  0999 V2000
   22.4115  -11.5026  -20.5467 N   0  0  0  0  0  0  0  0  0  0  0  0
   22.6506  -11.9283  -19.2032 C   0  0  1  0  0  0  0  0  0  0  0  0
   23.7460  -12.9251  -19.0261 C   0  0  0  0  0  0  0  0  0  0  0  0
   23.4464  -14.2331  -19.6656 C   0  0  0  0  0  0  0  0  0  0  0  0
   22.1925  -14.5394  -20.1550 C   0  0  0  0  0  0  0  0  0  0  0  0
   22.2305  -15.7889  -20.6730 N   0  0  0  0  0  0  0  0  0  0  0  0
   23.4825  -16.2350  -20.5022 C   0  0  0  0  0  0  0  0  0  0  0  0
   24.2121  -15.2939  -19.8944 N   0  0  0  0  0  0  0  0  0  0  0  0
   23.0312  -10.7057  -18.4117 C   0  0  0  0  0  0  0  0  0  0  0  0
   23.3521  -10.8119  -17.1973 O   0  0  0  0  0  0  0  0  0  0  0  0
   26.0242   -8.8744  -18.8293 N   0  0  0  0  0  0  0  0  0  0  0  0
   25.4585   -7.6538  -19.3427 C   0  0  0  0  0  0  0  0  0  0  0  0
   26.2575   -6.9918  -20.0750 O   0  0  0  0  0  0  0  0  0  0  0  0
   24.0837   -7.2335  -19.0351 C   0  0  0  0  0  0  0  0  0  0  0  0
   23.4120   -8.2684  -18.1916 C   0  0  2  0  0  0  0  0  0  0  0  0
   23.0427   -9.4136  -18.9911 N   0  0  0  0  0  0  0  0  0  0  0  0
   22.1914   -7.7038  -17.5038 C   0  0  0  0  0  0  0  0  0  0  0  0
   21.1336   -7.5368  -18.1620 O   0  0  0  0  0  0  0  0  0  0  0  0
   22.2056   -7.3542  -16.1268 N   0  0  0  0  0  0  0  0  0  0  0  0
   21.0559   -6.8030  -15.4867 C   0  0  1  0  0  0  0  0  0  0  0  0
   20.1536   -7.8382  -14.8631 C   0  0  0  0  0  0  0  0  0  0  0  0
   18.9524   -7.2469  -14.2237 C   0  0  0  0  0  0  0  0  0  0  0  0
   18.3441   -6.3014  -14.7604 O   0  0  0  0  0  0  0  0  0  0  0  0
   21.3815   -5.7185  -14.5314 C   0  0  0  0  0  0  0  0  0  0  0  0
   20.3691   -4.9349  -13.9957 O   0  0  0  0  0  0  0  0  0  0  0  0
   18.4627   -7.7179  -13.0151 O   0  0  0  0  0  0  0  0  0  0  0  0
   22.5536   -5.4421  -14.1524 O   0  0  0  0  0  0  0  0  0  0  0  0
  2  1  1  6
  2  9  1  0
  3  4  1  0
  3  2  1  0
  4  5  2  0
  4  8  1  0
  5  6  1  0
  6  7  1  0
  8  7  2  0
  9 10  2  0
 11 12  1  0
 12 14  1  0
 13 12  2  0
 15 14  1  6
 15 17  1  0
 16  9  1  0
 16 15  1  0
 17 19  1  0
 17 18  2  0
 19 20  1  0
 20 24  1  0
 20 21  1  1
 22 21  1  0
 23 22  2  0
 24 25  1  0
 26 22  1  0
 27 24  2  0
M  END
$$$$
