HND.pdb
     RDKit          3D

 27 27  0  0  1  0  0  0  0  0999 V2000
   17.4682  -12.7335  -17.4689 N   0  0  0  0  0  0  0  0  0  0  0  0
   18.0427  -12.1375  -16.3035 C   0  0  1  0  0  0  0  0  0  0  0  0
   19.4712  -12.4769  -16.0410 C   0  0  0  0  0  0  0  0  0  0  0  0
   19.6842  -13.9264  -15.7888 C   0  0  0  0  0  0  0  0  0  0  0  0
   18.6327  -14.8153  -15.6911 C   0  0  0  0  0  0  0  0  0  0  0  0
   19.1377  -16.0494  -15.4608 N   0  0  0  0  0  0  0  0  0  0  0  0
   20.4703  -15.9147  -15.4186 C   0  0  0  0  0  0  0  0  0  0  0  0
   20.7953  -14.6331  -15.6168 N   0  0  0  0  0  0  0  0  0  0  0  0
   17.9676  -10.6451  -16.4857 C   0  0  0  0  0  0  0  0  0  0  0  0
   18.4201  -10.1115  -17.5343 O   0  0  0  0  0  0  0  0  0  0  0  0
   14.3352   -7.3215  -17.1840 N   0  0  0  0  0  0  0  0  0  0  0  0
   14.9170   -8.2582  -16.2579 C   0  0  0  0  0  0  0  0  0  0  0  0
   14.4446   -9.4327  -16.3587 O   0  0  0  0  0  0  0  0  0  0  0  0
   15.9582   -7.8693  -15.2956 C   0  0  0  0  0  0  0  0  0  0  0  0
   17.2872   -8.3803  -15.7496 C   0  0  2  0  0  0  0  0  0  0  0  0
   17.3963   -9.7998  -15.5037 N   0  0  0  0  0  0  0  0  0  0  0  0
   18.4167   -7.6493  -15.0630 C   0  0  0  0  0  0  0  0  0  0  0  0
   18.6704   -7.8978  -13.8573 O   0  0  0  0  0  0  0  0  0  0  0  0
   19.2042   -6.6834  -15.7453 N   0  0  0  0  0  0  0  0  0  0  0  0
   20.2327   -5.9547  -15.0770 C   0  0  1  0  0  0  0  0  0  0  0  0
   21.5782   -6.0462  -15.7522 C   0  0  0  0  0  0  0  0  0  0  0  0
   22.6418   -5.3146  -15.0209 C   0  0  0  0  0  0  0  0  0  0  0  0
   22.3957   -4.7407  -13.9428 O   0  0  0  0  0  0  0  0  0  0  0  0
   19.8622   -4.5492  -14.7903 C   0  0  0  0  0  0  0  0  0  0  0  0
   19.8680   -3.6059  -15.8080 O   0  0  0  0  0  0  0  0  0  0  0  0
   23.9398   -5.2405  -15.5026 O   0  0  0  0  0  0  0  0  0  0  0  0
   19.5284   -4.1278  -13.6480 O   0  0  0  0  0  0  0  0  0  0  0  0
  2  1  1  6
  2  9  1  0
  3  4  1  0
  3  2  1  0
  4  5  2  0
  4  8  1  0
  5  6  1  0
  6  7  1  0
  8  7  2  0
  9 10  2  0
 11 12  1  0
 12 14  1  0
 13 12  2  0
 15 14  1  1
 15 17  1  0
 16  9  1  0
 16 15  1  0
 17 19  1  0
 17 18  2  0
 19 20  1  0
 20 24  1  0
 20 21  1  6
 22 21  1  0
 23 22  2  0
 24 25  1  0
 26 22  1  0
 27 24  2  0
M  END
$$$$
