HND.pdb
     RDKit          3D

 27 27  0  0  1  0  0  0  0  0999 V2000
   23.0391  -20.2671  -15.8800 N   0  0  0  0  0  0  0  0  0  0  0  0
   22.5419  -19.4417  -16.9359 C   0  0  1  0  0  0  0  0  0  0  0  0
   21.0615  -19.4467  -17.1180 C   0  0  0  0  0  0  0  0  0  0  0  0
   20.5281  -20.7861  -17.4803 C   0  0  0  0  0  0  0  0  0  0  0  0
   20.3557  -21.1755  -18.7934 C   0  0  0  0  0  0  0  0  0  0  0  0
   19.8592  -22.4342  -18.8032 N   0  0  0  0  0  0  0  0  0  0  0  0
   19.7313  -22.8041  -17.5216 C   0  0  0  0  0  0  0  0  0  0  0  0
   20.1356  -21.8074  -16.7275 N   0  0  0  0  0  0  0  0  0  0  0  0
   22.9451  -18.0262  -16.6198 C   0  0  0  0  0  0  0  0  0  0  0  0
   22.7113  -17.5406  -15.4803 O   0  0  0  0  0  0  0  0  0  0  0  0
   26.0693  -16.4137  -15.4177 N   0  0  0  0  0  0  0  0  0  0  0  0
   26.4152  -15.9811  -16.7469 C   0  0  0  0  0  0  0  0  0  0  0  0
   27.6664  -15.9554  -16.9636 O   0  0  0  0  0  0  0  0  0  0  0  0
   25.3994  -15.6091  -17.7424 C   0  0  0  0  0  0  0  0  0  0  0  0
   24.0330  -15.8783  -17.2001 C   0  0  2  0  0  0  0  0  0  0  0  0
   23.5903  -17.2019  -17.5734 N   0  0  0  0  0  0  0  0  0  0  0  0
   23.0410  -14.8468  -17.6834 C   0  0  0  0  0  0  0  0  0  0  0  0
   22.4683  -15.0119  -18.7901 O   0  0  0  0  0  0  0  0  0  0  0  0
   22.7357  -13.6892  -16.9183 N   0  0  0  0  0  0  0  0  0  0  0  0
   21.8144  -12.7071  -17.3894 C   0  0  1  0  0  0  0  0  0  0  0  0
   21.2617  -11.8217  -16.3007 C   0  0  0  0  0  0  0  0  0  0  0  0
   20.3227  -10.7938  -16.8138 C   0  0  0  0  0  0  0  0  0  0  0  0
   19.4832  -11.0771  -17.6896 O   0  0  0  0  0  0  0  0  0  0  0  0
   22.3368  -11.9117  -18.5249 C   0  0  0  0  0  0  0  0  0  0  0  0
   23.6936  -11.6341  -18.6150 O   0  0  0  0  0  0  0  0  0  0  0  0
   20.3410   -9.4895  -16.3441 O   0  0  0  0  0  0  0  0  0  0  0  0
   21.6155  -11.4499  -19.4523 O   0  0  0  0  0  0  0  0  0  0  0  0
  2  1  1  1
  2  9  1  0
  3  4  1  0
  3  2  1  0
  4  5  2  0
  4  8  1  0
  5  6  1  0
  6  7  1  0
  8  7  2  0
  9 10  2  0
 11 12  1  0
 12 14  1  0
 13 12  2  0
 15 14  1  6
 15 17  1  0
 16  9  1  0
 16 15  1  0
 17 19  1  0
 17 18  2  0
 19 20  1  0
 20 24  1  0
 20 21  1  1
 22 21  1  0
 23 22  2  0
 24 25  1  0
 26 22  1  0
 27 24  2  0
M  END
$$$$
