HND.pdb
     RDKit          3D

 27 27  0  0  1  0  0  0  0  0999 V2000
   16.9262  -11.5245  -12.7920 N   0  0  0  0  0  0  0  0  0  0  0  0
   16.1590  -10.8254  -13.7750 C   0  0  1  0  0  0  0  0  0  0  0  0
   14.8324  -11.4224  -14.1045 C   0  0  0  0  0  0  0  0  0  0  0  0
   14.9152  -12.8700  -14.4320 C   0  0  0  0  0  0  0  0  0  0  0  0
   15.2861  -13.3179  -15.6839 C   0  0  0  0  0  0  0  0  0  0  0  0
   15.2689  -14.6710  -15.6750 N   0  0  0  0  0  0  0  0  0  0  0  0
   14.8946  -15.0398  -14.4423 C   0  0  0  0  0  0  0  0  0  0  0  0
   14.6823  -13.9509  -13.6963 N   0  0  0  0  0  0  0  0  0  0  0  0
   15.9020   -9.4433  -13.2364 C   0  0  0  0  0  0  0  0  0  0  0  0
   15.0553   -8.6939  -13.7935 O   0  0  0  0  0  0  0  0  0  0  0  0
   14.3188   -8.2877  -10.0101 N   0  0  0  0  0  0  0  0  0  0  0  0
   15.5728   -7.8898   -9.4247 C   0  0  0  0  0  0  0  0  0  0  0  0
   15.5975   -7.9903   -8.1589 O   0  0  0  0  0  0  0  0  0  0  0  0
   16.7039   -7.4154  -10.2352 C   0  0  0  0  0  0  0  0  0  0  0  0
   16.3905   -7.5732  -11.6879 C   0  0  2  0  0  0  0  0  0  0  0  0
   16.5895   -8.9422  -12.1044 N   0  0  0  0  0  0  0  0  0  0  0  0
   17.2357   -6.6488  -12.5322 C   0  0  0  0  0  0  0  0  0  0  0  0
   18.3094   -7.0745  -13.0281 O   0  0  0  0  0  0  0  0  0  0  0  0
   16.8492   -5.3047  -12.7825 N   0  0  0  0  0  0  0  0  0  0  0  0
   17.5718   -4.4799  -13.6951 C   0  0  1  0  0  0  0  0  0  0  0  0
   17.7294   -5.0861  -15.0671 C   0  0  0  0  0  0  0  0  0  0  0  0
   18.4722   -4.2079  -16.0043 C   0  0  0  0  0  0  0  0  0  0  0  0
   19.1408   -3.2451  -15.5821 O   0  0  0  0  0  0  0  0  0  0  0  0
   17.0526   -3.0943  -13.7687 C   0  0  0  0  0  0  0  0  0  0  0  0
   17.8245   -2.0905  -14.3366 O   0  0  0  0  0  0  0  0  0  0  0  0
   18.4529   -4.4208  -17.3741 O   0  0  0  0  0  0  0  0  0  0  0  0
   15.9187   -2.7433  -13.3388 O   0  0  0  0  0  0  0  0  0  0  0  0
  2  1  1  1
  2  9  1  0
  3  4  1  0
  3  2  1  0
  4  5  2  0
  4  8  1  0
  5  6  1  0
  6  7  1  0
  8  7  2  0
  9 10  2  0
 11 12  1  0
 12 14  1  0
 13 12  2  0
 15 14  1  1
 15 17  1  0
 16  9  1  0
 16 15  1  0
 17 19  1  0
 17 18  2  0
 19 20  1  0
 20 24  1  0
 20 21  1  6
 22 21  1  0
 23 22  2  0
 24 25  1  0
 26 22  1  0
 27 24  2  0
M  END
$$$$
