HND.pdb
     RDKit          3D

 27 27  0  0  1  0  0  0  0  0999 V2000
   12.4797  -11.3295  -10.7128 N   0  0  0  0  0  0  0  0  0  0  0  0
   13.5900  -11.2267  -11.6072 C   0  0  1  0  0  0  0  0  0  0  0  0
   13.3962  -11.8422  -12.9520 C   0  0  0  0  0  0  0  0  0  0  0  0
   13.1265  -13.3025  -12.8861 C   0  0  0  0  0  0  0  0  0  0  0  0
   14.1374  -14.2388  -12.9689 C   0  0  0  0  0  0  0  0  0  0  0  0
   13.5856  -15.4711  -12.8789 N   0  0  0  0  0  0  0  0  0  0  0  0
   12.2648  -15.2890  -12.7443 C   0  0  0  0  0  0  0  0  0  0  0  0
   11.9925  -13.9801  -12.7492 N   0  0  0  0  0  0  0  0  0  0  0  0
   13.8505   -9.7600  -11.8241 C   0  0  0  0  0  0  0  0  0  0  0  0
   12.9089   -8.9279  -11.7243 O   0  0  0  0  0  0  0  0  0  0  0  0
   16.3758   -5.8561  -10.0317 N   0  0  0  0  0  0  0  0  0  0  0  0
   16.2286   -7.1076   -9.3349 C   0  0  0  0  0  0  0  0  0  0  0  0
   16.5313   -7.0424   -8.1032 O   0  0  0  0  0  0  0  0  0  0  0  0
   15.7696   -8.3324  -10.0062 C   0  0  0  0  0  0  0  0  0  0  0  0
   15.6479   -8.0919  -11.4762 C   0  0  2  0  0  0  0  0  0  0  0  0
   15.1399   -9.2687  -12.1428 N   0  0  0  0  0  0  0  0  0  0  0  0
   16.9754   -7.6919  -12.0756 C   0  0  0  0  0  0  0  0  0  0  0  0
   18.0134   -8.3243  -11.7551 O   0  0  0  0  0  0  0  0  0  0  0  0
   17.0843   -6.6151  -12.9961 N   0  0  0  0  0  0  0  0  0  0  0  0
   18.1897   -6.5104  -13.8919 C   0  0  1  0  0  0  0  0  0  0  0  0
   18.0199   -5.4424  -14.9432 C   0  0  0  0  0  0  0  0  0  0  0  0
   19.1185   -5.4343  -15.9404 C   0  0  0  0  0  0  0  0  0  0  0  0
   20.1119   -6.1733  -15.8012 O   0  0  0  0  0  0  0  0  0  0  0  0
   19.4943   -6.3903  -13.2000 C   0  0  0  0  0  0  0  0  0  0  0  0
   20.6350   -6.9447  -13.7633 O   0  0  0  0  0  0  0  0  0  0  0  0
   19.0847   -4.6125  -17.0565 O   0  0  0  0  0  0  0  0  0  0  0  0
   19.6542   -5.7997  -12.0958 O   0  0  0  0  0  0  0  0  0  0  0  0
  2  1  1  1
  2  9  1  0
  3  4  1  0
  3  2  1  0
  4  5  2  0
  4  8  1  0
  5  6  1  0
  6  7  1  0
  8  7  2  0
  9 10  2  0
 11 12  1  0
 12 14  1  0
 13 12  2  0
 15 14  1  1
 15 17  1  0
 16  9  1  0
 16 15  1  0
 17 19  1  0
 17 18  2  0
 19 20  1  0
 20 24  1  0
 20 21  1  1
 22 21  1  0
 23 22  2  0
 24 25  1  0
 26 22  1  0
 27 24  2  0
M  END
$$$$
