HND.pdb
     RDKit          3D

 27 27  0  0  1  0  0  0  0  0999 V2000
   27.2678  -19.8304  -15.8335 N   0  0  0  0  0  0  0  0  0  0  0  0
   26.5013  -19.0503  -14.9130 C   0  0  1  0  0  0  0  0  0  0  0  0
   25.7561  -17.9011  -15.5035 C   0  0  0  0  0  0  0  0  0  0  0  0
   26.6526  -16.8717  -16.0920 C   0  0  0  0  0  0  0  0  0  0  0  0
   27.0419  -15.7501  -15.3878 C   0  0  0  0  0  0  0  0  0  0  0  0
   27.8493  -15.0079  -16.1806 N   0  0  0  0  0  0  0  0  0  0  0  0
   27.9494  -15.6642  -17.3446 C   0  0  0  0  0  0  0  0  0  0  0  0
   27.2263  -16.7872  -17.2868 N   0  0  0  0  0  0  0  0  0  0  0  0
   25.4819  -19.9692  -14.2944 C   0  0  0  0  0  0  0  0  0  0  0  0
   24.8357  -20.7757  -15.0161 O   0  0  0  0  0  0  0  0  0  0  0  0
   26.3425  -20.6286   -9.3880 N   0  0  0  0  0  0  0  0  0  0  0  0
   25.6287  -21.2843  -10.4530 C   0  0  0  0  0  0  0  0  0  0  0  0
   26.2745  -22.2399  -10.9847 O   0  0  0  0  0  0  0  0  0  0  0  0
   24.2809  -20.8696  -10.8686 C   0  0  0  0  0  0  0  0  0  0  0  0
   24.1976  -20.8316  -12.3603 C   0  0  2  0  0  0  0  0  0  0  0  0
   25.2153  -19.9620  -12.9037 N   0  0  0  0  0  0  0  0  0  0  0  0
   22.8319  -20.3778  -12.8193 C   0  0  0  0  0  0  0  0  0  0  0  0
   22.6730  -19.1926  -13.2067 O   0  0  0  0  0  0  0  0  0  0  0  0
   21.7163  -21.2574  -12.8253 N   0  0  0  0  0  0  0  0  0  0  0  0
   20.5399  -20.9628  -13.5767 C   0  0  1  0  0  0  0  0  0  0  0  0
   20.8096  -20.6416  -15.0255 C   0  0  0  0  0  0  0  0  0  0  0  0
   19.8920  -19.6099  -15.5684 C   0  0  0  0  0  0  0  0  0  0  0  0
   19.0669  -19.0380  -14.8306 O   0  0  0  0  0  0  0  0  0  0  0  0
   19.4822  -21.9904  -13.4348 C   0  0  0  0  0  0  0  0  0  0  0  0
   19.7619  -23.1956  -12.8061 O   0  0  0  0  0  0  0  0  0  0  0  0
   19.9150  -19.2438  -16.9055 O   0  0  0  0  0  0  0  0  0  0  0  0
   18.3011  -21.8485  -13.8575 O   0  0  0  0  0  0  0  0  0  0  0  0
  2  1  1  6
  2  9  1  0
  3  4  1  0
  3  2  1  0
  4  5  2  0
  4  8  1  0
  5  6  1  0
  6  7  1  0
  8  7  2  0
  9 10  2  0
 11 12  1  0
 12 14  1  0
 13 12  2  0
 15 14  1  1
 15 17  1  0
 16  9  1  0
 16 15  1  0
 17 19  1  0
 17 18  2  0
 19 20  1  0
 20 24  1  0
 20 21  1  6
 22 21  1  0
 23 22  2  0
 24 25  1  0
 26 22  1  0
 27 24  2  0
M  END
$$$$
