HND.pdb
     RDKit          3D

 27 27  0  0  1  0  0  0  0  0999 V2000
   20.4429  -10.9810  -15.9274 N   0  0  0  0  0  0  0  0  0  0  0  0
   19.3144  -10.1102  -15.8199 C   0  0  1  0  0  0  0  0  0  0  0  0
   18.1411  -10.6605  -15.0815 C   0  0  0  0  0  0  0  0  0  0  0  0
   17.4886  -11.7910  -15.7929 C   0  0  0  0  0  0  0  0  0  0  0  0
   18.1532  -12.9715  -16.0575 C   0  0  0  0  0  0  0  0  0  0  0  0
   17.3060  -13.8006  -16.7103 N   0  0  0  0  0  0  0  0  0  0  0  0
   16.1486  -13.1380  -16.8411 C   0  0  0  0  0  0  0  0  0  0  0  0
   16.2632  -11.9269  -16.2866 N   0  0  0  0  0  0  0  0  0  0  0  0
   19.7704   -8.8831  -15.0766 C   0  0  0  0  0  0  0  0  0  0  0  0
   20.2140   -8.9831  -13.9009 O   0  0  0  0  0  0  0  0  0  0  0  0
   22.0095   -5.1926  -12.5095 N   0  0  0  0  0  0  0  0  0  0  0  0
   22.1983   -5.4659  -13.9107 C   0  0  0  0  0  0  0  0  0  0  0  0
   22.8648   -4.5714  -14.5178 O   0  0  0  0  0  0  0  0  0  0  0  0
   21.6613   -6.6727  -14.5561 C   0  0  0  0  0  0  0  0  0  0  0  0
   20.2322   -6.4540  -14.9350 C   0  0  2  0  0  0  0  0  0  0  0  0
   19.7190   -7.5936  -15.6596 N   0  0  0  0  0  0  0  0  0  0  0  0
   20.0729   -5.2011  -15.7636 C   0  0  0  0  0  0  0  0  0  0  0  0
   20.0258   -5.2912  -17.0165 O   0  0  0  0  0  0  0  0  0  0  0  0
   19.9746   -3.9171  -15.1635 N   0  0  0  0  0  0  0  0  0  0  0  0
   19.1449   -2.8976  -15.7181 C   0  0  1  0  0  0  0  0  0  0  0  0
   17.7194   -3.3333  -15.9476 C   0  0  0  0  0  0  0  0  0  0  0  0
   16.8771   -2.2641  -16.5382 C   0  0  0  0  0  0  0  0  0  0  0  0
   16.5026   -1.2945  -15.8514 O   0  0  0  0  0  0  0  0  0  0  0  0
   19.2100   -1.6196  -14.9716 C   0  0  0  0  0  0  0  0  0  0  0  0
   19.1863   -0.4119  -15.6547 O   0  0  0  0  0  0  0  0  0  0  0  0
   16.4766   -2.3001  -17.8651 O   0  0  0  0  0  0  0  0  0  0  0  0
   19.2877   -1.5417  -13.7139 O   0  0  0  0  0  0  0  0  0  0  0  0
  2  1  1  1
  2  9  1  0
  3  4  1  0
  3  2  1  0
  4  5  2  0
  4  8  1  0
  5  6  1  0
  6  7  1  0
  8  7  2  0
  9 10  2  0
 11 12  1  0
 12 14  1  0
 13 12  2  0
 15 14  1  6
 15 17  1  0
 16  9  1  0
 16 15  1  0
 17 19  1  0
 17 18  2  0
 19 20  1  0
 20 24  1  0
 20 21  1  1
 22 21  1  0
 23 22  2  0
 24 25  1  0
 26 22  1  0
 27 24  2  0
M  END
$$$$
