HND.pdb
     RDKit          3D

 27 27  0  0  1  0  0  0  0  0999 V2000
   26.6213  -12.3083  -21.2286 N   0  0  0  0  0  0  0  0  0  0  0  0
   26.0877  -12.7738  -19.9868 C   0  0  1  0  0  0  0  0  0  0  0  0
   26.7168  -12.2060  -18.7593 C   0  0  0  0  0  0  0  0  0  0  0  0
   28.1915  -12.3905  -18.7273 C   0  0  0  0  0  0  0  0  0  0  0  0
   28.8645  -13.0861  -19.7115 C   0  0  0  0  0  0  0  0  0  0  0  0
   30.1835  -13.0837  -19.4092 N   0  0  0  0  0  0  0  0  0  0  0  0
   30.3113  -12.4005  -18.2635 C   0  0  0  0  0  0  0  0  0  0  0  0
   29.1079  -11.9845  -17.8559 N   0  0  0  0  0  0  0  0  0  0  0  0
   24.6324  -12.3897  -19.9576 C   0  0  0  0  0  0  0  0  0  0  0  0
   24.2870  -11.1991  -20.1859 O   0  0  0  0  0  0  0  0  0  0  0  0
   22.4874  -15.5891  -20.4288 N   0  0  0  0  0  0  0  0  0  0  0  0
   21.7999  -14.7054  -21.3342 C   0  0  0  0  0  0  0  0  0  0  0  0
   21.3609  -15.2853  -22.3753 O   0  0  0  0  0  0  0  0  0  0  0  0
   21.6339  -13.2708  -21.0590 C   0  0  0  0  0  0  0  0  0  0  0  0
   22.2276  -12.9358  -19.7289 C   0  0  2  0  0  0  0  0  0  0  0  0
   23.6153  -13.3343  -19.6776 N   0  0  0  0  0  0  0  0  0  0  0  0
   21.4597  -13.5941  -18.6071 C   0  0  0  0  0  0  0  0  0  0  0  0
   21.9454  -14.6025  -18.0349 O   0  0  0  0  0  0  0  0  0  0  0  0
   20.1973  -13.1031  -18.1783 N   0  0  0  0  0  0  0  0  0  0  0  0
   19.4977  -13.6998  -17.0876 C   0  0  1  0  0  0  0  0  0  0  0  0
   19.2767  -12.7656  -15.9244 C   0  0  0  0  0  0  0  0  0  0  0  0
   18.5277  -13.3979  -14.8106 C   0  0  0  0  0  0  0  0  0  0  0  0
   18.8988  -14.4850  -14.3283 O   0  0  0  0  0  0  0  0  0  0  0  0
   18.2402  -14.3689  -17.4948 C   0  0  0  0  0  0  0  0  0  0  0  0
   17.7954  -14.2770  -18.8061 O   0  0  0  0  0  0  0  0  0  0  0  0
   17.3959  -12.8106  -14.2664 O   0  0  0  0  0  0  0  0  0  0  0  0
   17.5148  -15.0422  -16.7110 O   0  0  0  0  0  0  0  0  0  0  0  0
  2  1  1  6
  2  9  1  0
  3  4  1  0
  3  2  1  0
  4  5  2  0
  4  8  1  0
  5  6  1  0
  6  7  1  0
  8  7  2  0
  9 10  2  0
 11 12  1  0
 12 14  1  0
 13 12  2  0
 15 14  1  6
 15 17  1  0
 16  9  1  0
 16 15  1  0
 17 19  1  0
 17 18  2  0
 19 20  1  0
 20 24  1  0
 20 21  1  1
 22 21  1  0
 23 22  2  0
 24 25  1  0
 26 22  1  0
 27 24  2  0
M  END
$$$$
