HND.pdb
     RDKit          3D

 27 27  0  0  1  0  0  0  0  0999 V2000
   20.5578  -15.0546  -17.5329 N   0  0  0  0  0  0  0  0  0  0  0  0
   19.8071  -13.8813  -17.2117 C   0  0  1  0  0  0  0  0  0  0  0  0
   19.2009  -13.8545  -15.8491 C   0  0  0  0  0  0  0  0  0  0  0  0
   18.3075  -15.0142  -15.5908 C   0  0  0  0  0  0  0  0  0  0  0  0
   17.0186  -15.0699  -16.0818 C   0  0  0  0  0  0  0  0  0  0  0  0
   16.4609  -16.2369  -15.6841 N   0  0  0  0  0  0  0  0  0  0  0  0
   17.3915  -16.8791  -14.9649 C   0  0  0  0  0  0  0  0  0  0  0  0
   18.5031  -16.1383  -14.9112 N   0  0  0  0  0  0  0  0  0  0  0  0
   20.7516  -12.7124  -17.3000 C   0  0  0  0  0  0  0  0  0  0  0  0
   21.9656  -12.8544  -16.9919 O   0  0  0  0  0  0  0  0  0  0  0  0
   19.7224   -9.9339  -21.1208 N   0  0  0  0  0  0  0  0  0  0  0  0
   20.1308   -9.5346  -19.7990 C   0  0  0  0  0  0  0  0  0  0  0  0
   19.2622   -8.8389  -19.1870 O   0  0  0  0  0  0  0  0  0  0  0  0
   21.4347   -9.9085  -19.2320 C   0  0  0  0  0  0  0  0  0  0  0  0
   21.2661  -10.3446  -17.8125 C   0  0  2  0  0  0  0  0  0  0  0  0
   20.3195  -11.4325  -17.7247 N   0  0  0  0  0  0  0  0  0  0  0  0
   20.8164   -9.1974  -16.9388 C   0  0  0  0  0  0  0  0  0  0  0  0
   19.6042   -9.1019  -16.6204 O   0  0  0  0  0  0  0  0  0  0  0  0
   21.7300   -8.2181  -16.4644 N   0  0  0  0  0  0  0  0  0  0  0  0
   21.3055   -7.1534  -15.6150 C   0  0  1  0  0  0  0  0  0  0  0  0
   20.1551   -6.3536  -16.1732 C   0  0  0  0  0  0  0  0  0  0  0  0
   19.7815   -5.2031  -15.3141 C   0  0  0  0  0  0  0  0  0  0  0  0
   20.5963   -4.7202  -14.5047 O   0  0  0  0  0  0  0  0  0  0  0  0
   21.0432   -7.5849  -14.2222 C   0  0  0  0  0  0  0  0  0  0  0  0
   21.8101   -7.0813  -13.1809 O   0  0  0  0  0  0  0  0  0  0  0  0
   18.5232   -4.6242  -15.3764 O   0  0  0  0  0  0  0  0  0  0  0  0
   20.1413   -8.4063  -13.8974 O   0  0  0  0  0  0  0  0  0  0  0  0
  2  1  1  1
  2  9  1  0
  3  4  1  0
  3  2  1  0
  4  5  2  0
  4  8  1  0
  5  6  1  0
  6  7  1  0
  8  7  2  0
  9 10  2  0
 11 12  1  0
 12 14  1  0
 13 12  2  0
 15 14  1  6
 15 17  1  0
 16  9  1  0
 16 15  1  0
 17 19  1  0
 17 18  2  0
 19 20  1  0
 20 24  1  0
 20 21  1  6
 22 21  1  0
 23 22  2  0
 24 25  1  0
 26 22  1  0
 27 24  2  0
M  END
$$$$
