HND.pdb
     RDKit          3D

 27 27  0  0  1  0  0  0  0  0999 V2000
   27.3779  -21.0895  -17.5956 N   0  0  0  0  0  0  0  0  0  0  0  0
   26.8948  -20.0465  -16.7457 C   0  0  1  0  0  0  0  0  0  0  0  0
   25.9598  -19.0744  -17.3827 C   0  0  0  0  0  0  0  0  0  0  0  0
   26.6107  -18.2511  -18.4355 C   0  0  0  0  0  0  0  0  0  0  0  0
   26.3828  -18.4669  -19.7797 C   0  0  0  0  0  0  0  0  0  0  0  0
   27.1087  -17.5685  -20.4847 N   0  0  0  0  0  0  0  0  0  0  0  0
   27.7658  -16.8206  -19.5878 C   0  0  0  0  0  0  0  0  0  0  0  0
   27.4627  -17.2357  -18.3536 N   0  0  0  0  0  0  0  0  0  0  0  0
   26.1485  -20.7047  -15.6161 C   0  0  0  0  0  0  0  0  0  0  0  0
   25.5355  -21.7891  -15.8090 O   0  0  0  0  0  0  0  0  0  0  0  0
   24.9933  -22.2456  -10.4213 N   0  0  0  0  0  0  0  0  0  0  0  0
   24.7519  -20.9326  -10.9611 C   0  0  0  0  0  0  0  0  0  0  0  0
   23.7079  -20.3768  -10.4984 O   0  0  0  0  0  0  0  0  0  0  0  0
   25.6432  -20.3139  -11.9532 C   0  0  0  0  0  0  0  0  0  0  0  0
   25.1888  -20.6633  -13.3334 C   0  0  2  0  0  0  0  0  0  0  0  0
   26.1077  -20.1405  -14.3180 N   0  0  0  0  0  0  0  0  0  0  0  0
   23.7964  -20.1410  -13.5981 C   0  0  0  0  0  0  0  0  0  0  0  0
   23.6202  -19.2810  -14.4978 O   0  0  0  0  0  0  0  0  0  0  0  0
   22.6746  -20.5968  -12.8549 N   0  0  0  0  0  0  0  0  0  0  0  0
   21.3469  -20.4796  -13.3637 C   0  0  1  0  0  0  0  0  0  0  0  0
   21.2398  -20.7384  -14.8457 C   0  0  0  0  0  0  0  0  0  0  0  0
   19.8813  -20.4752  -15.3809 C   0  0  0  0  0  0  0  0  0  0  0  0
   19.2748  -19.4256  -15.0936 O   0  0  0  0  0  0  0  0  0  0  0  0
   20.3554  -21.2721  -12.5998 C   0  0  0  0  0  0  0  0  0  0  0  0
   19.0052  -21.1819  -12.9079 O   0  0  0  0  0  0  0  0  0  0  0  0
   19.2379  -21.3775  -16.2141 O   0  0  0  0  0  0  0  0  0  0  0  0
   20.6556  -22.0533  -11.6546 O   0  0  0  0  0  0  0  0  0  0  0  0
  2  1  1  6
  2  9  1  0
  3  4  1  0
  3  2  1  0
  4  5  2  0
  4  8  1  0
  5  6  1  0
  6  7  1  0
  8  7  2  0
  9 10  2  0
 11 12  1  0
 12 14  1  0
 13 12  2  0
 15 14  1  1
 15 17  1  0
 16  9  1  0
 16 15  1  0
 17 19  1  0
 17 18  2  0
 19 20  1  0
 20 24  1  0
 20 21  1  6
 22 21  1  0
 23 22  2  0
 24 25  1  0
 26 22  1  0
 27 24  2  0
M  END
$$$$
