DGW.pdb
     RDKit          3D

 27 28  0  0  1  0  0  0  0  0999 V2000
    8.0038  -19.1191   20.9435 N   0  0  0  0  0  0  0  0  0  0  0  0
    7.9288  -18.5445   19.6185 C   0  0  1  0  0  0  0  0  0  0  0  0
    6.4594  -18.3904   19.1973 C   0  0  0  0  0  0  0  0  0  0  0  0
    5.9829  -19.6823   18.6655 C   0  0  0  0  0  0  0  0  0  0  0  0
    6.7765  -20.6407   18.5517 O   0  0  0  0  0  0  0  0  0  0  0  0
    8.5403  -17.1791   19.6751 C   0  0  0  0  0  0  0  0  0  0  0  0
    8.7646  -16.5753   18.5994 O   0  0  0  0  0  0  0  0  0  0  0  0
    4.6608  -19.8367   18.2923 O   0  0  0  0  0  0  0  0  0  0  0  0
    8.8304  -16.6468   20.9469 N   0  0  0  0  0  0  0  0  0  0  0  0
    9.3168  -15.3211   21.0978 C   0  0  0  0  0  0  0  0  0  0  0  0
    9.4716  -14.8748   22.5073 C   0  0  0  0  0  0  0  0  0  0  0  0
    9.8654  -13.7047   22.7454 O   0  0  0  0  0  0  0  0  0  0  0  0
    9.1930  -15.7139   23.5997 N   0  0  0  0  0  0  0  0  0  0  0  0
   10.1167  -16.0366   24.6793 C   0  0  1  0  0  0  0  0  0  0  0  0
    9.5436  -15.6736   26.0041 C   0  0  0  0  0  0  0  0  0  0  0  0
    8.1718  -15.1586   25.9054 C   0  0  0  0  0  0  0  0  0  0  0  0
    7.0427  -15.9156   25.6239 C   0  0  0  0  0  0  0  0  0  0  0  0
    5.9638  -15.1535   25.5765 N   0  0  0  0  0  0  0  0  0  0  0  0
    6.3505  -13.8743   25.8256 C   0  0  0  0  0  0  0  0  0  0  0  0
    5.6486  -12.6864   25.9173 C   0  0  0  0  0  0  0  0  0  0  0  0
    6.2627  -11.5042   26.2052 C   0  0  0  0  0  0  0  0  0  0  0  0
    7.6299  -11.5093   26.4095 C   0  0  0  0  0  0  0  0  0  0  0  0
    8.3807  -12.6622   26.3304 C   0  0  0  0  0  0  0  0  0  0  0  0
    7.7074  -13.8451   26.0327 C   0  0  0  0  0  0  0  0  0  0  0  0
   10.6972  -17.3524   24.6317 C   0  0  0  0  0  0  0  0  0  0  0  0
   10.1875  -18.2203   23.8286 O   0  0  0  0  0  0  0  0  0  0  0  0
   11.7745  -17.7930   25.3693 O   0  0  0  0  0  0  0  0  0  0  0  0
  2  1  1  1
  2  6  1  0
  3  4  1  0
  3  2  1  0
  4  5  2  0
  6  9  1  0
  7  6  2  0
  8  4  1  0
  9 10  1  0
 10 11  1  0
 11 13  1  0
 11 12  2  0
 13 14  1  0
 14 25  1  0
 14 15  1  1
 16 15  1  0
 17 16  2  0
 18 17  1  0
 19 24  2  0
 19 18  1  0
 20 19  1  0
 21 20  2  0
 21 22  1  0
 22 23  2  0
 23 24  1  0
 24 16  1  0
 25 26  2  0
 25 27  1  0
M  END
$$$$
