DGW.pdb
     RDKit          3D

 27 28  0  0  1  0  0  0  0  0999 V2000
    7.0573  -16.6677   17.9308 N   0  0  0  0  0  0  0  0  0  0  0  0
    8.4112  -16.1593   17.9294 C   0  0  1  0  0  0  0  0  0  0  0  0
    8.3939  -14.6252   17.8479 C   0  0  0  0  0  0  0  0  0  0  0  0
    8.0558  -14.2297   16.4666 C   0  0  0  0  0  0  0  0  0  0  0  0
    7.8444  -15.1058   15.6011 O   0  0  0  0  0  0  0  0  0  0  0  0
    9.0484  -16.5473   19.2275 C   0  0  0  0  0  0  0  0  0  0  0  0
   10.2752  -16.3393   19.3812 O   0  0  0  0  0  0  0  0  0  0  0  0
    7.9718  -12.8926   16.1259 O   0  0  0  0  0  0  0  0  0  0  0  0
    8.2237  -17.1289   20.2105 N   0  0  0  0  0  0  0  0  0  0  0  0
    8.7746  -17.8565   21.2986 C   0  0  0  0  0  0  0  0  0  0  0  0
    9.6361  -17.0548   22.2069 C   0  0  0  0  0  0  0  0  0  0  0  0
   10.8157  -16.7873   21.8635 O   0  0  0  0  0  0  0  0  0  0  0  0
    9.1841  -16.5760   23.4485 N   0  0  0  0  0  0  0  0  0  0  0  0
   10.0291  -16.0645   24.5196 C   0  0  1  0  0  0  0  0  0  0  0  0
    9.6935  -14.6504   24.8407 C   0  0  0  0  0  0  0  0  0  0  0  0
    8.2805  -14.4713   25.1987 C   0  0  0  0  0  0  0  0  0  0  0  0
    7.3276  -15.4792   25.2568 C   0  0  0  0  0  0  0  0  0  0  0  0
    6.1432  -14.9902   25.5811 N   0  0  0  0  0  0  0  0  0  0  0  0
    6.2817  -13.6481   25.7463 C   0  0  0  0  0  0  0  0  0  0  0  0
    5.3896  -12.6527   26.1008 C   0  0  0  0  0  0  0  0  0  0  0  0
    5.7721  -11.3507   26.2275 C   0  0  0  0  0  0  0  0  0  0  0  0
    7.0961  -11.0313   25.9911 C   0  0  0  0  0  0  0  0  0  0  0  0
    8.0291  -11.9808   25.6347 C   0  0  0  0  0  0  0  0  0  0  0  0
    7.5892  -13.2976   25.5172 C   0  0  0  0  0  0  0  0  0  0  0  0
   10.1564  -16.9140   25.6739 C   0  0  0  0  0  0  0  0  0  0  0  0
   11.0531  -16.6270   26.5523 O   0  0  0  0  0  0  0  0  0  0  0  0
    9.3955  -18.0289   25.9508 O   0  0  0  0  0  0  0  0  0  0  0  0
  2  1  1  1
  2  6  1  0
  3  4  1  0
  3  2  1  0
  4  5  2  0
  6  9  1  0
  7  6  2  0
  8  4  1  0
  9 10  1  0
 10 11  1  0
 11 13  1  0
 11 12  2  0
 13 14  1  0
 14 25  1  0
 14 15  1  1
 16 15  1  0
 17 16  2  0
 18 17  1  0
 19 24  2  0
 19 18  1  0
 20 19  1  0
 21 20  2  0
 21 22  1  0
 22 23  2  0
 23 24  1  0
 24 16  1  0
 25 26  2  0
 25 27  1  0
M  END
$$$$
