DGW.pdb
     RDKit          3D

 27 28  0  0  1  0  0  0  0  0999 V2000
    8.5629  -17.9630   21.5058 N   0  0  0  0  0  0  0  0  0  0  0  0
    8.7430  -16.6345   20.9635 C   0  0  1  0  0  0  0  0  0  0  0  0
    7.4778  -15.7962   21.2018 C   0  0  0  0  0  0  0  0  0  0  0  0
    6.3796  -16.3583   20.3913 C   0  0  0  0  0  0  0  0  0  0  0  0
    6.5647  -17.4007   19.7277 O   0  0  0  0  0  0  0  0  0  0  0  0
    9.8736  -15.9872   21.7012 C   0  0  0  0  0  0  0  0  0  0  0  0
   10.1241  -14.7791   21.4780 O   0  0  0  0  0  0  0  0  0  0  0  0
    5.1456  -15.7358   20.3634 O   0  0  0  0  0  0  0  0  0  0  0  0
   10.5971  -16.7813   22.6127 N   0  0  0  0  0  0  0  0  0  0  0  0
   11.7794  -16.2988   23.2341 C   0  0  0  0  0  0  0  0  0  0  0  0
   11.7017  -16.1924   24.7148 C   0  0  0  0  0  0  0  0  0  0  0  0
   12.7335  -15.8929   25.3679 O   0  0  0  0  0  0  0  0  0  0  0  0
   10.5100  -16.4141   25.4261 N   0  0  0  0  0  0  0  0  0  0  0  0
   10.4078  -16.6364   26.8624 C   0  0  1  0  0  0  0  0  0  0  0  0
    9.7093  -15.5061   27.5333 C   0  0  0  0  0  0  0  0  0  0  0  0
    8.4396  -15.1590   26.8821 C   0  0  0  0  0  0  0  0  0  0  0  0
    7.5571  -16.0591   26.3005 C   0  0  0  0  0  0  0  0  0  0  0  0
    6.5206  -15.4300   25.7741 N   0  0  0  0  0  0  0  0  0  0  0  0
    6.6900  -14.0993   25.9940 C   0  0  0  0  0  0  0  0  0  0  0  0
    5.9184  -12.9946   25.6830 C   0  0  0  0  0  0  0  0  0  0  0  0
    6.2908  -11.7311   26.0329 C   0  0  0  0  0  0  0  0  0  0  0  0
    7.4789  -11.5652   26.7197 C   0  0  0  0  0  0  0  0  0  0  0  0
    8.2883  -12.6286   27.0560 C   0  0  0  0  0  0  0  0  0  0  0  0
    7.8650  -13.9003   26.6756 C   0  0  0  0  0  0  0  0  0  0  0  0
    9.9371  -17.9365   27.2608 C   0  0  0  0  0  0  0  0  0  0  0  0
   10.0405  -18.2747   28.4988 O   0  0  0  0  0  0  0  0  0  0  0  0
    9.3653  -18.8817   26.4372 O   0  0  0  0  0  0  0  0  0  0  0  0
  2  1  1  1
  2  6  1  0
  3  4  1  0
  3  2  1  0
  4  5  2  0
  6  9  1  0
  7  6  2  0
  8  4  1  0
  9 10  1  0
 10 11  1  0
 11 13  1  0
 11 12  2  0
 13 14  1  0
 14 25  1  0
 14 15  1  6
 16 15  1  0
 17 16  2  0
 18 17  1  0
 19 24  2  0
 19 18  1  0
 20 19  1  0
 21 20  2  0
 21 22  1  0
 22 23  2  0
 23 24  1  0
 24 16  1  0
 25 26  2  0
 25 27  1  0
M  END
$$$$
