DGW.pdb
     RDKit          3D

 27 28  0  0  1  0  0  0  0  0999 V2000
    6.9391  -20.0635   21.3665 N   0  0  0  0  0  0  0  0  0  0  0  0
    5.8899  -19.3269   22.0357 C   0  0  1  0  0  0  0  0  0  0  0  0
    5.7153  -19.8507   23.4693 C   0  0  0  0  0  0  0  0  0  0  0  0
    7.0507  -20.0307   24.0720 C   0  0  0  0  0  0  0  0  0  0  0  0
    8.0760  -19.8003   23.3961 O   0  0  0  0  0  0  0  0  0  0  0  0
    6.3142  -17.8932   22.1146 C   0  0  0  0  0  0  0  0  0  0  0  0
    5.5440  -17.0670   22.6589 O   0  0  0  0  0  0  0  0  0  0  0  0
    7.1720  -20.4534   25.3825 O   0  0  0  0  0  0  0  0  0  0  0  0
    7.5670  -17.5529   21.5673 N   0  0  0  0  0  0  0  0  0  0  0  0
    7.9687  -16.1975   21.4319 C   0  0  0  0  0  0  0  0  0  0  0  0
    8.8221  -15.6909   22.5387 C   0  0  0  0  0  0  0  0  0  0  0  0
    9.4087  -14.5862   22.4109 O   0  0  0  0  0  0  0  0  0  0  0  0
    9.0040  -16.4014   23.7376 N   0  0  0  0  0  0  0  0  0  0  0  0
    9.8897  -16.0141   24.8277 C   0  0  1  0  0  0  0  0  0  0  0  0
    9.1505  -15.9283   26.1167 C   0  0  0  0  0  0  0  0  0  0  0  0
    7.8943  -15.1767   25.9999 C   0  0  0  0  0  0  0  0  0  0  0  0
    6.6507  -15.7214   25.7104 C   0  0  0  0  0  0  0  0  0  0  0  0
    5.7263  -14.7788   25.6467 N   0  0  0  0  0  0  0  0  0  0  0  0
    6.3335  -13.5877   25.8927 C   0  0  0  0  0  0  0  0  0  0  0  0
    5.8549  -12.2926   25.9697 C   0  0  0  0  0  0  0  0  0  0  0  0
    6.6680  -11.2373   26.2575 C   0  0  0  0  0  0  0  0  0  0  0  0
    8.0101  -11.4857   26.4768 C   0  0  0  0  0  0  0  0  0  0  0  0
    8.5429  -12.7550   26.4128 C   0  0  0  0  0  0  0  0  0  0  0  0
    7.6716  -13.8004   26.1145 C   0  0  0  0  0  0  0  0  0  0  0  0
   11.1312  -16.7369   24.9101 C   0  0  0  0  0  0  0  0  0  0  0  0
   11.3175  -17.7310   24.1132 O   0  0  0  0  0  0  0  0  0  0  0  0
   12.1736  -16.4671   25.7699 O   0  0  0  0  0  0  0  0  0  0  0  0
  2  1  1  1
  2  6  1  0
  3  4  1  0
  3  2  1  0
  4  5  2  0
  6  9  1  0
  7  6  2  0
  8  4  1  0
  9 10  1  0
 10 11  1  0
 11 13  1  0
 11 12  2  0
 13 14  1  0
 14 25  1  0
 14 15  1  1
 16 15  1  0
 17 16  2  0
 18 17  1  0
 19 24  2  0
 19 18  1  0
 20 19  1  0
 21 20  2  0
 21 22  1  0
 22 23  2  0
 23 24  1  0
 24 16  1  0
 25 26  2  0
 25 27  1  0
M  END
$$$$
