DGW.pdb
     RDKit          3D

 27 28  0  0  1  0  0  0  0  0999 V2000
   10.1413  -17.9383   18.1138 N   0  0  0  0  0  0  0  0  0  0  0  0
    9.0696  -17.0281   18.4523 C   0  0  1  0  0  0  0  0  0  0  0  0
    7.8197  -17.3600   17.6230 C   0  0  0  0  0  0  0  0  0  0  0  0
    8.1537  -17.2257   16.1914 C   0  0  0  0  0  0  0  0  0  0  0  0
    9.3377  -17.0306   15.8429 O   0  0  0  0  0  0  0  0  0  0  0  0
    8.7344  -17.2310   19.8972 C   0  0  0  0  0  0  0  0  0  0  0  0
    7.9063  -16.4595   20.4368 O   0  0  0  0  0  0  0  0  0  0  0  0
    7.1611  -17.3151   15.2334 O   0  0  0  0  0  0  0  0  0  0  0  0
    9.3751  -18.2881   20.5731 N   0  0  0  0  0  0  0  0  0  0  0  0
    9.1130  -18.5534   21.9434 C   0  0  0  0  0  0  0  0  0  0  0  0
    9.8477  -17.6791   22.8951 C   0  0  0  0  0  0  0  0  0  0  0  0
   10.9632  -17.2038   22.5627 O   0  0  0  0  0  0  0  0  0  0  0  0
    9.3433  -17.3556   24.1664 N   0  0  0  0  0  0  0  0  0  0  0  0
    9.9915  -16.4881   25.1411 C   0  0  1  0  0  0  0  0  0  0  0  0
    9.5946  -15.0671   24.9442 C   0  0  0  0  0  0  0  0  0  0  0  0
    8.2628  -14.7710   25.4876 C   0  0  0  0  0  0  0  0  0  0  0  0
    7.2252  -15.6828   25.6252 C   0  0  0  0  0  0  0  0  0  0  0  0
    6.1469  -15.0991   26.1189 N   0  0  0  0  0  0  0  0  0  0  0  0
    6.4430  -13.7879   26.3209 C   0  0  0  0  0  0  0  0  0  0  0  0
    5.7093  -12.7311   26.8282 C   0  0  0  0  0  0  0  0  0  0  0  0
    6.2372  -11.4814   26.9591 C   0  0  0  0  0  0  0  0  0  0  0  0
    7.5479  -11.2802   26.5685 C   0  0  0  0  0  0  0  0  0  0  0  0
    8.3264  -12.2953   26.0559 C   0  0  0  0  0  0  0  0  0  0  0  0
    7.7414  -13.5545   25.9409 C   0  0  0  0  0  0  0  0  0  0  0  0
    9.9298  -16.9305   26.5089 C   0  0  0  0  0  0  0  0  0  0  0  0
   10.6456  -16.3171   27.3860 O   0  0  0  0  0  0  0  0  0  0  0  0
    9.1598  -17.9647   26.9950 O   0  0  0  0  0  0  0  0  0  0  0  0
  2  1  1  6
  2  6  1  0
  3  4  1  0
  3  2  1  0
  4  5  2  0
  6  9  1  0
  7  6  2  0
  8  4  1  0
  9 10  1  0
 10 11  1  0
 11 13  1  0
 11 12  2  0
 13 14  1  0
 14 25  1  0
 14 15  1  1
 16 15  1  0
 17 16  2  0
 18 17  1  0
 19 24  2  0
 19 18  1  0
 20 19  1  0
 21 20  2  0
 21 22  1  0
 22 23  2  0
 23 24  1  0
 24 16  1  0
 25 26  2  0
 25 27  1  0
M  END
$$$$
