DGW.pdb
     RDKit          3D

 27 28  0  0  1  0  0  0  0  0999 V2000
    8.4690  -16.4383   17.7037 N   0  0  0  0  0  0  0  0  0  0  0  0
    8.7319  -15.1151   18.2245 C   0  0  1  0  0  0  0  0  0  0  0  0
    7.7689  -14.1014   17.5878 C   0  0  0  0  0  0  0  0  0  0  0  0
    8.1568  -13.9036   16.1773 C   0  0  0  0  0  0  0  0  0  0  0  0
    9.1215  -14.5388   15.7008 O   0  0  0  0  0  0  0  0  0  0  0  0
    8.4692  -15.1413   19.6982 C   0  0  0  0  0  0  0  0  0  0  0  0
    8.7140  -14.1122   20.3714 O   0  0  0  0  0  0  0  0  0  0  0  0
    7.4563  -13.0176   15.3803 O   0  0  0  0  0  0  0  0  0  0  0  0
    7.9565  -16.3328   20.2480 N   0  0  0  0  0  0  0  0  0  0  0  0
    7.6463  -16.4332   21.6302 C   0  0  0  0  0  0  0  0  0  0  0  0
    8.8075  -16.2512   22.5404 C   0  0  0  0  0  0  0  0  0  0  0  0
    9.9449  -16.0264   22.0539 O   0  0  0  0  0  0  0  0  0  0  0  0
    8.6883  -16.3196   23.9391 N   0  0  0  0  0  0  0  0  0  0  0  0
    9.7822  -16.1839   24.8918 C   0  0  1  0  0  0  0  0  0  0  0  0
    9.3347  -15.4879   26.1291 C   0  0  0  0  0  0  0  0  0  0  0  0
    8.0172  -14.8570   25.9786 C   0  0  0  0  0  0  0  0  0  0  0  0
    6.8341  -15.5183   25.6782 C   0  0  0  0  0  0  0  0  0  0  0  0
    5.8285  -14.6658   25.5829 N   0  0  0  0  0  0  0  0  0  0  0  0
    6.3194  -13.4202   25.8180 C   0  0  0  0  0  0  0  0  0  0  0  0
    5.7228  -12.1735   25.8645 C   0  0  0  0  0  0  0  0  0  0  0  0
    6.4304  -11.0435   26.1471 C   0  0  0  0  0  0  0  0  0  0  0  0
    7.7855  -11.1639   26.3928 C   0  0  0  0  0  0  0  0  0  0  0  0
    8.4335  -12.3796   26.3597 C   0  0  0  0  0  0  0  0  0  0  0  0
    7.6672  -13.5053   26.0654 C   0  0  0  0  0  0  0  0  0  0  0  0
   10.5502  -17.3763   25.1344 C   0  0  0  0  0  0  0  0  0  0  0  0
   10.0018  -18.5181   24.9032 O   0  0  0  0  0  0  0  0  0  0  0  0
   11.8483  -17.4279   25.5938 O   0  0  0  0  0  0  0  0  0  0  0  0
  2  1  1  6
  2  6  1  0
  3  4  1  0
  3  2  1  0
  4  5  2  0
  6  9  1  0
  7  6  2  0
  8  4  1  0
  9 10  1  0
 10 11  1  0
 11 13  1  0
 11 12  2  0
 13 14  1  0
 14 25  1  0
 14 15  1  1
 16 15  1  0
 17 16  2  0
 18 17  1  0
 19 24  2  0
 19 18  1  0
 20 19  1  0
 21 20  2  0
 21 22  1  0
 22 23  2  0
 23 24  1  0
 24 16  1  0
 25 26  2  0
 25 27  1  0
M  END
$$$$
