DGW.pdb
     RDKit          3D

 27 28  0  0  1  0  0  0  0  0999 V2000
   10.6636  -16.7336   19.5653 N   0  0  0  0  0  0  0  0  0  0  0  0
    9.4612  -16.7690   18.7625 C   0  0  1  0  0  0  0  0  0  0  0  0
    9.4591  -18.0253   17.8784 C   0  0  0  0  0  0  0  0  0  0  0  0
   10.6714  -18.0120   17.0364 C   0  0  0  0  0  0  0  0  0  0  0  0
   11.5084  -17.0929   17.1628 O   0  0  0  0  0  0  0  0  0  0  0  0
    8.2910  -16.8547   19.6924 C   0  0  0  0  0  0  0  0  0  0  0  0
    7.1525  -17.0615   19.2093 O   0  0  0  0  0  0  0  0  0  0  0  0
   10.8851  -19.0131   16.1074 O   0  0  0  0  0  0  0  0  0  0  0  0
    8.5399  -16.6969   21.0701 N   0  0  0  0  0  0  0  0  0  0  0  0
    7.4884  -16.7672   22.0220 C   0  0  0  0  0  0  0  0  0  0  0  0
    7.9296  -16.6871   23.4394 C   0  0  0  0  0  0  0  0  0  0  0  0
    7.2751  -17.2930   24.3256 O   0  0  0  0  0  0  0  0  0  0  0  0
    9.0613  -15.9550   23.8374 N   0  0  0  0  0  0  0  0  0  0  0  0
    9.7719  -16.1106   25.0998 C   0  0  1  0  0  0  0  0  0  0  0  0
    8.8246  -16.1713   26.2463 C   0  0  0  0  0  0  0  0  0  0  0  0
    7.6562  -15.3010   26.0617 C   0  0  0  0  0  0  0  0  0  0  0  0
    6.3819  -15.7232   25.7079 C   0  0  0  0  0  0  0  0  0  0  0  0
    5.5593  -14.6950   25.5935 N   0  0  0  0  0  0  0  0  0  0  0  0
    6.2668  -13.5674   25.8689 C   0  0  0  0  0  0  0  0  0  0  0  0
    5.9144  -12.2311   25.9180 C   0  0  0  0  0  0  0  0  0  0  0  0
    6.8111  -11.2586   26.2463 C   0  0  0  0  0  0  0  0  0  0  0  0
    8.1089  -11.6358   26.5368 C   0  0  0  0  0  0  0  0  0  0  0  0
    8.5170  -12.9516   26.5036 C   0  0  0  0  0  0  0  0  0  0  0  0
    7.5640  -13.9087   26.1616 C   0  0  0  0  0  0  0  0  0  0  0  0
   10.7872  -17.1300   25.1230 C   0  0  0  0  0  0  0  0  0  0  0  0
   10.9600  -17.8493   24.0691 O   0  0  0  0  0  0  0  0  0  0  0  0
   11.6220  -17.4221   26.1796 O   0  0  0  0  0  0  0  0  0  0  0  0
  2  1  1  1
  2  6  1  0
  3  4  1  0
  3  2  1  0
  4  5  2  0
  6  9  1  0
  7  6  2  0
  8  4  1  0
  9 10  1  0
 10 11  1  0
 11 13  1  0
 11 12  2  0
 13 14  1  0
 14 25  1  0
 14 15  1  1
 16 15  1  0
 17 16  2  0
 18 17  1  0
 19 24  2  0
 19 18  1  0
 20 19  1  0
 21 20  2  0
 21 22  1  0
 22 23  2  0
 23 24  1  0
 24 16  1  0
 25 26  2  0
 25 27  1  0
M  END
$$$$
