DGW.pdb
     RDKit          3D

 27 28  0  0  1  0  0  0  0  0999 V2000
   10.9638  -19.2130   19.3792 N   0  0  0  0  0  0  0  0  0  0  0  0
   10.3958  -18.1526   18.5766 C   0  0  1  0  0  0  0  0  0  0  0  0
    9.4493  -18.7448   17.5213 C   0  0  0  0  0  0  0  0  0  0  0  0
   10.2373  -19.0924   16.3225 C   0  0  0  0  0  0  0  0  0  0  0  0
   11.4827  -19.1630   16.3938 O   0  0  0  0  0  0  0  0  0  0  0  0
    9.5892  -17.2739   19.4816 C   0  0  0  0  0  0  0  0  0  0  0  0
    9.1108  -16.2113   19.0188 O   0  0  0  0  0  0  0  0  0  0  0  0
    9.6025  -19.3407   15.1199 O   0  0  0  0  0  0  0  0  0  0  0  0
    9.4128  -17.6968   20.8138 N   0  0  0  0  0  0  0  0  0  0  0  0
    8.6738  -16.9175   21.7429 C   0  0  0  0  0  0  0  0  0  0  0  0
    9.4562  -16.4443   22.9151 C   0  0  0  0  0  0  0  0  0  0  0  0
   10.4931  -15.7579   22.7297 O   0  0  0  0  0  0  0  0  0  0  0  0
    9.0825  -16.7338   24.2386 N   0  0  0  0  0  0  0  0  0  0  0  0
    9.8316  -16.3635   25.4322 C   0  0  1  0  0  0  0  0  0  0  0  0
    8.9288  -16.1978   26.6040 C   0  0  0  0  0  0  0  0  0  0  0  0
    7.7602  -15.3605   26.3042 C   0  0  0  0  0  0  0  0  0  0  0  0
    6.5419  -15.8169   25.8199 C   0  0  0  0  0  0  0  0  0  0  0  0
    5.7053  -14.8122   25.6260 N   0  0  0  0  0  0  0  0  0  0  0  0
    6.3473  -13.6666   25.9771 C   0  0  0  0  0  0  0  0  0  0  0  0
    5.9524  -12.3414   25.9952 C   0  0  0  0  0  0  0  0  0  0  0  0
    6.7816  -11.3457   26.4177 C   0  0  0  0  0  0  0  0  0  0  0  0
    8.0535  -11.6871   26.8381 C   0  0  0  0  0  0  0  0  0  0  0  0
    8.5016  -12.9903   26.8414 C   0  0  0  0  0  0  0  0  0  0  0  0
    7.6172  -13.9722   26.3997 C   0  0  0  0  0  0  0  0  0  0  0  0
   11.0049  -17.1515   25.7022 C   0  0  0  0  0  0  0  0  0  0  0  0
   11.0680  -18.3444   25.2217 O   0  0  0  0  0  0  0  0  0  0  0  0
   12.1016  -16.7522   26.4347 O   0  0  0  0  0  0  0  0  0  0  0  0
  2  1  1  1
  2  6  1  0
  3  4  1  0
  3  2  1  0
  4  5  2  0
  6  9  1  0
  7  6  2  0
  8  4  1  0
  9 10  1  0
 10 11  1  0
 11 13  1  0
 11 12  2  0
 13 14  1  0
 14 25  1  0
 14 15  1  1
 16 15  1  0
 17 16  2  0
 18 17  1  0
 19 24  2  0
 19 18  1  0
 20 19  1  0
 21 20  2  0
 21 22  1  0
 22 23  2  0
 23 24  1  0
 24 16  1  0
 25 26  2  0
 25 27  1  0
M  END
$$$$
