DGW.pdb
     RDKit          3D

 27 28  0  0  1  0  0  0  0  0999 V2000
   -3.3940  -25.8519   25.3356 N   0  0  0  0  0  0  0  0  0  0  0  0
   -4.5708  -25.2435   24.7558 C   0  0  1  0  0  0  0  0  0  0  0  0
   -4.9364  -25.9563   23.4448 C   0  0  0  0  0  0  0  0  0  0  0  0
   -3.9791  -25.5430   22.4000 C   0  0  0  0  0  0  0  0  0  0  0  0
   -2.8621  -26.0975   22.3231 O   0  0  0  0  0  0  0  0  0  0  0  0
   -5.7041  -25.4296   25.7162 C   0  0  0  0  0  0  0  0  0  0  0  0
   -6.7921  -24.8520   25.4819 O   0  0  0  0  0  0  0  0  0  0  0  0
   -4.3136  -24.5440   21.5049 O   0  0  0  0  0  0  0  0  0  0  0  0
   -5.4798  -26.2515   26.8382 N   0  0  0  0  0  0  0  0  0  0  0  0
   -6.5059  -26.4978   27.7886 C   0  0  0  0  0  0  0  0  0  0  0  0
   -6.8681  -25.3249   28.6271 C   0  0  0  0  0  0  0  0  0  0  0  0
   -6.0149  -24.8399   29.4129 O   0  0  0  0  0  0  0  0  0  0  0  0
   -8.1387  -24.7261   28.5788 N   0  0  0  0  0  0  0  0  0  0  0  0
   -8.5865  -23.6173   29.4112 C   0  0  1  0  0  0  0  0  0  0  0  0
   -9.0785  -22.4851   28.5797 C   0  0  0  0  0  0  0  0  0  0  0  0
   -8.0671  -21.9963   27.6337 C   0  0  0  0  0  0  0  0  0  0  0  0
   -8.1387  -22.0967   26.2509 C   0  0  0  0  0  0  0  0  0  0  0  0
   -7.0582  -21.5878   25.6847 N   0  0  0  0  0  0  0  0  0  0  0  0
   -6.2451  -21.1377   26.6768 C   0  0  0  0  0  0  0  0  0  0  0  0
   -5.0143  -20.5073   26.6632 C   0  0  0  0  0  0  0  0  0  0  0  0
   -4.3873  -20.1211   27.8100 C   0  0  0  0  0  0  0  0  0  0  0  0
   -5.0139  -20.3740   29.0159 C   0  0  0  0  0  0  0  0  0  0  0  0
   -6.2399  -20.9989   29.0905 C   0  0  0  0  0  0  0  0  0  0  0  0
   -6.8402  -21.3755   27.8909 C   0  0  0  0  0  0  0  0  0  0  0  0
   -9.4585  -23.9674   30.5010 C   0  0  0  0  0  0  0  0  0  0  0  0
  -10.2966  -23.0865   30.9247 O   0  0  0  0  0  0  0  0  0  0  0  0
   -9.4983  -25.1806   31.1530 O   0  0  0  0  0  0  0  0  0  0  0  0
  2  1  1  1
  2  6  1  0
  3  4  1  0
  3  2  1  0
  4  5  2  0
  6  9  1  0
  7  6  2  0
  8  4  1  0
  9 10  1  0
 10 11  1  0
 11 13  1  0
 11 12  2  0
 13 14  1  0
 14 25  1  0
 14 15  1  6
 16 15  1  0
 17 16  2  0
 18 17  1  0
 19 24  2  0
 19 18  1  0
 20 19  1  0
 21 20  2  0
 21 22  1  0
 22 23  2  0
 23 24  1  0
 24 16  1  0
 25 26  2  0
 25 27  1  0
M  END
$$$$
