DGW.pdb
     RDKit          3D

 27 28  0  0  1  0  0  0  0  0999 V2000
    9.8352  -13.5521   18.2357 N   0  0  0  0  0  0  0  0  0  0  0  0
    8.5944  -13.3622   18.9540 C   0  0  1  0  0  0  0  0  0  0  0  0
    7.4063  -13.4874   17.9881 C   0  0  0  0  0  0  0  0  0  0  0  0
    7.7841  -14.3997   16.8909 C   0  0  0  0  0  0  0  0  0  0  0  0
    8.9897  -14.6372   16.6646 O   0  0  0  0  0  0  0  0  0  0  0  0
    8.4815  -14.4545   19.9716 C   0  0  0  0  0  0  0  0  0  0  0  0
    7.5547  -14.3982   20.8142 O   0  0  0  0  0  0  0  0  0  0  0  0
    6.8086  -14.9933   16.1118 O   0  0  0  0  0  0  0  0  0  0  0  0
    9.4326  -15.4926   19.9223 N   0  0  0  0  0  0  0  0  0  0  0  0
    9.4041  -16.5636   20.8545 C   0  0  0  0  0  0  0  0  0  0  0  0
   10.0551  -16.2678   22.1578 C   0  0  0  0  0  0  0  0  0  0  0  0
   11.2108  -15.7731   22.1732 O   0  0  0  0  0  0  0  0  0  0  0  0
    9.4270  -16.5196   23.3896 N   0  0  0  0  0  0  0  0  0  0  0  0
    9.9596  -16.1719   24.7005 C   0  0  1  0  0  0  0  0  0  0  0  0
    9.7012  -14.7422   25.0241 C   0  0  0  0  0  0  0  0  0  0  0  0
    8.2989  -14.4862   25.3768 C   0  0  0  0  0  0  0  0  0  0  0  0
    7.2517  -15.3858   25.2305 C   0  0  0  0  0  0  0  0  0  0  0  0
    6.1078  -14.8438   25.6112 N   0  0  0  0  0  0  0  0  0  0  0  0
    6.3683  -13.5736   26.0193 C   0  0  0  0  0  0  0  0  0  0  0  0
    5.5628  -12.5711   26.5278 C   0  0  0  0  0  0  0  0  0  0  0  0
    6.0636  -11.3583   26.8962 C   0  0  0  0  0  0  0  0  0  0  0  0
    7.4207  -11.1389   26.7511 C   0  0  0  0  0  0  0  0  0  0  0  0
    8.2714  -12.1003   26.2499 C   0  0  0  0  0  0  0  0  0  0  0  0
    7.7117  -13.3234   25.8866 C   0  0  0  0  0  0  0  0  0  0  0  0
    9.6368  -17.0825   25.7669 C   0  0  0  0  0  0  0  0  0  0  0  0
   10.2836  -16.9842   26.8759 O   0  0  0  0  0  0  0  0  0  0  0  0
    8.6780  -18.0714   25.7293 O   0  0  0  0  0  0  0  0  0  0  0  0
  2  1  1  6
  2  6  1  0
  3  4  1  0
  3  2  1  0
  4  5  2  0
  6  9  1  0
  7  6  2  0
  8  4  1  0
  9 10  1  0
 10 11  1  0
 11 13  1  0
 11 12  2  0
 13 14  1  0
 14 25  1  0
 14 15  1  1
 16 15  1  0
 17 16  2  0
 18 17  1  0
 19 24  2  0
 19 18  1  0
 20 19  1  0
 21 20  2  0
 21 22  1  0
 22 23  2  0
 23 24  1  0
 24 16  1  0
 25 26  2  0
 25 27  1  0
M  END
$$$$
