SIG.pdb
     RDKit          3D

 19 18  0  0  1  0  0  0  0  0999 V2000
    7.2742  -17.0830   21.8910 O   0  0  0  0  0  0  0  0  0  0  0  0
    6.3652  -16.0503   21.5777 C   0  0  0  0  0  0  0  0  0  0  0  0
    7.2043  -14.7662   21.5218 C   0  0  2  0  0  0  0  0  0  0  0  0
    8.2116  -14.9587   20.5401 N   0  0  0  0  0  0  0  0  0  0  0  0
    7.8756  -14.6143   22.8420 C   0  0  0  0  0  0  0  0  0  0  0  0
    9.1328  -14.7436   22.9783 O   0  0  0  0  0  0  0  0  0  0  0  0
    5.9184  -11.0358   26.4846 C   0  0  0  0  0  0  0  0  0  0  0  0
    6.8453  -11.8193   25.5787 C   0  0  0  0  0  0  0  0  0  0  0  0
    7.0228  -13.1912   26.1832 C   0  0  2  0  0  0  0  0  0  0  0  0
    7.7810  -13.0437   27.4816 C   0  0  0  0  0  0  0  0  0  0  0  0
    7.7709  -14.1285   25.2749 C   0  0  2  0  0  0  0  0  0  0  0  0
    7.1170  -14.3153   24.0073 N   0  0  0  0  0  0  0  0  0  0  0  0
    7.9930  -15.4140   25.9830 C   0  0  0  0  0  0  0  0  0  0  0  0
    8.6457  -15.4269   27.0568 O   0  0  0  0  0  0  0  0  0  0  0  0
    7.4741  -16.6371   25.4590 N   0  0  0  0  0  0  0  0  0  0  0  0
    7.5299  -17.8042   26.3126 C   0  0  0  0  0  0  0  0  0  0  0  0
    8.8982  -18.3827   26.3277 C   0  0  0  0  0  0  0  0  0  0  0  0
    9.1166  -19.5431   27.0417 O   0  0  0  0  0  0  0  0  0  0  0  0
    9.8587  -17.8566   25.7172 O   0  0  0  0  0  0  0  0  0  0  0  0
  2  1  1  0
  3  4  1  6
  3  2  1  0
  5  6  2  0
  5  3  1  0
  8  7  1  0
  8  9  1  0
  9 11  1  0
  9 10  1  1
 11 13  1  0
 11 12  1  6
 12  5  1  0
 13 15  1  0
 14 13  2  0
 15 16  1  0
 16 17  1  0
 17 19  2  0
 17 18  1  0
M  END
$$$$
