SIG.pdb
     RDKit          3D

 19 18  0  0  1  0  0  0  0  0999 V2000
    7.6317  -19.5881   25.2091 O   0  0  0  0  0  0  0  0  0  0  0  0
    6.5622  -19.0677   25.9684 C   0  0  0  0  0  0  0  0  0  0  0  0
    5.7535  -18.1965   24.9972 C   0  0  2  0  0  0  0  0  0  0  0  0
    5.5644  -18.9483   23.8079 N   0  0  0  0  0  0  0  0  0  0  0  0
    6.5886  -17.0108   24.6607 C   0  0  0  0  0  0  0  0  0  0  0  0
    7.2504  -16.9373   23.5778 O   0  0  0  0  0  0  0  0  0  0  0  0
    5.7017  -12.1285   27.1529 C   0  0  0  0  0  0  0  0  0  0  0  0
    5.9471  -13.1099   26.0259 C   0  0  0  0  0  0  0  0  0  0  0  0
    7.3531  -13.6382   26.1782 C   0  0  2  0  0  0  0  0  0  0  0  0
    8.3172  -12.5394   25.7970 C   0  0  0  0  0  0  0  0  0  0  0  0
    7.6111  -14.8457   25.3187 C   0  0  2  0  0  0  0  0  0  0  0  0
    6.6712  -15.9086   25.5557 N   0  0  0  0  0  0  0  0  0  0  0  0
    9.0145  -15.2878   25.5141 C   0  0  0  0  0  0  0  0  0  0  0  0
    9.4038  -15.6312   26.6586 O   0  0  0  0  0  0  0  0  0  0  0  0
    9.9283  -15.3279   24.4173 N   0  0  0  0  0  0  0  0  0  0  0  0
   11.2848  -15.7481   24.6956 C   0  0  0  0  0  0  0  0  0  0  0  0
   12.1198  -15.6845   23.4684 C   0  0  0  0  0  0  0  0  0  0  0  0
   11.4891  -15.5869   22.2451 O   0  0  0  0  0  0  0  0  0  0  0  0
   13.3727  -15.7162   23.5040 O   0  0  0  0  0  0  0  0  0  0  0  0
  2  1  1  0
  3  4  1  6
  3  2  1  0
  5  6  2  0
  5  3  1  0
  8  7  1  0
  8  9  1  0
  9 11  1  0
  9 10  1  6
 11 13  1  0
 11 12  1  1
 12  5  1  0
 13 15  1  0
 14 13  2  0
 15 16  1  0
 16 17  1  0
 17 19  2  0
 17 18  1  0
M  END
$$$$
