SIG.pdb
     RDKit          3D

 19 18  0  0  1  0  0  0  0  0999 V2000
    9.4834  -19.5415   16.1833 O   0  0  0  0  0  0  0  0  0  0  0  0
    8.5421  -18.7291   16.8503 C   0  0  0  0  0  0  0  0  0  0  0  0
    8.8513  -17.2924   16.4073 C   0  0  2  0  0  0  0  0  0  0  0  0
    9.8532  -17.3627   15.4041 N   0  0  0  0  0  0  0  0  0  0  0  0
    9.4275  -16.5784   17.5798 C   0  0  0  0  0  0  0  0  0  0  0  0
   10.6812  -16.5106   17.7789 O   0  0  0  0  0  0  0  0  0  0  0  0
    6.8039  -12.2138   19.7196 C   0  0  0  0  0  0  0  0  0  0  0  0
    7.8622  -13.1205   19.1268 C   0  0  0  0  0  0  0  0  0  0  0  0
    8.2092  -14.1584   20.1667 C   0  0  2  0  0  0  0  0  0  0  0  0
    8.8656  -13.4598   21.3344 C   0  0  0  0  0  0  0  0  0  0  0  0
    9.1368  -15.2175   19.6364 C   0  0  2  0  0  0  0  0  0  0  0  0
    8.5779  -15.9414   18.5260 N   0  0  0  0  0  0  0  0  0  0  0  0
    9.5293  -16.1182   20.7490 C   0  0  0  0  0  0  0  0  0  0  0  0
    8.6485  -16.7841   21.3491 O   0  0  0  0  0  0  0  0  0  0  0  0
   10.8958  -16.2376   21.1463 N   0  0  0  0  0  0  0  0  0  0  0  0
   11.1981  -17.1527   22.2258 C   0  0  0  0  0  0  0  0  0  0  0  0
   12.2117  -16.5711   23.1432 C   0  0  0  0  0  0  0  0  0  0  0  0
   12.2251  -16.9845   24.4595 O   0  0  0  0  0  0  0  0  0  0  0  0
   13.0526  -15.7211   22.7659 O   0  0  0  0  0  0  0  0  0  0  0  0
  2  1  1  0
  3  4  1  6
  3  2  1  0
  5  6  2  0
  5  3  1  0
  8  7  1  0
  8  9  1  0
  9 11  1  0
  9 10  1  1
 11 13  1  0
 11 12  1  6
 12  5  1  0
 13 15  1  0
 14 13  2  0
 15 16  1  0
 16 17  1  0
 17 19  2  0
 17 18  1  0
M  END
$$$$
