SIG.pdb
     RDKit          3D

 19 18  0  0  1  0  0  0  0  0999 V2000
    7.5384  -16.5831   20.8887 O   0  0  0  0  0  0  0  0  0  0  0  0
    6.3925  -15.7640   20.9713 C   0  0  0  0  0  0  0  0  0  0  0  0
    6.9205  -14.3254   21.0608 C   0  0  2  0  0  0  0  0  0  0  0  0
    7.8089  -14.1297   19.9711 N   0  0  0  0  0  0  0  0  0  0  0  0
    7.7092  -14.2175   22.3190 C   0  0  0  0  0  0  0  0  0  0  0  0
    8.9777  -14.3003   22.3290 O   0  0  0  0  0  0  0  0  0  0  0  0
    5.6896  -11.3488   26.5104 C   0  0  0  0  0  0  0  0  0  0  0  0
    6.6427  -11.8668   25.4535 C   0  0  0  0  0  0  0  0  0  0  0  0
    7.1072  -13.2357   25.8888 C   0  0  2  0  0  0  0  0  0  0  0  0
    8.0472  -13.0683   27.0596 C   0  0  0  0  0  0  0  0  0  0  0  0
    7.8120  -13.9817   24.7888 C   0  0  2  0  0  0  0  0  0  0  0  0
    7.0554  -14.0152   23.5657 N   0  0  0  0  0  0  0  0  0  0  0  0
    8.1552  -15.3432   25.2701 C   0  0  0  0  0  0  0  0  0  0  0  0
    7.2360  -16.1446   25.5737 O   0  0  0  0  0  0  0  0  0  0  0  0
    9.5175  -15.7541   25.3926 N   0  0  0  0  0  0  0  0  0  0  0  0
    9.7682  -17.1437   25.7087 C   0  0  0  0  0  0  0  0  0  0  0  0
   10.2694  -17.2870   27.1000 C   0  0  0  0  0  0  0  0  0  0  0  0
   10.5165  -18.5547   27.5854 O   0  0  0  0  0  0  0  0  0  0  0  0
   10.4751  -16.3010   27.8466 O   0  0  0  0  0  0  0  0  0  0  0  0
  2  1  1  0
  3  4  1  6
  3  2  1  0
  5  6  2  0
  5  3  1  0
  8  7  1  0
  8  9  1  0
  9 11  1  0
  9 10  1  1
 11 13  1  0
 11 12  1  6
 12  5  1  0
 13 15  1  0
 14 13  2  0
 15 16  1  0
 16 17  1  0
 17 19  2  0
 17 18  1  0
M  END
$$$$
