SIG.pdb
     RDKit          3D

 19 18  0  0  1  0  0  0  0  0999 V2000
    7.0487  -19.1825   25.4701 O   0  0  0  0  0  0  0  0  0  0  0  0
    6.7755  -19.1112   24.0876 C   0  0  0  0  0  0  0  0  0  0  0  0
    5.8661  -17.8873   23.9104 C   0  0  2  0  0  0  0  0  0  0  0  0
    5.3289  -17.9430   22.5977 N   0  0  0  0  0  0  0  0  0  0  0  0
    6.7264  -16.6756   24.0015 C   0  0  0  0  0  0  0  0  0  0  0  0
    7.4590  -16.2943   23.0350 O   0  0  0  0  0  0  0  0  0  0  0  0
    5.5150  -11.9983   26.8489 C   0  0  0  0  0  0  0  0  0  0  0  0
    6.0488  -12.8543   25.7194 C   0  0  0  0  0  0  0  0  0  0  0  0
    7.1317  -13.7387   26.2890 C   0  0  2  0  0  0  0  0  0  0  0  0
    8.2846  -12.8617   26.7178 C   0  0  0  0  0  0  0  0  0  0  0  0
    7.6244  -14.7573   25.2975 C   0  0  2  0  0  0  0  0  0  0  0  0
    6.7536  -15.8974   25.1916 N   0  0  0  0  0  0  0  0  0  0  0  0
    9.0122  -15.1461   25.6525 C   0  0  0  0  0  0  0  0  0  0  0  0
    9.9346  -14.2962   25.5740 O   0  0  0  0  0  0  0  0  0  0  0  0
    9.3127  -16.4746   26.0821 N   0  0  0  0  0  0  0  0  0  0  0  0
   10.6807  -16.7598   26.4576 C   0  0  0  0  0  0  0  0  0  0  0  0
   10.8107  -18.1506   26.9637 C   0  0  0  0  0  0  0  0  0  0  0  0
   12.0232  -18.5528   27.4850 O   0  0  0  0  0  0  0  0  0  0  0  0
    9.8616  -18.9693   26.9345 O   0  0  0  0  0  0  0  0  0  0  0  0
  2  1  1  0
  3  4  1  6
  3  2  1  0
  5  6  2  0
  5  3  1  0
  8  7  1  0
  8  9  1  0
  9 11  1  0
  9 10  1  6
 11 13  1  0
 11 12  1  1
 12  5  1  0
 13 15  1  0
 14 13  2  0
 15 16  1  0
 16 17  1  0
 17 19  2  0
 17 18  1  0
M  END
$$$$
