DYL.pdb
     RDKit          3D

 29 29  0  0  1  0  0  0  0  0999 V2000
    8.5622  -19.9644   21.3207 N   0  0  0  0  0  0  0  0  0  0  0  0
    9.1777  -18.6874   21.6233 C   0  0  1  0  0  0  0  0  0  0  0  0
    8.9190  -17.7607   20.4515 C   0  0  0  0  0  0  0  0  0  0  0  0
   10.1241  -17.5933   19.6143 C   0  0  0  0  0  0  0  0  0  0  0  0
   11.2375  -18.0910   19.8507 O   0  0  0  0  0  0  0  0  0  0  0  0
    8.5621  -18.1219   22.8458 C   0  0  0  0  0  0  0  0  0  0  0  0
    7.3660  -17.7655   22.8854 O   0  0  0  0  0  0  0  0  0  0  0  0
   10.0042  -16.8138   18.4653 O   0  0  0  0  0  0  0  0  0  0  0  0
    6.1282  -23.2029   26.5932 O   0  0  0  0  0  0  0  0  0  0  0  0
    6.8923  -22.0509   26.5403 C   0  0  0  0  0  0  0  0  0  0  0  0
    8.1461  -22.0053   25.9749 C   0  0  0  0  0  0  0  0  0  0  0  0
    8.8877  -20.8433   25.9350 C   0  0  0  0  0  0  0  0  0  0  0  0
    8.4009  -19.6849   26.4597 C   0  0  0  0  0  0  0  0  0  0  0  0
    9.1190  -18.3942   26.4635 C   0  0  0  0  0  0  0  0  0  0  0  0
    8.7965  -17.5219   25.2884 C   0  0  2  0  0  0  0  0  0  0  0  0
    9.3087  -17.9557   24.0446 N   0  0  0  0  0  0  0  0  0  0  0  0
    9.3236  -16.1666   25.5904 C   0  0  0  0  0  0  0  0  0  0  0  0
   10.5307  -15.9349   25.3451 O   0  0  0  0  0  0  0  0  0  0  0  0
    7.1415  -19.7159   27.0315 C   0  0  0  0  0  0  0  0  0  0  0  0
    6.3823  -20.8836   27.0781 C   0  0  0  0  0  0  0  0  0  0  0  0
    5.9127  -11.8164   26.0914 C   0  0  0  0  0  0  0  0  0  0  0  0
    7.1128  -12.6520   25.7471 C   0  0  1  0  0  0  0  0  0  0  0  0
    7.7802  -12.0833   24.5089 C   0  0  0  0  0  0  0  0  0  0  0  0
    8.0206  -12.9664   26.8417 C   0  0  0  0  0  0  0  0  0  0  0  0
    9.1505  -13.8919   26.7136 C   0  0  2  0  0  0  0  0  0  0  0  0
    8.5497  -15.1311   26.1340 N   0  0  0  0  0  0  0  0  0  0  0  0
    9.8940  -14.3139   27.8824 C   0  0  0  0  0  0  0  0  0  0  0  0
   10.6890  -13.5113   28.4713 O   0  0  0  0  0  0  0  0  0  0  0  0
    9.8433  -15.5767   28.4927 O   0  0  0  0  0  0  0  0  0  0  0  0
  2  1  1  6
  3  2  1  0
  4  3  1  0
  5  4  2  0
  6  2  1  0
  7  6  2  0
  8  4  1  0
  9 10  1  0
 10 11  2  0
 11 12  1  0
 13 12  2  0
 13 14  1  0
 15 14  1  1
 15 17  1  0
 15 16  1  0
 16  6  1  0
 17 18  2  0
 19 13  1  0
 20 10  1  0
 20 19  2  0
 22 21  1  1
 23 22  1  0
 24 22  1  0
 25 24  1  1
 26 25  1  0
 26 17  1  0
 27 25  1  0
 27 29  1  0
 28 27  2  0
M  END
$$$$
