DYL.pdb
     RDKit          3D

 29 29  0  0  1  0  0  0  0  0999 V2000
    8.2485  -18.9580   21.5445 N   0  0  0  0  0  0  0  0  0  0  0  0
    9.6128  -18.7737   21.0909 C   0  0  1  0  0  0  0  0  0  0  0  0
    9.6000  -18.7777   19.5748 C   0  0  0  0  0  0  0  0  0  0  0  0
    9.1438  -20.0758   19.0382 C   0  0  0  0  0  0  0  0  0  0  0  0
    8.7603  -21.0402   19.7210 O   0  0  0  0  0  0  0  0  0  0  0  0
   10.1213  -17.4706   21.5775 C   0  0  0  0  0  0  0  0  0  0  0  0
   11.1961  -16.9816   21.1714 O   0  0  0  0  0  0  0  0  0  0  0  0
    9.1428  -20.2334   17.6536 O   0  0  0  0  0  0  0  0  0  0  0  0
    6.7312  -13.1178   17.8887 O   0  0  0  0  0  0  0  0  0  0  0  0
    7.2463  -13.3989   19.1412 C   0  0  0  0  0  0  0  0  0  0  0  0
    8.3532  -12.7659   19.6588 C   0  0  0  0  0  0  0  0  0  0  0  0
    8.8470  -13.0648   20.9113 C   0  0  0  0  0  0  0  0  0  0  0  0
    8.2506  -14.0085   21.6909 C   0  0  0  0  0  0  0  0  0  0  0  0
    8.7051  -14.3958   23.0418 C   0  0  0  0  0  0  0  0  0  0  0  0
    9.7811  -15.4389   23.0395 C   0  0  2  0  0  0  0  0  0  0  0  0
    9.4049  -16.7059   22.5387 N   0  0  0  0  0  0  0  0  0  0  0  0
   10.2533  -15.5852   24.4400 C   0  0  0  0  0  0  0  0  0  0  0  0
   11.0638  -14.7369   24.8809 O   0  0  0  0  0  0  0  0  0  0  0  0
    7.1367  -14.6533   21.1834 C   0  0  0  0  0  0  0  0  0  0  0  0
    6.6280  -14.3602   19.9195 C   0  0  0  0  0  0  0  0  0  0  0  0
   10.9106  -13.8234   27.8435 C   0  0  0  0  0  0  0  0  0  0  0  0
    9.8577  -14.7624   28.3600 C   0  0  1  0  0  0  0  0  0  0  0  0
    8.7601  -13.9613   29.0351 C   0  0  0  0  0  0  0  0  0  0  0  0
    9.3884  -15.7840   27.4342 C   0  0  0  0  0  0  0  0  0  0  0  0
   10.2831  -16.7028   26.7238 C   0  0  2  0  0  0  0  0  0  0  0  0
    9.8454  -16.6169   25.2978 N   0  0  0  0  0  0  0  0  0  0  0  0
   10.3053  -18.1127   27.0535 C   0  0  0  0  0  0  0  0  0  0  0  0
    9.5308  -18.9311   26.4589 O   0  0  0  0  0  0  0  0  0  0  0  0
   11.1292  -18.7347   28.0042 O   0  0  0  0  0  0  0  0  0  0  0  0
  2  1  1  1
  3  2  1  0
  4  3  1  0
  5  4  2  0
  6  2  1  0
  7  6  2  0
  8  4  1  0
  9 10  1  0
 10 11  2  0
 11 12  1  0
 13 12  2  0
 13 14  1  0
 15 14  1  1
 15 17  1  0
 15 16  1  0
 16  6  1  0
 17 18  2  0
 19 13  1  0
 20 10  1  0
 20 19  2  0
 22 21  1  6
 23 22  1  0
 24 22  1  0
 25 24  1  1
 26 25  1  0
 26 17  1  0
 27 25  1  0
 27 29  1  0
 28 27  2  0
M  END
$$$$
