DYL.pdb
     RDKit          3D

 29 29  0  0  1  0  0  0  0  0999 V2000
   10.7246  -17.2511   19.2669 N   0  0  0  0  0  0  0  0  0  0  0  0
   11.5583  -17.4566   20.4347 C   0  0  1  0  0  0  0  0  0  0  0  0
   12.9756  -17.0649   20.0652 C   0  0  0  0  0  0  0  0  0  0  0  0
   13.5443  -17.9751   19.0507 C   0  0  0  0  0  0  0  0  0  0  0  0
   13.4941  -19.2157   19.0903 O   0  0  0  0  0  0  0  0  0  0  0  0
   11.0791  -16.5940   21.5391 C   0  0  0  0  0  0  0  0  0  0  0  0
   11.4722  -15.4175   21.6838 O   0  0  0  0  0  0  0  0  0  0  0  0
   14.1903  -17.3969   17.9596 O   0  0  0  0  0  0  0  0  0  0  0  0
    5.8112  -12.4740   27.1087 O   0  0  0  0  0  0  0  0  0  0  0  0
    6.3736  -13.3463   26.1942 C   0  0  0  0  0  0  0  0  0  0  0  0
    7.0703  -12.9263   25.0842 C   0  0  0  0  0  0  0  0  0  0  0  0
    7.6215  -13.8170   24.1872 C   0  0  0  0  0  0  0  0  0  0  0  0
    7.4951  -15.1606   24.3690 C   0  0  0  0  0  0  0  0  0  0  0  0
    8.0496  -16.1891   23.4655 C   0  0  0  0  0  0  0  0  0  0  0  0
    9.5430  -16.2995   23.5227 C   0  0  2  0  0  0  0  0  0  0  0  0
   10.1403  -17.0665   22.4969 N   0  0  0  0  0  0  0  0  0  0  0  0
    9.8892  -16.8889   24.8412 C   0  0  0  0  0  0  0  0  0  0  0  0
    9.9799  -18.1363   24.9242 O   0  0  0  0  0  0  0  0  0  0  0  0
    6.7971  -15.5974   25.4808 C   0  0  0  0  0  0  0  0  0  0  0  0
    6.2355  -14.7075   26.3944 C   0  0  0  0  0  0  0  0  0  0  0  0
    9.5908  -13.5748   29.2447 C   0  0  0  0  0  0  0  0  0  0  0  0
    9.8693  -14.3995   28.0202 C   0  0  1  0  0  0  0  0  0  0  0  0
   10.3841  -13.4963   26.9150 C   0  0  0  0  0  0  0  0  0  0  0  0
   10.6380  -15.6201   28.2206 C   0  0  0  0  0  0  0  0  0  0  0  0
   10.6657  -16.7247   27.2570 C   0  0  2  0  0  0  0  0  0  0  0  0
   10.1203  -16.1317   25.9986 N   0  0  0  0  0  0  0  0  0  0  0  0
    9.9023  -17.9316   27.4967 C   0  0  0  0  0  0  0  0  0  0  0  0
   10.2235  -18.7272   28.4385 O   0  0  0  0  0  0  0  0  0  0  0  0
    8.7759  -18.3630   26.7793 O   0  0  0  0  0  0  0  0  0  0  0  0
  2  1  1  6
  3  2  1  0
  4  3  1  0
  5  4  2  0
  6  2  1  0
  7  6  2  0
  8  4  1  0
  9 10  1  0
 10 11  2  0
 11 12  1  0
 13 12  2  0
 13 14  1  0
 15 14  1  6
 15 17  1  0
 15 16  1  0
 16  6  1  0
 17 18  2  0
 19 13  1  0
 20 10  1  0
 20 19  2  0
 22 21  1  1
 23 22  1  0
 24 22  1  0
 25 24  1  1
 26 25  1  0
 26 17  1  0
 27 25  1  0
 27 29  1  0
 28 27  2  0
M  END
$$$$
