DYL.pdb
     RDKit          3D

 29 29  0  0  1  0  0  0  0  0999 V2000
   10.2529  -18.9221   21.5812 N   0  0  0  0  0  0  0  0  0  0  0  0
   11.3700  -18.0680   21.2294 C   0  0  1  0  0  0  0  0  0  0  0  0
   11.2724  -17.7671   19.7467 C   0  0  0  0  0  0  0  0  0  0  0  0
   11.6496  -18.9373   18.9284 C   0  0  0  0  0  0  0  0  0  0  0  0
   11.9285  -20.0637   19.3718 O   0  0  0  0  0  0  0  0  0  0  0  0
   11.2838  -16.8042   21.9968 C   0  0  0  0  0  0  0  0  0  0  0  0
   12.2453  -16.0125   22.0862 O   0  0  0  0  0  0  0  0  0  0  0  0
   11.6969  -18.7657   17.5462 O   0  0  0  0  0  0  0  0  0  0  0  0
    6.5938  -13.5232   18.0460 O   0  0  0  0  0  0  0  0  0  0  0  0
    7.0688  -13.7665   19.3222 C   0  0  0  0  0  0  0  0  0  0  0  0
    7.8556  -12.8747   20.0146 C   0  0  0  0  0  0  0  0  0  0  0  0
    8.3166  -13.1415   21.2867 C   0  0  0  0  0  0  0  0  0  0  0  0
    8.0065  -14.3109   21.9116 C   0  0  0  0  0  0  0  0  0  0  0  0
    8.4519  -14.6848   23.2693 C   0  0  0  0  0  0  0  0  0  0  0  0
    9.8609  -15.1923   23.3228 C   0  0  2  0  0  0  0  0  0  0  0  0
   10.0923  -16.4270   22.6752 N   0  0  0  0  0  0  0  0  0  0  0  0
   10.2294  -15.3134   24.7564 C   0  0  0  0  0  0  0  0  0  0  0  0
   10.7978  -14.3395   25.3037 O   0  0  0  0  0  0  0  0  0  0  0  0
    7.2161  -15.2171   21.2273 C   0  0  0  0  0  0  0  0  0  0  0  0
    6.7441  -14.9592   19.9417 C   0  0  0  0  0  0  0  0  0  0  0  0
   11.3337  -13.8025   28.0389 C   0  0  0  0  0  0  0  0  0  0  0  0
   10.0371  -14.4286   28.4677 C   0  0  1  0  0  0  0  0  0  0  0  0
    9.0609  -13.3366   28.8637 C   0  0  0  0  0  0  0  0  0  0  0  0
    9.4876  -15.4508   27.5878 C   0  0  0  0  0  0  0  0  0  0  0  0
   10.2925  -16.5221   26.9927 C   0  0  2  0  0  0  0  0  0  0  0  0
    9.9787  -16.4535   25.5335 N   0  0  0  0  0  0  0  0  0  0  0  0
   10.0886  -17.9014   27.3836 C   0  0  0  0  0  0  0  0  0  0  0  0
   10.4725  -18.3166   28.5253 O   0  0  0  0  0  0  0  0  0  0  0  0
    9.4770  -18.9047   26.6162 O   0  0  0  0  0  0  0  0  0  0  0  0
  2  1  1  1
  3  2  1  0
  4  3  1  0
  5  4  2  0
  6  2  1  0
  7  6  2  0
  8  4  1  0
  9 10  1  0
 10 11  2  0
 11 12  1  0
 13 12  2  0
 13 14  1  0
 15 14  1  1
 15 17  1  0
 15 16  1  0
 16  6  1  0
 17 18  2  0
 19 13  1  0
 20 10  1  0
 20 19  2  0
 22 21  1  6
 23 22  1  0
 24 22  1  0
 25 24  1  1
 26 25  1  0
 26 17  1  0
 27 25  1  0
 27 29  1  0
 28 27  2  0
M  END
$$$$
