DYL.pdb
     RDKit          3D

 29 29  0  0  1  0  0  0  0  0999 V2000
    8.3220  -16.3565   19.9227 N   0  0  0  0  0  0  0  0  0  0  0  0
    6.9561  -16.1145   20.3435 C   0  0  1  0  0  0  0  0  0  0  0  0
    6.0488  -16.9706   19.4819 C   0  0  0  0  0  0  0  0  0  0  0  0
    6.6335  -18.3039   19.2340 C   0  0  0  0  0  0  0  0  0  0  0  0
    7.7409  -18.6898   19.6440 O   0  0  0  0  0  0  0  0  0  0  0  0
    6.8023  -16.5055   21.7637 C   0  0  0  0  0  0  0  0  0  0  0  0
    5.7160  -16.3977   22.3701 O   0  0  0  0  0  0  0  0  0  0  0  0
    5.8833  -19.2036   18.4791 O   0  0  0  0  0  0  0  0  0  0  0  0
    7.8597  -19.6532   29.8393 O   0  0  0  0  0  0  0  0  0  0  0  0
    8.0773  -19.3755   28.5018 C   0  0  0  0  0  0  0  0  0  0  0  0
    9.3068  -19.0166   27.9984 C   0  0  0  0  0  0  0  0  0  0  0  0
    9.4973  -18.7447   26.6599 C   0  0  0  0  0  0  0  0  0  0  0  0
    8.4637  -18.8224   25.7768 C   0  0  0  0  0  0  0  0  0  0  0  0
    8.5701  -18.5509   24.3289 C   0  0  0  0  0  0  0  0  0  0  0  0
    7.8992  -17.2803   23.9032 C   0  0  2  0  0  0  0  0  0  0  0  0
    7.8926  -17.0272   22.5127 N   0  0  0  0  0  0  0  0  0  0  0  0
    8.5877  -16.1652   24.6018 C   0  0  0  0  0  0  0  0  0  0  0  0
    9.6779  -15.7598   24.1345 O   0  0  0  0  0  0  0  0  0  0  0  0
    7.2217  -19.1822   26.2688 C   0  0  0  0  0  0  0  0  0  0  0  0
    7.0164  -19.4593   27.6190 C   0  0  0  0  0  0  0  0  0  0  0  0
    5.7452  -12.0826   26.6931 C   0  0  0  0  0  0  0  0  0  0  0  0
    6.9002  -12.7972   26.0510 C   0  0  1  0  0  0  0  0  0  0  0  0
    7.6159  -11.8466   25.1096 C   0  0  0  0  0  0  0  0  0  0  0  0
    7.7735  -13.5500   26.9408 C   0  0  0  0  0  0  0  0  0  0  0  0
    8.8270  -14.4522   26.4658 C   0  0  2  0  0  0  0  0  0  0  0  0
    8.0897  -15.5394   25.7537 N   0  0  0  0  0  0  0  0  0  0  0  0
    9.7104  -15.1128   27.4039 C   0  0  0  0  0  0  0  0  0  0  0  0
    9.4578  -16.2924   27.8138 O   0  0  0  0  0  0  0  0  0  0  0  0
   10.8903  -14.5865   27.9518 O   0  0  0  0  0  0  0  0  0  0  0  0
  2  1  1  6
  3  2  1  0
  4  3  1  0
  5  4  2  0
  6  2  1  0
  7  6  2  0
  8  4  1  0
  9 10  1  0
 10 11  2  0
 11 12  1  0
 13 12  2  0
 13 14  1  0
 15 14  1  6
 15 17  1  0
 15 16  1  0
 16  6  1  0
 17 18  2  0
 19 13  1  0
 20 10  1  0
 20 19  2  0
 22 21  1  1
 23 22  1  0
 24 22  1  0
 25 24  1  1
 26 25  1  0
 26 17  1  0
 27 25  1  0
 27 29  1  0
 28 27  2  0
M  END
$$$$
