DYL.pdb
     RDKit          3D

 29 29  0  0  1  0  0  0  0  0999 V2000
    9.5023  -17.4227   19.7387 N   0  0  0  0  0  0  0  0  0  0  0  0
    8.8228  -16.2193   20.1760 C   0  0  1  0  0  0  0  0  0  0  0  0
    7.6419  -15.9940   19.2523 C   0  0  0  0  0  0  0  0  0  0  0  0
    8.0711  -15.8473   17.8468 C   0  0  0  0  0  0  0  0  0  0  0  0
    9.2414  -15.9385   17.4402 O   0  0  0  0  0  0  0  0  0  0  0  0
    8.3372  -16.4049   21.5628 C   0  0  0  0  0  0  0  0  0  0  0  0
    7.1949  -16.0500   21.9215 O   0  0  0  0  0  0  0  0  0  0  0  0
    7.0844  -15.5852   16.8983 O   0  0  0  0  0  0  0  0  0  0  0  0
    7.6623  -19.6079   29.7995 O   0  0  0  0  0  0  0  0  0  0  0  0
    8.0315  -19.3423   28.4931 C   0  0  0  0  0  0  0  0  0  0  0  0
    7.1328  -19.2970   27.4519 C   0  0  0  0  0  0  0  0  0  0  0  0
    7.5269  -19.0299   26.1576 C   0  0  0  0  0  0  0  0  0  0  0  0
    8.8351  -18.7985   25.8589 C   0  0  0  0  0  0  0  0  0  0  0  0
    9.3514  -18.5044   24.5067 C   0  0  0  0  0  0  0  0  0  0  0  0
    8.7744  -17.2623   23.8983 C   0  0  2  0  0  0  0  0  0  0  0  0
    9.1542  -17.0012   22.5623 N   0  0  0  0  0  0  0  0  0  0  0  0
    9.1844  -16.1220   24.7569 C   0  0  0  0  0  0  0  0  0  0  0  0
   10.3735  -15.7311   24.6905 O   0  0  0  0  0  0  0  0  0  0  0  0
    9.7499  -18.8408   26.8959 C   0  0  0  0  0  0  0  0  0  0  0  0
    9.3643  -19.1096   28.2078 C   0  0  0  0  0  0  0  0  0  0  0  0
    5.5053  -12.2645   26.0137 C   0  0  0  0  0  0  0  0  0  0  0  0
    6.8125  -12.9058   25.6439 C   0  0  1  0  0  0  0  0  0  0  0  0
    7.6181  -11.9440   24.7906 C   0  0  0  0  0  0  0  0  0  0  0  0
    7.5569  -13.5336   26.7269 C   0  0  0  0  0  0  0  0  0  0  0  0
    8.7666  -14.3350   26.5171 C   0  0  2  0  0  0  0  0  0  0  0  0
    8.3191  -15.4571   25.6377 N   0  0  0  0  0  0  0  0  0  0  0  0
    9.4477  -14.9492   27.6378 C   0  0  0  0  0  0  0  0  0  0  0  0
   10.1821  -14.2534   28.4121 O   0  0  0  0  0  0  0  0  0  0  0  0
    9.3943  -16.3021   28.0072 O   0  0  0  0  0  0  0  0  0  0  0  0
  2  1  1  6
  3  2  1  0
  4  3  1  0
  5  4  2  0
  6  2  1  0
  7  6  2  0
  8  4  1  0
  9 10  1  0
 10 11  2  0
 11 12  1  0
 13 12  2  0
 13 14  1  0
 15 14  1  1
 15 17  1  0
 15 16  1  0
 16  6  1  0
 17 18  2  0
 19 13  1  0
 20 10  1  0
 20 19  2  0
 22 21  1  1
 23 22  1  0
 24 22  1  0
 25 24  1  1
 26 25  1  0
 26 17  1  0
 27 25  1  0
 27 29  1  0
 28 27  2  0
M  END
$$$$
