DYL.pdb
     RDKit          3D

 29 29  0  0  1  0  0  0  0  0999 V2000
    9.6522  -18.4356   20.5203 N   0  0  0  0  0  0  0  0  0  0  0  0
   10.9841  -18.0028   20.8943 C   0  0  1  0  0  0  0  0  0  0  0  0
   11.8040  -17.8819   19.6247 C   0  0  0  0  0  0  0  0  0  0  0  0
   11.8848  -19.1690   18.9049 C   0  0  0  0  0  0  0  0  0  0  0  0
   11.9343  -20.2890   19.4399 O   0  0  0  0  0  0  0  0  0  0  0  0
   10.9036  -16.6815   21.5584 C   0  0  0  0  0  0  0  0  0  0  0  0
   11.9222  -16.0327   21.8761 O   0  0  0  0  0  0  0  0  0  0  0  0
   11.9073  -19.1252   17.5122 O   0  0  0  0  0  0  0  0  0  0  0  0
    7.0363  -13.1308   16.8808 O   0  0  0  0  0  0  0  0  0  0  0  0
    7.3290  -13.3472   18.2153 C   0  0  0  0  0  0  0  0  0  0  0  0
    8.0079  -12.4377   18.9936 C   0  0  0  0  0  0  0  0  0  0  0  0
    8.2873  -12.6778   20.3225 C   0  0  0  0  0  0  0  0  0  0  0  0
    7.8971  -13.8373   20.9204 C   0  0  0  0  0  0  0  0  0  0  0  0
    8.1495  -14.1830   22.3341 C   0  0  0  0  0  0  0  0  0  0  0  0
    9.4647  -14.8641   22.5622 C   0  0  2  0  0  0  0  0  0  0  0  0
    9.6524  -16.0815   21.8693 N   0  0  0  0  0  0  0  0  0  0  0  0
    9.5855  -15.1068   24.0224 C   0  0  0  0  0  0  0  0  0  0  0  0
   10.6330  -14.7299   24.5985 O   0  0  0  0  0  0  0  0  0  0  0  0
    7.2136  -14.7611   20.1501 C   0  0  0  0  0  0  0  0  0  0  0  0
    6.9252  -14.5302   18.8063 C   0  0  0  0  0  0  0  0  0  0  0  0
    6.2311  -13.8963   26.5535 C   0  0  0  0  0  0  0  0  0  0  0  0
    7.6830  -13.5640   26.3578 C   0  0  1  0  0  0  0  0  0  0  0  0
    7.9439  -12.1522   26.8486 C   0  0  0  0  0  0  0  0  0  0  0  0
    8.6440  -14.5581   26.8153 C   0  0  0  0  0  0  0  0  0  0  0  0
    8.7204  -15.9177   26.2719 C   0  0  2  0  0  0  0  0  0  0  0  0
    8.5963  -15.7331   24.7943 N   0  0  0  0  0  0  0  0  0  0  0  0
    7.7350  -16.9140   26.6369 C   0  0  0  0  0  0  0  0  0  0  0  0
    7.5961  -17.2762   27.8505 O   0  0  0  0  0  0  0  0  0  0  0  0
    6.8514  -17.5717   25.7673 O   0  0  0  0  0  0  0  0  0  0  0  0
  2  1  1  6
  3  2  1  0
  4  3  1  0
  5  4  2  0
  6  2  1  0
  7  6  2  0
  8  4  1  0
  9 10  1  0
 10 11  2  0
 11 12  1  0
 13 12  2  0
 13 14  1  0
 15 14  1  1
 15 17  1  0
 15 16  1  0
 16  6  1  0
 17 18  2  0
 19 13  1  0
 20 10  1  0
 20 19  2  0
 22 21  1  1
 23 22  1  0
 24 22  1  0
 25 24  1  1
 26 25  1  0
 26 17  1  0
 27 25  1  0
 27 29  1  0
 28 27  2  0
M  END
$$$$
