DYL.pdb
     RDKit          3D

 29 29  0  0  1  0  0  0  0  0999 V2000
    8.0636  -20.1024   21.3203 N   0  0  0  0  0  0  0  0  0  0  0  0
    8.7528  -18.8637   21.6232 C   0  0  1  0  0  0  0  0  0  0  0  0
    8.4968  -17.9012   20.4801 C   0  0  0  0  0  0  0  0  0  0  0  0
    9.3552  -18.1991   19.3158 C   0  0  0  0  0  0  0  0  0  0  0  0
    9.6269  -19.3364   18.8963 O   0  0  0  0  0  0  0  0  0  0  0  0
    8.2124  -18.2944   22.8791 C   0  0  0  0  0  0  0  0  0  0  0  0
    7.0147  -17.9614   22.9981 O   0  0  0  0  0  0  0  0  0  0  0  0
    9.9060  -17.1176   18.6310 O   0  0  0  0  0  0  0  0  0  0  0  0
    6.2253  -23.1070   27.5103 O   0  0  0  0  0  0  0  0  0  0  0  0
    6.9640  -21.9700   27.2365 C   0  0  0  0  0  0  0  0  0  0  0  0
    8.1717  -21.9982   26.5774 C   0  0  0  0  0  0  0  0  0  0  0  0
    8.8889  -20.8494   26.3167 C   0  0  0  0  0  0  0  0  0  0  0  0
    8.4227  -19.6308   26.7063 C   0  0  0  0  0  0  0  0  0  0  0  0
    9.1173  -18.3485   26.4721 C   0  0  0  0  0  0  0  0  0  0  0  0
    8.6146  -17.6009   25.2746 C   0  0  2  0  0  0  0  0  0  0  0  0
    9.0371  -18.0974   24.0206 N   0  0  0  0  0  0  0  0  0  0  0  0
    9.0590  -16.1911   25.4192 C   0  0  0  0  0  0  0  0  0  0  0  0
   10.1645  -15.8674   24.9251 O   0  0  0  0  0  0  0  0  0  0  0  0
    7.2096  -19.5872   27.3699 C   0  0  0  0  0  0  0  0  0  0  0  0
    6.4755  -20.7407   27.6394 C   0  0  0  0  0  0  0  0  0  0  0  0
    5.4145  -12.2662   26.9801 C   0  0  0  0  0  0  0  0  0  0  0  0
    6.5564  -12.9301   26.2645 C   0  0  1  0  0  0  0  0  0  0  0  0
    6.7630  -12.2580   24.9199 C   0  0  0  0  0  0  0  0  0  0  0  0
    7.7730  -13.1394   27.0372 C   0  0  0  0  0  0  0  0  0  0  0  0
    8.9157  -13.9179   26.5497 C   0  0  2  0  0  0  0  0  0  0  0  0
    8.3142  -15.2012   26.0764 N   0  0  0  0  0  0  0  0  0  0  0  0
    9.9935  -14.2847   27.4445 C   0  0  0  0  0  0  0  0  0  0  0  0
   10.0605  -15.4593   27.9335 O   0  0  0  0  0  0  0  0  0  0  0  0
   11.0465  -13.4581   27.8658 O   0  0  0  0  0  0  0  0  0  0  0  0
  2  1  1  6
  3  2  1  0
  4  3  1  0
  5  4  2  0
  6  2  1  0
  7  6  2  0
  8  4  1  0
  9 10  1  0
 10 11  2  0
 11 12  1  0
 13 12  2  0
 13 14  1  0
 15 14  1  1
 15 17  1  0
 15 16  1  0
 16  6  1  0
 17 18  2  0
 19 13  1  0
 20 10  1  0
 20 19  2  0
 22 21  1  1
 23 22  1  0
 24 22  1  0
 25 24  1  1
 26 25  1  0
 26 17  1  0
 27 25  1  0
 27 29  1  0
 28 27  2  0
M  END
$$$$
