IPK.pdb
     RDKit          3D

 25 25  0  0  1  0  0  0  0  0999 V2000
    6.7260  -11.7642   27.2689 C   0  0  0  0  0  0  0  0  0  0  0  0
    5.9398  -12.8498   26.5393 C   0  0  0  0  0  0  0  0  0  0  0  0
    6.9831  -13.7080   25.8307 C   0  0  2  0  0  0  0  0  0  0  0  0
    7.6859  -12.8158   24.8307 C   0  0  0  0  0  0  0  0  0  0  0  0
    6.2801  -14.8288   25.0437 C   0  0  2  0  0  0  0  0  0  0  0  0
    5.7385  -15.6875   26.1175 N   0  0  0  0  0  0  0  0  0  0  0  0
    7.2259  -15.6335   24.2661 C   0  0  0  0  0  0  0  0  0  0  0  0
    7.6072  -16.7427   24.7847 O   0  0  0  0  0  0  0  0  0  0  0  0
    7.7419  -15.2708   22.9889 N   0  0  0  0  0  0  0  0  0  0  0  0
    7.4345  -13.9960   22.3190 C   0  0  0  0  0  0  0  0  0  0  0  0
    7.6550  -14.2242   20.8568 C   0  0  0  0  0  0  0  0  0  0  0  0
    8.1166  -15.6538   20.6837 C   0  0  0  0  0  0  0  0  0  0  0  0
    8.6007  -15.9664   22.1031 C   0  0  1  0  0  0  0  0  0  0  0  0
   10.0356  -15.6063   22.2553 C   0  0  0  0  0  0  0  0  0  0  0  0
   10.3411  -14.4196   22.5426 O   0  0  0  0  0  0  0  0  0  0  0  0
   11.1037  -16.5232   22.0963 N   0  0  0  0  0  0  0  0  0  0  0  0
   12.0457  -16.8479   23.1618 C   0  0  1  0  0  0  0  0  0  0  0  0
   11.2393  -17.3119   24.3432 C   0  0  0  0  0  0  0  0  0  0  0  0
   12.0380  -17.8354   25.4884 C   0  0  0  0  0  0  0  0  0  0  0  0
   11.1034  -18.3405   26.5943 C   0  0  0  0  0  0  0  0  0  0  0  0
   11.9370  -18.7590   27.7836 C   0  0  0  0  0  0  0  0  0  0  0  0
   11.1191  -19.2350   28.8744 N   0  0  0  0  0  0  0  0  0  0  0  0
   13.0674  -17.7960   22.7322 C   0  0  0  0  0  0  0  0  0  0  0  0
   12.7535  -18.7825   21.8155 O   0  0  0  0  0  0  0  0  0  0  0  0
   14.2308  -17.7380   23.1766 O   0  0  0  0  0  0  0  0  0  0  0  0
  2  1  1  0
  3  2  1  0
  3  4  1  6
  5  3  1  0
  5  7  1  0
  5  6  1  1
  7  8  2  0
  9  7  1  0
  9 13  1  0
 10 11  1  0
 10  9  1  0
 11 12  1  0
 12 13  1  0
 13 14  1  6
 14 15  2  0
 16 14  1  0
 17 16  1  0
 17 23  1  0
 17 18  1  1
 19 18  1  0
 20 19  1  0
 21 20  1  0
 22 21  1  0
 23 24  1  0
 25 23  2  0
M  END
$$$$
