IPK.pdb
     RDKit          3D

 25 25  0  0  1  0  0  0  0  0999 V2000
    7.9877  -12.3549   28.2179 C   0  0  0  0  0  0  0  0  0  0  0  0
    6.9398  -12.4477   27.1123 C   0  0  0  0  0  0  0  0  0  0  0  0
    7.3363  -13.6560   26.2696 C   0  0  2  0  0  0  0  0  0  0  0  0
    8.6822  -13.3435   25.6524 C   0  0  0  0  0  0  0  0  0  0  0  0
    6.3267  -13.8373   25.1218 C   0  0  2  0  0  0  0  0  0  0  0  0
    5.0831  -14.1913   25.8375 N   0  0  0  0  0  0  0  0  0  0  0  0
    6.6755  -14.9646   24.2534 C   0  0  0  0  0  0  0  0  0  0  0  0
    6.2579  -16.1232   24.6110 O   0  0  0  0  0  0  0  0  0  0  0  0
    7.4363  -14.8601   23.0537 N   0  0  0  0  0  0  0  0  0  0  0  0
    8.1932  -13.6559   22.6723 C   0  0  0  0  0  0  0  0  0  0  0  0
    8.3518  -13.7108   21.1855 C   0  0  0  0  0  0  0  0  0  0  0  0
    7.6890  -14.9818   20.7038 C   0  0  0  0  0  0  0  0  0  0  0  0
    7.6489  -15.7885   22.0054 C   0  0  1  0  0  0  0  0  0  0  0  0
    8.8917  -16.5906   22.1597 C   0  0  0  0  0  0  0  0  0  0  0  0
    9.2853  -17.2996   21.1972 O   0  0  0  0  0  0  0  0  0  0  0  0
    9.6791  -16.6132   23.3372 N   0  0  0  0  0  0  0  0  0  0  0  0
   10.9098  -17.3861   23.4628 C   0  0  1  0  0  0  0  0  0  0  0  0
   11.7791  -17.0335   22.2874 C   0  0  0  0  0  0  0  0  0  0  0  0
   12.8462  -18.0253   21.9695 C   0  0  0  0  0  0  0  0  0  0  0  0
   13.6394  -17.5683   20.7392 C   0  0  0  0  0  0  0  0  0  0  0  0
   14.5932  -18.6698   20.3373 C   0  0  0  0  0  0  0  0  0  0  0  0
   15.3423  -18.3279   19.1510 N   0  0  0  0  0  0  0  0  0  0  0  0
   11.5566  -17.1971   24.7564 C   0  0  0  0  0  0  0  0  0  0  0  0
   11.0408  -16.2873   25.6610 O   0  0  0  0  0  0  0  0  0  0  0  0
   12.5754  -17.8435   25.0702 O   0  0  0  0  0  0  0  0  0  0  0  0
  2  1  1  0
  3  2  1  0
  3  4  1  6
  5  3  1  0
  5  7  1  0
  5  6  1  1
  7  8  2  0
  9  7  1  0
  9 13  1  0
 10 11  1  0
 10  9  1  0
 11 12  1  0
 12 13  1  0
 13 14  1  1
 14 15  2  0
 16 14  1  0
 17 16  1  0
 17 23  1  0
 17 18  1  6
 19 18  1  0
 20 19  1  0
 21 20  1  0
 22 21  1  0
 23 24  1  0
 25 23  2  0
M  END
$$$$
