IPK.pdb
     RDKit          3D

 25 25  0  0  1  0  0  0  0  0999 V2000
    6.1409  -16.5849   21.2590 C   0  0  0  0  0  0  0  0  0  0  0  0
    7.4131  -15.7967   21.5574 C   0  0  0  0  0  0  0  0  0  0  0  0
    6.9959  -14.3293   21.5658 C   0  0  2  0  0  0  0  0  0  0  0  0
    6.6747  -13.9515   20.1362 C   0  0  0  0  0  0  0  0  0  0  0  0
    8.1804  -13.4595   22.0242 C   0  0  2  0  0  0  0  0  0  0  0  0
    9.2440  -13.8312   21.0679 N   0  0  0  0  0  0  0  0  0  0  0  0
    8.6436  -13.8214   23.3662 C   0  0  0  0  0  0  0  0  0  0  0  0
    9.7996  -14.3699   23.4527 O   0  0  0  0  0  0  0  0  0  0  0  0
    7.9055  -13.6059   24.5653 N   0  0  0  0  0  0  0  0  0  0  0  0
    6.5212  -13.1043   24.5899 C   0  0  0  0  0  0  0  0  0  0  0  0
    6.3197  -12.4885   25.9386 C   0  0  0  0  0  0  0  0  0  0  0  0
    7.6081  -12.6559   26.7124 C   0  0  0  0  0  0  0  0  0  0  0  0
    8.2645  -13.7926   25.9226 C   0  0  1  0  0  0  0  0  0  0  0  0
    7.8567  -15.1126   26.4731 C   0  0  0  0  0  0  0  0  0  0  0  0
    6.7601  -15.6135   26.1114 O   0  0  0  0  0  0  0  0  0  0  0  0
    8.6309  -15.8604   27.3941 N   0  0  0  0  0  0  0  0  0  0  0  0
    9.1341  -17.2007   27.1145 C   0  0  1  0  0  0  0  0  0  0  0  0
    9.9195  -17.1236   25.8345 C   0  0  0  0  0  0  0  0  0  0  0  0
   10.5687  -18.3980   25.4126 C   0  0  0  0  0  0  0  0  0  0  0  0
   11.3820  -18.1751   24.1318 C   0  0  0  0  0  0  0  0  0  0  0  0
   12.0149  -19.4852   23.7221 C   0  0  0  0  0  0  0  0  0  0  0  0
   12.8263  -19.3440   22.5359 N   0  0  0  0  0  0  0  0  0  0  0  0
    9.8808  -17.7602   28.2355 C   0  0  0  0  0  0  0  0  0  0  0  0
   10.3861  -16.9255   29.2153 O   0  0  0  0  0  0  0  0  0  0  0  0
   10.0770  -18.9876   28.3331 O   0  0  0  0  0  0  0  0  0  0  0  0
  2  1  1  0
  3  2  1  0
  3  4  1  6
  5  3  1  0
  5  7  1  0
  5  6  1  6
  7  8  2  0
  9  7  1  0
  9 13  1  0
 10 11  1  0
 10  9  1  0
 11 12  1  0
 12 13  1  0
 13 14  1  1
 14 15  2  0
 16 14  1  0
 17 16  1  0
 17 23  1  0
 17 18  1  6
 19 18  1  0
 20 19  1  0
 21 20  1  0
 22 21  1  0
 23 24  1  0
 25 23  2  0
M  END
$$$$
