IPK.pdb
     RDKit          3D

 25 25  0  0  1  0  0  0  0  0999 V2000
    6.7762  -11.7576   27.5608 C   0  0  0  0  0  0  0  0  0  0  0  0
    5.9233  -12.7274   26.7477 C   0  0  0  0  0  0  0  0  0  0  0  0
    6.9112  -13.6327   26.0185 C   0  0  2  0  0  0  0  0  0  0  0  0
    7.7255  -12.7498   25.0981 C   0  0  0  0  0  0  0  0  0  0  0  0
    6.1403  -14.6363   25.1421 C   0  0  2  0  0  0  0  0  0  0  0  0
    5.4398  -15.4684   26.1425 N   0  0  0  0  0  0  0  0  0  0  0  0
    7.0389  -15.5126   24.3864 C   0  0  0  0  0  0  0  0  0  0  0  0
    7.2810  -16.6675   24.8887 O   0  0  0  0  0  0  0  0  0  0  0  0
    7.6522  -15.1719   23.1467 N   0  0  0  0  0  0  0  0  0  0  0  0
    7.5669  -13.8342   22.5370 C   0  0  0  0  0  0  0  0  0  0  0  0
    7.8061  -14.0225   21.0720 C   0  0  0  0  0  0  0  0  0  0  0  0
    8.0526  -15.4958   20.8368 C   0  0  0  0  0  0  0  0  0  0  0  0
    8.4292  -15.9470   22.2514 C   0  0  1  0  0  0  0  0  0  0  0  0
    9.8952  -15.8185   22.4662 C   0  0  0  0  0  0  0  0  0  0  0  0
   10.4366  -14.6904   22.3301 O   0  0  0  0  0  0  0  0  0  0  0  0
   10.7418  -16.8977   22.8201 N   0  0  0  0  0  0  0  0  0  0  0  0
   12.0583  -16.7187   23.4224 C   0  0  1  0  0  0  0  0  0  0  0  0
   11.9316  -17.0634   24.8806 C   0  0  0  0  0  0  0  0  0  0  0  0
   11.3750  -18.4172   25.1650 C   0  0  0  0  0  0  0  0  0  0  0  0
   11.5113  -18.7390   26.6581 C   0  0  0  0  0  0  0  0  0  0  0  0
   11.0590  -20.1619   26.8933 C   0  0  0  0  0  0  0  0  0  0  0  0
   11.2650  -20.5736   28.2621 N   0  0  0  0  0  0  0  0  0  0  0  0
   13.0967  -17.4681   22.7241 C   0  0  0  0  0  0  0  0  0  0  0  0
   14.4253  -17.2881   23.0624 O   0  0  0  0  0  0  0  0  0  0  0  0
   12.8122  -18.2767   21.8187 O   0  0  0  0  0  0  0  0  0  0  0  0
  2  1  1  0
  3  2  1  0
  3  4  1  6
  5  3  1  0
  5  7  1  0
  5  6  1  1
  7  8  2  0
  9  7  1  0
  9 13  1  0
 10 11  1  0
 10  9  1  0
 11 12  1  0
 12 13  1  0
 13 14  1  1
 14 15  2  0
 16 14  1  0
 17 16  1  0
 17 23  1  0
 17 18  1  1
 19 18  1  0
 20 19  1  0
 21 20  1  0
 22 21  1  0
 23 24  1  0
 25 23  2  0
M  END
$$$$
