IPK.pdb
     RDKit          3D

 25 25  0  0  1  0  0  0  0  0999 V2000
    7.0781  -12.0231   27.8424 C   0  0  0  0  0  0  0  0  0  0  0  0
    6.2002  -12.8580   26.9143 C   0  0  0  0  0  0  0  0  0  0  0  0
    7.1575  -13.7660   26.1485 C   0  0  2  0  0  0  0  0  0  0  0  0
    8.0672  -12.8683   25.3383 C   0  0  0  0  0  0  0  0  0  0  0  0
    6.3613  -14.6382   25.1610 C   0  0  2  0  0  0  0  0  0  0  0  0
    5.5855  -15.5185   26.0594 N   0  0  0  0  0  0  0  0  0  0  0  0
    7.2346  -15.4902   24.3498 C   0  0  0  0  0  0  0  0  0  0  0  0
    7.4846  -16.6634   24.8034 O   0  0  0  0  0  0  0  0  0  0  0  0
    7.8154  -15.1074   23.1067 N   0  0  0  0  0  0  0  0  0  0  0  0
    7.6448  -13.7742   22.5050 C   0  0  0  0  0  0  0  0  0  0  0  0
    7.8817  -13.9408   21.0370 C   0  0  0  0  0  0  0  0  0  0  0  0
    8.2137  -15.3955   20.7917 C   0  0  0  0  0  0  0  0  0  0  0  0
    8.6293  -15.8302   22.2006 C   0  0  1  0  0  0  0  0  0  0  0  0
   10.0868  -15.6153   22.4035 C   0  0  0  0  0  0  0  0  0  0  0  0
   10.5071  -14.4512   22.6325 O   0  0  0  0  0  0  0  0  0  0  0  0
   11.0543  -16.6489   22.3560 N   0  0  0  0  0  0  0  0  0  0  0  0
   12.0455  -16.8668   23.4038 C   0  0  1  0  0  0  0  0  0  0  0  0
   11.4358  -17.8089   24.4048 C   0  0  0  0  0  0  0  0  0  0  0  0
   12.3242  -18.1866   25.5413 C   0  0  0  0  0  0  0  0  0  0  0  0
   11.5969  -19.1602   26.4765 C   0  0  0  0  0  0  0  0  0  0  0  0
   12.4177  -19.3334   27.7339 C   0  0  0  0  0  0  0  0  0  0  0  0
   11.7571  -20.1839   28.6958 N   0  0  0  0  0  0  0  0  0  0  0  0
   13.3280  -17.3147   22.8728 C   0  0  0  0  0  0  0  0  0  0  0  0
   13.3658  -18.1867   21.8003 O   0  0  0  0  0  0  0  0  0  0  0  0
   14.4040  -16.9258   23.3682 O   0  0  0  0  0  0  0  0  0  0  0  0
  2  1  1  0
  3  2  1  0
  3  4  1  6
  5  3  1  0
  5  7  1  0
  5  6  1  1
  7  8  2  0
  9  7  1  0
  9 13  1  0
 10 11  1  0
 10  9  1  0
 11 12  1  0
 12 13  1  0
 13 14  1  1
 14 15  2  0
 16 14  1  0
 17 16  1  0
 17 23  1  0
 17 18  1  1
 19 18  1  0
 20 19  1  0
 21 20  1  0
 22 21  1  0
 23 24  1  0
 25 23  2  0
M  END
$$$$
