IPK.pdb
     RDKit          3D

 25 25  0  0  1  0  0  0  0  0999 V2000
    6.2996  -11.5330   27.1110 C   0  0  0  0  0  0  0  0  0  0  0  0
    5.6492  -12.7293   26.4218 C   0  0  0  0  0  0  0  0  0  0  0  0
    6.7984  -13.5349   25.8237 C   0  0  2  0  0  0  0  0  0  0  0  0
    7.4769  -12.6482   24.8023 C   0  0  0  0  0  0  0  0  0  0  0  0
    6.2365  -14.7597   25.0795 C   0  0  2  0  0  0  0  0  0  0  0  0
    5.6831  -15.5797   26.1773 N   0  0  0  0  0  0  0  0  0  0  0  0
    7.2912  -15.5416   24.4294 C   0  0  0  0  0  0  0  0  0  0  0  0
    7.7475  -16.5507   25.0760 O   0  0  0  0  0  0  0  0  0  0  0  0
    7.8351  -15.2598   23.1434 N   0  0  0  0  0  0  0  0  0  0  0  0
    7.4655  -14.0795   22.3442 C   0  0  0  0  0  0  0  0  0  0  0  0
    7.7660  -14.4240   20.9195 C   0  0  0  0  0  0  0  0  0  0  0  0
    8.3376  -15.8238   20.9005 C   0  0  0  0  0  0  0  0  0  0  0  0
    8.7803  -15.9663   22.3601 C   0  0  1  0  0  0  0  0  0  0  0  0
   10.1771  -15.4850   22.5301 C   0  0  0  0  0  0  0  0  0  0  0  0
   10.3756  -14.3523   23.0419 O   0  0  0  0  0  0  0  0  0  0  0  0
   11.3225  -16.2263   22.1490 N   0  0  0  0  0  0  0  0  0  0  0  0
   12.3483  -16.6569   23.0926 C   0  0  1  0  0  0  0  0  0  0  0  0
   11.6627  -17.4706   24.1552 C   0  0  0  0  0  0  0  0  0  0  0  0
   11.6525  -16.8569   25.5142 C   0  0  0  0  0  0  0  0  0  0  0  0
   10.9956  -17.8123   26.5178 C   0  0  0  0  0  0  0  0  0  0  0  0
   11.1733  -17.2534   27.9109 C   0  0  0  0  0  0  0  0  0  0  0  0
   10.6151  -18.1261   28.9170 N   0  0  0  0  0  0  0  0  0  0  0  0
   13.4531  -17.3478   22.4372 C   0  0  0  0  0  0  0  0  0  0  0  0
   13.2014  -18.2229   21.3966 O   0  0  0  0  0  0  0  0  0  0  0  0
   14.6330  -17.1665   22.7969 O   0  0  0  0  0  0  0  0  0  0  0  0
  2  1  1  0
  3  2  1  0
  3  4  1  6
  5  3  1  0
  5  7  1  0
  5  6  1  1
  7  8  2  0
  9  7  1  0
  9 13  1  0
 10 11  1  0
 10  9  1  0
 11 12  1  0
 12 13  1  0
 13 14  1  6
 14 15  2  0
 16 14  1  0
 17 16  1  0
 17 23  1  0
 17 18  1  1
 19 18  1  0
 20 19  1  0
 21 20  1  0
 22 21  1  0
 23 24  1  0
 25 23  2  0
M  END
$$$$
