IPK.pdb
     RDKit          3D

 25 25  0  0  1  0  0  0  0  0999 V2000
    6.9697  -11.6484   27.4253 C   0  0  0  0  0  0  0  0  0  0  0  0
    6.0705  -12.5879   26.6267 C   0  0  0  0  0  0  0  0  0  0  0  0
    7.0096  -13.5862   25.9569 C   0  0  2  0  0  0  0  0  0  0  0  0
    7.8881  -12.8004   25.0078 C   0  0  0  0  0  0  0  0  0  0  0  0
    6.1891  -14.5823   25.1177 C   0  0  2  0  0  0  0  0  0  0  0  0
    5.4602  -15.3505   26.1484 N   0  0  0  0  0  0  0  0  0  0  0  0
    7.0430  -15.5210   24.3853 C   0  0  0  0  0  0  0  0  0  0  0  0
    7.1761  -16.6948   24.8844 O   0  0  0  0  0  0  0  0  0  0  0  0
    7.7249  -15.2205   23.1713 N   0  0  0  0  0  0  0  0  0  0  0  0
    7.7696  -13.8752   22.5744 C   0  0  0  0  0  0  0  0  0  0  0  0
    8.0439  -14.0696   21.1164 C   0  0  0  0  0  0  0  0  0  0  0  0
    8.1783  -15.5560   20.8729 C   0  0  0  0  0  0  0  0  0  0  0  0
    8.4674  -16.0485   22.2943 C   0  0  1  0  0  0  0  0  0  0  0  0
    9.9306  -16.0415   22.5605 C   0  0  0  0  0  0  0  0  0  0  0  0
   10.5082  -14.9436   22.7727 O   0  0  0  0  0  0  0  0  0  0  0  0
   10.7357  -17.2067   22.5926 N   0  0  0  0  0  0  0  0  0  0  0  0
   12.0734  -17.2400   23.1733 C   0  0  1  0  0  0  0  0  0  0  0  0
   12.2103  -18.5485   23.9017 C   0  0  0  0  0  0  0  0  0  0  0  0
   11.2379  -18.7594   25.0123 C   0  0  0  0  0  0  0  0  0  0  0  0
   11.3241  -20.2039   25.5196 C   0  0  0  0  0  0  0  0  0  0  0  0
   10.2351  -20.4266   26.5439 C   0  0  0  0  0  0  0  0  0  0  0  0
   10.2388  -21.7795   27.0489 N   0  0  0  0  0  0  0  0  0  0  0  0
   13.1168  -17.0010   22.1825 C   0  0  0  0  0  0  0  0  0  0  0  0
   14.3849  -16.6293   22.5897 O   0  0  0  0  0  0  0  0  0  0  0  0
   12.8904  -17.1251   20.9627 O   0  0  0  0  0  0  0  0  0  0  0  0
  2  1  1  0
  3  2  1  0
  3  4  1  6
  5  3  1  0
  5  7  1  0
  5  6  1  1
  7  8  2  0
  9  7  1  0
  9 13  1  0
 10 11  1  0
 10  9  1  0
 11 12  1  0
 12 13  1  0
 13 14  1  1
 14 15  2  0
 16 14  1  0
 17 16  1  0
 17 23  1  0
 17 18  1  6
 19 18  1  0
 20 19  1  0
 21 20  1  0
 22 21  1  0
 23 24  1  0
 25 23  2  0
M  END
$$$$
