IPK.pdb
     RDKit          3D

 25 25  0  0  1  0  0  0  0  0999 V2000
    8.5104  -12.6283   27.2755 C   0  0  0  0  0  0  0  0  0  0  0  0
    7.7720  -13.9221   26.9440 C   0  0  0  0  0  0  0  0  0  0  0  0
    6.7951  -13.5644   25.8282 C   0  0  2  0  0  0  0  0  0  0  0  0
    5.7296  -12.6802   26.4386 C   0  0  0  0  0  0  0  0  0  0  0  0
    6.1056  -14.8425   25.3176 C   0  0  2  0  0  0  0  0  0  0  0  0
    5.8822  -15.6087   26.5613 N   0  0  0  0  0  0  0  0  0  0  0  0
    6.9858  -15.6381   24.4579 C   0  0  0  0  0  0  0  0  0  0  0  0
    7.1675  -16.8635   24.7894 O   0  0  0  0  0  0  0  0  0  0  0  0
    7.6431  -15.1475   23.2933 N   0  0  0  0  0  0  0  0  0  0  0  0
    7.4953  -13.7698   22.7948 C   0  0  0  0  0  0  0  0  0  0  0  0
    7.8318  -13.8104   21.3374 C   0  0  0  0  0  0  0  0  0  0  0  0
    8.1988  -15.2367   20.9946 C   0  0  0  0  0  0  0  0  0  0  0  0
    8.5252  -15.7853   22.3871 C   0  0  1  0  0  0  0  0  0  0  0  0
    9.9629  -15.5770   22.7053 C   0  0  0  0  0  0  0  0  0  0  0  0
   10.3453  -14.4421   23.0927 O   0  0  0  0  0  0  0  0  0  0  0  0
   10.9518  -16.5859   22.6009 N   0  0  0  0  0  0  0  0  0  0  0  0
   12.0917  -16.6867   23.5056 C   0  0  1  0  0  0  0  0  0  0  0  0
   12.0142  -18.0329   24.1714 C   0  0  0  0  0  0  0  0  0  0  0  0
   13.0935  -18.3122   25.1616 C   0  0  0  0  0  0  0  0  0  0  0  0
   12.9793  -19.7539   25.6714 C   0  0  0  0  0  0  0  0  0  0  0  0
   14.0470  -19.9878   26.7154 C   0  0  0  0  0  0  0  0  0  0  0  0
   14.0119  -21.3369   27.2294 N   0  0  0  0  0  0  0  0  0  0  0  0
   13.3605  -16.4298   22.8336 C   0  0  0  0  0  0  0  0  0  0  0  0
   14.4147  -15.8748   23.5355 O   0  0  0  0  0  0  0  0  0  0  0  0
   13.5196  -16.7017   21.6273 O   0  0  0  0  0  0  0  0  0  0  0  0
  2  1  1  0
  3  2  1  0
  3  4  1  1
  5  3  1  0
  5  7  1  0
  5  6  1  1
  7  8  2  0
  9  7  1  0
  9 13  1  0
 10 11  1  0
 10  9  1  0
 11 12  1  0
 12 13  1  0
 13 14  1  1
 14 15  2  0
 16 14  1  0
 17 16  1  0
 17 23  1  0
 17 18  1  6
 19 18  1  0
 20 19  1  0
 21 20  1  0
 22 21  1  0
 23 24  1  0
 25 23  2  0
M  END
$$$$
