ALC.pdb
     RDKit          3D

 20 19  0  0  1  0  0  0  0  0999 V2000
   26.5824  -19.3039  -16.7343 C   0  0  0  0  0  0  0  0  0  0  0  0
   27.2478  -19.8312  -15.4605 C   0  0  2  0  0  0  0  0  0  0  0  0
   28.2622  -20.7760  -15.8839 N   0  0  0  0  0  0  0  0  0  0  0  0
   26.1905  -20.5258  -14.6855 C   0  0  0  0  0  0  0  0  0  0  0  0
   25.7531  -21.6313  -15.1026 O   0  0  0  0  0  0  0  0  0  0  0  0
   26.0342  -20.2295   -9.1797 C   0  0  0  0  0  0  0  0  0  0  0  0
   26.0069  -20.7416  -10.6088 C   0  0  1  0  0  0  0  0  0  0  0  0
   26.1100  -22.2898  -10.5839 C   0  0  0  0  0  0  0  0  0  0  0  0
   24.7257  -20.3510  -11.2546 C   0  0  0  0  0  0  0  0  0  0  0  0
   24.6533  -20.7373  -12.6947 C   0  0  2  0  0  0  0  0  0  0  0  0
   25.6409  -20.0030  -13.4854 N   0  0  0  0  0  0  0  0  0  0  0  0
   23.3051  -20.5889  -13.2267 C   0  0  0  0  0  0  0  0  0  0  0  0
   22.8307  -19.4651  -13.5020 O   0  0  0  0  0  0  0  0  0  0  0  0
   22.4292  -21.6977  -13.4731 N   0  0  0  0  0  0  0  0  0  0  0  0
   21.1231  -21.4788  -14.0370 C   0  0  1  0  0  0  0  0  0  0  0  0
   20.8586  -22.4020  -15.2119 C   0  0  0  0  0  0  0  0  0  0  0  0
   22.1786  -22.2831  -16.4349 S   0  0  0  0  0  0  0  0  0  0  0  0
   20.0678  -21.6125  -13.0009 C   0  0  0  0  0  0  0  0  0  0  0  0
   20.2695  -22.1700  -11.8958 O   0  0  0  0  0  0  0  0  0  0  0  0
   18.8152  -21.0987  -13.2746 O   0  0  0  0  0  0  0  0  0  0  0  0
  2  1  1  6
  2  4  1  0
  3  2  1  0
  4  5  2  0
  7  6  1  1
  7  9  1  0
  8  7  1  0
 10  9  1  1
 10 12  1  0
 11 10  1  0
 11  4  1  0
 12 13  2  0
 12 14  1  0
 14 15  1  0
 15 18  1  0
 15 16  1  6
 17 16  1  0
 18 19  2  0
 18 20  1  0
M  END
$$$$
