ALC.pdb
     RDKit          3D

 20 19  0  0  1  0  0  0  0  0999 V2000
  -12.0259  -60.5112  -41.1631 C   0  0  0  0  0  0  0  0  0  0  0  0
  -12.2748  -61.6917  -40.2208 C   0  0  2  0  0  0  0  0  0  0  0  0
  -11.0226  -61.9466  -39.5368 N   0  0  0  0  0  0  0  0  0  0  0  0
  -12.6375  -62.8485  -41.0761 C   0  0  0  0  0  0  0  0  0  0  0  0
  -13.8185  -62.9459  -41.5042 O   0  0  0  0  0  0  0  0  0  0  0  0
  -11.6322  -67.4863  -40.6032 C   0  0  0  0  0  0  0  0  0  0  0  0
  -10.7610  -66.3331  -41.0684 C   0  0  1  0  0  0  0  0  0  0  0  0
   -9.2751  -66.7760  -41.0054 C   0  0  0  0  0  0  0  0  0  0  0  0
  -11.1039  -65.9831  -42.4723 C   0  0  0  0  0  0  0  0  0  0  0  0
  -11.9353  -64.7482  -42.5824 C   0  0  2  0  0  0  0  0  0  0  0  0
  -11.7121  -63.8616  -41.4406 N   0  0  0  0  0  0  0  0  0  0  0  0
  -13.3463  -65.0615  -42.7657 C   0  0  0  0  0  0  0  0  0  0  0  0
  -13.7680  -65.5875  -43.8189 O   0  0  0  0  0  0  0  0  0  0  0  0
  -14.3471  -64.7975  -41.7727 N   0  0  0  0  0  0  0  0  0  0  0  0
  -15.6468  -64.3174  -42.1627 C   0  0  1  0  0  0  0  0  0  0  0  0
  -16.7234  -65.3598  -41.9240 C   0  0  0  0  0  0  0  0  0  0  0  0
  -18.1934  -64.6128  -41.1939 S   0  0  0  0  0  0  0  0  0  0  0  0
  -15.9713  -63.0429  -41.4734 C   0  0  0  0  0  0  0  0  0  0  0  0
  -15.2757  -62.5822  -40.5370 O   0  0  0  0  0  0  0  0  0  0  0  0
  -17.0876  -62.3425  -41.8873 O   0  0  0  0  0  0  0  0  0  0  0  0
  2  1  1  6
  2  4  1  0
  3  2  1  0
  4  5  2  0
  7  6  1  6
  7  9  1  0
  8  7  1  0
 10  9  1  1
 10 12  1  0
 11 10  1  0
 11  4  1  0
 12 13  2  0
 12 14  1  0
 14 15  1  0
 15 18  1  0
 15 16  1  1
 17 16  1  0
 18 19  2  0
 18 20  1  0
M  END
$$$$
