ALC.pdb
     RDKit          3D

 20 19  0  0  1  0  0  0  0  0999 V2000
   26.5505  -18.0186  -17.3695 C   0  0  0  0  0  0  0  0  0  0  0  0
   27.5472  -18.7365  -16.4560 C   0  0  2  0  0  0  0  0  0  0  0  0
   28.4060  -19.5241  -17.3182 N   0  0  0  0  0  0  0  0  0  0  0  0
   26.7510  -19.6250  -15.5741 C   0  0  0  0  0  0  0  0  0  0  0  0
   26.3100  -20.7106  -16.0373 O   0  0  0  0  0  0  0  0  0  0  0  0
   25.8035  -22.2304  -11.1125 C   0  0  0  0  0  0  0  0  0  0  0  0
   25.2161  -20.8348  -11.0004 C   0  0  1  0  0  0  0  0  0  0  0  0
   25.3935  -20.3367   -9.5415 C   0  0  0  0  0  0  0  0  0  0  0  0
   25.9377  -19.9143  -11.9186 C   0  0  0  0  0  0  0  0  0  0  0  0
   25.6887  -20.2100  -13.3604 C   0  0  2  0  0  0  0  0  0  0  0  0
   26.4577  -19.3111  -14.2210 N   0  0  0  0  0  0  0  0  0  0  0  0
   24.2670  -20.1903  -13.6782 C   0  0  0  0  0  0  0  0  0  0  0  0
   23.6249  -19.1189  -13.7372 O   0  0  0  0  0  0  0  0  0  0  0  0
   23.5030  -21.3747  -13.9442 N   0  0  0  0  0  0  0  0  0  0  0  0
   22.0988  -21.2795  -14.2457 C   0  0  1  0  0  0  0  0  0  0  0  0
   21.5905  -22.5266  -14.9450 C   0  0  0  0  0  0  0  0  0  0  0  0
   21.4079  -23.8902  -13.7792 S   0  0  0  0  0  0  0  0  0  0  0  0
   21.3106  -20.9919  -13.0206 C   0  0  0  0  0  0  0  0  0  0  0  0
   21.7980  -21.0674  -11.8675 O   0  0  0  0  0  0  0  0  0  0  0  0
   19.9864  -20.6269  -13.1668 O   0  0  0  0  0  0  0  0  0  0  0  0
  2  1  1  6
  2  4  1  0
  3  2  1  0
  4  5  2  0
  7  6  1  1
  7  9  1  0
  8  7  1  0
 10  9  1  1
 10 12  1  0
 11 10  1  0
 11  4  1  0
 12 13  2  0
 12 14  1  0
 14 15  1  0
 15 18  1  0
 15 16  1  1
 17 16  1  0
 18 19  2  0
 18 20  1  0
M  END
$$$$
