ALC.pdb
     RDKit          3D

 20 19  0  0  1  0  0  0  0  0999 V2000
   19.4641  -11.2865  -20.9773 C   0  0  0  0  0  0  0  0  0  0  0  0
   20.3365  -12.2268  -20.1419 C   0  0  2  0  0  0  0  0  0  0  0  0
   19.5887  -13.4591  -19.9893 N   0  0  0  0  0  0  0  0  0  0  0  0
   20.5235  -11.5730  -18.8233 C   0  0  0  0  0  0  0  0  0  0  0  0
   19.5321  -11.4501  -18.0556 O   0  0  0  0  0  0  0  0  0  0  0  0
   23.6334   -8.7832  -15.1014 C   0  0  0  0  0  0  0  0  0  0  0  0
   23.4952  -10.2952  -15.1134 C   0  0  1  0  0  0  0  0  0  0  0  0
   22.2480  -10.6868  -14.2773 C   0  0  0  0  0  0  0  0  0  0  0  0
   23.3106  -10.7684  -16.5109 C   0  0  0  0  0  0  0  0  0  0  0  0
   21.9513  -10.4763  -17.0542 C   0  0  2  0  0  0  0  0  0  0  0  0
   21.7756  -11.0734  -18.3779 N   0  0  0  0  0  0  0  0  0  0  0  0
   21.6654   -9.0477  -17.0549 C   0  0  0  0  0  0  0  0  0  0  0  0
   22.3080   -8.2525  -17.7750 O   0  0  0  0  0  0  0  0  0  0  0  0
   20.6439   -8.4485  -16.2457 N   0  0  0  0  0  0  0  0  0  0  0  0
   20.3658   -7.0404  -16.3538 C   0  0  1  0  0  0  0  0  0  0  0  0
   18.8777   -6.7717  -16.4802 C   0  0  0  0  0  0  0  0  0  0  0  0
   18.0193   -7.1619  -14.9430 S   0  0  0  0  0  0  0  0  0  0  0  0
   20.9510   -6.2940  -15.2112 C   0  0  0  0  0  0  0  0  0  0  0  0
   21.4730   -6.8652  -14.2243 O   0  0  0  0  0  0  0  0  0  0  0  0
   20.9144   -4.9136  -15.2456 O   0  0  0  0  0  0  0  0  0  0  0  0
  2  1  1  6
  2  4  1  0
  3  2  1  0
  4  5  2  0
  7  6  1  6
  7  9  1  0
  8  7  1  0
 10  9  1  6
 10 12  1  0
 11 10  1  0
 11  4  1  0
 12 13  2  0
 12 14  1  0
 14 15  1  0
 15 18  1  0
 15 16  1  1
 17 16  1  0
 18 19  2  0
 18 20  1  0
M  END
$$$$
