ALC.pdb
     RDKit          3D

 20 19  0  0  1  0  0  0  0  0999 V2000
   19.7173  -12.0954  -19.2720 C   0  0  0  0  0  0  0  0  0  0  0  0
   20.3799  -10.7743  -19.6707 C   0  0  2  0  0  0  0  0  0  0  0  0
   21.7204  -11.1010  -20.1150 N   0  0  0  0  0  0  0  0  0  0  0  0
   20.4341   -9.9397  -18.4454 C   0  0  0  0  0  0  0  0  0  0  0  0
   19.3576   -9.6296  -17.8687 O   0  0  0  0  0  0  0  0  0  0  0  0
   24.0592  -10.4540  -14.3862 C   0  0  0  0  0  0  0  0  0  0  0  0
   22.7578  -10.1709  -15.1154 C   0  0  1  0  0  0  0  0  0  0  0  0
   21.6176  -10.0534  -14.0694 C   0  0  0  0  0  0  0  0  0  0  0  0
   22.8702   -8.8870  -15.8569 C   0  0  0  0  0  0  0  0  0  0  0  0
   21.6799   -8.5960  -16.7094 C   0  0  2  0  0  0  0  0  0  0  0  0
   21.6496   -9.4678  -17.8836 N   0  0  0  0  0  0  0  0  0  0  0  0
   21.6059   -7.1866  -17.0709 C   0  0  0  0  0  0  0  0  0  0  0  0
   22.5008   -6.6378  -17.7505 O   0  0  0  0  0  0  0  0  0  0  0  0
   20.5219   -6.3303  -16.6847 N   0  0  0  0  0  0  0  0  0  0  0  0
   20.4728   -4.9686  -17.1484 C   0  0  1  0  0  0  0  0  0  0  0  0
   19.1706   -4.6688  -17.8675 C   0  0  0  0  0  0  0  0  0  0  0  0
   18.9445   -5.7701  -19.2774 S   0  0  0  0  0  0  0  0  0  0  0  0
   20.6999   -4.0180  -16.0304 C   0  0  0  0  0  0  0  0  0  0  0  0
   20.7809   -4.3854  -14.8340 O   0  0  0  0  0  0  0  0  0  0  0  0
   20.8259   -2.6756  -16.3301 O   0  0  0  0  0  0  0  0  0  0  0  0
  2  1  1  1
  2  4  1  0
  3  2  1  0
  4  5  2  0
  7  6  1  1
  7  9  1  0
  8  7  1  0
 10  9  1  6
 10 12  1  0
 11 10  1  0
 11  4  1  0
 12 13  2  0
 12 14  1  0
 14 15  1  0
 15 18  1  0
 15 16  1  1
 17 16  1  0
 18 19  2  0
 18 20  1  0
M  END
$$$$
