ALC.pdb
     RDKit          3D

 20 19  0  0  1  0  0  0  0  0999 V2000
   22.5661  -11.7106  -21.2159 C   0  0  0  0  0  0  0  0  0  0  0  0
   23.6769  -12.0875  -20.2323 C   0  0  2  0  0  0  0  0  0  0  0  0
   23.5421  -13.5086  -19.9803 N   0  0  0  0  0  0  0  0  0  0  0  0
   23.4220  -11.3190  -18.9892 C   0  0  0  0  0  0  0  0  0  0  0  0
   22.3496  -11.5160  -18.3576 O   0  0  0  0  0  0  0  0  0  0  0  0
   27.2178  -10.5350  -15.2443 C   0  0  0  0  0  0  0  0  0  0  0  0
   25.8701  -10.7694  -15.9032 C   0  0  1  0  0  0  0  0  0  0  0  0
   24.8849  -11.3185  -14.8375 C   0  0  0  0  0  0  0  0  0  0  0  0
   25.3437   -9.4841  -16.4341 C   0  0  0  0  0  0  0  0  0  0  0  0
   24.0846   -9.6457  -17.2194 C   0  0  2  0  0  0  0  0  0  0  0  0
   24.3341  -10.3632  -18.4695 N   0  0  0  0  0  0  0  0  0  0  0  0
   23.4199   -8.3687  -17.4434 C   0  0  0  0  0  0  0  0  0  0  0  0
   23.9462   -7.4702  -18.1359 O   0  0  0  0  0  0  0  0  0  0  0  0
   22.1333   -8.0443  -16.8989 N   0  0  0  0  0  0  0  0  0  0  0  0
   21.4876   -6.8071  -17.2512 C   0  0  1  0  0  0  0  0  0  0  0  0
   20.1185   -7.0440  -17.8611 C   0  0  0  0  0  0  0  0  0  0  0  0
   20.2276   -8.1524  -19.2794 S   0  0  0  0  0  0  0  0  0  0  0  0
   21.4036   -5.8990  -16.0794 C   0  0  0  0  0  0  0  0  0  0  0  0
   21.7601   -6.2439  -14.9275 O   0  0  0  0  0  0  0  0  0  0  0  0
   20.9110   -4.6236  -16.2756 O   0  0  0  0  0  0  0  0  0  0  0  0
  2  1  1  6
  2  4  1  0
  3  2  1  0
  4  5  2  0
  7  6  1  1
  7  9  1  0
  8  7  1  0
 10  9  1  6
 10 12  1  0
 11 10  1  0
 11  4  1  0
 12 13  2  0
 12 14  1  0
 14 15  1  0
 15 18  1  0
 15 16  1  1
 17 16  1  0
 18 19  2  0
 18 20  1  0
M  END
$$$$
