ALC.pdb
     RDKit          3D

 20 19  0  0  1  0  0  0  0  0999 V2000
   27.5656  -19.1493  -16.9254 C   0  0  0  0  0  0  0  0  0  0  0  0
   28.2554  -20.1643  -16.0104 C   0  0  2  0  0  0  0  0  0  0  0  0
   28.7225  -21.2397  -16.8627 N   0  0  0  0  0  0  0  0  0  0  0  0
   27.2192  -20.6645  -15.0738 C   0  0  0  0  0  0  0  0  0  0  0  0
   26.4893  -21.6286  -15.4276 O   0  0  0  0  0  0  0  0  0  0  0  0
   25.4786  -22.2637  -10.3685 C   0  0  0  0  0  0  0  0  0  0  0  0
   25.3193  -20.7574  -10.4741 C   0  0  1  0  0  0  0  0  0  0  0  0
   25.6034  -20.1291   -9.0840 C   0  0  0  0  0  0  0  0  0  0  0  0
   26.2959  -20.2200  -11.4583 C   0  0  0  0  0  0  0  0  0  0  0  0
   26.0042  -20.6371  -12.8615 C   0  0  2  0  0  0  0  0  0  0  0  0
   27.0060  -20.1064  -13.7859 N   0  0  0  0  0  0  0  0  0  0  0  0
   24.6484  -20.2825  -13.2598 C   0  0  0  0  0  0  0  0  0  0  0  0
   24.3021  -19.0906  -13.4122 O   0  0  0  0  0  0  0  0  0  0  0  0
   23.6204  -21.2523  -13.5047 N   0  0  0  0  0  0  0  0  0  0  0  0
   22.3006  -20.8282  -13.8922 C   0  0  1  0  0  0  0  0  0  0  0  0
   21.8006  -21.5918  -15.1044 C   0  0  0  0  0  0  0  0  0  0  0  0
   22.9450  -21.4255  -16.4881 S   0  0  0  0  0  0  0  0  0  0  0  0
   21.3509  -20.9422  -12.7565 C   0  0  0  0  0  0  0  0  0  0  0  0
   21.6727  -21.4393  -11.6509 O   0  0  0  0  0  0  0  0  0  0  0  0
   20.0618  -20.4790  -12.9341 O   0  0  0  0  0  0  0  0  0  0  0  0
  2  1  1  6
  2  4  1  0
  3  2  1  0
  4  5  2  0
  7  6  1  1
  7  9  1  0
  8  7  1  0
 10  9  1  1
 10 12  1  0
 11 10  1  0
 11  4  1  0
 12 13  2  0
 12 14  1  0
 14 15  1  0
 15 18  1  0
 15 16  1  6
 17 16  1  0
 18 19  2  0
 18 20  1  0
M  END
$$$$
