ALC.pdb
     RDKit          3D

 20 19  0  0  1  0  0  0  0  0999 V2000
   26.4231  -18.6235  -17.0327 C   0  0  0  0  0  0  0  0  0  0  0  0
   27.6439  -19.5443  -16.9615 C   0  0  2  0  0  0  0  0  0  0  0  0
   27.5001  -20.5063  -18.0362 N   0  0  0  0  0  0  0  0  0  0  0  0
   27.5826  -20.2297  -15.6472 C   0  0  0  0  0  0  0  0  0  0  0  0
   26.7048  -21.1137  -15.4589 O   0  0  0  0  0  0  0  0  0  0  0  0
   29.4203  -22.5747  -11.3202 C   0  0  0  0  0  0  0  0  0  0  0  0
   29.5632  -21.0726  -11.1509 C   0  0  1  0  0  0  0  0  0  0  0  0
   30.8836  -20.7819  -10.3892 C   0  0  0  0  0  0  0  0  0  0  0  0
   29.6209  -20.4229  -12.4872 C   0  0  0  0  0  0  0  0  0  0  0  0
   28.3621  -20.5851  -13.2729 C   0  0  2  0  0  0  0  0  0  0  0  0
   28.4719  -19.9372  -14.5798 N   0  0  0  0  0  0  0  0  0  0  0  0
   27.1975  -20.1242  -12.5286 C   0  0  0  0  0  0  0  0  0  0  0  0
   26.9892  -18.9076  -12.3278 O   0  0  0  0  0  0  0  0  0  0  0  0
   26.2144  -21.0106  -11.9762 N   0  0  0  0  0  0  0  0  0  0  0  0
   25.1352  -20.4902  -11.1785 C   0  0  1  0  0  0  0  0  0  0  0  0
   23.7824  -20.8862  -11.7402 C   0  0  0  0  0  0  0  0  0  0  0  0
   22.4559  -20.4357  -10.6046 S   0  0  0  0  0  0  0  0  0  0  0  0
   25.2718  -20.9102   -9.7608 C   0  0  0  0  0  0  0  0  0  0  0  0
   25.5778  -22.0797   -9.4267 O   0  0  0  0  0  0  0  0  0  0  0  0
   25.0508  -19.9671   -8.7761 O   0  0  0  0  0  0  0  0  0  0  0  0
  2  1  1  1
  2  4  1  0
  3  2  1  0
  4  5  2  0
  7  6  1  6
  7  9  1  0
  8  7  1  0
 10  9  1  1
 10 12  1  0
 11 10  1  0
 11  4  1  0
 12 13  2  0
 12 14  1  0
 14 15  1  0
 15 18  1  0
 15 16  1  6
 17 16  1  0
 18 19  2  0
 18 20  1  0
M  END
$$$$
