ALC.pdb
     RDKit          3D

 20 19  0  0  1  0  0  0  0  0999 V2000
   18.5278  -15.4514  -17.4855 C   0  0  0  0  0  0  0  0  0  0  0  0
   19.5870  -14.5985  -18.1884 C   0  0  2  0  0  0  0  0  0  0  0  0
   20.5650  -15.5191  -18.7334 N   0  0  0  0  0  0  0  0  0  0  0  0
   20.2087  -13.7478  -17.1440 C   0  0  0  0  0  0  0  0  0  0  0  0
   19.5119  -13.3787  -16.1613 O   0  0  0  0  0  0  0  0  0  0  0  0
   25.4667  -14.2337  -15.7606 C   0  0  0  0  0  0  0  0  0  0  0  0
   23.9662  -14.0329  -15.6429 C   0  0  1  0  0  0  0  0  0  0  0  0
   23.5533  -14.2307  -14.1603 C   0  0  0  0  0  0  0  0  0  0  0  0
   23.6129  -12.6515  -16.0649 C   0  0  0  0  0  0  0  0  0  0  0  0
   22.1412  -12.4347  -16.1889 C   0  0  2  0  0  0  0  0  0  0  0  0
   21.5627  -13.3240  -17.1960 N   0  0  0  0  0  0  0  0  0  0  0  0
   21.8207  -11.0364  -16.4433 C   0  0  0  0  0  0  0  0  0  0  0  0
   21.9973  -10.5191  -17.5680 O   0  0  0  0  0  0  0  0  0  0  0  0
   21.2871  -10.1564  -15.4442 N   0  0  0  0  0  0  0  0  0  0  0  0
   20.9908   -8.7857  -15.7686 C   0  0  1  0  0  0  0  0  0  0  0  0
   19.5133   -8.5836  -16.0492 C   0  0  0  0  0  0  0  0  0  0  0  0
   19.0949   -6.8296  -16.0689 S   0  0  0  0  0  0  0  0  0  0  0  0
   21.4638   -7.8720  -14.6978 C   0  0  0  0  0  0  0  0  0  0  0  0
   21.5010   -8.2055  -13.4894 O   0  0  0  0  0  0  0  0  0  0  0  0
   21.8781   -6.6042  -15.0571 O   0  0  0  0  0  0  0  0  0  0  0  0
  2  1  1  1
  2  4  1  0
  3  2  1  0
  4  5  2  0
  7  6  1  1
  7  9  1  0
  8  7  1  0
 10  9  1  6
 10 12  1  0
 11 10  1  0
 11  4  1  0
 12 13  2  0
 12 14  1  0
 14 15  1  0
 15 18  1  0
 15 16  1  1
 17 16  1  0
 18 19  2  0
 18 20  1  0
M  END
$$$$
