AVL.pdb
     RDKit          3D

 21 20  0  0  1  0  0  0  0  0999 V2000
    8.3579  -12.2238   19.1373 C   0  0  0  0  0  0  0  0  0  0  0  0
    8.5647  -13.6643   18.6490 C   0  0  2  0  0  0  0  0  0  0  0  0
    7.7481  -13.8123   17.4754 N   0  0  0  0  0  0  0  0  0  0  0  0
    8.1553  -14.6289   19.6989 C   0  0  0  0  0  0  0  0  0  0  0  0
    6.9653  -15.0217   19.8091 O   0  0  0  0  0  0  0  0  0  0  0  0
    9.4578  -17.9931   20.3089 C   0  0  0  0  0  0  0  0  0  0  0  0
    9.7914  -17.2143   21.5651 C   0  0  2  0  0  0  0  0  0  0  0  0
    9.5293  -18.0934   22.7708 C   0  0  0  0  0  0  0  0  0  0  0  0
    8.8530  -16.0375   21.6600 C   0  0  2  0  0  0  0  0  0  0  0  0
    9.1336  -15.1189   20.6004 N   0  0  0  0  0  0  0  0  0  0  0  0
    9.0085  -15.3168   22.9622 C   0  0  0  0  0  0  0  0  0  0  0  0
   10.1217  -14.8413   23.3073 O   0  0  0  0  0  0  0  0  0  0  0  0
    7.8631  -11.5194   26.4880 C   0  0  0  0  0  0  0  0  0  0  0  0
    7.0133  -12.7710   26.6492 C   0  0  1  0  0  0  0  0  0  0  0  0
    5.6285  -12.3309   27.1557 C   0  0  0  0  0  0  0  0  0  0  0  0
    6.8854  -13.5355   25.3703 C   0  0  0  0  0  0  0  0  0  0  0  0
    8.0406  -14.4249   25.1380 C   0  0  2  0  0  0  0  0  0  0  0  0
    7.9204  -15.1388   23.8566 N   0  0  0  0  0  0  0  0  0  0  0  0
    8.3675  -15.3668   26.2186 C   0  0  0  0  0  0  0  0  0  0  0  0
    7.7606  -16.4260   26.3846 O   0  0  0  0  0  0  0  0  0  0  0  0
    9.3967  -15.0509   27.0850 O   0  0  0  0  0  0  0  0  0  0  0  0
  2  1  1  1
  3  2  1  0
  4  5  2  0
  4  2  1  0
  7  6  1  6
  7  9  1  0
  8  7  1  0
  9 11  1  0
  9 10  1  6
 10  4  1  0
 11 18  1  0
 12 11  2  0
 14 15  1  6
 14 13  1  0
 16 14  1  0
 17 16  1  1
 18 17  1  0
 19 21  1  0
 19 17  1  0
 20 19  2  0
M  END
$$$$
