AVL.pdb
     RDKit          3D

 21 20  0  0  1  0  0  0  0  0999 V2000
    8.3350  -12.0952   19.7269 C   0  0  0  0  0  0  0  0  0  0  0  0
    8.4287  -13.5498   19.2457 C   0  0  2  0  0  0  0  0  0  0  0  0
    7.5416  -13.6589   18.1200 N   0  0  0  0  0  0  0  0  0  0  0  0
    8.0210  -14.4786   20.3279 C   0  0  0  0  0  0  0  0  0  0  0  0
    6.8269  -14.8488   20.4675 O   0  0  0  0  0  0  0  0  0  0  0  0
    9.3277  -17.6897   20.5301 C   0  0  0  0  0  0  0  0  0  0  0  0
    9.6586  -17.1642   21.9122 C   0  0  2  0  0  0  0  0  0  0  0  0
    9.3270  -18.2320   22.9347 C   0  0  0  0  0  0  0  0  0  0  0  0
    8.7674  -15.9818   22.1988 C   0  0  2  0  0  0  0  0  0  0  0  0
    9.0059  -14.9601   21.2269 N   0  0  0  0  0  0  0  0  0  0  0  0
    9.0336  -15.4119   23.5566 C   0  0  0  0  0  0  0  0  0  0  0  0
   10.1764  -14.9821   23.8631 O   0  0  0  0  0  0  0  0  0  0  0  0
    5.6280  -12.2107   26.3755 C   0  0  0  0  0  0  0  0  0  0  0  0
    6.8846  -12.8922   25.8550 C   0  0  1  0  0  0  0  0  0  0  0  0
    8.0666  -11.9379   26.0996 C   0  0  0  0  0  0  0  0  0  0  0  0
    7.1285  -14.2101   26.5183 C   0  0  0  0  0  0  0  0  0  0  0  0
    8.2859  -14.9182   25.9364 C   0  0  2  0  0  0  0  0  0  0  0  0
    8.0213  -15.3312   24.5488 N   0  0  0  0  0  0  0  0  0  0  0  0
    8.8184  -16.0475   26.7127 C   0  0  0  0  0  0  0  0  0  0  0  0
    8.4095  -17.2015   26.5750 O   0  0  0  0  0  0  0  0  0  0  0  0
    9.8177  -15.8053   27.6360 O   0  0  0  0  0  0  0  0  0  0  0  0
  2  1  1  1
  3  2  1  0
  4  5  2  0
  4  2  1  0
  7  6  1  6
  7  9  1  0
  8  7  1  0
  9 11  1  0
  9 10  1  6
 10  4  1  0
 11 18  1  0
 12 11  2  0
 14 15  1  1
 14 13  1  0
 16 14  1  0
 17 16  1  1
 18 17  1  0
 19 21  1  0
 19 17  1  0
 20 19  2  0
M  END
$$$$
