AVL.pdb
     RDKit          3D

 21 20  0  0  1  0  0  0  0  0999 V2000
    6.8041  -18.8464   22.9892 C   0  0  0  0  0  0  0  0  0  0  0  0
    6.9598  -18.3314   21.5516 C   0  0  2  0  0  0  0  0  0  0  0  0
    7.5606  -19.4019   20.8038 N   0  0  0  0  0  0  0  0  0  0  0  0
    7.8218  -17.1245   21.5263 C   0  0  0  0  0  0  0  0  0  0  0  0
    9.0767  -17.2080   21.4964 O   0  0  0  0  0  0  0  0  0  0  0  0
    7.0282  -13.8672   19.3905 C   0  0  0  0  0  0  0  0  0  0  0  0
    7.1198  -13.5429   20.8677 C   0  0  2  0  0  0  0  0  0  0  0  0
    7.8662  -12.2354   21.0369 C   0  0  0  0  0  0  0  0  0  0  0  0
    7.9405  -14.6140   21.5412 C   0  0  2  0  0  0  0  0  0  0  0  0
    7.2120  -15.8448   21.5361 N   0  0  0  0  0  0  0  0  0  0  0  0
    8.2499  -14.2554   22.9606 C   0  0  0  0  0  0  0  0  0  0  0  0
    8.3553  -13.0517   23.3135 O   0  0  0  0  0  0  0  0  0  0  0  0
    5.9945  -12.0327   26.0474 C   0  0  0  0  0  0  0  0  0  0  0  0
    7.2957  -12.7635   25.7517 C   0  0  1  0  0  0  0  0  0  0  0  0
    8.3209  -12.3375   26.8171 C   0  0  0  0  0  0  0  0  0  0  0  0
    7.1225  -14.2489   25.7545 C   0  0  0  0  0  0  0  0  0  0  0  0
    8.3712  -14.9536   25.4028 C   0  0  2  0  0  0  0  0  0  0  0  0
    8.4365  -15.2448   23.9616 N   0  0  0  0  0  0  0  0  0  0  0  0
    8.6817  -16.1608   26.1823 C   0  0  0  0  0  0  0  0  0  0  0  0
    7.9135  -17.1210   26.2568 O   0  0  0  0  0  0  0  0  0  0  0  0
    9.8841  -16.2212   26.8609 O   0  0  0  0  0  0  0  0  0  0  0  0
  2  1  1  1
  3  2  1  0
  4  5  2  0
  4  2  1  0
  7  6  1  6
  7  9  1  0
  8  7  1  0
  9 11  1  0
  9 10  1  1
 10  4  1  0
 11 18  1  0
 12 11  2  0
 14 15  1  1
 14 13  1  0
 16 14  1  0
 17 16  1  1
 18 17  1  0
 19 21  1  0
 19 17  1  0
 20 19  2  0
M  END
$$$$
