AVL.pdb
     RDKit          3D

 21 20  0  0  1  0  0  0  0  0999 V2000
    7.6000  -17.4952   21.2889 C   0  0  0  0  0  0  0  0  0  0  0  0
    7.5775  -15.9651   21.1694 C   0  0  2  0  0  0  0  0  0  0  0  0
    8.1795  -15.6518   19.9023 N   0  0  0  0  0  0  0  0  0  0  0  0
    8.3425  -15.3493   22.2811 C   0  0  0  0  0  0  0  0  0  0  0  0
    9.5861  -15.1730   22.2108 O   0  0  0  0  0  0  0  0  0  0  0  0
    6.0793  -14.5169   25.6691 C   0  0  0  0  0  0  0  0  0  0  0  0
    7.2875  -13.6356   25.4257 C   0  0  2  0  0  0  0  0  0  0  0  0
    6.8649  -12.4450   24.5895 C   0  0  0  0  0  0  0  0  0  0  0  0
    8.2911  -14.4156   24.6140 C   0  0  2  0  0  0  0  0  0  0  0  0
    7.6506  -14.9501   23.4523 N   0  0  0  0  0  0  0  0  0  0  0  0
    8.8665  -15.5517   25.3997 C   0  0  0  0  0  0  0  0  0  0  0  0
    8.6025  -16.7446   25.0966 O   0  0  0  0  0  0  0  0  0  0  0  0
   11.4063  -14.9731   30.5671 C   0  0  0  0  0  0  0  0  0  0  0  0
   10.5745  -15.1911   29.3119 C   0  0  1  0  0  0  0  0  0  0  0  0
   10.1113  -13.8103   28.8153 C   0  0  0  0  0  0  0  0  0  0  0  0
   11.3409  -15.9030   28.2431 C   0  0  0  0  0  0  0  0  0  0  0  0
   10.4577  -16.4242   27.1810 C   0  0  2  0  0  0  0  0  0  0  0  0
    9.7258  -15.3382   26.5094 N   0  0  0  0  0  0  0  0  0  0  0  0
    9.5331  -17.4992   27.5695 C   0  0  0  0  0  0  0  0  0  0  0  0
    9.9203  -18.5931   27.9832 O   0  0  0  0  0  0  0  0  0  0  0  0
    8.1734  -17.2746   27.4652 O   0  0  0  0  0  0  0  0  0  0  0  0
  2  1  1  1
  3  2  1  0
  4  5  2  0
  4  2  1  0
  7  6  1  6
  7  9  1  0
  8  7  1  0
  9 11  1  0
  9 10  1  6
 10  4  1  0
 11 18  1  0
 12 11  2  0
 14 15  1  6
 14 13  1  0
 16 14  1  0
 17 16  1  1
 18 17  1  0
 19 21  1  0
 19 17  1  0
 20 19  2  0
M  END
$$$$
