AVL.pdb
     RDKit          3D

 21 20  0  0  1  0  0  0  0  0999 V2000
    6.1494  -18.7946   23.8886 C   0  0  0  0  0  0  0  0  0  0  0  0
    6.3389  -18.5274   22.3889 C   0  0  2  0  0  0  0  0  0  0  0  0
    6.6943  -19.7883   21.7975 N   0  0  0  0  0  0  0  0  0  0  0  0
    7.4117  -17.5257   22.1748 C   0  0  0  0  0  0  0  0  0  0  0  0
    8.6227  -17.8582   22.1017 O   0  0  0  0  0  0  0  0  0  0  0  0
    6.8898  -14.1927   19.9036 C   0  0  0  0  0  0  0  0  0  0  0  0
    7.3159  -13.8860   21.3249 C   0  0  2  0  0  0  0  0  0  0  0  0
    8.3324  -12.7629   21.3001 C   0  0  0  0  0  0  0  0  0  0  0  0
    8.0092  -15.1013   21.8878 C   0  0  2  0  0  0  0  0  0  0  0  0
    7.0593  -16.1582   22.0496 N   0  0  0  0  0  0  0  0  0  0  0  0
    8.6244  -14.8124   23.2209 C   0  0  0  0  0  0  0  0  0  0  0  0
    9.7721  -14.3021   23.3047 O   0  0  0  0  0  0  0  0  0  0  0  0
    5.8904  -12.2330   26.6679 C   0  0  0  0  0  0  0  0  0  0  0  0
    7.1946  -12.7567   26.0853 C   0  0  1  0  0  0  0  0  0  0  0  0
    8.2951  -11.7327   26.4137 C   0  0  0  0  0  0  0  0  0  0  0  0
    7.5537  -14.1042   26.6256 C   0  0  0  0  0  0  0  0  0  0  0  0
    8.5220  -14.8081   25.7617 C   0  0  2  0  0  0  0  0  0  0  0  0
    7.9496  -15.0973   24.4370 N   0  0  0  0  0  0  0  0  0  0  0  0
    9.1420  -16.0163   26.3250 C   0  0  0  0  0  0  0  0  0  0  0  0
    8.9374  -17.1430   25.8708 O   0  0  0  0  0  0  0  0  0  0  0  0
    9.9883  -15.8836   27.4095 O   0  0  0  0  0  0  0  0  0  0  0  0
  2  1  1  1
  3  2  1  0
  4  5  2  0
  4  2  1  0
  7  6  1  6
  7  9  1  0
  8  7  1  0
  9 11  1  0
  9 10  1  1
 10  4  1  0
 11 18  1  0
 12 11  2  0
 14 15  1  1
 14 13  1  0
 16 14  1  0
 17 16  1  1
 18 17  1  0
 19 21  1  0
 19 17  1  0
 20 19  2  0
M  END
$$$$
