AVL.pdb
     RDKit          3D

 21 20  0  0  1  0  0  0  0  0999 V2000
    6.6734  -18.7004   23.3176 C   0  0  0  0  0  0  0  0  0  0  0  0
    6.9481  -18.3915   21.8393 C   0  0  2  0  0  0  0  0  0  0  0  0
    7.5361  -19.5792   21.2828 N   0  0  0  0  0  0  0  0  0  0  0  0
    7.8743  -17.2394   21.7163 C   0  0  0  0  0  0  0  0  0  0  0  0
    9.1230  -17.3871   21.7545 O   0  0  0  0  0  0  0  0  0  0  0  0
    7.0803  -14.2536   19.1261 C   0  0  0  0  0  0  0  0  0  0  0  0
    7.2862  -13.7623   20.5445 C   0  0  2  0  0  0  0  0  0  0  0  0
    8.0786  -12.4716   20.5057 C   0  0  0  0  0  0  0  0  0  0  0  0
    8.1230  -14.7761   21.2837 C   0  0  2  0  0  0  0  0  0  0  0  0
    7.3346  -15.9390   21.5513 N   0  0  0  0  0  0  0  0  0  0  0  0
    8.6178  -14.2320   22.5869 C   0  0  0  0  0  0  0  0  0  0  0  0
    9.0324  -13.0468   22.6753 O   0  0  0  0  0  0  0  0  0  0  0  0
    8.4398  -11.7560   26.7359 C   0  0  0  0  0  0  0  0  0  0  0  0
    7.4183  -12.8777   26.6223 C   0  0  1  0  0  0  0  0  0  0  0  0
    6.0315  -12.2744   26.9059 C   0  0  0  0  0  0  0  0  0  0  0  0
    7.4418  -13.5288   25.2761 C   0  0  0  0  0  0  0  0  0  0  0  0
    8.5924  -14.4406   25.1211 C   0  0  2  0  0  0  0  0  0  0  0  0
    8.6418  -15.0187   23.7685 N   0  0  0  0  0  0  0  0  0  0  0  0
    8.7291  -15.4978   26.1336 C   0  0  0  0  0  0  0  0  0  0  0  0
    8.0403  -16.5193   26.1266 O   0  0  0  0  0  0  0  0  0  0  0  0
    9.6676  -15.3394   27.1356 O   0  0  0  0  0  0  0  0  0  0  0  0
  2  1  1  1
  3  2  1  0
  4  5  2  0
  4  2  1  0
  7  6  1  6
  7  9  1  0
  8  7  1  0
  9 11  1  0
  9 10  1  1
 10  4  1  0
 11 18  1  0
 12 11  2  0
 14 15  1  6
 14 13  1  0
 16 14  1  0
 17 16  1  1
 18 17  1  0
 19 21  1  0
 19 17  1  0
 20 19  2  0
M  END
$$$$
