AVL.pdb
     RDKit          3D

 21 20  0  0  1  0  0  0  0  0999 V2000
   11.5817  -18.6919   21.1205 C   0  0  0  0  0  0  0  0  0  0  0  0
   11.2792  -17.4969   20.2059 C   0  0  2  0  0  0  0  0  0  0  0  0
   12.5297  -17.1258   19.6020 N   0  0  0  0  0  0  0  0  0  0  0  0
   10.7223  -16.3711   20.9950 C   0  0  0  0  0  0  0  0  0  0  0  0
   11.4639  -15.5741   21.6254 O   0  0  0  0  0  0  0  0  0  0  0  0
    7.6084  -14.2430   19.7197 C   0  0  0  0  0  0  0  0  0  0  0  0
    7.3439  -14.8280   21.0921 C   0  0  2  0  0  0  0  0  0  0  0  0
    6.6533  -13.7836   21.9451 C   0  0  0  0  0  0  0  0  0  0  0  0
    8.6692  -15.1306   21.7452 C   0  0  2  0  0  0  0  0  0  0  0  0
    9.3167  -16.1915   21.0376 N   0  0  0  0  0  0  0  0  0  0  0  0
    8.4938  -15.5526   23.1701 C   0  0  0  0  0  0  0  0  0  0  0  0
    8.9376  -16.6590   23.5744 O   0  0  0  0  0  0  0  0  0  0  0  0
    5.9520  -11.8112   26.2035 C   0  0  0  0  0  0  0  0  0  0  0  0
    7.1150  -12.7722   26.0073 C   0  0  1  0  0  0  0  0  0  0  0  0
    8.2212  -12.3725   26.9995 C   0  0  0  0  0  0  0  0  0  0  0  0
    6.7119  -14.1970   26.2171 C   0  0  0  0  0  0  0  0  0  0  0  0
    7.6111  -15.1364   25.5183 C   0  0  2  0  0  0  0  0  0  0  0  0
    7.8268  -14.7341   24.1191 N   0  0  0  0  0  0  0  0  0  0  0  0
    7.2521  -16.5603   25.5906 C   0  0  0  0  0  0  0  0  0  0  0  0
    7.5944  -17.2864   26.5251 O   0  0  0  0  0  0  0  0  0  0  0  0
    6.5009  -17.1078   24.5680 O   0  0  0  0  0  0  0  0  0  0  0  0
  2  1  1  1
  3  2  1  0
  4  5  2  0
  4  2  1  0
  7  6  1  6
  7  9  1  0
  8  7  1  0
  9 11  1  0
  9 10  1  6
 10  4  1  0
 11 18  1  0
 12 11  2  0
 14 15  1  1
 14 13  1  0
 16 14  1  0
 17 16  1  6
 18 17  1  0
 19 21  1  0
 19 17  1  0
 20 19  2  0
M  END
$$$$
