AVL.pdb
     RDKit          3D

 21 20  0  0  1  0  0  0  0  0999 V2000
    8.2914  -12.0105   19.6535 C   0  0  0  0  0  0  0  0  0  0  0  0
    8.4181  -13.4561   19.1530 C   0  0  2  0  0  0  0  0  0  0  0  0
    7.5804  -13.5536   17.9890 N   0  0  0  0  0  0  0  0  0  0  0  0
    7.9731  -14.4062   20.2016 C   0  0  0  0  0  0  0  0  0  0  0  0
    6.7589  -14.6938   20.3620 O   0  0  0  0  0  0  0  0  0  0  0  0
    8.9342  -17.7725   20.3895 C   0  0  0  0  0  0  0  0  0  0  0  0
    9.3915  -17.2560   21.7385 C   0  0  2  0  0  0  0  0  0  0  0  0
    9.0102  -18.2635   22.8038 C   0  0  0  0  0  0  0  0  0  0  0  0
    8.6414  -15.9831   22.0411 C   0  0  2  0  0  0  0  0  0  0  0  0
    8.9444  -15.0040   21.0435 N   0  0  0  0  0  0  0  0  0  0  0  0
    9.0219  -15.4277   23.3774 C   0  0  0  0  0  0  0  0  0  0  0  0
   10.2021  -15.0560   23.6092 O   0  0  0  0  0  0  0  0  0  0  0  0
    5.7767  -12.2818   26.4706 C   0  0  0  0  0  0  0  0  0  0  0  0
    6.9978  -12.9333   25.8388 C   0  0  1  0  0  0  0  0  0  0  0  0
    8.1656  -11.9374   25.9488 C   0  0  0  0  0  0  0  0  0  0  0  0
    7.3500  -14.2295   26.4962 C   0  0  0  0  0  0  0  0  0  0  0  0
    8.4564  -14.9198   25.8041 C   0  0  2  0  0  0  0  0  0  0  0  0
    8.0804  -15.2964   24.4319 N   0  0  0  0  0  0  0  0  0  0  0  0
    9.0496  -16.0682   26.5045 C   0  0  0  0  0  0  0  0  0  0  0  0
    9.8298  -15.9410   27.4494 O   0  0  0  0  0  0  0  0  0  0  0  0
    8.7201  -17.3432   26.0854 O   0  0  0  0  0  0  0  0  0  0  0  0
  2  1  1  1
  3  2  1  0
  4  5  2  0
  4  2  1  0
  7  6  1  6
  7  9  1  0
  8  7  1  0
  9 11  1  0
  9 10  1  6
 10  4  1  0
 11 18  1  0
 12 11  2  0
 14 15  1  1
 14 13  1  0
 16 14  1  0
 17 16  1  1
 18 17  1  0
 19 21  1  0
 19 17  1  0
 20 19  2  0
M  END
$$$$
