AVL.pdb
     RDKit          3D

 21 20  0  0  1  0  0  0  0  0999 V2000
   10.8632  -18.9916   20.5089 C   0  0  0  0  0  0  0  0  0  0  0  0
   10.5262  -17.7502   19.6713 C   0  0  2  0  0  0  0  0  0  0  0  0
   11.6268  -17.5654   18.7653 N   0  0  0  0  0  0  0  0  0  0  0  0
   10.3628  -16.5649   20.5480 C   0  0  0  0  0  0  0  0  0  0  0  0
   11.3493  -15.8875   20.9359 O   0  0  0  0  0  0  0  0  0  0  0  0
    7.3850  -13.8771   20.2452 C   0  0  0  0  0  0  0  0  0  0  0  0
    7.3923  -14.5818   21.5865 C   0  0  2  0  0  0  0  0  0  0  0  0
    7.0830  -13.5716   22.6724 C   0  0  0  0  0  0  0  0  0  0  0  0
    8.7845  -15.1008   21.8451 C   0  0  2  0  0  0  0  0  0  0  0  0
    9.0589  -16.1883   20.9577 N   0  0  0  0  0  0  0  0  0  0  0  0
    8.9339  -15.5906   23.2511 C   0  0  0  0  0  0  0  0  0  0  0  0
    8.6732  -16.7855   23.5491 O   0  0  0  0  0  0  0  0  0  0  0  0
   11.1066  -15.0821   28.3823 C   0  0  0  0  0  0  0  0  0  0  0  0
    9.7472  -14.4884   28.0446 C   0  0  1  0  0  0  0  0  0  0  0  0
    9.5113  -13.2983   28.9911 C   0  0  0  0  0  0  0  0  0  0  0  0
    9.6615  -14.0489   26.6178 C   0  0  0  0  0  0  0  0  0  0  0  0
    9.5193  -15.1911   25.6932 C   0  0  2  0  0  0  0  0  0  0  0  0
    9.3714  -14.7399   24.3002 N   0  0  0  0  0  0  0  0  0  0  0  0
    8.4776  -16.1741   26.0250 C   0  0  0  0  0  0  0  0  0  0  0  0
    8.7299  -17.2602   26.5488 O   0  0  0  0  0  0  0  0  0  0  0  0
    7.1611  -15.8686   25.7363 O   0  0  0  0  0  0  0  0  0  0  0  0
  2  1  1  1
  3  2  1  0
  4  5  2  0
  4  2  1  0
  7  6  1  6
  7  9  1  0
  8  7  1  0
  9 11  1  0
  9 10  1  6
 10  4  1  0
 11 18  1  0
 12 11  2  0
 14 15  1  1
 14 13  1  0
 16 14  1  0
 17 16  1  1
 18 17  1  0
 19 21  1  0
 19 17  1  0
 20 19  2  0
M  END
$$$$
