HHK.pdb
     RDKit          3D

 30 31  0  0  1  0  0  0  0  0999 V2000
    8.6774  -17.0131   16.8952 N   0  0  0  0  0  0  0  0  0  0  0  0
    9.0690  -16.0340   17.8617 C   0  0  1  0  0  0  0  0  0  0  0  0
    8.3636  -14.7343   17.5419 C   0  0  0  0  0  0  0  0  0  0  0  0
    8.5515  -14.3365   16.1426 C   0  0  0  0  0  0  0  0  0  0  0  0
    8.0732  -13.1998   15.5196 C   0  0  0  0  0  0  0  0  0  0  0  0
    8.4579  -13.1947   14.2307 N   0  0  0  0  0  0  0  0  0  0  0  0
    9.1726  -14.3086   14.0239 C   0  0  0  0  0  0  0  0  0  0  0  0
    9.2355  -15.0122   15.1845 N   0  0  0  0  0  0  0  0  0  0  0  0
    8.6683  -16.4239   19.2624 C   0  0  0  0  0  0  0  0  0  0  0  0
    7.4524  -16.5314   19.5014 O   0  0  0  0  0  0  0  0  0  0  0  0
    9.6030  -16.6585   20.2621 N   0  0  0  0  0  0  0  0  0  0  0  0
    9.4792  -17.0670   21.6091 C   0  0  1  0  0  0  0  0  0  0  0  0
   10.1272  -18.3740   21.9928 C   0  0  0  0  0  0  0  0  0  0  0  0
    9.5748  -19.5388   21.2835 C   0  0  0  0  0  0  0  0  0  0  0  0
    8.8018  -20.5360   21.8314 C   0  0  0  0  0  0  0  0  0  0  0  0
    8.5488  -21.4646   20.8905 N   0  0  0  0  0  0  0  0  0  0  0  0
    9.1470  -21.0749   19.7554 C   0  0  0  0  0  0  0  0  0  0  0  0
    9.7696  -19.8972   20.0111 N   0  0  0  0  0  0  0  0  0  0  0  0
    9.6745  -16.0543   22.6370 C   0  0  0  0  0  0  0  0  0  0  0  0
   10.7870  -15.4438   22.7912 O   0  0  0  0  0  0  0  0  0  0  0  0
    8.6463  -15.6745   23.5352 N   0  0  0  0  0  0  0  0  0  0  0  0
    8.7931  -14.5485   24.4503 C   0  0  1  0  0  0  0  0  0  0  0  0
    7.4324  -13.9662   24.7669 C   0  0  0  0  0  0  0  0  0  0  0  0
    7.5259  -12.7840   25.6803 C   0  0  0  0  0  0  0  0  0  0  0  0
    6.1212  -12.3136   25.9992 C   0  0  0  0  0  0  0  0  0  0  0  0
    6.2379  -11.0774   26.8667 C   0  0  0  0  0  0  0  0  0  0  0  0
    4.9027  -10.6044   27.1910 N   0  0  0  0  0  0  0  0  0  0  0  0
    9.3569  -15.0812   25.7163 C   0  0  0  0  0  0  0  0  0  0  0  0
   10.0064  -14.2724   26.6137 O   0  0  0  0  0  0  0  0  0  0  0  0
    9.2636  -16.3005   26.0227 O   0  0  0  0  0  0  0  0  0  0  0  0
  2  1  1  6
  2  3  1  0
  3  4  1  0
  4  5  2  0
  4  8  1  0
  5  6  1  0
  6  7  1  0
  8  7  2  0
  9  2  1  0
  9 10  2  0
 11  9  1  0
 12 11  1  0
 12 13  1  1
 14 13  1  0
 14 15  2  0
 16 15  1  0
 17 16  1  0
 18 17  2  0
 18 14  1  0
 19 12  1  0
 20 19  2  0
 21 19  1  0
 22 21  1  0
 22 28  1  0
 22 23  1  1
 24 25  1  0
 24 23  1  0
 25 26  1  0
 27 26  1  0
 28 29  1  0
 30 28  2  0
M  END
$$$$
