HHK.pdb
     RDKit          3D

 30 31  0  0  1  0  0  0  0  0999 V2000
    9.1395  -15.0607   13.9543 N   0  0  0  0  0  0  0  0  0  0  0  0
    9.7491  -16.1693   14.6216 C   0  0  1  0  0  0  0  0  0  0  0  0
   11.1419  -16.3598   14.0623 C   0  0  0  0  0  0  0  0  0  0  0  0
   11.1189  -16.9388   12.7147 C   0  0  0  0  0  0  0  0  0  0  0  0
   10.0400  -17.4983   12.0577 C   0  0  0  0  0  0  0  0  0  0  0  0
   10.4211  -17.9180   10.8380 N   0  0  0  0  0  0  0  0  0  0  0  0
   11.7241  -17.6348   10.7085 C   0  0  0  0  0  0  0  0  0  0  0  0
   12.1592  -17.0371   11.8484 N   0  0  0  0  0  0  0  0  0  0  0  0
    9.8944  -15.9325   16.1039 C   0  0  0  0  0  0  0  0  0  0  0  0
   10.1499  -14.7737   16.4767 O   0  0  0  0  0  0  0  0  0  0  0  0
    9.7526  -16.9533   17.0345 N   0  0  0  0  0  0  0  0  0  0  0  0
    9.7193  -16.9606   18.4471 C   0  0  1  0  0  0  0  0  0  0  0  0
    8.4662  -16.4416   19.1072 C   0  0  0  0  0  0  0  0  0  0  0  0
    8.3003  -14.9836   18.9977 C   0  0  0  0  0  0  0  0  0  0  0  0
    9.2385  -14.0882   18.5395 C   0  0  0  0  0  0  0  0  0  0  0  0
    8.7496  -12.8396   18.6558 N   0  0  0  0  0  0  0  0  0  0  0  0
    7.5182  -12.9262   19.1794 C   0  0  0  0  0  0  0  0  0  0  0  0
    7.2578  -14.2418   19.3828 N   0  0  0  0  0  0  0  0  0  0  0  0
   10.2243  -18.1473   19.1232 C   0  0  0  0  0  0  0  0  0  0  0  0
    9.6302  -19.2771   19.0544 O   0  0  0  0  0  0  0  0  0  0  0  0
   11.4084  -18.1328   19.9016 N   0  0  0  0  0  0  0  0  0  0  0  0
   11.9634  -19.3455   20.4915 C   0  0  1  0  0  0  0  0  0  0  0  0
   13.3388  -19.0574   21.0539 C   0  0  0  0  0  0  0  0  0  0  0  0
   14.3027  -20.1689   20.7781 C   0  0  0  0  0  0  0  0  0  0  0  0
   15.6496  -19.7893   21.3593 C   0  0  0  0  0  0  0  0  0  0  0  0
   16.6328  -20.8800   20.9874 C   0  0  0  0  0  0  0  0  0  0  0  0
   17.9647  -20.4715   21.4008 N   0  0  0  0  0  0  0  0  0  0  0  0
   11.0859  -19.7232   21.6280 C   0  0  0  0  0  0  0  0  0  0  0  0
   10.0770  -18.9028   22.0645 O   0  0  0  0  0  0  0  0  0  0  0  0
   11.2290  -20.8147   22.2424 O   0  0  0  0  0  0  0  0  0  0  0  0
  2  1  1  6
  2  3  1  0
  3  4  1  0
  4  5  2  0
  4  8  1  0
  5  6  1  0
  6  7  1  0
  8  7  2  0
  9  2  1  0
  9 10  2  0
 11  9  1  0
 12 11  1  0
 12 13  1  6
 14 13  1  0
 14 15  2  0
 16 15  1  0
 17 16  1  0
 18 17  2  0
 18 14  1  0
 19 12  1  0
 20 19  2  0
 21 19  1  0
 22 21  1  0
 22 28  1  0
 22 23  1  1
 24 25  1  0
 24 23  1  0
 25 26  1  0
 27 26  1  0
 28 29  1  0
 30 28  2  0
M  END
$$$$
