HHK.pdb
     RDKit          3D

 30 31  0  0  1  0  0  0  0  0999 V2000
   10.3704  -16.9087   19.8951 N   0  0  0  0  0  0  0  0  0  0  0  0
    9.1424  -16.7045   20.5994 C   0  0  1  0  0  0  0  0  0  0  0  0
    8.5608  -18.0558   20.9529 C   0  0  0  0  0  0  0  0  0  0  0  0
    8.0879  -18.7781   19.7670 C   0  0  0  0  0  0  0  0  0  0  0  0
    8.0723  -18.3306   18.4599 C   0  0  0  0  0  0  0  0  0  0  0  0
    7.5634  -19.2855   17.6610 N   0  0  0  0  0  0  0  0  0  0  0  0
    7.2553  -20.3324   18.4379 C   0  0  0  0  0  0  0  0  0  0  0  0
    7.5716  -20.0327   19.7248 N   0  0  0  0  0  0  0  0  0  0  0  0
    9.3450  -15.9562   21.8931 C   0  0  0  0  0  0  0  0  0  0  0  0
   10.4492  -16.0706   22.4542 O   0  0  0  0  0  0  0  0  0  0  0  0
    8.3519  -15.1644   22.4542 N   0  0  0  0  0  0  0  0  0  0  0  0
    8.1617  -14.6503   23.7566 C   0  0  1  0  0  0  0  0  0  0  0  0
    6.9649  -13.7585   23.9750 C   0  0  0  0  0  0  0  0  0  0  0  0
    6.9210  -13.1440   25.3113 C   0  0  0  0  0  0  0  0  0  0  0  0
    7.6010  -12.0181   25.7139 C   0  0  0  0  0  0  0  0  0  0  0  0
    7.3669  -11.8064   27.0223 N   0  0  0  0  0  0  0  0  0  0  0  0
    6.5507  -12.7772   27.4574 C   0  0  0  0  0  0  0  0  0  0  0  0
    6.2872  -13.5865   26.4011 N   0  0  0  0  0  0  0  0  0  0  0  0
    8.3542  -15.5653   24.8729 C   0  0  0  0  0  0  0  0  0  0  0  0
    7.5610  -16.5418   25.0997 O   0  0  0  0  0  0  0  0  0  0  0  0
    9.4332  -15.4384   25.7827 N   0  0  0  0  0  0  0  0  0  0  0  0
    9.6206  -16.3607   26.8967 C   0  0  1  0  0  0  0  0  0  0  0  0
   10.6956  -17.3684   26.5507 C   0  0  0  0  0  0  0  0  0  0  0  0
   10.4958  -18.6698   27.2630 C   0  0  0  0  0  0  0  0  0  0  0  0
   11.5349  -19.6530   26.7632 C   0  0  0  0  0  0  0  0  0  0  0  0
   11.3233  -20.9582   27.5021 C   0  0  0  0  0  0  0  0  0  0  0  0
   12.3010  -21.9261   27.0339 N   0  0  0  0  0  0  0  0  0  0  0  0
   10.1094  -15.5638   28.0501 C   0  0  0  0  0  0  0  0  0  0  0  0
   10.5097  -14.2595   27.9083 O   0  0  0  0  0  0  0  0  0  0  0  0
   10.1783  -16.0504   29.2110 O   0  0  0  0  0  0  0  0  0  0  0  0
  2  1  1  1
  2  3  1  0
  3  4  1  0
  4  5  2  0
  4  8  1  0
  5  6  1  0
  6  7  1  0
  8  7  2  0
  9  2  1  0
  9 10  2  0
 11  9  1  0
 12 11  1  0
 12 13  1  6
 14 13  1  0
 14 15  2  0
 16 15  1  0
 17 16  1  0
 18 17  2  0
 18 14  1  0
 19 12  1  0
 20 19  2  0
 21 19  1  0
 22 21  1  0
 22 28  1  0
 22 23  1  6
 24 25  1  0
 24 23  1  0
 25 26  1  0
 27 26  1  0
 28 29  1  0
 30 28  2  0
M  END
$$$$
