HHK.pdb
     RDKit          3D

 30 31  0  0  1  0  0  0  0  0999 V2000
    7.4188  -16.9931   17.2217 N   0  0  0  0  0  0  0  0  0  0  0  0
    8.8316  -16.7804   17.1550 C   0  0  1  0  0  0  0  0  0  0  0  0
    9.0925  -15.2903   17.1289 C   0  0  0  0  0  0  0  0  0  0  0  0
    8.5243  -14.6534   15.9359 C   0  0  0  0  0  0  0  0  0  0  0  0
    7.8794  -15.2685   14.8802 C   0  0  0  0  0  0  0  0  0  0  0  0
    7.5037  -14.3435   13.9789 N   0  0  0  0  0  0  0  0  0  0  0  0
    7.8988  -13.1509   14.4438 C   0  0  0  0  0  0  0  0  0  0  0  0
    8.5226  -13.3293   15.6375 N   0  0  0  0  0  0  0  0  0  0  0  0
    9.5491  -17.3359   18.3596 C   0  0  0  0  0  0  0  0  0  0  0  0
    8.9795  -17.2385   19.4610 O   0  0  0  0  0  0  0  0  0  0  0  0
   10.7974  -17.9368   18.2664 N   0  0  0  0  0  0  0  0  0  0  0  0
   11.7178  -18.3838   19.2409 C   0  0  1  0  0  0  0  0  0  0  0  0
   13.0101  -18.9811   18.7423 C   0  0  0  0  0  0  0  0  0  0  0  0
   13.7797  -19.6795   19.7840 C   0  0  0  0  0  0  0  0  0  0  0  0
   13.5038  -19.6920   21.1315 C   0  0  0  0  0  0  0  0  0  0  0  0
   14.4697  -20.3755   21.7728 N   0  0  0  0  0  0  0  0  0  0  0  0
   15.3538  -20.7971   20.8569 C   0  0  0  0  0  0  0  0  0  0  0  0
   14.9189  -20.3643   19.6470 N   0  0  0  0  0  0  0  0  0  0  0  0
   11.9392  -17.5262   20.3968 C   0  0  0  0  0  0  0  0  0  0  0  0
   12.3974  -16.3379   20.2874 O   0  0  0  0  0  0  0  0  0  0  0  0
   11.6607  -17.9478   21.7208 N   0  0  0  0  0  0  0  0  0  0  0  0
   11.7525  -17.0406   22.8588 C   0  0  1  0  0  0  0  0  0  0  0  0
   10.3908  -16.8875   23.5017 C   0  0  0  0  0  0  0  0  0  0  0  0
    9.7426  -15.5871   23.1416 C   0  0  0  0  0  0  0  0  0  0  0  0
    8.3854  -15.5271   23.8128 C   0  0  0  0  0  0  0  0  0  0  0  0
    7.7386  -14.2145   23.4216 C   0  0  0  0  0  0  0  0  0  0  0  0
    6.4715  -14.0890   24.1221 N   0  0  0  0  0  0  0  0  0  0  0  0
   12.6491  -17.6762   23.8569 C   0  0  0  0  0  0  0  0  0  0  0  0
   13.1622  -18.9342   23.6683 O   0  0  0  0  0  0  0  0  0  0  0  0
   12.9786  -17.0881   24.9222 O   0  0  0  0  0  0  0  0  0  0  0  0
  2  1  1  1
  2  3  1  0
  3  4  1  0
  4  5  2  0
  4  8  1  0
  5  6  1  0
  6  7  1  0
  8  7  2  0
  9  2  1  0
  9 10  2  0
 11  9  1  0
 12 11  1  0
 12 13  1  6
 14 13  1  0
 14 15  2  0
 16 15  1  0
 17 16  1  0
 18 17  2  0
 18 14  1  0
 19 12  1  0
 20 19  2  0
 21 19  1  0
 22 21  1  0
 22 28  1  0
 22 23  1  1
 24 25  1  0
 24 23  1  0
 25 26  1  0
 27 26  1  0
 28 29  1  0
 30 28  2  0
M  END
$$$$
