HHK.pdb
     RDKit          3D

 30 31  0  0  1  0  0  0  0  0999 V2000
   10.1055  -14.3845   17.7145 N   0  0  0  0  0  0  0  0  0  0  0  0
    9.4843  -13.7599   18.8414 C   0  0  1  0  0  0  0  0  0  0  0  0
    8.0359  -13.4855   18.5006 C   0  0  0  0  0  0  0  0  0  0  0  0
    7.7198  -13.8438   17.1138 C   0  0  0  0  0  0  0  0  0  0  0  0
    8.5741  -14.3745   16.1664 C   0  0  0  0  0  0  0  0  0  0  0  0
    7.9084  -14.5649   15.0132 N   0  0  0  0  0  0  0  0  0  0  0  0
    6.6455  -14.1643   15.2115 C   0  0  0  0  0  0  0  0  0  0  0  0
    6.5203  -13.7225   16.4903 N   0  0  0  0  0  0  0  0  0  0  0  0
    9.4932  -14.6466   20.0612 C   0  0  0  0  0  0  0  0  0  0  0  0
    8.9816  -14.1954   21.1013 O   0  0  0  0  0  0  0  0  0  0  0  0
   10.0455  -15.9206   20.0469 N   0  0  0  0  0  0  0  0  0  0  0  0
   10.1705  -16.9189   21.0390 C   0  0  1  0  0  0  0  0  0  0  0  0
   10.4667  -18.3213   20.5687 C   0  0  0  0  0  0  0  0  0  0  0  0
   10.3943  -19.3310   21.6365 C   0  0  0  0  0  0  0  0  0  0  0  0
    9.6905  -19.2243   22.8136 C   0  0  0  0  0  0  0  0  0  0  0  0
    9.9251  -20.3143   23.5675 N   0  0  0  0  0  0  0  0  0  0  0  0
   10.7648  -21.1109   22.8905 C   0  0  0  0  0  0  0  0  0  0  0  0
   11.0424  -20.4970   21.7132 N   0  0  0  0  0  0  0  0  0  0  0  0
   10.9349  -16.5855   22.2327 C   0  0  0  0  0  0  0  0  0  0  0  0
   12.1306  -16.1371   22.1744 O   0  0  0  0  0  0  0  0  0  0  0  0
   10.4070  -16.7328   23.5395 N   0  0  0  0  0  0  0  0  0  0  0  0
   11.1496  -16.3245   24.7263 C   0  0  1  0  0  0  0  0  0  0  0  0
   10.1839  -15.9417   25.8271 C   0  0  0  0  0  0  0  0  0  0  0  0
   10.8936  -15.5342   27.0804 C   0  0  0  0  0  0  0  0  0  0  0  0
    9.8576  -15.0978   28.0965 C   0  0  0  0  0  0  0  0  0  0  0  0
   10.5971  -14.6333   29.3342 C   0  0  0  0  0  0  0  0  0  0  0  0
    9.6288  -14.1593   30.3087 N   0  0  0  0  0  0  0  0  0  0  0  0
   11.9152  -17.5072   25.1946 C   0  0  0  0  0  0  0  0  0  0  0  0
   13.2016  -17.3971   25.6577 O   0  0  0  0  0  0  0  0  0  0  0  0
   11.4170  -18.6653   25.1875 O   0  0  0  0  0  0  0  0  0  0  0  0
  2  1  1  6
  2  3  1  0
  3  4  1  0
  4  5  2  0
  4  8  1  0
  5  6  1  0
  6  7  1  0
  8  7  2  0
  9  2  1  0
  9 10  2  0
 11  9  1  0
 12 11  1  0
 12 13  1  6
 14 13  1  0
 14 15  2  0
 16 15  1  0
 17 16  1  0
 18 17  2  0
 18 14  1  0
 19 12  1  0
 20 19  2  0
 21 19  1  0
 22 21  1  0
 22 28  1  0
 22 23  1  1
 24 25  1  0
 24 23  1  0
 25 26  1  0
 27 26  1  0
 28 29  1  0
 30 28  2  0
M  END
$$$$
