HHK.pdb
     RDKit          3D

 30 31  0  0  1  0  0  0  0  0999 V2000
   14.8659  -14.3559   16.3035 N   0  0  0  0  0  0  0  0  0  0  0  0
   15.5258  -14.7892   17.4963 C   0  0  1  0  0  0  0  0  0  0  0  0
   15.8554  -13.5720   18.3323 C   0  0  0  0  0  0  0  0  0  0  0  0
   17.0950  -12.9224   17.8929 C   0  0  0  0  0  0  0  0  0  0  0  0
   17.2212  -11.8209   17.0685 C   0  0  0  0  0  0  0  0  0  0  0  0
   18.5233  -11.5285   16.9005 N   0  0  0  0  0  0  0  0  0  0  0  0
   19.2269  -12.4253   17.6041 C   0  0  0  0  0  0  0  0  0  0  0  0
   18.3645  -13.2803   18.2134 N   0  0  0  0  0  0  0  0  0  0  0  0
   14.6508  -15.6830   18.3391 C   0  0  0  0  0  0  0  0  0  0  0  0
   13.4337  -15.4289   18.3701 O   0  0  0  0  0  0  0  0  0  0  0  0
   15.1625  -16.7535   19.0605 N   0  0  0  0  0  0  0  0  0  0  0  0
   14.5665  -17.6845   19.9407 C   0  0  1  0  0  0  0  0  0  0  0  0
   14.8929  -19.1411   19.7236 C   0  0  0  0  0  0  0  0  0  0  0  0
   14.5000  -19.6442   18.3978 C   0  0  0  0  0  0  0  0  0  0  0  0
   13.2171  -19.7487   17.9125 C   0  0  0  0  0  0  0  0  0  0  0  0
   13.2521  -20.3188   16.6938 N   0  0  0  0  0  0  0  0  0  0  0  0
   14.5338  -20.5781   16.3967 C   0  0  0  0  0  0  0  0  0  0  0  0
   15.2840  -20.1605   17.4470 N   0  0  0  0  0  0  0  0  0  0  0  0
   14.5466  -17.3492   21.3576 C   0  0  0  0  0  0  0  0  0  0  0  0
   15.4913  -16.6950   21.9177 O   0  0  0  0  0  0  0  0  0  0  0  0
   13.4796  -17.7224   22.2122 N   0  0  0  0  0  0  0  0  0  0  0  0
   13.4517  -17.3552   23.6233 C   0  0  1  0  0  0  0  0  0  0  0  0
   12.0887  -17.6634   24.2049 C   0  0  0  0  0  0  0  0  0  0  0  0
   11.0388  -16.7201   23.7062 C   0  0  0  0  0  0  0  0  0  0  0  0
    9.6927  -17.1858   24.2232 C   0  0  0  0  0  0  0  0  0  0  0  0
    8.6465  -16.2145   23.7169 C   0  0  0  0  0  0  0  0  0  0  0  0
    7.3406  -16.6443   24.1879 N   0  0  0  0  0  0  0  0  0  0  0  0
   14.4403  -18.2152   24.3212 C   0  0  0  0  0  0  0  0  0  0  0  0
   14.8721  -17.9333   25.5923 O   0  0  0  0  0  0  0  0  0  0  0  0
   14.9270  -19.2429   23.7768 O   0  0  0  0  0  0  0  0  0  0  0  0
  2  1  1  6
  2  3  1  0
  3  4  1  0
  4  5  2  0
  4  8  1  0
  5  6  1  0
  6  7  1  0
  8  7  2  0
  9  2  1  0
  9 10  2  0
 11  9  1  0
 12 11  1  0
 12 13  1  1
 14 13  1  0
 14 15  2  0
 16 15  1  0
 17 16  1  0
 18 17  2  0
 18 14  1  0
 19 12  1  0
 20 19  2  0
 21 19  1  0
 22 21  1  0
 22 28  1  0
 22 23  1  1
 24 25  1  0
 24 23  1  0
 25 26  1  0
 27 26  1  0
 28 29  1  0
 30 28  2  0
M  END
$$$$
