HHK.pdb
     RDKit          3D

 30 31  0  0  1  0  0  0  0  0999 V2000
    9.3493  -17.1671   15.9582 N   0  0  0  0  0  0  0  0  0  0  0  0
    9.5549  -17.9198   17.1570 C   0  0  1  0  0  0  0  0  0  0  0  0
   10.5956  -18.9834   16.8839 C   0  0  0  0  0  0  0  0  0  0  0  0
   10.1080  -20.0026   15.9485 C   0  0  0  0  0  0  0  0  0  0  0  0
    9.3183  -21.0993   16.2359 C   0  0  0  0  0  0  0  0  0  0  0  0
    9.0846  -21.7960   15.1093 N   0  0  0  0  0  0  0  0  0  0  0  0
    9.7124  -21.1609   14.1107 C   0  0  0  0  0  0  0  0  0  0  0  0
   10.3398  -20.0652   14.6126 N   0  0  0  0  0  0  0  0  0  0  0  0
   10.0785  -17.0650   18.2838 C   0  0  0  0  0  0  0  0  0  0  0  0
   11.0987  -16.3885   18.0633 O   0  0  0  0  0  0  0  0  0  0  0  0
    9.4620  -17.0194   19.5272 N   0  0  0  0  0  0  0  0  0  0  0  0
    9.7872  -16.3550   20.7311 C   0  0  1  0  0  0  0  0  0  0  0  0
    8.7209  -15.4807   21.3427 C   0  0  0  0  0  0  0  0  0  0  0  0
    8.2068  -14.4480   20.4292 C   0  0  0  0  0  0  0  0  0  0  0  0
    7.0672  -14.5308   19.6633 C   0  0  0  0  0  0  0  0  0  0  0  0
    6.9652  -13.4241   18.9042 N   0  0  0  0  0  0  0  0  0  0  0  0
    8.0192  -12.6403   19.1744 C   0  0  0  0  0  0  0  0  0  0  0  0
    8.7684  -13.2791   20.1075 N   0  0  0  0  0  0  0  0  0  0  0  0
   10.4965  -17.1191   21.7477 C   0  0  0  0  0  0  0  0  0  0  0  0
   10.1340  -18.2948   22.0948 O   0  0  0  0  0  0  0  0  0  0  0  0
   11.6369  -16.6143   22.4206 N   0  0  0  0  0  0  0  0  0  0  0  0
   12.4483  -17.4457   23.3021 C   0  0  1  0  0  0  0  0  0  0  0  0
   13.8669  -16.9192   23.3387 C   0  0  0  0  0  0  0  0  0  0  0  0
   14.7840  -17.8281   24.0961 C   0  0  0  0  0  0  0  0  0  0  0  0
   16.1763  -17.2306   24.0724 C   0  0  0  0  0  0  0  0  0  0  0  0
   17.1019  -18.1978   24.7811 C   0  0  0  0  0  0  0  0  0  0  0  0
   18.4597  -17.6847   24.7102 N   0  0  0  0  0  0  0  0  0  0  0  0
   11.8872  -17.3142   24.6703 C   0  0  0  0  0  0  0  0  0  0  0  0
   12.1700  -18.2241   25.6569 O   0  0  0  0  0  0  0  0  0  0  0  0
   11.1259  -16.3602   24.9862 O   0  0  0  0  0  0  0  0  0  0  0  0
  2  1  1  6
  2  3  1  0
  3  4  1  0
  4  5  2  0
  4  8  1  0
  5  6  1  0
  6  7  1  0
  8  7  2  0
  9  2  1  0
  9 10  2  0
 11  9  1  0
 12 11  1  0
 12 13  1  1
 14 13  1  0
 14 15  2  0
 16 15  1  0
 17 16  1  0
 18 17  2  0
 18 14  1  0
 19 12  1  0
 20 19  2  0
 21 19  1  0
 22 21  1  0
 22 28  1  0
 22 23  1  1
 24 25  1  0
 24 23  1  0
 25 26  1  0
 27 26  1  0
 28 29  1  0
 30 28  2  0
M  END
$$$$
