NYN.pdb
     RDKit          3D

 29 29  0  0  1  0  0  0  0  0999 V2000
   15.8993  -15.8111  -14.8377 N   0  0  0  0  0  0  0  0  0  0  0  0
   16.9009  -15.4506  -15.7559 C   0  0  0  0  0  0  0  0  0  0  0  0
   16.7230  -15.8162  -16.9606 O   0  0  0  0  0  0  0  0  0  0  0  0
   18.1225  -14.6995  -15.4650 C   0  0  0  0  0  0  0  0  0  0  0  0
   18.4876  -13.6922  -16.5119 C   0  0  2  0  0  0  0  0  0  0  0  0
   18.8408  -14.3247  -17.7482 N   0  0  0  0  0  0  0  0  0  0  0  0
   19.5224  -12.7307  -16.0992 C   0  0  0  0  0  0  0  0  0  0  0  0
   19.4079  -11.9893  -15.0935 O   0  0  0  0  0  0  0  0  0  0  0  0
   27.5496   -8.7130  -16.1078 O   0  0  0  0  0  0  0  0  0  0  0  0
   26.4603   -9.5881  -16.2950 C   0  0  0  0  0  0  0  0  0  0  0  0
   26.1206  -10.5146  -15.3365 C   0  0  0  0  0  0  0  0  0  0  0  0
   25.0427  -11.3772  -15.5269 C   0  0  0  0  0  0  0  0  0  0  0  0
   24.2772  -11.3409  -16.6718 C   0  0  0  0  0  0  0  0  0  0  0  0
   23.1605  -12.2593  -16.8285 C   0  0  0  0  0  0  0  0  0  0  0  0
   21.8193  -11.7420  -16.4446 C   0  0  2  0  0  0  0  0  0  0  0  0
   20.7287  -12.6050  -16.8537 N   0  0  0  0  0  0  0  0  0  0  0  0
   21.5660  -10.3229  -16.8046 C   0  0  0  0  0  0  0  0  0  0  0  0
   21.3262   -9.9597  -17.9930 O   0  0  0  0  0  0  0  0  0  0  0  0
   24.6312  -10.4066  -17.6219 C   0  0  0  0  0  0  0  0  0  0  0  0
   25.7007   -9.5450  -17.4418 C   0  0  0  0  0  0  0  0  0  0  0  0
   19.5216   -5.5316  -17.5689 N   0  0  0  0  0  0  0  0  0  0  0  0
   19.7798   -5.9703  -16.2473 C   0  0  0  0  0  0  0  0  0  0  0  0
   19.8434   -5.1281  -15.3302 O   0  0  0  0  0  0  0  0  0  0  0  0
   19.9667   -7.4007  -15.9839 C   0  0  0  0  0  0  0  0  0  0  0  0
   21.3979   -7.8814  -16.2550 C   0  0  2  0  0  0  0  0  0  0  0  0
   21.5692   -9.2636  -15.8535 N   0  0  0  0  0  0  0  0  0  0  0  0
   22.2671   -7.0612  -15.4024 C   0  0  0  0  0  0  0  0  0  0  0  0
   22.6786   -5.8137  -15.8211 O   0  0  0  0  0  0  0  0  0  0  0  0
   22.6418   -7.4781  -14.2972 O   0  0  0  0  0  0  0  0  0  0  0  0
  2  1  1  0
  3  2  2  0
  4  5  1  0
  4  2  1  0
  5  6  1  6
  7  5  1  0
  7  8  2  0
  9 10  1  0
 10 11  2  0
 11 12  1  0
 13 12  2  0
 13 14  1  0
 15 14  1  6
 15 16  1  0
 16  7  1  0
 17 18  2  0
 17 15  1  0
 19 13  1  0
 20 10  1  0
 20 19  2  0
 22 23  2  0
 22 21  1  0
 24 22  1  0
 25 26  1  0
 25 24  1  1
 26 17  1  0
 27 25  1  0
 28 27  1  0
 29 27  2  0
M  END
$$$$
