NYN.pdb
     RDKit          3D

 29 29  0  0  1  0  0  0  0  0999 V2000
   23.0101   -6.1319  -22.1202 N   0  0  0  0  0  0  0  0  0  0  0  0
   23.9055   -7.0098  -21.4846 C   0  0  0  0  0  0  0  0  0  0  0  0
   24.9603   -7.3075  -22.1290 O   0  0  0  0  0  0  0  0  0  0  0  0
   23.7454   -7.6124  -20.1609 C   0  0  0  0  0  0  0  0  0  0  0  0
   22.4823   -7.2211  -19.4570 C   0  0  2  0  0  0  0  0  0  0  0  0
   22.5391   -5.8673  -18.9909 N   0  0  0  0  0  0  0  0  0  0  0  0
   22.0792   -8.1330  -18.3747 C   0  0  0  0  0  0  0  0  0  0  0  0
   22.6568   -9.2229  -18.1451 O   0  0  0  0  0  0  0  0  0  0  0  0
   26.6333  -10.5501  -14.9969 O   0  0  0  0  0  0  0  0  0  0  0  0
   25.3393   -9.9922  -15.0417 C   0  0  0  0  0  0  0  0  0  0  0  0
   24.2433  -10.7051  -14.6138 C   0  0  0  0  0  0  0  0  0  0  0  0
   22.9665  -10.1485  -14.6604 C   0  0  0  0  0  0  0  0  0  0  0  0
   22.7473   -8.8728  -15.1321 C   0  0  0  0  0  0  0  0  0  0  0  0
   21.3979   -8.3312  -15.1620 C   0  0  0  0  0  0  0  0  0  0  0  0
   20.5995   -8.6108  -16.3859 C   0  0  2  0  0  0  0  0  0  0  0  0
   20.9823   -7.7976  -17.5234 N   0  0  0  0  0  0  0  0  0  0  0  0
   19.1271   -8.6243  -16.1868 C   0  0  0  0  0  0  0  0  0  0  0  0
   18.4468   -7.5604  -16.1035 O   0  0  0  0  0  0  0  0  0  0  0  0
   23.8564   -8.1725  -15.5567 C   0  0  0  0  0  0  0  0  0  0  0  0
   25.1293   -8.7169  -15.5144 C   0  0  0  0  0  0  0  0  0  0  0  0
   15.9561   -9.9482  -18.4614 N   0  0  0  0  0  0  0  0  0  0  0  0
   15.8275  -11.1234  -17.6816 C   0  0  0  0  0  0  0  0  0  0  0  0
   15.3252  -12.1413  -18.1970 O   0  0  0  0  0  0  0  0  0  0  0  0
   16.2858  -11.1204  -16.2886 C   0  0  0  0  0  0  0  0  0  0  0  0
   16.9308   -9.7934  -15.8693 C   0  0  2  0  0  0  0  0  0  0  0  0
   18.3652   -9.8217  -16.0765 N   0  0  0  0  0  0  0  0  0  0  0  0
   16.6938   -9.6680  -14.4260 C   0  0  0  0  0  0  0  0  0  0  0  0
   15.5213   -9.1146  -13.9573 O   0  0  0  0  0  0  0  0  0  0  0  0
   17.5426  -10.0571  -13.6112 O   0  0  0  0  0  0  0  0  0  0  0  0
  2  1  1  0
  3  2  2  0
  4  5  1  0
  4  2  1  0
  5  6  1  1
  7  5  1  0
  7  8  2  0
  9 10  1  0
 10 11  2  0
 11 12  1  0
 13 12  2  0
 13 14  1  0
 15 14  1  1
 15 16  1  0
 16  7  1  0
 17 18  2  0
 17 15  1  0
 19 13  1  0
 20 10  1  0
 20 19  2  0
 22 23  2  0
 22 21  1  0
 24 22  1  0
 25 26  1  0
 25 24  1  1
 26 17  1  0
 27 25  1  0
 28 27  1  0
 29 27  2  0
M  END
$$$$
