NYN.pdb
     RDKit          3D

 29 29  0  0  1  0  0  0  0  0999 V2000
   28.9457  -22.1250  -19.6990 N   0  0  0  0  0  0  0  0  0  0  0  0
   28.8687  -23.2665  -18.8821 C   0  0  0  0  0  0  0  0  0  0  0  0
   29.4793  -24.3019  -19.2965 O   0  0  0  0  0  0  0  0  0  0  0  0
   28.1592  -23.3815  -17.6075 C   0  0  0  0  0  0  0  0  0  0  0  0
   27.3985  -22.1520  -17.2154 C   0  0  2  0  0  0  0  0  0  0  0  0
   28.2249  -20.9829  -17.2735 N   0  0  0  0  0  0  0  0  0  0  0  0
   26.7128  -22.2468  -15.9169 C   0  0  0  0  0  0  0  0  0  0  0  0
   26.0059  -23.2286  -15.5845 O   0  0  0  0  0  0  0  0  0  0  0  0
   24.2379  -20.2464   -7.5597 O   0  0  0  0  0  0  0  0  0  0  0  0
   24.8778  -20.2946   -8.8151 C   0  0  0  0  0  0  0  0  0  0  0  0
   25.8303  -21.2481   -9.0907 C   0  0  0  0  0  0  0  0  0  0  0  0
   26.4595  -21.2909  -10.3335 C   0  0  0  0  0  0  0  0  0  0  0  0
   26.1588  -20.3896  -11.3310 C   0  0  0  0  0  0  0  0  0  0  0  0
   26.8394  -20.4715  -12.6136 C   0  0  0  0  0  0  0  0  0  0  0  0
   26.1244  -21.1984  -13.6971 C   0  0  2  0  0  0  0  0  0  0  0  0
   26.8321  -21.1910  -14.9623 N   0  0  0  0  0  0  0  0  0  0  0  0
   24.6938  -20.8323  -13.8620 C   0  0  0  0  0  0  0  0  0  0  0  0
   24.3323  -19.7202  -14.3460 O   0  0  0  0  0  0  0  0  0  0  0  0
   25.2021  -19.4409  -11.0381 C   0  0  0  0  0  0  0  0  0  0  0  0
   24.5712  -19.3902   -9.8061 C   0  0  0  0  0  0  0  0  0  0  0  0
   18.8717  -22.9291  -13.4437 N   0  0  0  0  0  0  0  0  0  0  0  0
   19.8863  -22.0452  -13.8852 C   0  0  0  0  0  0  0  0  0  0  0  0
   19.5622  -20.9416  -14.3661 O   0  0  0  0  0  0  0  0  0  0  0  0
   21.2928  -22.4433  -13.7688 C   0  0  0  0  0  0  0  0  0  0  0  0
   22.2401  -21.2553  -13.5590 C   0  0  2  0  0  0  0  0  0  0  0  0
   23.6205  -21.6930  -13.4960 N   0  0  0  0  0  0  0  0  0  0  0  0
   21.8940  -20.6899  -12.2492 C   0  0  0  0  0  0  0  0  0  0  0  0
   21.1061  -19.5619  -12.1625 O   0  0  0  0  0  0  0  0  0  0  0  0
   22.3046  -21.2179  -11.2059 O   0  0  0  0  0  0  0  0  0  0  0  0
  2  1  1  0
  3  2  2  0
  4  5  1  0
  4  2  1  0
  5  6  1  1
  7  5  1  0
  7  8  2  0
  9 10  1  0
 10 11  2  0
 11 12  1  0
 13 12  2  0
 13 14  1  0
 15 14  1  1
 15 16  1  0
 16  7  1  0
 17 18  2  0
 17 15  1  0
 19 13  1  0
 20 10  1  0
 20 19  2  0
 22 23  2  0
 22 21  1  0
 24 22  1  0
 25 26  1  0
 25 24  1  1
 26 17  1  0
 27 25  1  0
 28 27  1  0
 29 27  2  0
M  END
$$$$
