NYN.pdb
     RDKit          3D

 29 29  0  0  1  0  0  0  0  0999 V2000
   29.7717  -19.8820  -16.1762 N   0  0  0  0  0  0  0  0  0  0  0  0
   28.3988  -20.1756  -16.1043 C   0  0  0  0  0  0  0  0  0  0  0  0
   27.7138  -19.9408  -17.1494 O   0  0  0  0  0  0  0  0  0  0  0  0
   27.6824  -20.7225  -14.9516 C   0  0  0  0  0  0  0  0  0  0  0  0
   26.3959  -20.0215  -14.6394 C   0  0  2  0  0  0  0  0  0  0  0  0
   26.6259  -18.6876  -14.1692 N   0  0  0  0  0  0  0  0  0  0  0  0
   25.5075  -20.7553  -13.7242 C   0  0  0  0  0  0  0  0  0  0  0  0
   25.2446  -21.9752  -13.8545 O   0  0  0  0  0  0  0  0  0  0  0  0
   29.4417  -21.0771   -8.3788 O   0  0  0  0  0  0  0  0  0  0  0  0
   28.1251  -20.9045   -8.8525 C   0  0  0  0  0  0  0  0  0  0  0  0
   27.5812  -21.7724   -9.7709 C   0  0  0  0  0  0  0  0  0  0  0  0
   26.2790  -21.5969  -10.2356 C   0  0  0  0  0  0  0  0  0  0  0  0
   25.4868  -20.5572   -9.8006 C   0  0  0  0  0  0  0  0  0  0  0  0
   24.1329  -20.4124  -10.3115 C   0  0  0  0  0  0  0  0  0  0  0  0
   23.9320  -20.7264  -11.7519 C   0  0  2  0  0  0  0  0  0  0  0  0
   24.8950  -20.0822  -12.6233 N   0  0  0  0  0  0  0  0  0  0  0  0
   22.5406  -20.5561  -12.2444 C   0  0  0  0  0  0  0  0  0  0  0  0
   22.1375  -19.4786  -12.7718 O   0  0  0  0  0  0  0  0  0  0  0  0
   26.0474  -19.6970   -8.8804 C   0  0  0  0  0  0  0  0  0  0  0  0
   27.3404  -19.8630   -8.4125 C   0  0  0  0  0  0  0  0  0  0  0  0
   18.1115  -21.6918  -14.6028 N   0  0  0  0  0  0  0  0  0  0  0  0
   19.2981  -22.2769  -15.1080 C   0  0  0  0  0  0  0  0  0  0  0  0
   19.2901  -22.7740  -16.2513 O   0  0  0  0  0  0  0  0  0  0  0  0
   20.5084  -22.2870  -14.2801 C   0  0  0  0  0  0  0  0  0  0  0  0
   20.3407  -21.5268  -12.9585 C   0  0  2  0  0  0  0  0  0  0  0  0
   21.5546  -21.5801  -12.1679 N   0  0  0  0  0  0  0  0  0  0  0  0
   19.2950  -22.2386  -12.2136 C   0  0  0  0  0  0  0  0  0  0  0  0
   17.9712  -21.8806  -12.3553 O   0  0  0  0  0  0  0  0  0  0  0  0
   19.5874  -23.1691  -11.4490 O   0  0  0  0  0  0  0  0  0  0  0  0
  2  1  1  0
  3  2  2  0
  4  5  1  0
  4  2  1  0
  5  6  1  1
  7  5  1  0
  7  8  2  0
  9 10  1  0
 10 11  2  0
 11 12  1  0
 13 12  2  0
 13 14  1  0
 15 14  1  1
 15 16  1  0
 16  7  1  0
 17 18  2  0
 17 15  1  0
 19 13  1  0
 20 10  1  0
 20 19  2  0
 22 23  2  0
 22 21  1  0
 24 22  1  0
 25 26  1  0
 25 24  1  6
 26 17  1  0
 27 25  1  0
 28 27  1  0
 29 27  2  0
M  END
$$$$
