NYN.pdb
     RDKit          3D

 29 29  0  0  1  0  0  0  0  0999 V2000
   27.3884  -13.9938  -17.2452 N   0  0  0  0  0  0  0  0  0  0  0  0
   26.5670  -13.0560  -16.5955 C   0  0  0  0  0  0  0  0  0  0  0  0
   26.5805  -13.0757  -15.3243 O   0  0  0  0  0  0  0  0  0  0  0  0
   25.7018  -12.0633  -17.2336 C   0  0  0  0  0  0  0  0  0  0  0  0
   24.2512  -12.1992  -16.8853 C   0  0  2  0  0  0  0  0  0  0  0  0
   23.7237  -13.4596  -17.3168 N   0  0  0  0  0  0  0  0  0  0  0  0
   23.4053  -11.0886  -17.3507 C   0  0  0  0  0  0  0  0  0  0  0  0
   23.2648  -10.7944  -18.5623 O   0  0  0  0  0  0  0  0  0  0  0  0
   17.1953  -12.9165  -14.5582 O   0  0  0  0  0  0  0  0  0  0  0  0
   18.0511  -12.0588  -15.2790 C   0  0  0  0  0  0  0  0  0  0  0  0
   18.1440  -10.7221  -14.9675 C   0  0  0  0  0  0  0  0  0  0  0  0
   18.9918   -9.8789  -15.6836 C   0  0  0  0  0  0  0  0  0  0  0  0
   19.7664  -10.3417  -16.7245 C   0  0  0  0  0  0  0  0  0  0  0  0
   20.6380   -9.4266  -17.4443 C   0  0  0  0  0  0  0  0  0  0  0  0
   21.9404   -9.1080  -16.7993 C   0  0  2  0  0  0  0  0  0  0  0  0
   22.6945  -10.2831  -16.4094 N   0  0  0  0  0  0  0  0  0  0  0  0
   21.8712   -8.1070  -15.7035 C   0  0  0  0  0  0  0  0  0  0  0  0
   22.0628   -8.4174  -14.4916 O   0  0  0  0  0  0  0  0  0  0  0  0
   19.6612  -11.6836  -17.0234 C   0  0  0  0  0  0  0  0  0  0  0  0
   18.8217  -12.5295  -16.3177 C   0  0  0  0  0  0  0  0  0  0  0  0
   21.6479   -3.7686  -12.9153 N   0  0  0  0  0  0  0  0  0  0  0  0
   22.3739   -3.5195  -14.1055 C   0  0  0  0  0  0  0  0  0  0  0  0
   22.9510   -2.4233  -14.2457 O   0  0  0  0  0  0  0  0  0  0  0  0
   22.4326   -4.5512  -15.1459 C   0  0  0  0  0  0  0  0  0  0  0  0
   21.5649   -5.7759  -14.8297 C   0  0  2  0  0  0  0  0  0  0  0  0
   21.5890   -6.7288  -15.9217 N   0  0  0  0  0  0  0  0  0  0  0  0
   20.1901   -5.2756  -14.7082 C   0  0  0  0  0  0  0  0  0  0  0  0
   19.2372   -5.6206  -15.6429 O   0  0  0  0  0  0  0  0  0  0  0  0
   19.8682   -4.5381  -13.7657 O   0  0  0  0  0  0  0  0  0  0  0  0
  2  1  1  0
  3  2  2  0
  4  5  1  0
  4  2  1  0
  5  6  1  6
  7  5  1  0
  7  8  2  0
  9 10  1  0
 10 11  2  0
 11 12  1  0
 13 12  2  0
 13 14  1  0
 15 14  1  1
 15 16  1  0
 16  7  1  0
 17 18  2  0
 17 15  1  0
 19 13  1  0
 20 10  1  0
 20 19  2  0
 22 23  2  0
 22 21  1  0
 24 22  1  0
 25 26  1  0
 25 24  1  6
 26 17  1  0
 27 25  1  0
 28 27  1  0
 29 27  2  0
M  END
$$$$
