NYN.pdb
     RDKit          3D

 29 29  0  0  1  0  0  0  0  0999 V2000
   29.3490  -20.7588  -19.3349 N   0  0  0  0  0  0  0  0  0  0  0  0
   27.9752  -20.4957  -19.1941 C   0  0  0  0  0  0  0  0  0  0  0  0
   27.4355  -19.7974  -20.1093 O   0  0  0  0  0  0  0  0  0  0  0  0
   27.1080  -20.9436  -18.1039 C   0  0  0  0  0  0  0  0  0  0  0  0
   27.8175  -21.7115  -17.0311 C   0  0  2  0  0  0  0  0  0  0  0  0
   28.2265  -23.0043  -17.4943 N   0  0  0  0  0  0  0  0  0  0  0  0
   27.0761  -21.8175  -15.7645 C   0  0  0  0  0  0  0  0  0  0  0  0
   26.1760  -22.6687  -15.5657 O   0  0  0  0  0  0  0  0  0  0  0  0
   24.8237  -20.3764   -7.2323 O   0  0  0  0  0  0  0  0  0  0  0  0
   25.4769  -20.3929   -8.4817 C   0  0  0  0  0  0  0  0  0  0  0  0
   25.1266  -19.5114   -9.4780 C   0  0  0  0  0  0  0  0  0  0  0  0
   25.7758  -19.5324  -10.7111 C   0  0  0  0  0  0  0  0  0  0  0  0
   26.7867  -20.4276  -10.9843 C   0  0  0  0  0  0  0  0  0  0  0  0
   27.4376  -20.4138  -12.2847 C   0  0  0  0  0  0  0  0  0  0  0  0
   26.6596  -20.9783  -13.4203 C   0  0  2  0  0  0  0  0  0  0  0  0
   27.3648  -20.9267  -14.6859 N   0  0  0  0  0  0  0  0  0  0  0  0
   25.2679  -20.4722  -13.5422 C   0  0  0  0  0  0  0  0  0  0  0  0
   24.9984  -19.3592  -14.0809 O   0  0  0  0  0  0  0  0  0  0  0  0
   27.1251  -21.3037   -9.9749 C   0  0  0  0  0  0  0  0  0  0  0  0
   26.4859  -21.2907   -8.7462 C   0  0  0  0  0  0  0  0  0  0  0  0
   20.6803  -19.6325  -14.7240 N   0  0  0  0  0  0  0  0  0  0  0  0
   20.8061  -21.0430  -14.7458 C   0  0  0  0  0  0  0  0  0  0  0  0
   19.9579  -21.7181  -15.3613 O   0  0  0  0  0  0  0  0  0  0  0  0
   21.9269  -21.6796  -14.0467 C   0  0  0  0  0  0  0  0  0  0  0  0
   22.7854  -20.6859  -13.2541 C   0  0  2  0  0  0  0  0  0  0  0  0
   24.1322  -21.1897  -13.0709 N   0  0  0  0  0  0  0  0  0  0  0  0
   22.1653  -20.5860  -11.9272 C   0  0  0  0  0  0  0  0  0  0  0  0
   21.0562  -19.7901  -11.7339 O   0  0  0  0  0  0  0  0  0  0  0  0
   22.6292  -21.2143  -10.9651 O   0  0  0  0  0  0  0  0  0  0  0  0
  2  1  1  0
  3  2  2  0
  4  5  1  0
  4  2  1  0
  5  6  1  6
  7  5  1  0
  7  8  2  0
  9 10  1  0
 10 11  2  0
 11 12  1  0
 13 12  2  0
 13 14  1  0
 15 14  1  1
 15 16  1  0
 16  7  1  0
 17 18  2  0
 17 15  1  0
 19 13  1  0
 20 10  1  0
 20 19  2  0
 22 23  2  0
 22 21  1  0
 24 22  1  0
 25 26  1  0
 25 24  1  6
 26 17  1  0
 27 25  1  0
 28 27  1  0
 29 27  2  0
M  END
$$$$
