NYN.pdb
     RDKit          3D

 29 29  0  0  1  0  0  0  0  0999 V2000
   17.6821  -15.6381  -15.4088 N   0  0  0  0  0  0  0  0  0  0  0  0
   18.5436  -15.5246  -16.5139 C   0  0  0  0  0  0  0  0  0  0  0  0
   18.7281  -16.5796  -17.1990 O   0  0  0  0  0  0  0  0  0  0  0  0
   19.2461  -14.3183  -16.9527 C   0  0  0  0  0  0  0  0  0  0  0  0
   18.9399  -13.0991  -16.1380 C   0  0  2  0  0  0  0  0  0  0  0  0
   17.5351  -12.8175  -16.1224 N   0  0  0  0  0  0  0  0  0  0  0  0
   19.7112  -11.9038  -16.5148 C   0  0  0  0  0  0  0  0  0  0  0  0
   20.9562  -11.9115  -16.6697 O   0  0  0  0  0  0  0  0  0  0  0  0
   20.1289  -12.0301  -23.0905 O   0  0  0  0  0  0  0  0  0  0  0  0
   19.9182  -11.2496  -21.9355 C   0  0  0  0  0  0  0  0  0  0  0  0
   18.7449  -11.3381  -21.2227 C   0  0  0  0  0  0  0  0  0  0  0  0
   18.5422  -10.5640  -20.0816 C   0  0  0  0  0  0  0  0  0  0  0  0
   19.4978   -9.6849  -19.6215 C   0  0  0  0  0  0  0  0  0  0  0  0
   19.2445   -8.8971  -18.4255 C   0  0  0  0  0  0  0  0  0  0  0  0
   19.7488   -9.4593  -17.1436 C   0  0  2  0  0  0  0  0  0  0  0  0
   19.0476  -10.6561  -16.7223 N   0  0  0  0  0  0  0  0  0  0  0  0
   19.8819   -8.4780  -16.0358 C   0  0  0  0  0  0  0  0  0  0  0  0
   18.9941   -8.3407  -15.1444 O   0  0  0  0  0  0  0  0  0  0  0  0
   20.6674   -9.6087  -20.3474 C   0  0  0  0  0  0  0  0  0  0  0  0
   20.8783  -10.3737  -21.4827 C   0  0  0  0  0  0  0  0  0  0  0  0
   22.7776   -3.6214  -14.0420 N   0  0  0  0  0  0  0  0  0  0  0  0
   22.5961   -4.9847  -13.7040 C   0  0  0  0  0  0  0  0  0  0  0  0
   22.5476   -5.3102  -12.5016 O   0  0  0  0  0  0  0  0  0  0  0  0
   22.4694   -5.9831  -14.7705 C   0  0  0  0  0  0  0  0  0  0  0  0
   21.0998   -6.6735  -14.7900 C   0  0  2  0  0  0  0  0  0  0  0  0
   21.0080   -7.6205  -15.8836 N   0  0  0  0  0  0  0  0  0  0  0  0
   20.1166   -5.6122  -15.0390 C   0  0  0  0  0  0  0  0  0  0  0  0
   19.8488   -5.1975  -16.3263 O   0  0  0  0  0  0  0  0  0  0  0  0
   19.5153   -5.0759  -14.0974 O   0  0  0  0  0  0  0  0  0  0  0  0
  2  1  1  0
  3  2  2  0
  4  5  1  0
  4  2  1  0
  5  6  1  6
  7  5  1  0
  7  8  2  0
  9 10  1  0
 10 11  2  0
 11 12  1  0
 13 12  2  0
 13 14  1  0
 15 14  1  6
 15 16  1  0
 16  7  1  0
 17 18  2  0
 17 15  1  0
 19 13  1  0
 20 10  1  0
 20 19  2  0
 22 23  2  0
 22 21  1  0
 24 22  1  0
 25 26  1  0
 25 24  1  6
 26 17  1  0
 27 25  1  0
 28 27  1  0
 29 27  2  0
M  END
$$$$
