NYN.pdb
     RDKit          3D

 29 29  0  0  1  0  0  0  0  0999 V2000
   21.7885  -21.9659  -15.8205 N   0  0  0  0  0  0  0  0  0  0  0  0
   21.1719  -21.8238  -14.5651 C   0  0  0  0  0  0  0  0  0  0  0  0
   21.0405  -20.6365  -14.1298 O   0  0  0  0  0  0  0  0  0  0  0  0
   20.6681  -22.9015  -13.7131 C   0  0  0  0  0  0  0  0  0  0  0  0
   20.8317  -24.2719  -14.2956 C   0  0  2  0  0  0  0  0  0  0  0  0
   19.9448  -24.4813  -15.4014 N   0  0  0  0  0  0  0  0  0  0  0  0
   20.7217  -25.3672  -13.3192 C   0  0  0  0  0  0  0  0  0  0  0  0
   21.4477  -25.4525  -12.2994 O   0  0  0  0  0  0  0  0  0  0  0  0
   18.2778  -24.2654   -7.1699 O   0  0  0  0  0  0  0  0  0  0  0  0
   18.2965  -25.0693   -8.3280 C   0  0  0  0  0  0  0  0  0  0  0  0
   18.8878  -26.3113   -8.3210 C   0  0  0  0  0  0  0  0  0  0  0  0
   18.9032  -27.1016   -9.4689 C   0  0  0  0  0  0  0  0  0  0  0  0
   18.3329  -26.6786  -10.6494 C   0  0  0  0  0  0  0  0  0  0  0  0
   18.3712  -27.5364  -11.8232 C   0  0  0  0  0  0  0  0  0  0  0  0
   19.6370  -27.5320  -12.6051 C   0  0  2  0  0  0  0  0  0  0  0  0
   19.7555  -26.4025  -13.5060 N   0  0  0  0  0  0  0  0  0  0  0  0
   19.9631  -28.8145  -13.2809 C   0  0  0  0  0  0  0  0  0  0  0  0
   19.7013  -29.0205  -14.5018 O   0  0  0  0  0  0  0  0  0  0  0  0
   17.7447  -25.4316  -10.6389 C   0  0  0  0  0  0  0  0  0  0  0  0
   17.7242  -24.6388   -9.5033 C   0  0  0  0  0  0  0  0  0  0  0  0
   21.4940  -33.6382  -14.3668 N   0  0  0  0  0  0  0  0  0  0  0  0
   22.3144  -33.1917  -13.3023 C   0  0  0  0  0  0  0  0  0  0  0  0
   23.2483  -33.9186  -12.9102 O   0  0  0  0  0  0  0  0  0  0  0  0
   22.0508  -31.8883  -12.6842 C   0  0  0  0  0  0  0  0  0  0  0  0
   20.8495  -31.1608  -13.3009 C   0  0  2  0  0  0  0  0  0  0  0  0
   20.5928  -29.9070  -12.6203 N   0  0  0  0  0  0  0  0  0  0  0  0
   19.6905  -32.0331  -13.0752 C   0  0  0  0  0  0  0  0  0  0  0  0
   18.8748  -31.8399  -11.9806 O   0  0  0  0  0  0  0  0  0  0  0  0
   19.4301  -32.9528  -13.8639 O   0  0  0  0  0  0  0  0  0  0  0  0
  2  1  1  0
  3  2  2  0
  4  5  1  0
  4  2  1  0
  5  6  1  6
  7  5  1  0
  7  8  2  0
  9 10  1  0
 10 11  2  0
 11 12  1  0
 13 12  2  0
 13 14  1  0
 15 14  1  6
 15 16  1  0
 16  7  1  0
 17 18  2  0
 17 15  1  0
 19 13  1  0
 20 10  1  0
 20 19  2  0
 22 23  2  0
 22 21  1  0
 24 22  1  0
 25 26  1  0
 25 24  1  1
 26 17  1  0
 27 25  1  0
 28 27  1  0
 29 27  2  0
M  END
$$$$
