NYN.pdb
     RDKit          3D

 29 29  0  0  1  0  0  0  0  0999 V2000
   26.5961  -20.5153  -20.4502 N   0  0  0  0  0  0  0  0  0  0  0  0
   26.8324  -20.0772  -19.1355 C   0  0  0  0  0  0  0  0  0  0  0  0
   27.7498  -19.2100  -18.9837 O   0  0  0  0  0  0  0  0  0  0  0  0
   26.1308  -20.5175  -17.9292 C   0  0  0  0  0  0  0  0  0  0  0  0
   27.0289  -20.7890  -16.7614 C   0  0  2  0  0  0  0  0  0  0  0  0
   27.9629  -21.8365  -17.0501 N   0  0  0  0  0  0  0  0  0  0  0  0
   26.3234  -21.0480  -15.4963 C   0  0  0  0  0  0  0  0  0  0  0  0
   25.9776  -22.1960  -15.1263 O   0  0  0  0  0  0  0  0  0  0  0  0
   31.0427  -21.7983  -10.8713 O   0  0  0  0  0  0  0  0  0  0  0  0
   29.7840  -21.2511  -11.1933 C   0  0  0  0  0  0  0  0  0  0  0  0
   29.6579  -20.2793  -12.1588 C   0  0  0  0  0  0  0  0  0  0  0  0
   28.4109  -19.7419  -12.4728 C   0  0  0  0  0  0  0  0  0  0  0  0
   27.2610  -20.1556  -11.8369 C   0  0  0  0  0  0  0  0  0  0  0  0
   25.9802  -19.5681  -12.1969 C   0  0  0  0  0  0  0  0  0  0  0  0
   25.2869  -20.1614  -13.3721 C   0  0  2  0  0  0  0  0  0  0  0  0
   25.9978  -19.9676  -14.6205 N   0  0  0  0  0  0  0  0  0  0  0  0
   23.8480  -19.8120  -13.4956 C   0  0  0  0  0  0  0  0  0  0  0  0
   23.4493  -18.8191  -14.1715 O   0  0  0  0  0  0  0  0  0  0  0  0
   27.4053  -21.1300  -10.8722 C   0  0  0  0  0  0  0  0  0  0  0  0
   28.6401  -21.6702  -10.5530 C   0  0  0  0  0  0  0  0  0  0  0  0
   18.8533  -20.1743  -14.3011 N   0  0  0  0  0  0  0  0  0  0  0  0
   19.7650  -20.9398  -15.0683 C   0  0  0  0  0  0  0  0  0  0  0  0
   19.3587  -21.5141  -16.0976 O   0  0  0  0  0  0  0  0  0  0  0  0
   21.1635  -21.0418  -14.6392 C   0  0  0  0  0  0  0  0  0  0  0  0
   21.4212  -20.4040  -13.2682 C   0  0  2  0  0  0  0  0  0  0  0  0
   22.8073  -20.5578  -12.8731 N   0  0  0  0  0  0  0  0  0  0  0  0
   20.6014  -21.1580  -12.3120 C   0  0  0  0  0  0  0  0  0  0  0  0
   19.2647  -20.8601  -12.1523 O   0  0  0  0  0  0  0  0  0  0  0  0
   21.0986  -22.0705  -11.6369 O   0  0  0  0  0  0  0  0  0  0  0  0
  2  1  1  0
  3  2  2  0
  4  5  1  0
  4  2  1  0
  5  6  1  6
  7  5  1  0
  7  8  2  0
  9 10  1  0
 10 11  2  0
 11 12  1  0
 13 12  2  0
 13 14  1  0
 15 14  1  1
 15 16  1  0
 16  7  1  0
 17 18  2  0
 17 15  1  0
 19 13  1  0
 20 10  1  0
 20 19  2  0
 22 23  2  0
 22 21  1  0
 24 22  1  0
 25 26  1  0
 25 24  1  6
 26 17  1  0
 27 25  1  0
 28 27  1  0
 29 27  2  0
M  END
$$$$
