NYN.pdb
     RDKit          3D

 29 29  0  0  1  0  0  0  0  0999 V2000
   31.7253  -23.8099  -19.2369 N   0  0  0  0  0  0  0  0  0  0  0  0
   30.9238  -22.7393  -18.8037 C   0  0  0  0  0  0  0  0  0  0  0  0
   30.8824  -21.7197  -19.5621 O   0  0  0  0  0  0  0  0  0  0  0  0
   30.1353  -22.6817  -17.5724 C   0  0  0  0  0  0  0  0  0  0  0  0
   28.7822  -22.0607  -17.7386 C   0  0  2  0  0  0  0  0  0  0  0  0
   28.8792  -20.7040  -18.1893 N   0  0  0  0  0  0  0  0  0  0  0  0
   27.9155  -22.1600  -16.5535 C   0  0  0  0  0  0  0  0  0  0  0  0
   27.3162  -23.2132  -16.2282 O   0  0  0  0  0  0  0  0  0  0  0  0
   24.5222  -20.4942   -8.5057 O   0  0  0  0  0  0  0  0  0  0  0  0
   25.2288  -20.4221   -9.7235 C   0  0  0  0  0  0  0  0  0  0  0  0
   26.3608  -21.1750   -9.9337 C   0  0  0  0  0  0  0  0  0  0  0  0
   27.0552  -21.0996  -11.1397 C   0  0  0  0  0  0  0  0  0  0  0  0
   26.6431  -20.2763  -12.1645 C   0  0  0  0  0  0  0  0  0  0  0  0
   27.3977  -20.2295  -13.4069 C   0  0  0  0  0  0  0  0  0  0  0  0
   26.8851  -21.0673  -14.5245 C   0  0  2  0  0  0  0  0  0  0  0  0
   27.7207  -21.0251  -15.7083 N   0  0  0  0  0  0  0  0  0  0  0  0
   25.4500  -20.8669  -14.8536 C   0  0  0  0  0  0  0  0  0  0  0  0
   25.0625  -19.9916  -15.6814 O   0  0  0  0  0  0  0  0  0  0  0  0
   25.5071  -19.5289  -11.9373 C   0  0  0  0  0  0  0  0  0  0  0  0
   24.8101  -19.5968  -10.7423 C   0  0  0  0  0  0  0  0  0  0  0  0
   20.4868  -22.6756  -16.5476 N   0  0  0  0  0  0  0  0  0  0  0  0
   20.8719  -22.6006  -15.1868 C   0  0  0  0  0  0  0  0  0  0  0  0
   19.9993  -22.3982  -14.3198 O   0  0  0  0  0  0  0  0  0  0  0  0
   22.2839  -22.7616  -14.8253 C   0  0  0  0  0  0  0  0  0  0  0  0
   23.0143  -21.4258  -14.6387 C   0  0  2  0  0  0  0  0  0  0  0  0
   24.4014  -21.6357  -14.2740 N   0  0  0  0  0  0  0  0  0  0  0  0
   22.3548  -20.7598  -13.5088 C   0  0  0  0  0  0  0  0  0  0  0  0
   21.4125  -19.7783  -13.7312 O   0  0  0  0  0  0  0  0  0  0  0  0
   22.6354  -21.0703  -12.3424 O   0  0  0  0  0  0  0  0  0  0  0  0
  2  1  1  0
  3  2  2  0
  4  5  1  0
  4  2  1  0
  5  6  1  1
  7  5  1  0
  7  8  2  0
  9 10  1  0
 10 11  2  0
 11 12  1  0
 13 12  2  0
 13 14  1  0
 15 14  1  1
 15 16  1  0
 16  7  1  0
 17 18  2  0
 17 15  1  0
 19 13  1  0
 20 10  1  0
 20 19  2  0
 22 23  2  0
 22 21  1  0
 24 22  1  0
 25 26  1  0
 25 24  1  1
 26 17  1  0
 27 25  1  0
 28 27  1  0
 29 27  2  0
M  END
$$$$
