SKS.pdb
     RDKit          3D

 22 21  0  0  1  0  0  0  0  0999 V2000
   13.0194  -21.0890   16.8660 O   0  0  0  0  0  0  0  0  0  0  0  0
   13.1291  -19.8918   17.5682 C   0  0  0  0  0  0  0  0  0  0  0  0
   11.7490  -19.2476   17.7513 C   0  0  2  0  0  0  0  0  0  0  0  0
   11.5250  -18.3792   16.6677 N   0  0  0  0  0  0  0  0  0  0  0  0
   11.6870  -18.6262   19.0899 C   0  0  0  0  0  0  0  0  0  0  0  0
   12.0256  -17.4246   19.1463 O   0  0  0  0  0  0  0  0  0  0  0  0
   11.2729  -19.3450   20.2231 N   0  0  0  0  0  0  0  0  0  0  0  0
   11.0992  -18.8607   21.5588 C   0  0  1  0  0  0  0  0  0  0  0  0
   10.3119  -19.7473   22.4903 C   0  0  0  0  0  0  0  0  0  0  0  0
    8.9742  -20.1621   22.0062 C   0  0  0  0  0  0  0  0  0  0  0  0
    8.3077  -21.1917   22.8923 C   0  0  0  0  0  0  0  0  0  0  0  0
    6.9690  -21.6230   22.3505 C   0  0  0  0  0  0  0  0  0  0  0  0
    6.3414  -22.6457   23.1291 N   0  0  0  0  0  0  0  0  0  0  0  0
   12.3914  -18.5169   22.1761 C   0  0  0  0  0  0  0  0  0  0  0  0
   13.3513  -19.3656   22.1859 O   0  0  0  0  0  0  0  0  0  0  0  0
   15.5614  -15.1473   23.1716 O   0  0  0  0  0  0  0  0  0  0  0  0
   14.2975  -15.5136   22.7007 C   0  0  0  0  0  0  0  0  0  0  0  0
   13.9391  -16.9036   23.2119 C   0  0  2  0  0  0  0  0  0  0  0  0
   12.6168  -17.2473   22.7756 N   0  0  0  0  0  0  0  0  0  0  0  0
   14.0937  -16.9086   24.6686 C   0  0  0  0  0  0  0  0  0  0  0  0
   13.0925  -17.0128   25.4139 O   0  0  0  0  0  0  0  0  0  0  0  0
   15.3393  -16.7993   25.2579 O   0  0  0  0  0  0  0  0  0  0  0  0
  2  1  1  0
  3  5  1  0
  3  2  1  0
  3  4  1  6
  5  7  1  0
  5  6  2  0
  7  8  1  0
  8 14  1  0
  9 10  1  0
  8  9  1  1
 10 11  1  0
 11 12  1  0
 12 13  1  0
 14 15  2  0
 14 19  1  0
 17 16  1  0
 18 17  1  1
 19 18  1  0
 20 18  1  0
 20 22  1  0
 21 20  2  0
M  END
$$$$
