SKS.pdb
     RDKit          3D

 22 21  0  0  1  0  0  0  0  0999 V2000
   -5.4782  -24.4016   21.8340 O   0  0  0  0  0  0  0  0  0  0  0  0
   -5.9861  -24.2714   23.1236 C   0  0  0  0  0  0  0  0  0  0  0  0
   -6.0717  -25.6415   23.8084 C   0  0  2  0  0  0  0  0  0  0  0  0
   -7.0592  -26.3975   23.1513 N   0  0  0  0  0  0  0  0  0  0  0  0
   -6.2824  -25.4383   25.2562 C   0  0  0  0  0  0  0  0  0  0  0  0
   -7.4736  -25.3544   25.6245 O   0  0  0  0  0  0  0  0  0  0  0  0
   -5.2084  -25.3462   26.1566 N   0  0  0  0  0  0  0  0  0  0  0  0
   -5.2608  -25.2522   27.5839 C   0  0  1  0  0  0  0  0  0  0  0  0
   -3.9968  -25.6159   28.3210 C   0  0  0  0  0  0  0  0  0  0  0  0
   -4.0817  -25.5806   29.7999 C   0  0  0  0  0  0  0  0  0  0  0  0
   -2.7888  -25.9663   30.4849 C   0  0  0  0  0  0  0  0  0  0  0  0
   -2.9418  -26.0390   31.9826 C   0  0  0  0  0  0  0  0  0  0  0  0
   -1.7185  -26.3225   32.6677 N   0  0  0  0  0  0  0  0  0  0  0  0
   -5.7211  -23.9216   28.0163 C   0  0  0  0  0  0  0  0  0  0  0  0
   -5.0255  -22.8781   27.7536 O   0  0  0  0  0  0  0  0  0  0  0  0
   -9.6487  -23.1262   28.6603 O   0  0  0  0  0  0  0  0  0  0  0  0
   -8.7049  -22.1597   28.3016 C   0  0  0  0  0  0  0  0  0  0  0  0
   -7.3933  -22.4233   29.0310 C   0  0  2  0  0  0  0  0  0  0  0  0
   -6.9380  -23.7500   28.7317 N   0  0  0  0  0  0  0  0  0  0  0  0
   -7.6104  -22.1884   30.4605 C   0  0  0  0  0  0  0  0  0  0  0  0
   -7.9499  -21.0561   30.8744 O   0  0  0  0  0  0  0  0  0  0  0  0
   -7.4482  -23.2018   31.3866 O   0  0  0  0  0  0  0  0  0  0  0  0
  2  1  1  0
  3  5  1  0
  3  2  1  0
  3  4  1  6
  5  7  1  0
  5  6  2  0
  7  8  1  0
  8 14  1  0
  9 10  1  0
  8  9  1  1
 10 11  1  0
 11 12  1  0
 12 13  1  0
 14 15  2  0
 14 19  1  0
 17 16  1  0
 18 17  1  6
 19 18  1  0
 20 18  1  0
 20 22  1  0
 21 20  2  0
M  END
$$$$
