SKS.pdb
     RDKit          3D

 22 21  0  0  1  0  0  0  0  0999 V2000
    7.7518  -15.9372   18.7652 O   0  0  0  0  0  0  0  0  0  0  0  0
    6.8764  -14.8599   18.6592 C   0  0  0  0  0  0  0  0  0  0  0  0
    7.5757  -13.5569   19.0673 C   0  0  2  0  0  0  0  0  0  0  0  0
    8.4917  -13.2171   18.0553 N   0  0  0  0  0  0  0  0  0  0  0  0
    8.1507  -13.7271   20.4171 C   0  0  0  0  0  0  0  0  0  0  0  0
    9.3773  -13.9629   20.4583 O   0  0  0  0  0  0  0  0  0  0  0  0
    7.3642  -13.6291   21.5765 N   0  0  0  0  0  0  0  0  0  0  0  0
    7.7990  -13.6441   22.9401 C   0  0  1  0  0  0  0  0  0  0  0  0
    6.8607  -13.0234   23.9440 C   0  0  0  0  0  0  0  0  0  0  0  0
    7.3263  -13.0320   25.3507 C   0  0  0  0  0  0  0  0  0  0  0  0
    6.3478  -12.3918   26.3110 C   0  0  0  0  0  0  0  0  0  0  0  0
    6.8466  -12.4249   27.7329 C   0  0  0  0  0  0  0  0  0  0  0  0
    5.9538  -11.8082   28.6649 N   0  0  0  0  0  0  0  0  0  0  0  0
    8.1575  -15.0055   23.3728 C   0  0  0  0  0  0  0  0  0  0  0  0
    7.3064  -15.9592   23.2839 O   0  0  0  0  0  0  0  0  0  0  0  0
   12.0200  -16.1935   23.7099 O   0  0  0  0  0  0  0  0  0  0  0  0
   10.9926  -17.1275   23.5503 C   0  0  0  0  0  0  0  0  0  0  0  0
    9.7452  -16.6537   24.2859 C   0  0  2  0  0  0  0  0  0  0  0  0
    9.4443  -15.3061   23.8980 N   0  0  0  0  0  0  0  0  0  0  0  0
    9.9757  -16.8103   25.7240 C   0  0  0  0  0  0  0  0  0  0  0  0
    9.8044  -15.8456   26.5042 O   0  0  0  0  0  0  0  0  0  0  0  0
   10.3859  -18.0180   26.2572 O   0  0  0  0  0  0  0  0  0  0  0  0
  2  1  1  0
  3  5  1  0
  3  2  1  0
  3  4  1  6
  5  7  1  0
  5  6  2  0
  7  8  1  0
  8 14  1  0
  9 10  1  0
  8  9  1  1
 10 11  1  0
 11 12  1  0
 12 13  1  0
 14 15  2  0
 14 19  1  0
 17 16  1  0
 18 17  1  6
 19 18  1  0
 20 18  1  0
 20 22  1  0
 21 20  2  0
M  END
$$$$
