SKS.pdb
     RDKit          3D

 22 21  0  0  1  0  0  0  0  0999 V2000
    3.6768  -22.6936   25.3451 O   0  0  0  0  0  0  0  0  0  0  0  0
    4.9311  -22.6251   24.7449 C   0  0  0  0  0  0  0  0  0  0  0  0
    4.8120  -22.8152   23.2273 C   0  0  2  0  0  0  0  0  0  0  0  0
    4.3098  -24.1070   22.9869 N   0  0  0  0  0  0  0  0  0  0  0  0
    6.1169  -22.5123   22.6051 C   0  0  0  0  0  0  0  0  0  0  0  0
    6.9789  -23.4135   22.6865 O   0  0  0  0  0  0  0  0  0  0  0  0
    6.3671  -21.2878   21.9644 N   0  0  0  0  0  0  0  0  0  0  0  0
    7.5615  -20.8719   21.2943 C   0  0  1  0  0  0  0  0  0  0  0  0
    7.4452  -19.6413   20.4308 C   0  0  0  0  0  0  0  0  0  0  0  0
    8.6581  -19.2791   19.6603 C   0  0  0  0  0  0  0  0  0  0  0  0
    8.3657  -18.8924   18.2270 C   0  0  0  0  0  0  0  0  0  0  0  0
    9.6254  -18.6127   17.4481 C   0  0  0  0  0  0  0  0  0  0  0  0
    9.3822  -18.1821   16.1059 N   0  0  0  0  0  0  0  0  0  0  0  0
    8.6778  -20.7091   22.2411 C   0  0  0  0  0  0  0  0  0  0  0  0
    8.5351  -19.9938   23.2946 O   0  0  0  0  0  0  0  0  0  0  0  0
   10.5890  -23.2466   24.0606 O   0  0  0  0  0  0  0  0  0  0  0  0
   11.5570  -22.5049   23.3778 C   0  0  0  0  0  0  0  0  0  0  0  0
   10.9855  -21.1484   22.9843 C   0  0  2  0  0  0  0  0  0  0  0  0
    9.9374  -21.3318   22.0227 N   0  0  0  0  0  0  0  0  0  0  0  0
   12.0860  -20.3129   22.4973 C   0  0  0  0  0  0  0  0  0  0  0  0
   12.0392  -19.8027   21.3544 O   0  0  0  0  0  0  0  0  0  0  0  0
   13.1989  -20.0657   23.2790 O   0  0  0  0  0  0  0  0  0  0  0  0
  2  1  1  0
  3  5  1  0
  3  2  1  0
  3  4  1  1
  5  7  1  0
  5  6  2  0
  7  8  1  0
  8 14  1  0
  9 10  1  0
  8  9  1  1
 10 11  1  0
 11 12  1  0
 12 13  1  0
 14 15  2  0
 14 19  1  0
 17 16  1  0
 18 17  1  6
 19 18  1  0
 20 18  1  0
 20 22  1  0
 21 20  2  0
M  END
$$$$
