SKS.pdb
     RDKit          3D

 22 21  0  0  1  0  0  0  0  0999 V2000
   14.0449  -21.9413   13.4968 O   0  0  0  0  0  0  0  0  0  0  0  0
   13.8375  -21.8305   14.8690 C   0  0  0  0  0  0  0  0  0  0  0  0
   12.3742  -21.4773   15.1647 C   0  0  2  0  0  0  0  0  0  0  0  0
   12.0381  -20.3393   14.4092 N   0  0  0  0  0  0  0  0  0  0  0  0
   12.2014  -21.3466   16.6258 C   0  0  0  0  0  0  0  0  0  0  0  0
   12.4453  -20.2172   17.1020 O   0  0  0  0  0  0  0  0  0  0  0  0
   11.7889  -22.4263   17.4237 N   0  0  0  0  0  0  0  0  0  0  0  0
   11.5845  -22.4475   18.8402 C   0  0  1  0  0  0  0  0  0  0  0  0
   10.6206  -23.4853   19.3573 C   0  0  0  0  0  0  0  0  0  0  0  0
    9.4838  -23.8092   18.4637 C   0  0  0  0  0  0  0  0  0  0  0  0
    9.1137  -25.2763   18.4707 C   0  0  0  0  0  0  0  0  0  0  0  0
    7.9042  -25.5589   17.6168 C   0  0  0  0  0  0  0  0  0  0  0  0
    7.5530  -26.9446   17.5663 N   0  0  0  0  0  0  0  0  0  0  0  0
   12.8627  -22.5542   19.5641 C   0  0  0  0  0  0  0  0  0  0  0  0
   13.8099  -23.2836   19.1032 O   0  0  0  0  0  0  0  0  0  0  0  0
   13.8341  -19.5971   21.4690 O   0  0  0  0  0  0  0  0  0  0  0  0
   14.7853  -20.5351   21.8799 C   0  0  0  0  0  0  0  0  0  0  0  0
   14.3834  -21.9234   21.3973 C   0  0  2  0  0  0  0  0  0  0  0  0
   13.0882  -21.8603   20.7847 N   0  0  0  0  0  0  0  0  0  0  0  0
   14.4462  -22.8397   22.5385 C   0  0  0  0  0  0  0  0  0  0  0  0
   13.4144  -23.4231   22.9431 O   0  0  0  0  0  0  0  0  0  0  0  0
   15.6369  -23.0849   23.1966 O   0  0  0  0  0  0  0  0  0  0  0  0
  2  1  1  0
  3  5  1  0
  3  2  1  0
  3  4  1  6
  5  7  1  0
  5  6  2  0
  7  8  1  0
  8 14  1  0
  9 10  1  0
  8  9  1  6
 10 11  1  0
 11 12  1  0
 12 13  1  0
 14 15  2  0
 14 19  1  0
 17 16  1  0
 18 17  1  1
 19 18  1  0
 20 18  1  0
 20 22  1  0
 21 20  2  0
M  END
$$$$
