SKS.pdb
     RDKit          3D

 22 21  0  0  1  0  0  0  0  0999 V2000
   -4.8931  -23.1398   24.9997 O   0  0  0  0  0  0  0  0  0  0  0  0
   -3.5554  -23.4160   25.2688 C   0  0  0  0  0  0  0  0  0  0  0  0
   -3.3958  -24.8530   25.7814 C   0  0  2  0  0  0  0  0  0  0  0  0
   -3.7695  -25.7299   24.7469 N   0  0  0  0  0  0  0  0  0  0  0  0
   -4.1513  -24.9958   27.0426 C   0  0  0  0  0  0  0  0  0  0  0  0
   -5.2883  -25.5041   26.9391 O   0  0  0  0  0  0  0  0  0  0  0  0
   -3.6204  -24.5848   28.2761 N   0  0  0  0  0  0  0  0  0  0  0  0
   -4.2308  -24.6641   29.5684 C   0  0  1  0  0  0  0  0  0  0  0  0
   -3.2937  -24.8394   30.7366 C   0  0  0  0  0  0  0  0  0  0  0  0
   -2.6548  -26.1712   30.8545 C   0  0  0  0  0  0  0  0  0  0  0  0
   -1.7326  -26.2911   32.0481 C   0  0  0  0  0  0  0  0  0  0  0  0
   -1.0201  -27.6189   32.0814 C   0  0  0  0  0  0  0  0  0  0  0  0
   -0.1262  -27.7586   33.1894 N   0  0  0  0  0  0  0  0  0  0  0  0
   -5.1179  -23.5142   29.8130 C   0  0  0  0  0  0  0  0  0  0  0  0
   -4.7442  -22.3291   29.5006 O   0  0  0  0  0  0  0  0  0  0  0  0
   -8.2655  -23.1000   28.2422 O   0  0  0  0  0  0  0  0  0  0  0  0
   -7.5471  -22.1250   28.9399 C   0  0  0  0  0  0  0  0  0  0  0  0
   -7.3256  -22.5773   30.3781 C   0  0  2  0  0  0  0  0  0  0  0  0
   -6.4042  -23.6762   30.3972 N   0  0  0  0  0  0  0  0  0  0  0  0
   -8.6302  -22.8981   30.9621 C   0  0  0  0  0  0  0  0  0  0  0  0
   -8.9279  -24.0822   31.2416 O   0  0  0  0  0  0  0  0  0  0  0  0
   -9.5630  -21.9110   31.2195 O   0  0  0  0  0  0  0  0  0  0  0  0
  2  1  1  0
  3  5  1  0
  3  2  1  0
  3  4  1  6
  5  7  1  0
  5  6  2  0
  7  8  1  0
  8 14  1  0
  9 10  1  0
  8  9  1  1
 10 11  1  0
 11 12  1  0
 12 13  1  0
 14 15  2  0
 14 19  1  0
 17 16  1  0
 18 17  1  6
 19 18  1  0
 20 18  1  0
 20 22  1  0
 21 20  2  0
M  END
$$$$
