SKS.pdb
     RDKit          3D

 22 21  0  0  1  0  0  0  0  0999 V2000
    6.8767  -19.6051   11.4013 O   0  0  0  0  0  0  0  0  0  0  0  0
    6.9844  -19.1972   12.7280 C   0  0  0  0  0  0  0  0  0  0  0  0
    5.7279  -18.4293   13.1580 C   0  0  2  0  0  0  0  0  0  0  0  0
    5.6201  -17.2815   12.3520 N   0  0  0  0  0  0  0  0  0  0  0  0
    5.7945  -18.1830   14.6129 C   0  0  0  0  0  0  0  0  0  0  0  0
    6.0901  -17.0172   14.9526 O   0  0  0  0  0  0  0  0  0  0  0  0
    5.5408  -19.1981   15.5497 N   0  0  0  0  0  0  0  0  0  0  0  0
    5.4479  -19.0802   16.9732 C   0  0  1  0  0  0  0  0  0  0  0  0
    4.5079  -20.0387   17.6597 C   0  0  0  0  0  0  0  0  0  0  0  0
    4.7815  -21.4780   17.4375 C   0  0  0  0  0  0  0  0  0  0  0  0
    3.7236  -22.3876   18.0230 C   0  0  0  0  0  0  0  0  0  0  0  0
    4.0468  -23.8438   17.8070 C   0  0  0  0  0  0  0  0  0  0  0  0
    3.0165  -24.7292   18.2553 N   0  0  0  0  0  0  0  0  0  0  0  0
    6.7767  -19.1519   17.6043 C   0  0  0  0  0  0  0  0  0  0  0  0
    7.7230  -19.8140   17.0495 O   0  0  0  0  0  0  0  0  0  0  0  0
    7.6404  -17.2100   21.2099 O   0  0  0  0  0  0  0  0  0  0  0  0
    8.6529  -17.3821   20.2619 C   0  0  0  0  0  0  0  0  0  0  0  0
    8.3611  -18.6132   19.4127 C   0  0  2  0  0  0  0  0  0  0  0  0
    7.0531  -18.4972   18.8360 N   0  0  0  0  0  0  0  0  0  0  0  0
    8.5249  -19.7994   20.2564 C   0  0  0  0  0  0  0  0  0  0  0  0
    7.5568  -20.5639   20.4735 O   0  0  0  0  0  0  0  0  0  0  0  0
    9.7431  -20.1069   20.8328 O   0  0  0  0  0  0  0  0  0  0  0  0
  2  1  1  0
  3  5  1  0
  3  2  1  0
  3  4  1  6
  5  7  1  0
  5  6  2  0
  7  8  1  0
  8 14  1  0
  9 10  1  0
  8  9  1  1
 10 11  1  0
 11 12  1  0
 12 13  1  0
 14 15  2  0
 14 19  1  0
 17 16  1  0
 18 17  1  1
 19 18  1  0
 20 18  1  0
 20 22  1  0
 21 20  2  0
M  END
$$$$
