SKS.pdb
     RDKit          3D

 22 21  0  0  1  0  0  0  0  0999 V2000
   10.4416  -13.7561   19.8086 O   0  0  0  0  0  0  0  0  0  0  0  0
    9.6885  -14.1040   18.6906 C   0  0  0  0  0  0  0  0  0  0  0  0
    8.2354  -13.6410   18.8560 C   0  0  2  0  0  0  0  0  0  0  0  0
    8.2094  -12.2383   18.7536 N   0  0  0  0  0  0  0  0  0  0  0  0
    7.6977  -14.1987   20.1136 C   0  0  0  0  0  0  0  0  0  0  0  0
    7.6198  -13.3999   21.0715 O   0  0  0  0  0  0  0  0  0  0  0  0
    7.3010  -15.5417   20.2199 N   0  0  0  0  0  0  0  0  0  0  0  0
    6.8446  -16.2360   21.3854 C   0  0  1  0  0  0  0  0  0  0  0  0
    6.3259  -17.6347   21.1655 C   0  0  0  0  0  0  0  0  0  0  0  0
    6.0349  -18.4131   22.3924 C   0  0  0  0  0  0  0  0  0  0  0  0
    5.6027  -19.8358   22.1123 C   0  0  0  0  0  0  0  0  0  0  0  0
    5.1567  -20.5484   23.3633 C   0  0  0  0  0  0  0  0  0  0  0  0
    4.7212  -21.8909   23.1304 N   0  0  0  0  0  0  0  0  0  0  0  0
    7.8743  -16.2493   22.4383 C   0  0  0  0  0  0  0  0  0  0  0  0
    9.1027  -16.4602   22.1411 O   0  0  0  0  0  0  0  0  0  0  0  0
    7.1822  -14.3871   25.8656 O   0  0  0  0  0  0  0  0  0  0  0  0
    8.5141  -14.6635   25.5447 C   0  0  0  0  0  0  0  0  0  0  0  0
    8.5983  -15.9774   24.7777 C   0  0  2  0  0  0  0  0  0  0  0  0
    7.5461  -16.0314   23.8046 N   0  0  0  0  0  0  0  0  0  0  0  0
    8.5554  -17.0755   25.7465 C   0  0  0  0  0  0  0  0  0  0  0  0
    7.6681  -17.9561   25.6704 O   0  0  0  0  0  0  0  0  0  0  0  0
    9.4857  -17.1705   26.7644 O   0  0  0  0  0  0  0  0  0  0  0  0
  2  1  1  0
  3  5  1  0
  3  2  1  0
  3  4  1  1
  5  7  1  0
  5  6  2  0
  7  8  1  0
  8 14  1  0
  9 10  1  0
  8  9  1  6
 10 11  1  0
 11 12  1  0
 12 13  1  0
 14 15  2  0
 14 19  1  0
 17 16  1  0
 18 17  1  1
 19 18  1  0
 20 18  1  0
 20 22  1  0
 21 20  2  0
M  END
$$$$
