SKS.pdb
     RDKit          3D

 22 21  0  0  1  0  0  0  0  0999 V2000
   11.3879  -12.9041   17.6091 O   0  0  0  0  0  0  0  0  0  0  0  0
   10.5660  -13.1731   18.7001 C   0  0  0  0  0  0  0  0  0  0  0  0
    9.2936  -13.9011   18.2480 C   0  0  2  0  0  0  0  0  0  0  0  0
    8.4781  -12.9762   17.5712 N   0  0  0  0  0  0  0  0  0  0  0  0
    8.6778  -14.5566   19.4197 C   0  0  0  0  0  0  0  0  0  0  0  0
    7.8232  -13.8811   20.0322 O   0  0  0  0  0  0  0  0  0  0  0  0
    9.0340  -15.8563   19.8152 N   0  0  0  0  0  0  0  0  0  0  0  0
    8.5351  -16.6067   20.9273 C   0  0  1  0  0  0  0  0  0  0  0  0
    8.5344  -18.1064   20.7706 C   0  0  0  0  0  0  0  0  0  0  0  0
    7.8388  -18.6275   19.5705 C   0  0  0  0  0  0  0  0  0  0  0  0
    7.9319  -20.1310   19.4281 C   0  0  0  0  0  0  0  0  0  0  0  0
    7.1115  -20.6417   18.2714 C   0  0  0  0  0  0  0  0  0  0  0  0
    7.0868  -22.0687   18.1760 N   0  0  0  0  0  0  0  0  0  0  0  0
    9.2264  -16.2391   22.1747 C   0  0  0  0  0  0  0  0  0  0  0  0
   10.5057  -16.1794   22.2135 O   0  0  0  0  0  0  0  0  0  0  0  0
    7.7423  -13.7741   24.6997 O   0  0  0  0  0  0  0  0  0  0  0  0
    8.3805  -14.7540   25.4651 C   0  0  0  0  0  0  0  0  0  0  0  0
    9.2340  -15.6381   24.5642 C   0  0  2  0  0  0  0  0  0  0  0  0
    8.5078  -15.9414   23.3651 N   0  0  0  0  0  0  0  0  0  0  0  0
    9.6244  -16.8261   25.3273 C   0  0  0  0  0  0  0  0  0  0  0  0
   10.2313  -16.7107   26.4169 O   0  0  0  0  0  0  0  0  0  0  0  0
    9.3365  -18.0985   24.8705 O   0  0  0  0  0  0  0  0  0  0  0  0
  2  1  1  0
  3  5  1  0
  3  2  1  0
  3  4  1  1
  5  7  1  0
  5  6  2  0
  7  8  1  0
  8 14  1  0
  9 10  1  0
  8  9  1  6
 10 11  1  0
 11 12  1  0
 12 13  1  0
 14 15  2  0
 14 19  1  0
 17 16  1  0
 18 17  1  1
 19 18  1  0
 20 18  1  0
 20 22  1  0
 21 20  2  0
M  END
$$$$
