TYP.pdb
     RDKit          3D

 27 28  0  0  1  0  0  0  0  0999 V2000
    8.1820  -19.7285   22.5651 C   0  0  0  0  0  0  0  0  0  0  0  0
    6.6990  -19.9449   22.7994 C   0  0  1  0  0  0  0  0  0  0  0  0
    6.5533  -21.2963   23.1535 O   0  0  0  0  0  0  0  0  0  0  0  0
    6.1827  -19.0625   23.9169 C   0  0  2  0  0  0  0  0  0  0  0  0
    4.7931  -19.4079   24.1451 N   0  0  0  0  0  0  0  0  0  0  0  0
    6.3259  -17.6512   23.4731 C   0  0  0  0  0  0  0  0  0  0  0  0
    5.4135  -17.1630   22.7692 O   0  0  0  0  0  0  0  0  0  0  0  0
    5.9762  -11.3741   27.8828 O   0  0  0  0  0  0  0  0  0  0  0  0
    6.6111  -12.2272   26.9853 C   0  0  0  0  0  0  0  0  0  0  0  0
    7.8548  -12.7380   27.2903 C   0  0  0  0  0  0  0  0  0  0  0  0
    8.5038  -13.5857   26.4159 C   0  0  0  0  0  0  0  0  0  0  0  0
    7.9553  -13.9636   25.2091 C   0  0  0  0  0  0  0  0  0  0  0  0
    8.6568  -14.8768   24.2698 C   0  0  0  0  0  0  0  0  0  0  0  0
    7.6819  -15.5244   23.2968 C   0  0  2  0  0  0  0  0  0  0  0  0
    7.4533  -16.8636   23.8249 N   0  0  0  0  0  0  0  0  0  0  0  0
    8.3808  -15.6438   21.9952 C   0  0  0  0  0  0  0  0  0  0  0  0
    8.8095  -16.8155   21.6977 O   0  0  0  0  0  0  0  0  0  0  0  0
    6.7122  -13.4382   24.9307 C   0  0  0  0  0  0  0  0  0  0  0  0
    6.0462  -12.5918   25.7860 C   0  0  0  0  0  0  0  0  0  0  0  0
    8.5917  -14.5795   21.0976 N   0  0  0  0  0  0  0  0  0  0  0  0
    8.3475  -13.1840   21.3516 C   0  0  0  0  0  0  0  0  0  0  0  0
    8.0430  -12.5792   19.9847 C   0  0  0  0  0  0  0  0  0  0  0  0
    8.3588  -13.6369   18.9585 C   0  0  0  0  0  0  0  0  0  0  0  0
    9.0839  -14.6895   19.7502 C   0  0  1  0  0  0  0  0  0  0  0  0
   10.5403  -14.4561   19.7318 C   0  0  0  0  0  0  0  0  0  0  0  0
   11.0873  -13.9210   20.7212 O   0  0  0  0  0  0  0  0  0  0  0  0
   11.3075  -14.8197   18.6389 O   0  0  0  0  0  0  0  0  0  0  0  0
  2  1  1  1
  2  3  1  0
  4  2  1  0
  4  5  1  6
  6  4  1  0
  7  6  2  0
  8  9  1  0
  9 10  2  0
  9 19  1  0
 10 11  1  0
 11 12  2  0
 12 13  1  0
 14 13  1  1
 14 15  1  0
 15  6  1  0
 16 14  1  0
 17 16  2  0
 18 12  1  0
 19 18  2  0
 20 16  1  0
 20 21  1  0
 21 22  1  0
 23 22  1  0
 24 20  1  0
 24 23  1  0
 24 25  1  1
 26 25  2  0
 27 25  1  0
M  END
$$$$
