TYP.pdb
     RDKit          3D

 27 28  0  0  1  0  0  0  0  0999 V2000
    6.6331  -22.5066   22.9665 C   0  0  0  0  0  0  0  0  0  0  0  0
    6.7985  -20.9997   23.0210 C   0  0  1  0  0  0  0  0  0  0  0  0
    7.1470  -20.5985   21.7207 O   0  0  0  0  0  0  0  0  0  0  0  0
    5.5126  -20.3186   23.4412 C   0  0  2  0  0  0  0  0  0  0  0  0
    4.4978  -20.6489   22.4597 N   0  0  0  0  0  0  0  0  0  0  0  0
    5.7748  -18.8561   23.4804 C   0  0  0  0  0  0  0  0  0  0  0  0
    5.4423  -18.1744   22.4849 O   0  0  0  0  0  0  0  0  0  0  0  0
    7.4024  -10.8909   27.0046 O   0  0  0  0  0  0  0  0  0  0  0  0
    7.3221  -12.2624   26.7834 C   0  0  0  0  0  0  0  0  0  0  0  0
    6.0905  -12.8818   26.7690 C   0  0  0  0  0  0  0  0  0  0  0  0
    5.9860  -14.2406   26.5516 C   0  0  0  0  0  0  0  0  0  0  0  0
    7.0875  -15.0419   26.3402 C   0  0  0  0  0  0  0  0  0  0  0  0
    6.9715  -16.5048   26.1063 C   0  0  0  0  0  0  0  0  0  0  0  0
    6.7056  -16.8106   24.6392 C   0  0  2  0  0  0  0  0  0  0  0  0
    6.3820  -18.2314   24.6012 N   0  0  0  0  0  0  0  0  0  0  0  0
    7.9798  -16.5978   23.9125 C   0  0  0  0  0  0  0  0  0  0  0  0
    8.8267  -17.5589   23.9781 O   0  0  0  0  0  0  0  0  0  0  0  0
    8.3048  -14.3963   26.3599 C   0  0  0  0  0  0  0  0  0  0  0  0
    8.4339  -13.0439   26.5745 C   0  0  0  0  0  0  0  0  0  0  0  0
    8.3005  -15.4397   23.1783 N   0  0  0  0  0  0  0  0  0  0  0  0
    7.7036  -14.1386   23.3278 C   0  0  0  0  0  0  0  0  0  0  0  0
    7.8311  -13.4836   21.9560 C   0  0  0  0  0  0  0  0  0  0  0  0
    8.7205  -14.3744   21.1272 C   0  0  0  0  0  0  0  0  0  0  0  0
    9.2822  -15.3426   22.1312 C   0  0  1  0  0  0  0  0  0  0  0  0
   10.5560  -14.8487   22.6874 C   0  0  0  0  0  0  0  0  0  0  0  0
   10.6000  -14.4775   23.8811 O   0  0  0  0  0  0  0  0  0  0  0  0
   11.6993  -14.7903   21.9098 O   0  0  0  0  0  0  0  0  0  0  0  0
  2  1  1  6
  2  3  1  0
  4  2  1  0
  4  5  1  6
  6  4  1  0
  7  6  2  0
  8  9  1  0
  9 10  2  0
  9 19  1  0
 10 11  1  0
 11 12  2  0
 12 13  1  0
 14 13  1  1
 14 15  1  0
 15  6  1  0
 16 14  1  0
 17 16  2  0
 18 12  1  0
 19 18  2  0
 20 16  1  0
 20 21  1  0
 21 22  1  0
 23 22  1  0
 24 20  1  0
 24 23  1  0
 24 25  1  1
 26 25  2  0
 27 25  1  0
M  END
$$$$
