TYP.pdb
     RDKit          3D

 27 28  0  0  1  0  0  0  0  0999 V2000
    7.4460  -17.8764   19.7705 C   0  0  0  0  0  0  0  0  0  0  0  0
    7.9863  -16.7883   18.8621 C   0  0  1  0  0  0  0  0  0  0  0  0
    7.6334  -17.1610   17.5546 O   0  0  0  0  0  0  0  0  0  0  0  0
    7.3788  -15.4411   19.1938 C   0  0  2  0  0  0  0  0  0  0  0  0
    7.7357  -14.5228   18.1300 N   0  0  0  0  0  0  0  0  0  0  0  0
    7.9430  -15.0066   20.4985 C   0  0  0  0  0  0  0  0  0  0  0  0
    9.1194  -14.5797   20.5150 O   0  0  0  0  0  0  0  0  0  0  0  0
    8.0311  -12.7037   29.0919 O   0  0  0  0  0  0  0  0  0  0  0  0
    7.6596  -13.1084   27.8134 C   0  0  0  0  0  0  0  0  0  0  0  0
    7.5655  -12.1767   26.8014 C   0  0  0  0  0  0  0  0  0  0  0  0
    7.1990  -12.5544   25.5258 C   0  0  0  0  0  0  0  0  0  0  0  0
    6.9110  -13.8615   25.1962 C   0  0  0  0  0  0  0  0  0  0  0  0
    6.5166  -14.2649   23.8214 C   0  0  0  0  0  0  0  0  0  0  0  0
    7.7288  -14.6710   22.9954 C   0  0  2  0  0  0  0  0  0  0  0  0
    7.1893  -15.0654   21.7000 N   0  0  0  0  0  0  0  0  0  0  0  0
    8.3172  -15.8664   23.6448 C   0  0  0  0  0  0  0  0  0  0  0  0
    7.6824  -16.9668   23.4675 O   0  0  0  0  0  0  0  0  0  0  0  0
    7.0131  -14.7706   26.2267 C   0  0  0  0  0  0  0  0  0  0  0  0
    7.3764  -14.4181   27.5056 C   0  0  0  0  0  0  0  0  0  0  0  0
    9.4943  -15.8616   24.4176 N   0  0  0  0  0  0  0  0  0  0  0  0
   10.2382  -14.7031   24.8371 C   0  0  0  0  0  0  0  0  0  0  0  0
   11.6768  -15.1881   24.9866 C   0  0  0  0  0  0  0  0  0  0  0  0
   11.6469  -16.6899   24.8632 C   0  0  0  0  0  0  0  0  0  0  0  0
   10.1810  -17.0187   24.9266 C   0  0  1  0  0  0  0  0  0  0  0  0
    9.7565  -17.2787   26.3151 C   0  0  0  0  0  0  0  0  0  0  0  0
    8.7505  -17.9920   26.5245 O   0  0  0  0  0  0  0  0  0  0  0  0
   10.4532  -16.7465   27.3859 O   0  0  0  0  0  0  0  0  0  0  0  0
  2  1  1  1
  2  3  1  0
  4  2  1  0
  4  5  1  6
  6  4  1  0
  7  6  2  0
  8  9  1  0
  9 10  2  0
  9 19  1  0
 10 11  1  0
 11 12  2  0
 12 13  1  0
 14 13  1  1
 14 15  1  0
 15  6  1  0
 16 14  1  0
 17 16  2  0
 18 12  1  0
 19 18  2  0
 20 16  1  0
 20 21  1  0
 21 22  1  0
 23 22  1  0
 24 20  1  0
 24 23  1  0
 24 25  1  1
 26 25  2  0
 27 25  1  0
M  END
$$$$
