TYP.pdb
     RDKit          3D

 27 28  0  0  1  0  0  0  0  0999 V2000
    8.3359  -20.6183   26.0088 C   0  0  0  0  0  0  0  0  0  0  0  0
    7.9541  -19.4030   25.1852 C   0  0  1  0  0  0  0  0  0  0  0  0
    8.0778  -19.7890   23.8403 O   0  0  0  0  0  0  0  0  0  0  0  0
    6.5298  -18.9715   25.4667 C   0  0  2  0  0  0  0  0  0  0  0  0
    5.6533  -20.0531   25.0613 N   0  0  0  0  0  0  0  0  0  0  0  0
    6.2729  -17.7390   24.6768 C   0  0  0  0  0  0  0  0  0  0  0  0
    5.5924  -17.8442   23.6316 O   0  0  0  0  0  0  0  0  0  0  0  0
   10.7583  -15.2978   29.2200 O   0  0  0  0  0  0  0  0  0  0  0  0
    9.8464  -14.9917   28.2144 C   0  0  0  0  0  0  0  0  0  0  0  0
    8.6544  -15.6803   28.1392 C   0  0  0  0  0  0  0  0  0  0  0  0
    7.7348  -15.3942   27.1508 C   0  0  0  0  0  0  0  0  0  0  0  0
    7.9517  -14.4209   26.1991 C   0  0  0  0  0  0  0  0  0  0  0  0
    6.9592  -14.1152   25.1361 C   0  0  0  0  0  0  0  0  0  0  0  0
    6.7624  -15.3035   24.2056 C   0  0  2  0  0  0  0  0  0  0  0  0
    6.7737  -16.4723   25.0765 N   0  0  0  0  0  0  0  0  0  0  0  0
    7.9494  -15.3640   23.3200 C   0  0  0  0  0  0  0  0  0  0  0  0
    8.8011  -16.2842   23.5907 O   0  0  0  0  0  0  0  0  0  0  0  0
    9.1507  -13.7491   26.2985 C   0  0  0  0  0  0  0  0  0  0  0  0
   10.0824  -14.0165   27.2743 C   0  0  0  0  0  0  0  0  0  0  0  0
    8.1853  -14.4983   22.2348 N   0  0  0  0  0  0  0  0  0  0  0  0
    7.8154  -13.1099   22.1511 C   0  0  0  0  0  0  0  0  0  0  0  0
    7.6267  -12.8386   20.6618 C   0  0  0  0  0  0  0  0  0  0  0  0
    8.1316  -14.0547   19.9285 C   0  0  0  0  0  0  0  0  0  0  0  0
    8.8346  -14.8436   20.9983 C   0  0  1  0  0  0  0  0  0  0  0  0
   10.2633  -14.4836   21.0688 C   0  0  0  0  0  0  0  0  0  0  0  0
   10.6646  -13.7494   21.9986 O   0  0  0  0  0  0  0  0  0  0  0  0
   11.1630  -14.9451   20.1240 O   0  0  0  0  0  0  0  0  0  0  0  0
  2  1  1  1
  2  3  1  0
  4  2  1  0
  4  5  1  6
  6  4  1  0
  7  6  2  0
  8  9  1  0
  9 10  2  0
  9 19  1  0
 10 11  1  0
 11 12  2  0
 12 13  1  0
 14 13  1  1
 14 15  1  0
 15  6  1  0
 16 14  1  0
 17 16  2  0
 18 12  1  0
 19 18  2  0
 20 16  1  0
 20 21  1  0
 21 22  1  0
 23 22  1  0
 24 20  1  0
 24 23  1  0
 24 25  1  1
 26 25  2  0
 27 25  1  0
M  END
$$$$
