TYP.pdb
     RDKit          3D

 27 28  0  0  1  0  0  0  0  0999 V2000
   11.9150  -19.6672   20.9783 C   0  0  0  0  0  0  0  0  0  0  0  0
   11.6934  -18.5022   21.9242 C   0  0  1  0  0  0  0  0  0  0  0  0
   12.8885  -18.3546   22.6474 O   0  0  0  0  0  0  0  0  0  0  0  0
   11.3908  -17.2264   21.1662 C   0  0  2  0  0  0  0  0  0  0  0  0
   12.5880  -16.8510   20.4394 N   0  0  0  0  0  0  0  0  0  0  0  0
   11.0155  -16.1923   22.1656 C   0  0  0  0  0  0  0  0  0  0  0  0
   11.8985  -15.3853   22.5336 O   0  0  0  0  0  0  0  0  0  0  0  0
    5.7961  -11.9447   28.0156 O   0  0  0  0  0  0  0  0  0  0  0  0
    6.2956  -12.6883   26.9507 C   0  0  0  0  0  0  0  0  0  0  0  0
    6.9701  -12.0531   25.9298 C   0  0  0  0  0  0  0  0  0  0  0  0
    7.4744  -12.7696   24.8636 C   0  0  0  0  0  0  0  0  0  0  0  0
    7.3350  -14.1370   24.7603 C   0  0  0  0  0  0  0  0  0  0  0  0
    7.8793  -14.9056   23.6107 C   0  0  0  0  0  0  0  0  0  0  0  0
    9.3542  -15.2251   23.8082 C   0  0  2  0  0  0  0  0  0  0  0  0
    9.7029  -16.1044   22.6992 N   0  0  0  0  0  0  0  0  0  0  0  0
    9.4681  -15.9918   25.0716 C   0  0  0  0  0  0  0  0  0  0  0  0
    9.3379  -17.2635   24.9660 O   0  0  0  0  0  0  0  0  0  0  0  0
    6.6569  -14.7452   25.7943 C   0  0  0  0  0  0  0  0  0  0  0  0
    6.1456  -14.0524   26.8669 C   0  0  0  0  0  0  0  0  0  0  0  0
    9.7043  -15.4216   26.3372 N   0  0  0  0  0  0  0  0  0  0  0  0
    9.3209  -14.1026   26.7671 C   0  0  0  0  0  0  0  0  0  0  0  0
   10.3454  -13.7182   27.8299 C   0  0  0  0  0  0  0  0  0  0  0  0
   11.1513  -14.9563   28.1284 C   0  0  0  0  0  0  0  0  0  0  0  0
   10.3840  -16.0500   27.4385 C   0  0  1  0  0  0  0  0  0  0  0  0
    9.3973  -16.6600   28.3496 C   0  0  0  0  0  0  0  0  0  0  0  0
    9.7977  -17.2837   29.3571 O   0  0  0  0  0  0  0  0  0  0  0  0
    8.0392  -16.5524   28.1062 O   0  0  0  0  0  0  0  0  0  0  0  0
  2  1  1  6
  2  3  1  0
  4  2  1  0
  4  5  1  1
  6  4  1  0
  7  6  2  0
  8  9  1  0
  9 10  2  0
  9 19  1  0
 10 11  1  0
 11 12  2  0
 12 13  1  0
 14 13  1  6
 14 15  1  0
 15  6  1  0
 16 14  1  0
 17 16  2  0
 18 12  1  0
 19 18  2  0
 20 16  1  0
 20 21  1  0
 21 22  1  0
 23 22  1  0
 24 20  1  0
 24 23  1  0
 24 25  1  1
 26 25  2  0
 27 25  1  0
M  END
$$$$
