FST.pdb
     RDKit          3D

 25 25  0  0  1  0  0  0  0  0999 V2000
   18.8012   -9.7263  -15.6800 N   0  0  0  0  0  0  0  0  0  0  0  0
   19.6966   -8.7608  -16.2663 C   0  0  1  0  0  0  0  0  0  0  0  0
   19.2708   -8.5397  -17.6985 C   0  0  0  0  0  0  0  0  0  0  0  0
   19.4772   -9.7989  -18.4262 C   0  0  0  0  0  0  0  0  0  0  0  0
   20.7274  -10.1308  -18.8770 C   0  0  0  0  0  0  0  0  0  0  0  0
   20.9540  -11.3103  -19.5666 C   0  0  0  0  0  0  0  0  0  0  0  0
   19.8896  -12.1604  -19.7980 C   0  0  0  0  0  0  0  0  0  0  0  0
   18.6390  -11.8548  -19.3614 C   0  0  0  0  0  0  0  0  0  0  0  0
   18.4423  -10.6709  -18.6758 C   0  0  0  0  0  0  0  0  0  0  0  0
   19.8143   -7.5240  -15.4890 C   0  0  0  0  0  0  0  0  0  0  0  0
   18.7648   -7.0372  -14.9842 O   0  0  0  0  0  0  0  0  0  0  0  0
   22.4746   -4.2154  -13.1253 O   0  0  0  0  0  0  0  0  0  0  0  0
   22.4060   -5.3917  -13.8302 C   0  0  0  0  0  0  0  0  0  0  0  0
   21.0642   -5.5664  -14.5074 C   0  0  2  0  0  0  0  0  0  0  0  0
   21.0180   -6.8155  -15.2500 N   0  0  0  0  0  0  0  0  0  0  0  0
   20.7330   -4.4119  -15.3724 C   0  0  0  0  0  0  0  0  0  0  0  0
   21.3341   -4.3142  -16.4769 O   0  0  0  0  0  0  0  0  0  0  0  0
   17.5255   -3.2959  -17.0410 C   0  0  0  0  0  0  0  0  0  0  0  0
   18.0468   -2.1992  -16.1455 C   0  0  1  0  0  0  0  0  0  0  0  0
   17.3555   -2.2747  -14.9368 O   0  0  0  0  0  0  0  0  0  0  0  0
   19.5317   -2.2709  -15.9356 C   0  0  2  0  0  0  0  0  0  0  0  0
   19.7944   -3.4068  -15.0616 N   0  0  0  0  0  0  0  0  0  0  0  0
   20.0113   -1.0075  -15.3619 C   0  0  0  0  0  0  0  0  0  0  0  0
   19.9648    0.0996  -15.9578 O   0  0  0  0  0  0  0  0  0  0  0  0
   20.5484   -1.0311  -14.0879 O   0  0  0  0  0  0  0  0  0  0  0  0
  2  1  1  1
  2 10  1  0
  3  2  1  0
  4  9  2  0
  4  3  1  0
  5  4  1  0
  6  7  1  0
  6  5  2  0
  7  8  2  0
  8  9  1  0
 10 11  2  0
 12 13  1  0
 14 13  1  6
 14 16  1  0
 15 10  1  0
 15 14  1  0
 16 17  2  0
 19 18  1  6
 19 21  1  0
 20 19  1  0
 21 23  1  0
 22 16  1  0
 21 22  1  1
 23 24  2  0
 23 25  1  0
M  END
$$$$
