FST.pdb
     RDKit          3D

 25 25  0  0  1  0  0  0  0  0999 V2000
   23.2782  -13.0018  -17.8208 N   0  0  0  0  0  0  0  0  0  0  0  0
   23.4144  -12.3692  -16.5328 C   0  0  1  0  0  0  0  0  0  0  0  0
   24.8877  -12.1748  -16.2623 C   0  0  0  0  0  0  0  0  0  0  0  0
   25.5020  -13.5047  -16.1534 C   0  0  0  0  0  0  0  0  0  0  0  0
   25.3737  -14.2239  -14.9947 C   0  0  0  0  0  0  0  0  0  0  0  0
   25.9418  -15.4799  -14.8609 C   0  0  0  0  0  0  0  0  0  0  0  0
   26.6493  -16.0065  -15.9244 C   0  0  0  0  0  0  0  0  0  0  0  0
   26.7916  -15.3136  -17.0852 C   0  0  0  0  0  0  0  0  0  0  0  0
   26.2139  -14.0624  -17.1905 C   0  0  0  0  0  0  0  0  0  0  0  0
   22.6234  -11.1431  -16.3962 C   0  0  0  0  0  0  0  0  0  0  0  0
   22.6030  -10.3378  -17.3679 O   0  0  0  0  0  0  0  0  0  0  0  0
   20.3214  -10.1461  -12.9960 O   0  0  0  0  0  0  0  0  0  0  0  0
   19.8867   -9.7674  -14.2421 C   0  0  0  0  0  0  0  0  0  0  0  0
   21.0359   -9.5846  -15.2094 C   0  0  2  0  0  0  0  0  0  0  0  0
   21.8687  -10.7753  -15.2546 N   0  0  0  0  0  0  0  0  0  0  0  0
   21.8340   -8.3798  -14.8897 C   0  0  0  0  0  0  0  0  0  0  0  0
   22.8196   -8.5169  -14.1147 O   0  0  0  0  0  0  0  0  0  0  0  0
   23.4423   -5.9012  -17.3798 C   0  0  0  0  0  0  0  0  0  0  0  0
   22.6148   -5.1656  -16.3549 C   0  0  1  0  0  0  0  0  0  0  0  0
   21.3888   -4.8564  -16.9430 O   0  0  0  0  0  0  0  0  0  0  0  0
   22.4345   -5.9411  -15.0820 C   0  0  2  0  0  0  0  0  0  0  0  0
   21.5822   -7.0836  -15.3842 N   0  0  0  0  0  0  0  0  0  0  0  0
   21.8520   -5.0720  -14.0521 C   0  0  0  0  0  0  0  0  0  0  0  0
   20.6872   -5.2036  -13.5953 O   0  0  0  0  0  0  0  0  0  0  0  0
   22.6284   -4.0438  -13.5499 O   0  0  0  0  0  0  0  0  0  0  0  0
  2  1  1  6
  2 10  1  0
  3  2  1  0
  4  9  2  0
  4  3  1  0
  5  4  1  0
  6  7  1  0
  6  5  2  0
  7  8  2  0
  8  9  1  0
 10 11  2  0
 12 13  1  0
 14 13  1  1
 14 16  1  0
 15 10  1  0
 15 14  1  0
 16 17  2  0
 19 18  1  6
 19 21  1  0
 20 19  1  0
 21 23  1  0
 22 16  1  0
 21 22  1  6
 23 24  2  0
 23 25  1  0
M  END
$$$$
