FST.pdb
     RDKit          3D

 25 25  0  0  1  0  0  0  0  0999 V2000
   22.8359  -10.8412  -20.0077 N   0  0  0  0  0  0  0  0  0  0  0  0
   21.9617  -10.7791  -18.8633 C   0  0  1  0  0  0  0  0  0  0  0  0
   21.9575  -12.1387  -18.2055 C   0  0  0  0  0  0  0  0  0  0  0  0
   21.4454  -13.1075  -19.1837 C   0  0  0  0  0  0  0  0  0  0  0  0
   22.3170  -13.9089  -19.8725 C   0  0  0  0  0  0  0  0  0  0  0  0
   21.8654  -14.8313  -20.8016 C   0  0  0  0  0  0  0  0  0  0  0  0
   20.5066  -14.9355  -21.0290 C   0  0  0  0  0  0  0  0  0  0  0  0
   19.6203  -14.1523  -20.3589 C   0  0  0  0  0  0  0  0  0  0  0  0
   20.0995  -13.2404  -19.4374 C   0  0  0  0  0  0  0  0  0  0  0  0
   22.2767   -9.6812  -17.9450 C   0  0  0  0  0  0  0  0  0  0  0  0
   21.5693   -9.5527  -16.9076 O   0  0  0  0  0  0  0  0  0  0  0  0
   25.2149   -6.6511  -18.5937 O   0  0  0  0  0  0  0  0  0  0  0  0
   24.9951   -7.1441  -17.3312 C   0  0  0  0  0  0  0  0  0  0  0  0
   23.5860   -7.6711  -17.1685 C   0  0  2  0  0  0  0  0  0  0  0  0
   23.3191   -8.7374  -18.1200 N   0  0  0  0  0  0  0  0  0  0  0  0
   22.5814   -6.5893  -17.2747 C   0  0  0  0  0  0  0  0  0  0  0  0
   22.3306   -6.1314  -18.4229 O   0  0  0  0  0  0  0  0  0  0  0  0
   19.1332   -6.6607  -16.8914 C   0  0  0  0  0  0  0  0  0  0  0  0
   19.5536   -5.5243  -15.9924 C   0  0  1  0  0  0  0  0  0  0  0  0
   19.5315   -5.9926  -14.6791 O   0  0  0  0  0  0  0  0  0  0  0  0
   20.8972   -4.9591  -16.3524 C   0  0  2  0  0  0  0  0  0  0  0  0
   21.8766   -6.0259  -16.1913 N   0  0  0  0  0  0  0  0  0  0  0  0
   21.1919   -3.8023  -15.4980 C   0  0  0  0  0  0  0  0  0  0  0  0
   20.6175   -2.6874  -15.5986 O   0  0  0  0  0  0  0  0  0  0  0  0
   22.1601   -3.9421  -14.5207 O   0  0  0  0  0  0  0  0  0  0  0  0
  2  1  1  6
  2 10  1  0
  3  2  1  0
  4  9  2  0
  4  3  1  0
  5  4  1  0
  6  7  1  0
  6  5  2  0
  7  8  2  0
  8  9  1  0
 10 11  2  0
 12 13  1  0
 14 13  1  6
 14 16  1  0
 15 10  1  0
 15 14  1  0
 16 17  2  0
 19 18  1  6
 19 21  1  0
 20 19  1  0
 21 23  1  0
 22 16  1  0
 21 22  1  1
 23 24  2  0
 23 25  1  0
M  END
$$$$
