FST.pdb
     RDKit          3D

 25 25  0  0  1  0  0  0  0  0999 V2000
   24.5940  -10.3622  -17.7263 N   0  0  0  0  0  0  0  0  0  0  0  0
   24.3926   -9.9274  -16.3668 C   0  0  1  0  0  0  0  0  0  0  0  0
   25.7230   -9.4611  -15.8245 C   0  0  0  0  0  0  0  0  0  0  0  0
   26.6914  -10.5483  -16.0189 C   0  0  0  0  0  0  0  0  0  0  0  0
   26.5213  -11.7400  -15.3652 C   0  0  0  0  0  0  0  0  0  0  0  0
   27.4172  -12.7837  -15.5271 C   0  0  0  0  0  0  0  0  0  0  0  0
   28.4998  -12.6066  -16.3672 C   0  0  0  0  0  0  0  0  0  0  0  0
   28.6917  -11.4342  -17.0277 C   0  0  0  0  0  0  0  0  0  0  0  0
   27.7815  -10.4097  -16.8472 C   0  0  0  0  0  0  0  0  0  0  0  0
   23.3183   -8.9414  -16.2206 C   0  0  0  0  0  0  0  0  0  0  0  0
   23.0545   -8.1996  -17.2071 O   0  0  0  0  0  0  0  0  0  0  0  0
   20.9050   -8.4518  -12.7505 O   0  0  0  0  0  0  0  0  0  0  0  0
   20.3701   -8.3244  -14.0087 C   0  0  0  0  0  0  0  0  0  0  0  0
   21.3961   -7.8448  -15.0123 C   0  0  2  0  0  0  0  0  0  0  0  0
   22.5383   -8.7433  -15.0544 N   0  0  0  0  0  0  0  0  0  0  0  0
   21.8155   -6.4512  -14.7428 C   0  0  0  0  0  0  0  0  0  0  0  0
   22.7755   -6.2708  -13.9449 O   0  0  0  0  0  0  0  0  0  0  0  0
   23.1155   -3.8228  -17.1044 C   0  0  0  0  0  0  0  0  0  0  0  0
   21.9243   -3.2762  -16.3570 C   0  0  1  0  0  0  0  0  0  0  0  0
   20.8105   -3.3990  -17.1871 O   0  0  0  0  0  0  0  0  0  0  0  0
   21.7023   -3.9519  -15.0347 C   0  0  2  0  0  0  0  0  0  0  0  0
   21.2271   -5.3018  -15.3090 N   0  0  0  0  0  0  0  0  0  0  0  0
   20.7422   -3.1773  -14.2389 C   0  0  0  0  0  0  0  0  0  0  0  0
   19.5800   -3.5695  -13.9592 O   0  0  0  0  0  0  0  0  0  0  0  0
   21.1355   -1.9391  -13.7651 O   0  0  0  0  0  0  0  0  0  0  0  0
  2  1  1  6
  2 10  1  0
  3  2  1  0
  4  9  2  0
  4  3  1  0
  5  4  1  0
  6  7  1  0
  6  5  2  0
  7  8  2  0
  8  9  1  0
 10 11  2  0
 12 13  1  0
 14 13  1  1
 14 16  1  0
 15 10  1  0
 15 14  1  0
 16 17  2  0
 19 18  1  6
 19 21  1  0
 20 19  1  0
 21 23  1  0
 22 16  1  0
 21 22  1  6
 23 24  2  0
 23 25  1  0
M  END
$$$$
