FST.pdb
     RDKit          3D

 25 25  0  0  1  0  0  0  0  0999 V2000
   27.3682  -22.2113  -11.5409 N   0  0  0  0  0  0  0  0  0  0  0  0
   26.2724  -21.3919  -11.0873 C   0  0  1  0  0  0  0  0  0  0  0  0
   26.8233  -20.0306  -10.7342 C   0  0  0  0  0  0  0  0  0  0  0  0
   27.3704  -20.1084   -9.3732 C   0  0  0  0  0  0  0  0  0  0  0  0
   26.5501  -19.9083   -8.2945 C   0  0  0  0  0  0  0  0  0  0  0  0
   27.0359  -19.9744   -6.9992 C   0  0  0  0  0  0  0  0  0  0  0  0
   28.3761  -20.2483   -6.8047 C   0  0  0  0  0  0  0  0  0  0  0  0
   29.2115  -20.4509   -7.8578 C   0  0  0  0  0  0  0  0  0  0  0  0
   28.6992  -20.3789   -9.1395 C   0  0  0  0  0  0  0  0  0  0  0  0
   25.1474  -21.3471  -12.0256 C   0  0  0  0  0  0  0  0  0  0  0  0
   25.4051  -21.2865  -13.2597 O   0  0  0  0  0  0  0  0  0  0  0  0
   21.0619  -21.1460  -10.9355 O   0  0  0  0  0  0  0  0  0  0  0  0
   21.4251  -21.9413  -11.9943 C   0  0  0  0  0  0  0  0  0  0  0  0
   22.7060  -21.4654  -12.6444 C   0  0  2  0  0  0  0  0  0  0  0  0
   23.7769  -21.3658  -11.6662 N   0  0  0  0  0  0  0  0  0  0  0  0
   22.5122  -20.1867  -13.3642 C   0  0  0  0  0  0  0  0  0  0  0  0
   22.6429  -19.1176  -12.7079 O   0  0  0  0  0  0  0  0  0  0  0  0
   24.0935  -18.7191  -16.6627 C   0  0  0  0  0  0  0  0  0  0  0  0
   22.5897  -18.8221  -16.7284 C   0  0  1  0  0  0  0  0  0  0  0  0
   22.2749  -19.9962  -17.4116 O   0  0  0  0  0  0  0  0  0  0  0  0
   21.9404  -18.7818  -15.3752 C   0  0  2  0  0  0  0  0  0  0  0  0
   22.1925  -20.0648  -14.7320 N   0  0  0  0  0  0  0  0  0  0  0  0
   20.5057  -18.5084  -15.5234 C   0  0  0  0  0  0  0  0  0  0  0  0
   20.0355  -17.4194  -15.9428 O   0  0  0  0  0  0  0  0  0  0  0  0
   19.6120  -19.5069  -15.1819 O   0  0  0  0  0  0  0  0  0  0  0  0
  2  1  1  6
  2 10  1  0
  3  2  1  0
  4  9  2  0
  4  3  1  0
  5  4  1  0
  6  7  1  0
  6  5  2  0
  7  8  2  0
  8  9  1  0
 10 11  2  0
 12 13  1  0
 14 13  1  1
 14 16  1  0
 15 10  1  0
 15 14  1  0
 16 17  2  0
 19 18  1  1
 19 21  1  0
 20 19  1  0
 21 23  1  0
 22 16  1  0
 21 22  1  6
 23 24  2  0
 23 25  1  0
M  END
$$$$
