FST.pdb
     RDKit          3D

 25 25  0  0  1  0  0  0  0  0999 V2000
   20.7852  -11.0994  -20.7462 N   0  0  0  0  0  0  0  0  0  0  0  0
   20.6168  -10.9735  -19.3202 C   0  0  1  0  0  0  0  0  0  0  0  0
   21.7094  -11.7721  -18.6494 C   0  0  0  0  0  0  0  0  0  0  0  0
   21.4624  -13.1925  -18.9304 C   0  0  0  0  0  0  0  0  0  0  0  0
   20.5315  -13.8820  -18.1993 C   0  0  0  0  0  0  0  0  0  0  0  0
   20.2765  -15.2219  -18.4397 C   0  0  0  0  0  0  0  0  0  0  0  0
   20.9816  -15.8642  -19.4394 C   0  0  0  0  0  0  0  0  0  0  0  0
   21.9106  -15.2032  -20.1794 C   0  0  0  0  0  0  0  0  0  0  0  0
   22.1444  -13.8663  -19.9175 C   0  0  0  0  0  0  0  0  0  0  0  0
   20.5355   -9.5842  -18.8607 C   0  0  0  0  0  0  0  0  0  0  0  0
   21.3586   -8.7527  -19.3341 O   0  0  0  0  0  0  0  0  0  0  0  0
   17.2799   -7.4569  -18.2737 O   0  0  0  0  0  0  0  0  0  0  0  0
   18.1248   -7.2728  -17.2070 C   0  0  0  0  0  0  0  0  0  0  0  0
   19.5441   -7.6831  -17.5339 C   0  0  2  0  0  0  0  0  0  0  0  0
   19.6022   -9.0837  -17.9192 N   0  0  0  0  0  0  0  0  0  0  0  0
   20.4692   -7.3923  -16.4157 C   0  0  0  0  0  0  0  0  0  0  0  0
   20.5835   -8.2598  -15.5073 O   0  0  0  0  0  0  0  0  0  0  0  0
   22.1162   -3.5443  -15.7389 C   0  0  0  0  0  0  0  0  0  0  0  0
   22.9596   -4.7702  -15.4894 C   0  0  1  0  0  0  0  0  0  0  0  0
   23.8558   -4.4665  -14.4651 O   0  0  0  0  0  0  0  0  0  0  0  0
   22.1424   -5.9867  -15.1630 C   0  0  2  0  0  0  0  0  0  0  0  0
   21.2387   -6.2184  -16.2823 N   0  0  0  0  0  0  0  0  0  0  0  0
   21.4206   -5.7736  -13.9026 C   0  0  0  0  0  0  0  0  0  0  0  0
   20.1779   -5.5933  -13.8239 O   0  0  0  0  0  0  0  0  0  0  0  0
   22.1476   -5.7699  -12.7263 O   0  0  0  0  0  0  0  0  0  0  0  0
  2  1  1  6
  2 10  1  0
  3  2  1  0
  4  9  2  0
  4  3  1  0
  5  4  1  0
  6  7  1  0
  6  5  2  0
  7  8  2  0
  8  9  1  0
 10 11  2  0
 12 13  1  0
 14 13  1  1
 14 16  1  0
 15 10  1  0
 15 14  1  0
 16 17  2  0
 19 18  1  1
 19 21  1  0
 20 19  1  0
 21 23  1  0
 22 16  1  0
 21 22  1  6
 23 24  2  0
 23 25  1  0
M  END
$$$$
