FST.pdb
     RDKit          3D

 25 25  0  0  1  0  0  0  0  0999 V2000
   19.9914  -11.1962  -19.3264 N   0  0  0  0  0  0  0  0  0  0  0  0
   21.2281  -10.6817  -18.7940 C   0  0  1  0  0  0  0  0  0  0  0  0
   21.8927   -9.8580  -19.8715 C   0  0  0  0  0  0  0  0  0  0  0  0
   22.2173  -10.7576  -20.9864 C   0  0  0  0  0  0  0  0  0  0  0  0
   23.3620  -11.5090  -20.9472 C   0  0  0  0  0  0  0  0  0  0  0  0
   23.6960  -12.3658  -21.9828 C   0  0  0  0  0  0  0  0  0  0  0  0
   22.8496  -12.4552  -23.0712 C   0  0  0  0  0  0  0  0  0  0  0  0
   21.7077  -11.7206  -23.1350 C   0  0  0  0  0  0  0  0  0  0  0  0
   21.3995  -10.8738  -22.0869 C   0  0  0  0  0  0  0  0  0  0  0  0
   21.0671   -9.9698  -17.5231 C   0  0  0  0  0  0  0  0  0  0  0  0
   19.9757   -9.3726  -17.3107 O   0  0  0  0  0  0  0  0  0  0  0  0
   21.9641  -11.0057  -13.7466 O   0  0  0  0  0  0  0  0  0  0  0  0
   22.5518   -9.8188  -14.1086 C   0  0  0  0  0  0  0  0  0  0  0  0
   21.8260   -9.1576  -15.2599 C   0  0  2  0  0  0  0  0  0  0  0  0
   22.0409   -9.8908  -16.4968 N   0  0  0  0  0  0  0  0  0  0  0  0
   22.2077   -7.7347  -15.4028 C   0  0  0  0  0  0  0  0  0  0  0  0
   23.2932   -7.4741  -15.9900 O   0  0  0  0  0  0  0  0  0  0  0  0
   20.0702   -4.8376  -16.8598 C   0  0  0  0  0  0  0  0  0  0  0  0
   20.6179   -4.4789  -15.5005 C   0  0  1  0  0  0  0  0  0  0  0  0
   19.6010   -4.6792  -14.5676 O   0  0  0  0  0  0  0  0  0  0  0  0
   21.8528   -5.2545  -15.1434 C   0  0  2  0  0  0  0  0  0  0  0  0
   21.4526   -6.6400  -14.9346 N   0  0  0  0  0  0  0  0  0  0  0  0
   22.4748   -4.6710  -13.9485 C   0  0  0  0  0  0  0  0  0  0  0  0
   22.5635   -5.2610  -12.8408 O   0  0  0  0  0  0  0  0  0  0  0  0
   22.9968   -3.3939  -14.0416 O   0  0  0  0  0  0  0  0  0  0  0  0
  2  1  1  6
  2 10  1  0
  3  2  1  0
  4  9  2  0
  4  3  1  0
  5  4  1  0
  6  7  1  0
  6  5  2  0
  7  8  2  0
  8  9  1  0
 10 11  2  0
 12 13  1  0
 14 13  1  1
 14 16  1  0
 15 10  1  0
 15 14  1  0
 16 17  2  0
 19 18  1  6
 19 21  1  0
 20 19  1  0
 21 23  1  0
 22 16  1  0
 21 22  1  1
 23 24  2  0
 23 25  1  0
M  END
$$$$
