FST.pdb
     RDKit          3D

 25 25  0  0  1  0  0  0  0  0999 V2000
   20.6674   -9.7949  -16.8604 N   0  0  0  0  0  0  0  0  0  0  0  0
   20.7873   -8.4911  -17.4635 C   0  0  1  0  0  0  0  0  0  0  0  0
   19.9159   -8.4660  -18.6968 C   0  0  0  0  0  0  0  0  0  0  0  0
   20.6483   -9.1415  -19.7762 C   0  0  0  0  0  0  0  0  0  0  0  0
   20.3551  -10.4418  -20.0915 C   0  0  0  0  0  0  0  0  0  0  0  0
   21.0283  -11.1063  -21.1031 C   0  0  0  0  0  0  0  0  0  0  0  0
   22.0129  -10.4330  -21.8005 C   0  0  0  0  0  0  0  0  0  0  0  0
   22.3233   -9.1424  -21.5076 C   0  0  0  0  0  0  0  0  0  0  0  0
   21.6351   -8.5043  -20.4930 C   0  0  0  0  0  0  0  0  0  0  0  0
   20.5241   -7.3895  -16.5334 C   0  0  0  0  0  0  0  0  0  0  0  0
   19.3872   -7.3309  -15.9883 O   0  0  0  0  0  0  0  0  0  0  0  0
   22.6923   -5.7342  -13.4599 O   0  0  0  0  0  0  0  0  0  0  0  0
   22.3810   -4.8814  -14.4900 C   0  0  0  0  0  0  0  0  0  0  0  0
   21.1357   -5.3201  -15.2292 C   0  0  2  0  0  0  0  0  0  0  0  0
   21.4447   -6.3697  -16.1865 N   0  0  0  0  0  0  0  0  0  0  0  0
   20.4554   -4.1786  -15.8810 C   0  0  0  0  0  0  0  0  0  0  0  0
   20.9844   -3.6943  -16.9185 O   0  0  0  0  0  0  0  0  0  0  0  0
   16.8384   -3.8749  -17.2120 C   0  0  0  0  0  0  0  0  0  0  0  0
   17.1505   -2.7847  -16.2169 C   0  0  1  0  0  0  0  0  0  0  0  0
   16.6362   -3.1784  -14.9819 O   0  0  0  0  0  0  0  0  0  0  0  0
   18.6169   -2.4746  -16.1287 C   0  0  2  0  0  0  0  0  0  0  0  0
   19.2566   -3.5850  -15.4351 N   0  0  0  0  0  0  0  0  0  0  0  0
   18.8111   -1.1985  -15.4295 C   0  0  0  0  0  0  0  0  0  0  0  0
   18.4445   -0.0836  -15.8828 O   0  0  0  0  0  0  0  0  0  0  0  0
   19.4353   -1.2184  -14.1957 O   0  0  0  0  0  0  0  0  0  0  0  0
  2  1  1  1
  2 10  1  0
  3  2  1  0
  4  9  2  0
  4  3  1  0
  5  4  1  0
  6  7  1  0
  6  5  2  0
  7  8  2  0
  8  9  1  0
 10 11  2  0
 12 13  1  0
 14 13  1  6
 14 16  1  0
 15 10  1  0
 15 14  1  0
 16 17  2  0
 19 18  1  6
 19 21  1  0
 20 19  1  0
 21 23  1  0
 22 16  1  0
 21 22  1  1
 23 24  2  0
 23 25  1  0
M  END
$$$$
