FST.pdb
     RDKit          3D

 25 25  0  0  1  0  0  0  0  0999 V2000
   22.7676  -10.9967  -18.0575 N   0  0  0  0  0  0  0  0  0  0  0  0
   22.7406  -10.6335  -16.6628 C   0  0  1  0  0  0  0  0  0  0  0  0
   24.1647  -10.6065  -16.1603 C   0  0  0  0  0  0  0  0  0  0  0  0
   24.6816  -11.9807  -16.2063 C   0  0  0  0  0  0  0  0  0  0  0  0
   25.6339  -12.3221  -17.1298 C   0  0  0  0  0  0  0  0  0  0  0  0
   26.1405  -13.6092  -17.1988 C   0  0  0  0  0  0  0  0  0  0  0  0
   25.6677  -14.5584  -16.3130 C   0  0  0  0  0  0  0  0  0  0  0  0
   24.7230  -14.2458  -15.3869 C   0  0  0  0  0  0  0  0  0  0  0  0
   24.2354  -12.9532  -15.3411 C   0  0  0  0  0  0  0  0  0  0  0  0
   21.9972   -9.3995  -16.3935 C   0  0  0  0  0  0  0  0  0  0  0  0
   22.0268   -8.4860  -17.2640 O   0  0  0  0  0  0  0  0  0  0  0  0
   19.8340   -8.6031  -12.8466 O   0  0  0  0  0  0  0  0  0  0  0  0
   19.3179   -8.1881  -14.0494 C   0  0  0  0  0  0  0  0  0  0  0  0
   20.4023   -7.9554  -15.0788 C   0  0  2  0  0  0  0  0  0  0  0  0
   21.2374   -9.1362  -15.2268 N   0  0  0  0  0  0  0  0  0  0  0  0
   21.2122   -6.7584  -14.7597 C   0  0  0  0  0  0  0  0  0  0  0  0
   22.1895   -6.9026  -13.9755 O   0  0  0  0  0  0  0  0  0  0  0  0
   22.8511   -4.2606  -17.2301 C   0  0  0  0  0  0  0  0  0  0  0  0
   22.0215   -3.5325  -16.2015 C   0  0  1  0  0  0  0  0  0  0  0  0
   20.8014   -3.2082  -16.7936 O   0  0  0  0  0  0  0  0  0  0  0  0
   21.8279   -4.3226  -14.9395 C   0  0  2  0  0  0  0  0  0  0  0  0
   20.9802   -5.4624  -15.2641 N   0  0  0  0  0  0  0  0  0  0  0  0
   21.2333   -3.4658  -13.9063 C   0  0  0  0  0  0  0  0  0  0  0  0
   20.0737   -3.6212  -13.4435 O   0  0  0  0  0  0  0  0  0  0  0  0
   21.9911   -2.4220  -13.4079 O   0  0  0  0  0  0  0  0  0  0  0  0
  2  1  1  6
  2 10  1  0
  3  2  1  0
  4  9  2  0
  4  3  1  0
  5  4  1  0
  6  7  1  0
  6  5  2  0
  7  8  2  0
  8  9  1  0
 10 11  2  0
 12 13  1  0
 14 13  1  1
 14 16  1  0
 15 10  1  0
 15 14  1  0
 16 17  2  0
 19 18  1  6
 19 21  1  0
 20 19  1  0
 21 23  1  0
 22 16  1  0
 21 22  1  6
 23 24  2  0
 23 25  1  0
M  END
$$$$
