GLN.pdb
     RDKit          3D

 21 20  0  0  1  0  0  0  0  0999 V2000
    4.6564  -18.7613   22.8497 N   0  0  0  0  0  0  0  0  0  0  0  0
    5.0495  -18.2875   24.1527 C   0  0  0  0  0  0  0  0  0  0  0  0
    6.0356  -17.1987   24.0812 C   0  0  0  0  0  0  0  0  0  0  0  0
    6.6131  -16.9460   22.9941 O   0  0  0  0  0  0  0  0  0  0  0  0
    6.8162  -12.3439   24.8043 C   0  0  0  0  0  0  0  0  0  0  0  0
    6.4959  -13.1617   26.0387 C   0  0  2  0  0  0  0  0  0  0  0  0
    6.2355  -12.2806   27.1862 C   0  0  0  0  0  0  0  0  0  0  0  0
    7.3214  -14.3715   26.2047 C   0  0  0  0  0  0  0  0  0  0  0  0
    7.4246  -15.3744   25.1526 C   0  0  2  0  0  0  0  0  0  0  0  0
    6.3900  -16.3946   25.1766 N   0  0  0  0  0  0  0  0  0  0  0  0
    8.7071  -16.0943   25.1093 C   0  0  0  0  0  0  0  0  0  0  0  0
    9.0291  -17.0702   25.8434 O   0  0  0  0  0  0  0  0  0  0  0  0
   13.2263  -18.0047   23.3067 N   0  0  0  0  0  0  0  0  0  0  0  0
   12.7769  -17.0257   22.3898 C   0  0  0  0  0  0  0  0  0  0  0  0
   13.4165  -16.9121   21.3146 O   0  0  0  0  0  0  0  0  0  0  0  0
   11.6107  -16.1588   22.6541 C   0  0  0  0  0  0  0  0  0  0  0  0
   10.9021  -16.5453   23.9059 C   0  0  2  0  0  0  0  0  0  0  0  0
    9.7470  -15.7211   24.1779 N   0  0  0  0  0  0  0  0  0  0  0  0
   11.7766  -16.4793   25.0954 C   0  0  0  0  0  0  0  0  0  0  0  0
   11.7414  -15.4891   25.8626 O   0  0  0  0  0  0  0  0  0  0  0  0
   12.6726  -17.4898   25.4290 O   0  0  0  0  0  0  0  0  0  0  0  0
  1  2  1  0
  2  3  1  0
  3  4  2  0
  3 10  1  0
  6  5  1  6
  6  7  1  0
  8  6  1  0
  9  8  1  1
  9 11  1  0
 10  9  1  0
 11 12  2  0
 11 18  1  0
 13 14  1  0
 14 16  1  0
 14 15  2  0
 17 16  1  6
 17 19  1  0
 18 17  1  0
 19 21  1  0
 20 19  2  0
M  END
$$$$
