GLN.pdb
     RDKit          3D

 21 20  0  0  1  0  0  0  0  0999 V2000
    5.8785  -18.2568   22.5398 N   0  0  0  0  0  0  0  0  0  0  0  0
    5.7999  -17.5689   23.8036 C   0  0  0  0  0  0  0  0  0  0  0  0
    6.8602  -16.5620   23.9626 C   0  0  0  0  0  0  0  0  0  0  0  0
    7.7469  -16.4404   23.0806 O   0  0  0  0  0  0  0  0  0  0  0  0
    6.7598  -11.8038   24.6131 C   0  0  0  0  0  0  0  0  0  0  0  0
    6.5346  -12.6539   25.8467 C   0  0  2  0  0  0  0  0  0  0  0  0
    5.9342  -11.8513   26.9220 C   0  0  0  0  0  0  0  0  0  0  0  0
    7.6240  -13.6002   26.1472 C   0  0  0  0  0  0  0  0  0  0  0  0
    7.9753  -14.6752   25.2283 C   0  0  2  0  0  0  0  0  0  0  0  0
    6.9559  -15.6981   25.0656 N   0  0  0  0  0  0  0  0  0  0  0  0
    9.2197  -15.3877   25.5582 C   0  0  0  0  0  0  0  0  0  0  0  0
   10.3393  -14.8487   25.7841 O   0  0  0  0  0  0  0  0  0  0  0  0
   11.9213  -20.0773   27.9026 N   0  0  0  0  0  0  0  0  0  0  0  0
   11.4451  -19.7197   26.6195 C   0  0  0  0  0  0  0  0  0  0  0  0
   12.1334  -20.0807   25.6325 O   0  0  0  0  0  0  0  0  0  0  0  0
   10.1978  -18.9560   26.4142 C   0  0  0  0  0  0  0  0  0  0  0  0
   10.4648  -17.5754   25.9231 C   0  0  2  0  0  0  0  0  0  0  0  0
    9.2574  -16.8291   25.6533 N   0  0  0  0  0  0  0  0  0  0  0  0
   11.2741  -17.5604   24.6867 C   0  0  0  0  0  0  0  0  0  0  0  0
   10.7347  -17.7119   23.5657 O   0  0  0  0  0  0  0  0  0  0  0  0
   12.6536  -17.3812   24.6910 O   0  0  0  0  0  0  0  0  0  0  0  0
  1  2  1  0
  2  3  1  0
  3  4  2  0
  3 10  1  0
  6  5  1  6
  6  7  1  0
  8  6  1  0
  9  8  1  1
  9 11  1  0
 10  9  1  0
 11 12  2  0
 11 18  1  0
 13 14  1  0
 14 16  1  0
 14 15  2  0
 17 16  1  6
 17 19  1  0
 18 17  1  0
 19 21  1  0
 20 19  2  0
M  END
$$$$
