GLN.pdb
     RDKit          3D

 21 20  0  0  1  0  0  0  0  0999 V2000
    6.2101  -17.5359   21.7073 N   0  0  0  0  0  0  0  0  0  0  0  0
    5.9973  -17.2179   23.0967 C   0  0  0  0  0  0  0  0  0  0  0  0
    7.0527  -16.3516   23.6432 C   0  0  0  0  0  0  0  0  0  0  0  0
    8.1088  -16.1612   22.9894 O   0  0  0  0  0  0  0  0  0  0  0  0
    7.5408  -11.8301   24.7138 C   0  0  0  0  0  0  0  0  0  0  0  0
    6.7763  -12.6086   25.7647 C   0  0  2  0  0  0  0  0  0  0  0  0
    6.0641  -11.6924   26.6670 C   0  0  0  0  0  0  0  0  0  0  0  0
    7.4948  -13.7753   26.3080 C   0  0  0  0  0  0  0  0  0  0  0  0
    7.9898  -14.8373   25.4416 C   0  0  2  0  0  0  0  0  0  0  0  0
    6.9621  -15.7006   24.8842 N   0  0  0  0  0  0  0  0  0  0  0  0
    8.9803  -15.7303   26.0632 C   0  0  0  0  0  0  0  0  0  0  0  0
   10.0059  -15.3619   26.7015 O   0  0  0  0  0  0  0  0  0  0  0  0
    7.0525  -19.7669   27.8133 N   0  0  0  0  0  0  0  0  0  0  0  0
    8.4260  -19.4427   27.9105 C   0  0  0  0  0  0  0  0  0  0  0  0
    8.8649  -19.1462   29.0496 O   0  0  0  0  0  0  0  0  0  0  0  0
    9.3318  -19.4433   26.7439 C   0  0  0  0  0  0  0  0  0  0  0  0
    9.8644  -18.0833   26.4521 C   0  0  2  0  0  0  0  0  0  0  0  0
    8.8485  -17.1673   25.9869 N   0  0  0  0  0  0  0  0  0  0  0  0
   10.9366  -18.1008   25.4352 C   0  0  0  0  0  0  0  0  0  0  0  0
   12.1232  -18.3406   25.7591 O   0  0  0  0  0  0  0  0  0  0  0  0
   10.6999  -17.8575   24.0861 O   0  0  0  0  0  0  0  0  0  0  0  0
  1  2  1  0
  2  3  1  0
  3  4  2  0
  3 10  1  0
  6  5  1  1
  6  7  1  0
  8  6  1  0
  9  8  1  1
  9 11  1  0
 10  9  1  0
 11 12  2  0
 11 18  1  0
 13 14  1  0
 14 16  1  0
 14 15  2  0
 17 16  1  6
 17 19  1  0
 18 17  1  0
 19 21  1  0
 20 19  2  0
M  END
$$$$
