GLN.pdb
     RDKit          3D

 21 20  0  0  1  0  0  0  0  0999 V2000
    7.3003  -15.9009   20.0836 N   0  0  0  0  0  0  0  0  0  0  0  0
    6.9597  -16.2388   21.4425 C   0  0  0  0  0  0  0  0  0  0  0  0
    7.5595  -15.3164   22.4184 C   0  0  0  0  0  0  0  0  0  0  0  0
    8.5351  -14.5981   22.0850 O   0  0  0  0  0  0  0  0  0  0  0  0
    7.3961  -11.4078   25.4646 C   0  0  0  0  0  0  0  0  0  0  0  0
    6.3377  -12.4064   25.8862 C   0  0  2  0  0  0  0  0  0  0  0  0
    5.6512  -11.9459   27.1018 C   0  0  0  0  0  0  0  0  0  0  0  0
    6.7370  -13.8186   25.7496 C   0  0  0  0  0  0  0  0  0  0  0  0
    7.6641  -14.2519   24.7122 C   0  0  2  0  0  0  0  0  0  0  0  0
    7.1053  -15.1762   23.7398 N   0  0  0  0  0  0  0  0  0  0  0  0
    8.8983  -14.8796   25.2099 C   0  0  0  0  0  0  0  0  0  0  0  0
    9.6814  -14.3855   26.0687 O   0  0  0  0  0  0  0  0  0  0  0  0
   11.4175  -18.3579   27.8051 N   0  0  0  0  0  0  0  0  0  0  0  0
   10.3007  -18.4565   26.9425 C   0  0  0  0  0  0  0  0  0  0  0  0
    9.1952  -18.7400   27.4676 O   0  0  0  0  0  0  0  0  0  0  0  0
   10.3957  -18.2418   25.4844 C   0  0  0  0  0  0  0  0  0  0  0  0
   10.5630  -16.8016   25.1435 C   0  0  2  0  0  0  0  0  0  0  0  0
    9.3296  -16.1727   24.7302 N   0  0  0  0  0  0  0  0  0  0  0  0
   11.5478  -16.5857   24.0630 C   0  0  0  0  0  0  0  0  0  0  0  0
   11.2175  -16.7099   22.8605 O   0  0  0  0  0  0  0  0  0  0  0  0
   12.8724  -16.2391   24.3088 O   0  0  0  0  0  0  0  0  0  0  0  0
  1  2  1  0
  2  3  1  0
  3  4  2  0
  3 10  1  0
  6  5  1  1
  6  7  1  0
  8  6  1  0
  9  8  1  1
  9 11  1  0
 10  9  1  0
 11 12  2  0
 11 18  1  0
 13 14  1  0
 14 16  1  0
 14 15  2  0
 17 16  1  6
 17 19  1  0
 18 17  1  0
 19 21  1  0
 20 19  2  0
M  END
$$$$
