GLN.pdb
     RDKit          3D

 21 20  0  0  1  0  0  0  0  0999 V2000
    7.5288  -19.0167   18.1476 N   0  0  0  0  0  0  0  0  0  0  0  0
    7.7146  -18.9657   19.5758 C   0  0  0  0  0  0  0  0  0  0  0  0
    8.6068  -17.8715   19.9879 C   0  0  0  0  0  0  0  0  0  0  0  0
    9.8141  -17.8818   19.6397 O   0  0  0  0  0  0  0  0  0  0  0  0
    8.2632  -13.3507   19.3942 C   0  0  0  0  0  0  0  0  0  0  0  0
    7.5604  -13.7270   20.6824 C   0  0  2  0  0  0  0  0  0  0  0  0
    6.7266  -12.6135   21.1578 C   0  0  0  0  0  0  0  0  0  0  0  0
    8.3878  -14.4923   21.6323 C   0  0  0  0  0  0  0  0  0  0  0  0
    9.0683  -15.7181   21.2350 C   0  0  2  0  0  0  0  0  0  0  0  0
    8.1927  -16.7799   20.7683 N   0  0  0  0  0  0  0  0  0  0  0  0
    9.9183  -16.3176   22.2757 C   0  0  0  0  0  0  0  0  0  0  0  0
    9.5130  -16.8002   23.3701 O   0  0  0  0  0  0  0  0  0  0  0  0
   11.8627  -19.7062   20.9058 N   0  0  0  0  0  0  0  0  0  0  0  0
   12.1133  -19.2984   22.2369 C   0  0  0  0  0  0  0  0  0  0  0  0
   11.5495  -19.9502   23.1509 O   0  0  0  0  0  0  0  0  0  0  0  0
   12.9934  -18.1606   22.5719 C   0  0  0  0  0  0  0  0  0  0  0  0
   12.2252  -16.9998   23.1019 C   0  0  2  0  0  0  0  0  0  0  0  0
   11.3521  -16.4039   22.1170 N   0  0  0  0  0  0  0  0  0  0  0  0
   13.1022  -15.9269   23.6156 C   0  0  0  0  0  0  0  0  0  0  0  0
   13.7909  -16.1013   24.6479 O   0  0  0  0  0  0  0  0  0  0  0  0
   13.2144  -14.6852   22.9985 O   0  0  0  0  0  0  0  0  0  0  0  0
  1  2  1  0
  2  3  1  0
  3  4  2  0
  3 10  1  0
  6  5  1  6
  6  7  1  0
  8  6  1  0
  9  8  1  1
  9 11  1  0
 10  9  1  0
 11 12  2  0
 11 18  1  0
 13 14  1  0
 14 16  1  0
 14 15  2  0
 17 16  1  6
 17 19  1  0
 18 17  1  0
 19 21  1  0
 20 19  2  0
M  END
$$$$
