GLN.pdb
     RDKit          3D

 21 20  0  0  1  0  0  0  0  0999 V2000
    5.0364  -17.8209   21.6303 N   0  0  0  0  0  0  0  0  0  0  0  0
    5.1524  -17.6519   23.0567 C   0  0  0  0  0  0  0  0  0  0  0  0
    6.2367  -16.7298   23.4273 C   0  0  0  0  0  0  0  0  0  0  0  0
    7.1981  -16.5435   22.6398 O   0  0  0  0  0  0  0  0  0  0  0  0
    7.1419  -12.2876   24.6463 C   0  0  0  0  0  0  0  0  0  0  0  0
    6.5142  -13.0081   25.8218 C   0  0  2  0  0  0  0  0  0  0  0  0
    6.1705  -12.0540   26.8861 C   0  0  0  0  0  0  0  0  0  0  0  0
    7.1421  -14.2988   26.1571 C   0  0  0  0  0  0  0  0  0  0  0  0
    7.4338  -15.2936   25.1330 C   0  0  2  0  0  0  0  0  0  0  0  0
    6.2760  -16.0191   24.6378 N   0  0  0  0  0  0  0  0  0  0  0  0
    8.4179  -16.3144   25.5262 C   0  0  0  0  0  0  0  0  0  0  0  0
    8.1772  -17.3396   26.2233 O   0  0  0  0  0  0  0  0  0  0  0  0
   11.8937  -16.0504   22.1788 N   0  0  0  0  0  0  0  0  0  0  0  0
   11.5068  -17.1110   23.0312 C   0  0  0  0  0  0  0  0  0  0  0  0
   10.7668  -17.9994   22.5399 O   0  0  0  0  0  0  0  0  0  0  0  0
   11.9363  -17.2001   24.4415 C   0  0  0  0  0  0  0  0  0  0  0  0
   10.7764  -17.2546   25.3742 C   0  0  2  0  0  0  0  0  0  0  0  0
    9.8027  -16.2167   25.1250 N   0  0  0  0  0  0  0  0  0  0  0  0
   11.1825  -17.1426   26.7907 C   0  0  0  0  0  0  0  0  0  0  0  0
   12.0265  -17.9294   27.2796 O   0  0  0  0  0  0  0  0  0  0  0  0
   10.6645  -16.1784   27.6493 O   0  0  0  0  0  0  0  0  0  0  0  0
  1  2  1  0
  2  3  1  0
  3  4  2  0
  3 10  1  0
  6  5  1  6
  6  7  1  0
  8  6  1  0
  9  8  1  1
  9 11  1  0
 10  9  1  0
 11 12  2  0
 11 18  1  0
 13 14  1  0
 14 16  1  0
 14 15  2  0
 17 16  1  6
 17 19  1  0
 18 17  1  0
 19 21  1  0
 20 19  2  0
M  END
$$$$
