THG.pdb
     RDKit          3D

 22 22  0  0  1  0  0  0  0  0999 V2000
   11.5419  -14.4390   19.1779 C   0  0  0  0  0  0  0  0  0  0  0  0
   10.5308  -13.4826   18.6272 C   0  0  1  0  0  0  0  0  0  0  0  0
   10.7269  -13.1786   17.2966 O   0  0  0  0  0  0  0  0  0  0  0  0
    9.1306  -14.0185   18.8139 C   0  0  2  0  0  0  0  0  0  0  0  0
    8.1361  -13.1003   18.2937 N   0  0  0  0  0  0  0  0  0  0  0  0
    8.8072  -14.2669   20.2411 C   0  0  0  0  0  0  0  0  0  0  0  0
    8.2505  -13.3810   20.9382 O   0  0  0  0  0  0  0  0  0  0  0  0
    9.1128  -15.5085   20.8704 N   0  0  0  0  0  0  0  0  0  0  0  0
    8.7537  -15.7887   22.2523 C   0  0  1  0  0  0  0  0  0  0  0  0
    7.9658  -17.0665   22.3726 C   0  0  0  0  0  0  0  0  0  0  0  0
    6.6062  -16.9908   21.8105 C   0  0  0  0  0  0  0  0  0  0  0  0
    5.9499  -15.8280   21.5137 C   0  0  0  0  0  0  0  0  0  0  0  0
    4.7129  -16.1083   21.0101 N   0  0  0  0  0  0  0  0  0  0  0  0
    4.6426  -17.4535   21.0116 C   0  0  0  0  0  0  0  0  0  0  0  0
    5.7742  -17.9933   21.4902 N   0  0  0  0  0  0  0  0  0  0  0  0
   10.0188  -15.9750   23.0018 C   0  0  0  0  0  0  0  0  0  0  0  0
   10.0442  -16.1873   24.2459 O   0  0  0  0  0  0  0  0  0  0  0  0
   11.2690  -15.9232   22.3530 N   0  0  0  0  0  0  0  0  0  0  0  0
   12.5329  -16.0211   23.0618 C   0  0  0  0  0  0  0  0  0  0  0  0
   13.6753  -16.1166   22.1483 C   0  0  0  0  0  0  0  0  0  0  0  0
   13.4578  -16.1916   20.9205 O   0  0  0  0  0  0  0  0  0  0  0  0
   14.9555  -16.1203   22.6786 O   0  0  0  0  0  0  0  0  0  0  0  0
  2  1  1  6
  2  4  1  0
  2  3  1  0
  4  6  1  0
  4  5  1  1
  6  7  2  0
  8  9  1  0
  8  6  1  0
  9 16  1  0
  9 10  1  6
 11 10  1  0
 11 15  1  0
 12 13  1  0
 12 11  2  0
 13 14  1  0
 14 15  2  0
 16 17  2  0
 18 16  1  0
 18 19  1  0
 19 20  1  0
 20 21  2  0
 20 22  1  0
M  END
$$$$
