THG.pdb
     RDKit          3D

 22 22  0  0  1  0  0  0  0  0999 V2000
    9.4371  -19.9846   16.8542 C   0  0  0  0  0  0  0  0  0  0  0  0
    9.8103  -18.6027   17.2919 C   0  0  1  0  0  0  0  0  0  0  0  0
    8.8214  -17.6679   17.0694 O   0  0  0  0  0  0  0  0  0  0  0  0
   10.1879  -18.5889   18.7547 C   0  0  2  0  0  0  0  0  0  0  0  0
    9.0732  -18.9806   19.5953 N   0  0  0  0  0  0  0  0  0  0  0  0
   10.6411  -17.2500   19.2077 C   0  0  0  0  0  0  0  0  0  0  0  0
   11.5841  -16.6582   18.6236 O   0  0  0  0  0  0  0  0  0  0  0  0
   10.0296  -16.5895   20.3127 N   0  0  0  0  0  0  0  0  0  0  0  0
   10.4759  -15.2873   20.7840 C   0  0  1  0  0  0  0  0  0  0  0  0
    9.3194  -14.3440   20.9856 C   0  0  0  0  0  0  0  0  0  0  0  0
    8.7308  -13.8368   19.7341 C   0  0  0  0  0  0  0  0  0  0  0  0
    9.2340  -14.0744   18.4846 C   0  0  0  0  0  0  0  0  0  0  0  0
    8.4543  -13.4633   17.5459 N   0  0  0  0  0  0  0  0  0  0  0  0
    7.4809  -12.8591   18.2543 C   0  0  0  0  0  0  0  0  0  0  0  0
    7.6374  -13.0769   19.5692 N   0  0  0  0  0  0  0  0  0  0  0  0
   11.1131  -15.4974   22.1057 C   0  0  0  0  0  0  0  0  0  0  0  0
   10.4428  -15.6419   23.1656 O   0  0  0  0  0  0  0  0  0  0  0  0
   12.5149  -15.5463   22.2435 N   0  0  0  0  0  0  0  0  0  0  0  0
   13.1774  -15.7694   23.5166 C   0  0  0  0  0  0  0  0  0  0  0  0
   14.6354  -15.8323   23.3797 C   0  0  0  0  0  0  0  0  0  0  0  0
   15.3313  -15.9419   24.4113 O   0  0  0  0  0  0  0  0  0  0  0  0
   15.1903  -15.7681   22.1115 O   0  0  0  0  0  0  0  0  0  0  0  0
  2  1  1  1
  2  4  1  0
  2  3  1  0
  4  6  1  0
  4  5  1  1
  6  7  2  0
  8  9  1  0
  8  6  1  0
  9 16  1  0
  9 10  1  1
 11 10  1  0
 11 15  1  0
 12 13  1  0
 12 11  2  0
 13 14  1  0
 14 15  2  0
 16 17  2  0
 18 16  1  0
 18 19  1  0
 19 20  1  0
 20 21  2  0
 20 22  1  0
M  END
$$$$
