THG.pdb
     RDKit          3D

 22 22  0  0  1  0  0  0  0  0999 V2000
   11.8421  -18.6600   18.3598 C   0  0  0  0  0  0  0  0  0  0  0  0
   11.5948  -18.3538   16.9157 C   0  0  1  0  0  0  0  0  0  0  0  0
   11.1000  -19.4247   16.2018 O   0  0  0  0  0  0  0  0  0  0  0  0
   10.6525  -17.1817   16.7714 C   0  0  2  0  0  0  0  0  0  0  0  0
   10.3329  -16.9245   15.3806 N   0  0  0  0  0  0  0  0  0  0  0  0
   11.2159  -15.9315   17.3396 C   0  0  0  0  0  0  0  0  0  0  0  0
   11.7899  -15.0909   16.6016 O   0  0  0  0  0  0  0  0  0  0  0  0
   11.1285  -15.6386   18.7316 N   0  0  0  0  0  0  0  0  0  0  0  0
   11.5854  -14.3753   19.2903 C   0  0  1  0  0  0  0  0  0  0  0  0
   10.5622  -13.7773   20.2195 C   0  0  0  0  0  0  0  0  0  0  0  0
    9.2780  -13.4549   19.5738 C   0  0  0  0  0  0  0  0  0  0  0  0
    9.1497  -12.8784   18.3402 C   0  0  0  0  0  0  0  0  0  0  0  0
    7.8288  -12.7156   18.0385 N   0  0  0  0  0  0  0  0  0  0  0  0
    7.1734  -13.2031   19.1096 C   0  0  0  0  0  0  0  0  0  0  0  0
    8.0341  -13.6496   20.0374 N   0  0  0  0  0  0  0  0  0  0  0  0
   12.7971  -14.6669   20.0927 C   0  0  0  0  0  0  0  0  0  0  0  0
   13.4907  -13.7575   20.6272 O   0  0  0  0  0  0  0  0  0  0  0  0
   13.2379  -15.9895   20.2995 N   0  0  0  0  0  0  0  0  0  0  0  0
   14.3888  -16.3206   21.1213 C   0  0  0  0  0  0  0  0  0  0  0  0
   14.0079  -16.6803   22.4902 C   0  0  0  0  0  0  0  0  0  0  0  0
   12.7979  -16.6667   22.8002 O   0  0  0  0  0  0  0  0  0  0  0  0
   15.0030  -17.0226   23.3919 O   0  0  0  0  0  0  0  0  0  0  0  0
  2  1  1  1
  2  4  1  0
  2  3  1  0
  4  6  1  0
  4  5  1  6
  6  7  2  0
  8  9  1  0
  8  6  1  0
  9 16  1  0
  9 10  1  1
 11 10  1  0
 11 15  1  0
 12 13  1  0
 12 11  2  0
 13 14  1  0
 14 15  2  0
 16 17  2  0
 18 16  1  0
 18 19  1  0
 19 20  1  0
 20 21  2  0
 20 22  1  0
M  END
$$$$
