THG.pdb
     RDKit          3D

 22 22  0  0  1  0  0  0  0  0999 V2000
   10.9696  -19.7019   20.4338 C   0  0  0  0  0  0  0  0  0  0  0  0
   11.4732  -18.9000   19.2746 C   0  0  1  0  0  0  0  0  0  0  0  0
   11.7889  -19.6642   18.1711 O   0  0  0  0  0  0  0  0  0  0  0  0
   10.4677  -17.8445   18.8775 C   0  0  2  0  0  0  0  0  0  0  0  0
   10.6852  -17.3875   17.5187 N   0  0  0  0  0  0  0  0  0  0  0  0
   10.5191  -16.6547   19.7634 C   0  0  0  0  0  0  0  0  0  0  0  0
   11.3353  -15.7240   19.5440 O   0  0  0  0  0  0  0  0  0  0  0  0
    9.6526  -16.5229   20.8872 N   0  0  0  0  0  0  0  0  0  0  0  0
    9.6580  -15.3433   21.7389 C   0  0  1  0  0  0  0  0  0  0  0  0
    8.3243  -14.6440   21.7268 C   0  0  0  0  0  0  0  0  0  0  0  0
    7.9396  -14.1039   20.4113 C   0  0  0  0  0  0  0  0  0  0  0  0
    6.8277  -14.4809   19.7097 C   0  0  0  0  0  0  0  0  0  0  0  0
    6.7648  -13.7917   18.5334 N   0  0  0  0  0  0  0  0  0  0  0  0
    7.8545  -12.9999   18.5453 C   0  0  0  0  0  0  0  0  0  0  0  0
    8.5668  -13.1794   19.6683 N   0  0  0  0  0  0  0  0  0  0  0  0
    9.9029  -15.8081   23.1250 C   0  0  0  0  0  0  0  0  0  0  0  0
    9.9231  -15.0193   24.1104 O   0  0  0  0  0  0  0  0  0  0  0  0
   10.1279  -17.1695   23.4120 N   0  0  0  0  0  0  0  0  0  0  0  0
   10.4275  -17.6578   24.7467 C   0  0  0  0  0  0  0  0  0  0  0  0
   11.8691  -17.7776   24.9830 C   0  0  0  0  0  0  0  0  0  0  0  0
   12.6559  -17.4784   24.0600 O   0  0  0  0  0  0  0  0  0  0  0  0
   12.3083  -18.2184   26.2212 O   0  0  0  0  0  0  0  0  0  0  0  0
  2  1  1  1
  2  4  1  0
  2  3  1  0
  4  6  1  0
  4  5  1  6
  6  7  2  0
  8  9  1  0
  8  6  1  0
  9 16  1  0
  9 10  1  1
 11 10  1  0
 11 15  1  0
 12 13  1  0
 12 11  2  0
 13 14  1  0
 14 15  2  0
 16 17  2  0
 18 16  1  0
 18 19  1  0
 19 20  1  0
 20 21  2  0
 20 22  1  0
M  END
$$$$
