THG.pdb
     RDKit          3D

 22 22  0  0  1  0  0  0  0  0999 V2000
   12.8423  -18.6499   18.3839 C   0  0  0  0  0  0  0  0  0  0  0  0
   11.3672  -18.8932   18.4575 C   0  0  1  0  0  0  0  0  0  0  0  0
   10.9422  -19.3347   19.6928 O   0  0  0  0  0  0  0  0  0  0  0  0
   10.6003  -17.6462   18.0840 C   0  0  2  0  0  0  0  0  0  0  0  0
   10.9389  -17.1937   16.7486 N   0  0  0  0  0  0  0  0  0  0  0  0
   10.8623  -16.5220   19.0172 C   0  0  0  0  0  0  0  0  0  0  0  0
   11.7848  -15.6987   18.7898 O   0  0  0  0  0  0  0  0  0  0  0  0
   10.0847  -16.3344   20.1967 N   0  0  0  0  0  0  0  0  0  0  0  0
   10.2897  -15.2058   21.0917 C   0  0  1  0  0  0  0  0  0  0  0  0
    9.0087  -14.4534   21.3383 C   0  0  0  0  0  0  0  0  0  0  0  0
    8.3758  -13.9255   20.1173 C   0  0  0  0  0  0  0  0  0  0  0  0
    8.9192  -12.9623   19.3126 C   0  0  0  0  0  0  0  0  0  0  0  0
    8.0800  -12.7016   18.2683 N   0  0  0  0  0  0  0  0  0  0  0  0
    7.0304  -13.5231   18.4632 C   0  0  0  0  0  0  0  0  0  0  0  0
    7.1977  -14.2624   19.5706 N   0  0  0  0  0  0  0  0  0  0  0  0
   10.7381  -15.7573   22.3924 C   0  0  0  0  0  0  0  0  0  0  0  0
   10.9709  -15.0256   23.3944 O   0  0  0  0  0  0  0  0  0  0  0  0
   10.9283  -17.1419   22.5744 N   0  0  0  0  0  0  0  0  0  0  0  0
   11.3233  -17.7261   23.8441 C   0  0  0  0  0  0  0  0  0  0  0  0
   12.7429  -18.0902   23.8696 C   0  0  0  0  0  0  0  0  0  0  0  0
   13.5958  -17.1953   23.6903 O   0  0  0  0  0  0  0  0  0  0  0  0
   13.0888  -19.4137   24.0915 O   0  0  0  0  0  0  0  0  0  0  0  0
  2  1  1  1
  2  4  1  0
  2  3  1  0
  4  6  1  0
  4  5  1  6
  6  7  2  0
  8  9  1  0
  8  6  1  0
  9 16  1  0
  9 10  1  1
 11 10  1  0
 11 15  1  0
 12 13  1  0
 12 11  2  0
 13 14  1  0
 14 15  2  0
 16 17  2  0
 18 16  1  0
 18 19  1  0
 19 20  1  0
 20 21  2  0
 20 22  1  0
M  END
$$$$
