THG.pdb
     RDKit          3D

 22 22  0  0  1  0  0  0  0  0999 V2000
    6.0102  -20.4964   20.2804 C   0  0  0  0  0  0  0  0  0  0  0  0
    7.1874  -19.5970   20.4939 C   0  0  1  0  0  0  0  0  0  0  0  0
    8.4010  -20.2199   20.2924 O   0  0  0  0  0  0  0  0  0  0  0  0
    7.0989  -18.3799   19.6030 C   0  0  2  0  0  0  0  0  0  0  0  0
    7.1201  -18.7454   18.1999 N   0  0  0  0  0  0  0  0  0  0  0  0
    8.2148  -17.4290   19.8345 C   0  0  0  0  0  0  0  0  0  0  0  0
    9.2123  -17.4090   19.0696 O   0  0  0  0  0  0  0  0  0  0  0  0
    8.1982  -16.5098   20.9236 N   0  0  0  0  0  0  0  0  0  0  0  0
    9.2297  -15.4997   21.1041 C   0  0  1  0  0  0  0  0  0  0  0  0
    8.6776  -14.1079   20.9431 C   0  0  0  0  0  0  0  0  0  0  0  0
    8.2999  -13.7662   19.5608 C   0  0  0  0  0  0  0  0  0  0  0  0
    7.0685  -13.3077   19.1808 C   0  0  0  0  0  0  0  0  0  0  0  0
    7.0501  -13.0877   17.8340 N   0  0  0  0  0  0  0  0  0  0  0  0
    8.2872  -13.4217   17.4185 C   0  0  0  0  0  0  0  0  0  0  0  0
    9.0457  -13.8304   18.4474 N   0  0  0  0  0  0  0  0  0  0  0  0
    9.7218  -15.6237   22.4968 C   0  0  0  0  0  0  0  0  0  0  0  0
    8.9497  -15.5783   23.4946 O   0  0  0  0  0  0  0  0  0  0  0  0
   11.0918  -15.8002   22.7766 N   0  0  0  0  0  0  0  0  0  0  0  0
   11.6013  -16.0416   24.1151 C   0  0  0  0  0  0  0  0  0  0  0  0
   13.0651  -16.1097   24.1477 C   0  0  0  0  0  0  0  0  0  0  0  0
   13.6961  -15.9856   23.0768 O   0  0  0  0  0  0  0  0  0  0  0  0
   13.6972  -16.3093   25.3646 O   0  0  0  0  0  0  0  0  0  0  0  0
  2  1  1  6
  2  4  1  0
  2  3  1  0
  4  6  1  0
  4  5  1  6
  6  7  2  0
  8  9  1  0
  8  6  1  0
  9 16  1  0
  9 10  1  1
 11 10  1  0
 11 15  1  0
 12 13  1  0
 12 11  2  0
 13 14  1  0
 14 15  2  0
 16 17  2  0
 18 16  1  0
 18 19  1  0
 19 20  1  0
 20 21  2  0
 20 22  1  0
M  END
$$$$
