THG.pdb
     RDKit          3D

 22 22  0  0  1  0  0  0  0  0999 V2000
    7.2722  -14.4220   17.6739 C   0  0  0  0  0  0  0  0  0  0  0  0
    8.0071  -14.7302   18.9408 C   0  0  1  0  0  0  0  0  0  0  0  0
    9.3439  -15.0089   18.7490 O   0  0  0  0  0  0  0  0  0  0  0  0
    7.8725  -13.5936   19.9271 C   0  0  2  0  0  0  0  0  0  0  0  0
    8.3865  -12.3524   19.3814 N   0  0  0  0  0  0  0  0  0  0  0  0
    8.5966  -13.8586   21.1954 C   0  0  0  0  0  0  0  0  0  0  0  0
    9.7232  -13.3445   21.4126 O   0  0  0  0  0  0  0  0  0  0  0  0
    8.0472  -14.6987   22.2071 N   0  0  0  0  0  0  0  0  0  0  0  0
    8.7619  -15.0036   23.4372 C   0  0  1  0  0  0  0  0  0  0  0  0
    7.8155  -15.3242   24.5639 C   0  0  0  0  0  0  0  0  0  0  0  0
    7.1680  -14.1433   25.1608 C   0  0  0  0  0  0  0  0  0  0  0  0
    7.5516  -12.8493   24.9387 C   0  0  0  0  0  0  0  0  0  0  0  0
    6.7466  -11.9993   25.6401 N   0  0  0  0  0  0  0  0  0  0  0  0
    5.8793  -12.8054   26.2822 C   0  0  0  0  0  0  0  0  0  0  0  0
    6.1234  -14.0948   26.0014 N   0  0  0  0  0  0  0  0  0  0  0  0
    9.5732  -16.2172   23.1800 C   0  0  0  0  0  0  0  0  0  0  0  0
    9.1589  -17.1695   22.4623 O   0  0  0  0  0  0  0  0  0  0  0  0
   10.8615  -16.3673   23.7315 N   0  0  0  0  0  0  0  0  0  0  0  0
   11.7221  -17.4992   23.4351 C   0  0  0  0  0  0  0  0  0  0  0  0
   11.6228  -18.5523   24.4498 C   0  0  0  0  0  0  0  0  0  0  0  0
   10.6883  -18.5029   25.2772 O   0  0  0  0  0  0  0  0  0  0  0  0
   12.5687  -19.5651   24.4555 O   0  0  0  0  0  0  0  0  0  0  0  0
  2  1  1  6
  2  4  1  0
  2  3  1  0
  4  6  1  0
  4  5  1  6
  6  7  2  0
  8  9  1  0
  8  6  1  0
  9 16  1  0
  9 10  1  1
 11 10  1  0
 11 15  1  0
 12 13  1  0
 12 11  2  0
 13 14  1  0
 14 15  2  0
 16 17  2  0
 18 16  1  0
 18 19  1  0
 19 20  1  0
 20 21  2  0
 20 22  1  0
M  END
$$$$
