THG.pdb
     RDKit          3D

 22 22  0  0  1  0  0  0  0  0999 V2000
    7.8683  -21.3517   19.5570 C   0  0  0  0  0  0  0  0  0  0  0  0
    8.7632  -20.2492   20.0302 C   0  0  1  0  0  0  0  0  0  0  0  0
   10.0924  -20.6093   20.0996 O   0  0  0  0  0  0  0  0  0  0  0  0
    8.6233  -19.0309   19.1476 C   0  0  2  0  0  0  0  0  0  0  0  0
    9.1313  -19.2804   17.8125 N   0  0  0  0  0  0  0  0  0  0  0  0
    9.3489  -17.8551   19.6899 C   0  0  0  0  0  0  0  0  0  0  0  0
   10.4766  -17.5307   19.2385 O   0  0  0  0  0  0  0  0  0  0  0  0
    8.7997  -17.0556   20.7341 N   0  0  0  0  0  0  0  0  0  0  0  0
    9.4916  -15.8926   21.2685 C   0  0  1  0  0  0  0  0  0  0  0  0
    8.5516  -14.7343   21.4753 C   0  0  0  0  0  0  0  0  0  0  0  0
    8.1136  -14.0841   20.2280 C   0  0  0  0  0  0  0  0  0  0  0  0
    8.5880  -14.3902   18.9822 C   0  0  0  0  0  0  0  0  0  0  0  0
    7.9769  -13.6064   18.0469 N   0  0  0  0  0  0  0  0  0  0  0  0
    7.1328  -12.8303   18.7537 C   0  0  0  0  0  0  0  0  0  0  0  0
    7.2069  -13.1089   20.0643 N   0  0  0  0  0  0  0  0  0  0  0  0
   10.0238  -16.2752   22.5979 C   0  0  0  0  0  0  0  0  0  0  0  0
    9.2827  -16.6987   23.5280 O   0  0  0  0  0  0  0  0  0  0  0  0
   11.3994  -16.1832   22.8904 N   0  0  0  0  0  0  0  0  0  0  0  0
   11.9683  -16.6018   24.1595 C   0  0  0  0  0  0  0  0  0  0  0  0
   13.3970  -16.2893   24.2571 C   0  0  0  0  0  0  0  0  0  0  0  0
   13.9776  -15.8149   23.2580 O   0  0  0  0  0  0  0  0  0  0  0  0
   14.0530  -16.5310   25.4536 O   0  0  0  0  0  0  0  0  0  0  0  0
  2  1  1  6
  2  4  1  0
  2  3  1  0
  4  6  1  0
  4  5  1  6
  6  7  2  0
  8  9  1  0
  8  6  1  0
  9 16  1  0
  9 10  1  1
 11 10  1  0
 11 15  1  0
 12 13  1  0
 12 11  2  0
 13 14  1  0
 14 15  2  0
 16 17  2  0
 18 16  1  0
 18 19  1  0
 19 20  1  0
 20 21  2  0
 20 22  1  0
M  END
$$$$
