THG.pdb
     RDKit          3D

 22 22  0  0  1  0  0  0  0  0999 V2000
   11.1941  -20.0835   18.7597 C   0  0  0  0  0  0  0  0  0  0  0  0
   11.1245  -18.7950   19.5179 C   0  0  1  0  0  0  0  0  0  0  0  0
   12.3331  -18.4054   20.0554 O   0  0  0  0  0  0  0  0  0  0  0  0
   10.5896  -17.6869   18.6412 C   0  0  2  0  0  0  0  0  0  0  0  0
   11.4545  -17.4453   17.5027 N   0  0  0  0  0  0  0  0  0  0  0  0
   10.4482  -16.4048   19.3757 C   0  0  0  0  0  0  0  0  0  0  0  0
   11.2219  -15.4414   19.1432 O   0  0  0  0  0  0  0  0  0  0  0  0
    9.4387  -16.2183   20.3642 N   0  0  0  0  0  0  0  0  0  0  0  0
    9.2800  -14.9653   21.0865 C   0  0  1  0  0  0  0  0  0  0  0  0
    7.9904  -14.2764   20.7257 C   0  0  0  0  0  0  0  0  0  0  0  0
    7.8577  -13.9587   19.2934 C   0  0  0  0  0  0  0  0  0  0  0  0
    8.1504  -12.7450   18.7347 C   0  0  0  0  0  0  0  0  0  0  0  0
    7.9191  -12.7846   17.3903 N   0  0  0  0  0  0  0  0  0  0  0  0
    7.4849  -14.0383   17.1573 C   0  0  0  0  0  0  0  0  0  0  0  0
    7.4443  -14.7517   18.2933 N   0  0  0  0  0  0  0  0  0  0  0  0
    9.2162  -15.2995   22.5292 C   0  0  0  0  0  0  0  0  0  0  0  0
    9.1090  -14.4164   23.4250 O   0  0  0  0  0  0  0  0  0  0  0  0
    9.2732  -16.6354   22.9749 N   0  0  0  0  0  0  0  0  0  0  0  0
   10.5216  -17.3508   23.1729 C   0  0  0  0  0  0  0  0  0  0  0  0
   11.3581  -16.7318   24.2052 C   0  0  0  0  0  0  0  0  0  0  0  0
   12.2559  -15.9374   23.8540 O   0  0  0  0  0  0  0  0  0  0  0  0
   11.1236  -17.0493   25.5335 O   0  0  0  0  0  0  0  0  0  0  0  0
  2  1  1  6
  2  4  1  0
  2  3  1  0
  4  6  1  0
  4  5  1  6
  6  7  2  0
  8  9  1  0
  8  6  1  0
  9 16  1  0
  9 10  1  6
 11 10  1  0
 11 15  1  0
 12 13  1  0
 12 11  2  0
 13 14  1  0
 14 15  2  0
 16 17  2  0
 18 16  1  0
 18 19  1  0
 19 20  1  0
 20 21  2  0
 20 22  1  0
M  END
$$$$
