THG.pdb
     RDKit          3D

 22 22  0  0  1  0  0  0  0  0999 V2000
   10.9132  -19.9868   17.0215 C   0  0  0  0  0  0  0  0  0  0  0  0
   11.2756  -18.9043   17.9895 C   0  0  1  0  0  0  0  0  0  0  0  0
   12.5938  -18.9434   18.3923 O   0  0  0  0  0  0  0  0  0  0  0  0
   10.9736  -17.5432   17.4073 C   0  0  2  0  0  0  0  0  0  0  0  0
   11.6916  -17.3244   16.1666 N   0  0  0  0  0  0  0  0  0  0  0  0
   11.3343  -16.4408   18.3333 C   0  0  0  0  0  0  0  0  0  0  0  0
   12.2550  -15.6343   18.0459 O   0  0  0  0  0  0  0  0  0  0  0  0
   10.6565  -16.2557   19.5733 N   0  0  0  0  0  0  0  0  0  0  0  0
   10.9572  -15.1466   20.4657 C   0  0  1  0  0  0  0  0  0  0  0  0
    9.7050  -14.5554   21.0576 C   0  0  0  0  0  0  0  0  0  0  0  0
    8.8081  -13.9318   20.0693 C   0  0  0  0  0  0  0  0  0  0  0  0
    9.2227  -13.1551   19.0226 C   0  0  0  0  0  0  0  0  0  0  0  0
    8.1438  -12.7351   18.2999 N   0  0  0  0  0  0  0  0  0  0  0  0
    7.0823  -13.2727   18.9312 C   0  0  0  0  0  0  0  0  0  0  0  0
    7.4699  -13.9932   19.9950 N   0  0  0  0  0  0  0  0  0  0  0  0
   11.7616  -15.6935   21.5841 C   0  0  0  0  0  0  0  0  0  0  0  0
   12.2133  -14.9668   22.5123 O   0  0  0  0  0  0  0  0  0  0  0  0
   12.0643  -17.0676   21.6653 N   0  0  0  0  0  0  0  0  0  0  0  0
   12.9228  -17.6293   22.6934 C   0  0  0  0  0  0  0  0  0  0  0  0
   12.1633  -18.0927   23.8582 C   0  0  0  0  0  0  0  0  0  0  0  0
   10.9205  -17.9666   23.8538 O   0  0  0  0  0  0  0  0  0  0  0  0
   12.8502  -18.6542   24.9228 O   0  0  0  0  0  0  0  0  0  0  0  0
  2  1  1  6
  2  4  1  0
  2  3  1  0
  4  6  1  0
  4  5  1  6
  6  7  2  0
  8  9  1  0
  8  6  1  0
  9 16  1  0
  9 10  1  1
 11 10  1  0
 11 15  1  0
 12 13  1  0
 12 11  2  0
 13 14  1  0
 14 15  2  0
 16 17  2  0
 18 16  1  0
 18 19  1  0
 19 20  1  0
 20 21  2  0
 20 22  1  0
M  END
$$$$
