PVM.pdb
     RDKit          3D

 23 23  0  0  1  0  0  0  0  0999 V2000
    8.5581  -18.4897   17.9576 N   0  0  0  0  0  0  0  0  0  0  0  0
    9.2432  -19.6152   18.5964 C   0  0  0  0  0  0  0  0  0  0  0  0
    8.1371  -20.2310   19.4048 C   0  0  0  0  0  0  0  0  0  0  0  0
    7.2890  -19.0717   19.8674 C   0  0  0  0  0  0  0  0  0  0  0  0
    7.7115  -17.9290   19.0088 C   0  0  1  0  0  0  0  0  0  0  0  0
    8.4201  -16.8548   19.7500 C   0  0  0  0  0  0  0  0  0  0  0  0
    9.6905  -16.8624   19.8162 O   0  0  0  0  0  0  0  0  0  0  0  0
    8.2739  -13.2193   19.0131 C   0  0  0  0  0  0  0  0  0  0  0  0
    8.0863  -13.3807   20.4828 C   0  0  1  0  0  0  0  0  0  0  0  0
    6.6569  -13.1025   20.8183 C   0  0  0  0  0  0  0  0  0  0  0  0
    8.5100  -14.6850   21.0512 C   0  0  2  0  0  0  0  0  0  0  0  0
    7.7940  -15.7960   20.4064 N   0  0  0  0  0  0  0  0  0  0  0  0
    8.2272  -14.7198   22.5053 C   0  0  0  0  0  0  0  0  0  0  0  0
    7.0829  -15.1919   22.8899 O   0  0  0  0  0  0  0  0  0  0  0  0
    7.5992  -11.6038   27.6297 C   0  0  0  0  0  0  0  0  0  0  0  0
    6.0815  -12.4620   27.1179 S   0  0  0  0  0  0  0  0  0  0  0  0
    6.4389  -14.0067   26.2816 C   0  0  0  0  0  0  0  0  0  0  0  0
    7.1229  -13.9132   24.9715 C   0  0  0  0  0  0  0  0  0  0  0  0
    8.5409  -14.3227   24.9772 C   0  0  2  0  0  0  0  0  0  0  0  0
    9.0417  -14.3105   23.5642 N   0  0  0  0  0  0  0  0  0  0  0  0
    8.7792  -15.6827   25.4368 C   0  0  0  0  0  0  0  0  0  0  0  0
    8.3188  -16.7321   24.9228 O   0  0  0  0  0  0  0  0  0  0  0  0
    9.5984  -15.9401   26.5646 O   0  0  0  0  0  0  0  0  0  0  0  0
  1  5  1  0
  1  2  1  0
  2  3  1  0
  4  3  1  0
  5  4  1  0
  5  6  1  1
  7  6  2  0
  9  8  1  6
  9 10  1  0
  9 11  1  0
 11 12  1  6
 12  6  1  0
 13 20  1  0
 13 11  1  0
 14 13  2  0
 15 16  1  0
 16 17  1  0
 19 18  1  6
 18 17  1  0
 19 20  1  0
 19 21  1  0
 21 23  1  0
 22 21  2  0
M  END
$$$$
