PVM.pdb
     RDKit          3D

 23 23  0  0  1  0  0  0  0  0999 V2000
    9.2353  -14.9310   18.6267 N   0  0  0  0  0  0  0  0  0  0  0  0
    7.9543  -14.5059   18.0586 C   0  0  0  0  0  0  0  0  0  0  0  0
    8.1415  -13.0192   17.9540 C   0  0  0  0  0  0  0  0  0  0  0  0
    8.9792  -12.6382   19.1499 C   0  0  0  0  0  0  0  0  0  0  0  0
    9.5374  -13.9280   19.6460 C   0  0  1  0  0  0  0  0  0  0  0  0
    9.0087  -14.3373   20.9720 C   0  0  0  0  0  0  0  0  0  0  0  0
    9.0896  -13.5400   21.9601 O   0  0  0  0  0  0  0  0  0  0  0  0
    6.4254  -17.6384   23.7360 C   0  0  0  0  0  0  0  0  0  0  0  0
    6.9410  -17.0877   22.4507 C   0  0  1  0  0  0  0  0  0  0  0  0
    5.7798  -16.6950   21.5959 C   0  0  0  0  0  0  0  0  0  0  0  0
    7.9053  -15.9649   22.5666 C   0  0  2  0  0  0  0  0  0  0  0  0
    8.4076  -15.5657   21.2434 N   0  0  0  0  0  0  0  0  0  0  0  0
    9.0560  -16.3702   23.4075 C   0  0  0  0  0  0  0  0  0  0  0  0
    9.9665  -17.1198   22.8696 O   0  0  0  0  0  0  0  0  0  0  0  0
    9.2208  -13.3277   29.6640 C   0  0  0  0  0  0  0  0  0  0  0  0
   10.5693  -13.8209   28.5504 S   0  0  0  0  0  0  0  0  0  0  0  0
   10.0263  -15.0244   27.3380 C   0  0  0  0  0  0  0  0  0  0  0  0
   11.0288  -15.4667   26.3419 C   0  0  0  0  0  0  0  0  0  0  0  0
   10.5688  -16.5244   25.4210 C   0  0  2  0  0  0  0  0  0  0  0  0
    9.3200  -16.0488   24.7414 N   0  0  0  0  0  0  0  0  0  0  0  0
   10.1802  -17.7681   26.0688 C   0  0  0  0  0  0  0  0  0  0  0  0
   10.9568  -18.6224   26.5633 O   0  0  0  0  0  0  0  0  0  0  0  0
    8.8157  -18.1290   26.1992 O   0  0  0  0  0  0  0  0  0  0  0  0
  1  5  1  0
  1  2  1  0
  2  3  1  0
  4  3  1  0
  5  4  1  0
  5  6  1  1
  7  6  2  0
  9  8  1  1
  9 10  1  0
  9 11  1  0
 11 12  1  6
 12  6  1  0
 13 20  1  0
 13 11  1  0
 14 13  2  0
 15 16  1  0
 16 17  1  0
 19 18  1  1
 18 17  1  0
 19 20  1  0
 19 21  1  0
 21 23  1  0
 22 21  2  0
M  END
$$$$
