PVM.pdb
     RDKit          3D

 23 23  0  0  1  0  0  0  0  0999 V2000
    8.1296  -14.7389   18.2514 N   0  0  0  0  0  0  0  0  0  0  0  0
    7.0509  -13.7527   18.1605 C   0  0  0  0  0  0  0  0  0  0  0  0
    7.7413  -12.4978   18.6128 C   0  0  0  0  0  0  0  0  0  0  0  0
    8.7206  -12.9417   19.6717 C   0  0  0  0  0  0  0  0  0  0  0  0
    8.8167  -14.4192   19.5012 C   0  0  1  0  0  0  0  0  0  0  0  0
    8.2483  -15.1899   20.6362 C   0  0  0  0  0  0  0  0  0  0  0  0
    7.1435  -14.8315   21.1554 O   0  0  0  0  0  0  0  0  0  0  0  0
    8.4335  -19.1748   23.6771 C   0  0  0  0  0  0  0  0  0  0  0  0
    8.8110  -18.4035   22.4590 C   0  0  1  0  0  0  0  0  0  0  0  0
    8.3631  -19.1620   21.2519 C   0  0  0  0  0  0  0  0  0  0  0  0
    8.3256  -17.0017   22.4027 C   0  0  2  0  0  0  0  0  0  0  0  0
    8.8394  -16.3160   21.2075 N   0  0  0  0  0  0  0  0  0  0  0  0
    8.7765  -16.2609   23.6042 C   0  0  0  0  0  0  0  0  0  0  0  0
   10.0256  -15.9217   23.6749 O   0  0  0  0  0  0  0  0  0  0  0  0
    5.8137  -11.3663   26.2408 C   0  0  0  0  0  0  0  0  0  0  0  0
    7.1438  -11.5371   27.4672 S   0  0  0  0  0  0  0  0  0  0  0  0
    8.0956  -13.0348   27.2140 C   0  0  0  0  0  0  0  0  0  0  0  0
    7.7666  -13.8396   26.0154 C   0  0  0  0  0  0  0  0  0  0  0  0
    8.6377  -15.0098   25.7910 C   0  0  2  0  0  0  0  0  0  0  0  0
    8.0281  -15.8523   24.7111 N   0  0  0  0  0  0  0  0  0  0  0  0
    8.7561  -15.9072   26.9304 C   0  0  0  0  0  0  0  0  0  0  0  0
    9.5171  -15.7572   27.9181 O   0  0  0  0  0  0  0  0  0  0  0  0
    7.9743  -17.0863   27.0164 O   0  0  0  0  0  0  0  0  0  0  0  0
  1  5  1  0
  1  2  1  0
  2  3  1  0
  4  3  1  0
  5  4  1  0
  5  6  1  1
  7  6  2  0
  9  8  1  1
  9 10  1  0
  9 11  1  0
 11 12  1  6
 12  6  1  0
 13 20  1  0
 13 11  1  0
 14 13  2  0
 15 16  1  0
 16 17  1  0
 19 18  1  1
 18 17  1  0
 19 20  1  0
 19 21  1  0
 21 23  1  0
 22 21  2  0
M  END
$$$$
