PVM.pdb
     RDKit          3D

 23 23  0  0  1  0  0  0  0  0999 V2000
    6.9795  -15.9638   20.0780 N   0  0  0  0  0  0  0  0  0  0  0  0
    7.0253  -14.8444   19.1351 C   0  0  0  0  0  0  0  0  0  0  0  0
    8.2630  -15.1578   18.3440 C   0  0  0  0  0  0  0  0  0  0  0  0
    9.2168  -15.7873   19.3296 C   0  0  0  0  0  0  0  0  0  0  0  0
    8.3668  -16.1472   20.4999 C   0  0  1  0  0  0  0  0  0  0  0  0
    8.6637  -15.3548   21.7202 C   0  0  0  0  0  0  0  0  0  0  0  0
    9.7772  -14.7488   21.8271 O   0  0  0  0  0  0  0  0  0  0  0  0
    7.0930  -13.4239   26.0794 C   0  0  0  0  0  0  0  0  0  0  0  0
    6.8937  -14.0367   24.7355 C   0  0  1  0  0  0  0  0  0  0  0  0
    6.1069  -13.0905   23.8877 C   0  0  0  0  0  0  0  0  0  0  0  0
    8.1269  -14.4662   24.0293 C   0  0  2  0  0  0  0  0  0  0  0  0
    7.7980  -15.2089   22.8033 N   0  0  0  0  0  0  0  0  0  0  0  0
    8.9365  -15.3406   24.9098 C   0  0  0  0  0  0  0  0  0  0  0  0
    8.6264  -16.5979   24.9678 O   0  0  0  0  0  0  0  0  0  0  0  0
   11.2107  -13.7431   30.2966 C   0  0  0  0  0  0  0  0  0  0  0  0
   11.8159  -15.4560   30.3359 S   0  0  0  0  0  0  0  0  0  0  0  0
   12.0563  -16.1161   28.6868 C   0  0  0  0  0  0  0  0  0  0  0  0
   11.5512  -15.2979   27.5606 C   0  0  0  0  0  0  0  0  0  0  0  0
   10.6690  -16.0118   26.6169 C   0  0  2  0  0  0  0  0  0  0  0  0
   10.0288  -15.0019   25.7126 N   0  0  0  0  0  0  0  0  0  0  0  0
    9.5509  -16.7068   27.2369 C   0  0  0  0  0  0  0  0  0  0  0  0
    8.4519  -16.1977   27.5692 O   0  0  0  0  0  0  0  0  0  0  0  0
    9.6221  -18.0922   27.5278 O   0  0  0  0  0  0  0  0  0  0  0  0
  1  5  1  0
  1  2  1  0
  2  3  1  0
  4  3  1  0
  5  4  1  0
  5  6  1  1
  7  6  2  0
  9  8  1  1
  9 10  1  0
  9 11  1  0
 11 12  1  6
 12  6  1  0
 13 20  1  0
 13 11  1  0
 14 13  2  0
 15 16  1  0
 16 17  1  0
 19 18  1  1
 18 17  1  0
 19 20  1  0
 19 21  1  0
 21 23  1  0
 22 21  2  0
M  END
$$$$
