PVM.pdb
     RDKit          3D

 23 23  0  0  1  0  0  0  0  0999 V2000
    7.4440  -15.2372   20.2797 N   0  0  0  0  0  0  0  0  0  0  0  0
    6.5583  -14.1128   19.9706 C   0  0  0  0  0  0  0  0  0  0  0  0
    7.4416  -13.2505   19.1148 C   0  0  0  0  0  0  0  0  0  0  0  0
    8.8299  -13.4151   19.6829 C   0  0  0  0  0  0  0  0  0  0  0  0
    8.7401  -14.6203   20.5552 C   0  0  1  0  0  0  0  0  0  0  0  0
    8.8943  -14.3235   22.0020 C   0  0  0  0  0  0  0  0  0  0  0  0
    9.9294  -13.7112   22.4166 O   0  0  0  0  0  0  0  0  0  0  0  0
    6.8954  -13.9345   26.5573 C   0  0  0  0  0  0  0  0  0  0  0  0
    6.8469  -14.1512   25.0836 C   0  0  1  0  0  0  0  0  0  0  0  0
    6.1500  -12.9911   24.4498 C   0  0  0  0  0  0  0  0  0  0  0  0
    8.1522  -14.3995   24.4214 C   0  0  2  0  0  0  0  0  0  0  0  0
    7.9702  -14.6693   22.9872 N   0  0  0  0  0  0  0  0  0  0  0  0
    8.8210  -15.5671   25.0417 C   0  0  0  0  0  0  0  0  0  0  0  0
    8.7986  -16.6921   24.3981 O   0  0  0  0  0  0  0  0  0  0  0  0
    9.6541  -13.7829   29.5623 C   0  0  0  0  0  0  0  0  0  0  0  0
   11.4033  -14.2114   29.3201 S   0  0  0  0  0  0  0  0  0  0  0  0
   11.6546  -15.1677   27.8248 C   0  0  0  0  0  0  0  0  0  0  0  0
   11.1097  -16.5446   27.8143 C   0  0  0  0  0  0  0  0  0  0  0  0
   10.2615  -16.8711   26.6514 C   0  0  2  0  0  0  0  0  0  0  0  0
    9.5030  -15.6389   26.2591 N   0  0  0  0  0  0  0  0  0  0  0  0
    9.2316  -17.8662   26.9102 C   0  0  0  0  0  0  0  0  0  0  0  0
    8.0042  -17.6443   27.0565 O   0  0  0  0  0  0  0  0  0  0  0  0
    9.5558  -19.2416   27.0216 O   0  0  0  0  0  0  0  0  0  0  0  0
  1  5  1  0
  1  2  1  0
  2  3  1  0
  4  3  1  0
  5  4  1  0
  5  6  1  1
  7  6  2  0
  9  8  1  1
  9 10  1  0
  9 11  1  0
 11 12  1  6
 12  6  1  0
 13 20  1  0
 13 11  1  0
 14 13  2  0
 15 16  1  0
 16 17  1  0
 19 18  1  1
 18 17  1  0
 19 20  1  0
 19 21  1  0
 21 23  1  0
 22 21  2  0
M  END
$$$$
