PHQ.pdb
     RDKit          3D

 27 28  0  0  1  0  0  0  0  0999 V2000
    9.1844  -12.8880   19.8433 N   0  0  0  0  0  0  0  0  0  0  0  0
    8.8833  -11.9835   18.7609 C   0  0  0  0  0  0  0  0  0  0  0  0
    7.9260  -12.7301   17.8480 C   0  0  0  0  0  0  0  0  0  0  0  0
    8.1842  -14.1859   18.1045 C   0  0  0  0  0  0  0  0  0  0  0  0
    8.8390  -14.2087   19.4430 C   0  0  1  0  0  0  0  0  0  0  0  0
   10.0347  -15.1267   19.4801 C   0  0  0  0  0  0  0  0  0  0  0  0
    9.7847  -16.3184   19.2395 O   0  0  0  0  0  0  0  0  0  0  0  0
   11.2946  -14.6300   19.7655 N   0  0  0  0  0  0  0  0  0  0  0  0
   12.5123  -15.3342   19.8163 C   0  0  1  0  0  0  0  0  0  0  0  0
   13.5982  -14.6820   18.9652 C   0  0  0  0  0  0  0  0  0  0  0  0
   13.5710  -15.2128   17.5855 C   0  0  0  0  0  0  0  0  0  0  0  0
   13.2468  -16.4934   17.1999 C   0  0  0  0  0  0  0  0  0  0  0  0
   13.3500  -16.5429   15.8622 N   0  0  0  0  0  0  0  0  0  0  0  0
   13.7290  -15.3372   15.3829 C   0  0  0  0  0  0  0  0  0  0  0  0
   13.8574  -14.5449   16.4464 N   0  0  0  0  0  0  0  0  0  0  0  0
   12.9230  -15.6396   21.1754 C   0  0  0  0  0  0  0  0  0  0  0  0
   13.0255  -14.6912   22.0249 O   0  0  0  0  0  0  0  0  0  0  0  0
   10.9773  -20.3809   24.1052 N   0  0  0  0  0  0  0  0  0  0  0  0
   11.8722  -19.9508   25.1092 C   0  0  0  0  0  0  0  0  0  0  0  0
   11.8719  -20.5353   26.2444 O   0  0  0  0  0  0  0  0  0  0  0  0
   12.7949  -18.8332   24.8162 C   0  0  0  0  0  0  0  0  0  0  0  0
   12.6111  -18.2446   23.4682 C   0  0  0  0  0  0  0  0  0  0  0  0
   13.6138  -17.2679   22.9885 C   0  0  2  0  0  0  0  0  0  0  0  0
   13.2158  -16.9381   21.6058 N   0  0  0  0  0  0  0  0  0  0  0  0
   15.0237  -17.5556   23.0992 C   0  0  0  0  0  0  0  0  0  0  0  0
   15.6635  -17.9808   22.0878 O   0  0  0  0  0  0  0  0  0  0  0  0
   15.7469  -17.3813   24.2858 O   0  0  0  0  0  0  0  0  0  0  0  0
  2  1  1  0
  3  4  1  0
  3  2  1  0
  4  5  1  0
  5  6  1  6
  5  1  1  0
  6  8  1  0
  7  6  2  0
  8  9  1  0
  9 10  1  1
 10 11  1  0
 11 12  2  0
 11 15  1  0
 12 13  1  0
 13 14  1  0
 15 14  2  0
 16  9  1  0
 16 17  2  0
 18 19  1  0
 19 21  1  0
 20 19  2  0
 21 22  1  0
 23 24  1  0
 23 22  1  6
 24 16  1  0
 25 23  1  0
 26 25  2  0
 27 25  1  0
M  END
$$$$
