PHQ.pdb
     RDKit          3D

 27 28  0  0  1  0  0  0  0  0999 V2000
    8.9566  -15.2756   16.6089 N   0  0  0  0  0  0  0  0  0  0  0  0
    7.6101  -14.8202   16.3640 C   0  0  0  0  0  0  0  0  0  0  0  0
    7.7204  -13.3348   16.0661 C   0  0  0  0  0  0  0  0  0  0  0  0
    8.9931  -12.8895   16.7246 C   0  0  0  0  0  0  0  0  0  0  0  0
    9.7750  -14.1471   16.8924 C   0  0  1  0  0  0  0  0  0  0  0  0
   10.4050  -14.2519   18.2584 C   0  0  0  0  0  0  0  0  0  0  0  0
   11.3115  -13.4332   18.4786 O   0  0  0  0  0  0  0  0  0  0  0  0
    9.9703  -15.2054   19.1625 N   0  0  0  0  0  0  0  0  0  0  0  0
   10.4704  -15.4682   20.4517 C   0  0  1  0  0  0  0  0  0  0  0  0
    9.5104  -16.3091   21.2885 C   0  0  0  0  0  0  0  0  0  0  0  0
    8.1977  -15.6397   21.4094 C   0  0  0  0  0  0  0  0  0  0  0  0
    7.9417  -14.2942   21.2761 C   0  0  0  0  0  0  0  0  0  0  0  0
    6.6233  -14.1210   21.4615 N   0  0  0  0  0  0  0  0  0  0  0  0
    6.0311  -15.3106   21.7084 C   0  0  0  0  0  0  0  0  0  0  0  0
    7.0054  -16.2187   21.6720 N   0  0  0  0  0  0  0  0  0  0  0  0
   11.8347  -15.9659   20.4294 C   0  0  0  0  0  0  0  0  0  0  0  0
   12.1218  -16.9682   19.6915 O   0  0  0  0  0  0  0  0  0  0  0  0
   15.3914  -15.0124   16.7912 N   0  0  0  0  0  0  0  0  0  0  0  0
   15.6408  -14.4443   18.0597 C   0  0  0  0  0  0  0  0  0  0  0  0
   16.7850  -13.9341   18.3063 O   0  0  0  0  0  0  0  0  0  0  0  0
   14.5631  -14.4497   19.0720 C   0  0  0  0  0  0  0  0  0  0  0  0
   15.0202  -14.8327   20.4290 C   0  0  0  0  0  0  0  0  0  0  0  0
   14.2592  -15.8727   21.1562 C   0  0  2  0  0  0  0  0  0  0  0  0
   12.8631  -15.3942   21.1860 N   0  0  0  0  0  0  0  0  0  0  0  0
   14.7077  -16.3361   22.4473 C   0  0  0  0  0  0  0  0  0  0  0  0
   14.0186  -16.0834   23.4839 O   0  0  0  0  0  0  0  0  0  0  0  0
   15.8847  -17.0735   22.6266 O   0  0  0  0  0  0  0  0  0  0  0  0
  2  1  1  0
  3  4  1  0
  3  2  1  0
  4  5  1  0
  5  6  1  1
  5  1  1  0
  6  8  1  0
  7  6  2  0
  8  9  1  0
  9 10  1  6
 10 11  1  0
 11 12  2  0
 11 15  1  0
 12 13  1  0
 13 14  1  0
 15 14  2  0
 16  9  1  0
 16 17  2  0
 18 19  1  0
 19 21  1  0
 20 19  2  0
 21 22  1  0
 23 24  1  0
 23 22  1  1
 24 16  1  0
 25 23  1  0
 26 25  2  0
 27 25  1  0
M  END
$$$$
