PHQ.pdb
     RDKit          3D

 27 28  0  0  1  0  0  0  0  0999 V2000
   12.0636  -19.7138   17.1942 N   0  0  0  0  0  0  0  0  0  0  0  0
   11.4196  -20.1370   15.9750 C   0  0  0  0  0  0  0  0  0  0  0  0
   10.4174  -21.2036   16.3818 C   0  0  0  0  0  0  0  0  0  0  0  0
   10.9335  -21.7632   17.6749 C   0  0  0  0  0  0  0  0  0  0  0  0
   11.8422  -20.7019   18.1933 C   0  0  1  0  0  0  0  0  0  0  0  0
   13.1423  -21.2638   18.7109 C   0  0  0  0  0  0  0  0  0  0  0  0
   13.0212  -22.1646   19.5562 O   0  0  0  0  0  0  0  0  0  0  0  0
   14.3527  -20.7784   18.2475 N   0  0  0  0  0  0  0  0  0  0  0  0
   15.6462  -21.2410   18.5544 C   0  0  1  0  0  0  0  0  0  0  0  0
   16.6254  -21.0406   17.4012 C   0  0  0  0  0  0  0  0  0  0  0  0
   16.2567  -21.8896   16.2483 C   0  0  0  0  0  0  0  0  0  0  0  0
   16.4911  -23.2383   16.1078 C   0  0  0  0  0  0  0  0  0  0  0  0
   15.9947  -23.6051   14.9155 N   0  0  0  0  0  0  0  0  0  0  0  0
   15.4521  -22.5356   14.2919 C   0  0  0  0  0  0  0  0  0  0  0  0
   15.6224  -21.5049   15.1190 N   0  0  0  0  0  0  0  0  0  0  0  0
   16.1244  -20.7497   19.8348 C   0  0  0  0  0  0  0  0  0  0  0  0
   15.8552  -19.5508   20.1837 O   0  0  0  0  0  0  0  0  0  0  0  0
   14.3381  -22.5503   24.5513 N   0  0  0  0  0  0  0  0  0  0  0  0
   15.2390  -21.6597   25.1751 C   0  0  0  0  0  0  0  0  0  0  0  0
   15.2543  -21.5701   26.4488 O   0  0  0  0  0  0  0  0  0  0  0  0
   16.1497  -20.8546   24.3333 C   0  0  0  0  0  0  0  0  0  0  0  0
   16.0437  -21.1520   22.8850 C   0  0  0  0  0  0  0  0  0  0  0  0
   17.2744  -21.0897   22.0659 C   0  0  2  0  0  0  0  0  0  0  0  0
   16.8750  -21.5349   20.7163 N   0  0  0  0  0  0  0  0  0  0  0  0
   18.4854  -21.7309   22.5187 C   0  0  0  0  0  0  0  0  0  0  0  0
   19.1926  -21.1818   23.4195 O   0  0  0  0  0  0  0  0  0  0  0  0
   18.9330  -22.9584   22.0147 O   0  0  0  0  0  0  0  0  0  0  0  0
  2  1  1  0
  3  4  1  0
  3  2  1  0
  4  5  1  0
  5  6  1  6
  5  1  1  0
  6  8  1  0
  7  6  2  0
  8  9  1  0
  9 10  1  6
 10 11  1  0
 11 12  2  0
 11 15  1  0
 12 13  1  0
 13 14  1  0
 15 14  2  0
 16  9  1  0
 16 17  2  0
 18 19  1  0
 19 21  1  0
 20 19  2  0
 21 22  1  0
 23 24  1  0
 23 22  1  1
 24 16  1  0
 25 23  1  0
 26 25  2  0
 27 25  1  0
M  END
$$$$
