PHQ.pdb
     RDKit          3D

 27 28  0  0  1  0  0  0  0  0999 V2000
    7.6198  -18.5543   18.9847 N   0  0  0  0  0  0  0  0  0  0  0  0
    6.8761  -18.1947   17.8024 C   0  0  0  0  0  0  0  0  0  0  0  0
    7.9026  -18.0502   16.6922 C   0  0  0  0  0  0  0  0  0  0  0  0
    9.1982  -17.7439   17.3846 C   0  0  0  0  0  0  0  0  0  0  0  0
    8.9892  -18.2290   18.7782 C   0  0  1  0  0  0  0  0  0  0  0  0
    9.4835  -17.2442   19.8076 C   0  0  0  0  0  0  0  0  0  0  0  0
   10.6860  -16.9514   19.7138 O   0  0  0  0  0  0  0  0  0  0  0  0
    8.6226  -16.7342   20.7638 N   0  0  0  0  0  0  0  0  0  0  0  0
    8.9010  -15.7773   21.7579 C   0  0  1  0  0  0  0  0  0  0  0  0
    7.9004  -14.6251   21.7536 C   0  0  0  0  0  0  0  0  0  0  0  0
    7.8599  -13.9722   20.4277 C   0  0  0  0  0  0  0  0  0  0  0  0
    6.7371  -13.5994   19.7249 C   0  0  0  0  0  0  0  0  0  0  0  0
    7.1544  -13.0441   18.5760 N   0  0  0  0  0  0  0  0  0  0  0  0
    8.5051  -13.0507   18.5233 C   0  0  0  0  0  0  0  0  0  0  0  0
    8.9124  -13.6186   19.6577 N   0  0  0  0  0  0  0  0  0  0  0  0
    9.1149  -16.3764   23.0635 C   0  0  0  0  0  0  0  0  0  0  0  0
    8.1136  -16.8295   23.7144 O   0  0  0  0  0  0  0  0  0  0  0  0
   13.8505  -19.8114   23.3444 N   0  0  0  0  0  0  0  0  0  0  0  0
   13.4387  -20.0595   24.6721 C   0  0  0  0  0  0  0  0  0  0  0  0
   14.0679  -20.9196   25.3755 O   0  0  0  0  0  0  0  0  0  0  0  0
   12.2877  -19.3087   25.2178 C   0  0  0  0  0  0  0  0  0  0  0  0
   11.7271  -18.3088   24.2781 C   0  0  0  0  0  0  0  0  0  0  0  0
   10.6816  -17.3883   24.7773 C   0  0  2  0  0  0  0  0  0  0  0  0
   10.3800  -16.4830   23.6511 N   0  0  0  0  0  0  0  0  0  0  0  0
   10.8688  -16.6760   26.0184 C   0  0  0  0  0  0  0  0  0  0  0  0
   11.1583  -15.4395   26.0001 O   0  0  0  0  0  0  0  0  0  0  0  0
   10.7387  -17.2833   27.2737 O   0  0  0  0  0  0  0  0  0  0  0  0
  2  1  1  0
  3  4  1  0
  3  2  1  0
  4  5  1  0
  5  6  1  1
  5  1  1  0
  6  8  1  0
  7  6  2  0
  8  9  1  0
  9 10  1  1
 10 11  1  0
 11 12  2  0
 11 15  1  0
 12 13  1  0
 13 14  1  0
 15 14  2  0
 16  9  1  0
 16 17  2  0
 18 19  1  0
 19 21  1  0
 20 19  2  0
 21 22  1  0
 23 24  1  0
 23 22  1  6
 24 16  1  0
 25 23  1  0
 26 25  2  0
 27 25  1  0
M  END
$$$$
