PHQ.pdb
     RDKit          3D

 27 28  0  0  1  0  0  0  0  0999 V2000
    8.8478  -15.0887   19.5266 N   0  0  0  0  0  0  0  0  0  0  0  0
    7.7140  -15.1776   18.6394 C   0  0  0  0  0  0  0  0  0  0  0  0
    7.3793  -13.7490   18.2465 C   0  0  0  0  0  0  0  0  0  0  0  0
    7.9200  -12.8937   19.3546 C   0  0  0  0  0  0  0  0  0  0  0  0
    8.9422  -13.7553   20.0132 C   0  0  1  0  0  0  0  0  0  0  0  0
    8.8469  -13.7091   21.5174 C   0  0  0  0  0  0  0  0  0  0  0  0
    8.7415  -12.5698   21.9984 O   0  0  0  0  0  0  0  0  0  0  0  0
    8.8791  -14.8762   22.2607 N   0  0  0  0  0  0  0  0  0  0  0  0
    8.6787  -15.0269   23.6458 C   0  0  1  0  0  0  0  0  0  0  0  0
    7.2177  -15.2931   23.9973 C   0  0  0  0  0  0  0  0  0  0  0  0
    6.6152  -14.1149   24.6569 C   0  0  0  0  0  0  0  0  0  0  0  0
    6.8166  -13.7021   25.9541 C   0  0  0  0  0  0  0  0  0  0  0  0
    6.0809  -12.5939   26.1363 N   0  0  0  0  0  0  0  0  0  0  0  0
    5.4179  -12.2870   24.9991 C   0  0  0  0  0  0  0  0  0  0  0  0
    5.7570  -13.2235   24.1141 N   0  0  0  0  0  0  0  0  0  0  0  0
    9.6159  -15.9599   24.2461 C   0  0  0  0  0  0  0  0  0  0  0  0
   10.1964  -16.8247   23.5067 O   0  0  0  0  0  0  0  0  0  0  0  0
   11.1044  -15.6160   30.2757 N   0  0  0  0  0  0  0  0  0  0  0  0
   11.8971  -16.7349   29.9386 C   0  0  0  0  0  0  0  0  0  0  0  0
   12.6251  -17.2824   30.8333 O   0  0  0  0  0  0  0  0  0  0  0  0
   11.8584  -17.2495   28.5529 C   0  0  0  0  0  0  0  0  0  0  0  0
   10.9826  -16.4664   27.6492 C   0  0  0  0  0  0  0  0  0  0  0  0
   10.8800  -16.8889   26.2348 C   0  0  2  0  0  0  0  0  0  0  0  0
    9.9182  -15.9582   25.6120 N   0  0  0  0  0  0  0  0  0  0  0  0
   10.6038  -18.2659   25.9029 C   0  0  0  0  0  0  0  0  0  0  0  0
    9.4050  -18.6851   25.8906 O   0  0  0  0  0  0  0  0  0  0  0  0
   11.6065  -19.1881   25.5779 O   0  0  0  0  0  0  0  0  0  0  0  0
  2  1  1  0
  3  4  1  0
  3  2  1  0
  4  5  1  0
  5  6  1  1
  5  1  1  0
  6  8  1  0
  7  6  2  0
  8  9  1  0
  9 10  1  6
 10 11  1  0
 11 12  2  0
 11 15  1  0
 12 13  1  0
 13 14  1  0
 15 14  2  0
 16  9  1  0
 16 17  2  0
 18 19  1  0
 19 21  1  0
 20 19  2  0
 21 22  1  0
 23 24  1  0
 23 22  1  1
 24 16  1  0
 25 23  1  0
 26 25  2  0
 27 25  1  0
M  END
$$$$
