WKD.pdb
     RDKit          3D

 32 33  0  0  1  0  0  0  0  0999 V2000
   23.0430   -9.4771  -18.5477 N   0  0  0  0  0  0  0  0  0  0  0  0
   22.7989   -8.7139  -17.3560 C   0  0  1  0  0  0  0  0  0  0  0  0
   23.8422   -7.6944  -17.0520 C   0  0  0  0  0  0  0  0  0  0  0  0
   25.2135   -8.1814  -16.9345 C   0  0  0  0  0  0  0  0  0  0  0  0
   26.3142   -7.6733  -17.6351 C   0  0  0  0  0  0  0  0  0  0  0  0
   27.3968   -8.3578  -17.2438 N   0  0  0  0  0  0  0  0  0  0  0  0
   27.0285   -9.2747  -16.3283 C   0  0  0  0  0  0  0  0  0  0  0  0
   27.7794  -10.2071  -15.6456 C   0  0  0  0  0  0  0  0  0  0  0  0
   27.1685  -11.0472  -14.7548 C   0  0  0  0  0  0  0  0  0  0  0  0
   25.8184  -10.9890  -14.5192 C   0  0  0  0  0  0  0  0  0  0  0  0
   25.0633  -10.0593  -15.1984 C   0  0  0  0  0  0  0  0  0  0  0  0
   25.6511   -9.1927  -16.1071 C   0  0  0  0  0  0  0  0  0  0  0  0
   21.4958   -7.9884  -17.5057 C   0  0  0  0  0  0  0  0  0  0  0  0
   21.1048   -7.6043  -18.6447 O   0  0  0  0  0  0  0  0  0  0  0  0
   20.7102   -7.7347  -16.3775 N   0  0  0  0  0  0  0  0  0  0  0  0
   19.3903   -7.2104  -16.3520 C   0  0  1  0  0  0  0  0  0  0  0  0
   18.3055   -8.1421  -15.8601 C   0  0  0  0  0  0  0  0  0  0  0  0
   18.0842   -9.2209  -16.8548 C   0  0  0  0  0  0  0  0  0  0  0  0
   16.9307  -10.1141  -16.4056 C   0  0  0  0  0  0  0  0  0  0  0  0
   16.7533  -11.2856  -17.3368 C   0  0  0  0  0  0  0  0  0  0  0  0
   15.6945  -12.1073  -16.7723 N   0  0  0  0  0  0  0  0  0  0  0  0
   19.3336   -5.8483  -15.8623 C   0  0  0  0  0  0  0  0  0  0  0  0
   20.0856   -5.5306  -14.8904 O   0  0  0  0  0  0  0  0  0  0  0  0
   18.5097   -4.8250  -16.3706 N   0  0  0  0  0  0  0  0  0  0  0  0
   18.4852   -3.4512  -15.8402 C   0  0  1  0  0  0  0  0  0  0  0  0
   18.2441   -2.4777  -16.9456 C   0  0  0  0  0  0  0  0  0  0  0  0
   18.1444   -1.1035  -16.4490 C   0  0  0  0  0  0  0  0  0  0  0  0
   17.1256   -0.6323  -15.9270 O   0  0  0  0  0  0  0  0  0  0  0  0
   17.3412   -3.4134  -14.8975 C   0  0  0  0  0  0  0  0  0  0  0  0
   17.2336   -2.3712  -13.9814 O   0  0  0  0  0  0  0  0  0  0  0  0
   19.2352   -0.2049  -16.5365 O   0  0  0  0  0  0  0  0  0  0  0  0
   16.4620   -4.2726  -14.8808 O   0  0  0  0  0  0  0  0  0  0  0  0
  2  1  1  6
  2 13  1  0
  2  3  1  0
  4  5  2  0
  4  3  1  0
  6  5  1  0
  7 12  2  0
  7  6  1  0
  8  7  1  0
  9 10  1  0
  9  8  2  0
 10 11  2  0
 11 12  1  0
 12  4  1  0
 13 14  2  0
 15 16  1  0
 15 13  1  0
 16 22  1  0
 16 17  1  1
 18 17  1  0
 19 18  1  0
 20 19  1  0
 21 20  1  0
 22 23  2  0
 22 24  1  0
 24 25  1  0
 25 29  1  0
 25 26  1  6
 27 26  1  0
 28 27  2  0
 29 32  2  0
 29 30  1  0
 31 27  1  0
M  END
$$$$
