WKD.pdb
     RDKit          3D

 32 33  0  0  1  0  0  0  0  0999 V2000
   25.7083  -19.0436  -18.0413 N   0  0  0  0  0  0  0  0  0  0  0  0
   25.7903  -18.3853  -16.7676 C   0  0  1  0  0  0  0  0  0  0  0  0
   24.9553  -17.1564  -16.6537 C   0  0  0  0  0  0  0  0  0  0  0  0
   25.3141  -16.0423  -17.5262 C   0  0  0  0  0  0  0  0  0  0  0  0
   24.4107  -15.2812  -18.2780 C   0  0  0  0  0  0  0  0  0  0  0  0
   25.1113  -14.3424  -18.9272 N   0  0  0  0  0  0  0  0  0  0  0  0
   26.4156  -14.4772  -18.6190 C   0  0  0  0  0  0  0  0  0  0  0  0
   27.5119  -13.7553  -19.0387 C   0  0  0  0  0  0  0  0  0  0  0  0
   28.7581  -14.0912  -18.5840 C   0  0  0  0  0  0  0  0  0  0  0  0
   28.9506  -15.1351  -17.7151 C   0  0  0  0  0  0  0  0  0  0  0  0
   27.8588  -15.8598  -17.2924 C   0  0  0  0  0  0  0  0  0  0  0  0
   26.5826  -15.5452  -17.7334 C   0  0  0  0  0  0  0  0  0  0  0  0
   25.3338  -19.3358  -15.7025 C   0  0  0  0  0  0  0  0  0  0  0  0
   24.4432  -20.1971  -15.9528 O   0  0  0  0  0  0  0  0  0  0  0  0
   25.8965  -19.2670  -14.4245 N   0  0  0  0  0  0  0  0  0  0  0  0
   25.5361  -20.0365  -13.2864 C   0  0  1  0  0  0  0  0  0  0  0  0
   26.4882  -19.9881  -12.1124 C   0  0  0  0  0  0  0  0  0  0  0  0
   27.3385  -21.2043  -12.1080 C   0  0  0  0  0  0  0  0  0  0  0  0
   28.3078  -21.1571  -10.9296 C   0  0  0  0  0  0  0  0  0  0  0  0
   29.2047  -22.3681  -10.9122 C   0  0  0  0  0  0  0  0  0  0  0  0
   30.1405  -22.1751   -9.8159 N   0  0  0  0  0  0  0  0  0  0  0  0
   24.1255  -19.9486  -12.9694 C   0  0  0  0  0  0  0  0  0  0  0  0
   23.5434  -18.8331  -13.1369 O   0  0  0  0  0  0  0  0  0  0  0  0
   23.3240  -21.0008  -12.4848 N   0  0  0  0  0  0  0  0  0  0  0  0
   21.8902  -20.8657  -12.1764 C   0  0  1  0  0  0  0  0  0  0  0  0
   21.1370  -20.4627  -13.4003 C   0  0  0  0  0  0  0  0  0  0  0  0
   19.8692  -21.1857  -13.5224 C   0  0  0  0  0  0  0  0  0  0  0  0
   19.7623  -22.3056  -14.0389 O   0  0  0  0  0  0  0  0  0  0  0  0
   21.4491  -22.2168  -11.7540 C   0  0  0  0  0  0  0  0  0  0  0  0
   20.2914  -22.3611  -10.9952 O   0  0  0  0  0  0  0  0  0  0  0  0
   18.6553  -20.6352  -13.0445 O   0  0  0  0  0  0  0  0  0  0  0  0
   22.0648  -23.2406  -12.0444 O   0  0  0  0  0  0  0  0  0  0  0  0
  2  1  1  6
  2 13  1  0
  2  3  1  0
  4  5  2  0
  4  3  1  0
  6  5  1  0
  7 12  2  0
  7  6  1  0
  8  7  1  0
  9 10  1  0
  9  8  2  0
 10 11  2  0
 11 12  1  0
 12  4  1  0
 13 14  2  0
 15 16  1  0
 15 13  1  0
 16 22  1  0
 16 17  1  1
 18 17  1  0
 19 18  1  0
 20 19  1  0
 21 20  1  0
 22 23  2  0
 22 24  1  0
 24 25  1  0
 25 29  1  0
 25 26  1  6
 27 26  1  0
 28 27  2  0
 29 32  2  0
 29 30  1  0
 31 27  1  0
M  END
$$$$
