WKD.pdb
     RDKit          3D

 32 33  0  0  1  0  0  0  0  0999 V2000
   15.8185  -18.0382    2.6500 N   0  0  0  0  0  0  0  0  0  0  0  0
   15.3965  -17.2954    3.8043 C   0  0  1  0  0  0  0  0  0  0  0  0
   14.4474  -18.0233    4.6929 C   0  0  0  0  0  0  0  0  0  0  0  0
   13.1845  -18.4424    4.0922 C   0  0  0  0  0  0  0  0  0  0  0  0
   13.0253  -19.5247    3.2182 C   0  0  0  0  0  0  0  0  0  0  0  0
   11.7260  -19.6057    2.9034 N   0  0  0  0  0  0  0  0  0  0  0  0
   11.0588  -18.6234    3.5392 C   0  0  0  0  0  0  0  0  0  0  0  0
    9.7193  -18.2997    3.5260 C   0  0  0  0  0  0  0  0  0  0  0  0
    9.2728  -17.2358    4.2616 C   0  0  0  0  0  0  0  0  0  0  0  0
   10.1266  -16.4742    5.0185 C   0  0  0  0  0  0  0  0  0  0  0  0
   11.4659  -16.7931    5.0354 C   0  0  0  0  0  0  0  0  0  0  0  0
   11.9510  -17.8651    4.3022 C   0  0  0  0  0  0  0  0  0  0  0  0
   16.6028  -16.9521    4.6250 C   0  0  0  0  0  0  0  0  0  0  0  0
   17.7154  -17.5031    4.3883 O   0  0  0  0  0  0  0  0  0  0  0  0
   16.4943  -16.0176    5.6592 N   0  0  0  0  0  0  0  0  0  0  0  0
   17.5437  -15.5141    6.4733 C   0  0  1  0  0  0  0  0  0  0  0  0
   17.8937  -14.0540    6.2932 C   0  0  0  0  0  0  0  0  0  0  0  0
   19.0365  -13.7019    7.1720 C   0  0  0  0  0  0  0  0  0  0  0  0
   19.3886  -12.2264    7.0014 C   0  0  0  0  0  0  0  0  0  0  0  0
   20.5974  -11.8556    7.8215 C   0  0  0  0  0  0  0  0  0  0  0  0
   20.8256  -10.4358    7.6051 N   0  0  0  0  0  0  0  0  0  0  0  0
   17.4768  -15.9916    7.8392 C   0  0  0  0  0  0  0  0  0  0  0  0
   16.6092  -15.4782    8.6104 O   0  0  0  0  0  0  0  0  0  0  0  0
   18.2967  -16.9887    8.4032 N   0  0  0  0  0  0  0  0  0  0  0  0
   18.2423  -17.3927    9.8185 C   0  0  1  0  0  0  0  0  0  0  0  0
   17.4448  -18.6458    9.9649 C   0  0  0  0  0  0  0  0  0  0  0  0
   17.8200  -19.6500    8.9669 C   0  0  0  0  0  0  0  0  0  0  0  0
   18.6268  -19.4427    8.0513 O   0  0  0  0  0  0  0  0  0  0  0  0
   19.6483  -17.6602   10.2061 C   0  0  0  0  0  0  0  0  0  0  0  0
   19.9558  -17.9625   11.5294 O   0  0  0  0  0  0  0  0  0  0  0  0
   17.2697  -20.9545    8.9879 O   0  0  0  0  0  0  0  0  0  0  0  0
   20.5790  -17.6288    9.4034 O   0  0  0  0  0  0  0  0  0  0  0  0
  2  1  1  6
  2 13  1  0
  2  3  1  0
  4  5  2  0
  4  3  1  0
  6  5  1  0
  7 12  2  0
  7  6  1  0
  8  7  1  0
  9 10  1  0
  9  8  2  0
 10 11  2  0
 11 12  1  0
 12  4  1  0
 13 14  2  0
 15 16  1  0
 15 13  1  0
 16 22  1  0
 16 17  1  1
 18 17  1  0
 19 18  1  0
 20 19  1  0
 21 20  1  0
 22 23  2  0
 22 24  1  0
 24 25  1  0
 25 29  1  0
 25 26  1  6
 27 26  1  0
 28 27  2  0
 29 32  2  0
 29 30  1  0
 31 27  1  0
M  END
$$$$
