WKD.pdb
     RDKit          3D

 32 33  0  0  1  0  0  0  0  0999 V2000
   26.7373  -18.7525  -12.4731 N   0  0  0  0  0  0  0  0  0  0  0  0
   27.2686  -20.0653  -12.7107 C   0  0  1  0  0  0  0  0  0  0  0  0
   26.6072  -21.1488  -11.9303 C   0  0  0  0  0  0  0  0  0  0  0  0
   26.4277  -20.9058  -10.5020 C   0  0  0  0  0  0  0  0  0  0  0  0
   25.1946  -20.8431   -9.8418 C   0  0  0  0  0  0  0  0  0  0  0  0
   25.4392  -20.6294   -8.5424 N   0  0  0  0  0  0  0  0  0  0  0  0
   26.7708  -20.5542   -8.3536 C   0  0  0  0  0  0  0  0  0  0  0  0
   27.4993  -20.3431   -7.2030 C   0  0  0  0  0  0  0  0  0  0  0  0
   28.8657  -20.3012   -7.2652 C   0  0  0  0  0  0  0  0  0  0  0  0
   29.5382  -20.4643   -8.4496 C   0  0  0  0  0  0  0  0  0  0  0  0
   28.8153  -20.6757   -9.6023 C   0  0  0  0  0  0  0  0  0  0  0  0
   27.4301  -20.7244   -9.5740 C   0  0  0  0  0  0  0  0  0  0  0  0
   27.1045  -20.3970  -14.1631 C   0  0  0  0  0  0  0  0  0  0  0  0
   26.1778  -19.8667  -14.8396 O   0  0  0  0  0  0  0  0  0  0  0  0
   27.9818  -21.2998  -14.7713 N   0  0  0  0  0  0  0  0  0  0  0  0
   28.0565  -21.6249  -16.1520 C   0  0  1  0  0  0  0  0  0  0  0  0
   29.4106  -22.0559  -16.6695 C   0  0  0  0  0  0  0  0  0  0  0  0
   29.9893  -23.0791  -15.7638 C   0  0  0  0  0  0  0  0  0  0  0  0
   30.7370  -24.1316  -16.5783 C   0  0  0  0  0  0  0  0  0  0  0  0
   31.3076  -25.2059  -15.6887 C   0  0  0  0  0  0  0  0  0  0  0  0
   31.8814  -26.2114  -16.5687 N   0  0  0  0  0  0  0  0  0  0  0  0
   26.9209  -22.3974  -16.6120 C   0  0  0  0  0  0  0  0  0  0  0  0
   27.0935  -23.6328  -16.8464 O   0  0  0  0  0  0  0  0  0  0  0  0
   25.6206  -21.9000  -16.8277 N   0  0  0  0  0  0  0  0  0  0  0  0
   24.3949  -22.5897  -16.3903 C   0  0  1  0  0  0  0  0  0  0  0  0
   24.4768  -22.9095  -14.9347 C   0  0  0  0  0  0  0  0  0  0  0  0
   23.2842  -23.6181  -14.4648 C   0  0  0  0  0  0  0  0  0  0  0  0
   22.6766  -24.4631  -15.1351 O   0  0  0  0  0  0  0  0  0  0  0  0
   23.2957  -21.6207  -16.6166 C   0  0  0  0  0  0  0  0  0  0  0  0
   23.4759  -20.5648  -17.5052 O   0  0  0  0  0  0  0  0  0  0  0  0
   22.7378  -23.3752  -13.1813 O   0  0  0  0  0  0  0  0  0  0  0  0
   22.2081  -21.7011  -16.0488 O   0  0  0  0  0  0  0  0  0  0  0  0
  2  1  1  6
  2 13  1  0
  2  3  1  0
  4  5  2  0
  4  3  1  0
  6  5  1  0
  7 12  2  0
  7  6  1  0
  8  7  1  0
  9 10  1  0
  9  8  2  0
 10 11  2  0
 11 12  1  0
 12  4  1  0
 13 14  2  0
 15 16  1  0
 15 13  1  0
 16 22  1  0
 16 17  1  1
 18 17  1  0
 19 18  1  0
 20 19  1  0
 21 20  1  0
 22 23  2  0
 22 24  1  0
 24 25  1  0
 25 29  1  0
 25 26  1  1
 27 26  1  0
 28 27  2  0
 29 32  2  0
 29 30  1  0
 31 27  1  0
M  END
$$$$
