WKD.pdb
     RDKit          3D

 32 33  0  0  1  0  0  0  0  0999 V2000
   26.7527  -22.1286  -12.2179 N   0  0  0  0  0  0  0  0  0  0  0  0
   25.8521  -21.3899  -11.3778 C   0  0  1  0  0  0  0  0  0  0  0  0
   26.4762  -20.2387  -10.6668 C   0  0  0  0  0  0  0  0  0  0  0  0
   27.6521  -20.5356   -9.8540 C   0  0  0  0  0  0  0  0  0  0  0  0
   28.8603  -21.0512  -10.3389 C   0  0  0  0  0  0  0  0  0  0  0  0
   29.6999  -21.1638   -9.3015 N   0  0  0  0  0  0  0  0  0  0  0  0
   29.0758  -20.7429   -8.1846 C   0  0  0  0  0  0  0  0  0  0  0  0
   29.5236  -20.6740   -6.8831 C   0  0  0  0  0  0  0  0  0  0  0  0
   28.6889  -20.2084   -5.9038 C   0  0  0  0  0  0  0  0  0  0  0  0
   27.4076  -19.8047   -6.1814 C   0  0  0  0  0  0  0  0  0  0  0  0
   26.9549  -19.8712   -7.4800 C   0  0  0  0  0  0  0  0  0  0  0  0
   27.7752  -20.3373   -8.4959 C   0  0  0  0  0  0  0  0  0  0  0  0
   24.7416  -20.8437  -12.2233 C   0  0  0  0  0  0  0  0  0  0  0  0
   23.8239  -20.1480  -11.7023 O   0  0  0  0  0  0  0  0  0  0  0  0
   24.7215  -21.1076  -13.5961 N   0  0  0  0  0  0  0  0  0  0  0  0
   24.2777  -22.2963  -14.2343 C   0  0  1  0  0  0  0  0  0  0  0  0
   25.0590  -23.5551  -13.9306 C   0  0  0  0  0  0  0  0  0  0  0  0
   24.6025  -24.6530  -14.8185 C   0  0  0  0  0  0  0  0  0  0  0  0
   25.7651  -25.1455  -15.6766 C   0  0  0  0  0  0  0  0  0  0  0  0
   25.2725  -25.7636  -16.9597 C   0  0  0  0  0  0  0  0  0  0  0  0
   26.4543  -26.1154  -17.7308 N   0  0  0  0  0  0  0  0  0  0  0  0
   22.8351  -22.4263  -14.2449 C   0  0  0  0  0  0  0  0  0  0  0  0
   22.2921  -22.9820  -15.2486 O   0  0  0  0  0  0  0  0  0  0  0  0
   21.9621  -21.9877  -13.2300 N   0  0  0  0  0  0  0  0  0  0  0  0
   20.4959  -22.1081  -13.2998 C   0  0  1  0  0  0  0  0  0  0  0  0
   19.9681  -22.7004  -12.0355 C   0  0  0  0  0  0  0  0  0  0  0  0
   18.5066  -22.7952  -12.0469 C   0  0  0  0  0  0  0  0  0  0  0  0
   17.8084  -22.5484  -13.0388 O   0  0  0  0  0  0  0  0  0  0  0  0
   19.9927  -20.7200  -13.4363 C   0  0  0  0  0  0  0  0  0  0  0  0
   18.8816  -20.4619  -14.2337 O   0  0  0  0  0  0  0  0  0  0  0  0
   17.7823  -23.1860  -10.8947 O   0  0  0  0  0  0  0  0  0  0  0  0
   20.5159  -19.7622  -12.8702 O   0  0  0  0  0  0  0  0  0  0  0  0
  2  1  1  6
  2 13  1  0
  2  3  1  0
  4  5  2  0
  4  3  1  0
  6  5  1  0
  7 12  2  0
  7  6  1  0
  8  7  1  0
  9 10  1  0
  9  8  2  0
 10 11  2  0
 11 12  1  0
 12  4  1  0
 13 14  2  0
 15 16  1  0
 15 13  1  0
 16 22  1  0
 16 17  1  1
 18 17  1  0
 19 18  1  0
 20 19  1  0
 21 20  1  0
 22 23  2  0
 22 24  1  0
 24 25  1  0
 25 29  1  0
 25 26  1  1
 27 26  1  0
 28 27  2  0
 29 32  2  0
 29 30  1  0
 31 27  1  0
M  END
$$$$
