WKD.pdb
     RDKit          3D

 32 33  0  0  1  0  0  0  0  0999 V2000
   27.8647  -20.8732  -12.7122 N   0  0  0  0  0  0  0  0  0  0  0  0
   26.9242  -21.6005  -11.9068 C   0  0  1  0  0  0  0  0  0  0  0  0
   26.6986  -21.0251  -10.5509 C   0  0  0  0  0  0  0  0  0  0  0  0
   27.8747  -20.8925   -9.6962 C   0  0  0  0  0  0  0  0  0  0  0  0
   29.1965  -21.1171  -10.0999 C   0  0  0  0  0  0  0  0  0  0  0  0
   29.9900  -20.8722   -9.0491 N   0  0  0  0  0  0  0  0  0  0  0  0
   29.2283  -20.5036   -8.0010 C   0  0  0  0  0  0  0  0  0  0  0  0
   29.5847  -20.1593   -6.7151 C   0  0  0  0  0  0  0  0  0  0  0  0
   28.6143  -19.8215   -5.8113 C   0  0  0  0  0  0  0  0  0  0  0  0
   27.2850  -19.8158   -6.1499 C   0  0  0  0  0  0  0  0  0  0  0  0
   26.9233  -20.1589   -7.4334 C   0  0  0  0  0  0  0  0  0  0  0  0
   27.8814  -20.5053   -8.3736 C   0  0  0  0  0  0  0  0  0  0  0  0
   25.6004  -21.6201  -12.6095 C   0  0  0  0  0  0  0  0  0  0  0  0
   25.0292  -20.5385  -12.9279 O   0  0  0  0  0  0  0  0  0  0  0  0
   24.9946  -22.8431  -12.9125 N   0  0  0  0  0  0  0  0  0  0  0  0
   23.8995  -23.0635  -13.7898 C   0  0  1  0  0  0  0  0  0  0  0  0
   23.8038  -24.4373  -14.4148 C   0  0  0  0  0  0  0  0  0  0  0  0
   23.5618  -24.3071  -15.8731 C   0  0  0  0  0  0  0  0  0  0  0  0
   24.7724  -24.8194  -16.6491 C   0  0  0  0  0  0  0  0  0  0  0  0
   24.5686  -24.6755  -18.1353 C   0  0  0  0  0  0  0  0  0  0  0  0
   25.8045  -25.1091  -18.7672 N   0  0  0  0  0  0  0  0  0  0  0  0
   22.6601  -22.4970  -13.2986 C   0  0  0  0  0  0  0  0  0  0  0  0
   22.3885  -22.6311  -12.0660 O   0  0  0  0  0  0  0  0  0  0  0  0
   21.7113  -21.7992  -14.0714 N   0  0  0  0  0  0  0  0  0  0  0  0
   20.4943  -21.1823  -13.5166 C   0  0  1  0  0  0  0  0  0  0  0  0
   20.0553  -20.0459  -14.3789 C   0  0  0  0  0  0  0  0  0  0  0  0
   20.7110  -18.7916  -14.0025 C   0  0  0  0  0  0  0  0  0  0  0  0
   21.5112  -18.6877  -13.0638 O   0  0  0  0  0  0  0  0  0  0  0  0
   19.4631  -22.2473  -13.5492 C   0  0  0  0  0  0  0  0  0  0  0  0
   18.4665  -22.2754  -12.5781 O   0  0  0  0  0  0  0  0  0  0  0  0
   20.4650  -17.5884  -14.7074 O   0  0  0  0  0  0  0  0  0  0  0  0
   19.4399  -23.1273  -14.4074 O   0  0  0  0  0  0  0  0  0  0  0  0
  2  1  1  6
  2 13  1  0
  2  3  1  0
  4  5  2  0
  4  3  1  0
  6  5  1  0
  7 12  2  0
  7  6  1  0
  8  7  1  0
  9 10  1  0
  9  8  2  0
 10 11  2  0
 11 12  1  0
 12  4  1  0
 13 14  2  0
 15 16  1  0
 15 13  1  0
 16 22  1  0
 16 17  1  1
 18 17  1  0
 19 18  1  0
 20 19  1  0
 21 20  1  0
 22 23  2  0
 22 24  1  0
 24 25  1  0
 25 29  1  0
 25 26  1  6
 27 26  1  0
 28 27  2  0
 29 32  2  0
 29 30  1  0
 31 27  1  0
M  END
$$$$
