WKD.pdb
     RDKit          3D

 32 33  0  0  1  0  0  0  0  0999 V2000
   28.1289  -20.2204   -9.9948 N   0  0  0  0  0  0  0  0  0  0  0  0
   26.9040  -20.8690   -9.6190 C   0  0  1  0  0  0  0  0  0  0  0  0
   26.3244  -20.3937   -8.3312 C   0  0  0  0  0  0  0  0  0  0  0  0
   27.2579  -19.8062   -7.3747 C   0  0  0  0  0  0  0  0  0  0  0  0
   27.9360  -18.5935   -7.5480 C   0  0  0  0  0  0  0  0  0  0  0  0
   28.6767  -18.3814   -6.4525 N   0  0  0  0  0  0  0  0  0  0  0  0
   28.4965  -19.4056   -5.5964 C   0  0  0  0  0  0  0  0  0  0  0  0
   29.0425  -19.6365   -4.3523 C   0  0  0  0  0  0  0  0  0  0  0  0
   28.7054  -20.7708   -3.6651 C   0  0  0  0  0  0  0  0  0  0  0  0
   27.8323  -21.6938   -4.1826 C   0  0  0  0  0  0  0  0  0  0  0  0
   27.2838  -21.4681   -5.4252 C   0  0  0  0  0  0  0  0  0  0  0  0
   27.6036  -20.3287   -6.1473 C   0  0  0  0  0  0  0  0  0  0  0  0
   25.8808  -20.6243  -10.6866 C   0  0  0  0  0  0  0  0  0  0  0  0
   25.4858  -19.4500  -10.9367 O   0  0  0  0  0  0  0  0  0  0  0  0
   25.3603  -21.7027  -11.4080 N   0  0  0  0  0  0  0  0  0  0  0  0
   24.3688  -21.6560  -12.4240 C   0  0  1  0  0  0  0  0  0  0  0  0
   24.3728  -22.7932  -13.4209 C   0  0  0  0  0  0  0  0  0  0  0  0
   25.5683  -22.6885  -14.2937 C   0  0  0  0  0  0  0  0  0  0  0  0
   25.6458  -23.9013  -15.2176 C   0  0  0  0  0  0  0  0  0  0  0  0
   26.8486  -23.8221  -16.1221 C   0  0  0  0  0  0  0  0  0  0  0  0
   26.8889  -25.0696  -16.8684 N   0  0  0  0  0  0  0  0  0  0  0  0
   23.0713  -21.2455  -11.9278 C   0  0  0  0  0  0  0  0  0  0  0  0
   23.0134  -20.7052  -10.7808 O   0  0  0  0  0  0  0  0  0  0  0  0
   21.8466  -21.3910  -12.6085 N   0  0  0  0  0  0  0  0  0  0  0  0
   20.7680  -20.3884  -12.5809 C   0  0  1  0  0  0  0  0  0  0  0  0
   21.2519  -19.0972  -13.1522 C   0  0  0  0  0  0  0  0  0  0  0  0
   20.2114  -18.0667  -13.1275 C   0  0  0  0  0  0  0  0  0  0  0  0
   19.4982  -17.8319  -12.1433 O   0  0  0  0  0  0  0  0  0  0  0  0
   19.6984  -20.9366  -13.4493 C   0  0  0  0  0  0  0  0  0  0  0  0
   18.3638  -20.7734  -13.0900 O   0  0  0  0  0  0  0  0  0  0  0  0
   19.9499  -17.2531  -14.2565 O   0  0  0  0  0  0  0  0  0  0  0  0
   19.9318  -21.5415  -14.4939 O   0  0  0  0  0  0  0  0  0  0  0  0
  2  1  1  6
  2 13  1  0
  2  3  1  0
  4  5  2  0
  4  3  1  0
  6  5  1  0
  7 12  2  0
  7  6  1  0
  8  7  1  0
  9 10  1  0
  9  8  2  0
 10 11  2  0
 11 12  1  0
 12  4  1  0
 13 14  2  0
 15 16  1  0
 15 13  1  0
 16 22  1  0
 16 17  1  1
 18 17  1  0
 19 18  1  0
 20 19  1  0
 21 20  1  0
 22 23  2  0
 22 24  1  0
 24 25  1  0
 25 29  1  0
 25 26  1  6
 27 26  1  0
 28 27  2  0
 29 32  2  0
 29 30  1  0
 31 27  1  0
M  END
$$$$
