WKD.pdb
     RDKit          3D

 32 33  0  0  1  0  0  0  0  0999 V2000
   22.7982  -32.2924    1.4654 N   0  0  0  0  0  0  0  0  0  0  0  0
   24.1338  -31.7873    1.3120 C   0  0  1  0  0  0  0  0  0  0  0  0
   24.7855  -31.3705    2.5855 C   0  0  0  0  0  0  0  0  0  0  0  0
   24.0593  -30.4024    3.4019 C   0  0  0  0  0  0  0  0  0  0  0  0
   22.8920  -29.7329    3.0147 C   0  0  0  0  0  0  0  0  0  0  0  0
   22.5137  -28.9517    4.0347 N   0  0  0  0  0  0  0  0  0  0  0  0
   23.3897  -29.0980    5.0474 C   0  0  0  0  0  0  0  0  0  0  0  0
   23.4247  -28.5052    6.2909 C   0  0  0  0  0  0  0  0  0  0  0  0
   24.4352  -28.8146    7.1601 C   0  0  0  0  0  0  0  0  0  0  0  0
   25.4240  -29.7053    6.8274 C   0  0  0  0  0  0  0  0  0  0  0  0
   25.3940  -30.3007    5.5863 C   0  0  0  0  0  0  0  0  0  0  0  0
   24.3838  -30.0099    4.6824 C   0  0  0  0  0  0  0  0  0  0  0  0
   24.9878  -32.8579    0.7027 C   0  0  0  0  0  0  0  0  0  0  0  0
   24.9432  -34.0409    1.1454 O   0  0  0  0  0  0  0  0  0  0  0  0
   25.8393  -32.5438   -0.3607 N   0  0  0  0  0  0  0  0  0  0  0  0
   26.7835  -33.4016   -0.9853 C   0  0  1  0  0  0  0  0  0  0  0  0
   27.2799  -32.9765   -2.3491 C   0  0  0  0  0  0  0  0  0  0  0  0
   27.1460  -34.1048   -3.3036 C   0  0  0  0  0  0  0  0  0  0  0  0
   27.7140  -33.7060   -4.6633 C   0  0  0  0  0  0  0  0  0  0  0  0
   27.4797  -34.7842   -5.6899 C   0  0  0  0  0  0  0  0  0  0  0  0
   28.0032  -34.2787   -6.9489 N   0  0  0  0  0  0  0  0  0  0  0  0
   27.7864  -33.9005   -0.0670 C   0  0  0  0  0  0  0  0  0  0  0  0
   28.5344  -33.0577    0.5173 O   0  0  0  0  0  0  0  0  0  0  0  0
   28.0148  -35.2551    0.2453 N   0  0  0  0  0  0  0  0  0  0  0  0
   29.0349  -35.7162    1.2023 C   0  0  1  0  0  0  0  0  0  0  0  0
   28.4404  -36.7027    2.1516 C   0  0  0  0  0  0  0  0  0  0  0  0
   29.1699  -36.7451    3.4209 C   0  0  0  0  0  0  0  0  0  0  0  0
   30.1421  -36.0241    3.6806 O   0  0  0  0  0  0  0  0  0  0  0  0
   30.0692  -36.3904    0.3812 C   0  0  0  0  0  0  0  0  0  0  0  0
   31.4007  -36.3620    0.7853 O   0  0  0  0  0  0  0  0  0  0  0  0
   28.7990  -37.6358    4.4572 O   0  0  0  0  0  0  0  0  0  0  0  0
   29.8085  -36.9873   -0.6616 O   0  0  0  0  0  0  0  0  0  0  0  0
  2  1  1  1
  2 13  1  0
  2  3  1  0
  4  5  2  0
  4  3  1  0
  6  5  1  0
  7 12  2  0
  7  6  1  0
  8  7  1  0
  9 10  1  0
  9  8  2  0
 10 11  2  0
 11 12  1  0
 12  4  1  0
 13 14  2  0
 15 16  1  0
 15 13  1  0
 16 22  1  0
 16 17  1  6
 18 17  1  0
 19 18  1  0
 20 19  1  0
 21 20  1  0
 22 23  2  0
 22 24  1  0
 24 25  1  0
 25 29  1  0
 25 26  1  1
 27 26  1  0
 28 27  2  0
 29 32  2  0
 29 30  1  0
 31 27  1  0
M  END
$$$$
