WKD.pdb
     RDKit          3D

 32 33  0  0  1  0  0  0  0  0999 V2000
   27.7355  -20.7262  -10.1160 N   0  0  0  0  0  0  0  0  0  0  0  0
   26.3815  -21.1767   -9.9539 C   0  0  1  0  0  0  0  0  0  0  0  0
   25.6525  -20.5433   -8.8191 C   0  0  0  0  0  0  0  0  0  0  0  0
   26.4714  -19.8816   -7.8077 C   0  0  0  0  0  0  0  0  0  0  0  0
   26.9820  -18.5815   -7.9053 C   0  0  0  0  0  0  0  0  0  0  0  0
   27.6574  -18.3240   -6.7778 N   0  0  0  0  0  0  0  0  0  0  0  0
   27.5961  -19.4029   -5.9739 C   0  0  0  0  0  0  0  0  0  0  0  0
   28.1353  -19.6174   -4.7239 C   0  0  0  0  0  0  0  0  0  0  0  0
   27.9380  -20.8185   -4.0985 C   0  0  0  0  0  0  0  0  0  0  0  0
   27.2131  -21.8251   -4.6844 C   0  0  0  0  0  0  0  0  0  0  0  0
   26.6721  -21.6163   -5.9332 C   0  0  0  0  0  0  0  0  0  0  0  0
   26.8525  -20.4108   -6.5937 C   0  0  0  0  0  0  0  0  0  0  0  0
   25.6165  -20.8665  -11.2050 C   0  0  0  0  0  0  0  0  0  0  0  0
   25.1829  -19.6982  -11.4164 O   0  0  0  0  0  0  0  0  0  0  0  0
   25.3809  -21.8771  -12.1418 N   0  0  0  0  0  0  0  0  0  0  0  0
   24.9973  -21.7149  -13.4998 C   0  0  1  0  0  0  0  0  0  0  0  0
   25.8144  -22.4694  -14.5246 C   0  0  0  0  0  0  0  0  0  0  0  0
   27.1190  -21.7903  -14.7219 C   0  0  0  0  0  0  0  0  0  0  0  0
   27.9350  -22.5286  -15.7800 C   0  0  0  0  0  0  0  0  0  0  0  0
   29.3199  -21.9476  -15.9045 C   0  0  0  0  0  0  0  0  0  0  0  0
   30.0323  -22.7759  -16.8642 N   0  0  0  0  0  0  0  0  0  0  0  0
   23.5611  -21.7351  -13.6868 C   0  0  0  0  0  0  0  0  0  0  0  0
   23.1100  -21.6154  -14.8672 O   0  0  0  0  0  0  0  0  0  0  0  0
   22.6005  -21.8776  -12.6663 N   0  0  0  0  0  0  0  0  0  0  0  0
   21.1491  -21.9407  -12.9081 C   0  0  1  0  0  0  0  0  0  0  0  0
   20.4286  -22.2402  -11.6358 C   0  0  0  0  0  0  0  0  0  0  0  0
   20.5282  -21.1348  -10.6802 C   0  0  0  0  0  0  0  0  0  0  0  0
   21.1965  -20.1118  -10.8781 O   0  0  0  0  0  0  0  0  0  0  0  0
   20.7689  -20.5866  -13.3779 C   0  0  0  0  0  0  0  0  0  0  0  0
   21.7437  -19.6029  -13.5157 O   0  0  0  0  0  0  0  0  0  0  0  0
   19.8484  -21.1676   -9.4385 O   0  0  0  0  0  0  0  0  0  0  0  0
   19.6123  -20.2785  -13.6588 O   0  0  0  0  0  0  0  0  0  0  0  0
  2  1  1  6
  2 13  1  0
  2  3  1  0
  4  5  2  0
  4  3  1  0
  6  5  1  0
  7 12  2  0
  7  6  1  0
  8  7  1  0
  9 10  1  0
  9  8  2  0
 10 11  2  0
 11 12  1  0
 12  4  1  0
 13 14  2  0
 15 16  1  0
 15 13  1  0
 16 22  1  0
 16 17  1  6
 18 17  1  0
 19 18  1  0
 20 19  1  0
 21 20  1  0
 22 23  2  0
 22 24  1  0
 24 25  1  0
 25 29  1  0
 25 26  1  1
 27 26  1  0
 28 27  2  0
 29 32  2  0
 29 30  1  0
 31 27  1  0
M  END
$$$$
