NLD.pdb
     RDKit          3D

 25 24  0  0  1  0  0  0  0  0999 V2000
   19.2550  -12.9017  -19.3242 N   0  0  0  0  0  0  0  0  0  0  0  0
   19.7213  -13.8044  -18.3026 C   0  0  0  0  0  0  0  0  0  0  0  0
   19.2758  -14.9662  -18.2460 O   0  0  0  0  0  0  0  0  0  0  0  0
   20.7168  -13.3536  -17.3342 C   0  0  0  0  0  0  0  0  0  0  0  0
   21.0859  -11.9280  -17.4991 C   0  0  2  0  0  0  0  0  0  0  0  0
   21.9983  -11.6165  -18.5475 N   0  0  0  0  0  0  0  0  0  0  0  0
   21.5184  -11.2475  -16.2313 C   0  0  0  0  0  0  0  0  0  0  0  0
   20.7547  -11.1816  -15.2373 O   0  0  0  0  0  0  0  0  0  0  0  0
   27.0005   -9.9192  -16.0704 C   0  0  0  0  0  0  0  0  0  0  0  0
   25.6013  -10.5010  -15.9568 C   0  0  1  0  0  0  0  0  0  0  0  0
   25.6493  -11.9800  -16.0543 C   0  0  0  0  0  0  0  0  0  0  0  0
   24.8316   -9.9136  -14.8374 C   0  0  0  0  0  0  0  0  0  0  0  0
   23.3249   -9.9270  -15.0065 C   0  0  2  0  0  0  0  0  0  0  0  0
   22.8118  -10.6460  -16.1051 N   0  0  0  0  0  0  0  0  0  0  0  0
   22.7563   -8.5970  -14.7422 C   0  0  0  0  0  0  0  0  0  0  0  0
   23.1778   -7.9775  -13.7320 O   0  0  0  0  0  0  0  0  0  0  0  0
   21.7793   -7.9703  -15.5344 N   0  0  0  0  0  0  0  0  0  0  0  0
   21.2176   -6.6671  -15.1362 C   0  0  1  0  0  0  0  0  0  0  0  0
   22.1467   -5.6287  -15.6689 C   0  0  0  0  0  0  0  0  0  0  0  0
   21.8070   -4.2521  -15.2947 C   0  0  0  0  0  0  0  0  0  0  0  0
   20.7842   -4.0679  -14.5867 O   0  0  0  0  0  0  0  0  0  0  0  0
   19.8484   -6.5723  -15.6941 C   0  0  0  0  0  0  0  0  0  0  0  0
   18.7495   -6.0620  -15.0329 O   0  0  0  0  0  0  0  0  0  0  0  0
   22.5305   -3.1452  -15.6668 O   0  0  0  0  0  0  0  0  0  0  0  0
   19.6311   -6.9846  -16.8729 O   0  0  0  0  0  0  0  0  0  0  0  0
  1  2  1  0
  2  3  2  0
  4  2  1  0
  5  4  1  0
  5  6  1  6
  7  8  2  0
  7  5  1  0
 10  9  1  1
 10 11  1  0
 10 12  1  0
 13 12  1  6
 13 14  1  0
 14  7  1  0
 15 17  1  0
 15 13  1  0
 16 15  2  0
 18 17  1  0
 18 22  1  0
 18 19  1  6
 20 19  1  0
 21 20  2  0
 22 23  1  0
 24 20  1  0
 25 22  2  0
M  END
$$$$
