NLD.pdb
     RDKit          3D

 25 24  0  0  1  0  0  0  0  0999 V2000
   15.4312  -22.0844   -0.9020 N   0  0  0  0  0  0  0  0  0  0  0  0
   15.1675  -21.8749    0.4989 C   0  0  0  0  0  0  0  0  0  0  0  0
   14.1647  -22.3898    1.0287 O   0  0  0  0  0  0  0  0  0  0  0  0
   16.0784  -21.0575    1.2953 C   0  0  0  0  0  0  0  0  0  0  0  0
   15.3923  -20.2948    2.3646 C   0  0  2  0  0  0  0  0  0  0  0  0
   14.3007  -19.4702    1.9680 N   0  0  0  0  0  0  0  0  0  0  0  0
   16.3134  -19.5194    3.2633 C   0  0  0  0  0  0  0  0  0  0  0  0
   17.3248  -20.0579    3.7759 O   0  0  0  0  0  0  0  0  0  0  0  0
   17.4905  -14.1139    2.2560 C   0  0  0  0  0  0  0  0  0  0  0  0
   17.5321  -15.5828    2.6429 C   0  0  1  0  0  0  0  0  0  0  0  0
   18.8758  -16.1486    2.3716 C   0  0  0  0  0  0  0  0  0  0  0  0
   16.9392  -15.8359    3.9751 C   0  0  0  0  0  0  0  0  0  0  0  0
   16.8577  -17.2936    4.3844 C   0  0  2  0  0  0  0  0  0  0  0  0
   16.0761  -18.1417    3.5741 N   0  0  0  0  0  0  0  0  0  0  0  0
   16.7067  -17.4208    5.8416 C   0  0  0  0  0  0  0  0  0  0  0  0
   15.5367  -17.4783    6.2994 O   0  0  0  0  0  0  0  0  0  0  0  0
   17.7719  -17.4825    6.7562 N   0  0  0  0  0  0  0  0  0  0  0  0
   17.5095  -17.5994    8.2018 C   0  0  1  0  0  0  0  0  0  0  0  0
   18.6635  -18.3480    8.7790 C   0  0  0  0  0  0  0  0  0  0  0  0
   18.5631  -18.6156   10.2173 C   0  0  0  0  0  0  0  0  0  0  0  0
   17.5029  -18.2842   10.8069 O   0  0  0  0  0  0  0  0  0  0  0  0
   17.3638  -16.2307    8.7498 C   0  0  0  0  0  0  0  0  0  0  0  0
   16.7615  -15.9101    9.9496 O   0  0  0  0  0  0  0  0  0  0  0  0
   19.5512  -19.2040   10.9686 O   0  0  0  0  0  0  0  0  0  0  0  0
   17.8175  -15.2486    8.0892 O   0  0  0  0  0  0  0  0  0  0  0  0
  1  2  1  0
  2  3  2  0
  4  2  1  0
  5  4  1  0
  5  6  1  6
  7  8  2  0
  7  5  1  0
 10  9  1  1
 10 11  1  0
 10 12  1  0
 13 12  1  6
 13 14  1  0
 14  7  1  0
 15 17  1  0
 15 13  1  0
 16 15  2  0
 18 17  1  0
 18 22  1  0
 18 19  1  1
 20 19  1  0
 21 20  2  0
 22 23  1  0
 24 20  1  0
 25 22  2  0
M  END
$$$$
