NLD.pdb
     RDKit          3D

 25 24  0  0  1  0  0  0  0  0999 V2000
   15.7546  -11.6391  -16.4246 N   0  0  0  0  0  0  0  0  0  0  0  0
   16.3004  -12.0536  -15.1572 C   0  0  0  0  0  0  0  0  0  0  0  0
   15.7146  -12.9184  -14.4787 O   0  0  0  0  0  0  0  0  0  0  0  0
   17.5413  -11.4573  -14.6707 C   0  0  0  0  0  0  0  0  0  0  0  0
   18.1213  -10.4705  -15.6118 C   0  0  2  0  0  0  0  0  0  0  0  0
   18.6228  -10.9756  -16.8456 N   0  0  0  0  0  0  0  0  0  0  0  0
   19.1300   -9.5430  -14.9958 C   0  0  0  0  0  0  0  0  0  0  0  0
   18.8720   -8.9114  -13.9422 O   0  0  0  0  0  0  0  0  0  0  0  0
   24.5124  -10.7968  -15.5060 C   0  0  0  0  0  0  0  0  0  0  0  0
   23.1736  -10.3143  -14.9732 C   0  0  1  0  0  0  0  0  0  0  0  0
   23.0371  -10.6581  -13.5371 C   0  0  0  0  0  0  0  0  0  0  0  0
   22.8709   -8.9225  -15.3754 C   0  0  0  0  0  0  0  0  0  0  0  0
   21.4416   -8.4740  -15.1409 C   0  0  2  0  0  0  0  0  0  0  0  0
   20.4201   -9.3389  -15.5830 N   0  0  0  0  0  0  0  0  0  0  0  0
   21.2882   -7.0406  -15.4308 C   0  0  0  0  0  0  0  0  0  0  0  0
   22.0966   -6.2491  -14.8814 O   0  0  0  0  0  0  0  0  0  0  0  0
   20.3067   -6.4933  -16.2747 N   0  0  0  0  0  0  0  0  0  0  0  0
   20.1938   -5.0332  -16.4406 C   0  0  1  0  0  0  0  0  0  0  0  0
   20.2136   -4.7745  -17.9096 C   0  0  0  0  0  0  0  0  0  0  0  0
   20.1120   -3.3605  -18.2846 C   0  0  0  0  0  0  0  0  0  0  0  0
   20.0701   -2.5066  -17.3624 O   0  0  0  0  0  0  0  0  0  0  0  0
   18.9396   -4.5964  -15.7840 C   0  0  0  0  0  0  0  0  0  0  0  0
   18.8040   -3.4820  -14.9809 O   0  0  0  0  0  0  0  0  0  0  0  0
   20.0576   -2.9022  -19.5785 O   0  0  0  0  0  0  0  0  0  0  0  0
   17.8842   -5.2784  -15.9510 O   0  0  0  0  0  0  0  0  0  0  0  0
  1  2  1  0
  2  3  2  0
  4  2  1  0
  5  4  1  0
  5  6  1  6
  7  8  2  0
  7  5  1  0
 10  9  1  1
 10 11  1  0
 10 12  1  0
 13 12  1  6
 13 14  1  0
 14  7  1  0
 15 17  1  0
 15 13  1  0
 16 15  2  0
 18 17  1  0
 18 22  1  0
 18 19  1  6
 20 19  1  0
 21 20  2  0
 22 23  1  0
 24 20  1  0
 25 22  2  0
M  END
$$$$
