NLD.pdb
     RDKit          3D

 25 24  0  0  1  0  0  0  0  0999 V2000
   21.2317  -41.0024   -7.0980 N   0  0  0  0  0  0  0  0  0  0  0  0
   21.2200  -39.8497   -6.2336 C   0  0  0  0  0  0  0  0  0  0  0  0
   20.1491  -39.2605   -5.9939 O   0  0  0  0  0  0  0  0  0  0  0  0
   22.4664  -39.3741   -5.6400 C   0  0  0  0  0  0  0  0  0  0  0  0
   22.5277  -37.8985   -5.5184 C   0  0  2  0  0  0  0  0  0  0  0  0
   22.4665  -37.1499   -6.7287 N   0  0  0  0  0  0  0  0  0  0  0  0
   23.6555  -37.3917   -4.6650 C   0  0  0  0  0  0  0  0  0  0  0  0
   24.6453  -38.1169   -4.4003 O   0  0  0  0  0  0  0  0  0  0  0  0
   25.4824  -33.6239   -5.3469 C   0  0  0  0  0  0  0  0  0  0  0  0
   25.5807  -33.2959   -3.8664 C   0  0  1  0  0  0  0  0  0  0  0  0
   25.7170  -31.8321   -3.6715 C   0  0  0  0  0  0  0  0  0  0  0  0
   24.5601  -34.0017   -3.0597 C   0  0  0  0  0  0  0  0  0  0  0  0
   24.5553  -35.5120   -3.1938 C   0  0  2  0  0  0  0  0  0  0  0  0
   23.6477  -36.0683   -4.1177 N   0  0  0  0  0  0  0  0  0  0  0  0
   24.6597  -36.1552   -1.8756 C   0  0  0  0  0  0  0  0  0  0  0  0
   25.3397  -37.2104   -1.7986 O   0  0  0  0  0  0  0  0  0  0  0  0
   24.0565  -35.6772   -0.6997 N   0  0  0  0  0  0  0  0  0  0  0  0
   24.2350  -36.3936    0.5759 C   0  0  1  0  0  0  0  0  0  0  0  0
   25.7017  -36.4081    0.8478 C   0  0  0  0  0  0  0  0  0  0  0  0
   26.2421  -37.7175    1.2271 C   0  0  0  0  0  0  0  0  0  0  0  0
   25.4530  -38.6963    1.2548 O   0  0  0  0  0  0  0  0  0  0  0  0
   23.4525  -35.6798    1.6119 C   0  0  0  0  0  0  0  0  0  0  0  0
   23.1815  -36.1565    2.8785 O   0  0  0  0  0  0  0  0  0  0  0  0
   27.5551  -37.9498    1.5571 O   0  0  0  0  0  0  0  0  0  0  0  0
   22.9768  -34.5349    1.3480 O   0  0  0  0  0  0  0  0  0  0  0  0
  1  2  1  0
  2  3  2  0
  4  2  1  0
  5  4  1  0
  5  6  1  6
  7  8  2  0
  7  5  1  0
 10  9  1  6
 10 11  1  0
 10 12  1  0
 13 12  1  1
 13 14  1  0
 14  7  1  0
 15 17  1  0
 15 13  1  0
 16 15  2  0
 18 17  1  0
 18 22  1  0
 18 19  1  1
 20 19  1  0
 21 20  2  0
 22 23  1  0
 24 20  1  0
 25 22  2  0
M  END
$$$$
