NLD.pdb
     RDKit          3D

 25 24  0  0  1  0  0  0  0  0999 V2000
   18.6630  -13.8843  -20.0701 N   0  0  0  0  0  0  0  0  0  0  0  0
   20.0205  -13.5317  -19.7400 C   0  0  0  0  0  0  0  0  0  0  0  0
   20.9690  -14.0762  -20.3360 O   0  0  0  0  0  0  0  0  0  0  0  0
   20.2810  -12.5351  -18.7051 C   0  0  0  0  0  0  0  0  0  0  0  0
   21.5929  -12.7156  -18.0400 C   0  0  2  0  0  0  0  0  0  0  0  0
   21.7943  -13.9366  -17.3348 N   0  0  0  0  0  0  0  0  0  0  0  0
   22.0191  -11.5581  -17.1822 C   0  0  0  0  0  0  0  0  0  0  0  0
   21.2392  -11.0556  -16.3366 O   0  0  0  0  0  0  0  0  0  0  0  0
   27.5873  -10.6293  -16.1457 C   0  0  0  0  0  0  0  0  0  0  0  0
   26.0835  -10.7977  -16.0071 C   0  0  1  0  0  0  0  0  0  0  0  0
   25.7365  -11.2055  -14.6241 C   0  0  0  0  0  0  0  0  0  0  0  0
   25.3292   -9.6694  -16.5974 C   0  0  0  0  0  0  0  0  0  0  0  0
   23.8230   -9.8408  -16.6311 C   0  0  2  0  0  0  0  0  0  0  0  0
   23.3245  -10.9803  -17.2944 N   0  0  0  0  0  0  0  0  0  0  0  0
   23.1556   -8.5573  -16.8948 C   0  0  0  0  0  0  0  0  0  0  0  0
   23.1074   -8.1645  -18.0886 O   0  0  0  0  0  0  0  0  0  0  0  0
   22.5698   -7.7409  -15.9123 N   0  0  0  0  0  0  0  0  0  0  0  0
   21.8180   -6.5327  -16.2959 C   0  0  1  0  0  0  0  0  0  0  0  0
   20.6683   -6.9987  -17.1243 C   0  0  0  0  0  0  0  0  0  0  0  0
   19.7122   -5.9492  -17.4918 C   0  0  0  0  0  0  0  0  0  0  0  0
   20.0907   -4.7524  -17.4150 O   0  0  0  0  0  0  0  0  0  0  0  0
   21.4042   -5.8406  -15.0530 C   0  0  0  0  0  0  0  0  0  0  0  0
   20.8611   -4.5734  -14.9867 O   0  0  0  0  0  0  0  0  0  0  0  0
   18.4263   -6.1836  -17.9144 O   0  0  0  0  0  0  0  0  0  0  0  0
   21.5465   -6.4305  -13.9401 O   0  0  0  0  0  0  0  0  0  0  0  0
  1  2  1  0
  2  3  2  0
  4  2  1  0
  5  4  1  0
  5  6  1  1
  7  8  2  0
  7  5  1  0
 10  9  1  1
 10 11  1  0
 10 12  1  0
 13 12  1  6
 13 14  1  0
 14  7  1  0
 15 17  1  0
 15 13  1  0
 16 15  2  0
 18 17  1  0
 18 22  1  0
 18 19  1  1
 20 19  1  0
 21 20  2  0
 22 23  1  0
 24 20  1  0
 25 22  2  0
M  END
$$$$
