NLD.pdb
     RDKit          3D

 25 24  0  0  1  0  0  0  0  0999 V2000
   15.2257  -12.8900  -16.1918 N   0  0  0  0  0  0  0  0  0  0  0  0
   16.5106  -12.7667  -16.8320 C   0  0  0  0  0  0  0  0  0  0  0  0
   16.6434  -13.0808  -18.0299 O   0  0  0  0  0  0  0  0  0  0  0  0
   17.6561  -12.2729  -16.0729 C   0  0  0  0  0  0  0  0  0  0  0  0
   18.5622  -11.4186  -16.8760 C   0  0  2  0  0  0  0  0  0  0  0  0
   19.3132  -12.0624  -17.9009 N   0  0  0  0  0  0  0  0  0  0  0  0
   19.4662  -10.5357  -16.0631 C   0  0  0  0  0  0  0  0  0  0  0  0
   19.0108   -9.8104  -15.1455 O   0  0  0  0  0  0  0  0  0  0  0  0
   24.8662  -12.1113  -15.2799 C   0  0  0  0  0  0  0  0  0  0  0  0
   23.4500  -11.5954  -15.0866 C   0  0  1  0  0  0  0  0  0  0  0  0
   22.9932  -11.8531  -13.6995 C   0  0  0  0  0  0  0  0  0  0  0  0
   23.2651  -10.2294  -15.6254 C   0  0  0  0  0  0  0  0  0  0  0  0
   21.8392   -9.7138  -15.6153 C   0  0  2  0  0  0  0  0  0  0  0  0
   20.8772  -10.4823  -16.3016 N   0  0  0  0  0  0  0  0  0  0  0  0
   21.8077   -8.2568  -15.8113 C   0  0  0  0  0  0  0  0  0  0  0  0
   22.1985   -7.8135  -16.9216 O   0  0  0  0  0  0  0  0  0  0  0  0
   21.3738   -7.3273  -14.8508 N   0  0  0  0  0  0  0  0  0  0  0  0
   21.4341   -5.8813  -15.1298 C   0  0  1  0  0  0  0  0  0  0  0  0
   20.0350   -5.4500  -15.4161 C   0  0  0  0  0  0  0  0  0  0  0  0
   19.8636   -4.0047  -15.5961 C   0  0  0  0  0  0  0  0  0  0  0  0
   20.7256   -3.3876  -16.2725 O   0  0  0  0  0  0  0  0  0  0  0  0
   22.0241   -5.2138  -13.9461 C   0  0  0  0  0  0  0  0  0  0  0  0
   22.3503   -3.8752  -13.8633 O   0  0  0  0  0  0  0  0  0  0  0  0
   18.8236   -3.2751  -15.0736 O   0  0  0  0  0  0  0  0  0  0  0  0
   22.2629   -5.8974  -12.9057 O   0  0  0  0  0  0  0  0  0  0  0  0
  1  2  1  0
  2  3  2  0
  4  2  1  0
  5  4  1  0
  5  6  1  1
  7  8  2  0
  7  5  1  0
 10  9  1  1
 10 11  1  0
 10 12  1  0
 13 12  1  6
 13 14  1  0
 14  7  1  0
 15 17  1  0
 15 13  1  0
 16 15  2  0
 18 17  1  0
 18 22  1  0
 18 19  1  1
 20 19  1  0
 21 20  2  0
 22 23  1  0
 24 20  1  0
 25 22  2  0
M  END
$$$$
