NLD.pdb
     RDKit          3D

 25 24  0  0  1  0  0  0  0  0999 V2000
   18.3673  -12.2060  -20.3511 N   0  0  0  0  0  0  0  0  0  0  0  0
   19.6879  -11.6842  -20.1069 C   0  0  0  0  0  0  0  0  0  0  0  0
   20.6054  -11.9031  -20.9204 O   0  0  0  0  0  0  0  0  0  0  0  0
   19.9478  -10.8989  -18.9037 C   0  0  0  0  0  0  0  0  0  0  0  0
   21.1119  -11.3889  -18.1286 C   0  0  2  0  0  0  0  0  0  0  0  0
   21.0058  -12.6917  -17.5627 N   0  0  0  0  0  0  0  0  0  0  0  0
   21.6186  -10.4257  -17.0929 C   0  0  0  0  0  0  0  0  0  0  0  0
   20.8970  -10.0703  -16.1292 O   0  0  0  0  0  0  0  0  0  0  0  0
   27.1009  -10.4433  -15.9433 C   0  0  0  0  0  0  0  0  0  0  0  0
   25.5861  -10.3882  -15.8365 C   0  0  1  0  0  0  0  0  0  0  0  0
   25.1328  -11.0610  -14.5951 C   0  0  0  0  0  0  0  0  0  0  0  0
   25.0458   -9.0399  -16.1206 C   0  0  0  0  0  0  0  0  0  0  0  0
   23.5390   -8.9615  -16.2709 C   0  0  2  0  0  0  0  0  0  0  0  0
   22.9378   -9.8728  -17.1626 N   0  0  0  0  0  0  0  0  0  0  0  0
   23.0904   -7.5623  -16.3275 C   0  0  0  0  0  0  0  0  0  0  0  0
   23.3932   -6.8984  -17.3519 O   0  0  0  0  0  0  0  0  0  0  0  0
   22.3502   -6.9159  -15.3229 N   0  0  0  0  0  0  0  0  0  0  0  0
   21.8476   -5.5459  -15.5297 C   0  0  1  0  0  0  0  0  0  0  0  0
   20.4435   -5.5330  -15.0260 C   0  0  0  0  0  0  0  0  0  0  0  0
   19.4713   -6.1927  -15.9035 C   0  0  0  0  0  0  0  0  0  0  0  0
   19.4919   -5.9069  -17.1280 O   0  0  0  0  0  0  0  0  0  0  0  0
   22.7423   -4.6180  -14.7993 C   0  0  0  0  0  0  0  0  0  0  0  0
   22.6504   -3.2409  -14.8150 O   0  0  0  0  0  0  0  0  0  0  0  0
   18.5348   -7.1037  -15.4788 O   0  0  0  0  0  0  0  0  0  0  0  0
   23.6811   -5.0927  -14.0920 O   0  0  0  0  0  0  0  0  0  0  0  0
  1  2  1  0
  2  3  2  0
  4  2  1  0
  5  4  1  0
  5  6  1  1
  7  8  2  0
  7  5  1  0
 10  9  1  1
 10 11  1  0
 10 12  1  0
 13 12  1  6
 13 14  1  0
 14  7  1  0
 15 17  1  0
 15 13  1  0
 16 15  2  0
 18 17  1  0
 18 22  1  0
 18 19  1  1
 20 19  1  0
 21 20  2  0
 22 23  1  0
 24 20  1  0
 25 22  2  0
M  END
$$$$
