DCD.pdb
     RDKit          3D

 23 22  0  0  1  0  0  0  0  0999 V2000
    9.2487  -17.0941   16.7252 N   0  0  0  0  0  0  0  0  0  0  0  0
   10.0624  -17.7834   17.7097 C   0  0  1  0  0  0  0  0  0  0  0  0
   11.3677  -18.1407   17.0299 C   0  0  0  0  0  0  0  0  0  0  0  0
   11.1017  -19.0514   15.8631 C   0  0  0  0  0  0  0  0  0  0  0  0
   10.4687  -20.1227   16.0450 O   0  0  0  0  0  0  0  0  0  0  0  0
   10.2958  -16.9209   18.9024 C   0  0  0  0  0  0  0  0  0  0  0  0
   11.2047  -16.0407   18.8295 O   0  0  0  0  0  0  0  0  0  0  0  0
   11.5288  -18.7568   14.5851 O   0  0  0  0  0  0  0  0  0  0  0  0
    9.5319  -17.0758   20.0770 N   0  0  0  0  0  0  0  0  0  0  0  0
    9.7428  -16.2498   21.2218 C   0  0  1  0  0  0  0  0  0  0  0  0
    8.4726  -15.9716   21.9964 C   0  0  0  0  0  0  0  0  0  0  0  0
    8.7623  -15.0927   23.5246 S   0  0  0  0  0  0  0  0  0  0  0  0
   10.8144  -16.7881   22.1183 C   0  0  0  0  0  0  0  0  0  0  0  0
   10.8025  -18.0055   22.4326 O   0  0  0  0  0  0  0  0  0  0  0  0
   11.8494  -15.9633   22.6279 N   0  0  0  0  0  0  0  0  0  0  0  0
   12.8949  -16.4487   23.5187 C   0  0  1  0  0  0  0  0  0  0  0  0
   14.0101  -15.4373   23.6363 C   0  0  0  0  0  0  0  0  0  0  0  0
   15.3617  -16.0316   23.6017 C   0  0  0  0  0  0  0  0  0  0  0  0
   16.2057  -15.6628   22.7481 O   0  0  0  0  0  0  0  0  0  0  0  0
   12.3195  -16.8068   24.8379 C   0  0  0  0  0  0  0  0  0  0  0  0
   11.2985  -16.2717   25.2748 O   0  0  0  0  0  0  0  0  0  0  0  0
   15.7496  -17.0130   24.5034 O   0  0  0  0  0  0  0  0  0  0  0  0
   12.9270  -17.7823   25.6468 O   0  0  0  0  0  0  0  0  0  0  0  0
  2  1  1  6
  3  4  1  0
  3  2  1  0
  4  8  1  0
  5  4  2  0
  6  7  2  0
  6  2  1  0
  9  6  1  0
 10  9  1  0
 10 13  1  0
 10 11  1  1
 12 11  1  0
 13 15  1  0
 14 13  2  0
 15 16  1  0
 16 20  1  0
 16 17  1  1
 17 18  1  0
 18 22  1  0
 19 18  2  0
 20 21  2  0
 20 23  1  0
M  END
$$$$
