DCD.pdb
     RDKit          3D

 23 22  0  0  1  0  0  0  0  0999 V2000
    7.2572  -16.7366   20.1885 N   0  0  0  0  0  0  0  0  0  0  0  0
    8.6974  -16.5871   20.0871 C   0  0  1  0  0  0  0  0  0  0  0  0
    8.9627  -15.6582   18.9208 C   0  0  0  0  0  0  0  0  0  0  0  0
    8.7540  -16.3940   17.6259 C   0  0  0  0  0  0  0  0  0  0  0  0
    7.7307  -17.1097   17.4779 O   0  0  0  0  0  0  0  0  0  0  0  0
    9.2636  -16.0379   21.3515 C   0  0  0  0  0  0  0  0  0  0  0  0
   10.5220  -15.9120   21.4326 O   0  0  0  0  0  0  0  0  0  0  0  0
    9.6501  -16.3154   16.5803 O   0  0  0  0  0  0  0  0  0  0  0  0
    8.4293  -15.6689   22.4262 N   0  0  0  0  0  0  0  0  0  0  0  0
    8.9586  -15.3777   23.7194 C   0  0  1  0  0  0  0  0  0  0  0  0
    8.0433  -14.5085   24.5545 C   0  0  0  0  0  0  0  0  0  0  0  0
    6.3871  -15.1643   24.6915 S   0  0  0  0  0  0  0  0  0  0  0  0
    9.3515  -16.6169   24.4623 C   0  0  0  0  0  0  0  0  0  0  0  0
    8.6998  -17.6772   24.2826 O   0  0  0  0  0  0  0  0  0  0  0  0
   10.4424  -16.6334   25.3682 N   0  0  0  0  0  0  0  0  0  0  0  0
   10.8892  -17.8339   26.0620 C   0  0  1  0  0  0  0  0  0  0  0  0
   12.1080  -18.4187   25.3891 C   0  0  0  0  0  0  0  0  0  0  0  0
   12.4547  -19.7763   25.8561 C   0  0  0  0  0  0  0  0  0  0  0  0
   11.7781  -20.3422   26.7500 O   0  0  0  0  0  0  0  0  0  0  0  0
   11.1259  -17.5397   27.4962 C   0  0  0  0  0  0  0  0  0  0  0  0
   11.5499  -16.4477   27.8800 O   0  0  0  0  0  0  0  0  0  0  0  0
   13.5329  -20.4747   25.3304 O   0  0  0  0  0  0  0  0  0  0  0  0
   10.8712  -18.5093   28.4810 O   0  0  0  0  0  0  0  0  0  0  0  0
  2  1  1  1
  3  4  1  0
  3  2  1  0
  4  8  1  0
  5  4  2  0
  6  7  2  0
  6  2  1  0
  9  6  1  0
 10  9  1  0
 10 13  1  0
 10 11  1  1
 12 11  1  0
 13 15  1  0
 14 13  2  0
 15 16  1  0
 16 20  1  0
 16 17  1  6
 17 18  1  0
 18 22  1  0
 19 18  2  0
 20 21  2  0
 20 23  1  0
M  END
$$$$
