DCD.pdb
     RDKit          3D

 23 22  0  0  1  0  0  0  0  0999 V2000
    8.9576  -17.7576   18.5686 N   0  0  0  0  0  0  0  0  0  0  0  0
   10.4069  -17.7714   18.6452 C   0  0  1  0  0  0  0  0  0  0  0  0
   10.9238  -17.3462   17.2867 C   0  0  0  0  0  0  0  0  0  0  0  0
   10.2147  -18.1172   16.2077 C   0  0  0  0  0  0  0  0  0  0  0  0
   10.0947  -19.3644   16.3142 O   0  0  0  0  0  0  0  0  0  0  0  0
   10.8900  -16.8541   19.7156 C   0  0  0  0  0  0  0  0  0  0  0  0
   12.0234  -16.3083   19.5625 O   0  0  0  0  0  0  0  0  0  0  0  0
    9.6837  -17.5053   15.0915 O   0  0  0  0  0  0  0  0  0  0  0  0
   10.1139  -16.5987   20.8644 N   0  0  0  0  0  0  0  0  0  0  0  0
   10.6373  -15.8710   21.9752 C   0  0  1  0  0  0  0  0  0  0  0  0
    9.5700  -15.4319   22.9544 C   0  0  0  0  0  0  0  0  0  0  0  0
    8.4642  -16.7540   23.4249 S   0  0  0  0  0  0  0  0  0  0  0  0
   11.7354  -16.6136   22.6714 C   0  0  0  0  0  0  0  0  0  0  0  0
   11.7807  -17.8676   22.5901 O   0  0  0  0  0  0  0  0  0  0  0  0
   12.7327  -15.9435   23.4246 N   0  0  0  0  0  0  0  0  0  0  0  0
   13.9488  -16.5909   23.8980 C   0  0  1  0  0  0  0  0  0  0  0  0
   15.1718  -15.9264   23.3123 C   0  0  0  0  0  0  0  0  0  0  0  0
   16.4471  -16.5251   23.7555 C   0  0  0  0  0  0  0  0  0  0  0  0
   16.8868  -17.5730   23.2209 O   0  0  0  0  0  0  0  0  0  0  0  0
   13.9758  -16.6107   25.3807 C   0  0  0  0  0  0  0  0  0  0  0  0
   13.2280  -15.9037   26.0593 O   0  0  0  0  0  0  0  0  0  0  0  0
   17.2039  -15.9586   24.7718 O   0  0  0  0  0  0  0  0  0  0  0  0
   14.8672  -17.4481   26.0729 O   0  0  0  0  0  0  0  0  0  0  0  0
  2  1  1  6
  3  4  1  0
  3  2  1  0
  4  8  1  0
  5  4  2  0
  6  7  2  0
  6  2  1  0
  9  6  1  0
 10  9  1  0
 10 13  1  0
 10 11  1  1
 12 11  1  0
 13 15  1  0
 14 13  2  0
 15 16  1  0
 16 20  1  0
 16 17  1  1
 17 18  1  0
 18 22  1  0
 19 18  2  0
 20 21  2  0
 20 23  1  0
M  END
$$$$
