DCD.pdb
     RDKit          3D

 23 22  0  0  1  0  0  0  0  0999 V2000
    7.1019  -15.6573   20.6201 N   0  0  0  0  0  0  0  0  0  0  0  0
    8.3604  -15.8438   21.3186 C   0  0  1  0  0  0  0  0  0  0  0  0
    9.4630  -15.6494   20.2988 C   0  0  0  0  0  0  0  0  0  0  0  0
    9.4588  -16.7913   19.3201 C   0  0  0  0  0  0  0  0  0  0  0  0
    8.5576  -17.6654   19.3918 O   0  0  0  0  0  0  0  0  0  0  0  0
    8.4913  -14.8748   22.4432 C   0  0  0  0  0  0  0  0  0  0  0  0
    8.6332  -13.6486   22.1565 O   0  0  0  0  0  0  0  0  0  0  0  0
   10.4148  -16.9214   18.3344 O   0  0  0  0  0  0  0  0  0  0  0  0
    8.4589  -15.3044   23.7855 N   0  0  0  0  0  0  0  0  0  0  0  0
    8.2311  -14.3914   24.8587 C   0  0  1  0  0  0  0  0  0  0  0  0
    6.9938  -13.5417   24.6640 C   0  0  0  0  0  0  0  0  0  0  0  0
    6.5684  -12.5821   26.1097 S   0  0  0  0  0  0  0  0  0  0  0  0
    8.2109  -15.0765   26.1899 C   0  0  0  0  0  0  0  0  0  0  0  0
    7.4376  -16.0514   26.3708 O   0  0  0  0  0  0  0  0  0  0  0  0
    9.0416  -14.6584   27.2605 N   0  0  0  0  0  0  0  0  0  0  0  0
    9.7721  -15.5841   28.1159 C   0  0  1  0  0  0  0  0  0  0  0  0
   10.7429  -16.4094   27.3053 C   0  0  0  0  0  0  0  0  0  0  0  0
   10.3849  -17.8397   27.2198 C   0  0  0  0  0  0  0  0  0  0  0  0
    9.4544  -18.3135   27.9175 O   0  0  0  0  0  0  0  0  0  0  0  0
   10.4420  -14.8474   29.2150 C   0  0  0  0  0  0  0  0  0  0  0  0
   10.8313  -15.4111   30.2399 O   0  0  0  0  0  0  0  0  0  0  0  0
   11.0569  -18.7097   26.3725 O   0  0  0  0  0  0  0  0  0  0  0  0
   10.6591  -13.4619   29.1248 O   0  0  0  0  0  0  0  0  0  0  0  0
  2  1  1  6
  3  4  1  0
  3  2  1  0
  4  8  1  0
  5  4  2  0
  6  7  2  0
  6  2  1  0
  9  6  1  0
 10  9  1  0
 10 13  1  0
 10 11  1  6
 12 11  1  0
 13 15  1  0
 14 13  2  0
 15 16  1  0
 16 20  1  0
 16 17  1  6
 17 18  1  0
 18 22  1  0
 19 18  2  0
 20 21  2  0
 20 23  1  0
M  END
$$$$
