DCD.pdb
     RDKit          3D

 23 22  0  0  1  0  0  0  0  0999 V2000
    8.0674  -18.0084   20.1271 N   0  0  0  0  0  0  0  0  0  0  0  0
    9.0301  -16.9259   20.2152 C   0  0  1  0  0  0  0  0  0  0  0  0
    8.5627  -15.8425   19.2658 C   0  0  0  0  0  0  0  0  0  0  0  0
    8.7946  -16.2758   17.8445 C   0  0  0  0  0  0  0  0  0  0  0  0
    9.3844  -17.3628   17.6166 O   0  0  0  0  0  0  0  0  0  0  0  0
    9.1251  -16.4132   21.6112 C   0  0  0  0  0  0  0  0  0  0  0  0
    9.0174  -15.1636   21.7931 O   0  0  0  0  0  0  0  0  0  0  0  0
    8.3820  -15.5207   16.7666 O   0  0  0  0  0  0  0  0  0  0  0  0
    9.3286  -17.2872   22.6984 N   0  0  0  0  0  0  0  0  0  0  0  0
    9.3916  -16.8092   24.0418 C   0  0  1  0  0  0  0  0  0  0  0  0
    8.1583  -16.0357   24.4562 C   0  0  0  0  0  0  0  0  0  0  0  0
    6.6900  -17.0502   24.5385 S   0  0  0  0  0  0  0  0  0  0  0  0
    9.6954  -17.9031   25.0181 C   0  0  0  0  0  0  0  0  0  0  0  0
    9.0430  -18.9767   24.9649 O   0  0  0  0  0  0  0  0  0  0  0  0
   10.7021  -17.7662   26.0074 N   0  0  0  0  0  0  0  0  0  0  0  0
   11.1465  -18.8646   26.8549 C   0  0  1  0  0  0  0  0  0  0  0  0
   12.6481  -19.0138   26.7943 C   0  0  0  0  0  0  0  0  0  0  0  0
   13.1895  -19.0542   25.4209 C   0  0  0  0  0  0  0  0  0  0  0  0
   12.6947  -19.8185   24.5558 O   0  0  0  0  0  0  0  0  0  0  0  0
   10.6563  -18.6737   28.2415 C   0  0  0  0  0  0  0  0  0  0  0  0
   10.8370  -19.5168   29.1225 O   0  0  0  0  0  0  0  0  0  0  0  0
   14.2575  -18.2562   25.0347 O   0  0  0  0  0  0  0  0  0  0  0  0
    9.9591  -17.5086   28.6040 O   0  0  0  0  0  0  0  0  0  0  0  0
  2  1  1  1
  3  4  1  0
  3  2  1  0
  4  8  1  0
  5  4  2  0
  6  7  2  0
  6  2  1  0
  9  6  1  0
 10  9  1  0
 10 13  1  0
 10 11  1  1
 12 11  1  0
 13 15  1  0
 14 13  2  0
 15 16  1  0
 16 20  1  0
 16 17  1  1
 17 18  1  0
 18 22  1  0
 19 18  2  0
 20 21  2  0
 20 23  1  0
M  END
$$$$
