DCD.pdb
     RDKit          3D

 23 22  0  0  1  0  0  0  0  0999 V2000
    7.9904  -13.2404   19.6986 N   0  0  0  0  0  0  0  0  0  0  0  0
    7.5146  -14.2692   20.6052 C   0  0  1  0  0  0  0  0  0  0  0  0
    7.9266  -15.6015   20.0146 C   0  0  0  0  0  0  0  0  0  0  0  0
    7.3305  -15.7568   18.6427 C   0  0  0  0  0  0  0  0  0  0  0  0
    6.1246  -15.4545   18.4533 O   0  0  0  0  0  0  0  0  0  0  0  0
    8.0904  -14.0835   21.9670 C   0  0  0  0  0  0  0  0  0  0  0  0
    9.3504  -14.1394   22.0912 O   0  0  0  0  0  0  0  0  0  0  0  0
    8.0608  -16.2231   17.5696 O   0  0  0  0  0  0  0  0  0  0  0  0
    7.2633  -13.8529   23.0850 N   0  0  0  0  0  0  0  0  0  0  0  0
    7.7950  -13.7797   24.4076 C   0  0  1  0  0  0  0  0  0  0  0  0
    6.9233  -12.9847   25.3557 C   0  0  0  0  0  0  0  0  0  0  0  0
    7.5670  -12.9320   27.0215 S   0  0  0  0  0  0  0  0  0  0  0  0
    8.1069  -15.1328   24.9678 C   0  0  0  0  0  0  0  0  0  0  0  0
    7.2754  -16.0655   24.8278 O   0  0  0  0  0  0  0  0  0  0  0  0
    9.3182  -15.3979   25.6559 N   0  0  0  0  0  0  0  0  0  0  0  0
    9.6705  -16.7105   26.1805 C   0  0  1  0  0  0  0  0  0  0  0  0
   10.4707  -17.4945   25.1679 C   0  0  0  0  0  0  0  0  0  0  0  0
   10.9162  -18.8166   25.6526 C   0  0  0  0  0  0  0  0  0  0  0  0
   10.4072  -19.3313   26.6787 O   0  0  0  0  0  0  0  0  0  0  0  0
   10.3825  -16.5720   27.4741 C   0  0  0  0  0  0  0  0  0  0  0  0
    9.8597  -16.8820   28.5465 O   0  0  0  0  0  0  0  0  0  0  0  0
   11.9067  -19.5366   24.9990 O   0  0  0  0  0  0  0  0  0  0  0  0
   11.6963  -16.0756   27.5225 O   0  0  0  0  0  0  0  0  0  0  0  0
  2  1  1  6
  3  4  1  0
  3  2  1  0
  4  8  1  0
  5  4  2  0
  6  7  2  0
  6  2  1  0
  9  6  1  0
 10  9  1  0
 10 13  1  0
 10 11  1  1
 12 11  1  0
 13 15  1  0
 14 13  2  0
 15 16  1  0
 16 20  1  0
 16 17  1  6
 17 18  1  0
 18 22  1  0
 19 18  2  0
 20 21  2  0
 20 23  1  0
M  END
$$$$
