DCD.pdb
     RDKit          3D

 23 22  0  0  1  0  0  0  0  0999 V2000
   10.8581  -16.3384   23.7094 N   0  0  0  0  0  0  0  0  0  0  0  0
   12.0456  -16.9066   24.3205 C   0  0  1  0  0  0  0  0  0  0  0  0
   13.2339  -16.1587   23.7528 C   0  0  0  0  0  0  0  0  0  0  0  0
   13.2717  -16.3218   22.2583 C   0  0  0  0  0  0  0  0  0  0  0  0
   12.6565  -17.2794   21.7238 O   0  0  0  0  0  0  0  0  0  0  0  0
   11.9902  -16.7810   25.8044 C   0  0  0  0  0  0  0  0  0  0  0  0
   13.0088  -17.1377   26.4687 O   0  0  0  0  0  0  0  0  0  0  0  0
   13.9621  -15.4533   21.4389 O   0  0  0  0  0  0  0  0  0  0  0  0
   10.8425  -16.2816   26.4531 N   0  0  0  0  0  0  0  0  0  0  0  0
   10.7233  -16.2893   27.8754 C   0  0  1  0  0  0  0  0  0  0  0  0
    9.9017  -15.1358   28.4095 C   0  0  0  0  0  0  0  0  0  0  0  0
   10.1222  -13.6279   27.4770 S   0  0  0  0  0  0  0  0  0  0  0  0
   10.2150  -17.5989   28.3936 C   0  0  0  0  0  0  0  0  0  0  0  0
    9.2623  -18.1687   27.8030 O   0  0  0  0  0  0  0  0  0  0  0  0
   10.7774  -18.2215   29.5369 N   0  0  0  0  0  0  0  0  0  0  0  0
   10.4300  -19.5693   29.9671 C   0  0  1  0  0  0  0  0  0  0  0  0
   10.5938  -20.5522   28.8325 C   0  0  0  0  0  0  0  0  0  0  0  0
   10.3364  -21.9552   29.2155 C   0  0  0  0  0  0  0  0  0  0  0  0
    9.3250  -22.2624   29.8935 O   0  0  0  0  0  0  0  0  0  0  0  0
   11.2269  -19.9489   31.1590 C   0  0  0  0  0  0  0  0  0  0  0  0
   11.0785  -21.0320   31.7287 O   0  0  0  0  0  0  0  0  0  0  0  0
   11.1947  -22.9811   28.8447 O   0  0  0  0  0  0  0  0  0  0  0  0
   12.1921  -19.0748   31.6873 O   0  0  0  0  0  0  0  0  0  0  0  0
  2  1  1  6
  3  4  1  0
  3  2  1  0
  4  8  1  0
  5  4  2  0
  6  7  2  0
  6  2  1  0
  9  6  1  0
 10  9  1  0
 10 13  1  0
 10 11  1  6
 12 11  1  0
 13 15  1  0
 14 13  2  0
 15 16  1  0
 16 20  1  0
 16 17  1  6
 17 18  1  0
 18 22  1  0
 19 18  2  0
 20 21  2  0
 20 23  1  0
M  END
$$$$
