DCD.pdb
     RDKit          3D

 23 22  0  0  1  0  0  0  0  0999 V2000
   10.9656  -16.2510   16.4097 N   0  0  0  0  0  0  0  0  0  0  0  0
    9.7537  -16.2853   17.2077 C   0  0  1  0  0  0  0  0  0  0  0  0
    9.5136  -17.7330   17.5819 C   0  0  0  0  0  0  0  0  0  0  0  0
    8.6556  -18.3933   16.5383 C   0  0  0  0  0  0  0  0  0  0  0  0
    8.3099  -17.7436   15.5186 O   0  0  0  0  0  0  0  0  0  0  0  0
    9.8939  -15.4323   18.4216 C   0  0  0  0  0  0  0  0  0  0  0  0
   11.0061  -14.8571   18.6174 O   0  0  0  0  0  0  0  0  0  0  0  0
    8.2263  -19.6990   16.6545 O   0  0  0  0  0  0  0  0  0  0  0  0
    8.8256  -15.2676   19.3265 N   0  0  0  0  0  0  0  0  0  0  0  0
    8.8648  -14.2845   20.3604 C   0  0  1  0  0  0  0  0  0  0  0  0
    7.7003  -13.3190   20.3073 C   0  0  0  0  0  0  0  0  0  0  0  0
    7.4183  -12.6507   18.6746 S   0  0  0  0  0  0  0  0  0  0  0  0
    8.9952  -14.8979   21.7201 C   0  0  0  0  0  0  0  0  0  0  0  0
    8.9627  -14.1585   22.7366 O   0  0  0  0  0  0  0  0  0  0  0  0
    9.1552  -16.2955   21.8993 N   0  0  0  0  0  0  0  0  0  0  0  0
   10.2552  -16.8858   22.6501 C   0  0  1  0  0  0  0  0  0  0  0  0
   11.5097  -16.9363   21.8109 C   0  0  0  0  0  0  0  0  0  0  0  0
   12.6828  -17.4829   22.5223 C   0  0  0  0  0  0  0  0  0  0  0  0
   13.2949  -16.7964   23.3774 O   0  0  0  0  0  0  0  0  0  0  0  0
   10.4597  -16.1525   23.9229 C   0  0  0  0  0  0  0  0  0  0  0  0
    9.8440  -15.1184   24.1896 O   0  0  0  0  0  0  0  0  0  0  0  0
   13.1517  -18.7660   22.2764 O   0  0  0  0  0  0  0  0  0  0  0  0
   11.3751  -16.6179   24.8822 O   0  0  0  0  0  0  0  0  0  0  0  0
  2  1  1  1
  3  4  1  0
  3  2  1  0
  4  8  1  0
  5  4  2  0
  6  7  2  0
  6  2  1  0
  9  6  1  0
 10  9  1  0
 10 13  1  0
 10 11  1  1
 12 11  1  0
 13 15  1  0
 14 13  2  0
 15 16  1  0
 16 20  1  0
 16 17  1  6
 17 18  1  0
 18 22  1  0
 19 18  2  0
 20 21  2  0
 20 23  1  0
M  END
$$$$
