DCD.pdb
     RDKit          3D

 23 22  0  0  1  0  0  0  0  0999 V2000
   11.0047  -17.8258   17.9833 N   0  0  0  0  0  0  0  0  0  0  0  0
   12.2953  -17.2948   18.3819 C   0  0  1  0  0  0  0  0  0  0  0  0
   12.6185  -16.1621   17.4300 C   0  0  0  0  0  0  0  0  0  0  0  0
   12.6067  -16.6677   16.0138 C   0  0  0  0  0  0  0  0  0  0  0  0
   13.2565  -17.7035   15.7203 O   0  0  0  0  0  0  0  0  0  0  0  0
   12.2593  -16.8175   19.7931 C   0  0  0  0  0  0  0  0  0  0  0  0
   13.3136  -16.3031   20.2727 O   0  0  0  0  0  0  0  0  0  0  0  0
   11.9037  -16.0343   15.0103 O   0  0  0  0  0  0  0  0  0  0  0  0
   11.0913  -16.9329   20.5740 N   0  0  0  0  0  0  0  0  0  0  0  0
   11.0971  -16.6595   21.9749 C   0  0  1  0  0  0  0  0  0  0  0  0
    9.7094  -16.6144   22.5776 C   0  0  0  0  0  0  0  0  0  0  0  0
    9.7037  -16.0856   24.2841 S   0  0  0  0  0  0  0  0  0  0  0  0
   11.9834  -17.5997   22.7314 C   0  0  0  0  0  0  0  0  0  0  0  0
   12.7046  -18.4123   22.0984 O   0  0  0  0  0  0  0  0  0  0  0  0
   12.0359  -17.6033   24.1485 N   0  0  0  0  0  0  0  0  0  0  0  0
   12.9151  -18.4760   24.9151 C   0  0  1  0  0  0  0  0  0  0  0  0
   14.3626  -18.2042   24.5816 C   0  0  0  0  0  0  0  0  0  0  0  0
   15.0833  -19.3777   24.0480 C   0  0  0  0  0  0  0  0  0  0  0  0
   14.4858  -20.4639   23.8473 O   0  0  0  0  0  0  0  0  0  0  0  0
   12.6371  -18.3388   26.3654 C   0  0  0  0  0  0  0  0  0  0  0  0
   12.0703  -17.3491   26.8333 O   0  0  0  0  0  0  0  0  0  0  0  0
   16.4380  -19.3274   23.7497 O   0  0  0  0  0  0  0  0  0  0  0  0
   13.0157  -19.3463   27.2690 O   0  0  0  0  0  0  0  0  0  0  0  0
  2  1  1  6
  3  4  1  0
  3  2  1  0
  4  8  1  0
  5  4  2  0
  6  7  2  0
  6  2  1  0
  9  6  1  0
 10  9  1  0
 10 13  1  0
 10 11  1  1
 12 11  1  0
 13 15  1  0
 14 13  2  0
 15 16  1  0
 16 20  1  0
 16 17  1  1
 17 18  1  0
 18 22  1  0
 19 18  2  0
 20 21  2  0
 20 23  1  0
M  END
$$$$
