DCD.pdb
     RDKit          3D

 23 22  0  0  1  0  0  0  0  0999 V2000
    7.8541  -16.8115   16.4589 N   0  0  0  0  0  0  0  0  0  0  0  0
    8.3002  -17.7429   17.4788 C   0  0  1  0  0  0  0  0  0  0  0  0
    9.2432  -18.7168   16.8036 C   0  0  0  0  0  0  0  0  0  0  0  0
    8.5200  -19.4490   15.7071 C   0  0  0  0  0  0  0  0  0  0  0  0
    8.9274  -20.5824   15.3455 O   0  0  0  0  0  0  0  0  0  0  0  0
    8.9782  -17.0233   18.5939 C   0  0  0  0  0  0  0  0  0  0  0  0
   10.2453  -17.0161   18.6119 O   0  0  0  0  0  0  0  0  0  0  0  0
    7.4140  -18.9223   15.0734 O   0  0  0  0  0  0  0  0  0  0  0  0
    8.2371  -16.3699   19.5994 N   0  0  0  0  0  0  0  0  0  0  0  0
    8.8759  -15.6255   20.6363 C   0  0  1  0  0  0  0  0  0  0  0  0
    8.0311  -14.4811   21.1535 C   0  0  0  0  0  0  0  0  0  0  0  0
    6.3097  -14.9155   21.3531 S   0  0  0  0  0  0  0  0  0  0  0  0
    9.3416  -16.5018   21.7575 C   0  0  0  0  0  0  0  0  0  0  0  0
    8.6038  -17.4387   22.1561 O   0  0  0  0  0  0  0  0  0  0  0  0
   10.5966  -16.3076   22.3886 N   0  0  0  0  0  0  0  0  0  0  0  0
   11.0800  -17.1393   23.4826 C   0  0  1  0  0  0  0  0  0  0  0  0
   12.5415  -17.4712   23.2972 C   0  0  0  0  0  0  0  0  0  0  0  0
   12.8315  -18.2203   22.0579 C   0  0  0  0  0  0  0  0  0  0  0  0
   12.1685  -19.2424   21.7531 O   0  0  0  0  0  0  0  0  0  0  0  0
   10.8141  -16.4804   24.7844 C   0  0  0  0  0  0  0  0  0  0  0  0
   11.0359  -17.0405   25.8599 O   0  0  0  0  0  0  0  0  0  0  0  0
   13.8397  -17.8280   21.1882 O   0  0  0  0  0  0  0  0  0  0  0  0
   10.2930  -15.1763   24.8375 O   0  0  0  0  0  0  0  0  0  0  0  0
  2  1  1  6
  3  4  1  0
  3  2  1  0
  4  8  1  0
  5  4  2  0
  6  7  2  0
  6  2  1  0
  9  6  1  0
 10  9  1  0
 10 13  1  0
 10 11  1  1
 12 11  1  0
 13 15  1  0
 14 13  2  0
 15 16  1  0
 16 20  1  0
 16 17  1  6
 17 18  1  0
 18 22  1  0
 19 18  2  0
 20 21  2  0
 20 23  1  0
M  END
$$$$
