DKG.pdb
     RDKit          3D

 22 21  0  0  1  0  0  0  0  0999 V2000
   21.1893  -10.0435  -17.2056 N   0  0  0  0  0  0  0  0  0  0  0  0
   21.0855  -10.1329  -15.7618 C   0  0  1  0  0  0  0  0  0  0  0  0
   20.8015  -11.5439  -15.3369 C   0  0  0  0  0  0  0  0  0  0  0  0
   19.5415  -12.0630  -15.9028 C   0  0  0  0  0  0  0  0  0  0  0  0
   18.5794  -11.2727  -16.0754 O   0  0  0  0  0  0  0  0  0  0  0  0
   22.3053   -9.5862  -15.0956 C   0  0  0  0  0  0  0  0  0  0  0  0
   22.4073   -9.5693  -13.8484 O   0  0  0  0  0  0  0  0  0  0  0  0
   19.3464  -13.3885  -16.2628 O   0  0  0  0  0  0  0  0  0  0  0  0
   23.3530   -9.0838  -15.8738 N   0  0  0  0  0  0  0  0  0  0  0  0
   24.5889   -8.5167  -15.3081 C   0  0  1  0  0  0  0  0  0  0  0  0
   25.7155   -9.0505  -16.1676 C   0  0  0  0  0  0  0  0  0  0  0  0
   26.1193  -10.4473  -15.8867 C   0  0  0  0  0  0  0  0  0  0  0  0
   27.2756  -10.8452  -16.8075 C   0  0  0  0  0  0  0  0  0  0  0  0
   27.6383  -12.2979  -16.5977 C   0  0  0  0  0  0  0  0  0  0  0  0
   28.5885  -12.7423  -17.5970 N   0  0  0  0  0  0  0  0  0  0  0  0
   24.5179   -7.0609  -15.2298 C   0  0  0  0  0  0  0  0  0  0  0  0
   25.6192   -6.4292  -15.0659 O   0  0  0  0  0  0  0  0  0  0  0  0
   23.3523   -6.2607  -15.3201 N   0  0  0  0  0  0  0  0  0  0  0  0
   23.3736   -4.8223  -15.1214 C   0  0  0  0  0  0  0  0  0  0  0  0
   22.0168   -4.2445  -15.3693 C   0  0  0  0  0  0  0  0  0  0  0  0
   21.8198   -2.9117  -15.6353 O   0  0  0  0  0  0  0  0  0  0  0  0
   21.0247   -5.0068  -15.3324 O   0  0  0  0  0  0  0  0  0  0  0  0
  2  6  1  0
  2  3  1  0
  2  1  1  6
  3  4  1  0
  4  8  1  0
  4  5  2  0
  6  7  2  0
  9 10  1  0
  9  6  1  0
 10 16  1  0
 11 12  1  0
 10 11  1  6
 12 13  1  0
 13 14  1  0
 14 15  1  0
 16 18  1  0
 16 17  2  0
 18 19  1  0
 20 21  1  0
 20 19  1  0
 22 20  2  0
M  END
$$$$
