DKG.pdb
     RDKit          3D

 22 21  0  0  1  0  0  0  0  0999 V2000
   16.3785  -14.2957  -13.9019 N   0  0  0  0  0  0  0  0  0  0  0  0
   17.1807  -14.1392  -15.1000 C   0  0  1  0  0  0  0  0  0  0  0  0
   16.8518  -15.2072  -16.1016 C   0  0  0  0  0  0  0  0  0  0  0  0
   17.2845  -16.5478  -15.6626 C   0  0  0  0  0  0  0  0  0  0  0  0
   16.5812  -17.1730  -14.8292 O   0  0  0  0  0  0  0  0  0  0  0  0
   17.0312  -12.7700  -15.6775 C   0  0  0  0  0  0  0  0  0  0  0  0
   17.5910  -12.4578  -16.7524 O   0  0  0  0  0  0  0  0  0  0  0  0
   18.4361  -17.1736  -16.1174 O   0  0  0  0  0  0  0  0  0  0  0  0
   16.2542  -11.8179  -15.0100 N   0  0  0  0  0  0  0  0  0  0  0  0
   15.8621  -10.5270  -15.6007 C   0  0  1  0  0  0  0  0  0  0  0  0
   14.4958  -10.2128  -15.0285 C   0  0  0  0  0  0  0  0  0  0  0  0
   13.4400  -11.2074  -15.3272 C   0  0  0  0  0  0  0  0  0  0  0  0
   12.3433  -11.1313  -14.2620 C   0  0  0  0  0  0  0  0  0  0  0  0
   11.1990  -12.0526  -14.6193 C   0  0  0  0  0  0  0  0  0  0  0  0
   10.0608  -11.8221  -13.7532 N   0  0  0  0  0  0  0  0  0  0  0  0
   16.8747   -9.5035  -15.3603 C   0  0  0  0  0  0  0  0  0  0  0  0
   17.5618   -9.6012  -14.2847 O   0  0  0  0  0  0  0  0  0  0  0  0
   17.1869   -8.4039  -16.1972 N   0  0  0  0  0  0  0  0  0  0  0  0
   18.3478   -7.5591  -15.9782 C   0  0  0  0  0  0  0  0  0  0  0  0
   18.0204   -6.4698  -15.0073 C   0  0  0  0  0  0  0  0  0  0  0  0
   18.9391   -5.5247  -14.6215 O   0  0  0  0  0  0  0  0  0  0  0  0
   16.8646   -6.4199  -14.5296 O   0  0  0  0  0  0  0  0  0  0  0  0
  2  6  1  0
  2  3  1  0
  2  1  1  1
  3  4  1  0
  4  8  1  0
  4  5  2  0
  6  7  2  0
  9 10  1  0
  9  6  1  0
 10 16  1  0
 11 12  1  0
 10 11  1  1
 12 13  1  0
 13 14  1  0
 14 15  1  0
 16 18  1  0
 16 17  2  0
 18 19  1  0
 20 21  1  0
 20 19  1  0
 22 20  2  0
M  END
$$$$
