DKG.pdb
     RDKit          3D

 22 21  0  0  1  0  0  0  0  0999 V2000
   17.9550  -11.1909  -15.5206 N   0  0  0  0  0  0  0  0  0  0  0  0
   19.2204  -10.6164  -15.9353 C   0  0  1  0  0  0  0  0  0  0  0  0
   19.6979  -11.2492  -17.2095 C   0  0  0  0  0  0  0  0  0  0  0  0
   20.2011  -12.6213  -17.0063 C   0  0  0  0  0  0  0  0  0  0  0  0
   20.1597  -13.1216  -15.8540 O   0  0  0  0  0  0  0  0  0  0  0  0
   19.1286   -9.1302  -16.0526 C   0  0  0  0  0  0  0  0  0  0  0  0
   19.7497   -8.5134  -16.9470 O   0  0  0  0  0  0  0  0  0  0  0  0
   20.7255  -13.4083  -18.0213 O   0  0  0  0  0  0  0  0  0  0  0  0
   18.3370   -8.4120  -15.1508 N   0  0  0  0  0  0  0  0  0  0  0  0
   18.2313   -6.9430  -15.1500 C   0  0  1  0  0  0  0  0  0  0  0  0
   16.7588   -6.6383  -14.9716 C   0  0  0  0  0  0  0  0  0  0  0  0
   15.8437   -7.3945  -15.8570 C   0  0  0  0  0  0  0  0  0  0  0  0
   14.4494   -7.4539  -15.2280 C   0  0  0  0  0  0  0  0  0  0  0  0
   13.5533   -8.3761  -16.0232 C   0  0  0  0  0  0  0  0  0  0  0  0
   12.2383   -8.4636  -15.4215 N   0  0  0  0  0  0  0  0  0  0  0  0
   19.1042   -6.3483  -14.1425 C   0  0  0  0  0  0  0  0  0  0  0  0
   19.3568   -7.0477  -13.1005 O   0  0  0  0  0  0  0  0  0  0  0  0
   19.7125   -5.0698  -14.1929 N   0  0  0  0  0  0  0  0  0  0  0  0
   21.0532   -4.8614  -14.7108 C   0  0  0  0  0  0  0  0  0  0  0  0
   22.0666   -5.4325  -13.7709 C   0  0  0  0  0  0  0  0  0  0  0  0
   22.6956   -4.6740  -12.8144 O   0  0  0  0  0  0  0  0  0  0  0  0
   22.3503   -6.6482  -13.8616 O   0  0  0  0  0  0  0  0  0  0  0  0
  2  6  1  0
  2  3  1  0
  2  1  1  6
  3  4  1  0
  4  8  1  0
  4  5  2  0
  6  7  2  0
  9 10  1  0
  9  6  1  0
 10 16  1  0
 11 12  1  0
 10 11  1  1
 12 13  1  0
 13 14  1  0
 14 15  1  0
 16 18  1  0
 16 17  2  0
 18 19  1  0
 20 21  1  0
 20 19  1  0
 22 20  2  0
M  END
$$$$
