DKG.pdb
     RDKit          3D

 22 21  0  0  1  0  0  0  0  0999 V2000
   14.3515  -12.5317  -14.9776 N   0  0  0  0  0  0  0  0  0  0  0  0
   15.3434  -12.2292  -13.9637 C   0  0  1  0  0  0  0  0  0  0  0  0
   16.6958  -12.7295  -14.3790 C   0  0  0  0  0  0  0  0  0  0  0  0
   16.7083  -14.1829  -14.6332 C   0  0  0  0  0  0  0  0  0  0  0  0
   16.2345  -14.9580  -13.7645 O   0  0  0  0  0  0  0  0  0  0  0  0
   15.3641  -10.7705  -13.6437 C   0  0  0  0  0  0  0  0  0  0  0  0
   14.8772   -9.9293  -14.4322 O   0  0  0  0  0  0  0  0  0  0  0  0
   17.2175  -14.7593  -15.7879 O   0  0  0  0  0  0  0  0  0  0  0  0
   15.9356  -10.3325  -12.4448 N   0  0  0  0  0  0  0  0  0  0  0  0
   15.9036   -8.9319  -11.9908 C   0  0  1  0  0  0  0  0  0  0  0  0
   15.2000   -8.9517  -10.6501 C   0  0  0  0  0  0  0  0  0  0  0  0
   13.7246   -9.0638  -10.7107 C   0  0  0  0  0  0  0  0  0  0  0  0
   13.1395   -8.9400   -9.3016 C   0  0  0  0  0  0  0  0  0  0  0  0
   11.6315   -8.8520   -9.3648 C   0  0  0  0  0  0  0  0  0  0  0  0
   11.0629   -8.7704   -8.0348 N   0  0  0  0  0  0  0  0  0  0  0  0
   17.2421   -8.3499  -11.9692 C   0  0  0  0  0  0  0  0  0  0  0  0
   17.3822   -7.2263  -11.3719 O   0  0  0  0  0  0  0  0  0  0  0  0
   18.4170   -8.8992  -12.5392 N   0  0  0  0  0  0  0  0  0  0  0  0
   19.6831   -8.1881  -12.5590 C   0  0  0  0  0  0  0  0  0  0  0  0
   19.7324   -7.2496  -13.7223 C   0  0  0  0  0  0  0  0  0  0  0  0
   20.8467   -6.5056  -14.0233 O   0  0  0  0  0  0  0  0  0  0  0  0
   18.7181   -7.1401  -14.4475 O   0  0  0  0  0  0  0  0  0  0  0  0
  2  6  1  0
  2  3  1  0
  2  1  1  6
  3  4  1  0
  4  8  1  0
  4  5  2  0
  6  7  2  0
  9 10  1  0
  9  6  1  0
 10 16  1  0
 11 12  1  0
 10 11  1  1
 12 13  1  0
 13 14  1  0
 14 15  1  0
 16 18  1  0
 16 17  2  0
 18 19  1  0
 20 21  1  0
 20 19  1  0
 22 20  2  0
M  END
$$$$
