DIK.pdb
     RDKit          3D

 26 25  0  0  1  0  0  0  0  0999 V2000
    7.1846  -15.7757   21.8167 N   0  0  0  0  0  0  0  0  0  0  0  0
    8.5349  -16.1541   22.1024 C   0  0  1  0  0  0  0  0  0  0  0  0
    9.4817  -15.7808   20.9671 C   0  0  0  0  0  0  0  0  0  0  0  0
    9.2363  -16.7146   19.8461 C   0  0  0  0  0  0  0  0  0  0  0  0
    8.0457  -17.0920   19.5929 O   0  0  0  0  0  0  0  0  0  0  0  0
    9.0623  -15.4633   23.3242 C   0  0  0  0  0  0  0  0  0  0  0  0
   10.3058  -15.2774   23.3888 O   0  0  0  0  0  0  0  0  0  0  0  0
   10.2626  -17.2101   19.0396 O   0  0  0  0  0  0  0  0  0  0  0  0
    6.1027  -11.6979   25.6061 C   0  0  0  0  0  0  0  0  0  0  0  0
    7.3580  -12.4459   25.1313 C   0  0  0  0  0  0  0  0  0  0  0  0
    7.7400  -13.4915   26.1251 C   0  0  2  0  0  0  0  0  0  0  0  0
    8.2984  -12.7642   27.3442 C   0  0  0  0  0  0  0  0  0  0  0  0
    8.7421  -14.4503   25.5588 C   0  0  2  0  0  0  0  0  0  0  0  0
    8.1823  -15.0532   24.3355 N   0  0  0  0  0  0  0  0  0  0  0  0
    9.1564  -15.5350   26.4762 C   0  0  0  0  0  0  0  0  0  0  0  0
    8.2862  -16.3793   26.9027 O   0  0  0  0  0  0  0  0  0  0  0  0
   10.4837  -15.7224   26.9271 N   0  0  0  0  0  0  0  0  0  0  0  0
   10.7541  -16.8464   27.8288 C   0  0  1  0  0  0  0  0  0  0  0  0
   12.0623  -17.5131   27.3905 C   0  0  0  0  0  0  0  0  0  0  0  0
   11.9088  -18.0146   26.0081 C   0  0  0  0  0  0  0  0  0  0  0  0
   13.1354  -18.7413   25.4947 C   0  0  0  0  0  0  0  0  0  0  0  0
   12.9396  -19.3401   24.1359 C   0  0  0  0  0  0  0  0  0  0  0  0
   14.1083  -19.9712   23.6065 N   0  0  0  0  0  0  0  0  0  0  0  0
   10.7996  -16.3357   29.2055 C   0  0  0  0  0  0  0  0  0  0  0  0
   10.7764  -14.9647   29.4463 O   0  0  0  0  0  0  0  0  0  0  0  0
   10.8608  -17.0611   30.2227 O   0  0  0  0  0  0  0  0  0  0  0  0
  2  1  1  6
  2  3  1  0
  3  4  1  0
  4  8  1  0
  5  4  2  0
  6  7  2  0
  6  2  1  0
  9 10  1  0
 10 11  1  0
 11 13  1  0
 11 12  1  1
 13 14  1  6
 14  6  1  0
 15 13  1  0
 16 15  2  0
 17 15  1  0
 18 17  1  0
 18 19  1  6
 20 19  1  0
 20 21  1  0
 22 21  1  0
 23 22  1  0
 24 25  1  0
 24 18  1  0
 26 24  2  0
M  END
$$$$
