DIK.pdb
     RDKit          3D

 26 25  0  0  1  0  0  0  0  0999 V2000
    8.3892  -15.3149   20.6899 N   0  0  0  0  0  0  0  0  0  0  0  0
    7.8378  -15.8876   21.8799 C   0  0  1  0  0  0  0  0  0  0  0  0
    8.0481  -17.3967   21.9342 C   0  0  0  0  0  0  0  0  0  0  0  0
    7.5850  -17.9658   20.6496 C   0  0  0  0  0  0  0  0  0  0  0  0
    6.4561  -17.6110   20.1767 O   0  0  0  0  0  0  0  0  0  0  0  0
    8.4824  -15.3358   23.1161 C   0  0  0  0  0  0  0  0  0  0  0  0
    9.7267  -15.1470   23.0811 O   0  0  0  0  0  0  0  0  0  0  0  0
    8.3372  -18.8875   19.9188 O   0  0  0  0  0  0  0  0  0  0  0  0
    6.1291  -11.4245   25.6926 C   0  0  0  0  0  0  0  0  0  0  0  0
    7.1936  -12.3637   25.1048 C   0  0  0  0  0  0  0  0  0  0  0  0
    7.4871  -13.4707   26.0616 C   0  0  2  0  0  0  0  0  0  0  0  0
    8.1438  -12.8394   27.2851 C   0  0  0  0  0  0  0  0  0  0  0  0
    8.3723  -14.5109   25.4462 C   0  0  2  0  0  0  0  0  0  0  0  0
    7.7055  -15.0520   24.2479 N   0  0  0  0  0  0  0  0  0  0  0  0
    8.7292  -15.6352   26.3397 C   0  0  0  0  0  0  0  0  0  0  0  0
    7.8153  -16.4392   26.7525 O   0  0  0  0  0  0  0  0  0  0  0  0
   10.0456  -15.9043   26.7813 N   0  0  0  0  0  0  0  0  0  0  0  0
   10.2765  -17.1253   27.5594 C   0  0  1  0  0  0  0  0  0  0  0  0
   11.3830  -17.9330   26.8731 C   0  0  0  0  0  0  0  0  0  0  0  0
   11.6738  -19.1367   27.6811 C   0  0  0  0  0  0  0  0  0  0  0  0
   12.7462  -20.0198   27.0760 C   0  0  0  0  0  0  0  0  0  0  0  0
   12.9854  -21.2752   27.8573 C   0  0  0  0  0  0  0  0  0  0  0  0
   13.9367  -22.1586   27.2580 N   0  0  0  0  0  0  0  0  0  0  0  0
   10.6124  -16.7405   28.9368 C   0  0  0  0  0  0  0  0  0  0  0  0
   10.5467  -17.6788   29.9632 O   0  0  0  0  0  0  0  0  0  0  0  0
   10.9669  -15.5907   29.2789 O   0  0  0  0  0  0  0  0  0  0  0  0
  2  1  1  6
  2  3  1  0
  3  4  1  0
  4  8  1  0
  5  4  2  0
  6  7  2  0
  6  2  1  0
  9 10  1  0
 10 11  1  0
 11 13  1  0
 11 12  1  1
 13 14  1  6
 14  6  1  0
 15 13  1  0
 16 15  2  0
 17 15  1  0
 18 17  1  0
 18 19  1  6
 20 19  1  0
 20 21  1  0
 22 21  1  0
 23 22  1  0
 24 25  1  0
 24 18  1  0
 26 24  2  0
M  END
$$$$
