DIK.pdb
     RDKit          3D

 26 25  0  0  1  0  0  0  0  0999 V2000
    6.8038  -15.4732   21.5898 N   0  0  0  0  0  0  0  0  0  0  0  0
    8.1037  -16.0231   21.8268 C   0  0  1  0  0  0  0  0  0  0  0  0
    9.0806  -15.6736   20.7096 C   0  0  0  0  0  0  0  0  0  0  0  0
    8.5677  -16.2685   19.4559 C   0  0  0  0  0  0  0  0  0  0  0  0
    7.8070  -15.5802   18.6999 O   0  0  0  0  0  0  0  0  0  0  0  0
    8.7132  -15.4923   23.0897 C   0  0  0  0  0  0  0  0  0  0  0  0
    9.9702  -15.4628   23.1540 O   0  0  0  0  0  0  0  0  0  0  0  0
    8.8820  -17.5684   19.0549 O   0  0  0  0  0  0  0  0  0  0  0  0
    6.0775  -11.6972   25.7014 C   0  0  0  0  0  0  0  0  0  0  0  0
    7.3064  -12.4552   25.1759 C   0  0  0  0  0  0  0  0  0  0  0  0
    7.6096  -13.6184   26.0601 C   0  0  2  0  0  0  0  0  0  0  0  0
    8.2378  -13.0588   27.3325 C   0  0  0  0  0  0  0  0  0  0  0  0
    8.5233  -14.5975   25.3887 C   0  0  2  0  0  0  0  0  0  0  0  0
    7.8914  -15.0545   24.1376 N   0  0  0  0  0  0  0  0  0  0  0  0
    8.8763  -15.7819   26.2027 C   0  0  0  0  0  0  0  0  0  0  0  0
    7.9901  -16.6820   26.4401 O   0  0  0  0  0  0  0  0  0  0  0  0
   10.1605  -16.0082   26.7502 N   0  0  0  0  0  0  0  0  0  0  0  0
   10.3890  -17.2588   27.4803 C   0  0  1  0  0  0  0  0  0  0  0  0
   11.2966  -18.1548   26.6310 C   0  0  0  0  0  0  0  0  0  0  0  0
   11.5832  -19.3980   27.3782 C   0  0  0  0  0  0  0  0  0  0  0  0
   12.4758  -20.3600   26.6207 C   0  0  0  0  0  0  0  0  0  0  0  0
   12.7512  -21.6252   27.3737 C   0  0  0  0  0  0  0  0  0  0  0  0
   13.6501  -22.5138   26.7052 N   0  0  0  0  0  0  0  0  0  0  0  0
   10.9648  -16.9314   28.7917 C   0  0  0  0  0  0  0  0  0  0  0  0
   11.0112  -17.8930   29.7973 O   0  0  0  0  0  0  0  0  0  0  0  0
   11.4363  -15.8127   29.0929 O   0  0  0  0  0  0  0  0  0  0  0  0
  2  1  1  6
  2  3  1  0
  3  4  1  0
  4  8  1  0
  5  4  2  0
  6  7  2  0
  6  2  1  0
  9 10  1  0
 10 11  1  0
 11 13  1  0
 11 12  1  1
 13 14  1  6
 14  6  1  0
 15 13  1  0
 16 15  2  0
 17 15  1  0
 18 17  1  0
 18 19  1  6
 20 19  1  0
 20 21  1  0
 22 21  1  0
 23 22  1  0
 24 25  1  0
 24 18  1  0
 26 24  2  0
M  END
$$$$
