DIK.pdb
     RDKit          3D

 26 25  0  0  1  0  0  0  0  0999 V2000
    9.7605  -17.8607   16.4275 N   0  0  0  0  0  0  0  0  0  0  0  0
    8.7526  -17.7336   17.4355 C   0  0  1  0  0  0  0  0  0  0  0  0
    8.3173  -19.0905   17.9778 C   0  0  0  0  0  0  0  0  0  0  0  0
    7.7514  -19.8680   16.8536 C   0  0  0  0  0  0  0  0  0  0  0  0
    6.8314  -19.3552   16.1362 O   0  0  0  0  0  0  0  0  0  0  0  0
    9.2411  -16.9530   18.6189 C   0  0  0  0  0  0  0  0  0  0  0  0
   10.4708  -17.0152   18.8815 O   0  0  0  0  0  0  0  0  0  0  0  0
    8.1836  -21.1570   16.5358 O   0  0  0  0  0  0  0  0  0  0  0  0
    6.5452  -12.3715   20.0089 C   0  0  0  0  0  0  0  0  0  0  0  0
    7.7000  -13.3377   19.7034 C   0  0  0  0  0  0  0  0  0  0  0  0
    7.8624  -14.3141   20.8202 C   0  0  2  0  0  0  0  0  0  0  0  0
    8.2862  -13.5174   22.0501 C   0  0  0  0  0  0  0  0  0  0  0  0
    8.8687  -15.3721   20.4854 C   0  0  2  0  0  0  0  0  0  0  0  0
    8.3417  -16.1950   19.3816 N   0  0  0  0  0  0  0  0  0  0  0  0
    9.2357  -16.2628   21.6087 C   0  0  0  0  0  0  0  0  0  0  0  0
    8.3786  -17.1062   22.0626 O   0  0  0  0  0  0  0  0  0  0  0  0
   10.5037  -16.2604   22.2352 N   0  0  0  0  0  0  0  0  0  0  0  0
   10.7507  -17.2407   23.2970 C   0  0  1  0  0  0  0  0  0  0  0  0
   12.0337  -18.0068   22.9578 C   0  0  0  0  0  0  0  0  0  0  0  0
   12.3579  -18.9226   24.0724 C   0  0  0  0  0  0  0  0  0  0  0  0
   13.6385  -19.7026   23.8537 C   0  0  0  0  0  0  0  0  0  0  0  0
   13.6661  -21.0075   24.5886 C   0  0  0  0  0  0  0  0  0  0  0  0
   14.9027  -21.7151   24.4675 N   0  0  0  0  0  0  0  0  0  0  0  0
   10.8266  -16.5267   24.5787 C   0  0  0  0  0  0  0  0  0  0  0  0
   10.9904  -15.1444   24.6030 O   0  0  0  0  0  0  0  0  0  0  0  0
   10.7540  -17.0810   25.6976 O   0  0  0  0  0  0  0  0  0  0  0  0
  2  1  1  6
  2  3  1  0
  3  4  1  0
  4  8  1  0
  5  4  2  0
  6  7  2  0
  6  2  1  0
  9 10  1  0
 10 11  1  0
 11 13  1  0
 11 12  1  1
 13 14  1  6
 14  6  1  0
 15 13  1  0
 16 15  2  0
 17 15  1  0
 18 17  1  0
 18 19  1  6
 20 19  1  0
 20 21  1  0
 22 21  1  0
 23 22  1  0
 24 25  1  0
 24 18  1  0
 26 24  2  0
M  END
$$$$
