DIK.pdb
     RDKit          3D

 26 25  0  0  1  0  0  0  0  0999 V2000
   11.0850  -17.9250   17.4013 N   0  0  0  0  0  0  0  0  0  0  0  0
    9.8960  -17.8881   18.1971 C   0  0  1  0  0  0  0  0  0  0  0  0
    9.5858  -19.2456   18.8180 C   0  0  0  0  0  0  0  0  0  0  0  0
    9.5906  -20.2521   17.7338 C   0  0  0  0  0  0  0  0  0  0  0  0
   10.0911  -21.4041   17.9493 O   0  0  0  0  0  0  0  0  0  0  0  0
   10.0198  -16.9283   19.3424 C   0  0  0  0  0  0  0  0  0  0  0  0
   11.1512  -16.8214   19.8841 O   0  0  0  0  0  0  0  0  0  0  0  0
    9.0648  -19.9966   16.4660 O   0  0  0  0  0  0  0  0  0  0  0  0
    6.8854  -12.4515   19.5838 C   0  0  0  0  0  0  0  0  0  0  0  0
    8.1131  -13.3666   19.7095 C   0  0  0  0  0  0  0  0  0  0  0  0
    7.9615  -14.2711   20.8868 C   0  0  2  0  0  0  0  0  0  0  0  0
    7.9821  -13.3894   22.1314 C   0  0  0  0  0  0  0  0  0  0  0  0
    9.0478  -15.3017   20.9335 C   0  0  2  0  0  0  0  0  0  0  0  0
    8.9040  -16.1949   19.7694 N   0  0  0  0  0  0  0  0  0  0  0  0
    9.0755  -16.1247   22.1630 C   0  0  0  0  0  0  0  0  0  0  0  0
    8.1562  -16.9991   22.3683 O   0  0  0  0  0  0  0  0  0  0  0  0
   10.0755  -16.0225   23.1579 N   0  0  0  0  0  0  0  0  0  0  0  0
   10.0119  -16.9428   24.2975 C   0  0  1  0  0  0  0  0  0  0  0  0
   11.2890  -17.7894   24.3061 C   0  0  0  0  0  0  0  0  0  0  0  0
   11.2864  -18.6544   25.5052 C   0  0  0  0  0  0  0  0  0  0  0  0
   12.5789  -19.4230   25.6923 C   0  0  0  0  0  0  0  0  0  0  0  0
   12.5456  -20.3550   26.8643 C   0  0  0  0  0  0  0  0  0  0  0  0
   13.6729  -21.2313   26.9405 N   0  0  0  0  0  0  0  0  0  0  0  0
    9.8355  -16.1518   25.5228 C   0  0  0  0  0  0  0  0  0  0  0  0
    9.3654  -16.7554   26.6859 O   0  0  0  0  0  0  0  0  0  0  0  0
   10.0823  -14.9287   25.6116 O   0  0  0  0  0  0  0  0  0  0  0  0
  2  1  1  1
  2  3  1  0
  3  4  1  0
  4  8  1  0
  5  4  2  0
  6  7  2  0
  6  2  1  0
  9 10  1  0
 10 11  1  0
 11 13  1  0
 11 12  1  1
 13 14  1  6
 14  6  1  0
 15 13  1  0
 16 15  2  0
 17 15  1  0
 18 17  1  0
 18 19  1  1
 20 19  1  0
 20 21  1  0
 22 21  1  0
 23 22  1  0
 24 25  1  0
 24 18  1  0
 26 24  2  0
M  END
$$$$
