DIK.pdb
     RDKit          3D

 26 25  0  0  1  0  0  0  0  0999 V2000
    8.1320  -14.7214   20.2313 N   0  0  0  0  0  0  0  0  0  0  0  0
    7.5030  -15.3327   21.3621 C   0  0  1  0  0  0  0  0  0  0  0  0
    7.5792  -16.8542   21.3008 C   0  0  0  0  0  0  0  0  0  0  0  0
    6.8019  -17.3003   20.1238 C   0  0  0  0  0  0  0  0  0  0  0  0
    7.3856  -17.4289   18.9983 O   0  0  0  0  0  0  0  0  0  0  0  0
    8.1623  -14.9375   22.6496 C   0  0  0  0  0  0  0  0  0  0  0  0
    9.4209  -14.9211   22.6703 O   0  0  0  0  0  0  0  0  0  0  0  0
    5.4380  -17.5919   20.1878 O   0  0  0  0  0  0  0  0  0  0  0  0
    5.5973  -11.3614   25.6851 C   0  0  0  0  0  0  0  0  0  0  0  0
    6.6993  -12.1395   24.9497 C   0  0  0  0  0  0  0  0  0  0  0  0
    7.1577  -13.2910   25.7809 C   0  0  2  0  0  0  0  0  0  0  0  0
    7.8670  -12.7068   26.9985 C   0  0  0  0  0  0  0  0  0  0  0  0
    8.0637  -14.2013   25.0097 C   0  0  2  0  0  0  0  0  0  0  0  0
    7.3826  -14.6056   23.7663 N   0  0  0  0  0  0  0  0  0  0  0  0
    8.4905  -15.4186   25.7349 C   0  0  0  0  0  0  0  0  0  0  0  0
    7.6526  -16.3733   25.9309 O   0  0  0  0  0  0  0  0  0  0  0  0
    9.7970  -15.6193   26.2379 N   0  0  0  0  0  0  0  0  0  0  0  0
   10.1292  -16.9362   26.7902 C   0  0  1  0  0  0  0  0  0  0  0  0
   11.1912  -17.5817   25.8940 C   0  0  0  0  0  0  0  0  0  0  0  0
   11.5880  -18.8819   26.4754 C   0  0  0  0  0  0  0  0  0  0  0  0
   12.7357  -19.5424   25.7388 C   0  0  0  0  0  0  0  0  0  0  0  0
   13.1263  -20.8655   26.3223 C   0  0  0  0  0  0  0  0  0  0  0  0
   13.7149  -20.7748   27.6222 N   0  0  0  0  0  0  0  0  0  0  0  0
   10.5763  -16.7575   28.1781 C   0  0  0  0  0  0  0  0  0  0  0  0
   10.7321  -15.4786   28.7058 O   0  0  0  0  0  0  0  0  0  0  0  0
   10.8406  -17.6988   28.9583 O   0  0  0  0  0  0  0  0  0  0  0  0
  2  1  1  6
  2  3  1  0
  3  4  1  0
  4  8  1  0
  5  4  2  0
  6  7  2  0
  6  2  1  0
  9 10  1  0
 10 11  1  0
 11 13  1  0
 11 12  1  1
 13 14  1  6
 14  6  1  0
 15 13  1  0
 16 15  2  0
 17 15  1  0
 18 17  1  0
 18 19  1  6
 20 19  1  0
 20 21  1  0
 22 21  1  0
 23 22  1  0
 24 25  1  0
 24 18  1  0
 26 24  2  0
M  END
$$$$
