DIK.pdb
     RDKit          3D

 26 25  0  0  1  0  0  0  0  0999 V2000
    8.4032  -15.1052   20.8103 N   0  0  0  0  0  0  0  0  0  0  0  0
    7.7876  -15.6486   21.9825 C   0  0  1  0  0  0  0  0  0  0  0  0
    7.8717  -17.1707   22.0144 C   0  0  0  0  0  0  0  0  0  0  0  0
    7.0830  -17.6925   20.8768 C   0  0  0  0  0  0  0  0  0  0  0  0
    6.6753  -16.8896   19.9750 O   0  0  0  0  0  0  0  0  0  0  0  0
    8.4561  -15.1715   23.2370 C   0  0  0  0  0  0  0  0  0  0  0  0
    9.6900  -14.9293   23.1753 O   0  0  0  0  0  0  0  0  0  0  0  0
    6.7586  -19.0437   20.7414 O   0  0  0  0  0  0  0  0  0  0  0  0
    5.7766  -11.7594   26.3327 C   0  0  0  0  0  0  0  0  0  0  0  0
    6.8749  -12.5059   25.5599 C   0  0  0  0  0  0  0  0  0  0  0  0
    7.3992  -13.6389   26.3775 C   0  0  2  0  0  0  0  0  0  0  0  0
    8.0412  -13.0312   27.6206 C   0  0  0  0  0  0  0  0  0  0  0  0
    8.3830  -14.4654   25.6072 C   0  0  2  0  0  0  0  0  0  0  0  0
    7.7114  -15.0115   24.4138 N   0  0  0  0  0  0  0  0  0  0  0  0
    8.9881  -15.5832   26.3649 C   0  0  0  0  0  0  0  0  0  0  0  0
    8.2408  -16.5212   26.8273 O   0  0  0  0  0  0  0  0  0  0  0  0
   10.3740  -15.7042   26.6197 N   0  0  0  0  0  0  0  0  0  0  0  0
   10.8286  -16.8272   27.4453 C   0  0  1  0  0  0  0  0  0  0  0  0
   12.1097  -17.3947   26.8252 C   0  0  0  0  0  0  0  0  0  0  0  0
   11.8160  -17.8621   25.4536 C   0  0  0  0  0  0  0  0  0  0  0  0
   13.0112  -18.4903   24.7659 C   0  0  0  0  0  0  0  0  0  0  0  0
   12.6855  -19.0541   23.4170 C   0  0  0  0  0  0  0  0  0  0  0  0
   13.8075  -19.6293   22.7426 N   0  0  0  0  0  0  0  0  0  0  0  0
   11.0171  -16.3453   28.8202 C   0  0  0  0  0  0  0  0  0  0  0  0
   11.2394  -17.2486   29.8560 O   0  0  0  0  0  0  0  0  0  0  0  0
   10.9928  -15.1395   29.1520 O   0  0  0  0  0  0  0  0  0  0  0  0
  2  1  1  6
  2  3  1  0
  3  4  1  0
  4  8  1  0
  5  4  2  0
  6  7  2  0
  6  2  1  0
  9 10  1  0
 10 11  1  0
 11 13  1  0
 11 12  1  1
 13 14  1  6
 14  6  1  0
 15 13  1  0
 16 15  2  0
 17 15  1  0
 18 17  1  0
 18 19  1  6
 20 19  1  0
 20 21  1  0
 22 21  1  0
 23 22  1  0
 24 25  1  0
 24 18  1  0
 26 24  2  0
M  END
$$$$
