WVR.pdb
     RDKit          3D

 33 34  0  0  1  0  0  0  0  0999 V2000
   23.6815  -20.0803  -15.5700 N   0  0  0  0  0  0  0  0  0  0  0  0
   22.3120  -19.7992  -15.1131 C   0  0  1  0  0  0  0  0  0  0  0  0
   21.4415  -20.0519  -16.3505 C   0  0  0  0  0  0  0  0  0  0  0  0
   21.6933  -18.9333  -17.2852 C   0  0  0  0  0  0  0  0  0  0  0  0
   22.4284  -18.9853  -18.4597 C   0  0  0  0  0  0  0  0  0  0  0  0
   22.4399  -17.7735  -19.0380 N   0  0  0  0  0  0  0  0  0  0  0  0
   21.7377  -16.9112  -18.2916 C   0  0  0  0  0  0  0  0  0  0  0  0
   21.4267  -15.5760  -18.4025 C   0  0  0  0  0  0  0  0  0  0  0  0
   20.6570  -14.9610  -17.4331 C   0  0  0  0  0  0  0  0  0  0  0  0
   20.1753  -15.6459  -16.3315 C   0  0  0  0  0  0  0  0  0  0  0  0
   20.4968  -16.9972  -16.2303 C   0  0  0  0  0  0  0  0  0  0  0  0
   21.2633  -17.6254  -17.1883 C   0  0  0  0  0  0  0  0  0  0  0  0
   21.9365  -20.7091  -14.0113 C   0  0  0  0  0  0  0  0  0  0  0  0
   22.5039  -21.8294  -13.9545 O   0  0  0  0  0  0  0  0  0  0  0  0
   19.7090  -19.2916  -10.6221 C   0  0  0  0  0  0  0  0  0  0  0  0
   20.7154  -20.3919  -10.6548 C   0  0  2  0  0  0  0  0  0  0  0  0
   22.1135  -19.9158  -10.3318 C   0  0  0  0  0  0  0  0  0  0  0  0
   20.6536  -21.2382  -11.8955 C   0  0  2  0  0  0  0  0  0  0  0  0
   20.9714  -20.3497  -13.0406 N   0  0  0  0  0  0  0  0  0  0  0  0
   19.3767  -21.8802  -12.1750 C   0  0  0  0  0  0  0  0  0  0  0  0
   18.5687  -21.2616  -12.9680 O   0  0  0  0  0  0  0  0  0  0  0  0
   16.7075  -28.6432   -7.6147 N   0  0  0  0  0  0  0  0  0  0  0  0
   15.7296  -27.9930   -8.4084 C   0  0  0  0  0  0  0  0  0  0  0  0
   14.4562  -28.2928   -8.3396 N   0  0  0  0  0  0  0  0  0  0  0  0
   16.0658  -26.9633   -9.3414 N   0  0  0  0  0  0  0  0  0  0  0  0
   17.4248  -26.5724   -9.5231 C   0  0  0  0  0  0  0  0  0  0  0  0
   17.5958  -25.1928  -10.0901 C   0  0  0  0  0  0  0  0  0  0  0  0
   17.5520  -25.1450  -11.5894 C   0  0  0  0  0  0  0  0  0  0  0  0
   17.6551  -23.6649  -11.9760 C   0  0  2  0  0  0  0  0  0  0  0  0
   18.9724  -23.1369  -11.6325 N   0  0  0  0  0  0  0  0  0  0  0  0
   16.5945  -22.8598  -11.3384 C   0  0  0  0  0  0  0  0  0  0  0  0
   15.3427  -22.7832  -11.9555 O   0  0  0  0  0  0  0  0  0  0  0  0
   16.7811  -22.2518  -10.2755 O   0  0  0  0  0  0  0  0  0  0  0  0
  2  1  1  6
  2 13  1  0
  2  3  1  0
  4  3  1  0
  4  5  2  0
  6  5  1  0
  7  6  1  0
  8  7  2  0
  9  8  1  0
 10  9  2  0
 10 11  1  0
 11 12  2  0
 12  7  1  0
 12  4  1  0
 13 14  2  0
 16 15  1  6
 17 16  1  0
 18 16  1  0
 18 19  1  6
 19 13  1  0
 20 18  1  0
 21 20  2  0
 22 23  1  0
 23 25  1  0
 23 24  2  0
 25 26  1  0
 27 26  1  0
 27 28  1  0
 29 28  1  1
 29 30  1  0
 30 20  1  0
 31 29  1  0
 31 32  1  0
 33 31  2  0
M  END
$$$$
