WVR.pdb
     RDKit          3D

 33 34  0  0  1  0  0  0  0  0999 V2000
   27.4618  -19.6622   -9.9866 N   0  0  0  0  0  0  0  0  0  0  0  0
   26.6338  -20.8320  -10.3172 C   0  0  1  0  0  0  0  0  0  0  0  0
   25.9971  -21.2342   -8.9809 C   0  0  0  0  0  0  0  0  0  0  0  0
   26.6321  -20.3999   -7.9373 C   0  0  0  0  0  0  0  0  0  0  0  0
   26.2015  -19.1588   -7.4937 C   0  0  0  0  0  0  0  0  0  0  0  0
   27.0331  -18.7072   -6.5413 N   0  0  0  0  0  0  0  0  0  0  0  0
   28.0064  -19.6030   -6.3311 C   0  0  0  0  0  0  0  0  0  0  0  0
   29.0961  -19.6593   -5.4936 C   0  0  0  0  0  0  0  0  0  0  0  0
   29.9340  -20.7582   -5.5197 C   0  0  0  0  0  0  0  0  0  0  0  0
   29.7191  -21.8277   -6.3709 C   0  0  0  0  0  0  0  0  0  0  0  0
   28.6126  -21.7591   -7.2140 C   0  0  0  0  0  0  0  0  0  0  0  0
   27.7673  -20.6705   -7.2004 C   0  0  0  0  0  0  0  0  0  0  0  0
   25.5972  -20.4702  -11.3059 C   0  0  0  0  0  0  0  0  0  0  0  0
   25.3962  -19.2491  -11.5272 O   0  0  0  0  0  0  0  0  0  0  0  0
   24.2899  -19.7476  -15.2810 C   0  0  0  0  0  0  0  0  0  0  0  0
   24.9739  -20.5070  -14.1949 C   0  0  2  0  0  0  0  0  0  0  0  0
   25.9930  -21.4917  -14.7218 C   0  0  0  0  0  0  0  0  0  0  0  0
   24.0349  -21.1128  -13.1896 C   0  0  2  0  0  0  0  0  0  0  0  0
   24.8438  -21.4517  -11.9927 N   0  0  0  0  0  0  0  0  0  0  0  0
   23.3352  -22.3200  -13.6067 C   0  0  0  0  0  0  0  0  0  0  0  0
   24.0134  -23.4174  -13.6210 O   0  0  0  0  0  0  0  0  0  0  0  0
   17.0277  -23.4814   -8.9182 N   0  0  0  0  0  0  0  0  0  0  0  0
   18.1423  -23.8276   -8.1139 C   0  0  0  0  0  0  0  0  0  0  0  0
   18.0119  -24.3259   -6.9094 N   0  0  0  0  0  0  0  0  0  0  0  0
   19.4890  -23.6559   -8.5620 N   0  0  0  0  0  0  0  0  0  0  0  0
   19.8021  -22.6643   -9.5374 C   0  0  0  0  0  0  0  0  0  0  0  0
   20.0124  -23.2093  -10.9205 C   0  0  0  0  0  0  0  0  0  0  0  0
   21.0521  -22.4698  -11.7107 C   0  0  0  0  0  0  0  0  0  0  0  0
   21.0039  -23.0458  -13.1307 C   0  0  2  0  0  0  0  0  0  0  0  0
   21.9620  -22.3608  -13.9936 N   0  0  0  0  0  0  0  0  0  0  0  0
   19.6458  -22.9682  -13.7046 C   0  0  0  0  0  0  0  0  0  0  0  0
   18.7844  -24.0579  -13.5488 O   0  0  0  0  0  0  0  0  0  0  0  0
   19.2486  -21.9684  -14.3184 O   0  0  0  0  0  0  0  0  0  0  0  0
  2  1  1  1
  2 13  1  0
  2  3  1  0
  4  3  1  0
  4  5  2  0
  6  5  1  0
  7  6  1  0
  8  7  2  0
  9  8  1  0
 10  9  2  0
 10 11  1  0
 11 12  2  0
 12  7  1  0
 12  4  1  0
 13 14  2  0
 16 15  1  6
 17 16  1  0
 18 16  1  0
 18 19  1  1
 19 13  1  0
 20 18  1  0
 21 20  2  0
 22 23  1  0
 23 25  1  0
 23 24  2  0
 25 26  1  0
 27 26  1  0
 27 28  1  0
 29 28  1  1
 29 30  1  0
 30 20  1  0
 31 29  1  0
 31 32  1  0
 33 31  2  0
M  END
$$$$
