WVR.pdb
     RDKit          3D

 33 34  0  0  1  0  0  0  0  0999 V2000
   23.6072  -20.5153  -15.7798 N   0  0  0  0  0  0  0  0  0  0  0  0
   23.3002  -21.6709  -14.9232 C   0  0  1  0  0  0  0  0  0  0  0  0
   24.5375  -21.8176  -14.0288 C   0  0  0  0  0  0  0  0  0  0  0  0
   25.5754  -22.4877  -14.8425 C   0  0  0  0  0  0  0  0  0  0  0  0
   26.6389  -21.8797  -15.4920 C   0  0  0  0  0  0  0  0  0  0  0  0
   27.3662  -22.8088  -16.1328 N   0  0  0  0  0  0  0  0  0  0  0  0
   26.8269  -24.0187  -15.9350 C   0  0  0  0  0  0  0  0  0  0  0  0
   27.1482  -25.2924  -16.3431 C   0  0  0  0  0  0  0  0  0  0  0  0
   26.3648  -26.3627  -15.9546 C   0  0  0  0  0  0  0  0  0  0  0  0
   25.2465  -26.2046  -15.1550 C   0  0  0  0  0  0  0  0  0  0  0  0
   24.9315  -24.9104  -14.7482 C   0  0  0  0  0  0  0  0  0  0  0  0
   25.7023  -23.8323  -15.1269 C   0  0  0  0  0  0  0  0  0  0  0  0
   22.0933  -21.4085  -14.1123 C   0  0  0  0  0  0  0  0  0  0  0  0
   21.9868  -20.2824  -13.5637 O   0  0  0  0  0  0  0  0  0  0  0  0
   18.4802  -23.2239  -14.9798 C   0  0  0  0  0  0  0  0  0  0  0  0
   18.7290  -21.9681  -14.2148 C   0  0  2  0  0  0  0  0  0  0  0  0
   18.8689  -20.7566  -15.1083 C   0  0  0  0  0  0  0  0  0  0  0  0
   19.8314  -22.0809  -13.1991 C   0  0  2  0  0  0  0  0  0  0  0  0
   21.0780  -22.3802  -13.9463 N   0  0  0  0  0  0  0  0  0  0  0  0
   19.6678  -23.1100  -12.1818 C   0  0  0  0  0  0  0  0  0  0  0  0
   20.0910  -24.2942  -12.4699 O   0  0  0  0  0  0  0  0  0  0  0  0
   16.9330  -25.3348   -4.8605 N   0  0  0  0  0  0  0  0  0  0  0  0
   17.5117  -26.5139   -5.3936 C   0  0  0  0  0  0  0  0  0  0  0  0
   17.0034  -27.7028   -5.1834 N   0  0  0  0  0  0  0  0  0  0  0  0
   18.6928  -26.4874   -6.1985 N   0  0  0  0  0  0  0  0  0  0  0  0
   19.0990  -25.2812   -6.8410 C   0  0  0  0  0  0  0  0  0  0  0  0
   18.0990  -24.7422   -7.8226 C   0  0  0  0  0  0  0  0  0  0  0  0
   18.5828  -23.5415   -8.5818 C   0  0  0  0  0  0  0  0  0  0  0  0
   18.8851  -24.0251  -10.0049 C   0  0  2  0  0  0  0  0  0  0  0  0
   19.0767  -22.8888  -10.9016 N   0  0  0  0  0  0  0  0  0  0  0  0
   17.8216  -24.9121  -10.5166 C   0  0  0  0  0  0  0  0  0  0  0  0
   18.0171  -26.2954  -10.4712 O   0  0  0  0  0  0  0  0  0  0  0  0
   16.7640  -24.4675  -10.9836 O   0  0  0  0  0  0  0  0  0  0  0  0
  2  1  1  6
  2 13  1  0
  2  3  1  0
  4  3  1  0
  4  5  2  0
  6  5  1  0
  7  6  1  0
  8  7  2  0
  9  8  1  0
 10  9  2  0
 10 11  1  0
 11 12  2  0
 12  7  1  0
 12  4  1  0
 13 14  2  0
 16 15  1  6
 17 16  1  0
 18 16  1  0
 18 19  1  6
 19 13  1  0
 20 18  1  0
 21 20  2  0
 22 23  1  0
 23 25  1  0
 23 24  2  0
 25 26  1  0
 27 26  1  0
 27 28  1  0
 29 28  1  1
 29 30  1  0
 30 20  1  0
 31 29  1  0
 31 32  1  0
 33 31  2  0
M  END
$$$$
