WVR.pdb
     RDKit          3D

 33 34  0  0  1  0  0  0  0  0999 V2000
   26.6373  -21.6385  -11.9106 N   0  0  0  0  0  0  0  0  0  0  0  0
   25.8571  -21.1143  -10.7793 C   0  0  1  0  0  0  0  0  0  0  0  0
   26.6506  -19.8890  -10.3085 C   0  0  0  0  0  0  0  0  0  0  0  0
   27.8319  -20.3998   -9.5790 C   0  0  0  0  0  0  0  0  0  0  0  0
   28.7785  -21.2925  -10.0580 C   0  0  0  0  0  0  0  0  0  0  0  0
   29.7001  -21.5240   -9.1094 N   0  0  0  0  0  0  0  0  0  0  0  0
   29.4038  -20.8170   -8.0111 C   0  0  0  0  0  0  0  0  0  0  0  0
   29.9868  -20.6751   -6.7734 C   0  0  0  0  0  0  0  0  0  0  0  0
   29.4163  -19.8411   -5.8303 C   0  0  0  0  0  0  0  0  0  0  0  0
   28.2583  -19.1271   -6.0833 C   0  0  0  0  0  0  0  0  0  0  0  0
   27.6774  -19.2791   -7.3400 C   0  0  0  0  0  0  0  0  0  0  0  0
   28.2337  -20.1068   -8.2915 C   0  0  0  0  0  0  0  0  0  0  0  0
   24.5018  -20.7254  -11.2206 C   0  0  0  0  0  0  0  0  0  0  0  0
   24.3678  -19.6197  -11.8035 O   0  0  0  0  0  0  0  0  0  0  0  0
   20.8148  -20.2398  -13.4303 C   0  0  0  0  0  0  0  0  0  0  0  0
   22.0943  -20.7626  -12.8699 C   0  0  2  0  0  0  0  0  0  0  0  0
   22.7129  -21.8405  -13.7307 C   0  0  0  0  0  0  0  0  0  0  0  0
   22.0140  -21.1426  -11.4178 C   0  0  2  0  0  0  0  0  0  0  0  0
   23.3773  -21.5568  -11.0038 N   0  0  0  0  0  0  0  0  0  0  0  0
   21.1018  -22.2280  -11.0850 C   0  0  0  0  0  0  0  0  0  0  0  0
   21.2474  -23.3366  -11.7287 O   0  0  0  0  0  0  0  0  0  0  0  0
   17.2681  -27.1333   -6.5573 N   0  0  0  0  0  0  0  0  0  0  0  0
   17.6771  -26.0134   -5.7906 C   0  0  0  0  0  0  0  0  0  0  0  0
   18.3711  -26.1339   -4.6861 N   0  0  0  0  0  0  0  0  0  0  0  0
   17.3595  -24.6722   -6.1699 N   0  0  0  0  0  0  0  0  0  0  0  0
   16.6190  -24.4173   -7.3614 C   0  0  0  0  0  0  0  0  0  0  0  0
   17.4593  -24.3530   -8.6039 C   0  0  0  0  0  0  0  0  0  0  0  0
   18.4660  -23.2400   -8.5967 C   0  0  0  0  0  0  0  0  0  0  0  0
   19.1036  -23.2274   -9.9910 C   0  0  2  0  0  0  0  0  0  0  0  0
   20.0717  -22.1399  -10.1012 N   0  0  0  0  0  0  0  0  0  0  0  0
   18.0856  -23.1213  -11.0550 C   0  0  0  0  0  0  0  0  0  0  0  0
   17.8100  -24.2450  -11.8393 O   0  0  0  0  0  0  0  0  0  0  0  0
   17.4703  -22.0685  -11.2723 O   0  0  0  0  0  0  0  0  0  0  0  0
  2  1  1  6
  2 13  1  0
  2  3  1  0
  4  3  1  0
  4  5  2  0
  6  5  1  0
  7  6  1  0
  8  7  2  0
  9  8  1  0
 10  9  2  0
 10 11  1  0
 11 12  2  0
 12  7  1  0
 12  4  1  0
 13 14  2  0
 16 15  1  6
 17 16  1  0
 18 16  1  0
 18 19  1  6
 19 13  1  0
 20 18  1  0
 21 20  2  0
 22 23  1  0
 23 25  1  0
 23 24  2  0
 25 26  1  0
 27 26  1  0
 27 28  1  0
 29 28  1  1
 29 30  1  0
 30 20  1  0
 31 29  1  0
 31 32  1  0
 33 31  2  0
M  END
$$$$
