WVR.pdb
     RDKit          3D

 33 34  0  0  1  0  0  0  0  0999 V2000
   25.7153  -21.9568   -9.1974 N   0  0  0  0  0  0  0  0  0  0  0  0
   25.1521  -20.8075   -9.9220 C   0  0  1  0  0  0  0  0  0  0  0  0
   26.3248  -20.2737  -10.7541 C   0  0  0  0  0  0  0  0  0  0  0  0
   27.5348  -20.3912   -9.9111 C   0  0  0  0  0  0  0  0  0  0  0  0
   28.7192  -21.0291  -10.2470 C   0  0  0  0  0  0  0  0  0  0  0  0
   29.5879  -20.9320   -9.2278 N   0  0  0  0  0  0  0  0  0  0  0  0
   29.0266  -20.2509   -8.2204 C   0  0  0  0  0  0  0  0  0  0  0  0
   29.4477  -19.8649   -6.9692 C   0  0  0  0  0  0  0  0  0  0  0  0
   28.6021  -19.1474   -6.1443 C   0  0  0  0  0  0  0  0  0  0  0  0
   27.3219  -18.7928   -6.5316 C   0  0  0  0  0  0  0  0  0  0  0  0
   26.9070  -19.1893   -7.8006 C   0  0  0  0  0  0  0  0  0  0  0  0
   27.7379  -19.9053   -8.6353 C   0  0  0  0  0  0  0  0  0  0  0  0
   24.0413  -21.2395  -10.7953 C   0  0  0  0  0  0  0  0  0  0  0  0
   24.1120  -22.3820  -11.3149 O   0  0  0  0  0  0  0  0  0  0  0  0
   20.6227  -18.6658  -11.8100 C   0  0  0  0  0  0  0  0  0  0  0  0
   20.5618  -20.0616  -11.2879 C   0  0  2  0  0  0  0  0  0  0  0  0
   20.3130  -20.1184   -9.7978 C   0  0  0  0  0  0  0  0  0  0  0  0
   21.7095  -20.9275  -11.7266 C   0  0  2  0  0  0  0  0  0  0  0  0
   22.9246  -20.4088  -11.0512 N   0  0  0  0  0  0  0  0  0  0  0  0
   21.9799  -20.9633  -13.1571 C   0  0  0  0  0  0  0  0  0  0  0  0
   22.5683  -19.9362  -13.6702 O   0  0  0  0  0  0  0  0  0  0  0  0
   22.5696  -28.0570  -17.9853 N   0  0  0  0  0  0  0  0  0  0  0  0
   23.4191  -27.1933  -17.2495 C   0  0  0  0  0  0  0  0  0  0  0  0
   24.6309  -27.5379  -16.8907 N   0  0  0  0  0  0  0  0  0  0  0  0
   23.0112  -25.8837  -16.8465 N   0  0  0  0  0  0  0  0  0  0  0  0
   21.6264  -25.5658  -16.7281 C   0  0  0  0  0  0  0  0  0  0  0  0
   21.3548  -24.1367  -16.3565 C   0  0  0  0  0  0  0  0  0  0  0  0
   22.5623  -23.4027  -15.8511 C   0  0  0  0  0  0  0  0  0  0  0  0
   22.0709  -22.0198  -15.4075 C   0  0  2  0  0  0  0  0  0  0  0  0
   21.6389  -22.0532  -14.0132 N   0  0  0  0  0  0  0  0  0  0  0  0
   20.9822  -21.5247  -16.2730 C   0  0  0  0  0  0  0  0  0  0  0  0
   21.2991  -21.0400  -17.5451 O   0  0  0  0  0  0  0  0  0  0  0  0
   19.7992  -21.5262  -15.9057 O   0  0  0  0  0  0  0  0  0  0  0  0
  2  1  1  6
  2 13  1  0
  2  3  1  0
  4  3  1  0
  4  5  2  0
  6  5  1  0
  7  6  1  0
  8  7  2  0
  9  8  1  0
 10  9  2  0
 10 11  1  0
 11 12  2  0
 12  7  1  0
 12  4  1  0
 13 14  2  0
 16 15  1  1
 17 16  1  0
 18 16  1  0
 18 19  1  1
 19 13  1  0
 20 18  1  0
 21 20  2  0
 22 23  1  0
 23 25  1  0
 23 24  2  0
 25 26  1  0
 27 26  1  0
 27 28  1  0
 29 28  1  6
 29 30  1  0
 30 20  1  0
 31 29  1  0
 31 32  1  0
 33 31  2  0
M  END
$$$$
