WVR.pdb
     RDKit          3D

 33 34  0  0  1  0  0  0  0  0999 V2000
   27.2804  -18.6149  -17.6819 N   0  0  0  0  0  0  0  0  0  0  0  0
   26.7024  -18.1475  -16.4128 C   0  0  1  0  0  0  0  0  0  0  0  0
   25.3594  -17.5255  -16.8156 C   0  0  0  0  0  0  0  0  0  0  0  0
   25.6624  -16.2090  -17.4185 C   0  0  0  0  0  0  0  0  0  0  0  0
   25.3510  -15.7961  -18.7050 C   0  0  0  0  0  0  0  0  0  0  0  0
   25.7879  -14.5405  -18.8934 N   0  0  0  0  0  0  0  0  0  0  0  0
   26.3814  -14.0977  -17.7774 C   0  0  0  0  0  0  0  0  0  0  0  0
   26.9907  -12.9186  -17.4161 C   0  0  0  0  0  0  0  0  0  0  0  0
   27.5202  -12.7726  -16.1478 C   0  0  0  0  0  0  0  0  0  0  0  0
   27.4623  -13.7837  -15.2049 C   0  0  0  0  0  0  0  0  0  0  0  0
   26.8429  -14.9726  -15.5825 C   0  0  0  0  0  0  0  0  0  0  0  0
   26.3100  -15.1344  -16.8433 C   0  0  0  0  0  0  0  0  0  0  0  0
   26.5003  -19.2810  -15.4869 C   0  0  0  0  0  0  0  0  0  0  0  0
   26.0471  -20.3537  -15.9607 O   0  0  0  0  0  0  0  0  0  0  0  0
   29.1255  -20.7217  -13.1553 C   0  0  0  0  0  0  0  0  0  0  0  0
   27.8964  -20.4192  -12.3665 C   0  0  2  0  0  0  0  0  0  0  0  0
   27.7486  -21.3056  -11.1507 C   0  0  0  0  0  0  0  0  0  0  0  0
   26.6441  -20.3417  -13.1943 C   0  0  2  0  0  0  0  0  0  0  0  0
   26.8013  -19.1829  -14.1077 N   0  0  0  0  0  0  0  0  0  0  0  0
   25.3978  -20.1622  -12.4626 C   0  0  0  0  0  0  0  0  0  0  0  0
   25.1576  -18.9860  -11.9900 O   0  0  0  0  0  0  0  0  0  0  0  0
   17.6719  -19.7884  -12.2445 N   0  0  0  0  0  0  0  0  0  0  0  0
   18.2549  -20.6469  -13.2100 C   0  0  0  0  0  0  0  0  0  0  0  0
   17.9518  -20.5813  -14.4828 N   0  0  0  0  0  0  0  0  0  0  0  0
   19.2155  -21.6465  -12.8610 N   0  0  0  0  0  0  0  0  0  0  0  0
   19.5738  -21.8552  -11.4970 C   0  0  0  0  0  0  0  0  0  0  0  0
   20.8799  -21.2284  -11.1029 C   0  0  0  0  0  0  0  0  0  0  0  0
   22.0344  -21.6399  -11.9690 C   0  0  0  0  0  0  0  0  0  0  0  0
   23.2656  -20.9088  -11.4210 C   0  0  2  0  0  0  0  0  0  0  0  0
   24.4385  -21.1957  -12.2420 N   0  0  0  0  0  0  0  0  0  0  0  0
   23.5250  -21.2597  -10.0106 C   0  0  0  0  0  0  0  0  0  0  0  0
   22.7423  -20.6701   -9.0139 O   0  0  0  0  0  0  0  0  0  0  0  0
   24.4136  -22.0591   -9.6857 O   0  0  0  0  0  0  0  0  0  0  0  0
  2  1  1  6
  2 13  1  0
  2  3  1  0
  4  3  1  0
  4  5  2  0
  6  5  1  0
  7  6  1  0
  8  7  2  0
  9  8  1  0
 10  9  2  0
 10 11  1  0
 11 12  2  0
 12  7  1  0
 12  4  1  0
 13 14  2  0
 16 15  1  6
 17 16  1  0
 18 16  1  0
 18 19  1  6
 19 13  1  0
 20 18  1  0
 21 20  2  0
 22 23  1  0
 23 25  1  0
 23 24  2  0
 25 26  1  0
 27 26  1  0
 27 28  1  0
 29 28  1  6
 29 30  1  0
 30 20  1  0
 31 29  1  0
 31 32  1  0
 33 31  2  0
M  END
$$$$
