DMK.pdb
     RDKit          3D

 26 25  0  0  1  0  0  0  0  0999 V2000
   21.1352  -11.9918  -16.3000 N   0  0  0  0  0  0  0  0  0  0  0  0
   20.5208  -10.8226  -16.8719 C   0  0  1  0  0  0  0  0  0  0  0  0
   19.0198  -11.1132  -16.9444 C   0  0  0  0  0  0  0  0  0  0  0  0
   18.8351  -12.1936  -17.9348 C   0  0  0  0  0  0  0  0  0  0  0  0
   18.3007  -13.2648  -17.5746 O   0  0  0  0  0  0  0  0  0  0  0  0
   20.7848   -9.5987  -16.0741 C   0  0  0  0  0  0  0  0  0  0  0  0
   20.4568   -9.5282  -14.8609 O   0  0  0  0  0  0  0  0  0  0  0  0
   19.2380  -12.0465  -19.2430 O   0  0  0  0  0  0  0  0  0  0  0  0
   25.7079   -9.9711  -15.1167 C   0  0  0  0  0  0  0  0  0  0  0  0
   24.0778   -9.2266  -14.9483 S   0  0  0  0  0  0  0  0  0  0  0  0
   24.1665   -7.4221  -15.2643 C   0  0  0  0  0  0  0  0  0  0  0  0
   23.1899   -6.9992  -16.3174 C   0  0  0  0  0  0  0  0  0  0  0  0
   21.7396   -7.2563  -15.9904 C   0  0  2  0  0  0  0  0  0  0  0  0
   21.4189   -8.5026  -16.7106 N   0  0  0  0  0  0  0  0  0  0  0  0
   20.9112   -6.1547  -16.4556 C   0  0  0  0  0  0  0  0  0  0  0  0
   20.7326   -6.0630  -17.7274 O   0  0  0  0  0  0  0  0  0  0  0  0
   20.2581   -5.1578  -15.7111 N   0  0  0  0  0  0  0  0  0  0  0  0
   19.4592   -4.0872  -16.3603 C   0  0  1  0  0  0  0  0  0  0  0  0
   18.2304   -3.8274  -15.5167 C   0  0  0  0  0  0  0  0  0  0  0  0
   17.4081   -2.7154  -16.0655 C   0  0  0  0  0  0  0  0  0  0  0  0
   16.2553   -2.3730  -15.1128 C   0  0  0  0  0  0  0  0  0  0  0  0
   15.4371   -1.2604  -15.7620 C   0  0  0  0  0  0  0  0  0  0  0  0
   14.4654   -1.8354  -16.6734 N   0  0  0  0  0  0  0  0  0  0  0  0
   20.2915   -2.8869  -16.3906 C   0  0  0  0  0  0  0  0  0  0  0  0
   20.1617   -1.9594  -17.3984 O   0  0  0  0  0  0  0  0  0  0  0  0
   21.1399   -2.6785  -15.5002 O   0  0  0  0  0  0  0  0  0  0  0  0
  2  1  1  1
  2  3  1  0
  3  4  1  0
  4  8  1  0
  5  4  2  0
  6  2  1  0
  7  6  2  0
  9 10  1  0
 10 11  1  0
 11 12  1  0
 13 12  1  6
 13 15  1  0
 13 14  1  0
 14  6  1  0
 15 16  2  0
 17 18  1  0
 17 15  1  0
 19 20  1  0
 18 19  1  1
 21 20  1  0
 22 21  1  0
 23 22  1  0
 24 18  1  0
 25 24  1  0
 26 24  2  0
M  END
$$$$
