DMK.pdb
     RDKit          3D

 26 25  0  0  1  0  0  0  0  0999 V2000
   17.9630  -13.8279  -16.0005 N   0  0  0  0  0  0  0  0  0  0  0  0
   17.5909  -12.4430  -16.1234 C   0  0  1  0  0  0  0  0  0  0  0  0
   16.1146  -12.3543  -15.7292 C   0  0  0  0  0  0  0  0  0  0  0  0
   15.3303  -12.8770  -16.8668 C   0  0  0  0  0  0  0  0  0  0  0  0
   15.9079  -13.5553  -17.7438 O   0  0  0  0  0  0  0  0  0  0  0  0
   18.4209  -11.5574  -15.2684 C   0  0  0  0  0  0  0  0  0  0  0  0
   18.5364  -11.7663  -14.0326 O   0  0  0  0  0  0  0  0  0  0  0  0
   13.9802  -12.6336  -16.9817 O   0  0  0  0  0  0  0  0  0  0  0  0
   24.0343   -8.0951  -17.2600 C   0  0  0  0  0  0  0  0  0  0  0  0
   22.6783   -6.9844  -16.8510 S   0  0  0  0  0  0  0  0  0  0  0  0
   21.6225   -7.7227  -15.5456 C   0  0  0  0  0  0  0  0  0  0  0  0
   20.7350   -8.7951  -16.0968 C   0  0  0  0  0  0  0  0  0  0  0  0
   19.8335   -9.4651  -15.0894 C   0  0  2  0  0  0  0  0  0  0  0  0
   19.0861  -10.4635  -15.8764 N   0  0  0  0  0  0  0  0  0  0  0  0
   18.9342   -8.4930  -14.4874 C   0  0  0  0  0  0  0  0  0  0  0  0
   17.9733   -8.0593  -15.2266 O   0  0  0  0  0  0  0  0  0  0  0  0
   18.9524   -7.9485  -13.1920 N   0  0  0  0  0  0  0  0  0  0  0  0
   17.9308   -6.9723  -12.7345 C   0  0  1  0  0  0  0  0  0  0  0  0
   17.4036   -7.4247  -11.3904 C   0  0  0  0  0  0  0  0  0  0  0  0
   16.3424   -6.5158  -10.8785 C   0  0  0  0  0  0  0  0  0  0  0  0
   15.7105   -7.0860   -9.6020 C   0  0  0  0  0  0  0  0  0  0  0  0
   14.6538   -6.0920   -9.1285 C   0  0  0  0  0  0  0  0  0  0  0  0
   13.8410   -6.6988   -8.0909 N   0  0  0  0  0  0  0  0  0  0  0  0
   18.6027   -5.6837  -12.5852 C   0  0  0  0  0  0  0  0  0  0  0  0
   19.9712   -5.6070  -12.4674 O   0  0  0  0  0  0  0  0  0  0  0  0
   17.9463   -4.6231  -12.5610 O   0  0  0  0  0  0  0  0  0  0  0  0
  2  1  1  1
  2  3  1  0
  3  4  1  0
  4  8  1  0
  5  4  2  0
  6  2  1  0
  7  6  2  0
  9 10  1  0
 10 11  1  0
 11 12  1  0
 13 12  1  6
 13 15  1  0
 13 14  1  0
 14  6  1  0
 15 16  2  0
 17 18  1  0
 17 15  1  0
 19 20  1  0
 18 19  1  1
 21 20  1  0
 22 21  1  0
 23 22  1  0
 24 18  1  0
 25 24  1  0
 26 24  2  0
M  END
$$$$
