DMK.pdb
     RDKit          3D

 26 25  0  0  1  0  0  0  0  0999 V2000
   24.7922  -22.3061  -14.8042 N   0  0  0  0  0  0  0  0  0  0  0  0
   24.9267  -21.2217  -13.8675 C   0  0  1  0  0  0  0  0  0  0  0  0
   26.1490  -20.4145  -14.3115 C   0  0  0  0  0  0  0  0  0  0  0  0
   27.2751  -21.3633  -14.4296 C   0  0  0  0  0  0  0  0  0  0  0  0
   27.0737  -22.5774  -14.2097 O   0  0  0  0  0  0  0  0  0  0  0  0
   23.7156  -20.3643  -13.8191 C   0  0  0  0  0  0  0  0  0  0  0  0
   23.6289  -19.4039  -13.0101 O   0  0  0  0  0  0  0  0  0  0  0  0
   28.5386  -20.9403  -14.7758 O   0  0  0  0  0  0  0  0  0  0  0  0
   20.4116  -16.3180  -15.4194 C   0  0  0  0  0  0  0  0  0  0  0  0
   22.1384  -16.8132  -15.5331 S   0  0  0  0  0  0  0  0  0  0  0  0
   22.3000  -18.3289  -16.5530 C   0  0  0  0  0  0  0  0  0  0  0  0
   21.3005  -19.3698  -16.1540 C   0  0  0  0  0  0  0  0  0  0  0  0
   21.4098  -19.8540  -14.7292 C   0  0  2  0  0  0  0  0  0  0  0  0
   22.6505  -20.6508  -14.7092 N   0  0  0  0  0  0  0  0  0  0  0  0
   20.2574  -20.6705  -14.3806 C   0  0  0  0  0  0  0  0  0  0  0  0
   20.2122  -21.8530  -14.8883 O   0  0  0  0  0  0  0  0  0  0  0  0
   19.1660  -20.3598  -13.5518 N   0  0  0  0  0  0  0  0  0  0  0  0
   18.0208  -21.2892  -13.3774 C   0  0  1  0  0  0  0  0  0  0  0  0
   17.9012  -21.6323  -11.9087 C   0  0  0  0  0  0  0  0  0  0  0  0
   18.6453  -22.8753  -11.5690 C   0  0  0  0  0  0  0  0  0  0  0  0
   18.4980  -23.2044  -10.0778 C   0  0  0  0  0  0  0  0  0  0  0  0
   19.1686  -24.5536   -9.8361 C   0  0  0  0  0  0  0  0  0  0  0  0
   19.2300  -24.8216   -8.4114 N   0  0  0  0  0  0  0  0  0  0  0  0
   16.8198  -20.5791  -13.8107 C   0  0  0  0  0  0  0  0  0  0  0  0
   16.6507  -19.2410  -13.5397 O   0  0  0  0  0  0  0  0  0  0  0  0
   15.9200  -21.1744  -14.4370 O   0  0  0  0  0  0  0  0  0  0  0  0
  2  1  1  6
  2  3  1  0
  3  4  1  0
  4  8  1  0
  5  4  2  0
  6  2  1  0
  7  6  2  0
  9 10  1  0
 10 11  1  0
 11 12  1  0
 13 12  1  6
 13 15  1  0
 13 14  1  0
 14  6  1  0
 15 16  2  0
 17 18  1  0
 17 15  1  0
 19 20  1  0
 18 19  1  1
 21 20  1  0
 22 21  1  0
 23 22  1  0
 24 18  1  0
 25 24  1  0
 26 24  2  0
M  END
$$$$
