DMK.pdb
     RDKit          3D

 26 25  0  0  1  0  0  0  0  0999 V2000
   28.8429  -27.3266  -15.8719 N   0  0  0  0  0  0  0  0  0  0  0  0
   27.9446  -27.7264  -16.9230 C   0  0  1  0  0  0  0  0  0  0  0  0
   28.3423  -26.9213  -18.1625 C   0  0  0  0  0  0  0  0  0  0  0  0
   28.0999  -25.4978  -17.8506 C   0  0  0  0  0  0  0  0  0  0  0  0
   27.6456  -25.1895  -16.7275 O   0  0  0  0  0  0  0  0  0  0  0  0
   28.0087  -29.1843  -17.1961 C   0  0  0  0  0  0  0  0  0  0  0  0
   27.4539  -29.6824  -18.2102 O   0  0  0  0  0  0  0  0  0  0  0  0
   28.3630  -24.5057  -18.7681 O   0  0  0  0  0  0  0  0  0  0  0  0
   32.9089  -33.5886  -15.8272 C   0  0  0  0  0  0  0  0  0  0  0  0
   33.0237  -31.8959  -16.4286 S   0  0  0  0  0  0  0  0  0  0  0  0
   31.3779  -31.3035  -16.9804 C   0  0  0  0  0  0  0  0  0  0  0  0
   30.2936  -31.7411  -16.0452 C   0  0  0  0  0  0  0  0  0  0  0  0
   28.8875  -31.4572  -16.5126 C   0  0  2  0  0  0  0  0  0  0  0  0
   28.7128  -30.0106  -16.2850 N   0  0  0  0  0  0  0  0  0  0  0  0
   27.9290  -32.2289  -15.7368 C   0  0  0  0  0  0  0  0  0  0  0  0
   28.0499  -32.1805  -14.4558 O   0  0  0  0  0  0  0  0  0  0  0  0
   26.8653  -33.0316  -16.1829 N   0  0  0  0  0  0  0  0  0  0  0  0
   25.9492  -33.7200  -15.2382 C   0  0  1  0  0  0  0  0  0  0  0  0
   24.6508  -32.9455  -15.1793 C   0  0  0  0  0  0  0  0  0  0  0  0
   23.6230  -33.6506  -14.3665 C   0  0  0  0  0  0  0  0  0  0  0  0
   22.2892  -32.8933  -14.4047 C   0  0  0  0  0  0  0  0  0  0  0  0
   21.2886  -33.6814  -13.5643 C   0  0  0  0  0  0  0  0  0  0  0  0
   20.0122  -32.9916  -13.5482 N   0  0  0  0  0  0  0  0  0  0  0  0
   25.6963  -35.0537  -15.7780 C   0  0  0  0  0  0  0  0  0  0  0  0
   25.3616  -36.1014  -14.9516 O   0  0  0  0  0  0  0  0  0  0  0  0
   25.7795  -35.2702  -17.0038 O   0  0  0  0  0  0  0  0  0  0  0  0
  2  1  1  1
  2  3  1  0
  3  4  1  0
  4  8  1  0
  5  4  2  0
  6  2  1  0
  7  6  2  0
  9 10  1  0
 10 11  1  0
 11 12  1  0
 13 12  1  1
 13 15  1  0
 13 14  1  0
 14  6  1  0
 15 16  2  0
 17 18  1  0
 17 15  1  0
 19 20  1  0
 18 19  1  6
 21 20  1  0
 22 21  1  0
 23 22  1  0
 24 18  1  0
 25 24  1  0
 26 24  2  0
M  END
$$$$
