DMK.pdb
     RDKit          3D

 26 25  0  0  1  0  0  0  0  0999 V2000
   19.7656  -14.3238  -18.3134 N   0  0  0  0  0  0  0  0  0  0  0  0
   19.1029  -13.7272  -17.1835 C   0  0  1  0  0  0  0  0  0  0  0  0
   18.6961  -14.8794  -16.2617 C   0  0  0  0  0  0  0  0  0  0  0  0
   17.7626  -15.7344  -17.0231 C   0  0  0  0  0  0  0  0  0  0  0  0
   17.3496  -15.3438  -18.1365 O   0  0  0  0  0  0  0  0  0  0  0  0
   19.9702  -12.7579  -16.4677 C   0  0  0  0  0  0  0  0  0  0  0  0
   19.6609  -12.3255  -15.3268 O   0  0  0  0  0  0  0  0  0  0  0  0
   17.3386  -16.9494  -16.5340 O   0  0  0  0  0  0  0  0  0  0  0  0
   26.7199  -10.3495  -14.7813 C   0  0  0  0  0  0  0  0  0  0  0  0
   25.4221  -11.4399  -15.3868 S   0  0  0  0  0  0  0  0  0  0  0  0
   24.4825  -10.6241  -16.7341 C   0  0  0  0  0  0  0  0  0  0  0  0
   23.3612  -11.4871  -17.2237 C   0  0  0  0  0  0  0  0  0  0  0  0
   22.0538  -11.3213  -16.4892 C   0  0  2  0  0  0  0  0  0  0  0  0
   21.1629  -12.3257  -17.0996 N   0  0  0  0  0  0  0  0  0  0  0  0
   21.5328   -9.9762  -16.6771 C   0  0  0  0  0  0  0  0  0  0  0  0
   21.2632   -9.6246  -17.8861 O   0  0  0  0  0  0  0  0  0  0  0  0
   21.2685   -8.9834  -15.7183 N   0  0  0  0  0  0  0  0  0  0  0  0
   20.7520   -7.6430  -16.0955 C   0  0  1  0  0  0  0  0  0  0  0  0
   19.3456   -7.5018  -15.5556 C   0  0  0  0  0  0  0  0  0  0  0  0
   18.7387   -6.1956  -15.9291 C   0  0  0  0  0  0  0  0  0  0  0  0
   17.3361   -6.0571  -15.3230 C   0  0  0  0  0  0  0  0  0  0  0  0
   16.7709   -4.7133  -15.7740 C   0  0  0  0  0  0  0  0  0  0  0  0
   15.4791   -4.4917  -15.1513 N   0  0  0  0  0  0  0  0  0  0  0  0
   21.6187   -6.6531  -15.4605 C   0  0  0  0  0  0  0  0  0  0  0  0
   21.7051   -5.3695  -15.9481 O   0  0  0  0  0  0  0  0  0  0  0  0
   22.3008   -6.9532  -14.4600 O   0  0  0  0  0  0  0  0  0  0  0  0
  2  1  1  6
  2  3  1  0
  3  4  1  0
  4  8  1  0
  5  4  2  0
  6  2  1  0
  7  6  2  0
  9 10  1  0
 10 11  1  0
 11 12  1  0
 13 12  1  6
 13 15  1  0
 13 14  1  0
 14  6  1  0
 15 16  2  0
 17 18  1  0
 17 15  1  0
 19 20  1  0
 18 19  1  1
 21 20  1  0
 22 21  1  0
 23 22  1  0
 24 18  1  0
 25 24  1  0
 26 24  2  0
M  END
$$$$
