DMK.pdb
     RDKit          3D

 26 25  0  0  1  0  0  0  0  0999 V2000
   29.0916  -22.0123  -16.9025 N   0  0  0  0  0  0  0  0  0  0  0  0
   27.7463  -21.5274  -17.0656 C   0  0  1  0  0  0  0  0  0  0  0  0
   27.1927  -22.2001  -18.3240 C   0  0  0  0  0  0  0  0  0  0  0  0
   27.8934  -21.6021  -19.4789 C   0  0  0  0  0  0  0  0  0  0  0  0
   27.9735  -20.3575  -19.5644 O   0  0  0  0  0  0  0  0  0  0  0  0
   26.8926  -21.8242  -15.8878 C   0  0  0  0  0  0  0  0  0  0  0  0
   26.5074  -22.9969  -15.6411 O   0  0  0  0  0  0  0  0  0  0  0  0
   28.4586  -22.3842  -20.4607 O   0  0  0  0  0  0  0  0  0  0  0  0
   25.1232  -21.1055   -8.9631 C   0  0  0  0  0  0  0  0  0  0  0  0
   25.9735  -21.1530  -10.5489 S   0  0  0  0  0  0  0  0  0  0  0  0
   25.4564  -19.7351  -11.5910 C   0  0  0  0  0  0  0  0  0  0  0  0
   26.1135  -19.7721  -12.9358 C   0  0  0  0  0  0  0  0  0  0  0  0
   25.7689  -20.9687  -13.7877 C   0  0  2  0  0  0  0  0  0  0  0  0
   26.5172  -20.7524  -15.0399 N   0  0  0  0  0  0  0  0  0  0  0  0
   24.3364  -21.0196  -14.0358 C   0  0  0  0  0  0  0  0  0  0  0  0
   23.8471  -20.0964  -14.7881 O   0  0  0  0  0  0  0  0  0  0  0  0
   23.3867  -21.9466  -13.5736 N   0  0  0  0  0  0  0  0  0  0  0  0
   21.9479  -21.8411  -13.9263 C   0  0  1  0  0  0  0  0  0  0  0  0
   21.2833  -23.1678  -13.6305 C   0  0  0  0  0  0  0  0  0  0  0  0
   19.8610  -23.1831  -14.0675 C   0  0  0  0  0  0  0  0  0  0  0  0
   19.2432  -24.5709  -13.8523 C   0  0  0  0  0  0  0  0  0  0  0  0
   17.7871  -24.5011  -14.3033 C   0  0  0  0  0  0  0  0  0  0  0  0
   17.1419  -25.7805  -14.0748 N   0  0  0  0  0  0  0  0  0  0  0  0
   21.3698  -20.8061  -13.0725 C   0  0  0  0  0  0  0  0  0  0  0  0
   20.2323  -20.1301  -13.4489 O   0  0  0  0  0  0  0  0  0  0  0  0
   21.8984  -20.5132  -11.9812 O   0  0  0  0  0  0  0  0  0  0  0  0
  2  1  1  1
  2  3  1  0
  3  4  1  0
  4  8  1  0
  5  4  2  0
  6  2  1  0
  7  6  2  0
  9 10  1  0
 10 11  1  0
 11 12  1  0
 13 12  1  1
 13 15  1  0
 13 14  1  0
 14  6  1  0
 15 16  2  0
 17 18  1  0
 17 15  1  0
 19 20  1  0
 18 19  1  1
 21 20  1  0
 22 21  1  0
 23 22  1  0
 24 18  1  0
 25 24  1  0
 26 24  2  0
M  END
$$$$
