DMK.pdb
     RDKit          3D

 26 25  0  0  1  0  0  0  0  0999 V2000
   20.1592  -14.5543  -17.8968 N   0  0  0  0  0  0  0  0  0  0  0  0
   19.9627  -13.1400  -18.0777 C   0  0  1  0  0  0  0  0  0  0  0  0
   18.5193  -12.8463  -17.6619 C   0  0  0  0  0  0  0  0  0  0  0  0
   17.6410  -13.5193  -18.6408 C   0  0  0  0  0  0  0  0  0  0  0  0
   18.0260  -13.6364  -19.8244 O   0  0  0  0  0  0  0  0  0  0  0  0
   20.9181  -12.3308  -17.2800 C   0  0  0  0  0  0  0  0  0  0  0  0
   20.9180  -12.3750  -16.0220 O   0  0  0  0  0  0  0  0  0  0  0  0
   16.4105  -14.0190  -18.2785 O   0  0  0  0  0  0  0  0  0  0  0  0
   27.1104  -10.2715  -14.9190 C   0  0  0  0  0  0  0  0  0  0  0  0
   25.6143  -10.9893  -15.6165 S   0  0  0  0  0  0  0  0  0  0  0  0
   25.3561  -10.3837  -17.3284 C   0  0  0  0  0  0  0  0  0  0  0  0
   24.1389  -10.9946  -17.9504 C   0  0  0  0  0  0  0  0  0  0  0  0
   22.8357  -10.6791  -17.2587 C   0  0  2  0  0  0  0  0  0  0  0  0
   21.8380  -11.5010  -17.9685 N   0  0  0  0  0  0  0  0  0  0  0  0
   22.5275   -9.2625  -17.3778 C   0  0  0  0  0  0  0  0  0  0  0  0
   22.5164   -8.7716  -18.5682 O   0  0  0  0  0  0  0  0  0  0  0  0
   22.2283   -8.3301  -16.3699 N   0  0  0  0  0  0  0  0  0  0  0  0
   21.9366   -6.9065  -16.6764 C   0  0  1  0  0  0  0  0  0  0  0  0
   20.6704   -6.5094  -15.9497 C   0  0  0  0  0  0  0  0  0  0  0  0
   19.4632   -6.6988  -16.7988 C   0  0  0  0  0  0  0  0  0  0  0  0
   18.2090   -6.1857  -16.0792 C   0  0  0  0  0  0  0  0  0  0  0  0
   17.0163   -6.4397  -16.9965 C   0  0  0  0  0  0  0  0  0  0  0  0
   15.8218   -5.8506  -16.4208 N   0  0  0  0  0  0  0  0  0  0  0  0
   23.0569   -6.1182  -16.1686 C   0  0  0  0  0  0  0  0  0  0  0  0
   23.1223   -4.7605  -16.3807 O   0  0  0  0  0  0  0  0  0  0  0  0
   23.9802   -6.6625  -15.5304 O   0  0  0  0  0  0  0  0  0  0  0  0
  2  1  1  1
  2  3  1  0
  3  4  1  0
  4  8  1  0
  5  4  2  0
  6  2  1  0
  7  6  2  0
  9 10  1  0
 10 11  1  0
 11 12  1  0
 13 12  1  6
 13 15  1  0
 13 14  1  0
 14  6  1  0
 15 16  2  0
 17 18  1  0
 17 15  1  0
 19 20  1  0
 18 19  1  1
 21 20  1  0
 22 21  1  0
 23 22  1  0
 24 18  1  0
 25 24  1  0
 26 24  2  0
M  END
$$$$
