DMK.pdb
     RDKit          3D

 26 25  0  0  1  0  0  0  0  0999 V2000
   18.9614  -11.1792  -16.0793 N   0  0  0  0  0  0  0  0  0  0  0  0
   18.3538   -9.9219  -15.7308 C   0  0  1  0  0  0  0  0  0  0  0  0
   16.8528  -10.0806  -15.9847 C   0  0  0  0  0  0  0  0  0  0  0  0
   16.6335   -9.8710  -17.4305 C   0  0  0  0  0  0  0  0  0  0  0  0
   16.7788   -8.7250  -17.9084 O   0  0  0  0  0  0  0  0  0  0  0  0
   18.6143   -9.5410  -14.3197 C   0  0  0  0  0  0  0  0  0  0  0  0
   18.4194  -10.3539  -13.3786 O   0  0  0  0  0  0  0  0  0  0  0  0
   16.2734  -10.9083  -18.2610 O   0  0  0  0  0  0  0  0  0  0  0  0
   23.7602   -9.5752  -13.4265 C   0  0  0  0  0  0  0  0  0  0  0  0
   22.1134   -8.8971  -13.6877 S   0  0  0  0  0  0  0  0  0  0  0  0
   21.9313   -7.3057  -12.7942 C   0  0  0  0  0  0  0  0  0  0  0  0
   20.5357   -6.7735  -12.8971 C   0  0  0  0  0  0  0  0  0  0  0  0
   19.4419   -7.7917  -12.6887 C   0  0  2  0  0  0  0  0  0  0  0  0
   19.0908   -8.2335  -14.0511 N   0  0  0  0  0  0  0  0  0  0  0  0
   18.2999   -7.1815  -12.0255 C   0  0  0  0  0  0  0  0  0  0  0  0
   17.6656   -6.2750  -12.6843 O   0  0  0  0  0  0  0  0  0  0  0  0
   17.7697   -7.4409  -10.7503 N   0  0  0  0  0  0  0  0  0  0  0  0
   16.5408   -6.7681  -10.2574 C   0  0  1  0  0  0  0  0  0  0  0  0
   15.5907   -7.8252   -9.7385 C   0  0  0  0  0  0  0  0  0  0  0  0
   14.3854   -7.2231   -9.1070 C   0  0  0  0  0  0  0  0  0  0  0  0
   13.4204   -8.3165   -8.6303 C   0  0  0  0  0  0  0  0  0  0  0  0
   12.2339   -7.6247   -7.9653 C   0  0  0  0  0  0  0  0  0  0  0  0
   11.3071   -8.6202   -7.4599 N   0  0  0  0  0  0  0  0  0  0  0  0
   16.9405   -5.8916   -9.1590 C   0  0  0  0  0  0  0  0  0  0  0  0
   16.1001   -4.9053   -8.6970 O   0  0  0  0  0  0  0  0  0  0  0  0
   18.0564   -6.0203   -8.6164 O   0  0  0  0  0  0  0  0  0  0  0  0
  2  1  1  1
  2  3  1  0
  3  4  1  0
  4  8  1  0
  5  4  2  0
  6  2  1  0
  7  6  2  0
  9 10  1  0
 10 11  1  0
 11 12  1  0
 13 12  1  6
 13 15  1  0
 13 14  1  0
 14  6  1  0
 15 16  2  0
 17 18  1  0
 17 15  1  0
 19 20  1  0
 18 19  1  1
 21 20  1  0
 22 21  1  0
 23 22  1  0
 24 18  1  0
 25 24  1  0
 26 24  2  0
M  END
$$$$
