AAQ.pdb
     RDKit          3D

 20 19  0  0  1  0  0  0  0  0999 V2000
   -1.6480  -26.8566   27.5889 C   0  0  0  0  0  0  0  0  0  0  0  0
   -2.4922  -27.8375   26.7733 C   0  0  2  0  0  0  0  0  0  0  0  0
   -2.3341  -27.4821   25.3953 N   0  0  0  0  0  0  0  0  0  0  0  0
   -3.9023  -27.6962   27.2387 C   0  0  0  0  0  0  0  0  0  0  0  0
   -4.5262  -26.6330   26.9897 O   0  0  0  0  0  0  0  0  0  0  0  0
   -6.4699  -29.9444   28.9356 C   0  0  0  0  0  0  0  0  0  0  0  0
   -5.9768  -28.6381   28.3354 C   0  0  2  0  0  0  0  0  0  0  0  0
   -4.5879  -28.7099   27.9569 N   0  0  0  0  0  0  0  0  0  0  0  0
   -6.2379  -27.5647   29.3207 C   0  0  0  0  0  0  0  0  0  0  0  0
   -5.3136  -27.2338   30.1015 O   0  0  0  0  0  0  0  0  0  0  0  0
   -7.7797  -20.8908   29.8905 N   0  0  0  0  0  0  0  0  0  0  0  0
   -6.9619  -22.0492   29.9448 C   0  0  0  0  0  0  0  0  0  0  0  0
   -5.7954  -21.9785   29.5118 O   0  0  0  0  0  0  0  0  0  0  0  0
   -7.4778  -23.2994   30.4959 C   0  0  0  0  0  0  0  0  0  0  0  0
   -7.2245  -24.5204   29.6791 C   0  0  0  0  0  0  0  0  0  0  0  0
   -7.7543  -25.7832   30.2757 C   0  0  2  0  0  0  0  0  0  0  0  0
   -7.5031  -26.9268   29.3792 N   0  0  0  0  0  0  0  0  0  0  0  0
   -9.2148  -25.7483   30.4968 C   0  0  0  0  0  0  0  0  0  0  0  0
   -9.9717  -26.2219   29.6216 O   0  0  0  0  0  0  0  0  0  0  0  0
   -9.7703  -25.2099   31.6379 O   0  0  0  0  0  0  0  0  0  0  0  0
  2  1  1  1
  3  2  1  0
  4  2  1  0
  4  5  2  0
  7  6  1  1
  7  8  1  0
  8  4  1  0
  9  7  1  0
  9 17  1  0
 10  9  2  0
 12 11  1  0
 13 12  2  0
 14 12  1  0
 15 14  1  0
 16 17  1  0
 16 15  1  6
 18 16  1  0
 19 18  2  0
 20 18  1  0
M  END
$$$$
