AAQ.pdb
     RDKit          3D

 20 19  0  0  1  0  0  0  0  0999 V2000
    8.4852  -12.6314   19.5337 C   0  0  0  0  0  0  0  0  0  0  0  0
    8.1526  -14.1067   19.3036 C   0  0  2  0  0  0  0  0  0  0  0  0
    6.8159  -14.1608   18.7932 N   0  0  0  0  0  0  0  0  0  0  0  0
    8.2874  -14.7978   20.6186 C   0  0  0  0  0  0  0  0  0  0  0  0
    7.3731  -14.6733   21.4730 O   0  0  0  0  0  0  0  0  0  0  0  0
   10.6566  -17.3682   22.1172 C   0  0  0  0  0  0  0  0  0  0  0  0
    9.5065  -16.3763   22.1729 C   0  0  2  0  0  0  0  0  0  0  0  0
    9.4066  -15.5992   20.9632 N   0  0  0  0  0  0  0  0  0  0  0  0
    9.7010  -15.5304   23.3719 C   0  0  0  0  0  0  0  0  0  0  0  0
   10.4587  -14.5348   23.2831 O   0  0  0  0  0  0  0  0  0  0  0  0
    5.3668  -12.7257   26.2047 N   0  0  0  0  0  0  0  0  0  0  0  0
    6.4761  -12.3988   27.0269 C   0  0  0  0  0  0  0  0  0  0  0  0
    6.3508  -11.4847   27.8646 O   0  0  0  0  0  0  0  0  0  0  0  0
    7.7398  -13.1186   26.8927 C   0  0  0  0  0  0  0  0  0  0  0  0
    7.8212  -14.0774   25.7542 C   0  0  0  0  0  0  0  0  0  0  0  0
    9.0605  -14.9110   25.7365 C   0  0  2  0  0  0  0  0  0  0  0  0
    9.0457  -15.8396   24.5910 N   0  0  0  0  0  0  0  0  0  0  0  0
    9.2081  -15.7507   26.9433 C   0  0  0  0  0  0  0  0  0  0  0  0
    8.6917  -16.8893   26.9564 O   0  0  0  0  0  0  0  0  0  0  0  0
    9.8975  -15.3188   28.0564 O   0  0  0  0  0  0  0  0  0  0  0  0
  2  1  1  1
  3  2  1  0
  4  2  1  0
  4  5  2  0
  7  6  1  6
  7  8  1  0
  8  4  1  0
  9  7  1  0
  9 17  1  0
 10  9  2  0
 12 11  1  0
 13 12  2  0
 14 12  1  0
 15 14  1  0
 16 17  1  0
 16 15  1  1
 18 16  1  0
 19 18  2  0
 20 18  1  0
M  END
$$$$
