AAQ.pdb
     RDKit          3D

 20 19  0  0  1  0  0  0  0  0999 V2000
   14.0587  -14.6562   19.9958 C   0  0  0  0  0  0  0  0  0  0  0  0
   12.7626  -15.1539   19.3536 C   0  0  2  0  0  0  0  0  0  0  0  0
   12.3287  -14.1379   18.4427 N   0  0  0  0  0  0  0  0  0  0  0  0
   11.7853  -15.3831   20.4569 C   0  0  0  0  0  0  0  0  0  0  0  0
   11.3343  -14.3953   21.0913 O   0  0  0  0  0  0  0  0  0  0  0  0
    9.8271  -18.3292   21.8456 C   0  0  0  0  0  0  0  0  0  0  0  0
   10.4000  -16.9229   21.9074 C   0  0  2  0  0  0  0  0  0  0  0  0
   11.3303  -16.6729   20.8353 N   0  0  0  0  0  0  0  0  0  0  0  0
   11.0168  -16.7477   23.2415 C   0  0  0  0  0  0  0  0  0  0  0  0
   12.2609  -16.8703   23.3444 O   0  0  0  0  0  0  0  0  0  0  0  0
    9.7978  -14.0906   30.1147 N   0  0  0  0  0  0  0  0  0  0  0  0
    9.5822  -14.1752   28.7147 C   0  0  0  0  0  0  0  0  0  0  0  0
    8.6396  -13.5312   28.2148 O   0  0  0  0  0  0  0  0  0  0  0  0
   10.4470  -15.0017   27.8769 C   0  0  0  0  0  0  0  0  0  0  0  0
    9.9171  -15.3273   26.5222 C   0  0  0  0  0  0  0  0  0  0  0  0
   10.8173  -16.1880   25.6975 C   0  0  2  0  0  0  0  0  0  0  0  0
   10.2190  -16.4485   24.3751 N   0  0  0  0  0  0  0  0  0  0  0  0
   11.0640  -17.5124   26.3043 C   0  0  0  0  0  0  0  0  0  0  0  0
   10.2428  -18.4336   26.1033 O   0  0  0  0  0  0  0  0  0  0  0  0
   12.1713  -17.7656   27.0856 O   0  0  0  0  0  0  0  0  0  0  0  0
  2  1  1  1
  3  2  1  0
  4  2  1  0
  4  5  2  0
  7  6  1  1
  7  8  1  0
  8  4  1  0
  9  7  1  0
  9 17  1  0
 10  9  2  0
 12 11  1  0
 13 12  2  0
 14 12  1  0
 15 14  1  0
 16 17  1  0
 16 15  1  1
 18 16  1  0
 19 18  2  0
 20 18  1  0
M  END
$$$$
