AAQ.pdb
     RDKit          3D

 20 19  0  0  1  0  0  0  0  0999 V2000
    8.6769  -12.2499   19.9245 C   0  0  0  0  0  0  0  0  0  0  0  0
    8.2506  -13.6213   19.3979 C   0  0  2  0  0  0  0  0  0  0  0  0
    6.9095  -13.4867   18.9145 N   0  0  0  0  0  0  0  0  0  0  0  0
    8.3509  -14.5798   20.5363 C   0  0  0  0  0  0  0  0  0  0  0  0
    7.5657  -14.4581   21.5111 O   0  0  0  0  0  0  0  0  0  0  0  0
   10.0054  -17.9206   21.1322 C   0  0  0  0  0  0  0  0  0  0  0  0
    9.3468  -16.6387   21.6147 C   0  0  2  0  0  0  0  0  0  0  0  0
    9.2972  -15.6364   20.5803 N   0  0  0  0  0  0  0  0  0  0  0  0
   10.0856  -16.1776   22.8117 C   0  0  0  0  0  0  0  0  0  0  0  0
   11.1147  -15.4800   22.6455 O   0  0  0  0  0  0  0  0  0  0  0  0
    9.6180  -13.3886   29.5074 N   0  0  0  0  0  0  0  0  0  0  0  0
    9.1799  -13.8468   28.2379 C   0  0  0  0  0  0  0  0  0  0  0  0
    8.0404  -13.5272   27.8474 O   0  0  0  0  0  0  0  0  0  0  0  0
   10.0469  -14.6775   27.4065 C   0  0  0  0  0  0  0  0  0  0  0  0
    9.4731  -15.1065   26.0992 C   0  0  0  0  0  0  0  0  0  0  0  0
   10.3396  -16.0427   25.3221 C   0  0  2  0  0  0  0  0  0  0  0  0
    9.6393  -16.5172   24.1142 N   0  0  0  0  0  0  0  0  0  0  0  0
   10.7092  -17.2534   26.0842 C   0  0  0  0  0  0  0  0  0  0  0  0
   10.0020  -18.2785   25.9738 O   0  0  0  0  0  0  0  0  0  0  0  0
   11.8097  -17.2893   26.9138 O   0  0  0  0  0  0  0  0  0  0  0  0
  2  1  1  1
  3  2  1  0
  4  2  1  0
  4  5  2  0
  7  6  1  6
  7  8  1  0
  8  4  1  0
  9  7  1  0
  9 17  1  0
 10  9  2  0
 12 11  1  0
 13 12  2  0
 14 12  1  0
 15 14  1  0
 16 17  1  0
 16 15  1  1
 18 16  1  0
 19 18  2  0
 20 18  1  0
M  END
$$$$
