AAQ.pdb
     RDKit          3D

 20 19  0  0  1  0  0  0  0  0999 V2000
   -6.8869  -20.7889   19.7005 C   0  0  0  0  0  0  0  0  0  0  0  0
   -6.9914  -21.1250   21.1891 C   0  0  2  0  0  0  0  0  0  0  0  0
   -7.6948  -20.0459   21.8145 N   0  0  0  0  0  0  0  0  0  0  0  0
   -5.5997  -21.2713   21.7054 C   0  0  0  0  0  0  0  0  0  0  0  0
   -4.9044  -22.2479   21.3252 O   0  0  0  0  0  0  0  0  0  0  0  0
   -3.0596  -19.0988   23.4169 C   0  0  0  0  0  0  0  0  0  0  0  0
   -3.6594  -20.4610   23.1098 C   0  0  2  0  0  0  0  0  0  0  0  0
   -5.0089  -20.3560   22.6147 N   0  0  0  0  0  0  0  0  0  0  0  0
   -3.5727  -21.2774   24.3415 C   0  0  0  0  0  0  0  0  0  0  0  0
   -2.4386  -21.5116   24.8235 O   0  0  0  0  0  0  0  0  0  0  0  0
   -7.3051  -21.0389   29.2870 N   0  0  0  0  0  0  0  0  0  0  0  0
   -6.5597  -22.2218   29.5293 C   0  0  0  0  0  0  0  0  0  0  0  0
   -6.6853  -22.7930   30.6297 O   0  0  0  0  0  0  0  0  0  0  0  0
   -5.6622  -22.7580   28.5095 C   0  0  0  0  0  0  0  0  0  0  0  0
   -5.5525  -21.9566   27.2572 C   0  0  0  0  0  0  0  0  0  0  0  0
   -4.6861  -22.5694   26.2060 C   0  0  2  0  0  0  0  0  0  0  0  0
   -4.7446  -21.7820   24.9605 N   0  0  0  0  0  0  0  0  0  0  0  0
   -5.1007  -23.9407   25.8442 C   0  0  0  0  0  0  0  0  0  0  0  0
   -5.8660  -24.1051   24.8693 O   0  0  0  0  0  0  0  0  0  0  0  0
   -4.6705  -25.0457   26.5475 O   0  0  0  0  0  0  0  0  0  0  0  0
  2  1  1  6
  3  2  1  0
  4  2  1  0
  4  5  2  0
  7  6  1  1
  7  8  1  0
  8  4  1  0
  9  7  1  0
  9 17  1  0
 10  9  2  0
 12 11  1  0
 13 12  2  0
 14 12  1  0
 15 14  1  0
 16 17  1  0
 16 15  1  1
 18 16  1  0
 19 18  2  0
 20 18  1  0
M  END
$$$$
