AAQ.pdb
     RDKit          3D

 20 19  0  0  1  0  0  0  0  0999 V2000
    5.9038  -19.1560   20.2645 C   0  0  0  0  0  0  0  0  0  0  0  0
    6.9004  -18.8785   21.3915 C   0  0  2  0  0  0  0  0  0  0  0  0
    6.1477  -18.7992   22.6070 N   0  0  0  0  0  0  0  0  0  0  0  0
    7.5881  -17.5961   21.0640 C   0  0  0  0  0  0  0  0  0  0  0  0
    8.3701  -17.5539   20.0800 O   0  0  0  0  0  0  0  0  0  0  0  0
    7.1399  -13.9759   21.5761 C   0  0  0  0  0  0  0  0  0  0  0  0
    8.0873  -15.1637   21.5414 C   0  0  2  0  0  0  0  0  0  0  0  0
    7.4057  -16.4044   21.8124 N   0  0  0  0  0  0  0  0  0  0  0  0
    9.1772  -14.8967   22.5068 C   0  0  0  0  0  0  0  0  0  0  0  0
    9.8822  -13.8723   22.3424 O   0  0  0  0  0  0  0  0  0  0  0  0
    9.1988  -14.4213   28.4523 N   0  0  0  0  0  0  0  0  0  0  0  0
    8.8391  -13.6325   27.3289 C   0  0  0  0  0  0  0  0  0  0  0  0
    8.1219  -12.6291   27.5077 O   0  0  0  0  0  0  0  0  0  0  0  0
    9.2993  -13.9906   25.9899 C   0  0  0  0  0  0  0  0  0  0  0  0
   10.0653  -15.2653   25.8877 C   0  0  0  0  0  0  0  0  0  0  0  0
   10.5523  -15.5844   24.5121 C   0  0  2  0  0  0  0  0  0  0  0  0
    9.4172  -15.7787   23.5911 N   0  0  0  0  0  0  0  0  0  0  0  0
   11.3445  -16.8304   24.4553 C   0  0  0  0  0  0  0  0  0  0  0  0
   10.8159  -17.8640   23.9912 O   0  0  0  0  0  0  0  0  0  0  0  0
   12.6488  -16.8900   24.8980 O   0  0  0  0  0  0  0  0  0  0  0  0
  2  1  1  6
  3  2  1  0
  4  2  1  0
  4  5  2  0
  7  6  1  1
  7  8  1  0
  8  4  1  0
  9  7  1  0
  9 17  1  0
 10  9  2  0
 12 11  1  0
 13 12  2  0
 14 12  1  0
 15 14  1  0
 16 17  1  0
 16 15  1  1
 18 16  1  0
 19 18  2  0
 20 18  1  0
M  END
$$$$
