YAT.pdb
     RDKit          3D

 25 25  0  0  1  0  0  0  0  0999 V2000
    5.6018  -10.6111   28.4067 O   0  0  0  0  0  0  0  0  0  0  0  0
    6.2189  -11.5878   27.6291 C   0  0  0  0  0  0  0  0  0  0  0  0
    5.5839  -12.1112   26.5145 C   0  0  0  0  0  0  0  0  0  0  0  0
    6.1931  -13.0726   25.7487 C   0  0  0  0  0  0  0  0  0  0  0  0
    7.4554  -13.5687   26.0383 C   0  0  0  0  0  0  0  0  0  0  0  0
    8.0945  -14.6172   25.1891 C   0  0  0  0  0  0  0  0  0  0  0  0
    7.0014  -15.3998   24.4917 C   0  0  2  0  0  0  0  0  0  0  0  0
    6.7105  -16.6023   25.2801 N   0  0  0  0  0  0  0  0  0  0  0  0
    7.3884  -15.8305   23.1425 C   0  0  0  0  0  0  0  0  0  0  0  0
    7.8413  -16.9973   22.9484 O   0  0  0  0  0  0  0  0  0  0  0  0
    8.0849  -13.0432   27.1517 C   0  0  0  0  0  0  0  0  0  0  0  0
    7.4729  -12.0726   27.9264 C   0  0  0  0  0  0  0  0  0  0  0  0
    7.4483  -14.3334   19.6774 C   0  0  0  0  0  0  0  0  0  0  0  0
    7.7145  -15.4634   20.6722 C   0  0  2  0  0  0  0  0  0  0  0  0
    7.2947  -15.0097   21.9736 N   0  0  0  0  0  0  0  0  0  0  0  0
    9.1262  -15.8907   20.6433 C   0  0  0  0  0  0  0  0  0  0  0  0
   10.0343  -15.0260   20.8181 O   0  0  0  0  0  0  0  0  0  0  0  0
   11.1160  -18.2961   22.7887 C   0  0  0  0  0  0  0  0  0  0  0  0
   11.2074  -18.7548   21.3734 C   0  0  1  0  0  0  0  0  0  0  0  0
   10.3048  -19.7971   21.1792 O   0  0  0  0  0  0  0  0  0  0  0  0
   10.9291  -17.6483   20.3800 C   0  0  2  0  0  0  0  0  0  0  0  0
    9.5458  -17.2229   20.4297 N   0  0  0  0  0  0  0  0  0  0  0  0
   11.3893  -17.9268   19.0163 C   0  0  0  0  0  0  0  0  0  0  0  0
   10.5789  -18.0600   18.0712 O   0  0  0  0  0  0  0  0  0  0  0  0
   12.7443  -18.0633   18.6694 O   0  0  0  0  0  0  0  0  0  0  0  0
  2  1  1  0
  3  2  2  0
  4  3  1  0
  5  4  2  0
  5 11  1  0
  6  5  1  0
  7  9  1  0
  7  6  1  0
  7  8  1  1
  9 10  2  0
 11 12  2  0
 12  2  1  0
 14 13  1  6
 14 16  1  0
 15 14  1  0
 15  9  1  0
 16 22  1  0
 17 16  2  0
 19 20  1  0
 19 18  1  1
 21 19  1  0
 21 22  1  6
 23 25  1  0
 23 21  1  0
 24 23  2  0
M  END
$$$$
