YAT.pdb
     RDKit          3D

 25 25  0  0  1  0  0  0  0  0999 V2000
    7.9015  -13.1884   16.1962 O   0  0  0  0  0  0  0  0  0  0  0  0
    7.9310  -13.5093   17.5510 C   0  0  0  0  0  0  0  0  0  0  0  0
    7.0371  -12.9283   18.4358 C   0  0  0  0  0  0  0  0  0  0  0  0
    7.0663  -13.2460   19.7700 C   0  0  0  0  0  0  0  0  0  0  0  0
    7.9742  -14.1488   20.3028 C   0  0  0  0  0  0  0  0  0  0  0  0
    7.9858  -14.4747   21.7598 C   0  0  0  0  0  0  0  0  0  0  0  0
    7.8260  -15.9726   21.9161 C   0  0  2  0  0  0  0  0  0  0  0  0
    6.4065  -16.3104   21.7641 N   0  0  0  0  0  0  0  0  0  0  0  0
    8.2629  -16.4525   23.2331 C   0  0  0  0  0  0  0  0  0  0  0  0
    7.4732  -16.4140   24.2226 O   0  0  0  0  0  0  0  0  0  0  0  0
    8.8642  -14.7258   19.4157 C   0  0  0  0  0  0  0  0  0  0  0  0
    8.8370  -14.4077   18.0685 C   0  0  0  0  0  0  0  0  0  0  0  0
   10.9408  -18.6328   24.5758 C   0  0  0  0  0  0  0  0  0  0  0  0
    9.9260  -17.5115   24.8003 C   0  0  2  0  0  0  0  0  0  0  0  0
    9.5627  -16.9843   23.5096 N   0  0  0  0  0  0  0  0  0  0  0  0
   10.4515  -16.4785   25.7130 C   0  0  0  0  0  0  0  0  0  0  0  0
   11.2847  -15.6338   25.2712 O   0  0  0  0  0  0  0  0  0  0  0  0
    9.5736  -13.4110   26.8963 C   0  0  0  0  0  0  0  0  0  0  0  0
    9.7290  -14.1945   28.1549 C   0  0  1  0  0  0  0  0  0  0  0  0
    8.4721  -14.6171   28.5797 O   0  0  0  0  0  0  0  0  0  0  0  0
   10.6403  -15.3910   27.9912 C   0  0  2  0  0  0  0  0  0  0  0  0
   10.0844  -16.3625   27.0725 N   0  0  0  0  0  0  0  0  0  0  0  0
   11.0862  -15.9914   29.2520 C   0  0  0  0  0  0  0  0  0  0  0  0
   10.8794  -17.2000   29.5054 O   0  0  0  0  0  0  0  0  0  0  0  0
   11.7651  -15.2755   30.2527 O   0  0  0  0  0  0  0  0  0  0  0  0
  2  1  1  0
  3  2  2  0
  4  3  1  0
  5  4  2  0
  5 11  1  0
  6  5  1  0
  7  9  1  0
  7  6  1  0
  7  8  1  1
  9 10  2  0
 11 12  2  0
 12  2  1  0
 14 13  1  6
 14 16  1  0
 15 14  1  0
 15  9  1  0
 16 22  1  0
 17 16  2  0
 19 20  1  0
 19 18  1  6
 21 19  1  0
 21 22  1  6
 23 25  1  0
 23 21  1  0
 24 23  2  0
M  END
$$$$
