YAT.pdb
     RDKit          3D

 25 25  0  0  1  0  0  0  0  0999 V2000
    5.8982  -10.2628   28.0630 O   0  0  0  0  0  0  0  0  0  0  0  0
    6.3976  -11.4119   27.4551 C   0  0  0  0  0  0  0  0  0  0  0  0
    5.6550  -12.0875   26.5002 C   0  0  0  0  0  0  0  0  0  0  0  0
    6.1483  -13.2188   25.9013 C   0  0  0  0  0  0  0  0  0  0  0  0
    7.3943  -13.7439   26.2095 C   0  0  0  0  0  0  0  0  0  0  0  0
    7.9061  -14.9786   25.5440 C   0  0  0  0  0  0  0  0  0  0  0  0
    6.7956  -15.5589   24.6934 C   0  0  2  0  0  0  0  0  0  0  0  0
    6.2260  -16.7159   25.3926 N   0  0  0  0  0  0  0  0  0  0  0  0
    7.2697  -16.0162   23.3813 C   0  0  0  0  0  0  0  0  0  0  0  0
    7.6325  -17.2183   23.2153 O   0  0  0  0  0  0  0  0  0  0  0  0
    8.1315  -13.0661   27.1630 C   0  0  0  0  0  0  0  0  0  0  0  0
    7.6366  -11.9238   27.7690 C   0  0  0  0  0  0  0  0  0  0  0  0
    7.7510  -14.5290   19.9456 C   0  0  0  0  0  0  0  0  0  0  0  0
    7.8760  -15.6641   20.9622 C   0  0  2  0  0  0  0  0  0  0  0  0
    7.3625  -15.1846   22.2200 N   0  0  0  0  0  0  0  0  0  0  0  0
    9.2639  -16.1545   21.0605 C   0  0  0  0  0  0  0  0  0  0  0  0
   10.1488  -15.3997   21.5604 O   0  0  0  0  0  0  0  0  0  0  0  0
   10.9307  -19.1357   22.8246 C   0  0  0  0  0  0  0  0  0  0  0  0
   11.1777  -19.2307   21.3576 C   0  0  1  0  0  0  0  0  0  0  0  0
   10.2728  -20.1343   20.8067 O   0  0  0  0  0  0  0  0  0  0  0  0
   11.0560  -17.8960   20.6556 C   0  0  2  0  0  0  0  0  0  0  0  0
    9.6846  -17.4319   20.6273 N   0  0  0  0  0  0  0  0  0  0  0  0
   11.7020  -17.8405   19.3409 C   0  0  0  0  0  0  0  0  0  0  0  0
   11.0284  -17.7613   18.2884 O   0  0  0  0  0  0  0  0  0  0  0  0
   13.0954  -17.8710   19.1613 O   0  0  0  0  0  0  0  0  0  0  0  0
  2  1  1  0
  3  2  2  0
  4  3  1  0
  5  4  2  0
  5 11  1  0
  6  5  1  0
  7  9  1  0
  7  6  1  0
  7  8  1  1
  9 10  2  0
 11 12  2  0
 12  2  1  0
 14 13  1  6
 14 16  1  0
 15 14  1  0
 15  9  1  0
 16 22  1  0
 17 16  2  0
 19 20  1  0
 19 18  1  1
 21 19  1  0
 21 22  1  6
 23 25  1  0
 23 21  1  0
 24 23  2  0
M  END
$$$$
