YAT.pdb
     RDKit          3D

 25 25  0  0  1  0  0  0  0  0999 V2000
    5.8555  -11.6667   28.8488 O   0  0  0  0  0  0  0  0  0  0  0  0
    6.3811  -12.2098   27.6791 C   0  0  0  0  0  0  0  0  0  0  0  0
    7.7124  -12.0198   27.3461 C   0  0  0  0  0  0  0  0  0  0  0  0
    8.2293  -12.5561   26.1941 C   0  0  0  0  0  0  0  0  0  0  0  0
    7.4659  -13.3050   25.3112 C   0  0  0  0  0  0  0  0  0  0  0  0
    8.0534  -13.8753   24.0627 C   0  0  0  0  0  0  0  0  0  0  0  0
    8.1998  -15.3718   24.2432 C   0  0  2  0  0  0  0  0  0  0  0  0
    9.2130  -15.6221   25.2742 N   0  0  0  0  0  0  0  0  0  0  0  0
    8.6330  -16.0489   23.0146 C   0  0  0  0  0  0  0  0  0  0  0  0
    9.8327  -15.9531   22.6200 O   0  0  0  0  0  0  0  0  0  0  0  0
    6.1379  -13.4917   25.6480 C   0  0  0  0  0  0  0  0  0  0  0  0
    5.6133  -12.9522   26.8101 C   0  0  0  0  0  0  0  0  0  0  0  0
    7.6182  -18.7305   20.7126 C   0  0  0  0  0  0  0  0  0  0  0  0
    8.1844  -17.3211   20.8877 C   0  0  2  0  0  0  0  0  0  0  0  0
    7.7792  -16.8441   22.1854 N   0  0  0  0  0  0  0  0  0  0  0  0
    7.7633  -16.4270   19.7924 C   0  0  0  0  0  0  0  0  0  0  0  0
    6.5422  -16.1073   19.6945 O   0  0  0  0  0  0  0  0  0  0  0  0
    8.3727  -12.9909   19.2343 C   0  0  0  0  0  0  0  0  0  0  0  0
    8.7996  -13.6106   17.9475 C   0  0  1  0  0  0  0  0  0  0  0  0
   10.1908  -13.6538   17.9088 O   0  0  0  0  0  0  0  0  0  0  0  0
    8.2411  -15.0033   17.7544 C   0  0  2  0  0  0  0  0  0  0  0  0
    8.6431  -15.8918   18.8250 N   0  0  0  0  0  0  0  0  0  0  0  0
    8.4769  -15.5729   16.4245 C   0  0  0  0  0  0  0  0  0  0  0  0
    9.0498  -16.6771   16.2825 O   0  0  0  0  0  0  0  0  0  0  0  0
    8.0881  -14.9401   15.2314 O   0  0  0  0  0  0  0  0  0  0  0  0
  2  1  1  0
  3  2  2  0
  4  3  1  0
  5  4  2  0
  5 11  1  0
  6  5  1  0
  7  9  1  0
  7  6  1  0
  7  8  1  1
  9 10  2  0
 11 12  2  0
 12  2  1  0
 14 13  1  6
 14 16  1  0
 15 14  1  0
 15  9  1  0
 16 22  1  0
 17 16  2  0
 19 20  1  0
 19 18  1  1
 21 19  1  0
 21 22  1  1
 23 25  1  0
 23 21  1  0
 24 23  2  0
M  END
$$$$
