YAT.pdb
     RDKit          3D

 25 25  0  0  1  0  0  0  0  0999 V2000
    9.2632  -12.7341   29.5131 O   0  0  0  0  0  0  0  0  0  0  0  0
    8.9954  -13.3819   28.3098 C   0  0  0  0  0  0  0  0  0  0  0  0
    9.9910  -14.0777   27.6434 C   0  0  0  0  0  0  0  0  0  0  0  0
    9.7258  -14.7164   26.4586 C   0  0  0  0  0  0  0  0  0  0  0  0
    8.4709  -14.7039   25.8683 C   0  0  0  0  0  0  0  0  0  0  0  0
    8.2101  -15.4056   24.5765 C   0  0  0  0  0  0  0  0  0  0  0  0
    7.3835  -16.6420   24.8622 C   0  0  2  0  0  0  0  0  0  0  0  0
    8.1953  -17.5763   25.6497 N   0  0  0  0  0  0  0  0  0  0  0  0
    6.9625  -17.3348   23.6382 C   0  0  0  0  0  0  0  0  0  0  0  0
    7.7216  -18.1900   23.0935 O   0  0  0  0  0  0  0  0  0  0  0  0
    7.4807  -14.0081   26.5373 C   0  0  0  0  0  0  0  0  0  0  0  0
    7.7451  -13.3629   27.7334 C   0  0  0  0  0  0  0  0  0  0  0  0
    3.9345  -17.4440   21.3986 C   0  0  0  0  0  0  0  0  0  0  0  0
    5.4247  -17.6526   21.6689 C   0  0  2  0  0  0  0  0  0  0  0  0
    5.7121  -17.1186   22.9758 N   0  0  0  0  0  0  0  0  0  0  0  0
    6.2578  -17.0523   20.6097 C   0  0  0  0  0  0  0  0  0  0  0  0
    6.1314  -17.4653   19.4197 O   0  0  0  0  0  0  0  0  0  0  0  0
    6.5882  -13.4790   19.6313 C   0  0  0  0  0  0  0  0  0  0  0  0
    7.9892  -13.9720   19.7591 C   0  0  1  0  0  0  0  0  0  0  0  0
    8.5542  -13.4281   20.9097 O   0  0  0  0  0  0  0  0  0  0  0  0
    8.0762  -15.4814   19.8133 C   0  0  2  0  0  0  0  0  0  0  0  0
    7.2062  -16.0290   20.8332 N   0  0  0  0  0  0  0  0  0  0  0  0
    9.4421  -16.0084   19.8886 C   0  0  0  0  0  0  0  0  0  0  0  0
   10.2979  -15.7225   19.0206 O   0  0  0  0  0  0  0  0  0  0  0  0
    9.8890  -16.8562   20.9163 O   0  0  0  0  0  0  0  0  0  0  0  0
  2  1  1  0
  3  2  2  0
  4  3  1  0
  5  4  2  0
  5 11  1  0
  6  5  1  0
  7  9  1  0
  7  6  1  0
  7  8  1  1
  9 10  2  0
 11 12  2  0
 12  2  1  0
 14 13  1  6
 14 16  1  0
 15 14  1  0
 15  9  1  0
 16 22  1  0
 17 16  2  0
 19 20  1  0
 19 18  1  1
 21 19  1  0
 21 22  1  1
 23 25  1  0
 23 21  1  0
 24 23  2  0
M  END
$$$$
