YAT.pdb
     RDKit          3D

 25 25  0  0  1  0  0  0  0  0999 V2000
   10.2540  -14.1946   30.7889 O   0  0  0  0  0  0  0  0  0  0  0  0
   10.0899  -14.4918   29.4383 C   0  0  0  0  0  0  0  0  0  0  0  0
    9.6147  -13.5356   28.5556 C   0  0  0  0  0  0  0  0  0  0  0  0
    9.4543  -13.8291   27.2252 C   0  0  0  0  0  0  0  0  0  0  0  0
    9.7516  -15.0755   26.6946 C   0  0  0  0  0  0  0  0  0  0  0  0
    9.5653  -15.3690   25.2426 C   0  0  0  0  0  0  0  0  0  0  0  0
    8.0813  -15.4889   24.9654 C   0  0  2  0  0  0  0  0  0  0  0  0
    7.5646  -16.6612   25.6801 N   0  0  0  0  0  0  0  0  0  0  0  0
    7.7862  -15.6674   23.5382 C   0  0  0  0  0  0  0  0  0  0  0  0
    7.5832  -16.8252   23.0666 O   0  0  0  0  0  0  0  0  0  0  0  0
   10.2255  -16.0264   27.5796 C   0  0  0  0  0  0  0  0  0  0  0  0
   10.3888  -15.7331   28.9228 C   0  0  0  0  0  0  0  0  0  0  0  0
    7.4614  -13.4668   20.4888 C   0  0  0  0  0  0  0  0  0  0  0  0
    7.6031  -14.8278   21.1707 C   0  0  2  0  0  0  0  0  0  0  0  0
    7.7043  -14.5987   22.5895 N   0  0  0  0  0  0  0  0  0  0  0  0
    8.7458  -15.5889   20.6312 C   0  0  0  0  0  0  0  0  0  0  0  0
    9.9174  -15.2851   21.0025 O   0  0  0  0  0  0  0  0  0  0  0  0
    9.0517  -19.5660   20.3251 C   0  0  0  0  0  0  0  0  0  0  0  0
    9.3595  -18.8894   19.0330 C   0  0  1  0  0  0  0  0  0  0  0  0
    8.2501  -18.9895   18.1975 O   0  0  0  0  0  0  0  0  0  0  0  0
    9.7353  -17.4345   19.2088 C   0  0  2  0  0  0  0  0  0  0  0  0
    8.6237  -16.6539   19.7107 N   0  0  0  0  0  0  0  0  0  0  0  0
   10.3736  -16.8266   18.0375 C   0  0  0  0  0  0  0  0  0  0  0  0
    9.7853  -15.9580   17.3541 O   0  0  0  0  0  0  0  0  0  0  0  0
   11.6657  -17.1625   17.5986 O   0  0  0  0  0  0  0  0  0  0  0  0
  2  1  1  0
  3  2  2  0
  4  3  1  0
  5  4  2  0
  5 11  1  0
  6  5  1  0
  7  9  1  0
  7  6  1  0
  7  8  1  1
  9 10  2  0
 11 12  2  0
 12  2  1  0
 14 13  1  6
 14 16  1  0
 15 14  1  0
 15  9  1  0
 16 22  1  0
 17 16  2  0
 19 20  1  0
 19 18  1  1
 21 19  1  0
 21 22  1  6
 23 25  1  0
 23 21  1  0
 24 23  2  0
M  END
$$$$
