YAT.pdb
     RDKit          3D

 25 25  0  0  1  0  0  0  0  0999 V2000
    5.5608  -10.9590   28.8902 O   0  0  0  0  0  0  0  0  0  0  0  0
    6.1576  -11.7901   27.9456 C   0  0  0  0  0  0  0  0  0  0  0  0
    6.9455  -12.8592   28.3403 C   0  0  0  0  0  0  0  0  0  0  0  0
    7.5322  -13.6779   27.4090 C   0  0  0  0  0  0  0  0  0  0  0  0
    7.3756  -13.4884   26.0441 C   0  0  0  0  0  0  0  0  0  0  0  0
    8.0277  -14.3934   25.0517 C   0  0  0  0  0  0  0  0  0  0  0  0
    6.9452  -15.1540   24.3145 C   0  0  2  0  0  0  0  0  0  0  0  0
    6.5330  -16.2967   25.1368 N   0  0  0  0  0  0  0  0  0  0  0  0
    7.4027  -15.6744   23.0201 C   0  0  0  0  0  0  0  0  0  0  0  0
    7.9088  -16.8326   22.9387 O   0  0  0  0  0  0  0  0  0  0  0  0
    6.5885  -12.4202   25.6553 C   0  0  0  0  0  0  0  0  0  0  0  0
    5.9946  -11.5923   26.5928 C   0  0  0  0  0  0  0  0  0  0  0  0
    7.6043  -14.4313   19.4614 C   0  0  0  0  0  0  0  0  0  0  0  0
    7.8074  -15.4950   20.5407 C   0  0  2  0  0  0  0  0  0  0  0  0
    7.3234  -14.9546   21.7854 N   0  0  0  0  0  0  0  0  0  0  0  0
    9.2148  -15.9310   20.6151 C   0  0  0  0  0  0  0  0  0  0  0  0
    9.9530  -15.4720   21.5356 O   0  0  0  0  0  0  0  0  0  0  0  0
   11.0766  -17.1244   22.3708 C   0  0  0  0  0  0  0  0  0  0  0  0
   11.2648  -18.0826   21.2445 C   0  0  1  0  0  0  0  0  0  0  0  0
   10.3338  -19.1106   21.3682 O   0  0  0  0  0  0  0  0  0  0  0  0
   11.1230  -17.4274   19.8883 C   0  0  2  0  0  0  0  0  0  0  0  0
    9.8100  -16.8421   19.7139 N   0  0  0  0  0  0  0  0  0  0  0  0
   11.5219  -18.2744   18.7602 C   0  0  0  0  0  0  0  0  0  0  0  0
   10.6894  -18.6523   17.9048 O   0  0  0  0  0  0  0  0  0  0  0  0
   12.8389  -18.7191   18.5541 O   0  0  0  0  0  0  0  0  0  0  0  0
  2  1  1  0
  3  2  2  0
  4  3  1  0
  5  4  2  0
  5 11  1  0
  6  5  1  0
  7  9  1  0
  7  6  1  0
  7  8  1  1
  9 10  2  0
 11 12  2  0
 12  2  1  0
 14 13  1  6
 14 16  1  0
 15 14  1  0
 15  9  1  0
 16 22  1  0
 17 16  2  0
 19 20  1  0
 19 18  1  1
 21 19  1  0
 21 22  1  6
 23 25  1  0
 23 21  1  0
 24 23  2  0
M  END
$$$$
