YAT.pdb
     RDKit          3D

 25 25  0  0  1  0  0  0  0  0999 V2000
    5.3175  -11.1773   27.1839 O   0  0  0  0  0  0  0  0  0  0  0  0
    6.3102  -11.9991   26.6561 C   0  0  0  0  0  0  0  0  0  0  0  0
    7.2154  -12.6391   27.4871 C   0  0  0  0  0  0  0  0  0  0  0  0
    8.1922  -13.4493   26.9662 C   0  0  0  0  0  0  0  0  0  0  0  0
    8.3301  -13.6716   25.6043 C   0  0  0  0  0  0  0  0  0  0  0  0
    9.4042  -14.5566   25.0637 C   0  0  0  0  0  0  0  0  0  0  0  0
    8.7503  -15.7303   24.3649 C   0  0  2  0  0  0  0  0  0  0  0  0
    7.8364  -16.3860   25.3066 N   0  0  0  0  0  0  0  0  0  0  0  0
    9.7239  -16.7321   23.9131 C   0  0  0  0  0  0  0  0  0  0  0  0
   10.7658  -16.3753   23.2876 O   0  0  0  0  0  0  0  0  0  0  0  0
    7.4243  -13.0306   24.7792 C   0  0  0  0  0  0  0  0  0  0  0  0
    6.4370  -12.2127   25.3018 C   0  0  0  0  0  0  0  0  0  0  0  0
   10.0860  -20.4870   24.0383 C   0  0  0  0  0  0  0  0  0  0  0  0
   10.4739  -19.1034   23.5159 C   0  0  2  0  0  0  0  0  0  0  0  0
    9.5928  -18.1413   24.1272 N   0  0  0  0  0  0  0  0  0  0  0  0
   10.4434  -19.0515   22.0419 C   0  0  0  0  0  0  0  0  0  0  0  0
   11.1243  -19.8909   21.3828 O   0  0  0  0  0  0  0  0  0  0  0  0
    7.0892  -17.6710   20.1344 C   0  0  0  0  0  0  0  0  0  0  0  0
    8.3458  -17.3198   19.4135 C   0  0  1  0  0  0  0  0  0  0  0  0
    8.6180  -15.9693   19.6156 O   0  0  0  0  0  0  0  0  0  0  0  0
    9.5289  -18.1503   19.8601 C   0  0  2  0  0  0  0  0  0  0  0  0
    9.6939  -18.1124   21.2983 N   0  0  0  0  0  0  0  0  0  0  0  0
   10.7736  -17.8715   19.1378 C   0  0  0  0  0  0  0  0  0  0  0  0
   11.7997  -17.4789   19.7384 O   0  0  0  0  0  0  0  0  0  0  0  0
   10.9111  -18.0190   17.7471 O   0  0  0  0  0  0  0  0  0  0  0  0
  2  1  1  0
  3  2  2  0
  4  3  1  0
  5  4  2  0
  5 11  1  0
  6  5  1  0
  7  9  1  0
  7  6  1  0
  7  8  1  1
  9 10  2  0
 11 12  2  0
 12  2  1  0
 14 13  1  6
 14 16  1  0
 15 14  1  0
 15  9  1  0
 16 22  1  0
 17 16  2  0
 19 20  1  0
 19 18  1  1
 21 19  1  0
 21 22  1  1
 23 25  1  0
 23 21  1  0
 24 23  2  0
M  END
$$$$
