YAT.pdb
     RDKit          3D

 25 25  0  0  1  0  0  0  0  0999 V2000
    8.0043  -12.2088   28.7535 O   0  0  0  0  0  0  0  0  0  0  0  0
    7.6573  -12.8816   27.5846 C   0  0  0  0  0  0  0  0  0  0  0  0
    7.7661  -14.2603   27.5022 C   0  0  0  0  0  0  0  0  0  0  0  0
    7.4231  -14.9220   26.3506 C   0  0  0  0  0  0  0  0  0  0  0  0
    6.9568  -14.2643   25.2222 C   0  0  0  0  0  0  0  0  0  0  0  0
    6.5927  -15.0091   23.9805 C   0  0  0  0  0  0  0  0  0  0  0  0
    7.8678  -15.3642   23.2445 C   0  0  2  0  0  0  0  0  0  0  0  0
    8.9181  -14.4220   23.6461 N   0  0  0  0  0  0  0  0  0  0  0  0
    7.7208  -15.2775   21.7863 C   0  0  0  0  0  0  0  0  0  0  0  0
    6.9363  -16.0614   21.1744 O   0  0  0  0  0  0  0  0  0  0  0  0
    6.8500  -12.8884   25.3094 C   0  0  0  0  0  0  0  0  0  0  0  0
    7.1950  -12.2176   26.4704 C   0  0  0  0  0  0  0  0  0  0  0  0
    8.5231  -12.8159   19.1097 C   0  0  0  0  0  0  0  0  0  0  0  0
    8.1930  -14.2461   19.5376 C   0  0  2  0  0  0  0  0  0  0  0  0
    8.4182  -14.3419   20.9573 N   0  0  0  0  0  0  0  0  0  0  0  0
    8.9692  -15.2361   18.7671 C   0  0  0  0  0  0  0  0  0  0  0  0
   10.1170  -15.5743   19.1806 O   0  0  0  0  0  0  0  0  0  0  0  0
    9.0677  -18.6926   15.1569 C   0  0  0  0  0  0  0  0  0  0  0  0
    8.3678  -17.5693   15.8426 C   0  0  1  0  0  0  0  0  0  0  0  0
    7.2445  -18.0707   16.4951 O   0  0  0  0  0  0  0  0  0  0  0  0
    9.2525  -16.8462   16.8342 C   0  0  2  0  0  0  0  0  0  0  0  0
    8.5142  -15.8455   17.5763 N   0  0  0  0  0  0  0  0  0  0  0  0
   10.5012  -16.3274   16.2680 C   0  0  0  0  0  0  0  0  0  0  0  0
   10.5696  -15.1693   15.7971 O   0  0  0  0  0  0  0  0  0  0  0  0
   11.6923  -17.0708   16.2100 O   0  0  0  0  0  0  0  0  0  0  0  0
  2  1  1  0
  3  2  2  0
  4  3  1  0
  5  4  2  0
  5 11  1  0
  6  5  1  0
  7  9  1  0
  7  6  1  0
  7  8  1  1
  9 10  2  0
 11 12  2  0
 12  2  1  0
 14 13  1  6
 14 16  1  0
 15 14  1  0
 15  9  1  0
 16 22  1  0
 17 16  2  0
 19 20  1  0
 19 18  1  1
 21 19  1  0
 21 22  1  6
 23 25  1  0
 23 21  1  0
 24 23  2  0
M  END
$$$$
