YAT.pdb
     RDKit          3D

 25 25  0  0  1  0  0  0  0  0999 V2000
    7.6761  -13.0288   16.1966 O   0  0  0  0  0  0  0  0  0  0  0  0
    7.7334  -13.3391   17.5530 C   0  0  0  0  0  0  0  0  0  0  0  0
    8.8092  -14.0395   18.0743 C   0  0  0  0  0  0  0  0  0  0  0  0
    8.8650  -14.3437   19.4108 C   0  0  0  0  0  0  0  0  0  0  0  0
    7.8682  -13.9767   20.3023 C   0  0  0  0  0  0  0  0  0  0  0  0
    7.9529  -14.3230   21.7522 C   0  0  0  0  0  0  0  0  0  0  0  0
    7.8478  -15.8274   21.8915 C   0  0  2  0  0  0  0  0  0  0  0  0
    6.4471  -16.2187   21.6999 N   0  0  0  0  0  0  0  0  0  0  0  0
    8.2694  -16.3024   23.2152 C   0  0  0  0  0  0  0  0  0  0  0  0
    7.5285  -16.1207   24.2263 O   0  0  0  0  0  0  0  0  0  0  0  0
    6.7967  -13.2780   19.7772 C   0  0  0  0  0  0  0  0  0  0  0  0
    6.7375  -12.9690   18.4289 C   0  0  0  0  0  0  0  0  0  0  0  0
   10.9536  -18.4916   24.6461 C   0  0  0  0  0  0  0  0  0  0  0  0
    9.8904  -17.4034   24.7976 C   0  0  2  0  0  0  0  0  0  0  0  0
    9.5008  -16.9842   23.4754 N   0  0  0  0  0  0  0  0  0  0  0  0
   10.3716  -16.2868   25.6331 C   0  0  0  0  0  0  0  0  0  0  0  0
   11.1390  -15.4207   25.1196 O   0  0  0  0  0  0  0  0  0  0  0  0
    9.0683  -13.2952   26.7565 C   0  0  0  0  0  0  0  0  0  0  0  0
    9.4603  -13.9668   28.0283 C   0  0  1  0  0  0  0  0  0  0  0  0
    8.3269  -14.5332   28.6058 O   0  0  0  0  0  0  0  0  0  0  0  0
   10.5157  -15.0318   27.8269 C   0  0  2  0  0  0  0  0  0  0  0  0
   10.0307  -16.1119   26.9931 N   0  0  0  0  0  0  0  0  0  0  0  0
   11.1428  -15.5066   29.0640 C   0  0  0  0  0  0  0  0  0  0  0  0
   11.1955  -16.7269   29.3392 O   0  0  0  0  0  0  0  0  0  0  0  0
   11.7208  -14.6505   30.0167 O   0  0  0  0  0  0  0  0  0  0  0  0
  2  1  1  0
  3  2  2  0
  4  3  1  0
  5  4  2  0
  5 11  1  0
  6  5  1  0
  7  9  1  0
  7  6  1  0
  7  8  1  1
  9 10  2  0
 11 12  2  0
 12  2  1  0
 14 13  1  6
 14 16  1  0
 15 14  1  0
 15  9  1  0
 16 22  1  0
 17 16  2  0
 19 20  1  0
 19 18  1  6
 21 19  1  0
 21 22  1  1
 23 25  1  0
 23 21  1  0
 24 23  2  0
M  END
$$$$
