YAT.pdb
     RDKit          3D

 25 25  0  0  1  0  0  0  0  0999 V2000
    9.5685  -20.0914   14.1586 O   0  0  0  0  0  0  0  0  0  0  0  0
    9.9364  -19.8922   15.4869 C   0  0  0  0  0  0  0  0  0  0  0  0
   11.2538  -20.0460   15.8874 C   0  0  0  0  0  0  0  0  0  0  0  0
   11.6152  -19.8486   17.1959 C   0  0  0  0  0  0  0  0  0  0  0  0
   10.7024  -19.4910   18.1768 C   0  0  0  0  0  0  0  0  0  0  0  0
   11.1225  -19.2847   19.5946 C   0  0  0  0  0  0  0  0  0  0  0  0
   11.4578  -17.8203   19.7859 C   0  0  2  0  0  0  0  0  0  0  0  0
   12.7411  -17.5443   19.1309 N   0  0  0  0  0  0  0  0  0  0  0  0
   11.5877  -17.4511   21.2009 C   0  0  0  0  0  0  0  0  0  0  0  0
   12.7048  -17.5528   21.7890 O   0  0  0  0  0  0  0  0  0  0  0  0
    9.3890  -19.3388   17.7721 C   0  0  0  0  0  0  0  0  0  0  0  0
    9.0210  -19.5369   16.4522 C   0  0  0  0  0  0  0  0  0  0  0  0
    9.6497  -15.4708   23.6784 C   0  0  0  0  0  0  0  0  0  0  0  0
   10.7023  -16.5372   23.3745 C   0  0  2  0  0  0  0  0  0  0  0  0
   10.5132  -16.9640   22.0115 N   0  0  0  0  0  0  0  0  0  0  0  0
   10.6384  -17.6530   24.3375 C   0  0  0  0  0  0  0  0  0  0  0  0
    9.5930  -18.3656   24.3846 O   0  0  0  0  0  0  0  0  0  0  0  0
   12.8893  -20.5697   24.5225 C   0  0  0  0  0  0  0  0  0  0  0  0
   12.8251  -20.0435   25.9157 C   0  0  1  0  0  0  0  0  0  0  0  0
   14.0120  -19.3723   26.1981 O   0  0  0  0  0  0  0  0  0  0  0  0
   11.6504  -19.1166   26.1382 C   0  0  2  0  0  0  0  0  0  0  0  0
   11.6813  -17.9895   25.2294 N   0  0  0  0  0  0  0  0  0  0  0  0
   11.4490  -18.7158   27.5338 C   0  0  0  0  0  0  0  0  0  0  0  0
   11.3931  -17.5088   27.8619 O   0  0  0  0  0  0  0  0  0  0  0  0
   11.3063  -19.6324   28.5894 O   0  0  0  0  0  0  0  0  0  0  0  0
  2  1  1  0
  3  2  2  0
  4  3  1  0
  5  4  2  0
  5 11  1  0
  6  5  1  0
  7  9  1  0
  7  6  1  0
  7  8  1  6
  9 10  2  0
 11 12  2  0
 12  2  1  0
 14 13  1  1
 14 16  1  0
 15 14  1  0
 15  9  1  0
 16 22  1  0
 17 16  2  0
 19 20  1  0
 19 18  1  6
 21 19  1  0
 21 22  1  6
 23 25  1  0
 23 21  1  0
 24 23  2  0
M  END
$$$$
