SAE.pdb
     RDKit          3D

 21 20  0  0  1  0  0  0  0  0999 V2000
   -3.2932  -26.9658   27.2722 O   0  0  0  0  0  0  0  0  0  0  0  0
   -2.4707  -26.4515   26.2883 C   0  0  0  0  0  0  0  0  0  0  0  0
   -1.5814  -25.4063   26.9273 C   0  0  2  0  0  0  0  0  0  0  0  0
   -0.8036  -26.0739   27.9546 N   0  0  0  0  0  0  0  0  0  0  0  0
   -2.4877  -24.3918   27.5599 C   0  0  0  0  0  0  0  0  0  0  0  0
   -2.8079  -24.5335   28.7661 O   0  0  0  0  0  0  0  0  0  0  0  0
   -4.0202  -21.1552   26.4610 C   0  0  0  0  0  0  0  0  0  0  0  0
   -3.8560  -22.2718   27.4617 C   0  0  2  0  0  0  0  0  0  0  0  0
   -3.0030  -23.2792   26.8665 N   0  0  0  0  0  0  0  0  0  0  0  0
   -5.1547  -22.8359   27.9039 C   0  0  0  0  0  0  0  0  0  0  0  0
   -5.6738  -23.7889   27.2689 O   0  0  0  0  0  0  0  0  0  0  0  0
   -5.8700  -22.3542   29.0314 N   0  0  0  0  0  0  0  0  0  0  0  0
   -7.1457  -22.8906   29.4738 C   0  0  1  0  0  0  0  0  0  0  0  0
   -6.8858  -24.0242   30.4198 C   0  0  0  0  0  0  0  0  0  0  0  0
   -8.0999  -24.7139   30.9358 C   0  0  0  0  0  0  0  0  0  0  0  0
   -7.8132  -25.8759   31.8038 C   0  0  0  0  0  0  0  0  0  0  0  0
   -6.6677  -26.2963   32.0950 O   0  0  0  0  0  0  0  0  0  0  0  0
   -7.9962  -21.8224   30.0713 C   0  0  0  0  0  0  0  0  0  0  0  0
   -7.4963  -20.7964   30.6264 O   0  0  0  0  0  0  0  0  0  0  0  0
   -8.8919  -26.5599   32.3423 O   0  0  0  0  0  0  0  0  0  0  0  0
   -9.3787  -21.9006   30.0478 O   0  0  0  0  0  0  0  0  0  0  0  0
  1  2  1  0
  2  3  1  0
  3  4  1  1
  5  3  1  0
  5  6  2  0
  8  7  1  6
  8 10  1  0
  8  9  1  0
  9  5  1  0
 10 12  1  0
 11 10  2  0
 12 13  1  0
 13 14  1  1
 14 15  1  0
 15 16  1  0
 16 20  1  0
 17 16  2  0
 18 13  1  0
 19 18  2  0
 21 18  1  0
M  END
$$$$
