SAE.pdb
     RDKit          3D

 21 20  0  0  1  0  0  0  0  0999 V2000
    2.8892  -21.2235   16.6703 O   0  0  0  0  0  0  0  0  0  0  0  0
    3.0555  -21.0943   18.0359 C   0  0  0  0  0  0  0  0  0  0  0  0
    1.6920  -21.2156   18.6822 C   0  0  2  0  0  0  0  0  0  0  0  0
    0.9012  -20.0849   18.2326 N   0  0  0  0  0  0  0  0  0  0  0  0
    1.9039  -21.1256   20.1648 C   0  0  0  0  0  0  0  0  0  0  0  0
    2.2496  -20.0252   20.6620 O   0  0  0  0  0  0  0  0  0  0  0  0
    0.7556  -22.9235   23.0993 C   0  0  0  0  0  0  0  0  0  0  0  0
    1.8876  -22.1471   22.4740 C   0  0  2  0  0  0  0  0  0  0  0  0
    1.7341  -22.2194   21.0360 N   0  0  0  0  0  0  0  0  0  0  0  0
    3.2199  -22.6283   22.9143 C   0  0  0  0  0  0  0  0  0  0  0  0
    3.7892  -23.5588   22.2890 O   0  0  0  0  0  0  0  0  0  0  0  0
    3.9136  -22.0895   24.0294 N   0  0  0  0  0  0  0  0  0  0  0  0
    5.2015  -22.5735   24.4960 C   0  0  1  0  0  0  0  0  0  0  0  0
    5.7758  -21.5659   25.4459 C   0  0  0  0  0  0  0  0  0  0  0  0
    7.1151  -21.9046   26.0004 C   0  0  0  0  0  0  0  0  0  0  0  0
    7.6520  -20.8999   26.9428 C   0  0  0  0  0  0  0  0  0  0  0  0
    7.0842  -19.8261   27.2565 O   0  0  0  0  0  0  0  0  0  0  0  0
    5.0757  -23.9307   25.0992 C   0  0  0  0  0  0  0  0  0  0  0  0
    4.0048  -24.3223   25.6566 O   0  0  0  0  0  0  0  0  0  0  0  0
    8.8805  -21.1588   27.5301 O   0  0  0  0  0  0  0  0  0  0  0  0
    6.1272  -24.8317   25.0789 O   0  0  0  0  0  0  0  0  0  0  0  0
  1  2  1  0
  2  3  1  0
  3  4  1  6
  5  3  1  0
  5  6  2  0
  8  7  1  1
  8 10  1  0
  8  9  1  0
  9  5  1  0
 10 12  1  0
 11 10  2  0
 12 13  1  0
 13 14  1  1
 14 15  1  0
 15 16  1  0
 16 20  1  0
 17 16  2  0
 18 13  1  0
 19 18  2  0
 21 18  1  0
M  END
$$$$
