SAE.pdb
     RDKit          3D

 21 20  0  0  1  0  0  0  0  0999 V2000
    8.3078  -19.0948   19.1615 O   0  0  0  0  0  0  0  0  0  0  0  0
    7.0538  -18.5297   19.0303 C   0  0  0  0  0  0  0  0  0  0  0  0
    7.2304  -17.1349   18.4692 C   0  0  2  0  0  0  0  0  0  0  0  0
    7.9513  -17.2637   17.2164 N   0  0  0  0  0  0  0  0  0  0  0  0
    8.0647  -16.3718   19.4554 C   0  0  0  0  0  0  0  0  0  0  0  0
    9.3070  -16.3116   19.2801 O   0  0  0  0  0  0  0  0  0  0  0  0
    7.3631  -14.3278   22.5174 C   0  0  0  0  0  0  0  0  0  0  0  0
    8.3135  -15.0307   21.5804 C   0  0  2  0  0  0  0  0  0  0  0  0
    7.5237  -15.7135   20.5771 N   0  0  0  0  0  0  0  0  0  0  0  0
    9.2308  -15.9567   22.2887 C   0  0  0  0  0  0  0  0  0  0  0  0
    8.8812  -17.1455   22.5016 O   0  0  0  0  0  0  0  0  0  0  0  0
   10.5160  -15.5750   22.7551 N   0  0  0  0  0  0  0  0  0  0  0  0
   11.4475  -16.4824   23.4030 C   0  0  1  0  0  0  0  0  0  0  0  0
   12.8414  -15.9797   23.1759 C   0  0  0  0  0  0  0  0  0  0  0  0
   13.9273  -16.8623   23.6840 C   0  0  0  0  0  0  0  0  0  0  0  0
   15.2895  -16.3257   23.4785 C   0  0  0  0  0  0  0  0  0  0  0  0
   15.5659  -15.2725   22.8556 O   0  0  0  0  0  0  0  0  0  0  0  0
   11.1191  -16.6435   24.8479 C   0  0  0  0  0  0  0  0  0  0  0  0
   11.5735  -17.6072   25.5375 O   0  0  0  0  0  0  0  0  0  0  0  0
   16.3506  -17.0387   24.0145 O   0  0  0  0  0  0  0  0  0  0  0  0
   10.2987  -15.7440   25.5079 O   0  0  0  0  0  0  0  0  0  0  0  0
  1  2  1  0
  2  3  1  0
  3  4  1  6
  5  3  1  0
  5  6  2  0
  8  7  1  1
  8 10  1  0
  8  9  1  0
  9  5  1  0
 10 12  1  0
 11 10  2  0
 12 13  1  0
 13 14  1  1
 14 15  1  0
 15 16  1  0
 16 20  1  0
 17 16  2  0
 18 13  1  0
 19 18  2  0
 21 18  1  0
M  END
$$$$
