SAE.pdb
     RDKit          3D

 21 20  0  0  1  0  0  0  0  0999 V2000
    7.7184  -18.2261   17.6018 O   0  0  0  0  0  0  0  0  0  0  0  0
    6.7653  -17.3233   17.1711 C   0  0  0  0  0  0  0  0  0  0  0  0
    7.4858  -16.0778   16.7007 C   0  0  2  0  0  0  0  0  0  0  0  0
    8.4611  -16.4939   15.7099 N   0  0  0  0  0  0  0  0  0  0  0  0
    8.1918  -15.5066   17.8949 C   0  0  0  0  0  0  0  0  0  0  0  0
    9.3598  -15.8916   18.1502 O   0  0  0  0  0  0  0  0  0  0  0  0
    7.3247  -13.0019   20.5479 C   0  0  0  0  0  0  0  0  0  0  0  0
    8.2383  -14.0443   19.9530 C   0  0  2  0  0  0  0  0  0  0  0  0
    7.6089  -14.5529   18.7523 N   0  0  0  0  0  0  0  0  0  0  0  0
    8.5640  -15.1294   20.9106 C   0  0  0  0  0  0  0  0  0  0  0  0
    7.7937  -16.1164   21.0263 O   0  0  0  0  0  0  0  0  0  0  0  0
    9.7240  -15.1245   21.7287 N   0  0  0  0  0  0  0  0  0  0  0  0
   10.1227  -16.2328   22.5793 C   0  0  1  0  0  0  0  0  0  0  0  0
   10.9232  -17.2004   21.7606 C   0  0  0  0  0  0  0  0  0  0  0  0
   11.3705  -18.4250   22.4792 C   0  0  0  0  0  0  0  0  0  0  0  0
   12.1363  -19.3727   21.6418 C   0  0  0  0  0  0  0  0  0  0  0  0
   13.2716  -19.1539   21.1551 O   0  0  0  0  0  0  0  0  0  0  0  0
   10.8573  -15.7464   23.7815 C   0  0  0  0  0  0  0  0  0  0  0  0
   11.4769  -14.6388   23.7886 O   0  0  0  0  0  0  0  0  0  0  0  0
   11.5593  -20.6032   21.3689 O   0  0  0  0  0  0  0  0  0  0  0  0
   10.8977  -16.4847   24.9525 O   0  0  0  0  0  0  0  0  0  0  0  0
  1  2  1  0
  2  3  1  0
  3  4  1  6
  5  3  1  0
  5  6  2  0
  8  7  1  1
  8 10  1  0
  8  9  1  0
  9  5  1  0
 10 12  1  0
 11 10  2  0
 12 13  1  0
 13 14  1  6
 14 15  1  0
 15 16  1  0
 16 20  1  0
 17 16  2  0
 18 13  1  0
 19 18  2  0
 21 18  1  0
M  END
$$$$
