SAE.pdb
     RDKit          3D

 21 20  0  0  1  0  0  0  0  0999 V2000
    4.9655  -18.3853   21.7061 O   0  0  0  0  0  0  0  0  0  0  0  0
    4.2958  -17.4123   20.9893 C   0  0  0  0  0  0  0  0  0  0  0  0
    5.0772  -17.1521   19.7192 C   0  0  2  0  0  0  0  0  0  0  0  0
    5.2980  -18.4361   19.0799 N   0  0  0  0  0  0  0  0  0  0  0  0
    6.3929  -16.5606   20.1313 C   0  0  0  0  0  0  0  0  0  0  0  0
    7.3533  -17.3315   20.3785 O   0  0  0  0  0  0  0  0  0  0  0  0
    7.6593  -13.0896   20.7696 C   0  0  0  0  0  0  0  0  0  0  0  0
    7.8660  -14.5800   20.6637 C   0  0  2  0  0  0  0  0  0  0  0  0
    6.6099  -15.1745   20.2569 N   0  0  0  0  0  0  0  0  0  0  0  0
    8.3789  -15.1747   21.9222 C   0  0  0  0  0  0  0  0  0  0  0  0
    7.6703  -15.1538   22.9607 O   0  0  0  0  0  0  0  0  0  0  0  0
    9.6564  -15.7838   22.0322 N   0  0  0  0  0  0  0  0  0  0  0  0
   10.1990  -16.3149   23.2709 C   0  0  1  0  0  0  0  0  0  0  0  0
   10.0973  -17.8102   23.2355 C   0  0  0  0  0  0  0  0  0  0  0  0
   10.6132  -18.5122   24.4426 C   0  0  0  0  0  0  0  0  0  0  0  0
   10.6780  -19.9829   24.3062 C   0  0  0  0  0  0  0  0  0  0  0  0
   11.1139  -20.7720   25.1786 O   0  0  0  0  0  0  0  0  0  0  0  0
   11.5927  -15.8353   23.4928 C   0  0  0  0  0  0  0  0  0  0  0  0
   12.1513  -15.8952   24.6308 O   0  0  0  0  0  0  0  0  0  0  0  0
   10.2223  -20.5411   23.1220 O   0  0  0  0  0  0  0  0  0  0  0  0
   12.3461  -15.2995   22.4617 O   0  0  0  0  0  0  0  0  0  0  0  0
  1  2  1  0
  2  3  1  0
  3  4  1  1
  5  3  1  0
  5  6  2  0
  8  7  1  1
  8 10  1  0
  8  9  1  0
  9  5  1  0
 10 12  1  0
 11 10  2  0
 12 13  1  0
 13 14  1  6
 14 15  1  0
 15 16  1  0
 16 20  1  0
 17 16  2  0
 18 13  1  0
 19 18  2  0
 21 18  1  0
M  END
$$$$
