SAE.pdb
     RDKit          3D

 21 20  0  0  1  0  0  0  0  0999 V2000
   15.1070  -17.0603   16.1210 O   0  0  0  0  0  0  0  0  0  0  0  0
   13.9463  -16.5243   15.5969 C   0  0  0  0  0  0  0  0  0  0  0  0
   14.0602  -15.0164   15.6653 C   0  0  2  0  0  0  0  0  0  0  0  0
   15.3435  -14.6559   15.0917 N   0  0  0  0  0  0  0  0  0  0  0  0
   14.0343  -14.6437   17.1183 C   0  0  0  0  0  0  0  0  0  0  0  0
   15.1161  -14.3634   17.6917 O   0  0  0  0  0  0  0  0  0  0  0  0
   11.3522  -14.2176   19.7038 C   0  0  0  0  0  0  0  0  0  0  0  0
   12.8013  -14.2508   19.2867 C   0  0  2  0  0  0  0  0  0  0  0  0
   12.8505  -14.5909   17.8801 N   0  0  0  0  0  0  0  0  0  0  0  0
   13.6100  -15.1821   20.1108 C   0  0  0  0  0  0  0  0  0  0  0  0
   13.6340  -16.4079   19.8318 O   0  0  0  0  0  0  0  0  0  0  0  0
   14.3813  -14.7654   21.2273 N   0  0  0  0  0  0  0  0  0  0  0  0
   15.2476  -15.6473   21.9907 C   0  0  1  0  0  0  0  0  0  0  0  0
   16.5609  -14.9579   22.2074 C   0  0  0  0  0  0  0  0  0  0  0  0
   17.5739  -15.7414   22.9664 C   0  0  0  0  0  0  0  0  0  0  0  0
   18.8496  -15.0279   23.1880 C   0  0  0  0  0  0  0  0  0  0  0  0
   18.9573  -13.8579   23.6278 O   0  0  0  0  0  0  0  0  0  0  0  0
   14.5963  -16.0644   23.2648 C   0  0  0  0  0  0  0  0  0  0  0  0
   15.0384  -17.0285   23.9619 O   0  0  0  0  0  0  0  0  0  0  0  0
   20.0244  -15.6996   22.8879 O   0  0  0  0  0  0  0  0  0  0  0  0
   13.4729  -15.4155   23.7493 O   0  0  0  0  0  0  0  0  0  0  0  0
  1  2  1  0
  2  3  1  0
  3  4  1  1
  5  3  1  0
  5  6  2  0
  8  7  1  1
  8 10  1  0
  8  9  1  0
  9  5  1  0
 10 12  1  0
 11 10  2  0
 12 13  1  0
 13 14  1  1
 14 15  1  0
 15 16  1  0
 16 20  1  0
 17 16  2  0
 18 13  1  0
 19 18  2  0
 21 18  1  0
M  END
$$$$
