SAE.pdb
     RDKit          3D

 21 20  0  0  1  0  0  0  0  0999 V2000
    6.0447  -16.7107   21.4318 O   0  0  0  0  0  0  0  0  0  0  0  0
    6.9105  -16.2302   22.3955 C   0  0  0  0  0  0  0  0  0  0  0  0
    7.1416  -14.7599   22.1193 C   0  0  2  0  0  0  0  0  0  0  0  0
    7.9872  -14.6713   20.9432 N   0  0  0  0  0  0  0  0  0  0  0  0
    7.8694  -14.2033   23.3073 C   0  0  0  0  0  0  0  0  0  0  0  0
    9.1006  -14.4237   23.4218 O   0  0  0  0  0  0  0  0  0  0  0  0
    6.9152  -12.1486   26.2941 C   0  0  0  0  0  0  0  0  0  0  0  0
    7.8645  -13.0624   25.5600 C   0  0  2  0  0  0  0  0  0  0  0  0
    7.2394  -13.4399   24.3096 N   0  0  0  0  0  0  0  0  0  0  0  0
    8.2527  -14.2462   26.3653 C   0  0  0  0  0  0  0  0  0  0  0  0
    7.3954  -15.1215   26.6480 O   0  0  0  0  0  0  0  0  0  0  0  0
    9.5690  -14.4602   26.8515 N   0  0  0  0  0  0  0  0  0  0  0  0
    9.9392  -15.5464   27.7426 C   0  0  1  0  0  0  0  0  0  0  0  0
   11.1098  -16.2726   27.1513 C   0  0  0  0  0  0  0  0  0  0  0  0
   10.8867  -16.8412   25.7937 C   0  0  0  0  0  0  0  0  0  0  0  0
   12.1012  -17.4043   25.1661 C   0  0  0  0  0  0  0  0  0  0  0  0
   13.2506  -17.3844   25.6682 O   0  0  0  0  0  0  0  0  0  0  0  0
   10.2076  -15.0408   29.1188 C   0  0  0  0  0  0  0  0  0  0  0  0
   10.4692  -15.8228   30.0835 O   0  0  0  0  0  0  0  0  0  0  0  0
   11.9657  -18.0037   23.9236 O   0  0  0  0  0  0  0  0  0  0  0  0
   10.1838  -13.6869   29.4095 O   0  0  0  0  0  0  0  0  0  0  0  0
  1  2  1  0
  2  3  1  0
  3  4  1  6
  5  3  1  0
  5  6  2  0
  8  7  1  1
  8 10  1  0
  8  9  1  0
  9  5  1  0
 10 12  1  0
 11 10  2  0
 12 13  1  0
 13 14  1  6
 14 15  1  0
 15 16  1  0
 16 20  1  0
 17 16  2  0
 18 13  1  0
 19 18  2  0
 21 18  1  0
M  END
$$$$
