SAE.pdb
     RDKit          3D

 21 20  0  0  1  0  0  0  0  0999 V2000
    7.2328  -18.3583   18.3585 O   0  0  0  0  0  0  0  0  0  0  0  0
    6.3863  -17.4765   17.7143 C   0  0  0  0  0  0  0  0  0  0  0  0
    7.2240  -16.3303   17.1888 C   0  0  2  0  0  0  0  0  0  0  0  0
    8.1992  -16.8948   16.2742 N   0  0  0  0  0  0  0  0  0  0  0  0
    7.9281  -15.7291   18.3693 C   0  0  0  0  0  0  0  0  0  0  0  0
    9.0384  -16.2015   18.7181 O   0  0  0  0  0  0  0  0  0  0  0  0
    7.2311  -12.8780   20.7036 C   0  0  0  0  0  0  0  0  0  0  0  0
    8.0875  -14.0235   20.2246 C   0  0  2  0  0  0  0  0  0  0  0  0
    7.4052  -14.6534   19.1135 N   0  0  0  0  0  0  0  0  0  0  0  0
    8.3996  -14.9916   21.3043 C   0  0  0  0  0  0  0  0  0  0  0  0
    7.5747  -15.8949   21.5951 O   0  0  0  0  0  0  0  0  0  0  0  0
    9.6057  -14.9625   22.0523 N   0  0  0  0  0  0  0  0  0  0  0  0
    9.9391  -15.9195   23.0934 C   0  0  1  0  0  0  0  0  0  0  0  0
   11.4304  -16.0591   23.1552 C   0  0  0  0  0  0  0  0  0  0  0  0
   11.9371  -17.0439   24.1499 C   0  0  0  0  0  0  0  0  0  0  0  0
   13.4017  -17.2426   24.1133 C   0  0  0  0  0  0  0  0  0  0  0  0
   14.2170  -16.7695   24.9411 O   0  0  0  0  0  0  0  0  0  0  0  0
    9.3413  -15.5191   24.3987 C   0  0  0  0  0  0  0  0  0  0  0  0
    8.9732  -14.3272   24.6324 O   0  0  0  0  0  0  0  0  0  0  0  0
   13.9222  -18.0121   23.0845 O   0  0  0  0  0  0  0  0  0  0  0  0
    9.1588  -16.4343   25.4219 O   0  0  0  0  0  0  0  0  0  0  0  0
  1  2  1  0
  2  3  1  0
  3  4  1  6
  5  3  1  0
  5  6  2  0
  8  7  1  1
  8 10  1  0
  8  9  1  0
  9  5  1  0
 10 12  1  0
 11 10  2  0
 12 13  1  0
 13 14  1  1
 14 15  1  0
 15 16  1  0
 16 20  1  0
 17 16  2  0
 18 13  1  0
 19 18  2  0
 21 18  1  0
M  END
$$$$
