SAE.pdb
     RDKit          3D

 21 20  0  0  1  0  0  0  0  0999 V2000
    8.5779  -15.6072   15.8197 O   0  0  0  0  0  0  0  0  0  0  0  0
    7.2934  -15.5005   16.3175 C   0  0  0  0  0  0  0  0  0  0  0  0
    7.1039  -14.0819   16.8107 C   0  0  2  0  0  0  0  0  0  0  0  0
    7.6232  -13.1972   15.7843 N   0  0  0  0  0  0  0  0  0  0  0  0
    7.9238  -13.9424   18.0594 C   0  0  0  0  0  0  0  0  0  0  0  0
    9.1333  -13.6193   17.9575 O   0  0  0  0  0  0  0  0  0  0  0  0
    7.2699  -14.3787   21.7267 C   0  0  0  0  0  0  0  0  0  0  0  0
    8.1921  -14.1044   20.5650 C   0  0  2  0  0  0  0  0  0  0  0  0
    7.4044  -14.1564   19.3511 N   0  0  0  0  0  0  0  0  0  0  0  0
    9.3435  -15.0386   20.5190 C   0  0  0  0  0  0  0  0  0  0  0  0
    9.2529  -16.1153   19.8760 O   0  0  0  0  0  0  0  0  0  0  0  0
   10.5775  -14.7871   21.1740 N   0  0  0  0  0  0  0  0  0  0  0  0
   11.7205  -15.6827   21.1248 C   0  0  1  0  0  0  0  0  0  0  0  0
   12.8198  -15.0137   20.3558 C   0  0  0  0  0  0  0  0  0  0  0  0
   14.0561  -15.8235   20.1773 C   0  0  0  0  0  0  0  0  0  0  0  0
   15.1159  -15.1470   19.3995 C   0  0  0  0  0  0  0  0  0  0  0  0
   15.1937  -13.9099   19.2062 O   0  0  0  0  0  0  0  0  0  0  0  0
   12.1392  -16.0906   22.4958 C   0  0  0  0  0  0  0  0  0  0  0  0
   13.0568  -16.9450   22.6925 O   0  0  0  0  0  0  0  0  0  0  0  0
   16.1057  -15.9371   18.8360 O   0  0  0  0  0  0  0  0  0  0  0  0
   11.5431  -15.5527   23.6243 O   0  0  0  0  0  0  0  0  0  0  0  0
  1  2  1  0
  2  3  1  0
  3  4  1  6
  5  3  1  0
  5  6  2  0
  8  7  1  1
  8 10  1  0
  8  9  1  0
  9  5  1  0
 10 12  1  0
 11 10  2  0
 12 13  1  0
 13 14  1  1
 14 15  1  0
 15 16  1  0
 16 20  1  0
 17 16  2  0
 18 13  1  0
 19 18  2  0
 21 18  1  0
M  END
$$$$
