SAE.pdb
     RDKit          3D

 21 20  0  0  1  0  0  0  0  0999 V2000
    6.9888  -19.1741   17.5697 O   0  0  0  0  0  0  0  0  0  0  0  0
    7.7110  -18.5827   18.5885 C   0  0  0  0  0  0  0  0  0  0  0  0
    7.8947  -17.1215   18.2384 C   0  0  2  0  0  0  0  0  0  0  0  0
    8.8380  -17.0586   17.1375 N   0  0  0  0  0  0  0  0  0  0  0  0
    8.4840  -16.4555   19.4467 C   0  0  0  0  0  0  0  0  0  0  0  0
    9.7133  -16.5841   19.6707 O   0  0  0  0  0  0  0  0  0  0  0  0
    7.1694  -14.2130   22.1480 C   0  0  0  0  0  0  0  0  0  0  0  0
    8.2718  -15.0277   21.5186 C   0  0  2  0  0  0  0  0  0  0  0  0
    7.7252  -15.6870   20.3510 N   0  0  0  0  0  0  0  0  0  0  0  0
    8.8790  -15.9933   22.4670 C   0  0  0  0  0  0  0  0  0  0  0  0
    8.3243  -17.1024   22.6747 O   0  0  0  0  0  0  0  0  0  0  0  0
   10.0819  -15.7375   23.1761 N   0  0  0  0  0  0  0  0  0  0  0  0
   10.6067  -16.5981   24.2223 C   0  0  1  0  0  0  0  0  0  0  0  0
   12.0946  -16.4251   24.2827 C   0  0  0  0  0  0  0  0  0  0  0  0
   12.8055  -16.5684   22.9827 C   0  0  0  0  0  0  0  0  0  0  0  0
   14.2594  -16.3102   23.0560 C   0  0  0  0  0  0  0  0  0  0  0  0
   14.7896  -15.1764   23.1394 O   0  0  0  0  0  0  0  0  0  0  0  0
    9.9392  -16.3222   25.5261 C   0  0  0  0  0  0  0  0  0  0  0  0
    9.2101  -15.2989   25.7051 O   0  0  0  0  0  0  0  0  0  0  0  0
   15.1103  -17.4042   23.0311 O   0  0  0  0  0  0  0  0  0  0  0  0
   10.0847  -17.1745   26.6080 O   0  0  0  0  0  0  0  0  0  0  0  0
  1  2  1  0
  2  3  1  0
  3  4  1  6
  5  3  1  0
  5  6  2  0
  8  7  1  1
  8 10  1  0
  8  9  1  0
  9  5  1  0
 10 12  1  0
 11 10  2  0
 12 13  1  0
 13 14  1  1
 14 15  1  0
 15 16  1  0
 16 20  1  0
 17 16  2  0
 18 13  1  0
 19 18  2  0
 21 18  1  0
M  END
$$$$
