MNQ.pdb
     RDKit          3D

 26 25  0  0  1  0  0  0  0  0999 V2000
   28.0989  -16.8580  -16.2763 C   0  0  0  0  0  0  0  0  0  0  0  0
   26.8229  -16.4375  -15.0594 S   0  0  0  0  0  0  0  0  0  0  0  0
   26.9832  -14.6675  -14.6121 C   0  0  0  0  0  0  0  0  0  0  0  0
   26.2134  -13.8185  -15.5890 C   0  0  0  0  0  0  0  0  0  0  0  0
   25.0543  -14.4967  -16.2131 C   0  0  2  0  0  0  0  0  0  0  0  0
   25.5872  -15.2146  -17.4037 N   0  0  0  0  0  0  0  0  0  0  0  0
   23.9473  -13.6847  -16.6802 C   0  0  0  0  0  0  0  0  0  0  0  0
   24.0825  -13.0069  -17.7626 O   0  0  0  0  0  0  0  0  0  0  0  0
   17.8376  -13.0168  -16.6459 N   0  0  0  0  0  0  0  0  0  0  0  0
   19.1434  -12.5101  -16.8894 C   0  0  0  0  0  0  0  0  0  0  0  0
   19.2411  -11.4370  -17.4975 O   0  0  0  0  0  0  0  0  0  0  0  0
   20.2812  -13.2683  -16.4177 C   0  0  0  0  0  0  0  0  0  0  0  0
   21.6547  -12.6386  -16.6348 C   0  0  2  0  0  0  0  0  0  0  0  0
   22.6664  -13.5398  -16.0655 N   0  0  0  0  0  0  0  0  0  0  0  0
   21.7697  -11.2925  -16.0504 C   0  0  0  0  0  0  0  0  0  0  0  0
   21.8100  -11.1294  -14.8071 O   0  0  0  0  0  0  0  0  0  0  0  0
   24.8980   -6.2620  -18.1116 N   0  0  0  0  0  0  0  0  0  0  0  0
   24.3129   -5.8391  -16.8876 C   0  0  0  0  0  0  0  0  0  0  0  0
   24.6692   -4.7114  -16.4472 O   0  0  0  0  0  0  0  0  0  0  0  0
   23.3299   -6.6830  -16.1616 C   0  0  0  0  0  0  0  0  0  0  0  0
   23.0917   -7.9890  -16.8837 C   0  0  0  0  0  0  0  0  0  0  0  0
   22.0566   -8.8422  -16.1912 C   0  0  2  0  0  0  0  0  0  0  0  0
   21.8447  -10.0993  -16.8183 N   0  0  0  0  0  0  0  0  0  0  0  0
   20.8215   -8.0335  -16.0513 C   0  0  0  0  0  0  0  0  0  0  0  0
   19.9071   -7.9660  -16.9100 O   0  0  0  0  0  0  0  0  0  0  0  0
   20.6520   -7.2926  -14.8913 O   0  0  0  0  0  0  0  0  0  0  0  0
  2  1  1  0
  3  2  1  0
  4  5  1  0
  4  3  1  0
  5  7  1  0
  5  6  1  6
  7  8  2  0
 10  9  1  0
 11 10  2  0
 13 12  1  1
 12 10  1  0
 14  7  1  0
 14 13  1  0
 15 13  1  0
 15 16  2  0
 18 17  1  0
 18 19  2  0
 20 21  1  0
 20 18  1  0
 22 21  1  6
 22 23  1  0
 22 24  1  0
 23 15  1  0
 24 25  2  0
 24 26  1  0
M  END
$$$$
