MNQ.pdb
     RDKit          3D

 26 25  0  0  1  0  0  0  0  0999 V2000
   26.6230  -18.7856   -7.1293 C   0  0  0  0  0  0  0  0  0  0  0  0
   26.2598  -20.5610   -7.1757 S   0  0  0  0  0  0  0  0  0  0  0  0
   26.7881  -21.2374   -8.7949 C   0  0  0  0  0  0  0  0  0  0  0  0
   26.3090  -20.3423   -9.9071 C   0  0  0  0  0  0  0  0  0  0  0  0
   25.6744  -21.0545  -11.0397 C   0  0  2  0  0  0  0  0  0  0  0  0
   26.6253  -22.1290  -11.4375 N   0  0  0  0  0  0  0  0  0  0  0  0
   25.3686  -20.3056  -12.2434 C   0  0  0  0  0  0  0  0  0  0  0  0
   24.5158  -19.3473  -12.1835 O   0  0  0  0  0  0  0  0  0  0  0  0
   27.6289  -18.0092  -14.0211 N   0  0  0  0  0  0  0  0  0  0  0  0
   27.7595  -18.7635  -15.2191 C   0  0  0  0  0  0  0  0  0  0  0  0
   28.8357  -18.6994  -15.8262 O   0  0  0  0  0  0  0  0  0  0  0  0
   26.6373  -19.5606  -15.6631 C   0  0  0  0  0  0  0  0  0  0  0  0
   25.4717  -19.6966  -14.6869 C   0  0  2  0  0  0  0  0  0  0  0  0
   25.9234  -20.5032  -13.5445 N   0  0  0  0  0  0  0  0  0  0  0  0
   24.2728  -20.2902  -15.3009 C   0  0  0  0  0  0  0  0  0  0  0  0
   24.2930  -21.4575  -15.7602 O   0  0  0  0  0  0  0  0  0  0  0  0
   21.6955  -21.3451  -10.8416 N   0  0  0  0  0  0  0  0  0  0  0  0
   20.5978  -21.6910  -11.6752 C   0  0  0  0  0  0  0  0  0  0  0  0
   19.6597  -22.3423  -11.1381 O   0  0  0  0  0  0  0  0  0  0  0  0
   20.5564  -21.3052  -13.1086 C   0  0  0  0  0  0  0  0  0  0  0  0
   21.8517  -20.6555  -13.5377 C   0  0  0  0  0  0  0  0  0  0  0  0
   21.8227  -20.2291  -14.9856 C   0  0  2  0  0  0  0  0  0  0  0  0
   23.0279  -19.6158  -15.4213 N   0  0  0  0  0  0  0  0  0  0  0  0
   20.6210  -19.3836  -15.1858 C   0  0  0  0  0  0  0  0  0  0  0  0
   20.5196  -18.1842  -14.8262 O   0  0  0  0  0  0  0  0  0  0  0  0
   19.5214  -19.9473  -15.8154 O   0  0  0  0  0  0  0  0  0  0  0  0
  2  1  1  0
  3  2  1  0
  4  5  1  0
  4  3  1  0
  5  7  1  0
  5  6  1  6
  7  8  2  0
 10  9  1  0
 11 10  2  0
 13 12  1  6
 12 10  1  0
 14  7  1  0
 14 13  1  0
 15 13  1  0
 15 16  2  0
 18 17  1  0
 18 19  2  0
 20 21  1  0
 20 18  1  0
 22 21  1  1
 22 23  1  0
 22 24  1  0
 23 15  1  0
 24 25  2  0
 24 26  1  0
M  END
$$$$
