MNQ.pdb
     RDKit          3D

 26 25  0  0  1  0  0  0  0  0999 V2000
   26.0226  -16.1000  -14.7970 C   0  0  0  0  0  0  0  0  0  0  0  0
   27.6956  -16.1135  -15.4948 S   0  0  0  0  0  0  0  0  0  0  0  0
   27.9903  -17.7280  -16.3105 C   0  0  0  0  0  0  0  0  0  0  0  0
   26.9202  -18.7091  -15.9105 C   0  0  0  0  0  0  0  0  0  0  0  0
   27.3174  -19.6488  -14.8372 C   0  0  2  0  0  0  0  0  0  0  0  0
   28.2108  -20.6535  -15.4772 N   0  0  0  0  0  0  0  0  0  0  0  0
   26.2795  -20.3945  -14.1518 C   0  0  0  0  0  0  0  0  0  0  0  0
   25.7814  -21.4351  -14.7160 O   0  0  0  0  0  0  0  0  0  0  0  0
   26.2860  -20.4123   -8.9756 N   0  0  0  0  0  0  0  0  0  0  0  0
   25.8217  -21.1963  -10.0669 C   0  0  0  0  0  0  0  0  0  0  0  0
   26.4494  -22.2255  -10.3454 O   0  0  0  0  0  0  0  0  0  0  0  0
   24.6492  -20.7546  -10.7895 C   0  0  0  0  0  0  0  0  0  0  0  0
   24.6648  -20.9621  -12.3017 C   0  0  2  0  0  0  0  0  0  0  0  0
   25.7187  -20.1097  -12.8696 N   0  0  0  0  0  0  0  0  0  0  0  0
   23.3673  -20.6763  -12.9354 C   0  0  0  0  0  0  0  0  0  0  0  0
   23.0277  -19.5002  -13.2102 O   0  0  0  0  0  0  0  0  0  0  0  0
   19.6882  -24.3588  -16.6065 N   0  0  0  0  0  0  0  0  0  0  0  0
   19.0163  -23.1083  -16.5403 C   0  0  0  0  0  0  0  0  0  0  0  0
   17.9892  -22.9763  -17.2616 O   0  0  0  0  0  0  0  0  0  0  0  0
   19.4991  -22.0100  -15.6651 C   0  0  0  0  0  0  0  0  0  0  0  0
   20.7584  -22.4092  -14.9310 C   0  0  0  0  0  0  0  0  0  0  0  0
   21.2261  -21.3365  -13.9773 C   0  0  2  0  0  0  0  0  0  0  0  0
   22.4177  -21.6751  -13.2816 N   0  0  0  0  0  0  0  0  0  0  0  0
   20.0927  -20.9989  -13.0827 C   0  0  0  0  0  0  0  0  0  0  0  0
   19.9207  -21.4733  -11.9322 O   0  0  0  0  0  0  0  0  0  0  0  0
   19.1460  -20.0937  -13.5384 O   0  0  0  0  0  0  0  0  0  0  0  0
  2  1  1  0
  3  2  1  0
  4  5  1  0
  4  3  1  0
  5  7  1  0
  5  6  1  6
  7  8  2  0
 10  9  1  0
 11 10  2  0
 13 12  1  1
 12 10  1  0
 14  7  1  0
 14 13  1  0
 15 13  1  0
 15 16  2  0
 18 17  1  0
 18 19  2  0
 20 21  1  0
 20 18  1  0
 22 21  1  1
 22 23  1  0
 22 24  1  0
 23 15  1  0
 24 25  2  0
 24 26  1  0
M  END
$$$$
