MNQ.pdb
     RDKit          3D

 26 25  0  0  1  0  0  0  0  0999 V2000
   32.2937  -21.5554  -10.8067 C   0  0  0  0  0  0  0  0  0  0  0  0
   30.5359  -21.4834  -11.2437 S   0  0  0  0  0  0  0  0  0  0  0  0
   30.2756  -20.1330  -12.4550 C   0  0  0  0  0  0  0  0  0  0  0  0
   28.8157  -20.0364  -12.8115 C   0  0  0  0  0  0  0  0  0  0  0  0
   28.1729  -21.3322  -13.1283 C   0  0  2  0  0  0  0  0  0  0  0  0
   28.5431  -21.6441  -14.5364 N   0  0  0  0  0  0  0  0  0  0  0  0
   26.7278  -21.4248  -13.0498 C   0  0  0  0  0  0  0  0  0  0  0  0
   26.0602  -21.6943  -14.1133 O   0  0  0  0  0  0  0  0  0  0  0  0
   25.9812  -20.4199   -9.8026 N   0  0  0  0  0  0  0  0  0  0  0  0
   24.7338  -21.0207   -9.4797 C   0  0  0  0  0  0  0  0  0  0  0  0
   24.4159  -21.0829   -8.2856 O   0  0  0  0  0  0  0  0  0  0  0  0
   23.9071  -21.5242  -10.5545 C   0  0  0  0  0  0  0  0  0  0  0  0
   24.4518  -21.3498  -11.9697 C   0  0  2  0  0  0  0  0  0  0  0  0
   25.9159  -21.2519  -11.8877 N   0  0  0  0  0  0  0  0  0  0  0  0
   23.8904  -20.1784  -12.6623 C   0  0  0  0  0  0  0  0  0  0  0  0
   24.5985  -19.1721  -12.9070 O   0  0  0  0  0  0  0  0  0  0  0  0
   24.3559  -21.4067  -17.6508 N   0  0  0  0  0  0  0  0  0  0  0  0
   23.4600  -20.3401  -17.9327 C   0  0  0  0  0  0  0  0  0  0  0  0
   23.3629  -19.9835  -19.1394 O   0  0  0  0  0  0  0  0  0  0  0  0
   22.6761  -19.6771  -16.8597 C   0  0  0  0  0  0  0  0  0  0  0  0
   23.0316  -20.2327  -15.4999 C   0  0  0  0  0  0  0  0  0  0  0  0
   22.2294  -19.5898  -14.3944 C   0  0  2  0  0  0  0  0  0  0  0  0
   22.5421  -20.0888  -13.1016 N   0  0  0  0  0  0  0  0  0  0  0  0
   20.7938  -19.7112  -14.7458 C   0  0  0  0  0  0  0  0  0  0  0  0
   19.9526  -20.3874  -14.1030 O   0  0  0  0  0  0  0  0  0  0  0  0
   20.3340  -19.0327  -15.8645 O   0  0  0  0  0  0  0  0  0  0  0  0
  2  1  1  0
  3  2  1  0
  4  5  1  0
  4  3  1  0
  5  7  1  0
  5  6  1  6
  7  8  2  0
 10  9  1  0
 11 10  2  0
 13 12  1  1
 12 10  1  0
 14  7  1  0
 14 13  1  0
 15 13  1  0
 15 16  2  0
 18 17  1  0
 18 19  2  0
 20 21  1  0
 20 18  1  0
 22 21  1  6
 22 23  1  0
 22 24  1  0
 23 15  1  0
 24 25  2  0
 24 26  1  0
M  END
$$$$
