MNQ.pdb
     RDKit          3D

 26 25  0  0  1  0  0  0  0  0999 V2000
   27.5530  -18.5385   -6.3061 C   0  0  0  0  0  0  0  0  0  0  0  0
   28.5653  -20.0338   -6.1460 S   0  0  0  0  0  0  0  0  0  0  0  0
   28.5053  -20.9681   -7.7214 C   0  0  0  0  0  0  0  0  0  0  0  0
   27.4329  -20.4020   -8.6144 C   0  0  0  0  0  0  0  0  0  0  0  0
   27.2518  -21.1261   -9.8933 C   0  0  2  0  0  0  0  0  0  0  0  0
   28.6130  -21.2828  -10.4760 N   0  0  0  0  0  0  0  0  0  0  0  0
   26.4286  -20.5189  -10.9212 C   0  0  0  0  0  0  0  0  0  0  0  0
   26.9713  -19.7141  -11.7621 O   0  0  0  0  0  0  0  0  0  0  0  0
   24.5810  -24.3899  -14.1989 N   0  0  0  0  0  0  0  0  0  0  0  0
   25.0770  -23.0653  -14.0557 C   0  0  0  0  0  0  0  0  0  0  0  0
   25.3342  -22.4315  -15.0867 O   0  0  0  0  0  0  0  0  0  0  0  0
   25.2540  -22.5307  -12.7234 C   0  0  0  0  0  0  0  0  0  0  0  0
   24.5234  -21.2272  -12.4116 C   0  0  2  0  0  0  0  0  0  0  0  0
   25.0294  -20.7143  -11.1307 N   0  0  0  0  0  0  0  0  0  0  0  0
   23.0604  -21.3836  -12.3675 C   0  0  0  0  0  0  0  0  0  0  0  0
   22.4492  -21.4361  -11.2732 O   0  0  0  0  0  0  0  0  0  0  0  0
   21.6891  -17.0931  -15.7628 N   0  0  0  0  0  0  0  0  0  0  0  0
   20.4620  -17.4128  -15.1210 C   0  0  0  0  0  0  0  0  0  0  0  0
   19.4057  -17.0102  -15.6820 O   0  0  0  0  0  0  0  0  0  0  0  0
   20.4244  -18.1829  -13.8519 C   0  0  0  0  0  0  0  0  0  0  0  0
   21.6000  -19.1272  -13.7501 C   0  0  0  0  0  0  0  0  0  0  0  0
   21.1689  -20.5739  -13.7359 C   0  0  2  0  0  0  0  0  0  0  0  0
   22.2393  -21.4835  -13.5229 N   0  0  0  0  0  0  0  0  0  0  0  0
   20.4095  -20.8335  -14.9829 C   0  0  0  0  0  0  0  0  0  0  0  0
   20.9260  -21.0023  -16.1155 O   0  0  0  0  0  0  0  0  0  0  0  0
   19.0262  -20.8968  -14.9058 O   0  0  0  0  0  0  0  0  0  0  0  0
  2  1  1  0
  3  2  1  0
  4  5  1  0
  4  3  1  0
  5  7  1  0
  5  6  1  6
  7  8  2  0
 10  9  1  0
 11 10  2  0
 13 12  1  1
 12 10  1  0
 14  7  1  0
 14 13  1  0
 15 13  1  0
 15 16  2  0
 18 17  1  0
 18 19  2  0
 20 21  1  0
 20 18  1  0
 22 21  1  6
 22 23  1  0
 22 24  1  0
 23 15  1  0
 24 25  2  0
 24 26  1  0
M  END
$$$$
