MNQ.pdb
     RDKit          3D

 26 25  0  0  1  0  0  0  0  0999 V2000
   22.2310  -18.0570  -14.3790 C   0  0  0  0  0  0  0  0  0  0  0  0
   21.5335  -17.8939  -16.0443 S   0  0  0  0  0  0  0  0  0  0  0  0
   22.8074  -17.1940  -17.1604 C   0  0  0  0  0  0  0  0  0  0  0  0
   23.4361  -15.9813  -16.5265 C   0  0  0  0  0  0  0  0  0  0  0  0
   23.0404  -14.6924  -17.1387 C   0  0  2  0  0  0  0  0  0  0  0  0
   23.6531  -14.6737  -18.4957 N   0  0  0  0  0  0  0  0  0  0  0  0
   23.4450  -13.4629  -16.4847 C   0  0  0  0  0  0  0  0  0  0  0  0
   23.0862  -13.2543  -15.2693 O   0  0  0  0  0  0  0  0  0  0  0  0
   27.1646  -12.1809  -14.8538 N   0  0  0  0  0  0  0  0  0  0  0  0
   27.0186  -11.7977  -16.2151 C   0  0  0  0  0  0  0  0  0  0  0  0
   27.7732  -12.3199  -17.0450 O   0  0  0  0  0  0  0  0  0  0  0  0
   26.0040  -10.8254  -16.5574 C   0  0  0  0  0  0  0  0  0  0  0  0
   24.5597  -11.2143  -16.2528 C   0  0  2  0  0  0  0  0  0  0  0  0
   24.2313  -12.4093  -17.0427 N   0  0  0  0  0  0  0  0  0  0  0  0
   23.6017  -10.1308  -16.5265 C   0  0  0  0  0  0  0  0  0  0  0  0
   23.3330   -9.7881  -17.7031 O   0  0  0  0  0  0  0  0  0  0  0  0
   17.8792   -9.6926  -15.9861 N   0  0  0  0  0  0  0  0  0  0  0  0
   18.1744   -8.3344  -16.2826 C   0  0  0  0  0  0  0  0  0  0  0  0
   17.1972   -7.5916  -16.5760 O   0  0  0  0  0  0  0  0  0  0  0  0
   19.5649   -7.8143  -16.2490 C   0  0  0  0  0  0  0  0  0  0  0  0
   20.5427   -8.8931  -15.8438 C   0  0  0  0  0  0  0  0  0  0  0  0
   21.9699   -8.4013  -15.8541 C   0  0  2  0  0  0  0  0  0  0  0  0
   22.9184   -9.4032  -15.5151 N   0  0  0  0  0  0  0  0  0  0  0  0
   22.0421   -7.1993  -14.9886 C   0  0  0  0  0  0  0  0  0  0  0  0
   22.6248   -7.1497  -13.8768 O   0  0  0  0  0  0  0  0  0  0  0  0
   21.4244   -6.0380  -15.4282 O   0  0  0  0  0  0  0  0  0  0  0  0
  2  1  1  0
  3  2  1  0
  4  5  1  0
  4  3  1  0
  5  7  1  0
  5  6  1  6
  7  8  2  0
 10  9  1  0
 11 10  2  0
 13 12  1  6
 12 10  1  0
 14  7  1  0
 14 13  1  0
 15 13  1  0
 15 16  2  0
 18 17  1  0
 18 19  2  0
 20 21  1  0
 20 18  1  0
 22 21  1  1
 22 23  1  0
 22 24  1  0
 23 15  1  0
 24 25  2  0
 24 26  1  0
M  END
$$$$
