MNQ.pdb
     RDKit          3D

 26 25  0  0  1  0  0  0  0  0999 V2000
   27.1037  -15.1780  -18.0154 C   0  0  0  0  0  0  0  0  0  0  0  0
   26.3565  -14.8306  -16.4007 S   0  0  0  0  0  0  0  0  0  0  0  0
   26.3344  -16.3710  -15.4082 C   0  0  0  0  0  0  0  0  0  0  0  0
   27.7328  -16.9115  -15.2664 C   0  0  0  0  0  0  0  0  0  0  0  0
   27.8586  -18.3655  -15.5168 C   0  0  2  0  0  0  0  0  0  0  0  0
   27.4645  -18.5762  -16.9371 N   0  0  0  0  0  0  0  0  0  0  0  0
   27.0544  -19.2758  -14.7245 C   0  0  0  0  0  0  0  0  0  0  0  0
   26.3293  -20.1511  -15.3222 O   0  0  0  0  0  0  0  0  0  0  0  0
   24.7365  -22.1065  -10.9612 N   0  0  0  0  0  0  0  0  0  0  0  0
   25.6672  -21.2364  -10.3304 C   0  0  0  0  0  0  0  0  0  0  0  0
   25.8090  -21.3345   -9.1053 O   0  0  0  0  0  0  0  0  0  0  0  0
   26.3945  -20.2891  -11.1462 C   0  0  0  0  0  0  0  0  0  0  0  0
   26.0628  -20.2798  -12.6362 C   0  0  2  0  0  0  0  0  0  0  0  0
   26.9656  -19.3290  -13.3000 N   0  0  0  0  0  0  0  0  0  0  0  0
   24.6570  -19.9404  -12.9109 C   0  0  0  0  0  0  0  0  0  0  0  0
   24.2548  -18.7538  -12.8472 O   0  0  0  0  0  0  0  0  0  0  0  0
   18.5603  -21.5245  -15.9207 N   0  0  0  0  0  0  0  0  0  0  0  0
   19.8510  -21.0259  -16.2451 C   0  0  0  0  0  0  0  0  0  0  0  0
   20.3373  -21.3859  -17.3525 O   0  0  0  0  0  0  0  0  0  0  0  0
   20.5917  -20.1252  -15.3256 C   0  0  0  0  0  0  0  0  0  0  0  0
   21.9670  -20.6703  -15.0164 C   0  0  0  0  0  0  0  0  0  0  0  0
   22.3381  -20.4894  -13.5643 C   0  0  2  0  0  0  0  0  0  0  0  0
   23.6656  -20.8957  -13.2624 N   0  0  0  0  0  0  0  0  0  0  0  0
   21.3081  -21.1717  -12.7442 C   0  0  0  0  0  0  0  0  0  0  0  0
   21.4534  -22.2935  -12.1976 O   0  0  0  0  0  0  0  0  0  0  0  0
   20.0903  -20.5343  -12.5596 O   0  0  0  0  0  0  0  0  0  0  0  0
  2  1  1  0
  3  2  1  0
  4  5  1  0
  4  3  1  0
  5  7  1  0
  5  6  1  6
  7  8  2  0
 10  9  1  0
 11 10  2  0
 13 12  1  1
 12 10  1  0
 14  7  1  0
 14 13  1  0
 15 13  1  0
 15 16  2  0
 18 17  1  0
 18 19  2  0
 20 21  1  0
 20 18  1  0
 22 21  1  6
 22 23  1  0
 22 24  1  0
 23 15  1  0
 24 25  2  0
 24 26  1  0
M  END
$$$$
