MNQ.pdb
     RDKit          3D

 26 25  0  0  1  0  0  0  0  0999 V2000
   28.0249  -21.3925   -6.1269 C   0  0  0  0  0  0  0  0  0  0  0  0
   27.7926  -19.6285   -6.4735 S   0  0  0  0  0  0  0  0  0  0  0  0
   28.9421  -19.1250   -7.8091 C   0  0  0  0  0  0  0  0  0  0  0  0
   28.2657  -19.2602   -9.1477 C   0  0  0  0  0  0  0  0  0  0  0  0
   28.0864  -20.6562   -9.6080 C   0  0  2  0  0  0  0  0  0  0  0  0
   29.4452  -21.1535   -9.9592 N   0  0  0  0  0  0  0  0  0  0  0  0
   27.2445  -20.9008  -10.7632 C   0  0  0  0  0  0  0  0  0  0  0  0
   27.7538  -20.8080  -11.9385 O   0  0  0  0  0  0  0  0  0  0  0  0
   23.6252  -22.2953  -14.2289 N   0  0  0  0  0  0  0  0  0  0  0  0
   23.2701  -22.8456  -12.9670 C   0  0  0  0  0  0  0  0  0  0  0  0
   22.3457  -23.6674  -12.9360 O   0  0  0  0  0  0  0  0  0  0  0  0
   24.0015  -22.4204  -11.7938 C   0  0  0  0  0  0  0  0  0  0  0  0
   25.1194  -21.4061  -12.0206 C   0  0  2  0  0  0  0  0  0  0  0  0
   25.8603  -21.2524  -10.7607 N   0  0  0  0  0  0  0  0  0  0  0  0
   24.6268  -20.1031  -12.4963 C   0  0  0  0  0  0  0  0  0  0  0  0
   25.0349  -19.0325  -11.9851 O   0  0  0  0  0  0  0  0  0  0  0  0
   26.2649  -15.8403  -15.6042 N   0  0  0  0  0  0  0  0  0  0  0  0
   26.4920  -17.1850  -16.0038 C   0  0  0  0  0  0  0  0  0  0  0  0
   27.6923  -17.5737  -16.0340 O   0  0  0  0  0  0  0  0  0  0  0  0
   25.3717  -18.0891  -16.3683 C   0  0  0  0  0  0  0  0  0  0  0  0
   25.1709  -19.1606  -15.3216 C   0  0  0  0  0  0  0  0  0  0  0  0
   23.8751  -18.9843  -14.5673 C   0  0  2  0  0  0  0  0  0  0  0  0
   23.6783  -19.9489  -13.5431 N   0  0  0  0  0  0  0  0  0  0  0  0
   22.7744  -18.9405  -15.5601 C   0  0  0  0  0  0  0  0  0  0  0  0
   21.8196  -19.7553  -15.6091 O   0  0  0  0  0  0  0  0  0  0  0  0
   22.7892  -17.9299  -16.5098 O   0  0  0  0  0  0  0  0  0  0  0  0
  2  1  1  0
  3  2  1  0
  4  5  1  0
  4  3  1  0
  5  7  1  0
  5  6  1  6
  7  8  2  0
 10  9  1  0
 11 10  2  0
 13 12  1  1
 12 10  1  0
 14  7  1  0
 14 13  1  0
 15 13  1  0
 15 16  2  0
 18 17  1  0
 18 19  2  0
 20 21  1  0
 20 18  1  0
 22 21  1  6
 22 23  1  0
 22 24  1  0
 23 15  1  0
 24 25  2  0
 24 26  1  0
M  END
$$$$
