MNQ.pdb
     RDKit          3D

 26 25  0  0  1  0  0  0  0  0999 V2000
   26.5600  -18.5136  -18.0569 C   0  0  0  0  0  0  0  0  0  0  0  0
   27.8121  -17.9725  -16.8629 S   0  0  0  0  0  0  0  0  0  0  0  0
   27.7734  -19.0875  -15.4090 C   0  0  0  0  0  0  0  0  0  0  0  0
   26.3479  -19.3515  -15.0014 C   0  0  0  0  0  0  0  0  0  0  0  0
   26.1988  -20.2357  -13.8229 C   0  0  2  0  0  0  0  0  0  0  0  0
   26.8857  -21.5097  -14.1723 N   0  0  0  0  0  0  0  0  0  0  0  0
   24.8613  -20.5914  -13.3901 C   0  0  0  0  0  0  0  0  0  0  0  0
   24.2800  -21.6041  -13.9249 O   0  0  0  0  0  0  0  0  0  0  0  0
   23.9613  -21.5728   -9.8723 N   0  0  0  0  0  0  0  0  0  0  0  0
   23.0378  -20.5292   -9.5908 C   0  0  0  0  0  0  0  0  0  0  0  0
   22.8708  -20.2111   -8.4068 O   0  0  0  0  0  0  0  0  0  0  0  0
   22.3467  -19.8979  -10.6934 C   0  0  0  0  0  0  0  0  0  0  0  0
   22.7100  -20.3875  -12.0929 C   0  0  2  0  0  0  0  0  0  0  0  0
   24.0742  -19.9330  -12.3967 N   0  0  0  0  0  0  0  0  0  0  0  0
   21.7670  -19.9290  -13.1260 C   0  0  0  0  0  0  0  0  0  0  0  0
   22.1361  -19.1493  -14.0370 O   0  0  0  0  0  0  0  0  0  0  0  0
   21.3664  -23.4451  -17.2111 N   0  0  0  0  0  0  0  0  0  0  0  0
   21.6801  -22.0702  -17.3866 C   0  0  0  0  0  0  0  0  0  0  0  0
   22.2880  -21.7570  -18.4473 O   0  0  0  0  0  0  0  0  0  0  0  0
   21.3107  -21.0512  -16.3714 C   0  0  0  0  0  0  0  0  0  0  0  0
   20.5628  -21.6761  -15.2163 C   0  0  0  0  0  0  0  0  0  0  0  0
   19.7898  -20.6539  -14.4186 C   0  0  2  0  0  0  0  0  0  0  0  0
   20.4015  -20.3181  -13.1811 N   0  0  0  0  0  0  0  0  0  0  0  0
   18.3980  -21.1460  -14.2778 C   0  0  0  0  0  0  0  0  0  0  0  0
   17.9909  -21.8921  -13.3528 O   0  0  0  0  0  0  0  0  0  0  0  0
   17.4678  -20.7609  -15.2317 O   0  0  0  0  0  0  0  0  0  0  0  0
  2  1  1  0
  3  2  1  0
  4  5  1  0
  4  3  1  0
  5  7  1  0
  5  6  1  6
  7  8  2  0
 10  9  1  0
 11 10  2  0
 13 12  1  1
 12 10  1  0
 14  7  1  0
 14 13  1  0
 15 13  1  0
 15 16  2  0
 18 17  1  0
 18 19  2  0
 20 21  1  0
 20 18  1  0
 22 21  1  1
 22 23  1  0
 22 24  1  0
 23 15  1  0
 24 25  2  0
 24 26  1  0
M  END
$$$$
