RVD.pdb
     RDKit          3D

 27 26  0  0  1  0  0  0  0  0999 V2000
   26.1835  -17.8301  -17.9827 N   0  0  0  0  0  0  0  0  0  0  0  0
   27.0012  -18.0345  -19.1340 C   0  0  0  0  0  0  0  0  0  0  0  0
   26.8417  -17.3277  -20.1902 N   0  0  0  0  0  0  0  0  0  0  0  0
   28.0205  -19.0287  -19.1457 N   0  0  0  0  0  0  0  0  0  0  0  0
   28.5482  -19.6164  -17.9436 C   0  0  0  0  0  0  0  0  0  0  0  0
   28.0126  -18.9204  -16.6865 C   0  0  0  0  0  0  0  0  0  0  0  0
   27.0133  -19.8696  -16.0886 C   0  0  0  0  0  0  0  0  0  0  0  0
   27.5819  -20.7505  -14.9955 C   0  0  2  0  0  0  0  0  0  0  0  0
   28.1500  -21.9206  -15.6810 N   0  0  0  0  0  0  0  0  0  0  0  0
   26.4666  -21.2352  -14.1558 C   0  0  0  0  0  0  0  0  0  0  0  0
   25.8389  -22.3005  -14.3603 O   0  0  0  0  0  0  0  0  0  0  0  0
   27.4374  -17.3556  -21.0379 C   0  0  0  0  0  0  0  0  0  0  0  0
   24.4715  -20.9102   -9.7287 C   0  0  2  0  0  0  0  0  0  0  0  0
   25.4705  -20.5438  -10.7693 C   0  0  0  0  0  0  0  0  0  0  0  0
   26.7687  -21.2399  -10.4394 C   0  0  1  0  0  0  0  0  0  0  0  0
   25.0041  -20.9539  -12.1570 N   0  0  0  0  0  0  0  0  0  0  0  0
   26.0639  -20.4629  -13.0433 C   0  0  0  0  0  0  0  0  0  0  0  0
   23.7042  -20.4289  -12.5393 O   0  0  0  0  0  0  0  0  0  0  0  0
   23.6103  -19.1745  -12.7771 N   0  0  0  0  0  0  0  0  0  0  0  0
   22.4995  -21.1506  -12.6876 C   0  0  1  0  0  0  0  0  0  0  0  0
   21.2647  -20.5025  -13.1264 C   0  0  0  0  0  0  0  0  0  0  0  0
   20.8069  -21.0730  -14.4666 C   0  0  0  0  0  0  0  0  0  0  0  0
   19.5756  -20.4101  -14.9378 O   0  0  0  0  0  0  0  0  0  0  0  0
   19.3714  -19.1727  -14.8949 C   0  0  0  0  0  0  0  0  0  0  0  0
   20.2038  -20.8303  -12.1541 O   0  0  0  0  0  0  0  0  0  0  0  0
   19.1328  -19.9964  -11.8594 O   0  0  0  0  0  0  0  0  0  0  0  0
   18.5218  -21.1698  -15.4826 O   0  0  0  0  0  0  0  0  0  0  0  0
  2  3  2  0
  2  1  1  0
  4  2  1  0
  5  4  1  0
  6  5  1  0
  7  6  1  0
  8  7  1  0
  8  9  1  6
 10  8  1  0
 11 10  2  0
 13 12  1  1
 13 14  1  0
 15 13  1  0
 15 16  1  1
 16 10  1  0
 17 19  1  0
 17 15  1  0
 18 17  2  0
 20 19  1  0
 20 21  1  1
 21 22  1  0
 22 26  1  0
 23 22  2  0
 24 25  1  0
 24 20  1  0
 27 24  2  0
M  END
$$$$
