RVD.pdb
     RDKit          3D

 27 26  0  0  1  0  0  0  0  0999 V2000
   20.5401  -22.4616  -15.4557 N   0  0  0  0  0  0  0  0  0  0  0  0
   20.9413  -23.7225  -15.9897 C   0  0  0  0  0  0  0  0  0  0  0  0
   20.1112  -24.4651  -16.6222 N   0  0  0  0  0  0  0  0  0  0  0  0
   22.2759  -24.1949  -15.8381 N   0  0  0  0  0  0  0  0  0  0  0  0
   23.3050  -23.4258  -15.1912 C   0  0  0  0  0  0  0  0  0  0  0  0
   22.8022  -22.7769  -13.8960 C   0  0  0  0  0  0  0  0  0  0  0  0
   23.9100  -21.8729  -13.4352 C   0  0  0  0  0  0  0  0  0  0  0  0
   24.7472  -21.3050  -14.5625 C   0  0  2  0  0  0  0  0  0  0  0  0
   26.1347  -21.6865  -14.2605 N   0  0  0  0  0  0  0  0  0  0  0  0
   24.6769  -19.8301  -14.5021 C   0  0  0  0  0  0  0  0  0  0  0  0
   24.7638  -19.1609  -13.4460 O   0  0  0  0  0  0  0  0  0  0  0  0
   20.3042  -25.4112  -16.9989 C   0  0  0  0  0  0  0  0  0  0  0  0
   25.6323  -15.6977  -16.6055 C   0  0  2  0  0  0  0  0  0  0  0  0
   25.6319  -17.1752  -16.4259 C   0  0  0  0  0  0  0  0  0  0  0  0
   26.8789  -17.5558  -15.6650 C   0  0  1  0  0  0  0  0  0  0  0  0
   24.4013  -17.6429  -15.6654 N   0  0  0  0  0  0  0  0  0  0  0  0
   24.5004  -19.1053  -15.7020 C   0  0  0  0  0  0  0  0  0  0  0  0
   23.1377  -17.1806  -16.2142 O   0  0  0  0  0  0  0  0  0  0  0  0
   22.7490  -17.6793  -17.3273 N   0  0  0  0  0  0  0  0  0  0  0  0
   22.2602  -16.2256  -15.6556 C   0  0  1  0  0  0  0  0  0  0  0  0
   21.0226  -15.8335  -16.3279 C   0  0  0  0  0  0  0  0  0  0  0  0
   19.8575  -15.8207  -15.3413 C   0  0  0  0  0  0  0  0  0  0  0  0
   19.0961  -17.0836  -15.3960 O   0  0  0  0  0  0  0  0  0  0  0  0
   19.3800  -18.0553  -16.1375 C   0  0  0  0  0  0  0  0  0  0  0  0
   21.1779  -14.4443  -16.8015 O   0  0  0  0  0  0  0  0  0  0  0  0
   20.3977  -13.8688  -17.7962 O   0  0  0  0  0  0  0  0  0  0  0  0
   17.9614  -17.2668  -14.5815 O   0  0  0  0  0  0  0  0  0  0  0  0
  2  3  2  0
  2  1  1  0
  4  2  1  0
  5  4  1  0
  6  5  1  0
  7  6  1  0
  8  7  1  0
  8  9  1  1
 10  8  1  0
 11 10  2  0
 13 12  1  6
 13 14  1  0
 15 13  1  0
 15 16  1  6
 16 10  1  0
 17 19  1  0
 17 15  1  0
 18 17  2  0
 20 19  1  0
 20 21  1  6
 21 22  1  0
 22 26  1  0
 23 22  2  0
 24 25  1  0
 24 20  1  0
 27 24  2  0
M  END
$$$$
