RVD.pdb
     RDKit          3D

 27 26  0  0  1  0  0  0  0  0999 V2000
   20.0127  -20.5971   -8.9903 N   0  0  0  0  0  0  0  0  0  0  0  0
   20.8366  -21.5460   -8.3145 C   0  0  0  0  0  0  0  0  0  0  0  0
   20.4182  -22.7335   -8.0793 N   0  0  0  0  0  0  0  0  0  0  0  0
   22.1493  -21.2045   -7.8815 N   0  0  0  0  0  0  0  0  0  0  0  0
   22.7900  -19.9676   -8.2401 C   0  0  0  0  0  0  0  0  0  0  0  0
   24.2377  -20.1870   -8.6956 C   0  0  0  0  0  0  0  0  0  0  0  0
   24.1487  -20.7121  -10.1003 C   0  0  0  0  0  0  0  0  0  0  0  0
   25.4883  -21.0811  -10.7032 C   0  0  2  0  0  0  0  0  0  0  0  0
   26.4891  -20.7721   -9.6713 N   0  0  0  0  0  0  0  0  0  0  0  0
   25.7505  -20.1845  -11.8482 C   0  0  0  0  0  0  0  0  0  0  0  0
   25.8436  -18.9376  -11.7629 O   0  0  0  0  0  0  0  0  0  0  0  0
   20.9605  -23.4925   -7.6275 C   0  0  0  0  0  0  0  0  0  0  0  0
   27.5769  -19.8195  -16.3091 C   0  0  2  0  0  0  0  0  0  0  0  0
   27.2719  -20.5336  -15.0394 C   0  0  0  0  0  0  0  0  0  0  0  0
   28.5139  -20.5168  -14.1815 C   0  0  1  0  0  0  0  0  0  0  0  0
   26.1216  -19.8760  -14.2937 N   0  0  0  0  0  0  0  0  0  0  0  0
   25.9104  -20.7479  -13.1341 C   0  0  0  0  0  0  0  0  0  0  0  0
   24.9045  -19.7208  -15.0723 O   0  0  0  0  0  0  0  0  0  0  0  0
   23.8927  -20.4371  -14.7528 N   0  0  0  0  0  0  0  0  0  0  0  0
   24.6927  -18.8525  -16.1656 C   0  0  1  0  0  0  0  0  0  0  0  0
   23.3772  -18.7054  -16.7863 C   0  0  0  0  0  0  0  0  0  0  0  0
   22.4441  -17.9046  -15.8813 C   0  0  0  0  0  0  0  0  0  0  0  0
   21.1227  -17.7135  -16.5099 O   0  0  0  0  0  0  0  0  0  0  0  0
   20.8054  -18.1423  -17.6457 C   0  0  0  0  0  0  0  0  0  0  0  0
   23.5380  -17.9113  -18.0199 O   0  0  0  0  0  0  0  0  0  0  0  0
   22.5913  -17.8481  -19.0343 O   0  0  0  0  0  0  0  0  0  0  0  0
   20.1082  -17.0075  -15.8343 O   0  0  0  0  0  0  0  0  0  0  0  0
  2  3  2  0
  2  1  1  0
  4  2  1  0
  5  4  1  0
  6  5  1  0
  7  6  1  0
  8  7  1  0
  8  9  1  1
 10  8  1  0
 11 10  2  0
 13 12  1  6
 13 14  1  0
 15 13  1  0
 15 16  1  6
 16 10  1  0
 17 19  1  0
 17 15  1  0
 18 17  2  0
 20 19  1  0
 20 21  1  6
 21 22  1  0
 22 26  1  0
 23 22  2  0
 24 25  1  0
 24 20  1  0
 27 24  2  0
M  END
$$$$
