RVD.pdb
     RDKit          3D

 27 26  0  0  1  0  0  0  0  0999 V2000
   17.4850  -15.4139  -20.6404 N   0  0  0  0  0  0  0  0  0  0  0  0
   18.5358  -15.1261  -21.5618 C   0  0  0  0  0  0  0  0  0  0  0  0
   18.5096  -15.5865  -22.7568 N   0  0  0  0  0  0  0  0  0  0  0  0
   19.6454  -14.3179  -21.1837 N   0  0  0  0  0  0  0  0  0  0  0  0
   19.7769  -13.7406  -19.8728 C   0  0  0  0  0  0  0  0  0  0  0  0
   19.4058  -12.2527  -19.8658 C   0  0  0  0  0  0  0  0  0  0  0  0
   19.4133  -11.8367  -18.4222 C   0  0  0  0  0  0  0  0  0  0  0  0
   20.7834  -11.8810  -17.7781 C   0  0  2  0  0  0  0  0  0  0  0  0
   21.0629  -13.3034  -17.5320 N   0  0  0  0  0  0  0  0  0  0  0  0
   20.7041  -11.2172  -16.4603 C   0  0  0  0  0  0  0  0  0  0  0  0
   20.2361  -11.7504  -15.4271 O   0  0  0  0  0  0  0  0  0  0  0  0
   19.1815  -15.3587  -23.5125 C   0  0  0  0  0  0  0  0  0  0  0  0
   21.9971  -11.6010  -14.4788 C   0  0  2  0  0  0  0  0  0  0  0  0
   22.2874  -10.1557  -14.2741 C   0  0  0  0  0  0  0  0  0  0  0  0
   23.6799   -9.8794  -14.7874 C   0  0  2  0  0  0  0  0  0  0  0  0
   21.2849   -9.2778  -15.0060 N   0  0  0  0  0  0  0  0  0  0  0  0
   21.1814   -9.8935  -16.3327 C   0  0  0  0  0  0  0  0  0  0  0  0
   21.6589   -7.8766  -15.0967 O   0  0  0  0  0  0  0  0  0  0  0  0
   22.7059   -7.5776  -15.7701 N   0  0  0  0  0  0  0  0  0  0  0  0
   20.9913   -6.7735  -14.5209 C   0  0  1  0  0  0  0  0  0  0  0  0
   21.4261   -5.3992  -14.7655 C   0  0  0  0  0  0  0  0  0  0  0  0
   20.2431   -4.4384  -14.6731 C   0  0  0  0  0  0  0  0  0  0  0  0
   20.6593   -3.0493  -14.9469 O   0  0  0  0  0  0  0  0  0  0  0  0
   21.7909   -2.7156  -15.3745 C   0  0  0  0  0  0  0  0  0  0  0  0
   22.3565   -5.0133  -13.6868 O   0  0  0  0  0  0  0  0  0  0  0  0
   22.5597   -5.7562  -12.5308 O   0  0  0  0  0  0  0  0  0  0  0  0
   19.7653   -1.9823  -14.7305 O   0  0  0  0  0  0  0  0  0  0  0  0
  2  3  2  0
  2  1  1  0
  4  2  1  0
  5  4  1  0
  6  5  1  0
  7  6  1  0
  8  7  1  0
  8  9  1  1
 10  8  1  0
 11 10  2  0
 13 12  1  1
 13 14  1  0
 15 13  1  0
 15 16  1  1
 16 10  1  0
 17 19  1  0
 17 15  1  0
 18 17  2  0
 20 19  1  0
 20 21  1  1
 21 22  1  0
 22 26  1  0
 23 22  2  0
 24 25  1  0
 24 20  1  0
 27 24  2  0
M  END
$$$$
