RVD.pdb
     RDKit          3D

 27 26  0  0  1  0  0  0  0  0999 V2000
   18.4992  -12.2395  -18.0524 N   0  0  0  0  0  0  0  0  0  0  0  0
   19.0018  -13.3892  -17.3731 C   0  0  0  0  0  0  0  0  0  0  0  0
   18.4163  -14.5239  -17.4752 N   0  0  0  0  0  0  0  0  0  0  0  0
   20.1695  -13.3131  -16.5620 N   0  0  0  0  0  0  0  0  0  0  0  0
   20.7939  -12.0654  -16.2120 C   0  0  0  0  0  0  0  0  0  0  0  0
   22.0164  -12.2734  -15.3100 C   0  0  0  0  0  0  0  0  0  0  0  0
   22.6456  -10.9180  -15.1558 C   0  0  0  0  0  0  0  0  0  0  0  0
   23.6576  -10.5854  -16.2326 C   0  0  2  0  0  0  0  0  0  0  0  0
   24.8219  -11.4424  -15.9644 N   0  0  0  0  0  0  0  0  0  0  0  0
   24.0945   -9.1856  -16.0496 C   0  0  0  0  0  0  0  0  0  0  0  0
   24.8221   -8.7892  -15.1093 O   0  0  0  0  0  0  0  0  0  0  0  0
   18.7234  -15.4101  -17.0339 C   0  0  0  0  0  0  0  0  0  0  0  0
   26.2401   -7.4020  -17.9197 C   0  0  2  0  0  0  0  0  0  0  0  0
   25.0118   -6.5655  -18.0018 C   0  0  0  0  0  0  0  0  0  0  0  0
   24.2984   -6.9043  -19.2883 C   0  0  2  0  0  0  0  0  0  0  0  0
   24.0889   -6.8149  -16.8196 N   0  0  0  0  0  0  0  0  0  0  0  0
   23.6764   -8.2122  -16.9845 C   0  0  0  0  0  0  0  0  0  0  0  0
   22.9418   -5.9257  -16.7481 O   0  0  0  0  0  0  0  0  0  0  0  0
   21.8854   -6.2567  -17.3909 N   0  0  0  0  0  0  0  0  0  0  0  0
   22.8442   -4.7102  -16.0361 C   0  0  1  0  0  0  0  0  0  0  0  0
   21.6367   -3.8872  -16.0829 C   0  0  0  0  0  0  0  0  0  0  0  0
   21.6611   -2.8363  -14.9756 C   0  0  0  0  0  0  0  0  0  0  0  0
   21.4864   -3.4545  -13.6471 O   0  0  0  0  0  0  0  0  0  0  0  0
   21.2052   -4.6622  -13.4547 C   0  0  0  0  0  0  0  0  0  0  0  0
   21.6373   -3.1437  -17.3579 O   0  0  0  0  0  0  0  0  0  0  0  0
   20.4893   -2.6947  -17.9980 O   0  0  0  0  0  0  0  0  0  0  0  0
   21.6328   -2.6828  -12.4778 O   0  0  0  0  0  0  0  0  0  0  0  0
  2  3  2  0
  2  1  1  0
  4  2  1  0
  5  4  1  0
  6  5  1  0
  7  6  1  0
  8  7  1  0
  8  9  1  1
 10  8  1  0
 11 10  2  0
 13 12  1  6
 13 14  1  0
 15 13  1  0
 15 16  1  1
 16 10  1  0
 17 19  1  0
 17 15  1  0
 18 17  2  0
 20 19  1  0
 20 21  1  6
 21 22  1  0
 22 26  1  0
 23 22  2  0
 24 25  1  0
 24 20  1  0
 27 24  2  0
M  END
$$$$
