RVD.pdb
     RDKit          3D

 27 26  0  0  1  0  0  0  0  0999 V2000
   20.8862  -21.8965   -7.3277 N   0  0  0  0  0  0  0  0  0  0  0  0
   20.3562  -22.5891   -8.4570 C   0  0  0  0  0  0  0  0  0  0  0  0
   19.7217  -23.6928   -8.3154 N   0  0  0  0  0  0  0  0  0  0  0  0
   20.5140  -22.0761   -9.7757 N   0  0  0  0  0  0  0  0  0  0  0  0
   21.6129  -21.2289  -10.1548 C   0  0  0  0  0  0  0  0  0  0  0  0
   22.5336  -20.9242   -8.9670 C   0  0  0  0  0  0  0  0  0  0  0  0
   23.6688  -20.1153   -9.5271 C   0  0  0  0  0  0  0  0  0  0  0  0
   24.7337  -20.9456  -10.2131 C   0  0  2  0  0  0  0  0  0  0  0  0
   25.7934  -21.1412   -9.2128 N   0  0  0  0  0  0  0  0  0  0  0  0
   25.3140  -20.1481  -11.3136 C   0  0  0  0  0  0  0  0  0  0  0  0
   26.2905  -19.3729  -11.1862 O   0  0  0  0  0  0  0  0  0  0  0  0
   19.2852  -24.2466   -9.0751 C   0  0  0  0  0  0  0  0  0  0  0  0
   27.4659  -20.6663  -15.0678 C   0  0  1  0  0  0  0  0  0  0  0  0
   26.7153  -20.7565  -13.7858 C   0  0  0  0  0  0  0  0  0  0  0  0
   27.6568  -20.3905  -12.6640 C   0  0  1  0  0  0  0  0  0  0  0  0
   25.5154  -19.8229  -13.7767 N   0  0  0  0  0  0  0  0  0  0  0  0
   24.7466  -20.2502  -12.6036 C   0  0  0  0  0  0  0  0  0  0  0  0
   24.7088  -19.8609  -14.9849 O   0  0  0  0  0  0  0  0  0  0  0  0
   24.2371  -20.9917  -15.3558 N   0  0  0  0  0  0  0  0  0  0  0  0
   24.3694  -18.7754  -15.8219 C   0  0  1  0  0  0  0  0  0  0  0  0
   23.3290  -18.8885  -16.8428 C   0  0  0  0  0  0  0  0  0  0  0  0
   22.8008  -17.5080  -17.2250 C   0  0  0  0  0  0  0  0  0  0  0  0
   21.9255  -16.9593  -16.1713 O   0  0  0  0  0  0  0  0  0  0  0  0
   21.5669  -17.5861  -15.1450 C   0  0  0  0  0  0  0  0  0  0  0  0
   23.9424  -19.4482  -18.0630 O   0  0  0  0  0  0  0  0  0  0  0  0
   23.2349  -20.1161  -19.0543 O   0  0  0  0  0  0  0  0  0  0  0  0
   21.4270  -15.6456  -16.2722 O   0  0  0  0  0  0  0  0  0  0  0  0
  2  3  2  0
  2  1  1  0
  4  2  1  0
  5  4  1  0
  6  5  1  0
  7  6  1  0
  8  7  1  0
  8  9  1  1
 10  8  1  0
 11 10  2  0
 13 12  1  1
 13 14  1  0
 15 13  1  0
 15 16  1  1
 16 10  1  0
 17 19  1  0
 17 15  1  0
 18 17  2  0
 20 19  1  0
 20 21  1  6
 21 22  1  0
 22 26  1  0
 23 22  2  0
 24 25  1  0
 24 20  1  0
 27 24  2  0
M  END
$$$$
