FLW.pdb
     RDKit          3D

 34 36  0  0  1  0  0  0  0  0999 V2000
    8.8775  -19.5078   19.6022 N   0  0  0  0  0  0  0  0  0  0  0  0
    8.3026  -18.7605   20.7173 C   0  0  1  0  0  0  0  0  0  0  0  0
    8.2700  -19.6629   21.9296 C   0  0  0  0  0  0  0  0  0  0  0  0
    7.3032  -20.7627   21.8345 C   0  0  0  0  0  0  0  0  0  0  0  0
    7.1411  -21.6251   22.9203 C   0  0  0  0  0  0  0  0  0  0  0  0
    6.2413  -22.6580   22.8526 C   0  0  0  0  0  0  0  0  0  0  0  0
    5.5048  -22.8375   21.7161 C   0  0  0  0  0  0  0  0  0  0  0  0
    5.6320  -22.0135   20.6246 C   0  0  0  0  0  0  0  0  0  0  0  0
    6.5432  -20.9769   20.7083 C   0  0  0  0  0  0  0  0  0  0  0  0
    9.0568  -17.5274   20.9734 C   0  0  0  0  0  0  0  0  0  0  0  0
   10.2649  -17.4492   20.6393 O   0  0  0  0  0  0  0  0  0  0  0  0
    6.8510  -12.6580   20.2677 C   0  0  0  0  0  0  0  0  0  0  0  0
    7.7119  -13.8681   20.4411 C   0  0  1  0  0  0  0  0  0  0  0  0
    8.8186  -13.7569   19.3737 C   0  0  0  0  0  0  0  0  0  0  0  0
    8.4076  -13.9675   21.7495 C   0  0  0  0  0  0  0  0  0  0  0  0
    9.2159  -15.1926   21.9600 C   0  0  2  0  0  0  0  0  0  0  0  0
    8.4827  -16.3873   21.5944 N   0  0  0  0  0  0  0  0  0  0  0  0
    9.7699  -15.3494   23.3118 C   0  0  0  0  0  0  0  0  0  0  0  0
   10.5307  -14.4598   23.7794 O   0  0  0  0  0  0  0  0  0  0  0  0
    9.4676  -16.4801   24.1010 N   0  0  0  0  0  0  0  0  0  0  0  0
   10.0061  -16.5341   25.4661 C   0  0  1  0  0  0  0  0  0  0  0  0
    8.8703  -16.5387   26.4407 C   0  0  0  0  0  0  0  0  0  0  0  0
    7.7601  -15.6630   26.1282 C   0  0  0  0  0  0  0  0  0  0  0  0
    6.5764  -16.0540   25.4755 C   0  0  0  0  0  0  0  0  0  0  0  0
    5.7781  -14.9900   25.3092 N   0  0  0  0  0  0  0  0  0  0  0  0
    6.4197  -13.9120   25.8433 C   0  0  0  0  0  0  0  0  0  0  0  0
    6.0055  -12.5906   25.9356 C   0  0  0  0  0  0  0  0  0  0  0  0
    6.8013  -11.6483   26.5370 C   0  0  0  0  0  0  0  0  0  0  0  0
    8.0325  -12.0357   27.0544 C   0  0  0  0  0  0  0  0  0  0  0  0
    8.4372  -13.3452   26.9592 C   0  0  0  0  0  0  0  0  0  0  0  0
    7.6366  -14.3056   26.3505 C   0  0  0  0  0  0  0  0  0  0  0  0
   10.8688  -17.7111   25.6000 C   0  0  0  0  0  0  0  0  0  0  0  0
   10.9960  -18.5753   24.5012 O   0  0  0  0  0  0  0  0  0  0  0  0
   11.5188  -18.0299   26.6211 O   0  0  0  0  0  0  0  0  0  0  0  0
  2  1  1  6
  3  2  1  0
  3  4  1  0
  4  5  2  0
  5  6  1  0
  7  6  2  0
  8  7  1  0
  9  8  2  0
  9  4  1  0
 10 11  2  0
 10  2  1  0
 13 14  1  6
 13 12  1  0
 15 13  1  0
 16 15  1  1
 16 17  1  0
 17 10  1  0
 18 16  1  0
 19 18  2  0
 20 18  1  0
 21 22  1  1
 21 20  1  0
 22 23  1  0
 23 31  1  0
 23 24  2  0
 24 25  1  0
 26 25  1  0
 26 27  2  0
 28 27  1  0
 29 28  2  0
 30 31  2  0
 30 29  1  0
 31 26  1  0
 32 21  1  0
 33 32  1  0
 34 32  2  0
M  END
$$$$
