FLW.pdb
     RDKit          3D

 34 36  0  0  1  0  0  0  0  0999 V2000
   10.0244  -19.3525   19.0732 N   0  0  0  0  0  0  0  0  0  0  0  0
    9.3558  -19.0004   20.3228 C   0  0  1  0  0  0  0  0  0  0  0  0
    9.6043  -20.1052   21.3241 C   0  0  0  0  0  0  0  0  0  0  0  0
    8.8745  -21.3468   21.0428 C   0  0  0  0  0  0  0  0  0  0  0  0
    8.9663  -22.4113   21.9414 C   0  0  0  0  0  0  0  0  0  0  0  0
    8.2904  -23.5797   21.6981 C   0  0  0  0  0  0  0  0  0  0  0  0
    7.5269  -23.6952   20.5711 C   0  0  0  0  0  0  0  0  0  0  0  0
    7.4084  -22.6738   19.6604 C   0  0  0  0  0  0  0  0  0  0  0  0
    8.0958  -21.5025   19.9197 C   0  0  0  0  0  0  0  0  0  0  0  0
    9.8146  -17.6978   20.8202 C   0  0  0  0  0  0  0  0  0  0  0  0
   11.0421  -17.4340   20.8505 O   0  0  0  0  0  0  0  0  0  0  0  0
    6.4923  -13.1586   20.3303 C   0  0  0  0  0  0  0  0  0  0  0  0
    7.6545  -14.0994   20.3422 C   0  0  1  0  0  0  0  0  0  0  0  0
    8.7848  -13.3857   19.5744 C   0  0  0  0  0  0  0  0  0  0  0  0
    8.2013  -14.4125   21.6870 C   0  0  0  0  0  0  0  0  0  0  0  0
    9.3318  -15.3714   21.7174 C   0  0  2  0  0  0  0  0  0  0  0  0
    8.9257  -16.6920   21.2820 N   0  0  0  0  0  0  0  0  0  0  0  0
   10.0302  -15.4713   23.0063 C   0  0  0  0  0  0  0  0  0  0  0  0
   10.9479  -14.6523   23.2816 O   0  0  0  0  0  0  0  0  0  0  0  0
    9.6943  -16.4693   23.9464 N   0  0  0  0  0  0  0  0  0  0  0  0
   10.3729  -16.4488   25.2485 C   0  0  1  0  0  0  0  0  0  0  0  0
    9.9703  -15.2133   25.9910 C   0  0  0  0  0  0  0  0  0  0  0  0
    8.5505  -14.9316   26.0351 C   0  0  0  0  0  0  0  0  0  0  0  0
    7.5293  -15.8648   25.7773 C   0  0  0  0  0  0  0  0  0  0  0  0
    6.3341  -15.2641   25.8649 N   0  0  0  0  0  0  0  0  0  0  0  0
    6.5576  -13.9557   26.1766 C   0  0  0  0  0  0  0  0  0  0  0  0
    5.6495  -12.9286   26.3923 C   0  0  0  0  0  0  0  0  0  0  0  0
    6.0830  -11.6688   26.7206 C   0  0  0  0  0  0  0  0  0  0  0  0
    7.4488  -11.4336   26.8347 C   0  0  0  0  0  0  0  0  0  0  0  0
    8.3428  -12.4543   26.6191 C   0  0  0  0  0  0  0  0  0  0  0  0
    7.9111  -13.7334   26.2853 C   0  0  0  0  0  0  0  0  0  0  0  0
   10.0519  -17.6767   25.9811 C   0  0  0  0  0  0  0  0  0  0  0  0
   10.6883  -17.9073   27.2108 O   0  0  0  0  0  0  0  0  0  0  0  0
    9.2474  -18.5611   25.6105 O   0  0  0  0  0  0  0  0  0  0  0  0
  2  1  1  6
  3  2  1  0
  3  4  1  0
  4  5  2  0
  5  6  1  0
  7  6  2  0
  8  7  1  0
  9  8  2  0
  9  4  1  0
 10 11  2  0
 10  2  1  0
 13 14  1  6
 13 12  1  0
 15 13  1  0
 16 15  1  1
 16 17  1  0
 17 10  1  0
 18 16  1  0
 19 18  2  0
 20 18  1  0
 21 22  1  1
 21 20  1  0
 22 23  1  0
 23 31  1  0
 23 24  2  0
 24 25  1  0
 26 25  1  0
 26 27  2  0
 28 27  1  0
 29 28  2  0
 30 31  2  0
 30 29  1  0
 31 26  1  0
 32 21  1  0
 33 32  1  0
 34 32  2  0
M  END
$$$$
