FLW.pdb
     RDKit          3D

 34 36  0  0  1  0  0  0  0  0999 V2000
    5.7551  -19.4814   20.1947 N   0  0  0  0  0  0  0  0  0  0  0  0
    6.3601  -18.9993   21.4332 C   0  0  1  0  0  0  0  0  0  0  0  0
    6.5824  -20.1825   22.3473 C   0  0  0  0  0  0  0  0  0  0  0  0
    7.0639  -19.8252   23.6866 C   0  0  0  0  0  0  0  0  0  0  0  0
    6.1724  -19.2725   24.6078 C   0  0  0  0  0  0  0  0  0  0  0  0
    6.6018  -18.9335   25.8655 C   0  0  0  0  0  0  0  0  0  0  0  0
    7.9073  -19.1402   26.2110 C   0  0  0  0  0  0  0  0  0  0  0  0
    8.8182  -19.6809   25.3368 C   0  0  0  0  0  0  0  0  0  0  0  0
    8.3700  -20.0174   24.0728 C   0  0  0  0  0  0  0  0  0  0  0  0
    7.6074  -18.2730   21.1655 C   0  0  0  0  0  0  0  0  0  0  0  0
    8.6058  -18.8851   20.7119 O   0  0  0  0  0  0  0  0  0  0  0  0
    7.4499  -12.5898   20.2921 C   0  0  0  0  0  0  0  0  0  0  0  0
    7.9194  -13.7807   21.0649 C   0  0  1  0  0  0  0  0  0  0  0  0
    6.6653  -14.3662   21.7437 C   0  0  0  0  0  0  0  0  0  0  0  0
    8.4978  -14.8776   20.2475 C   0  0  0  0  0  0  0  0  0  0  0  0
    8.9014  -16.0945   20.9923 C   0  0  2  0  0  0  0  0  0  0  0  0
    7.7535  -16.8800   21.3969 N   0  0  0  0  0  0  0  0  0  0  0  0
    9.7685  -15.8554   22.1542 C   0  0  0  0  0  0  0  0  0  0  0  0
   10.8393  -15.2067   22.0082 O   0  0  0  0  0  0  0  0  0  0  0  0
    9.4268  -16.3393   23.4354 N   0  0  0  0  0  0  0  0  0  0  0  0
   10.3912  -16.1481   24.5263 C   0  0  1  0  0  0  0  0  0  0  0  0
   10.0398  -14.9025   25.2778 C   0  0  0  0  0  0  0  0  0  0  0  0
    8.6440  -14.7442   25.6300 C   0  0  0  0  0  0  0  0  0  0  0  0
    7.7368  -15.7978   25.8463 C   0  0  0  0  0  0  0  0  0  0  0  0
    6.5210  -15.3008   26.1148 N   0  0  0  0  0  0  0  0  0  0  0  0
    6.6197  -13.9415   26.0789 C   0  0  0  0  0  0  0  0  0  0  0  0
    5.6484  -12.9763   26.3051 C   0  0  0  0  0  0  0  0  0  0  0  0
    5.9598  -11.6416   26.2403 C   0  0  0  0  0  0  0  0  0  0  0  0
    7.2657  -11.2670   25.9439 C   0  0  0  0  0  0  0  0  0  0  0  0
    8.2226  -12.2271   25.7202 C   0  0  0  0  0  0  0  0  0  0  0  0
    7.9144  -13.5817   25.7833 C   0  0  0  0  0  0  0  0  0  0  0  0
   10.3982  -17.3389   25.3804 C   0  0  0  0  0  0  0  0  0  0  0  0
   11.3932  -17.4500   26.3643 O   0  0  0  0  0  0  0  0  0  0  0  0
    9.5859  -18.2892   25.3182 O   0  0  0  0  0  0  0  0  0  0  0  0
  2  1  1  6
  3  2  1  0
  3  4  1  0
  4  5  2  0
  5  6  1  0
  7  6  2  0
  8  7  1  0
  9  8  2  0
  9  4  1  0
 10 11  2  0
 10  2  1  0
 13 14  1  6
 13 12  1  0
 15 13  1  0
 16 15  1  1
 16 17  1  0
 17 10  1  0
 18 16  1  0
 19 18  2  0
 20 18  1  0
 21 22  1  1
 21 20  1  0
 22 23  1  0
 23 31  1  0
 23 24  2  0
 24 25  1  0
 26 25  1  0
 26 27  2  0
 28 27  1  0
 29 28  2  0
 30 31  2  0
 30 29  1  0
 31 26  1  0
 32 21  1  0
 33 32  1  0
 34 32  2  0
M  END
$$$$
