FLW.pdb
     RDKit          3D

 34 36  0  0  1  0  0  0  0  0999 V2000
   10.3837  -20.2993   19.1097 N   0  0  0  0  0  0  0  0  0  0  0  0
    9.5791  -19.5999   20.1076 C   0  0  1  0  0  0  0  0  0  0  0  0
    9.8192  -20.2470   21.4524 C   0  0  0  0  0  0  0  0  0  0  0  0
    9.8712  -21.7130   21.4133 C   0  0  0  0  0  0  0  0  0  0  0  0
   11.0766  -22.3610   21.6891 C   0  0  0  0  0  0  0  0  0  0  0  0
   11.1461  -23.7305   21.6598 C   0  0  0  0  0  0  0  0  0  0  0  0
   10.0283  -24.4563   21.3592 C   0  0  0  0  0  0  0  0  0  0  0  0
    8.8225  -23.8604   21.0815 C   0  0  0  0  0  0  0  0  0  0  0  0
    8.7686  -22.4792   21.1149 C   0  0  0  0  0  0  0  0  0  0  0  0
    9.8898  -18.1653   20.1276 C   0  0  0  0  0  0  0  0  0  0  0  0
   11.0117  -17.7601   19.7347 O   0  0  0  0  0  0  0  0  0  0  0  0
    8.6626  -12.9032   19.4490 C   0  0  0  0  0  0  0  0  0  0  0  0
    8.0837  -13.5087   20.6875 C   0  0  1  0  0  0  0  0  0  0  0  0
    6.6549  -12.9427   20.8074 C   0  0  0  0  0  0  0  0  0  0  0  0
    7.9425  -14.9869   20.6627 C   0  0  0  0  0  0  0  0  0  0  0  0
    9.2050  -15.7544   20.5385 C   0  0  2  0  0  0  0  0  0  0  0  0
    8.9693  -17.1832   20.5783 N   0  0  0  0  0  0  0  0  0  0  0  0
   10.2482  -15.4004   21.5108 C   0  0  0  0  0  0  0  0  0  0  0  0
   10.9555  -14.3750   21.3186 O   0  0  0  0  0  0  0  0  0  0  0  0
   10.4764  -16.1877   22.6600 N   0  0  0  0  0  0  0  0  0  0  0  0
    9.8140  -15.7942   23.9101 C   0  0  1  0  0  0  0  0  0  0  0  0
    8.3423  -15.6726   23.6673 C   0  0  0  0  0  0  0  0  0  0  0  0
    7.5433  -15.2504   24.7990 C   0  0  0  0  0  0  0  0  0  0  0  0
    6.4891  -15.9880   25.3688 C   0  0  0  0  0  0  0  0  0  0  0  0
    5.9389  -15.2903   26.3726 N   0  0  0  0  0  0  0  0  0  0  0  0
    6.6166  -14.1111   26.4684 C   0  0  0  0  0  0  0  0  0  0  0  0
    6.4423  -13.0586   27.3560 C   0  0  0  0  0  0  0  0  0  0  0  0
    7.2536  -11.9535   27.2990 C   0  0  0  0  0  0  0  0  0  0  0  0
    8.2561  -11.9013   26.3367 C   0  0  0  0  0  0  0  0  0  0  0  0
    8.4231  -12.9461   25.4603 C   0  0  0  0  0  0  0  0  0  0  0  0
    7.6044  -14.0690   25.5115 C   0  0  0  0  0  0  0  0  0  0  0  0
   10.1343  -16.7699   24.9556 C   0  0  0  0  0  0  0  0  0  0  0  0
   10.6230  -18.0278   24.5691 O   0  0  0  0  0  0  0  0  0  0  0  0
   10.0124  -16.5887   26.1881 O   0  0  0  0  0  0  0  0  0  0  0  0
  2  1  1  6
  3  2  1  0
  3  4  1  0
  4  5  2  0
  5  6  1  0
  7  6  2  0
  8  7  1  0
  9  8  2  0
  9  4  1  0
 10 11  2  0
 10  2  1  0
 13 14  1  6
 13 12  1  0
 15 13  1  0
 16 15  1  1
 16 17  1  0
 17 10  1  0
 18 16  1  0
 19 18  2  0
 20 18  1  0
 21 22  1  6
 21 20  1  0
 22 23  1  0
 23 31  1  0
 23 24  2  0
 24 25  1  0
 26 25  1  0
 26 27  2  0
 28 27  1  0
 29 28  2  0
 30 31  2  0
 30 29  1  0
 31 26  1  0
 32 21  1  0
 33 32  1  0
 34 32  2  0
M  END
$$$$
