FLW.pdb
     RDKit          3D

 34 36  0  0  1  0  0  0  0  0999 V2000
    7.3863  -18.4480   23.5003 N   0  0  0  0  0  0  0  0  0  0  0  0
    6.5880  -17.6720   22.5553 C   0  0  1  0  0  0  0  0  0  0  0  0
    5.7601  -16.6765   23.3354 C   0  0  0  0  0  0  0  0  0  0  0  0
    6.4542  -16.0890   24.4870 C   0  0  0  0  0  0  0  0  0  0  0  0
    6.5702  -16.8295   25.6648 C   0  0  0  0  0  0  0  0  0  0  0  0
    7.2170  -16.2996   26.7520 C   0  0  0  0  0  0  0  0  0  0  0  0
    7.7469  -15.0427   26.6750 C   0  0  0  0  0  0  0  0  0  0  0  0
    7.6559  -14.2793   25.5369 C   0  0  0  0  0  0  0  0  0  0  0  0
    7.0010  -14.8274   24.4495 C   0  0  0  0  0  0  0  0  0  0  0  0
    7.4402  -17.0126   21.5584 C   0  0  0  0  0  0  0  0  0  0  0  0
    7.4910  -17.4551   20.3841 O   0  0  0  0  0  0  0  0  0  0  0  0
    8.3742  -11.7681   20.9012 C   0  0  0  0  0  0  0  0  0  0  0  0
    8.2452  -13.2574   20.9355 C   0  0  1  0  0  0  0  0  0  0  0  0
    7.5968  -13.6572   19.5954 C   0  0  0  0  0  0  0  0  0  0  0  0
    9.5280  -14.0020   21.0129 C   0  0  0  0  0  0  0  0  0  0  0  0
    9.4138  -15.4767   21.1153 C   0  0  2  0  0  0  0  0  0  0  0  0
    8.2322  -15.8723   21.8542 N   0  0  0  0  0  0  0  0  0  0  0  0
   10.5922  -16.1563   21.6708 C   0  0  0  0  0  0  0  0  0  0  0  0
   11.7336  -15.9099   21.1962 O   0  0  0  0  0  0  0  0  0  0  0  0
   10.4726  -17.0835   22.7284 N   0  0  0  0  0  0  0  0  0  0  0  0
   10.9829  -16.6947   24.0493 C   0  0  1  0  0  0  0  0  0  0  0  0
    9.8271  -16.4087   24.9560 C   0  0  0  0  0  0  0  0  0  0  0  0
   10.1462  -16.2326   26.3576 C   0  0  0  0  0  0  0  0  0  0  0  0
   10.5238  -17.2618   27.2398 C   0  0  0  0  0  0  0  0  0  0  0  0
   10.7073  -16.7600   28.4692 N   0  0  0  0  0  0  0  0  0  0  0  0
   10.4572  -15.4213   28.4043 C   0  0  0  0  0  0  0  0  0  0  0  0
   10.5255  -14.4578   29.4008 C   0  0  0  0  0  0  0  0  0  0  0  0
   10.2514  -13.1424   29.1224 C   0  0  0  0  0  0  0  0  0  0  0  0
    9.9029  -12.7860   27.8242 C   0  0  0  0  0  0  0  0  0  0  0  0
    9.8363  -13.7445   26.8422 C   0  0  0  0  0  0  0  0  0  0  0  0
   10.1119  -15.0796   27.1169 C   0  0  0  0  0  0  0  0  0  0  0  0
   11.8536  -17.7554   24.5633 C   0  0  0  0  0  0  0  0  0  0  0  0
   11.9677  -18.9435   23.8244 O   0  0  0  0  0  0  0  0  0  0  0  0
   12.5216  -17.7061   25.6207 O   0  0  0  0  0  0  0  0  0  0  0  0
  2  1  1  1
  3  2  1  0
  3  4  1  0
  4  5  2  0
  5  6  1  0
  7  6  2  0
  8  7  1  0
  9  8  2  0
  9  4  1  0
 10 11  2  0
 10  2  1  0
 13 14  1  6
 13 12  1  0
 15 13  1  0
 16 15  1  1
 16 17  1  0
 17 10  1  0
 18 16  1  0
 19 18  2  0
 20 18  1  0
 21 22  1  1
 21 20  1  0
 22 23  1  0
 23 31  1  0
 23 24  2  0
 24 25  1  0
 26 25  1  0
 26 27  2  0
 28 27  1  0
 29 28  2  0
 30 31  2  0
 30 29  1  0
 31 26  1  0
 32 21  1  0
 33 32  1  0
 34 32  2  0
M  END
$$$$
