TDQ.pdb
     RDKit          3D

 25 24  0  0  1  0  0  0  0  0999 V2000
   22.0401  -11.7050  -16.1589 C   0  0  0  0  0  0  0  0  0  0  0  0
   20.9739  -12.5713  -16.7498 C   0  0  1  0  0  0  0  0  0  0  0  0
   21.2914  -13.9210  -16.6363 O   0  0  0  0  0  0  0  0  0  0  0  0
   19.6464  -12.3371  -16.0818 C   0  0  2  0  0  0  0  0  0  0  0  0
   18.6415  -13.2278  -16.5815 N   0  0  0  0  0  0  0  0  0  0  0  0
   19.2373  -10.9080  -16.2877 C   0  0  0  0  0  0  0  0  0  0  0  0
   19.1188  -10.5161  -17.4919 O   0  0  0  0  0  0  0  0  0  0  0  0
   18.9947  -10.0375  -15.2116 N   0  0  0  0  0  0  0  0  0  0  0  0
   18.5956   -8.6066  -15.4446 C   0  0  1  0  0  0  0  0  0  0  0  0
   17.5824   -8.3439  -14.3509 C   0  0  0  0  0  0  0  0  0  0  0  0
   17.0641   -6.9814  -14.2845 C   0  0  0  0  0  0  0  0  0  0  0  0
   17.4158   -6.0534  -15.0375 O   0  0  0  0  0  0  0  0  0  0  0  0
   19.8375   -7.8668  -15.1165 C   0  0  0  0  0  0  0  0  0  0  0  0
   20.5504   -8.3682  -14.1628 O   0  0  0  0  0  0  0  0  0  0  0  0
   16.0916   -6.6356  -13.3144 O   0  0  0  0  0  0  0  0  0  0  0  0
   23.6801   -4.6065  -18.6213 N   0  0  0  0  0  0  0  0  0  0  0  0
   24.3565   -4.5259  -17.3733 C   0  0  0  0  0  0  0  0  0  0  0  0
   25.5118   -4.0120  -17.3851 O   0  0  0  0  0  0  0  0  0  0  0  0
   23.7216   -5.0296  -16.1056 C   0  0  0  0  0  0  0  0  0  0  0  0
   22.3748   -5.5805  -16.4842 C   0  0  0  0  0  0  0  0  0  0  0  0
   21.6244   -6.1773  -15.3026 C   0  0  2  0  0  0  0  0  0  0  0  0
   20.3214   -6.6944  -15.7262 N   0  0  0  0  0  0  0  0  0  0  0  0
   21.3796   -5.0478  -14.3806 C   0  0  0  0  0  0  0  0  0  0  0  0
   20.3075   -4.4230  -14.3944 O   0  0  0  0  0  0  0  0  0  0  0  0
   22.3671   -4.6881  -13.4918 O   0  0  0  0  0  0  0  0  0  0  0  0
  2  1  1  1
  2  4  1  0
  3  2  1  0
  4  6  1  0
  4  5  1  6
  6  8  1  0
  6  7  2  0
  8  9  1  0
  9 10  1  1
  9 13  1  0
 11 10  1  0
 12 11  2  0
 13 14  2  0
 15 11  1  0
 16 17  1  0
 17 18  2  0
 17 19  1  0
 19 20  1  0
 21 20  1  6
 21 23  1  0
 22 21  1  0
 22 13  1  0
 23 25  1  0
 24 23  2  0
M  END
$$$$
