TDQ.pdb
     RDKit          3D

 25 24  0  0  1  0  0  0  0  0999 V2000
   13.4105  -15.5586  -13.1792 C   0  0  0  0  0  0  0  0  0  0  0  0
   14.6053  -14.6597  -13.1573 C   0  0  1  0  0  0  0  0  0  0  0  0
   15.4611  -14.9216  -14.2224 O   0  0  0  0  0  0  0  0  0  0  0  0
   14.2013  -13.2117  -13.2167 C   0  0  2  0  0  0  0  0  0  0  0  0
   13.5959  -12.8855  -14.4737 N   0  0  0  0  0  0  0  0  0  0  0  0
   15.4078  -12.3537  -12.9714 C   0  0  0  0  0  0  0  0  0  0  0  0
   16.0313  -12.5445  -11.8793 O   0  0  0  0  0  0  0  0  0  0  0  0
   15.8364  -11.3850  -13.8947 N   0  0  0  0  0  0  0  0  0  0  0  0
   17.0285  -10.5139  -13.6099 C   0  0  1  0  0  0  0  0  0  0  0  0
   17.5598  -10.1868  -14.9892 C   0  0  0  0  0  0  0  0  0  0  0  0
   18.6959   -9.2718  -15.0273 C   0  0  0  0  0  0  0  0  0  0  0  0
   18.9210   -8.4615  -15.9463 O   0  0  0  0  0  0  0  0  0  0  0  0
   16.4083   -9.2907  -13.0474 C   0  0  0  0  0  0  0  0  0  0  0  0
   15.2821   -8.9422  -13.5761 O   0  0  0  0  0  0  0  0  0  0  0  0
   19.6395   -9.2634  -13.9708 O   0  0  0  0  0  0  0  0  0  0  0  0
   15.1783   -7.0737   -7.6079 N   0  0  0  0  0  0  0  0  0  0  0  0
   14.1152   -7.3817   -8.5004 C   0  0  0  0  0  0  0  0  0  0  0  0
   12.9755   -7.5662   -7.9848 O   0  0  0  0  0  0  0  0  0  0  0  0
   14.3439   -7.4815   -9.9842 C   0  0  0  0  0  0  0  0  0  0  0  0
   15.8044   -7.2110  -10.2172 C   0  0  0  0  0  0  0  0  0  0  0  0
   16.1864   -7.2438  -11.6898 C   0  0  2  0  0  0  0  0  0  0  0  0
   16.9040   -8.4796  -12.0098 N   0  0  0  0  0  0  0  0  0  0  0  0
   17.1267   -6.1185  -11.8778 C   0  0  0  0  0  0  0  0  0  0  0  0
   18.3340   -6.3134  -12.0879 O   0  0  0  0  0  0  0  0  0  0  0  0
   16.6443   -4.8308  -11.8166 O   0  0  0  0  0  0  0  0  0  0  0  0
  2  1  1  6
  2  4  1  0
  3  2  1  0
  4  6  1  0
  4  5  1  6
  6  8  1  0
  6  7  2  0
  8  9  1  0
  9 10  1  6
  9 13  1  0
 11 10  1  0
 12 11  2  0
 13 14  2  0
 15 11  1  0
 16 17  1  0
 17 18  2  0
 17 19  1  0
 19 20  1  0
 21 20  1  1
 21 23  1  0
 22 21  1  0
 22 13  1  0
 23 25  1  0
 24 23  2  0
M  END
$$$$
