TDQ.pdb
     RDKit          3D

 25 24  0  0  1  0  0  0  0  0999 V2000
   14.8807  -11.6151  -16.4415 C   0  0  0  0  0  0  0  0  0  0  0  0
   15.3629  -13.0306  -16.4377 C   0  0  1  0  0  0  0  0  0  0  0  0
   14.3997  -13.8996  -16.9401 O   0  0  0  0  0  0  0  0  0  0  0  0
   16.6154  -13.1837  -17.2572 C   0  0  2  0  0  0  0  0  0  0  0  0
   17.0442  -14.5497  -17.3124 N   0  0  0  0  0  0  0  0  0  0  0  0
   17.6920  -12.3137  -16.6777 C   0  0  0  0  0  0  0  0  0  0  0  0
   18.0874  -12.6007  -15.5033 O   0  0  0  0  0  0  0  0  0  0  0  0
   18.2429  -11.2333  -17.3875 N   0  0  0  0  0  0  0  0  0  0  0  0
   19.2809  -10.3420  -16.7636 C   0  0  1  0  0  0  0  0  0  0  0  0
   19.9071   -9.6481  -17.9544 C   0  0  0  0  0  0  0  0  0  0  0  0
   20.9729   -8.7008  -17.6442 C   0  0  0  0  0  0  0  0  0  0  0  0
   21.3933   -8.4598  -16.4966 O   0  0  0  0  0  0  0  0  0  0  0  0
   18.4578   -9.3528  -16.0278 C   0  0  0  0  0  0  0  0  0  0  0  0
   17.4266   -8.9023  -16.6627 O   0  0  0  0  0  0  0  0  0  0  0  0
   21.6078   -7.9776  -18.6836 O   0  0  0  0  0  0  0  0  0  0  0  0
   16.8360   -8.9708  -10.1993 N   0  0  0  0  0  0  0  0  0  0  0  0
   15.9515   -9.4809  -11.1889 C   0  0  0  0  0  0  0  0  0  0  0  0
   15.0156  -10.2284  -10.7838 O   0  0  0  0  0  0  0  0  0  0  0  0
   16.1279   -9.1429  -12.6444 C   0  0  0  0  0  0  0  0  0  0  0  0
   17.3497   -8.2721  -12.7426 C   0  0  0  0  0  0  0  0  0  0  0  0
   17.7049   -7.9077  -14.1766 C   0  0  2  0  0  0  0  0  0  0  0  0
   18.6716   -8.8601  -14.7272 N   0  0  0  0  0  0  0  0  0  0  0  0
   18.3711   -6.5904  -14.0946 C   0  0  0  0  0  0  0  0  0  0  0  0
   17.7401   -5.5647  -13.7954 O   0  0  0  0  0  0  0  0  0  0  0  0
   19.7197   -6.5090  -14.3574 O   0  0  0  0  0  0  0  0  0  0  0  0
  2  1  1  6
  2  4  1  0
  3  2  1  0
  4  6  1  0
  4  5  1  1
  6  8  1  0
  6  7  2  0
  8  9  1  0
  9 10  1  6
  9 13  1  0
 11 10  1  0
 12 11  2  0
 13 14  2  0
 15 11  1  0
 16 17  1  0
 17 18  2  0
 17 19  1  0
 19 20  1  0
 21 20  1  1
 21 23  1  0
 22 21  1  0
 22 13  1  0
 23 25  1  0
 24 23  2  0
M  END
$$$$
