TDQ.pdb
     RDKit          3D

 25 24  0  0  1  0  0  0  0  0999 V2000
   14.1764  -11.2869  -16.1476 C   0  0  0  0  0  0  0  0  0  0  0  0
   14.8870  -10.7862  -14.9307 C   0  0  1  0  0  0  0  0  0  0  0  0
   14.1804  -11.0812  -13.7692 O   0  0  0  0  0  0  0  0  0  0  0  0
   16.2625  -11.3847  -14.8157 C   0  0  2  0  0  0  0  0  0  0  0  0
   16.2055  -12.8075  -14.6566 N   0  0  0  0  0  0  0  0  0  0  0  0
   16.9799  -10.7509  -13.6601 C   0  0  0  0  0  0  0  0  0  0  0  0
   17.0200  -11.4181  -12.5779 O   0  0  0  0  0  0  0  0  0  0  0  0
   17.5808   -9.4844  -13.7571 N   0  0  0  0  0  0  0  0  0  0  0  0
   18.3638   -8.9060  -12.6110 C   0  0  1  0  0  0  0  0  0  0  0  0
   19.3209   -7.9491  -13.2893 C   0  0  0  0  0  0  0  0  0  0  0  0
   20.2064   -7.2054  -12.3993 C   0  0  0  0  0  0  0  0  0  0  0  0
   21.0344   -6.3538  -12.7749 O   0  0  0  0  0  0  0  0  0  0  0  0
   17.3419   -8.1100  -11.8902 C   0  0  0  0  0  0  0  0  0  0  0  0
   16.5229   -7.4459  -12.6369 O   0  0  0  0  0  0  0  0  0  0  0  0
   20.1627   -7.4290  -11.0012 O   0  0  0  0  0  0  0  0  0  0  0  0
   13.2921   -9.0210   -8.6658 N   0  0  0  0  0  0  0  0  0  0  0  0
   13.2694   -7.7221   -8.0880 C   0  0  0  0  0  0  0  0  0  0  0  0
   12.1579   -7.3185   -7.6402 O   0  0  0  0  0  0  0  0  0  0  0  0
   14.5115   -6.8759   -8.0171 C   0  0  0  0  0  0  0  0  0  0  0  0
   15.6267   -7.6919   -8.6097 C   0  0  0  0  0  0  0  0  0  0  0  0
   16.0330   -7.2212   -9.9985 C   0  0  2  0  0  0  0  0  0  0  0  0
   17.1657   -8.0034  -10.4982 N   0  0  0  0  0  0  0  0  0  0  0  0
   16.4942   -5.8275   -9.8225 C   0  0  0  0  0  0  0  0  0  0  0  0
   17.7022   -5.5437   -9.8071 O   0  0  0  0  0  0  0  0  0  0  0  0
   15.5575   -4.8303   -9.6730 O   0  0  0  0  0  0  0  0  0  0  0  0
  2  1  1  6
  2  4  1  0
  3  2  1  0
  4  6  1  0
  4  5  1  1
  6  8  1  0
  6  7  2  0
  8  9  1  0
  9 10  1  6
  9 13  1  0
 11 10  1  0
 12 11  2  0
 13 14  2  0
 15 11  1  0
 16 17  1  0
 17 18  2  0
 17 19  1  0
 19 20  1  0
 21 20  1  1
 21 23  1  0
 22 21  1  0
 22 13  1  0
 23 25  1  0
 24 23  2  0
M  END
$$$$
