TDQ.pdb
     RDKit          3D

 25 24  0  0  1  0  0  0  0  0999 V2000
   21.3441  -14.8399  -16.5484 C   0  0  0  0  0  0  0  0  0  0  0  0
   20.7776  -13.5979  -17.1590 C   0  0  1  0  0  0  0  0  0  0  0  0
   21.0191  -13.5460  -18.5281 O   0  0  0  0  0  0  0  0  0  0  0  0
   19.2929  -13.5062  -16.9341 C   0  0  2  0  0  0  0  0  0  0  0  0
   18.5649  -14.2547  -17.9153 N   0  0  0  0  0  0  0  0  0  0  0  0
   18.8801  -12.0636  -16.9549 C   0  0  0  0  0  0  0  0  0  0  0  0
   18.5563  -11.5790  -18.0854 O   0  0  0  0  0  0  0  0  0  0  0  0
   18.8493  -11.2780  -15.7903 N   0  0  0  0  0  0  0  0  0  0  0  0
   18.4893   -9.8191  -15.8464 C   0  0  1  0  0  0  0  0  0  0  0  0
   17.4660   -9.6689  -14.7409 C   0  0  0  0  0  0  0  0  0  0  0  0
   16.0823   -9.9340  -15.1214 C   0  0  0  0  0  0  0  0  0  0  0  0
   15.3110  -10.6911  -14.5021 O   0  0  0  0  0  0  0  0  0  0  0  0
   19.7439   -9.1594  -15.4127 C   0  0  0  0  0  0  0  0  0  0  0  0
   20.2951   -9.6507  -14.3524 O   0  0  0  0  0  0  0  0  0  0  0  0
   15.5272   -9.3128  -16.2671 O   0  0  0  0  0  0  0  0  0  0  0  0
   23.9282   -5.9257  -18.6564 N   0  0  0  0  0  0  0  0  0  0  0  0
   24.6170   -6.0982  -17.4245 C   0  0  0  0  0  0  0  0  0  0  0  0
   25.8298   -5.7417  -17.3966 O   0  0  0  0  0  0  0  0  0  0  0  0
   23.9288   -6.6773  -16.2183 C   0  0  0  0  0  0  0  0  0  0  0  0
   22.5305   -7.0294  -16.6440 C   0  0  0  0  0  0  0  0  0  0  0  0
   21.7231   -7.6936  -15.5383 C   0  0  2  0  0  0  0  0  0  0  0  0
   20.3948   -8.0723  -16.0248 N   0  0  0  0  0  0  0  0  0  0  0  0
   21.5412   -6.6526  -14.5042 C   0  0  0  0  0  0  0  0  0  0  0  0
   20.5794   -5.8693  -14.5380 O   0  0  0  0  0  0  0  0  0  0  0  0
   22.4628   -6.5574  -13.4863 O   0  0  0  0  0  0  0  0  0  0  0  0
  2  1  1  6
  2  4  1  0
  3  2  1  0
  4  6  1  0
  4  5  1  6
  6  8  1  0
  6  7  2  0
  8  9  1  0
  9 10  1  1
  9 13  1  0
 11 10  1  0
 12 11  2  0
 13 14  2  0
 15 11  1  0
 16 17  1  0
 17 18  2  0
 17 19  1  0
 19 20  1  0
 21 20  1  6
 21 23  1  0
 22 21  1  0
 22 13  1  0
 23 25  1  0
 24 23  2  0
M  END
$$$$
