TDQ.pdb
     RDKit          3D

 25 24  0  0  1  0  0  0  0  0999 V2000
   20.2751  -11.0514  -14.8509 C   0  0  0  0  0  0  0  0  0  0  0  0
   18.9416  -10.5385  -15.2925 C   0  0  1  0  0  0  0  0  0  0  0  0
   18.6764  -10.8780  -16.6153 O   0  0  0  0  0  0  0  0  0  0  0  0
   17.8343  -11.0815  -14.4309 C   0  0  2  0  0  0  0  0  0  0  0  0
   17.0476  -12.0508  -15.1341 N   0  0  0  0  0  0  0  0  0  0  0  0
   16.9760   -9.9448  -13.9583 C   0  0  0  0  0  0  0  0  0  0  0  0
   16.0527   -9.5616  -14.7448 O   0  0  0  0  0  0  0  0  0  0  0  0
   17.1733   -9.3271  -12.7117 N   0  0  0  0  0  0  0  0  0  0  0  0
   16.3635   -8.1284  -12.3017 C   0  0  1  0  0  0  0  0  0  0  0  0
   16.5071   -8.1084  -10.7948 C   0  0  0  0  0  0  0  0  0  0  0  0
   15.5491   -8.9268  -10.0586 C   0  0  0  0  0  0  0  0  0  0  0  0
   14.6180   -9.5685  -10.5813 O   0  0  0  0  0  0  0  0  0  0  0  0
   17.1486   -7.0015  -12.8594 C   0  0  0  0  0  0  0  0  0  0  0  0
   18.4038   -7.2380  -13.0538 O   0  0  0  0  0  0  0  0  0  0  0  0
   15.6385   -9.0335   -8.6489 O   0  0  0  0  0  0  0  0  0  0  0  0
   20.4102   -4.5812  -17.8341 N   0  0  0  0  0  0  0  0  0  0  0  0
   19.4709   -5.2611  -17.0112 C   0  0  0  0  0  0  0  0  0  0  0  0
   19.6956   -6.4845  -16.7834 O   0  0  0  0  0  0  0  0  0  0  0  0
   18.2713   -4.5522  -16.4435 C   0  0  0  0  0  0  0  0  0  0  0  0
   17.6456   -5.4883  -15.4472 C   0  0  0  0  0  0  0  0  0  0  0  0
   17.5185   -4.8786  -14.0588 C   0  0  2  0  0  0  0  0  0  0  0  0
   16.6808   -5.7188  -13.2004 N   0  0  0  0  0  0  0  0  0  0  0  0
   16.8119   -3.5949  -14.2558 C   0  0  0  0  0  0  0  0  0  0  0  0
   15.5841   -3.5028  -14.1012 O   0  0  0  0  0  0  0  0  0  0  0  0
   17.5388   -2.4838  -14.6184 O   0  0  0  0  0  0  0  0  0  0  0  0
  2  1  1  1
  2  4  1  0
  3  2  1  0
  4  6  1  0
  4  5  1  6
  6  8  1  0
  6  7  2  0
  8  9  1  0
  9 10  1  1
  9 13  1  0
 11 10  1  0
 12 11  2  0
 13 14  2  0
 15 11  1  0
 16 17  1  0
 17 18  2  0
 17 19  1  0
 19 20  1  0
 21 20  1  6
 21 23  1  0
 22 21  1  0
 22 13  1  0
 23 25  1  0
 24 23  2  0
M  END
$$$$
