TDQ.pdb
     RDKit          3D

 25 24  0  0  1  0  0  0  0  0999 V2000
   16.7991   -9.8045  -15.0670 C   0  0  0  0  0  0  0  0  0  0  0  0
   17.1903  -11.2479  -15.0615 C   0  0  1  0  0  0  0  0  0  0  0  0
   16.2375  -12.0329  -14.4203 O   0  0  0  0  0  0  0  0  0  0  0  0
   17.3735  -11.7700  -16.4606 C   0  0  2  0  0  0  0  0  0  0  0  0
   17.6528  -13.1753  -16.4653 N   0  0  0  0  0  0  0  0  0  0  0  0
   18.4797  -11.0079  -17.1294 C   0  0  0  0  0  0  0  0  0  0  0  0
   19.6657  -11.2815  -16.7601 O   0  0  0  0  0  0  0  0  0  0  0  0
   18.2297  -10.0383  -18.1153 N   0  0  0  0  0  0  0  0  0  0  0  0
   19.3487   -9.2301  -18.7117 C   0  0  1  0  0  0  0  0  0  0  0  0
   18.7428   -8.6813  -19.9859 C   0  0  0  0  0  0  0  0  0  0  0  0
   19.6004   -7.7894  -20.7595 C   0  0  0  0  0  0  0  0  0  0  0  0
   19.1946   -6.9998  -21.6333 O   0  0  0  0  0  0  0  0  0  0  0  0
   19.4924   -8.1146  -17.7461 C   0  0  0  0  0  0  0  0  0  0  0  0
   18.3918   -7.6810  -17.2264 O   0  0  0  0  0  0  0  0  0  0  0  0
   21.0000   -7.7809  -20.5415 O   0  0  0  0  0  0  0  0  0  0  0  0
   22.5824   -7.5905  -12.8147 N   0  0  0  0  0  0  0  0  0  0  0  0
   22.1504   -6.2368  -12.8651 C   0  0  0  0  0  0  0  0  0  0  0  0
   22.3383   -5.5411  -11.8261 O   0  0  0  0  0  0  0  0  0  0  0  0
   21.5024   -5.6682  -14.0983 C   0  0  0  0  0  0  0  0  0  0  0  0
   21.4358   -6.7819  -15.1062 C   0  0  0  0  0  0  0  0  0  0  0  0
   20.5984   -6.4284  -16.3265 C   0  0  2  0  0  0  0  0  0  0  0  0
   20.6828   -7.4868  -17.3351 N   0  0  0  0  0  0  0  0  0  0  0  0
   21.2248   -5.2162  -16.8961 C   0  0  0  0  0  0  0  0  0  0  0  0
   22.0181   -5.2852  -17.8478 O   0  0  0  0  0  0  0  0  0  0  0  0
   20.9161   -3.9897  -16.3531 O   0  0  0  0  0  0  0  0  0  0  0  0
  2  1  1  6
  2  4  1  0
  3  2  1  0
  4  6  1  0
  4  5  1  1
  6  8  1  0
  6  7  2  0
  8  9  1  0
  9 10  1  6
  9 13  1  0
 11 10  1  0
 12 11  2  0
 13 14  2  0
 15 11  1  0
 16 17  1  0
 17 18  2  0
 17 19  1  0
 19 20  1  0
 21 20  1  1
 21 23  1  0
 22 21  1  0
 22 13  1  0
 23 25  1  0
 24 23  2  0
M  END
$$$$
