TDQ.pdb
     RDKit          3D

 25 24  0  0  1  0  0  0  0  0999 V2000
   19.2204  -14.1744  -15.2049 C   0  0  0  0  0  0  0  0  0  0  0  0
   18.3831  -13.9409  -16.4217 C   0  0  1  0  0  0  0  0  0  0  0  0
   17.7536  -12.7010  -16.3784 O   0  0  0  0  0  0  0  0  0  0  0  0
   19.2104  -14.0107  -17.6764 C   0  0  2  0  0  0  0  0  0  0  0  0
   19.8480  -15.2862  -17.8159 N   0  0  0  0  0  0  0  0  0  0  0  0
   20.2289  -12.9088  -17.6561 C   0  0  0  0  0  0  0  0  0  0  0  0
   21.1991  -13.0433  -16.8445 O   0  0  0  0  0  0  0  0  0  0  0  0
   20.1263  -11.7806  -18.4874 N   0  0  0  0  0  0  0  0  0  0  0  0
   21.1953  -10.7231  -18.4976 C   0  0  1  0  0  0  0  0  0  0  0  0
   21.0099  -10.0518  -19.8417 C   0  0  0  0  0  0  0  0  0  0  0  0
   21.8966   -8.9246  -20.1119 C   0  0  0  0  0  0  0  0  0  0  0  0
   21.5967   -7.9417  -20.8159 O   0  0  0  0  0  0  0  0  0  0  0  0
   20.7358   -9.7885  -17.4427 C   0  0  0  0  0  0  0  0  0  0  0  0
   19.4567   -9.7253  -17.2715 O   0  0  0  0  0  0  0  0  0  0  0  0
   23.2007   -8.8960  -19.5596 O   0  0  0  0  0  0  0  0  0  0  0  0
   22.7558   -4.9295  -14.0877 N   0  0  0  0  0  0  0  0  0  0  0  0
   22.1977   -5.8010  -13.1127 C   0  0  0  0  0  0  0  0  0  0  0  0
   22.6040   -5.6584  -11.9238 O   0  0  0  0  0  0  0  0  0  0  0  0
   21.1746   -6.8393  -13.4859 C   0  0  0  0  0  0  0  0  0  0  0  0
   21.8132   -7.7259  -14.5187 C   0  0  0  0  0  0  0  0  0  0  0  0
   20.8623   -8.1057  -15.6443 C   0  0  2  0  0  0  0  0  0  0  0  0
   21.5312   -8.9755  -16.6142 N   0  0  0  0  0  0  0  0  0  0  0  0
   20.5374   -6.8369  -16.3302 C   0  0  0  0  0  0  0  0  0  0  0  0
   21.1874   -6.4491  -17.3136 O   0  0  0  0  0  0  0  0  0  0  0  0
   19.4907   -6.0759  -15.8614 O   0  0  0  0  0  0  0  0  0  0  0  0
  2  1  1  1
  2  4  1  0
  3  2  1  0
  4  6  1  0
  4  5  1  1
  6  8  1  0
  6  7  2  0
  8  9  1  0
  9 10  1  6
  9 13  1  0
 11 10  1  0
 12 11  2  0
 13 14  2  0
 15 11  1  0
 16 17  1  0
 17 18  2  0
 17 19  1  0
 19 20  1  0
 21 20  1  1
 21 23  1  0
 22 21  1  0
 22 13  1  0
 23 25  1  0
 24 23  2  0
M  END
$$$$
