TDQ.pdb
     RDKit          3D

 25 24  0  0  1  0  0  0  0  0999 V2000
   15.0724   -9.2822  -14.6554 C   0  0  0  0  0  0  0  0  0  0  0  0
   15.5409   -9.7390  -16.0001 C   0  0  1  0  0  0  0  0  0  0  0  0
   16.1535   -8.7079  -16.7049 O   0  0  0  0  0  0  0  0  0  0  0  0
   16.5157  -10.8788  -15.8813 C   0  0  2  0  0  0  0  0  0  0  0  0
   15.9231  -12.0129  -15.2368 N   0  0  0  0  0  0  0  0  0  0  0  0
   17.7269  -10.4139  -15.1271 C   0  0  0  0  0  0  0  0  0  0  0  0
   17.6837  -10.5152  -13.8599 O   0  0  0  0  0  0  0  0  0  0  0  0
   18.8574   -9.8911  -15.7775 N   0  0  0  0  0  0  0  0  0  0  0  0
   20.0829   -9.4902  -15.0038 C   0  0  1  0  0  0  0  0  0  0  0  0
   21.2048  -10.1946  -15.7366 C   0  0  0  0  0  0  0  0  0  0  0  0
   22.5433   -9.9818  -15.1958 C   0  0  0  0  0  0  0  0  0  0  0  0
   22.7986   -9.2923  -14.1902 O   0  0  0  0  0  0  0  0  0  0  0  0
   20.1824   -8.0382  -15.2850 C   0  0  0  0  0  0  0  0  0  0  0  0
   19.7675   -7.6657  -16.4506 O   0  0  0  0  0  0  0  0  0  0  0  0
   23.6667  -10.5778  -15.8197 O   0  0  0  0  0  0  0  0  0  0  0  0
   17.7871   -4.2606  -16.3783 N   0  0  0  0  0  0  0  0  0  0  0  0
   18.5371   -3.1855  -15.8276 C   0  0  0  0  0  0  0  0  0  0  0  0
   18.3151   -2.0352  -16.3034 O   0  0  0  0  0  0  0  0  0  0  0  0
   19.5436   -3.4142  -14.7327 C   0  0  0  0  0  0  0  0  0  0  0  0
   19.4906   -4.8780  -14.3937 C   0  0  0  0  0  0  0  0  0  0  0  0
   20.6901   -5.6526  -14.9199 C   0  0  2  0  0  0  0  0  0  0  0  0
   20.6693   -7.0324  -14.4297 N   0  0  0  0  0  0  0  0  0  0  0  0
   21.8748   -4.9879  -14.3363 C   0  0  0  0  0  0  0  0  0  0  0  0
   22.3845   -5.3882  -13.2782 O   0  0  0  0  0  0  0  0  0  0  0  0
   22.4171   -3.9030  -14.9869 O   0  0  0  0  0  0  0  0  0  0  0  0
  2  1  1  1
  2  4  1  0
  3  2  1  0
  4  6  1  0
  4  5  1  1
  6  8  1  0
  6  7  2  0
  8  9  1  0
  9 10  1  6
  9 13  1  0
 11 10  1  0
 12 11  2  0
 13 14  2  0
 15 11  1  0
 16 17  1  0
 17 18  2  0
 17 19  1  0
 19 20  1  0
 21 20  1  1
 21 23  1  0
 22 21  1  0
 22 13  1  0
 23 25  1  0
 24 23  2  0
M  END
$$$$
