FAH.pdb
     RDKit          3D

 27 28  0  0  1  0  0  0  0  0999 V2000
   24.8399  -34.2323    0.0226 N   0  0  0  0  0  0  0  0  0  0  0  0
   26.2355  -34.0442    0.3672 C   0  0  1  0  0  0  0  0  0  0  0  0
   26.6015  -32.6062    0.0715 C   0  0  0  0  0  0  0  0  0  0  0  0
   26.4047  -32.3702   -1.3671 C   0  0  0  0  0  0  0  0  0  0  0  0
   25.3060  -31.6875   -1.8242 C   0  0  0  0  0  0  0  0  0  0  0  0
   25.1044  -31.4554   -3.1829 C   0  0  0  0  0  0  0  0  0  0  0  0
   26.0426  -31.9314   -4.0701 C   0  0  0  0  0  0  0  0  0  0  0  0
   27.1762  -32.6321   -3.6430 C   0  0  0  0  0  0  0  0  0  0  0  0
   27.3274  -32.8361   -2.2661 C   0  0  0  0  0  0  0  0  0  0  0  0
   26.4848  -34.3926    1.7985 C   0  0  0  0  0  0  0  0  0  0  0  0
   25.7088  -34.0365    2.7206 O   0  0  0  0  0  0  0  0  0  0  0  0
   29.0132  -36.5945    3.6007 C   0  0  0  0  0  0  0  0  0  0  0  0
   27.9280  -35.5768    3.5025 C   0  0  2  0  0  0  0  0  0  0  0  0
   27.6269  -35.1507    2.1701 N   0  0  0  0  0  0  0  0  0  0  0  0
   28.2506  -34.4137    4.3803 C   0  0  0  0  0  0  0  0  0  0  0  0
   28.7371  -33.3482    3.9320 O   0  0  0  0  0  0  0  0  0  0  0  0
   28.0047  -34.4989    5.7732 N   0  0  0  0  0  0  0  0  0  0  0  0
   28.3290  -33.3025    6.6060 C   0  0  1  0  0  0  0  0  0  0  0  0
   27.2255  -33.2551    7.6226 C   0  0  0  0  0  0  0  0  0  0  0  0
   26.0390  -32.5675    7.0936 C   0  0  0  0  0  0  0  0  0  0  0  0
   25.8666  -31.5897    6.1435 C   0  0  0  0  0  0  0  0  0  0  0  0
   24.5409  -31.3285    5.9502 N   0  0  0  0  0  0  0  0  0  0  0  0
   23.9092  -32.1520    6.7847 C   0  0  0  0  0  0  0  0  0  0  0  0
   24.7749  -32.8989    7.4753 N   0  0  0  0  0  0  0  0  0  0  0  0
   29.5748  -33.6722    7.3616 C   0  0  0  0  0  0  0  0  0  0  0  0
   30.4722  -32.7693    7.8403 O   0  0  0  0  0  0  0  0  0  0  0  0
   29.7727  -34.9246    7.5505 O   0  0  0  0  0  0  0  0  0  0  0  0
  2  1  1  1
  3  4  1  0
  3  2  1  0
  4  5  2  0
  4  9  1  0
  5  6  1  0
  6  7  2  0
  8  7  1  0
  9  8  2  0
 10 11  2  0
 10  2  1  0
 13 12  1  6
 13 14  1  0
 14 10  1  0
 15 13  1  0
 15 17  1  0
 16 15  2  0
 18 17  1  0
 18 25  1  0
 18 19  1  1
 20 21  2  0
 20 19  1  0
 22 21  1  0
 23 24  2  0
 23 22  1  0
 24 20  1  0
 25 26  1  0
 27 25  2  0
M  END
$$$$
