FAH.pdb
     RDKit          3D

 27 28  0  0  1  0  0  0  0  0999 V2000
   31.1411  -23.3925  -14.2219 N   0  0  0  0  0  0  0  0  0  0  0  0
   30.0497  -22.4810  -13.9395 C   0  0  1  0  0  0  0  0  0  0  0  0
   30.6024  -21.3216  -13.1397 C   0  0  0  0  0  0  0  0  0  0  0  0
   31.0026  -21.8270  -11.8175 C   0  0  0  0  0  0  0  0  0  0  0  0
   32.2899  -22.2389  -11.5820 C   0  0  0  0  0  0  0  0  0  0  0  0
   32.6856  -22.7201  -10.3360 C   0  0  0  0  0  0  0  0  0  0  0  0
   31.7461  -22.7749   -9.3318 C   0  0  0  0  0  0  0  0  0  0  0  0
   30.4236  -22.3641   -9.5328 C   0  0  0  0  0  0  0  0  0  0  0  0
   30.0821  -21.8893  -10.8050 C   0  0  0  0  0  0  0  0  0  0  0  0
   29.3987  -22.0182  -15.2021 C   0  0  0  0  0  0  0  0  0  0  0  0
   29.9795  -22.0726  -16.3152 O   0  0  0  0  0  0  0  0  0  0  0  0
   26.7889  -23.1551  -16.4591 C   0  0  0  0  0  0  0  0  0  0  0  0
   27.0953  -21.7194  -16.1988 C   0  0  2  0  0  0  0  0  0  0  0  0
   28.0794  -21.4925  -15.1852 N   0  0  0  0  0  0  0  0  0  0  0  0
   25.8321  -20.9840  -15.8976 C   0  0  0  0  0  0  0  0  0  0  0  0
   24.8448  -20.9996  -16.6709 O   0  0  0  0  0  0  0  0  0  0  0  0
   25.7268  -20.2357  -14.6988 N   0  0  0  0  0  0  0  0  0  0  0  0
   24.4521  -19.4967  -14.4559 C   0  0  1  0  0  0  0  0  0  0  0  0
   24.1247  -18.8856  -15.7874 C   0  0  0  0  0  0  0  0  0  0  0  0
   22.8552  -18.1463  -15.7400 C   0  0  0  0  0  0  0  0  0  0  0  0
   22.0220  -17.7771  -14.7113 C   0  0  0  0  0  0  0  0  0  0  0  0
   20.9816  -17.0251  -15.1751 N   0  0  0  0  0  0  0  0  0  0  0  0
   21.1868  -16.9376  -16.4879 C   0  0  0  0  0  0  0  0  0  0  0  0
   22.2925  -17.5940  -16.8498 N   0  0  0  0  0  0  0  0  0  0  0  0
   23.4164  -20.5605  -14.2207 C   0  0  0  0  0  0  0  0  0  0  0  0
   22.5900  -20.5946  -13.1410 O   0  0  0  0  0  0  0  0  0  0  0  0
   23.3321  -21.4769  -15.1133 O   0  0  0  0  0  0  0  0  0  0  0  0
  2  1  1  6
  3  4  1  0
  3  2  1  0
  4  5  2  0
  4  9  1  0
  5  6  1  0
  6  7  2  0
  8  7  1  0
  9  8  2  0
 10 11  2  0
 10  2  1  0
 13 12  1  1
 13 14  1  0
 14 10  1  0
 15 13  1  0
 15 17  1  0
 16 15  2  0
 18 17  1  0
 18 25  1  0
 18 19  1  6
 20 21  2  0
 20 19  1  0
 22 21  1  0
 23 24  2  0
 23 22  1  0
 24 20  1  0
 25 26  1  0
 27 25  2  0
M  END
$$$$
