FAH.pdb
     RDKit          3D

 27 28  0  0  1  0  0  0  0  0999 V2000
   22.6519  -20.3396  -14.5852 N   0  0  0  0  0  0  0  0  0  0  0  0
   22.6177  -19.4246  -15.7093 C   0  0  1  0  0  0  0  0  0  0  0  0
   21.2742  -19.5686  -16.3901 C   0  0  0  0  0  0  0  0  0  0  0  0
   21.2721  -20.8371  -17.1349 C   0  0  0  0  0  0  0  0  0  0  0  0
   22.1546  -21.0504  -18.1635 C   0  0  0  0  0  0  0  0  0  0  0  0
   22.1661  -22.2456  -18.8791 C   0  0  0  0  0  0  0  0  0  0  0  0
   21.2616  -23.2219  -18.5287 C   0  0  0  0  0  0  0  0  0  0  0  0
   20.3458  -23.0422  -17.4859 C   0  0  0  0  0  0  0  0  0  0  0  0
   20.3795  -21.8212  -16.8013 C   0  0  0  0  0  0  0  0  0  0  0  0
   22.8610  -18.0196  -15.2631 C   0  0  0  0  0  0  0  0  0  0  0  0
   22.3963  -17.5677  -14.1865 O   0  0  0  0  0  0  0  0  0  0  0  0
   25.3792  -15.4146  -15.7918 C   0  0  0  0  0  0  0  0  0  0  0  0
   23.9349  -15.7761  -15.7127 C   0  0  2  0  0  0  0  0  0  0  0  0
   23.6389  -17.1336  -16.0549 N   0  0  0  0  0  0  0  0  0  0  0  0
   23.1343  -14.8253  -16.5386 C   0  0  0  0  0  0  0  0  0  0  0  0
   22.0931  -15.1739  -17.1448 O   0  0  0  0  0  0  0  0  0  0  0  0
   23.5509  -13.4758  -16.6533 N   0  0  0  0  0  0  0  0  0  0  0  0
   22.7767  -12.5899  -17.5731 C   0  0  1  0  0  0  0  0  0  0  0  0
   21.4683  -12.3840  -16.8665 C   0  0  0  0  0  0  0  0  0  0  0  0
   20.4307  -13.2855  -17.3872 C   0  0  0  0  0  0  0  0  0  0  0  0
   20.4586  -14.3371  -18.2715 C   0  0  0  0  0  0  0  0  0  0  0  0
   19.2264  -14.9145  -18.3785 N   0  0  0  0  0  0  0  0  0  0  0  0
   18.4512  -14.2114  -17.5552 C   0  0  0  0  0  0  0  0  0  0  0  0
   19.1411  -13.2385  -16.9537 N   0  0  0  0  0  0  0  0  0  0  0  0
   23.4837  -11.2639  -17.5336 C   0  0  0  0  0  0  0  0  0  0  0  0
   24.5935  -11.0136  -16.7883 O   0  0  0  0  0  0  0  0  0  0  0  0
   22.9845  -10.3333  -18.2605 O   0  0  0  0  0  0  0  0  0  0  0  0
  2  1  1  1
  3  4  1  0
  3  2  1  0
  4  5  2  0
  4  9  1  0
  5  6  1  0
  6  7  2  0
  8  7  1  0
  9  8  2  0
 10 11  2  0
 10  2  1  0
 13 12  1  6
 13 14  1  0
 14 10  1  0
 15 13  1  0
 15 17  1  0
 16 15  2  0
 18 17  1  0
 18 25  1  0
 18 19  1  1
 20 21  2  0
 20 19  1  0
 22 21  1  0
 23 24  2  0
 23 22  1  0
 24 20  1  0
 25 26  1  0
 27 25  2  0
M  END
$$$$
