FAH.pdb
     RDKit          3D

 27 28  0  0  1  0  0  0  0  0999 V2000
   25.6826   -9.5050  -19.6297 N   0  0  0  0  0  0  0  0  0  0  0  0
   24.7460   -9.1837  -18.5707 C   0  0  1  0  0  0  0  0  0  0  0  0
   25.4960   -8.4292  -17.4948 C   0  0  0  0  0  0  0  0  0  0  0  0
   26.4757   -9.3456  -16.8913 C   0  0  0  0  0  0  0  0  0  0  0  0
   27.7990   -9.2966  -17.2503 C   0  0  0  0  0  0  0  0  0  0  0  0
   28.7397  -10.1569  -16.6887 C   0  0  0  0  0  0  0  0  0  0  0  0
   28.3091  -11.0701  -15.7534 C   0  0  0  0  0  0  0  0  0  0  0  0
   26.9683  -11.1510  -15.3611 C   0  0  0  0  0  0  0  0  0  0  0  0
   26.0668  -10.2617  -15.9585 C   0  0  0  0  0  0  0  0  0  0  0  0
   23.5940   -8.3915  -19.0974 C   0  0  0  0  0  0  0  0  0  0  0  0
   23.7506   -7.4097  -19.8660 O   0  0  0  0  0  0  0  0  0  0  0  0
   20.0041   -8.9412  -19.6960 C   0  0  0  0  0  0  0  0  0  0  0  0
   21.0924   -8.0471  -19.2068 C   0  0  2  0  0  0  0  0  0  0  0  0
   22.2612   -8.7281  -18.7404 N   0  0  0  0  0  0  0  0  0  0  0  0
   20.5533   -7.1258  -18.1639 C   0  0  0  0  0  0  0  0  0  0  0  0
   19.5950   -6.3475  -18.3853 O   0  0  0  0  0  0  0  0  0  0  0  0
   21.1331   -7.1166  -16.8709 N   0  0  0  0  0  0  0  0  0  0  0  0
   20.5989   -6.1338  -15.8815 C   0  0  1  0  0  0  0  0  0  0  0  0
   19.2439   -6.6733  -15.5259 C   0  0  0  0  0  0  0  0  0  0  0  0
   19.3313   -8.0511  -15.0216 C   0  0  0  0  0  0  0  0  0  0  0  0
   20.3833   -8.9128  -14.8229 C   0  0  0  0  0  0  0  0  0  0  0  0
   19.9557  -10.0788  -14.2566 N   0  0  0  0  0  0  0  0  0  0  0  0
   18.6414   -9.9215  -14.1107 C   0  0  0  0  0  0  0  0  0  0  0  0
   18.2446   -8.7264  -14.5565 N   0  0  0  0  0  0  0  0  0  0  0  0
   21.4499   -6.3053  -14.6543 C   0  0  0  0  0  0  0  0  0  0  0  0
   21.2463   -5.6391  -13.4862 O   0  0  0  0  0  0  0  0  0  0  0  0
   22.4183   -7.1402  -14.7480 O   0  0  0  0  0  0  0  0  0  0  0  0
  2  1  1  6
  3  4  1  0
  3  2  1  0
  4  5  2  0
  4  9  1  0
  5  6  1  0
  6  7  2  0
  8  7  1  0
  9  8  2  0
 10 11  2  0
 10  2  1  0
 13 12  1  1
 13 14  1  0
 14 10  1  0
 15 13  1  0
 15 17  1  0
 16 15  2  0
 18 17  1  0
 18 25  1  0
 18 19  1  1
 20 21  2  0
 20 19  1  0
 22 21  1  0
 23 24  2  0
 23 22  1  0
 24 20  1  0
 25 26  1  0
 27 25  2  0
M  END
$$$$
