FAH.pdb
     RDKit          3D

 27 28  0  0  1  0  0  0  0  0999 V2000
   26.5308  -18.5483   -7.8932 N   0  0  0  0  0  0  0  0  0  0  0  0
   27.1571  -19.7073   -8.4984 C   0  0  1  0  0  0  0  0  0  0  0  0
   26.9790  -20.8801   -7.5591 C   0  0  0  0  0  0  0  0  0  0  0  0
   27.7388  -20.6023   -6.3306 C   0  0  0  0  0  0  0  0  0  0  0  0
   27.0940  -20.3643   -5.1432 C   0  0  0  0  0  0  0  0  0  0  0  0
   27.7982  -20.0996   -3.9708 C   0  0  0  0  0  0  0  0  0  0  0  0
   29.1732  -20.0813   -4.0282 C   0  0  0  0  0  0  0  0  0  0  0  0
   29.8671  -20.3191   -5.2199 C   0  0  0  0  0  0  0  0  0  0  0  0
   29.1080  -20.5796   -6.3672 C   0  0  0  0  0  0  0  0  0  0  0  0
   26.5752  -19.9876   -9.8456 C   0  0  0  0  0  0  0  0  0  0  0  0
   25.3372  -19.9629  -10.0599 O   0  0  0  0  0  0  0  0  0  0  0  0
   28.0625  -20.7008  -13.2864 C   0  0  0  0  0  0  0  0  0  0  0  0
   27.0063  -20.2896  -12.3178 C   0  0  2  0  0  0  0  0  0  0  0  0
   27.4169  -20.2965  -10.9471 N   0  0  0  0  0  0  0  0  0  0  0  0
   25.7877  -21.1273  -12.5194 C   0  0  0  0  0  0  0  0  0  0  0  0
   25.6805  -22.2828  -12.0438 O   0  0  0  0  0  0  0  0  0  0  0  0
   24.7028  -20.6143  -13.2730 N   0  0  0  0  0  0  0  0  0  0  0  0
   23.4858  -21.4702  -13.4019 C   0  0  1  0  0  0  0  0  0  0  0  0
   22.3500  -20.5394  -13.0903 C   0  0  0  0  0  0  0  0  0  0  0  0
   22.0060  -20.5736  -11.6617 C   0  0  0  0  0  0  0  0  0  0  0  0
   22.5296  -21.2502  -10.5862 C   0  0  0  0  0  0  0  0  0  0  0  0
   21.9005  -20.8867   -9.4306 N   0  0  0  0  0  0  0  0  0  0  0  0
   20.9948  -19.9862   -9.8079 C   0  0  0  0  0  0  0  0  0  0  0  0
   21.0364  -19.7814  -11.1272 N   0  0  0  0  0  0  0  0  0  0  0  0
   23.3761  -21.7839  -14.8679 C   0  0  0  0  0  0  0  0  0  0  0  0
   22.6421  -22.8104  -15.3751 O   0  0  0  0  0  0  0  0  0  0  0  0
   24.0259  -21.0155  -15.6623 O   0  0  0  0  0  0  0  0  0  0  0  0
  2  1  1  1
  3  4  1  0
  3  2  1  0
  4  5  2  0
  4  9  1  0
  5  6  1  0
  6  7  2  0
  8  7  1  0
  9  8  2  0
 10 11  2  0
 10  2  1  0
 13 12  1  6
 13 14  1  0
 14 10  1  0
 15 13  1  0
 15 17  1  0
 16 15  2  0
 18 17  1  0
 18 25  1  0
 18 19  1  6
 20 21  2  0
 20 19  1  0
 22 21  1  0
 23 24  2  0
 23 22  1  0
 24 20  1  0
 25 26  1  0
 27 25  2  0
M  END
$$$$
