FAH.pdb
     RDKit          3D

 27 28  0  0  1  0  0  0  0  0999 V2000
   28.1337  -21.5110  -15.1076 N   0  0  0  0  0  0  0  0  0  0  0  0
   27.0554  -21.5783  -14.1408 C   0  0  1  0  0  0  0  0  0  0  0  0
   27.1938  -20.4002  -13.2016 C   0  0  0  0  0  0  0  0  0  0  0  0
   28.2800  -20.6949  -12.2544 C   0  0  0  0  0  0  0  0  0  0  0  0
   28.0380  -21.4034  -11.1048 C   0  0  0  0  0  0  0  0  0  0  0  0
   29.0550  -21.6912  -10.1973 C   0  0  0  0  0  0  0  0  0  0  0  0
   30.3253  -21.2441  -10.4810 C   0  0  0  0  0  0  0  0  0  0  0  0
   30.6121  -20.5186  -11.6428 C   0  0  0  0  0  0  0  0  0  0  0  0
   29.5513  -20.2586  -12.5189 C   0  0  0  0  0  0  0  0  0  0  0  0
   25.7257  -21.5861  -14.8221 C   0  0  0  0  0  0  0  0  0  0  0  0
   25.3614  -20.6626  -15.5925 O   0  0  0  0  0  0  0  0  0  0  0  0
   22.7854  -24.0102  -14.9377 C   0  0  0  0  0  0  0  0  0  0  0  0
   23.4834  -22.7083  -15.1401 C   0  0  2  0  0  0  0  0  0  0  0  0
   24.8144  -22.6560  -14.6175 N   0  0  0  0  0  0  0  0  0  0  0  0
   22.6460  -21.6004  -14.5935 C   0  0  0  0  0  0  0  0  0  0  0  0
   22.9734  -20.3945  -14.7017 O   0  0  0  0  0  0  0  0  0  0  0  0
   21.4339  -21.9036  -13.9251 N   0  0  0  0  0  0  0  0  0  0  0  0
   20.6379  -20.7607  -13.3864 C   0  0  1  0  0  0  0  0  0  0  0  0
   21.6715  -19.7332  -13.0264 C   0  0  0  0  0  0  0  0  0  0  0  0
   22.3631  -20.0838  -11.7778 C   0  0  0  0  0  0  0  0  0  0  0  0
   22.1271  -21.0277  -10.8073 C   0  0  0  0  0  0  0  0  0  0  0  0
   23.1112  -21.0086   -9.8616 N   0  0  0  0  0  0  0  0  0  0  0  0
   23.9460  -20.0515  -10.2621 C   0  0  0  0  0  0  0  0  0  0  0  0
   23.5257  -19.4865  -11.3972 N   0  0  0  0  0  0  0  0  0  0  0  0
   19.8933  -20.2052  -14.5681 C   0  0  0  0  0  0  0  0  0  0  0  0
   19.2268  -20.9674  -15.4762 O   0  0  0  0  0  0  0  0  0  0  0  0
   19.9059  -18.9298  -14.6978 O   0  0  0  0  0  0  0  0  0  0  0  0
  2  1  1  6
  3  4  1  0
  3  2  1  0
  4  5  2  0
  4  9  1  0
  5  6  1  0
  6  7  2  0
  8  7  1  0
  9  8  2  0
 10 11  2  0
 10  2  1  0
 13 12  1  1
 13 14  1  0
 14 10  1  0
 15 13  1  0
 15 17  1  0
 16 15  2  0
 18 17  1  0
 18 25  1  0
 18 19  1  6
 20 21  2  0
 20 19  1  0
 22 21  1  0
 23 24  2  0
 23 22  1  0
 24 20  1  0
 25 26  1  0
 27 25  2  0
M  END
$$$$
