IEH.pdb
     RDKit          3D

 28 28  0  0  1  0  0  0  0  0999 V2000
   27.9888  -12.4458  -16.5628 C   0  0  0  0  0  0  0  0  0  0  0  0
   26.5365  -12.2304  -16.2755 C   0  0  0  0  0  0  0  0  0  0  0  0
   26.1310  -10.8064  -16.4638 C   0  0  2  0  0  0  0  0  0  0  0  0
   26.9303   -9.8405  -15.6521 C   0  0  0  0  0  0  0  0  0  0  0  0
   24.6714  -10.6315  -16.1204 C   0  0  2  0  0  0  0  0  0  0  0  0
   23.9635  -11.6812  -16.8621 N   0  0  0  0  0  0  0  0  0  0  0  0
   24.1199   -9.3203  -16.5169 C   0  0  0  0  0  0  0  0  0  0  0  0
   24.5334   -8.2204  -16.0696 O   0  0  0  0  0  0  0  0  0  0  0  0
   23.0556   -9.2800  -17.4620 N   0  0  0  0  0  0  0  0  0  0  0  0
   22.4123   -8.0569  -17.8364 C   0  0  1  0  0  0  0  0  0  0  0  0
   21.5964   -8.0676  -19.0612 C   0  0  0  0  0  0  0  0  0  0  0  0
   20.9428   -6.8721  -19.5683 C   0  0  0  0  0  0  0  0  0  0  0  0
   19.5359   -6.8575  -19.8919 C   0  0  0  0  0  0  0  0  0  0  0  0
   18.8268   -7.8095  -20.2960 O   0  0  0  0  0  0  0  0  0  0  0  0
   21.7183   -7.4382  -16.6644 C   0  0  0  0  0  0  0  0  0  0  0  0
   20.8569   -8.1134  -16.0717 O   0  0  0  0  0  0  0  0  0  0  0  0
   18.8350   -5.6412  -19.7496 O   0  0  0  0  0  0  0  0  0  0  0  0
   22.0049   -6.1506  -16.2266 N   0  0  0  0  0  0  0  0  0  0  0  0
   21.3543   -5.4749  -15.1113 C   0  0  1  0  0  0  0  0  0  0  0  0
   21.8497   -5.9165  -13.7967 C   0  0  0  0  0  0  0  0  0  0  0  0
   21.1173   -7.1108  -13.3155 C   0  0  0  0  0  0  0  0  0  0  0  0
   20.1655   -7.9063  -13.9052 C   0  0  0  0  0  0  0  0  0  0  0  0
   19.8328   -8.9546  -13.1085 N   0  0  0  0  0  0  0  0  0  0  0  0
   20.5809   -8.8216  -12.0080 C   0  0  0  0  0  0  0  0  0  0  0  0
   21.3525   -7.7346  -12.1066 N   0  0  0  0  0  0  0  0  0  0  0  0
   21.6792   -4.0255  -15.3566 C   0  0  0  0  0  0  0  0  0  0  0  0
   22.2825   -3.6654  -16.3586 O   0  0  0  0  0  0  0  0  0  0  0  0
   21.2909   -3.0827  -14.4351 O   0  0  0  0  0  0  0  0  0  0  0  0
  2  1  1  0
  3  2  1  0
  3  4  1  1
  5  3  1  0
  5  6  1  6
  7  5  1  0
  7  8  2  0
  9  7  1  0
 10  9  1  0
 10 11  1  6
 12 11  1  0
 12 13  1  0
 13 17  1  0
 13 14  2  0
 15 10  1  0
 16 15  2  0
 18 15  1  0
 19 18  1  0
 19 26  1  0
 19 20  1  1
 21 25  1  0
 21 20  1  0
 22 21  2  0
 23 22  1  0
 23 24  1  0
 24 25  2  0
 26 28  1  0
 27 26  2  0
M  END
$$$$
