IEH.pdb
     RDKit          3D

 28 28  0  0  1  0  0  0  0  0999 V2000
   27.7980  -10.6157  -15.7465 C   0  0  0  0  0  0  0  0  0  0  0  0
   26.4872  -11.3043  -15.9605 C   0  0  0  0  0  0  0  0  0  0  0  0
   25.3669  -10.3358  -16.1472 C   0  0  2  0  0  0  0  0  0  0  0  0
   25.1849   -9.3973  -14.9998 C   0  0  0  0  0  0  0  0  0  0  0  0
   24.0712  -11.0767  -16.3736 C   0  0  2  0  0  0  0  0  0  0  0  0
   24.3579  -12.0601  -17.4242 N   0  0  0  0  0  0  0  0  0  0  0  0
   22.9629  -10.2123  -16.8265 C   0  0  0  0  0  0  0  0  0  0  0  0
   23.0178   -9.4756  -17.8439 O   0  0  0  0  0  0  0  0  0  0  0  0
   21.7515  -10.2000  -16.0782 N   0  0  0  0  0  0  0  0  0  0  0  0
   20.6128   -9.4309  -16.4808 C   0  0  1  0  0  0  0  0  0  0  0  0
   19.2912  -10.0693  -16.3723 C   0  0  0  0  0  0  0  0  0  0  0  0
   19.0668  -11.4565  -16.7452 C   0  0  0  0  0  0  0  0  0  0  0  0
   18.2520  -12.3350  -15.9398 C   0  0  0  0  0  0  0  0  0  0  0  0
   18.4057  -12.6400  -14.7333 O   0  0  0  0  0  0  0  0  0  0  0  0
   20.6605   -8.0572  -15.8901 C   0  0  0  0  0  0  0  0  0  0  0  0
   21.2729   -7.9030  -14.8175 O   0  0  0  0  0  0  0  0  0  0  0  0
   17.1350  -12.9462  -16.5476 O   0  0  0  0  0  0  0  0  0  0  0  0
   20.0494   -6.9665  -16.4970 N   0  0  0  0  0  0  0  0  0  0  0  0
   20.1193   -5.5898  -16.0238 C   0  0  1  0  0  0  0  0  0  0  0  0
   21.4686   -5.0089  -16.1262 C   0  0  0  0  0  0  0  0  0  0  0  0
   21.4855   -3.5971  -15.6780 C   0  0  0  0  0  0  0  0  0  0  0  0
   20.6507   -2.5383  -15.9399 C   0  0  0  0  0  0  0  0  0  0  0  0
   21.0130   -1.4354  -15.2351 N   0  0  0  0  0  0  0  0  0  0  0  0
   22.0835   -1.8003  -14.5213 C   0  0  0  0  0  0  0  0  0  0  0  0
   22.3838   -3.0794  -14.7664 N   0  0  0  0  0  0  0  0  0  0  0  0
   19.1481   -4.8723  -16.9230 C   0  0  0  0  0  0  0  0  0  0  0  0
   18.9046   -5.2747  -18.0528 O   0  0  0  0  0  0  0  0  0  0  0  0
   18.5195   -3.7384  -16.4672 O   0  0  0  0  0  0  0  0  0  0  0  0
  2  1  1  0
  3  2  1  0
  3  4  1  1
  5  3  1  0
  5  6  1  6
  7  5  1  0
  7  8  2  0
  9  7  1  0
 10  9  1  0
 10 11  1  1
 12 11  1  0
 12 13  1  0
 13 17  1  0
 13 14  2  0
 15 10  1  0
 16 15  2  0
 18 15  1  0
 19 18  1  0
 19 26  1  0
 19 20  1  6
 21 25  1  0
 21 20  1  0
 22 21  2  0
 23 22  1  0
 23 24  1  0
 24 25  2  0
 26 28  1  0
 27 26  2  0
M  END
$$$$
