IEH.pdb
     RDKit          3D

 28 28  0  0  1  0  0  0  0  0999 V2000
   18.6066  -11.2027    4.5702 C   0  0  0  0  0  0  0  0  0  0  0  0
   17.6895  -12.3832    4.5103 C   0  0  0  0  0  0  0  0  0  0  0  0
   18.1942  -13.5294    5.3222 C   0  0  2  0  0  0  0  0  0  0  0  0
   19.5616  -13.9869    4.9331 C   0  0  0  0  0  0  0  0  0  0  0  0
   17.2465  -14.6996    5.2155 C   0  0  2  0  0  0  0  0  0  0  0  0
   16.0352  -14.2929    5.9369 N   0  0  0  0  0  0  0  0  0  0  0  0
   17.7635  -15.9414    5.8247 C   0  0  0  0  0  0  0  0  0  0  0  0
   18.8311  -16.5046    5.4726 O   0  0  0  0  0  0  0  0  0  0  0  0
   17.0216  -16.5515    6.8759 N   0  0  0  0  0  0  0  0  0  0  0  0
   17.4471  -17.7642    7.5071 C   0  0  1  0  0  0  0  0  0  0  0  0
   17.5198  -17.7737    8.9770 C   0  0  0  0  0  0  0  0  0  0  0  0
   18.4541  -16.9375    9.7128 C   0  0  0  0  0  0  0  0  0  0  0  0
   18.5283  -16.9720   11.1542 C   0  0  0  0  0  0  0  0  0  0  0  0
   17.6446  -17.3400   11.9642 O   0  0  0  0  0  0  0  0  0  0  0  0
   16.7231  -18.9440    6.9394 C   0  0  0  0  0  0  0  0  0  0  0  0
   15.5175  -18.8111    6.6601 O   0  0  0  0  0  0  0  0  0  0  0  0
   19.7261  -16.5472   11.7671 O   0  0  0  0  0  0  0  0  0  0  0  0
   17.3505  -20.1644    6.7191 N   0  0  0  0  0  0  0  0  0  0  0  0
   16.7104  -21.3553    6.1750 C   0  0  1  0  0  0  0  0  0  0  0  0
   16.9713  -21.5493    4.7388 C   0  0  0  0  0  0  0  0  0  0  0  0
   16.0980  -20.6874    3.9088 C   0  0  0  0  0  0  0  0  0  0  0  0
   14.7395  -20.4851    3.9055 C   0  0  0  0  0  0  0  0  0  0  0  0
   14.3832  -19.5270    3.0113 N   0  0  0  0  0  0  0  0  0  0  0  0
   15.5250  -19.1196    2.4466 C   0  0  0  0  0  0  0  0  0  0  0  0
   16.5577  -19.7932    2.9626 N   0  0  0  0  0  0  0  0  0  0  0  0
   17.3119  -22.4673    6.9926 C   0  0  0  0  0  0  0  0  0  0  0  0
   18.1858  -22.2516    7.8217 O   0  0  0  0  0  0  0  0  0  0  0  0
   16.8717  -23.7555    6.8048 O   0  0  0  0  0  0  0  0  0  0  0  0
  2  1  1  0
  3  2  1  0
  3  4  1  6
  5  3  1  0
  5  6  1  1
  7  5  1  0
  7  8  2  0
  9  7  1  0
 10  9  1  0
 10 11  1  1
 12 11  1  0
 12 13  1  0
 13 17  1  0
 13 14  2  0
 15 10  1  0
 16 15  2  0
 18 15  1  0
 19 18  1  0
 19 26  1  0
 19 20  1  6
 21 25  1  0
 21 20  1  0
 22 21  2  0
 23 22  1  0
 23 24  1  0
 24 25  2  0
 26 28  1  0
 27 26  2  0
M  END
$$$$
