IEH.pdb
     RDKit          3D

 28 28  0  0  1  0  0  0  0  0999 V2000
   26.3601  -13.3060  -16.7894 C   0  0  0  0  0  0  0  0  0  0  0  0
   24.9342  -12.9194  -16.5534 C   0  0  0  0  0  0  0  0  0  0  0  0
   24.8069  -11.5206  -16.0486 C   0  0  2  0  0  0  0  0  0  0  0  0
   25.5381  -11.2731  -14.7700 C   0  0  0  0  0  0  0  0  0  0  0  0
   23.3523  -11.1708  -15.8468 C   0  0  2  0  0  0  0  0  0  0  0  0
   22.7105  -11.3883  -17.1483 N   0  0  0  0  0  0  0  0  0  0  0  0
   23.1284   -9.7693  -15.4390 C   0  0  0  0  0  0  0  0  0  0  0  0
   23.3081   -9.3408  -14.2707 O   0  0  0  0  0  0  0  0  0  0  0  0
   22.6825   -8.8328  -16.4146 N   0  0  0  0  0  0  0  0  0  0  0  0
   22.4186   -7.4626  -16.0936 C   0  0  1  0  0  0  0  0  0  0  0  0
   23.3391   -6.4502  -16.6353 C   0  0  0  0  0  0  0  0  0  0  0  0
   23.1743   -5.0304  -16.3694 C   0  0  0  0  0  0  0  0  0  0  0  0
   24.0726   -4.0464  -16.9252 C   0  0  0  0  0  0  0  0  0  0  0  0
   23.9946   -2.7974  -16.8454 O   0  0  0  0  0  0  0  0  0  0  0  0
   20.9757   -7.1320  -16.3107 C   0  0  0  0  0  0  0  0  0  0  0  0
   20.4292   -7.5518  -17.3471 O   0  0  0  0  0  0  0  0  0  0  0  0
   25.1891   -4.5051  -17.6559 O   0  0  0  0  0  0  0  0  0  0  0  0
   20.2412   -6.3807  -15.4009 N   0  0  0  0  0  0  0  0  0  0  0  0
   18.8449   -5.9947  -15.5591 C   0  0  1  0  0  0  0  0  0  0  0  0
   17.9162   -6.8556  -14.8075 C   0  0  0  0  0  0  0  0  0  0  0  0
   17.8064   -8.1992  -15.4216 C   0  0  0  0  0  0  0  0  0  0  0  0
   18.2611   -9.4328  -15.0241 C   0  0  0  0  0  0  0  0  0  0  0  0
   17.8487  -10.4099  -15.8724 N   0  0  0  0  0  0  0  0  0  0  0  0
   17.1269   -9.7896  -16.8119 C   0  0  0  0  0  0  0  0  0  0  0  0
   17.0864   -8.4764  -16.5665 N   0  0  0  0  0  0  0  0  0  0  0  0
   18.8219   -4.5829  -15.0366 C   0  0  0  0  0  0  0  0  0  0  0  0
   17.7853   -3.9340  -14.9911 O   0  0  0  0  0  0  0  0  0  0  0  0
   19.9910   -4.0067  -14.6008 O   0  0  0  0  0  0  0  0  0  0  0  0
  2  1  1  0
  3  2  1  0
  3  4  1  1
  5  3  1  0
  5  6  1  6
  7  5  1  0
  7  8  2  0
  9  7  1  0
 10  9  1  0
 10 11  1  6
 12 11  1  0
 12 13  1  0
 13 17  1  0
 13 14  2  0
 15 10  1  0
 16 15  2  0
 18 15  1  0
 19 18  1  0
 19 26  1  0
 19 20  1  1
 21 25  1  0
 21 20  1  0
 22 21  2  0
 23 22  1  0
 23 24  1  0
 24 25  2  0
 26 28  1  0
 27 26  2  0
M  END
$$$$
