IEH.pdb
     RDKit          3D

 28 28  0  0  1  0  0  0  0  0999 V2000
   27.5974  -35.5377   -6.0245 C   0  0  0  0  0  0  0  0  0  0  0  0
   27.7184  -34.5687   -4.8911 C   0  0  0  0  0  0  0  0  0  0  0  0
   27.6947  -35.2502   -3.5635 C   0  0  2  0  0  0  0  0  0  0  0  0
   26.4967  -36.1168   -3.3529 C   0  0  0  0  0  0  0  0  0  0  0  0
   27.7512  -34.2287   -2.4534 C   0  0  2  0  0  0  0  0  0  0  0  0
   28.8900  -33.3609   -2.7739 N   0  0  0  0  0  0  0  0  0  0  0  0
   27.9672  -34.8153   -1.1155 C   0  0  0  0  0  0  0  0  0  0  0  0
   27.2004  -35.6601   -0.5871 O   0  0  0  0  0  0  0  0  0  0  0  0
   29.1078  -34.4118   -0.3645 N   0  0  0  0  0  0  0  0  0  0  0  0
   29.3279  -34.8450    0.9823 C   0  0  1  0  0  0  0  0  0  0  0  0
   30.7203  -34.9097    1.4544 C   0  0  0  0  0  0  0  0  0  0  0  0
   31.6714  -35.8788    0.9347 C   0  0  0  0  0  0  0  0  0  0  0  0
   33.0396  -35.9185    1.3937 C   0  0  0  0  0  0  0  0  0  0  0  0
   33.4589  -35.8830    2.5750 O   0  0  0  0  0  0  0  0  0  0  0  0
   28.4112  -34.1353    1.9279 C   0  0  0  0  0  0  0  0  0  0  0  0
   28.0739  -32.9697    1.6510 O   0  0  0  0  0  0  0  0  0  0  0  0
   34.0619  -36.0081    0.4254 O   0  0  0  0  0  0  0  0  0  0  0  0
   27.9340  -34.7328    3.0884 N   0  0  0  0  0  0  0  0  0  0  0  0
   27.0119  -34.1186    4.0351 C   0  0  1  0  0  0  0  0  0  0  0  0
   25.6804  -33.8585    3.4625 C   0  0  0  0  0  0  0  0  0  0  0  0
   25.2426  -32.4671    3.7204 C   0  0  0  0  0  0  0  0  0  0  0  0
   25.8254  -31.4316    4.4093 C   0  0  0  0  0  0  0  0  0  0  0  0
   25.0896  -30.2944    4.3107 N   0  0  0  0  0  0  0  0  0  0  0  0
   24.0350  -30.6130    3.5526 C   0  0  0  0  0  0  0  0  0  0  0  0
   24.1027  -31.8974    3.1892 N   0  0  0  0  0  0  0  0  0  0  0  0
   26.9385  -35.1338    5.1445 C   0  0  0  0  0  0  0  0  0  0  0  0
   26.3527  -34.8957    6.1923 O   0  0  0  0  0  0  0  0  0  0  0  0
   27.5431  -36.3569    4.9796 O   0  0  0  0  0  0  0  0  0  0  0  0
  2  1  1  0
  3  2  1  0
  3  4  1  1
  5  3  1  0
  5  6  1  6
  7  5  1  0
  7  8  2  0
  9  7  1  0
 10  9  1  0
 10 11  1  1
 12 11  1  0
 12 13  1  0
 13 17  1  0
 13 14  2  0
 15 10  1  0
 16 15  2  0
 18 15  1  0
 19 18  1  0
 19 26  1  0
 19 20  1  6
 21 25  1  0
 21 20  1  0
 22 21  2  0
 23 22  1  0
 23 24  1  0
 24 25  2  0
 26 28  1  0
 27 26  2  0
M  END
$$$$
