IEH.pdb
     RDKit          3D

 28 28  0  0  1  0  0  0  0  0999 V2000
   21.5956  -16.8647  -17.6754 C   0  0  0  0  0  0  0  0  0  0  0  0
   21.7836  -18.3402  -17.8361 C   0  0  0  0  0  0  0  0  0  0  0  0
   22.0659  -19.0163  -16.5357 C   0  0  2  0  0  0  0  0  0  0  0  0
   23.1738  -18.3858  -15.7575 C   0  0  0  0  0  0  0  0  0  0  0  0
   22.4062  -20.4686  -16.7677 C   0  0  2  0  0  0  0  0  0  0  0  0
   21.2273  -21.0504  -17.4194 N   0  0  0  0  0  0  0  0  0  0  0  0
   22.6786  -21.2214  -15.5268 C   0  0  0  0  0  0  0  0  0  0  0  0
   21.7949  -21.5424  -14.6920 O   0  0  0  0  0  0  0  0  0  0  0  0
   24.0169  -21.6160  -15.2425 N   0  0  0  0  0  0  0  0  0  0  0  0
   24.3574  -22.3814  -14.0813 C   0  0  1  0  0  0  0  0  0  0  0  0
   24.9329  -23.7188  -14.2959 C   0  0  0  0  0  0  0  0  0  0  0  0
   24.1799  -24.7970  -14.9155 C   0  0  0  0  0  0  0  0  0  0  0  0
   23.6229  -24.6675  -16.2412 C   0  0  0  0  0  0  0  0  0  0  0  0
   24.2279  -24.4245  -17.3124 O   0  0  0  0  0  0  0  0  0  0  0  0
   25.1270  -21.5523  -13.1023 C   0  0  0  0  0  0  0  0  0  0  0  0
   25.6584  -20.5047  -13.5138 O   0  0  0  0  0  0  0  0  0  0  0  0
   22.2293  -24.8268  -16.3937 O   0  0  0  0  0  0  0  0  0  0  0  0
   25.2624  -21.9145  -11.7674 N   0  0  0  0  0  0  0  0  0  0  0  0
   26.0195  -21.1748  -10.7657 C   0  0  1  0  0  0  0  0  0  0  0  0
   25.4567  -19.8447  -10.4785 C   0  0  0  0  0  0  0  0  0  0  0  0
   26.1750  -19.1818   -9.3654 C   0  0  0  0  0  0  0  0  0  0  0  0
   27.2969  -19.5333   -8.6552 C   0  0  0  0  0  0  0  0  0  0  0  0
   27.6447  -18.5662   -7.7674 N   0  0  0  0  0  0  0  0  0  0  0  0
   26.7371  -17.5958   -7.9188 C   0  0  0  0  0  0  0  0  0  0  0  0
   25.8537  -17.9371   -8.8620 N   0  0  0  0  0  0  0  0  0  0  0  0
   25.9469  -22.0692   -9.5567 C   0  0  0  0  0  0  0  0  0  0  0  0
   24.9041  -22.6200   -9.2298 O   0  0  0  0  0  0  0  0  0  0  0  0
   27.0762  -22.2729   -8.8006 O   0  0  0  0  0  0  0  0  0  0  0  0
  2  1  1  0
  3  2  1  0
  3  4  1  6
  5  3  1  0
  5  6  1  1
  7  5  1  0
  7  8  2  0
  9  7  1  0
 10  9  1  0
 10 11  1  6
 12 11  1  0
 12 13  1  0
 13 17  1  0
 13 14  2  0
 15 10  1  0
 16 15  2  0
 18 15  1  0
 19 18  1  0
 19 26  1  0
 19 20  1  1
 21 25  1  0
 21 20  1  0
 22 21  2  0
 23 22  1  0
 23 24  1  0
 24 25  2  0
 26 28  1  0
 27 26  2  0
M  END
$$$$
