IEH.pdb
     RDKit          3D

 28 28  0  0  1  0  0  0  0  0999 V2000
   17.8172  -14.5974  -16.9881 C   0  0  0  0  0  0  0  0  0  0  0  0
   17.0518  -13.5877  -16.1926 C   0  0  0  0  0  0  0  0  0  0  0  0
   17.6308  -12.2176  -16.3167 C   0  0  2  0  0  0  0  0  0  0  0  0
   19.0579  -12.1258  -15.8861 C   0  0  0  0  0  0  0  0  0  0  0  0
   16.8195  -11.2348  -15.5074 C   0  0  2  0  0  0  0  0  0  0  0  0
   15.4208  -11.4799  -15.8767 N   0  0  0  0  0  0  0  0  0  0  0  0
   17.1415   -9.8218  -15.7908 C   0  0  0  0  0  0  0  0  0  0  0  0
   17.1567   -9.3230  -16.9449 O   0  0  0  0  0  0  0  0  0  0  0  0
   17.4557   -8.9574  -14.7037 N   0  0  0  0  0  0  0  0  0  0  0  0
   17.8646   -7.5995  -14.9010 C   0  0  1  0  0  0  0  0  0  0  0  0
   16.8599   -6.5490  -14.6711 C   0  0  0  0  0  0  0  0  0  0  0  0
   17.1563   -5.1380  -14.8575 C   0  0  0  0  0  0  0  0  0  0  0  0
   16.2048   -4.1111  -14.5049 C   0  0  0  0  0  0  0  0  0  0  0  0
   16.3642   -2.8676  -14.5352 O   0  0  0  0  0  0  0  0  0  0  0  0
   19.1714   -7.3317  -14.2236 C   0  0  0  0  0  0  0  0  0  0  0  0
   19.3263   -7.7558  -13.0637 O   0  0  0  0  0  0  0  0  0  0  0  0
   14.9256   -4.5142  -14.0668 O   0  0  0  0  0  0  0  0  0  0  0  0
   20.2002   -6.6335  -14.8446 N   0  0  0  0  0  0  0  0  0  0  0  0
   21.5083   -6.3641  -14.2613 C   0  0  1  0  0  0  0  0  0  0  0  0
   22.6252   -6.8168  -15.1075 C   0  0  0  0  0  0  0  0  0  0  0  0
   22.6401   -8.2921  -15.2406 C   0  0  0  0  0  0  0  0  0  0  0  0
   22.7272   -9.2992  -14.3107 C   0  0  0  0  0  0  0  0  0  0  0  0
   22.6179  -10.5216  -14.8923 N   0  0  0  0  0  0  0  0  0  0  0  0
   22.4589  -10.2853  -16.1989 C   0  0  0  0  0  0  0  0  0  0  0  0
   22.4682   -8.9691  -16.4314 N   0  0  0  0  0  0  0  0  0  0  0  0
   21.5110   -4.8660  -14.1119 C   0  0  0  0  0  0  0  0  0  0  0  0
   20.6179   -4.1742  -14.5823 O   0  0  0  0  0  0  0  0  0  0  0  0
   22.5398   -4.2586  -13.4326 O   0  0  0  0  0  0  0  0  0  0  0  0
  2  1  1  0
  3  2  1  0
  3  4  1  1
  5  3  1  0
  5  6  1  6
  7  5  1  0
  7  8  2  0
  9  7  1  0
 10  9  1  0
 10 11  1  1
 12 11  1  0
 12 13  1  0
 13 17  1  0
 13 14  2  0
 15 10  1  0
 16 15  2  0
 18 15  1  0
 19 18  1  0
 19 26  1  0
 19 20  1  6
 21 25  1  0
 21 20  1  0
 22 21  2  0
 23 22  1  0
 23 24  1  0
 24 25  2  0
 26 28  1  0
 27 26  2  0
M  END
$$$$
