MSF.pdb
     RDKit          3D

 26 26  0  0  1  0  0  0  0  0999 V2000
   20.7780  -16.2978  -15.9003 C   0  0  0  0  0  0  0  0  0  0  0  0
   21.3390  -17.6076  -14.8399 S   0  0  0  0  0  0  0  0  0  0  0  0
   20.8840  -17.5614  -13.1417 C   0  0  0  0  0  0  0  0  0  0  0  0
   21.3516  -18.6218  -12.2117 C   0  0  0  0  0  0  0  0  0  0  0  0
   21.7259  -19.8841  -12.8665 C   0  0  2  0  0  0  0  0  0  0  0  0
   20.5934  -20.6576  -13.2199 N   0  0  0  0  0  0  0  0  0  0  0  0
   22.7033  -20.6910  -12.0580 C   0  0  0  0  0  0  0  0  0  0  0  0
   22.2779  -21.4170  -11.1368 O   0  0  0  0  0  0  0  0  0  0  0  0
   26.7542  -21.3427  -13.2700 O   0  0  0  0  0  0  0  0  0  0  0  0
   25.9602  -22.2462  -12.5712 C   0  0  0  0  0  0  0  0  0  0  0  0
   25.0482  -21.5052  -11.6222 C   0  0  2  0  0  0  0  0  0  0  0  0
   24.0988  -20.6665  -12.2935 N   0  0  0  0  0  0  0  0  0  0  0  0
   25.8155  -20.7967  -10.5835 C   0  0  0  0  0  0  0  0  0  0  0  0
   25.3967  -19.6697  -10.1621 O   0  0  0  0  0  0  0  0  0  0  0  0
   27.0083  -21.2885  -10.0092 N   0  0  0  0  0  0  0  0  0  0  0  0
   27.7559  -20.5221   -9.0001 C   0  0  1  0  0  0  0  0  0  0  0  0
   26.8377  -20.3470   -7.8220 C   0  0  0  0  0  0  0  0  0  0  0  0
   27.4997  -19.8012   -6.6242 C   0  0  0  0  0  0  0  0  0  0  0  0
   28.0679  -20.5982   -5.6389 C   0  0  0  0  0  0  0  0  0  0  0  0
   28.6879  -20.0627   -4.5241 C   0  0  0  0  0  0  0  0  0  0  0  0
   28.7540  -18.6763   -4.3679 C   0  0  0  0  0  0  0  0  0  0  0  0
   28.1929  -17.8799   -5.3404 C   0  0  0  0  0  0  0  0  0  0  0  0
   27.5810  -18.4398   -6.4416 C   0  0  0  0  0  0  0  0  0  0  0  0
   29.0387  -21.1532   -8.6889 C   0  0  0  0  0  0  0  0  0  0  0  0
   29.1312  -22.4678   -8.2461 O   0  0  0  0  0  0  0  0  0  0  0  0
   30.0945  -20.4896   -8.8246 O   0  0  0  0  0  0  0  0  0  0  0  0
  2  3  1  0
  2  1  1  0
  3  4  1  0
  4  5  1  0
  5  6  1  1
  7  5  1  0
  7 12  1  0
  8  7  2  0
  9 10  1  0
 11 10  1  6
 11 12  1  0
 11 13  1  0
 13 14  2  0
 15 13  1  0
 15 16  1  0
 16 24  1  0
 16 17  1  1
 18 17  1  0
 19 18  2  0
 20 19  1  0
 21 20  2  0
 22 21  1  0
 22 23  2  0
 23 18  1  0
 24 26  2  0
 24 25  1  0
M  END
$$$$
