MSF.pdb
     RDKit          3D

 26 26  0  0  1  0  0  0  0  0999 V2000
   32.1595  -21.3455   -9.6149 C   0  0  0  0  0  0  0  0  0  0  0  0
   32.0401  -22.7463  -10.7003 S   0  0  0  0  0  0  0  0  0  0  0  0
   32.2219  -22.4820  -12.4295 C   0  0  0  0  0  0  0  0  0  0  0  0
   31.5439  -21.3351  -13.0875 C   0  0  0  0  0  0  0  0  0  0  0  0
   30.1579  -21.6023  -13.4998 C   0  0  2  0  0  0  0  0  0  0  0  0
   30.0209  -21.6521  -14.9085 N   0  0  0  0  0  0  0  0  0  0  0  0
   29.1750  -20.6403  -12.8926 C   0  0  0  0  0  0  0  0  0  0  0  0
   29.1326  -19.4668  -13.3140 O   0  0  0  0  0  0  0  0  0  0  0  0
   25.4498  -20.7938  -12.7565 O   0  0  0  0  0  0  0  0  0  0  0  0
   26.2605  -19.7228  -12.3948 C   0  0  0  0  0  0  0  0  0  0  0  0
   27.2498  -20.1578  -11.3395 C   0  0  2  0  0  0  0  0  0  0  0  0
   28.2853  -21.0055  -11.8540 N   0  0  0  0  0  0  0  0  0  0  0  0
   26.5664  -20.7250  -10.1644 C   0  0  0  0  0  0  0  0  0  0  0  0
   26.4195  -21.9878  -10.0808 O   0  0  0  0  0  0  0  0  0  0  0  0
   26.0514  -19.9518   -9.1007 N   0  0  0  0  0  0  0  0  0  0  0  0
   25.2988  -20.5612   -7.9932 C   0  0  1  0  0  0  0  0  0  0  0  0
   25.4864  -19.6666   -6.7988 C   0  0  0  0  0  0  0  0  0  0  0  0
   26.8246  -19.7566   -6.1891 C   0  0  0  0  0  0  0  0  0  0  0  0
   27.7372  -18.7096   -6.1985 C   0  0  0  0  0  0  0  0  0  0  0  0
   28.9874  -18.8161   -5.6158 C   0  0  0  0  0  0  0  0  0  0  0  0
   29.3614  -20.0090   -4.9930 C   0  0  0  0  0  0  0  0  0  0  0  0
   28.4622  -21.0512   -4.9798 C   0  0  0  0  0  0  0  0  0  0  0  0
   27.2225  -20.9182   -5.5680 C   0  0  0  0  0  0  0  0  0  0  0  0
   23.9045  -20.8061   -8.3626 C   0  0  0  0  0  0  0  0  0  0  0  0
   23.0753  -21.6395   -7.6204 O   0  0  0  0  0  0  0  0  0  0  0  0
   23.4361  -20.2475   -9.3834 O   0  0  0  0  0  0  0  0  0  0  0  0
  2  3  1  0
  2  1  1  0
  3  4  1  0
  4  5  1  0
  5  6  1  6
  7  5  1  0
  7 12  1  0
  8  7  2  0
  9 10  1  0
 11 10  1  6
 11 12  1  0
 11 13  1  0
 13 14  2  0
 15 13  1  0
 15 16  1  0
 16 24  1  0
 16 17  1  1
 18 17  1  0
 19 18  2  0
 20 19  1  0
 21 20  2  0
 22 21  1  0
 22 23  2  0
 23 18  1  0
 24 26  2  0
 24 25  1  0
M  END
$$$$
