MSF.pdb
     RDKit          3D

 26 26  0  0  1  0  0  0  0  0999 V2000
   29.8018  -26.6861  -15.5383 C   0  0  0  0  0  0  0  0  0  0  0  0
   29.8573  -26.7011  -17.3134 S   0  0  0  0  0  0  0  0  0  0  0  0
   29.3815  -25.2449  -18.1772 C   0  0  0  0  0  0  0  0  0  0  0  0
   29.0379  -24.0082  -17.4285 C   0  0  0  0  0  0  0  0  0  0  0  0
   28.7349  -22.8467  -18.2779 C   0  0  2  0  0  0  0  0  0  0  0  0
   29.8133  -22.5169  -19.1345 N   0  0  0  0  0  0  0  0  0  0  0  0
   28.2844  -21.6500  -17.4872 C   0  0  0  0  0  0  0  0  0  0  0  0
   28.6683  -20.5139  -17.8311 O   0  0  0  0  0  0  0  0  0  0  0  0
   24.3127  -19.9741  -17.0431 O   0  0  0  0  0  0  0  0  0  0  0  0
   25.3522  -20.8601  -17.3067 C   0  0  0  0  0  0  0  0  0  0  0  0
   26.2936  -20.9169  -16.1269 C   0  0  2  0  0  0  0  0  0  0  0  0
   27.4365  -21.7510  -16.3583 N   0  0  0  0  0  0  0  0  0  0  0  0
   25.5765  -21.2475  -14.8835 C   0  0  0  0  0  0  0  0  0  0  0  0
   25.2659  -22.4608  -14.6494 O   0  0  0  0  0  0  0  0  0  0  0  0
   25.2007  -20.2947  -13.9112 N   0  0  0  0  0  0  0  0  0  0  0  0
   24.6054  -20.6923  -12.6259 C   0  0  1  0  0  0  0  0  0  0  0  0
   25.3925  -19.9953  -11.5505 C   0  0  0  0  0  0  0  0  0  0  0  0
   26.8337  -20.3003  -11.5719 C   0  0  0  0  0  0  0  0  0  0  0  0
   27.7411  -19.6319  -12.3837 C   0  0  0  0  0  0  0  0  0  0  0  0
   29.0914  -19.9333  -12.3840 C   0  0  0  0  0  0  0  0  0  0  0  0
   29.5758  -20.9405  -11.5463 C   0  0  0  0  0  0  0  0  0  0  0  0
   28.6824  -21.6074  -10.7389 C   0  0  0  0  0  0  0  0  0  0  0  0
   27.3417  -21.2869  -10.7583 C   0  0  0  0  0  0  0  0  0  0  0  0
   23.1659  -20.4323  -12.5981 C   0  0  0  0  0  0  0  0  0  0  0  0
   22.3265  -21.0040  -11.6486 O   0  0  0  0  0  0  0  0  0  0  0  0
   22.6667  -19.6680  -13.4584 O   0  0  0  0  0  0  0  0  0  0  0  0
  2  3  1  0
  2  1  1  0
  3  4  1  0
  4  5  1  0
  5  6  1  1
  7  5  1  0
  7 12  1  0
  8  7  2  0
  9 10  1  0
 11 10  1  6
 11 12  1  0
 11 13  1  0
 13 14  2  0
 15 13  1  0
 15 16  1  0
 16 24  1  0
 16 17  1  1
 18 17  1  0
 19 18  2  0
 20 19  1  0
 21 20  2  0
 22 21  1  0
 22 23  2  0
 23 18  1  0
 24 26  2  0
 24 25  1  0
M  END
$$$$
