MSF.pdb
     RDKit          3D

 26 26  0  0  1  0  0  0  0  0999 V2000
   39.2179  -31.8316    2.9088 C   0  0  0  0  0  0  0  0  0  0  0  0
   39.3398  -30.1732    3.5329 S   0  0  0  0  0  0  0  0  0  0  0  0
   37.8917  -29.1751    3.5427 C   0  0  0  0  0  0  0  0  0  0  0  0
   36.6203  -29.7049    4.1002 C   0  0  0  0  0  0  0  0  0  0  0  0
   35.4873  -28.7704    4.0267 C   0  0  2  0  0  0  0  0  0  0  0  0
   35.6428  -27.6737    4.9091 N   0  0  0  0  0  0  0  0  0  0  0  0
   34.1609  -29.4479    4.2314 C   0  0  0  0  0  0  0  0  0  0  0  0
   33.6752  -29.5004    5.3794 O   0  0  0  0  0  0  0  0  0  0  0  0
   32.6727  -31.9821    1.3395 O   0  0  0  0  0  0  0  0  0  0  0  0
   31.6683  -31.3291    2.0466 C   0  0  0  0  0  0  0  0  0  0  0  0
   32.2194  -30.7878    3.3445 C   0  0  2  0  0  0  0  0  0  0  0  0
   33.4280  -30.0359    3.1729 N   0  0  0  0  0  0  0  0  0  0  0  0
   32.3345  -31.8466    4.3620 C   0  0  0  0  0  0  0  0  0  0  0  0
   33.4915  -32.2562    4.7039 O   0  0  0  0  0  0  0  0  0  0  0  0
   31.2298  -32.4531    4.9993 N   0  0  0  0  0  0  0  0  0  0  0  0
   31.4008  -33.5205    5.9972 C   0  0  1  0  0  0  0  0  0  0  0  0
   32.2569  -32.9527    7.0956 C   0  0  0  0  0  0  0  0  0  0  0  0
   33.5171  -33.6853    7.3103 C   0  0  0  0  0  0  0  0  0  0  0  0
   33.6194  -34.7985    8.1345 C   0  0  0  0  0  0  0  0  0  0  0  0
   34.8134  -35.4729    8.3179 C   0  0  0  0  0  0  0  0  0  0  0  0
   35.9645  -35.0334    7.6602 C   0  0  0  0  0  0  0  0  0  0  0  0
   35.8709  -33.9306    6.8417 C   0  0  0  0  0  0  0  0  0  0  0  0
   34.6683  -33.2771    6.6766 C   0  0  0  0  0  0  0  0  0  0  0  0
   30.1119  -34.0541    6.4384 C   0  0  0  0  0  0  0  0  0  0  0  0
   28.9025  -33.5685    5.9542 O   0  0  0  0  0  0  0  0  0  0  0  0
   30.0918  -34.9818    7.2825 O   0  0  0  0  0  0  0  0  0  0  0  0
  2  3  1  0
  2  1  1  0
  3  4  1  0
  4  5  1  0
  5  6  1  1
  7  5  1  0
  7 12  1  0
  8  7  2  0
  9 10  1  0
 11 10  1  6
 11 12  1  0
 11 13  1  0
 13 14  2  0
 15 13  1  0
 15 16  1  0
 16 24  1  0
 16 17  1  1
 18 17  1  0
 19 18  2  0
 20 19  1  0
 21 20  2  0
 22 21  1  0
 22 23  2  0
 23 18  1  0
 24 26  2  0
 24 25  1  0
M  END
$$$$
