MSF.pdb
     RDKit          3D

 26 26  0  0  1  0  0  0  0  0999 V2000
   30.4115  -21.9232  -10.0837 C   0  0  0  0  0  0  0  0  0  0  0  0
   29.7090  -21.9095  -11.7149 S   0  0  0  0  0  0  0  0  0  0  0  0
   29.9818  -20.5000  -12.7309 C   0  0  0  0  0  0  0  0  0  0  0  0
   28.8381  -19.6558  -13.1637 C   0  0  0  0  0  0  0  0  0  0  0  0
   28.1794  -20.1094  -14.3977 C   0  0  2  0  0  0  0  0  0  0  0  0
   28.9857  -19.8949  -15.5421 N   0  0  0  0  0  0  0  0  0  0  0  0
   26.8109  -19.5140  -14.5788 C   0  0  0  0  0  0  0  0  0  0  0  0
   26.4129  -18.6477  -13.7740 O   0  0  0  0  0  0  0  0  0  0  0  0
   24.4547  -20.0949  -18.0049 O   0  0  0  0  0  0  0  0  0  0  0  0
   24.1044  -19.1266  -17.0696 C   0  0  0  0  0  0  0  0  0  0  0  0
   24.5500  -19.5551  -15.6915 C   0  0  2  0  0  0  0  0  0  0  0  0
   25.9419  -19.8932  -15.6298 N   0  0  0  0  0  0  0  0  0  0  0  0
   23.6732  -20.6056  -15.1463 C   0  0  0  0  0  0  0  0  0  0  0  0
   23.8032  -21.8020  -15.5646 O   0  0  0  0  0  0  0  0  0  0  0  0
   22.6774  -20.3761  -14.1717 N   0  0  0  0  0  0  0  0  0  0  0  0
   21.9160  -21.4800  -13.5667 C   0  0  1  0  0  0  0  0  0  0  0  0
   22.9079  -22.3359  -12.8280 C   0  0  0  0  0  0  0  0  0  0  0  0
   23.6986  -21.6029  -11.8238 C   0  0  0  0  0  0  0  0  0  0  0  0
   25.0615  -21.3683  -11.9516 C   0  0  0  0  0  0  0  0  0  0  0  0
   25.7828  -20.6739  -10.9969 C   0  0  0  0  0  0  0  0  0  0  0  0
   25.1349  -20.1852   -9.8601 C   0  0  0  0  0  0  0  0  0  0  0  0
   23.7842  -20.4139   -9.7264 C   0  0  0  0  0  0  0  0  0  0  0  0
   23.0894  -21.1090  -10.6932 C   0  0  0  0  0  0  0  0  0  0  0  0
   20.8075  -20.9836  -12.7510 C   0  0  0  0  0  0  0  0  0  0  0  0
   19.8774  -21.8350  -12.1652 O   0  0  0  0  0  0  0  0  0  0  0  0
   20.6875  -19.7480  -12.5708 O   0  0  0  0  0  0  0  0  0  0  0  0
  2  3  1  0
  2  1  1  0
  3  4  1  0
  4  5  1  0
  5  6  1  6
  7  5  1  0
  7 12  1  0
  8  7  2  0
  9 10  1  0
 11 10  1  6
 11 12  1  0
 11 13  1  0
 13 14  2  0
 15 13  1  0
 15 16  1  0
 16 24  1  0
 16 17  1  1
 18 17  1  0
 19 18  2  0
 20 19  1  0
 21 20  2  0
 22 21  1  0
 22 23  2  0
 23 18  1  0
 24 26  2  0
 24 25  1  0
M  END
$$$$
