MSF.pdb
     RDKit          3D

 26 26  0  0  1  0  0  0  0  0999 V2000
   30.3224  -19.1995  -18.2515 C   0  0  0  0  0  0  0  0  0  0  0  0
   29.6751  -20.8487  -18.1269 S   0  0  0  0  0  0  0  0  0  0  0  0
   28.1202  -21.0793  -17.3379 C   0  0  0  0  0  0  0  0  0  0  0  0
   27.7610  -20.2755  -16.1410 C   0  0  0  0  0  0  0  0  0  0  0  0
   26.4527  -20.6055  -15.5563 C   0  0  2  0  0  0  0  0  0  0  0  0
   25.3878  -20.3506  -16.4544 N   0  0  0  0  0  0  0  0  0  0  0  0
   26.2202  -19.9304  -14.2333 C   0  0  0  0  0  0  0  0  0  0  0  0
   26.0321  -18.6974  -14.2041 O   0  0  0  0  0  0  0  0  0  0  0  0
   23.5019  -20.5666  -12.1322 O   0  0  0  0  0  0  0  0  0  0  0  0
   24.3775  -19.5472  -11.7726 C   0  0  0  0  0  0  0  0  0  0  0  0
   25.7953  -20.0678  -11.7530 C   0  0  2  0  0  0  0  0  0  0  0  0
   26.2045  -20.6338  -13.0051 N   0  0  0  0  0  0  0  0  0  0  0  0
   26.0211  -20.9671  -10.6085 C   0  0  0  0  0  0  0  0  0  0  0  0
   25.7835  -22.2118  -10.7404 O   0  0  0  0  0  0  0  0  0  0  0  0
   26.4925  -20.5385   -9.3481 N   0  0  0  0  0  0  0  0  0  0  0  0
   26.6187  -21.4645   -8.2120 C   0  0  1  0  0  0  0  0  0  0  0  0
   28.0107  -21.2952   -7.6684 C   0  0  0  0  0  0  0  0  0  0  0  0
   28.1138  -20.2967   -6.5899 C   0  0  0  0  0  0  0  0  0  0  0  0
   27.6159  -19.0047   -6.6988 C   0  0  0  0  0  0  0  0  0  0  0  0
   27.7211  -18.0850   -5.6707 C   0  0  0  0  0  0  0  0  0  0  0  0
   28.3458  -18.4507   -4.4762 C   0  0  0  0  0  0  0  0  0  0  0  0
   28.8418  -19.7296   -4.3609 C   0  0  0  0  0  0  0  0  0  0  0  0
   28.7235  -20.6264   -5.4012 C   0  0  0  0  0  0  0  0  0  0  0  0
   25.5498  -21.2623   -7.2336 C   0  0  0  0  0  0  0  0  0  0  0  0
   24.5954  -20.2611   -7.3732 O   0  0  0  0  0  0  0  0  0  0  0  0
   25.4879  -22.0155   -6.2324 O   0  0  0  0  0  0  0  0  0  0  0  0
  2  3  1  0
  2  1  1  0
  3  4  1  0
  4  5  1  0
  5  6  1  6
  7  5  1  0
  7 12  1  0
  8  7  2  0
  9 10  1  0
 11 10  1  6
 11 12  1  0
 11 13  1  0
 13 14  2  0
 15 13  1  0
 15 16  1  0
 16 24  1  0
 16 17  1  1
 18 17  1  0
 19 18  2  0
 20 19  1  0
 21 20  2  0
 22 21  1  0
 22 23  2  0
 23 18  1  0
 24 26  2  0
 24 25  1  0
M  END
$$$$
