MGK.pdb
     RDKit          3D

 22 21  0  0  1  0  0  0  0  0999 V2000
    7.3258  -12.3960   18.0161 C   0  0  0  0  0  0  0  0  0  0  0  0
    7.8622  -13.6706   19.1745 S   0  0  0  0  0  0  0  0  0  0  0  0
    6.6215  -14.0357   20.4174 C   0  0  0  0  0  0  0  0  0  0  0  0
    7.0911  -15.0820   21.4070 C   0  0  0  0  0  0  0  0  0  0  0  0
    8.4043  -14.6408   22.0316 C   0  0  2  0  0  0  0  0  0  0  0  0
    9.4922  -14.7315   21.0806 N   0  0  0  0  0  0  0  0  0  0  0  0
    8.6821  -15.5832   23.1434 C   0  0  0  0  0  0  0  0  0  0  0  0
    7.9264  -15.6507   24.1323 O   0  0  0  0  0  0  0  0  0  0  0  0
    9.8341  -16.3962   23.0334 N   0  0  0  0  0  0  0  0  0  0  0  0
   10.1755  -17.3317   24.0737 C   0  0  0  0  0  0  0  0  0  0  0  0
   10.6560  -16.6306   25.3060 C   0  0  0  0  0  0  0  0  0  0  0  0
   11.6770  -15.8647   25.2521 O   0  0  0  0  0  0  0  0  0  0  0  0
   10.0129  -16.7877   26.5416 N   0  0  0  0  0  0  0  0  0  0  0  0
   10.4197  -16.0398   27.7684 C   0  0  1  0  0  0  0  0  0  0  0  0
    9.4338  -15.0179   28.0619 C   0  0  0  0  0  0  0  0  0  0  0  0
    8.8510  -14.0650   27.1380 C   0  0  0  0  0  0  0  0  0  0  0  0
    7.7011  -13.2169   27.5670 C   0  0  0  0  0  0  0  0  0  0  0  0
    7.0655  -12.2899   26.6231 C   0  0  0  0  0  0  0  0  0  0  0  0
    6.0068  -11.4859   27.2283 N   0  0  0  0  0  0  0  0  0  0  0  0
   10.6956  -17.0737   28.7634 C   0  0  0  0  0  0  0  0  0  0  0  0
   11.2942  -16.7247   29.9724 O   0  0  0  0  0  0  0  0  0  0  0  0
   10.4666  -18.3002   28.7004 O   0  0  0  0  0  0  0  0  0  0  0  0
  2  1  1  0
  3  2  1  0
  4  3  1  0
  4  5  1  0
  5  6  1  6
  7  5  1  0
  7  8  2  0
  9  7  1  0
 10  9  1  0
 10 11  1  0
 11 13  1  0
 12 11  2  0
 13 14  1  0
 14 20  1  0
 14 15  1  1
 15 16  1  0
 16 17  1  0
 18 17  1  0
 19 18  1  0
 20 21  1  0
 22 20  2  0
M  END
$$$$
