MGK.pdb
     RDKit          3D

 22 21  0  0  1  0  0  0  0  0999 V2000
    6.6657  -12.8893   27.4021 C   0  0  0  0  0  0  0  0  0  0  0  0
    6.7891  -12.4292   25.6622 S   0  0  0  0  0  0  0  0  0  0  0  0
    7.1459  -13.8328   24.6039 C   0  0  0  0  0  0  0  0  0  0  0  0
    7.3228  -13.4286   23.1548 C   0  0  0  0  0  0  0  0  0  0  0  0
    7.4132  -14.6717   22.2855 C   0  0  2  0  0  0  0  0  0  0  0  0
    6.9447  -15.8424   22.9970 N   0  0  0  0  0  0  0  0  0  0  0  0
    8.8503  -14.8655   21.9718 C   0  0  0  0  0  0  0  0  0  0  0  0
    9.5298  -13.9448   21.4778 O   0  0  0  0  0  0  0  0  0  0  0  0
    9.4122  -16.1320   22.2557 N   0  0  0  0  0  0  0  0  0  0  0  0
   10.7942  -16.4063   21.9576 C   0  0  0  0  0  0  0  0  0  0  0  0
   11.5222  -16.9241   23.1589 C   0  0  0  0  0  0  0  0  0  0  0  0
   12.7834  -17.1212   23.1099 O   0  0  0  0  0  0  0  0  0  0  0  0
   10.8559  -17.2062   24.3595 N   0  0  0  0  0  0  0  0  0  0  0  0
   11.5632  -17.6738   25.5888 C   0  0  1  0  0  0  0  0  0  0  0  0
   10.9463  -17.0790   26.7584 C   0  0  0  0  0  0  0  0  0  0  0  0
   11.1991  -15.7647   27.3152 C   0  0  0  0  0  0  0  0  0  0  0  0
   10.4253  -15.2951   28.5011 C   0  0  0  0  0  0  0  0  0  0  0  0
   10.7249  -13.9987   29.1209 C   0  0  0  0  0  0  0  0  0  0  0  0
    9.8490  -13.6809   30.2459 N   0  0  0  0  0  0  0  0  0  0  0  0
   11.6063  -19.1292   25.4656 C   0  0  0  0  0  0  0  0  0  0  0  0
   12.5830  -19.8503   26.1498 O   0  0  0  0  0  0  0  0  0  0  0  0
   10.8602  -19.8800   24.8021 O   0  0  0  0  0  0  0  0  0  0  0  0
  2  1  1  0
  3  2  1  0
  4  3  1  0
  4  5  1  0
  5  6  1  1
  7  5  1  0
  7  8  2  0
  9  7  1  0
 10  9  1  0
 10 11  1  0
 11 13  1  0
 12 11  2  0
 13 14  1  0
 14 20  1  0
 14 15  1  1
 15 16  1  0
 16 17  1  0
 18 17  1  0
 19 18  1  0
 20 21  1  0
 22 20  2  0
M  END
$$$$
