MGK.pdb
     RDKit          3D

 22 21  0  0  1  0  0  0  0  0999 V2000
    5.9647  -11.4793   26.5405 C   0  0  0  0  0  0  0  0  0  0  0  0
    7.4133  -12.5058   26.8597 S   0  0  0  0  0  0  0  0  0  0  0  0
    7.1599  -14.2177   26.3880 C   0  0  0  0  0  0  0  0  0  0  0  0
    6.6127  -14.3505   24.9816 C   0  0  0  0  0  0  0  0  0  0  0  0
    6.9665  -15.7188   24.4234 C   0  0  2  0  0  0  0  0  0  0  0  0
    7.8632  -16.4296   25.3106 N   0  0  0  0  0  0  0  0  0  0  0  0
    7.6751  -15.4829   23.1414 C   0  0  0  0  0  0  0  0  0  0  0  0
    7.1839  -14.7496   22.2614 O   0  0  0  0  0  0  0  0  0  0  0  0
    8.9240  -16.1220   22.9623 N   0  0  0  0  0  0  0  0  0  0  0  0
    9.7480  -15.8182   21.8209 C   0  0  0  0  0  0  0  0  0  0  0  0
   11.1532  -16.2962   22.0159 C   0  0  0  0  0  0  0  0  0  0  0  0
   11.4941  -17.4642   21.6266 O   0  0  0  0  0  0  0  0  0  0  0  0
   12.1277  -15.4919   22.6228 N   0  0  0  0  0  0  0  0  0  0  0  0
   12.9690  -15.9596   23.7645 C   0  0  1  0  0  0  0  0  0  0  0  0
   12.1129  -16.3809   24.8563 C   0  0  0  0  0  0  0  0  0  0  0  0
   12.4678  -17.2290   25.9771 C   0  0  0  0  0  0  0  0  0  0  0  0
   11.4206  -17.6587   26.9488 C   0  0  0  0  0  0  0  0  0  0  0  0
   11.7905  -18.3774   28.1739 C   0  0  0  0  0  0  0  0  0  0  0  0
   10.6629  -18.5992   29.0756 N   0  0  0  0  0  0  0  0  0  0  0  0
   13.9004  -16.9190   23.1753 C   0  0  0  0  0  0  0  0  0  0  0  0
   13.5588  -17.5751   21.9943 O   0  0  0  0  0  0  0  0  0  0  0  0
   15.0269  -17.2687   23.5868 O   0  0  0  0  0  0  0  0  0  0  0  0
  2  1  1  0
  3  2  1  0
  4  3  1  0
  4  5  1  0
  5  6  1  1
  7  5  1  0
  7  8  2  0
  9  7  1  0
 10  9  1  0
 10 11  1  0
 11 13  1  0
 12 11  2  0
 13 14  1  0
 14 20  1  0
 14 15  1  1
 15 16  1  0
 16 17  1  0
 18 17  1  0
 19 18  1  0
 20 21  1  0
 22 20  2  0
M  END
$$$$
