MGK.pdb
     RDKit          3D

 22 21  0  0  1  0  0  0  0  0999 V2000
    8.2610  -15.1958   15.2000 C   0  0  0  0  0  0  0  0  0  0  0  0
    7.2300  -14.2444   16.3340 S   0  0  0  0  0  0  0  0  0  0  0  0
    8.0355  -13.9455   17.9086 C   0  0  0  0  0  0  0  0  0  0  0  0
    7.1349  -13.2168   18.8847 C   0  0  0  0  0  0  0  0  0  0  0  0
    7.8809  -12.9781   20.1869 C   0  0  2  0  0  0  0  0  0  0  0  0
    9.2554  -12.5959   19.9396 N   0  0  0  0  0  0  0  0  0  0  0  0
    7.8843  -14.2703   20.9160 C   0  0  0  0  0  0  0  0  0  0  0  0
    6.8188  -14.8075   21.2760 O   0  0  0  0  0  0  0  0  0  0  0  0
    9.1407  -14.8623   21.1832 N   0  0  0  0  0  0  0  0  0  0  0  0
    9.2248  -16.1810   21.7557 C   0  0  0  0  0  0  0  0  0  0  0  0
    9.6013  -16.1274   23.2037 C   0  0  0  0  0  0  0  0  0  0  0  0
   10.0920  -15.0576   23.7004 O   0  0  0  0  0  0  0  0  0  0  0  0
    9.4313  -17.2313   24.0507 N   0  0  0  0  0  0  0  0  0  0  0  0
    9.8712  -17.2336   25.4778 C   0  0  1  0  0  0  0  0  0  0  0  0
    9.3233  -18.3948   26.1516 C   0  0  0  0  0  0  0  0  0  0  0  0
    7.9281  -18.7722   26.2622 C   0  0  0  0  0  0  0  0  0  0  0  0
    7.5526  -20.0586   26.9178 C   0  0  0  0  0  0  0  0  0  0  0  0
    6.1416  -20.4046   27.1269 C   0  0  0  0  0  0  0  0  0  0  0  0
    5.9559  -21.6842   27.8064 N   0  0  0  0  0  0  0  0  0  0  0  0
   11.3206  -17.0564   25.4234 C   0  0  0  0  0  0  0  0  0  0  0  0
   11.9953  -16.5507   26.5329 O   0  0  0  0  0  0  0  0  0  0  0  0
   12.1032  -17.3010   24.4809 O   0  0  0  0  0  0  0  0  0  0  0  0
  2  1  1  0
  3  2  1  0
  4  3  1  0
  4  5  1  0
  5  6  1  6
  7  5  1  0
  7  8  2  0
  9  7  1  0
 10  9  1  0
 10 11  1  0
 11 13  1  0
 12 11  2  0
 13 14  1  0
 14 20  1  0
 14 15  1  6
 15 16  1  0
 16 17  1  0
 18 17  1  0
 19 18  1  0
 20 21  1  0
 22 20  2  0
M  END
$$$$
