MGK.pdb
     RDKit          3D

 22 21  0  0  1  0  0  0  0  0999 V2000
    7.3760  -11.6889   25.7655 C   0  0  0  0  0  0  0  0  0  0  0  0
    7.0389  -13.4445   26.0074 S   0  0  0  0  0  0  0  0  0  0  0  0
    7.3276  -14.4104   24.5237 C   0  0  0  0  0  0  0  0  0  0  0  0
    7.0309  -13.6264   23.2619 C   0  0  0  0  0  0  0  0  0  0  0  0
    7.1258  -14.5458   22.0557 C   0  0  2  0  0  0  0  0  0  0  0  0
    6.5956  -15.8592   22.3562 N   0  0  0  0  0  0  0  0  0  0  0  0
    8.5696  -14.6899   21.7456 C   0  0  0  0  0  0  0  0  0  0  0  0
    9.2671  -13.6975   21.4590 O   0  0  0  0  0  0  0  0  0  0  0  0
    9.1165  -15.9934   21.7889 N   0  0  0  0  0  0  0  0  0  0  0  0
   10.5214  -16.2090   21.5570 C   0  0  0  0  0  0  0  0  0  0  0  0
   11.2418  -16.5441   22.8258 C   0  0  0  0  0  0  0  0  0  0  0  0
   12.4934  -16.7991   22.8054 O   0  0  0  0  0  0  0  0  0  0  0  0
   10.5787  -16.5889   24.0600 N   0  0  0  0  0  0  0  0  0  0  0  0
   11.2879  -16.8215   25.3534 C   0  0  1  0  0  0  0  0  0  0  0  0
   10.7360  -15.9497   26.3721 C   0  0  0  0  0  0  0  0  0  0  0  0
   11.0504  -15.9390   27.7872 C   0  0  0  0  0  0  0  0  0  0  0  0
   10.3607  -14.9796   28.6978 C   0  0  0  0  0  0  0  0  0  0  0  0
   10.6688  -14.9611   30.1327 C   0  0  0  0  0  0  0  0  0  0  0  0
    9.9677  -13.9059   30.8599 N   0  0  0  0  0  0  0  0  0  0  0  0
   11.2432  -18.2687   25.5503 C   0  0  0  0  0  0  0  0  0  0  0  0
   12.1636  -18.8774   26.4013 O   0  0  0  0  0  0  0  0  0  0  0  0
   10.4619  -19.1025   25.0454 O   0  0  0  0  0  0  0  0  0  0  0  0
  2  1  1  0
  3  2  1  0
  4  3  1  0
  4  5  1  0
  5  6  1  1
  7  5  1  0
  7  8  2  0
  9  7  1  0
 10  9  1  0
 10 11  1  0
 11 13  1  0
 12 11  2  0
 13 14  1  0
 14 20  1  0
 14 15  1  1
 15 16  1  0
 16 17  1  0
 18 17  1  0
 19 18  1  0
 20 21  1  0
 22 20  2  0
M  END
$$$$
