MGK.pdb
     RDKit          3D

 22 21  0  0  1  0  0  0  0  0999 V2000
    8.2545  -12.1371   27.7106 C   0  0  0  0  0  0  0  0  0  0  0  0
    6.8087  -12.7708   26.8376 S   0  0  0  0  0  0  0  0  0  0  0  0
    7.2178  -14.1006   25.7055 C   0  0  0  0  0  0  0  0  0  0  0  0
    5.9884  -14.6934   25.0483 C   0  0  0  0  0  0  0  0  0  0  0  0
    6.3618  -15.9833   24.3370 C   0  0  2  0  0  0  0  0  0  0  0  0
    7.1099  -16.8639   25.2095 N   0  0  0  0  0  0  0  0  0  0  0  0
    7.2384  -15.6027   23.2021 C   0  0  0  0  0  0  0  0  0  0  0  0
    6.9282  -14.6701   22.4355 O   0  0  0  0  0  0  0  0  0  0  0  0
    8.4333  -16.3391   23.0287 N   0  0  0  0  0  0  0  0  0  0  0  0
    9.4294  -15.9111   22.0807 C   0  0  0  0  0  0  0  0  0  0  0  0
   10.8074  -15.9880   22.6605 C   0  0  0  0  0  0  0  0  0  0  0  0
   11.8216  -15.6751   21.9496 O   0  0  0  0  0  0  0  0  0  0  0  0
   11.0291  -16.3995   23.9821 N   0  0  0  0  0  0  0  0  0  0  0  0
   12.3918  -16.4854   24.5868 C   0  0  1  0  0  0  0  0  0  0  0  0
   12.3057  -16.2346   26.0124 C   0  0  0  0  0  0  0  0  0  0  0  0
   11.2621  -15.5188   26.7194 C   0  0  0  0  0  0  0  0  0  0  0  0
   11.3221  -15.3863   28.2041 C   0  0  0  0  0  0  0  0  0  0  0  0
   10.2578  -14.6867   28.9336 C   0  0  0  0  0  0  0  0  0  0  0  0
   10.4272  -14.7308   30.3838 N   0  0  0  0  0  0  0  0  0  0  0  0
   12.9309  -17.7595   24.1164 C   0  0  0  0  0  0  0  0  0  0  0  0
   12.0724  -18.7114   23.5697 O   0  0  0  0  0  0  0  0  0  0  0  0
   14.1145  -18.1589   24.1264 O   0  0  0  0  0  0  0  0  0  0  0  0
  2  1  1  0
  3  2  1  0
  4  3  1  0
  4  5  1  0
  5  6  1  1
  7  5  1  0
  7  8  2  0
  9  7  1  0
 10  9  1  0
 10 11  1  0
 11 13  1  0
 12 11  2  0
 13 14  1  0
 14 20  1  0
 14 15  1  1
 15 16  1  0
 16 17  1  0
 18 17  1  0
 19 18  1  0
 20 21  1  0
 22 20  2  0
M  END
$$$$
