MGK.pdb
     RDKit          3D

 22 21  0  0  1  0  0  0  0  0999 V2000
    6.0390  -11.1769   24.9358 C   0  0  0  0  0  0  0  0  0  0  0  0
    6.2136  -12.1073   26.4713 S   0  0  0  0  0  0  0  0  0  0  0  0
    6.1463  -13.8809   26.2116 C   0  0  0  0  0  0  0  0  0  0  0  0
    6.2449  -14.2504   24.7458 C   0  0  0  0  0  0  0  0  0  0  0  0
    7.0265  -15.5451   24.5973 C   0  0  2  0  0  0  0  0  0  0  0  0
    8.0353  -15.6681   25.6285 N   0  0  0  0  0  0  0  0  0  0  0  0
    7.7135  -15.4767   23.2840 C   0  0  0  0  0  0  0  0  0  0  0  0
    7.1377  -15.8355   22.2384 O   0  0  0  0  0  0  0  0  0  0  0  0
    9.0413  -14.9900   23.2700 N   0  0  0  0  0  0  0  0  0  0  0  0
    9.9885  -15.4665   22.2954 C   0  0  0  0  0  0  0  0  0  0  0  0
   10.9960  -16.3854   22.9132 C   0  0  0  0  0  0  0  0  0  0  0  0
   12.0672  -16.6807   22.2829 O   0  0  0  0  0  0  0  0  0  0  0  0
   10.8019  -16.9447   24.1838 N   0  0  0  0  0  0  0  0  0  0  0  0
   11.8913  -17.6257   24.9450 C   0  0  1  0  0  0  0  0  0  0  0  0
   11.6705  -17.4511   26.3674 C   0  0  0  0  0  0  0  0  0  0  0  0
   11.6140  -16.2036   27.1034 C   0  0  0  0  0  0  0  0  0  0  0  0
   11.1020  -16.1861   28.5045 C   0  0  0  0  0  0  0  0  0  0  0  0
   10.9856  -14.9212   29.2399 C   0  0  0  0  0  0  0  0  0  0  0  0
   10.2934  -15.0589   30.5188 N   0  0  0  0  0  0  0  0  0  0  0  0
   11.9477  -18.9766   24.3908 C   0  0  0  0  0  0  0  0  0  0  0  0
   13.1371  -19.6998   24.4573 O   0  0  0  0  0  0  0  0  0  0  0  0
   11.0425  -19.6299   23.8303 O   0  0  0  0  0  0  0  0  0  0  0  0
  2  1  1  0
  3  2  1  0
  4  3  1  0
  4  5  1  0
  5  6  1  1
  7  5  1  0
  7  8  2  0
  9  7  1  0
 10  9  1  0
 10 11  1  0
 11 13  1  0
 12 11  2  0
 13 14  1  0
 14 20  1  0
 14 15  1  1
 15 16  1  0
 16 17  1  0
 18 17  1  0
 19 18  1  0
 20 21  1  0
 22 20  2  0
M  END
$$$$
