MGK.pdb
     RDKit          3D

 22 21  0  0  1  0  0  0  0  0999 V2000
    5.9532  -11.4528   27.0252 C   0  0  0  0  0  0  0  0  0  0  0  0
    7.3095  -11.9209   25.9319 S   0  0  0  0  0  0  0  0  0  0  0  0
    6.9584  -13.4142   25.0021 C   0  0  0  0  0  0  0  0  0  0  0  0
    8.0979  -13.7976   24.0804 C   0  0  0  0  0  0  0  0  0  0  0  0
    7.8027  -15.1416   23.4358 C   0  0  2  0  0  0  0  0  0  0  0  0
    7.3119  -16.0927   24.4109 N   0  0  0  0  0  0  0  0  0  0  0  0
    9.0917  -15.6483   22.9038 C   0  0  0  0  0  0  0  0  0  0  0  0
    9.7126  -15.0237   22.0218 O   0  0  0  0  0  0  0  0  0  0  0  0
    9.5823  -16.8628   23.4373 N   0  0  0  0  0  0  0  0  0  0  0  0
   10.8507  -17.3941   23.0096 C   0  0  0  0  0  0  0  0  0  0  0  0
   11.5678  -18.0744   24.1339 C   0  0  0  0  0  0  0  0  0  0  0  0
   12.7720  -18.4720   23.9804 O   0  0  0  0  0  0  0  0  0  0  0  0
   10.9524  -18.2953   25.3739 N   0  0  0  0  0  0  0  0  0  0  0  0
   11.7207  -18.4342   26.6470 C   0  0  1  0  0  0  0  0  0  0  0  0
   11.2192  -17.4846   27.6213 C   0  0  0  0  0  0  0  0  0  0  0  0
   11.1901  -16.0396   27.5088 C   0  0  0  0  0  0  0  0  0  0  0  0
   10.0522  -15.2687   28.0889 C   0  0  0  0  0  0  0  0  0  0  0  0
    9.9807  -13.8114   27.9288 C   0  0  0  0  0  0  0  0  0  0  0  0
    8.7660  -13.2279   28.4925 N   0  0  0  0  0  0  0  0  0  0  0  0
   11.6813  -19.8621   26.9546 C   0  0  0  0  0  0  0  0  0  0  0  0
   12.4989  -20.3733   27.9606 O   0  0  0  0  0  0  0  0  0  0  0  0
   10.9876  -20.7567   26.4262 O   0  0  0  0  0  0  0  0  0  0  0  0
  2  1  1  0
  3  2  1  0
  4  3  1  0
  4  5  1  0
  5  6  1  1
  7  5  1  0
  7  8  2  0
  9  7  1  0
 10  9  1  0
 10 11  1  0
 11 13  1  0
 12 11  2  0
 13 14  1  0
 14 20  1  0
 14 15  1  1
 15 16  1  0
 16 17  1  0
 18 17  1  0
 19 18  1  0
 20 21  1  0
 22 20  2  0
M  END
$$$$
