MGK.pdb
     RDKit          3D

 22 21  0  0  1  0  0  0  0  0999 V2000
    7.7906  -11.9061   26.9696 C   0  0  0  0  0  0  0  0  0  0  0  0
    6.3056  -12.9245   27.0778 S   0  0  0  0  0  0  0  0  0  0  0  0
    6.3583  -14.3359   25.9722 C   0  0  0  0  0  0  0  0  0  0  0  0
    6.8341  -13.9600   24.5840 C   0  0  0  0  0  0  0  0  0  0  0  0
    6.8114  -15.1866   23.6872 C   0  0  2  0  0  0  0  0  0  0  0  0
    6.7778  -16.4051   24.4685 N   0  0  0  0  0  0  0  0  0  0  0  0
    8.0769  -15.1685   22.9129 C   0  0  0  0  0  0  0  0  0  0  0  0
    8.4490  -14.1406   22.3141 O   0  0  0  0  0  0  0  0  0  0  0  0
    8.8379  -16.3603   22.8838 N   0  0  0  0  0  0  0  0  0  0  0  0
   10.0452  -16.4425   22.1031 C   0  0  0  0  0  0  0  0  0  0  0  0
   11.1682  -17.0420   22.8910 C   0  0  0  0  0  0  0  0  0  0  0  0
   12.3573  -17.0313   22.4243 O   0  0  0  0  0  0  0  0  0  0  0  0
   10.9571  -17.6264   24.1475 N   0  0  0  0  0  0  0  0  0  0  0  0
   11.9984  -17.6461   25.2178 C   0  0  1  0  0  0  0  0  0  0  0  0
   11.4542  -17.0730   26.4335 C   0  0  0  0  0  0  0  0  0  0  0  0
   11.6007  -15.7110   26.9076 C   0  0  0  0  0  0  0  0  0  0  0  0
   10.8944  -15.2717   28.1460 C   0  0  0  0  0  0  0  0  0  0  0  0
   11.0234  -13.8914   28.6279 C   0  0  0  0  0  0  0  0  0  0  0  0
   10.1952  -13.6087   29.7975 N   0  0  0  0  0  0  0  0  0  0  0  0
   12.4926  -19.0211   25.2345 C   0  0  0  0  0  0  0  0  0  0  0  0
   11.8997  -19.9767   24.4115 O   0  0  0  0  0  0  0  0  0  0  0  0
   13.4212  -19.5098   25.9123 O   0  0  0  0  0  0  0  0  0  0  0  0
  2  1  1  0
  3  2  1  0
  4  3  1  0
  4  5  1  0
  5  6  1  1
  7  5  1  0
  7  8  2  0
  9  7  1  0
 10  9  1  0
 10 11  1  0
 11 13  1  0
 12 11  2  0
 13 14  1  0
 14 20  1  0
 14 15  1  1
 15 16  1  0
 16 17  1  0
 18 17  1  0
 19 18  1  0
 20 21  1  0
 22 20  2  0
M  END
$$$$
