SSN.pdb
     RDKit          3D

 21 20  0  0  1  0  0  0  0  0999 V2000
    9.0795  -16.6687   14.8056 O   0  0  0  0  0  0  0  0  0  0  0  0
    7.7549  -16.2086   14.8526 C   0  0  0  0  0  0  0  0  0  0  0  0
    7.7547  -14.6998   14.7602 C   0  0  2  0  0  0  0  0  0  0  0  0
    8.4576  -14.2620   13.5882 N   0  0  0  0  0  0  0  0  0  0  0  0
    8.4459  -14.1581   15.9787 C   0  0  0  0  0  0  0  0  0  0  0  0
    9.6544  -13.8254   15.9245 O   0  0  0  0  0  0  0  0  0  0  0  0
    8.0009  -12.9503   20.6355 O   0  0  0  0  0  0  0  0  0  0  0  0
    7.3504  -13.4550   19.4849 C   0  0  0  0  0  0  0  0  0  0  0  0
    8.3591  -13.5528   18.4173 C   0  0  2  0  0  0  0  0  0  0  0  0
    7.7307  -14.0204   17.2011 N   0  0  0  0  0  0  0  0  0  0  0  0
    9.5408  -14.3587   18.6943 C   0  0  0  0  0  0  0  0  0  0  0  0
    9.5106  -15.5775   18.4111 O   0  0  0  0  0  0  0  0  0  0  0  0
   15.2129  -15.3560   18.9554 N   0  0  0  0  0  0  0  0  0  0  0  0
   14.3058  -14.8365   19.9176 C   0  0  0  0  0  0  0  0  0  0  0  0
   14.5235  -15.0759   21.1279 O   0  0  0  0  0  0  0  0  0  0  0  0
   13.1467  -14.0417   19.5012 C   0  0  0  0  0  0  0  0  0  0  0  0
   11.8228  -14.7505   19.6313 C   0  0  2  0  0  0  0  0  0  0  0  0
   10.7394  -13.8640   19.2678 N   0  0  0  0  0  0  0  0  0  0  0  0
   11.5850  -15.2986   20.9889 C   0  0  0  0  0  0  0  0  0  0  0  0
   12.0714  -16.4200   21.2689 O   0  0  0  0  0  0  0  0  0  0  0  0
   10.8463  -14.5958   21.9269 O   0  0  0  0  0  0  0  0  0  0  0  0
  1  2  1  0
  2  3  1  0
  3  4  1  6
  5  3  1  0
  5  6  2  0
  7  8  1  0
  9  8  1  1
  9 11  1  0
  9 10  1  0
 10  5  1  0
 11 18  1  0
 12 11  2  0
 13 14  1  0
 14 15  2  0
 16 14  1  0
 17 16  1  1
 17 19  1  0
 18 17  1  0
 19 20  2  0
 19 21  1  0
M  END
$$$$
