SSN.pdb
     RDKit          3D

 21 20  0  0  1  0  0  0  0  0999 V2000
    8.8165  -20.4215   12.7448 O   0  0  0  0  0  0  0  0  0  0  0  0
    8.4201  -20.2640   14.0813 C   0  0  0  0  0  0  0  0  0  0  0  0
    9.0445  -19.0032   14.6343 C   0  0  2  0  0  0  0  0  0  0  0  0
   10.4026  -18.8714   14.1902 N   0  0  0  0  0  0  0  0  0  0  0  0
    9.0241  -19.0919   16.1335 C   0  0  0  0  0  0  0  0  0  0  0  0
    9.2764  -20.1794   16.7059 O   0  0  0  0  0  0  0  0  0  0  0  0
    7.1012  -17.9503   20.1358 O   0  0  0  0  0  0  0  0  0  0  0  0
    7.1766  -17.8501   18.7265 C   0  0  0  0  0  0  0  0  0  0  0  0
    8.5932  -17.9891   18.3514 C   0  0  2  0  0  0  0  0  0  0  0  0
    8.7179  -17.9401   16.9110 N   0  0  0  0  0  0  0  0  0  0  0  0
    9.3020  -19.1556   18.8609 C   0  0  0  0  0  0  0  0  0  0  0  0
    8.9328  -20.2898   18.4815 O   0  0  0  0  0  0  0  0  0  0  0  0
   12.7666  -23.0213   19.8112 N   0  0  0  0  0  0  0  0  0  0  0  0
   13.0737  -21.6930   20.2111 C   0  0  0  0  0  0  0  0  0  0  0  0
   13.9908  -21.5224   21.0473 O   0  0  0  0  0  0  0  0  0  0  0  0
   12.3346  -20.5546   19.6576 C   0  0  0  0  0  0  0  0  0  0  0  0
   10.9891  -20.3137   20.2931 C   0  0  2  0  0  0  0  0  0  0  0  0
   10.3924  -19.1064   19.7658 N   0  0  0  0  0  0  0  0  0  0  0  0
   11.0480  -20.2361   21.7731 C   0  0  0  0  0  0  0  0  0  0  0  0
   10.9965  -21.3059   22.4253 O   0  0  0  0  0  0  0  0  0  0  0  0
   11.1570  -19.0178   22.4237 O   0  0  0  0  0  0  0  0  0  0  0  0
  1  2  1  0
  2  3  1  0
  3  4  1  6
  5  3  1  0
  5  6  2  0
  7  8  1  0
  9  8  1  6
  9 11  1  0
  9 10  1  0
 10  5  1  0
 11 18  1  0
 12 11  2  0
 13 14  1  0
 14 15  2  0
 16 14  1  0
 17 16  1  6
 17 19  1  0
 18 17  1  0
 19 20  2  0
 19 21  1  0
M  END
$$$$
