SSN.pdb
     RDKit          3D

 21 20  0  0  1  0  0  0  0  0999 V2000
    9.0069  -17.6653   15.3083 O   0  0  0  0  0  0  0  0  0  0  0  0
    7.9159  -16.7854   15.2472 C   0  0  0  0  0  0  0  0  0  0  0  0
    8.4209  -15.3975   14.9247 C   0  0  2  0  0  0  0  0  0  0  0  0
    9.2751  -15.4223   13.7720 N   0  0  0  0  0  0  0  0  0  0  0  0
    9.2039  -14.9003   16.1060 C   0  0  0  0  0  0  0  0  0  0  0  0
   10.4556  -14.8336   16.0520 O   0  0  0  0  0  0  0  0  0  0  0  0
    7.2956  -13.9979   19.6935 O   0  0  0  0  0  0  0  0  0  0  0  0
    8.1990  -13.0516   19.1549 C   0  0  0  0  0  0  0  0  0  0  0  0
    9.1936  -13.7945   18.3639 C   0  0  2  0  0  0  0  0  0  0  0  0
    8.5271  -14.5024   17.2928 N   0  0  0  0  0  0  0  0  0  0  0  0
   10.0624  -14.7137   19.0869 C   0  0  0  0  0  0  0  0  0  0  0  0
    9.7974  -15.9365   19.0512 O   0  0  0  0  0  0  0  0  0  0  0  0
   14.6581  -13.5755   19.0236 N   0  0  0  0  0  0  0  0  0  0  0  0
   14.1147  -14.8007   19.4950 C   0  0  0  0  0  0  0  0  0  0  0  0
   14.2804  -15.8295   18.7998 O   0  0  0  0  0  0  0  0  0  0  0  0
   13.3798  -14.8553   20.7621 C   0  0  0  0  0  0  0  0  0  0  0  0
   11.9402  -15.2831   20.6325 C   0  0  2  0  0  0  0  0  0  0  0  0
   11.2006  -14.3267   19.8386 N   0  0  0  0  0  0  0  0  0  0  0  0
   11.2674  -15.4724   21.9406 C   0  0  0  0  0  0  0  0  0  0  0  0
   11.7821  -16.2676   22.7622 O   0  0  0  0  0  0  0  0  0  0  0  0
   10.1014  -14.7922   22.2526 O   0  0  0  0  0  0  0  0  0  0  0  0
  1  2  1  0
  2  3  1  0
  3  4  1  6
  5  3  1  0
  5  6  2  0
  7  8  1  0
  9  8  1  1
  9 11  1  0
  9 10  1  0
 10  5  1  0
 11 18  1  0
 12 11  2  0
 13 14  1  0
 14 15  2  0
 16 14  1  0
 17 16  1  1
 17 19  1  0
 18 17  1  0
 19 20  2  0
 19 21  1  0
M  END
$$$$
