SSN.pdb
     RDKit          3D

 21 20  0  0  1  0  0  0  0  0999 V2000
    4.5134  -21.4250   20.0969 O   0  0  0  0  0  0  0  0  0  0  0  0
    3.4618  -20.7285   19.4827 C   0  0  0  0  0  0  0  0  0  0  0  0
    3.1136  -19.5217   20.3238 C   0  0  2  0  0  0  0  0  0  0  0  0
    4.2888  -18.7548   20.6238 N   0  0  0  0  0  0  0  0  0  0  0  0
    2.5035  -20.0084   21.6071 C   0  0  0  0  0  0  0  0  0  0  0  0
    3.1427  -19.9226   22.6833 O   0  0  0  0  0  0  0  0  0  0  0  0
   -1.2276  -21.7854   21.5325 O   0  0  0  0  0  0  0  0  0  0  0  0
   -0.9426  -20.9058   22.6034 C   0  0  0  0  0  0  0  0  0  0  0  0
    0.5122  -20.9412   22.8258 C   0  0  2  0  0  0  0  0  0  0  0  0
    1.1959  -20.5695   21.6063 N   0  0  0  0  0  0  0  0  0  0  0  0
    1.0739  -22.1841   23.3381 C   0  0  0  0  0  0  0  0  0  0  0  0
    1.5634  -22.9975   22.5223 O   0  0  0  0  0  0  0  0  0  0  0  0
    4.3021  -22.8832   24.5047 N   0  0  0  0  0  0  0  0  0  0  0  0
    3.9902  -23.0827   25.8764 C   0  0  0  0  0  0  0  0  0  0  0  0
    4.8802  -22.8501   26.7269 O   0  0  0  0  0  0  0  0  0  0  0  0
    2.6609  -23.5485   26.2819 C   0  0  0  0  0  0  0  0  0  0  0  0
    1.7085  -23.7937   25.1395 C   0  0  2  0  0  0  0  0  0  0  0  0
    1.1101  -22.5499   24.7074 N   0  0  0  0  0  0  0  0  0  0  0  0
    0.6436  -24.7727   25.4671 C   0  0  0  0  0  0  0  0  0  0  0  0
    0.9734  -25.9688   25.6484 O   0  0  0  0  0  0  0  0  0  0  0  0
   -0.6817  -24.3827   25.5715 O   0  0  0  0  0  0  0  0  0  0  0  0
  1  2  1  0
  2  3  1  0
  3  4  1  1
  5  3  1  0
  5  6  2  0
  7  8  1  0
  9  8  1  6
  9 11  1  0
  9 10  1  0
 10  5  1  0
 11 18  1  0
 12 11  2  0
 13 14  1  0
 14 15  2  0
 16 14  1  0
 17 16  1  1
 17 19  1  0
 18 17  1  0
 19 20  2  0
 19 21  1  0
M  END
$$$$
