SSN.pdb
     RDKit          3D

 21 20  0  0  1  0  0  0  0  0999 V2000
   13.2558  -17.4352   14.5738 O   0  0  0  0  0  0  0  0  0  0  0  0
   12.0091  -16.8205   14.3840 C   0  0  0  0  0  0  0  0  0  0  0  0
   12.1750  -15.3231   14.5079 C   0  0  2  0  0  0  0  0  0  0  0  0
   12.9970  -14.8132   13.4479 N   0  0  0  0  0  0  0  0  0  0  0  0
   12.8368  -15.0349   15.8250 C   0  0  0  0  0  0  0  0  0  0  0  0
   14.0666  -14.7919   15.8747 O   0  0  0  0  0  0  0  0  0  0  0  0
   10.8164  -15.3799   19.5449 O   0  0  0  0  0  0  0  0  0  0  0  0
   11.5080  -14.1998   19.1831 C   0  0  0  0  0  0  0  0  0  0  0  0
   12.6098  -14.5928   18.2895 C   0  0  2  0  0  0  0  0  0  0  0  0
   12.0693  -15.0366   17.0232 N   0  0  0  0  0  0  0  0  0  0  0  0
   13.5480  -15.5876   18.7925 C   0  0  0  0  0  0  0  0  0  0  0  0
   13.4839  -16.7514   18.3362 O   0  0  0  0  0  0  0  0  0  0  0  0
   16.7327  -16.3985   16.3828 N   0  0  0  0  0  0  0  0  0  0  0  0
   16.3959  -16.8876   17.6734 C   0  0  0  0  0  0  0  0  0  0  0  0
   15.8642  -18.0187   17.7590 O   0  0  0  0  0  0  0  0  0  0  0  0
   16.6650  -16.0867   18.8713 C   0  0  0  0  0  0  0  0  0  0  0  0
   15.6483  -16.2472   19.9725 C   0  0  2  0  0  0  0  0  0  0  0  0
   14.5418  -15.3376   19.7724 N   0  0  0  0  0  0  0  0  0  0  0  0
   16.2188  -16.0488   21.3272 C   0  0  0  0  0  0  0  0  0  0  0  0
   17.0160  -16.9111   21.7667 O   0  0  0  0  0  0  0  0  0  0  0  0
   15.8839  -14.9429   22.0915 O   0  0  0  0  0  0  0  0  0  0  0  0
  1  2  1  0
  2  3  1  0
  3  4  1  6
  5  3  1  0
  5  6  2  0
  7  8  1  0
  9  8  1  1
  9 11  1  0
  9 10  1  0
 10  5  1  0
 11 18  1  0
 12 11  2  0
 13 14  1  0
 14 15  2  0
 16 14  1  0
 17 16  1  6
 17 19  1  0
 18 17  1  0
 19 20  2  0
 19 21  1  0
M  END
$$$$
