SSN.pdb
     RDKit          3D

 21 20  0  0  1  0  0  0  0  0999 V2000
    9.9012  -18.0328   15.5836 O   0  0  0  0  0  0  0  0  0  0  0  0
    8.6749  -17.3523   15.5464 C   0  0  0  0  0  0  0  0  0  0  0  0
    8.9296  -15.8964   15.2293 C   0  0  2  0  0  0  0  0  0  0  0  0
    9.9409  -15.7653   14.2196 N   0  0  0  0  0  0  0  0  0  0  0  0
    9.3994  -15.2210   16.4858 C   0  0  0  0  0  0  0  0  0  0  0  0
   10.6264  -15.0989   16.7171 O   0  0  0  0  0  0  0  0  0  0  0  0
    7.1199  -12.5746   18.4151 O   0  0  0  0  0  0  0  0  0  0  0  0
    7.6699  -13.5113   19.3217 C   0  0  0  0  0  0  0  0  0  0  0  0
    8.8473  -14.1112   18.6732 C   0  0  2  0  0  0  0  0  0  0  0  0
    8.4521  -14.7164   17.4201 N   0  0  0  0  0  0  0  0  0  0  0  0
    9.6171  -15.0704   19.4543 C   0  0  0  0  0  0  0  0  0  0  0  0
    9.5569  -16.2803   19.1393 O   0  0  0  0  0  0  0  0  0  0  0  0
   13.9399  -15.8640   23.5110 N   0  0  0  0  0  0  0  0  0  0  0  0
   13.4275  -16.2587   22.2460 C   0  0  0  0  0  0  0  0  0  0  0  0
   13.6873  -17.4132   21.8348 O   0  0  0  0  0  0  0  0  0  0  0  0
   12.6165  -15.3363   21.4459 C   0  0  0  0  0  0  0  0  0  0  0  0
   11.1758  -15.7490   21.2843 C   0  0  2  0  0  0  0  0  0  0  0  0
   10.4405  -14.7364   20.5592 N   0  0  0  0  0  0  0  0  0  0  0  0
   10.5002  -16.0282   22.5749 C   0  0  0  0  0  0  0  0  0  0  0  0
   10.3184  -17.2250   22.9019 O   0  0  0  0  0  0  0  0  0  0  0  0
   10.0789  -14.9992   23.4013 O   0  0  0  0  0  0  0  0  0  0  0  0
  1  2  1  0
  2  3  1  0
  3  4  1  6
  5  3  1  0
  5  6  2  0
  7  8  1  0
  9  8  1  1
  9 11  1  0
  9 10  1  0
 10  5  1  0
 11 18  1  0
 12 11  2  0
 13 14  1  0
 14 15  2  0
 16 14  1  0
 17 16  1  1
 17 19  1  0
 18 17  1  0
 19 20  2  0
 19 21  1  0
M  END
$$$$
