SSN.pdb
     RDKit          3D

 21 20  0  0  1  0  0  0  0  0999 V2000
    5.7171  -23.5187   19.8583 O   0  0  0  0  0  0  0  0  0  0  0  0
    4.3261  -23.6744   19.7631 C   0  0  0  0  0  0  0  0  0  0  0  0
    3.6585  -22.3697   20.1333 C   0  0  2  0  0  0  0  0  0  0  0  0
    4.0943  -21.3118   19.2671 N   0  0  0  0  0  0  0  0  0  0  0  0
    4.0399  -22.0357   21.5471 C   0  0  0  0  0  0  0  0  0  0  0  0
    4.7244  -21.0133   21.7924 O   0  0  0  0  0  0  0  0  0  0  0  0
    2.6046  -24.3609   24.7083 O   0  0  0  0  0  0  0  0  0  0  0  0
    2.7788  -22.9632   24.8414 C   0  0  0  0  0  0  0  0  0  0  0  0
    3.9235  -22.5809   23.9986 C   0  0  2  0  0  0  0  0  0  0  0  0
    3.6252  -22.8797   22.6150 N   0  0  0  0  0  0  0  0  0  0  0  0
    5.2209  -23.1441   24.3484 C   0  0  0  0  0  0  0  0  0  0  0  0
    5.6421  -24.1229   23.6918 O   0  0  0  0  0  0  0  0  0  0  0  0
    9.9481  -24.1677   26.2479 N   0  0  0  0  0  0  0  0  0  0  0  0
    9.7616  -22.7858   25.9755 C   0  0  0  0  0  0  0  0  0  0  0  0
   10.7682  -22.0400   25.9764 O   0  0  0  0  0  0  0  0  0  0  0  0
    8.4249  -22.2505   25.7012 C   0  0  0  0  0  0  0  0  0  0  0  0
    7.3287  -23.2851   25.6811 C   0  0  2  0  0  0  0  0  0  0  0  0
    6.0557  -22.6638   25.3890 N   0  0  0  0  0  0  0  0  0  0  0  0
    7.2299  -24.0555   26.9446 C   0  0  0  0  0  0  0  0  0  0  0  0
    6.3297  -23.7437   27.7601 O   0  0  0  0  0  0  0  0  0  0  0  0
    8.1053  -25.0927   27.2226 O   0  0  0  0  0  0  0  0  0  0  0  0
  1  2  1  0
  2  3  1  0
  3  4  1  6
  5  3  1  0
  5  6  2  0
  7  8  1  0
  9  8  1  1
  9 11  1  0
  9 10  1  0
 10  5  1  0
 11 18  1  0
 12 11  2  0
 13 14  1  0
 14 15  2  0
 16 14  1  0
 17 16  1  1
 17 19  1  0
 18 17  1  0
 19 20  2  0
 19 21  1  0
M  END
$$$$
