SSN.pdb
     RDKit          3D

 21 20  0  0  1  0  0  0  0  0999 V2000
    8.9532  -17.4942   15.3607 O   0  0  0  0  0  0  0  0  0  0  0  0
    7.8875  -16.6154   15.6061 C   0  0  0  0  0  0  0  0  0  0  0  0
    8.3033  -15.2162   15.2130 C   0  0  2  0  0  0  0  0  0  0  0  0
    9.1389  -15.2428   14.0467 N   0  0  0  0  0  0  0  0  0  0  0  0
    9.0740  -14.6205   16.3562 C   0  0  0  0  0  0  0  0  0  0  0  0
   10.3222  -14.5129   16.2891 O   0  0  0  0  0  0  0  0  0  0  0  0
    7.1673  -13.8025   19.9602 O   0  0  0  0  0  0  0  0  0  0  0  0
    8.1226  -12.8677   19.4962 C   0  0  0  0  0  0  0  0  0  0  0  0
    9.0819  -13.6011   18.6543 C   0  0  2  0  0  0  0  0  0  0  0  0
    8.3894  -14.1752   17.5214 N   0  0  0  0  0  0  0  0  0  0  0  0
    9.8838  -14.6288   19.3051 C   0  0  0  0  0  0  0  0  0  0  0  0
    9.6019  -15.8293   19.0906 O   0  0  0  0  0  0  0  0  0  0  0  0
   14.3201  -13.7022   19.1577 N   0  0  0  0  0  0  0  0  0  0  0  0
   13.8248  -14.9659   19.5775 C   0  0  0  0  0  0  0  0  0  0  0  0
   13.9621  -15.9430   18.8056 O   0  0  0  0  0  0  0  0  0  0  0  0
   13.1708  -15.1184   20.8805 C   0  0  0  0  0  0  0  0  0  0  0  0
   11.7020  -15.4495   20.8083 C   0  0  2  0  0  0  0  0  0  0  0  0
   10.9738  -14.3723   20.1749 N   0  0  0  0  0  0  0  0  0  0  0  0
   11.1044  -15.7447   22.1332 C   0  0  0  0  0  0  0  0  0  0  0  0
   10.1758  -15.0078   22.5420 O   0  0  0  0  0  0  0  0  0  0  0  0
   11.5552  -16.8044   22.9034 O   0  0  0  0  0  0  0  0  0  0  0  0
  1  2  1  0
  2  3  1  0
  3  4  1  6
  5  3  1  0
  5  6  2  0
  7  8  1  0
  9  8  1  1
  9 11  1  0
  9 10  1  0
 10  5  1  0
 11 18  1  0
 12 11  2  0
 13 14  1  0
 14 15  2  0
 16 14  1  0
 17 16  1  1
 17 19  1  0
 18 17  1  0
 19 20  2  0
 19 21  1  0
M  END
$$$$
