SSN.pdb
     RDKit          3D

 21 20  0  0  1  0  0  0  0  0999 V2000
    7.5238  -19.4464   17.9528 O   0  0  0  0  0  0  0  0  0  0  0  0
    8.3080  -18.7687   18.8983 C   0  0  0  0  0  0  0  0  0  0  0  0
    8.3736  -17.3053   18.5250 C   0  0  2  0  0  0  0  0  0  0  0  0
    9.1202  -17.1227   17.3132 N   0  0  0  0  0  0  0  0  0  0  0  0
    9.0598  -16.5700   19.6405 C   0  0  0  0  0  0  0  0  0  0  0  0
   10.3075  -16.4381   19.6370 O   0  0  0  0  0  0  0  0  0  0  0  0
    6.8860  -15.2397   22.9445 O   0  0  0  0  0  0  0  0  0  0  0  0
    7.8777  -14.3920   22.3971 C   0  0  0  0  0  0  0  0  0  0  0  0
    8.8974  -15.2528   21.7757 C   0  0  2  0  0  0  0  0  0  0  0  0
    8.2954  -16.0196   20.7069 N   0  0  0  0  0  0  0  0  0  0  0  0
    9.6369  -16.1462   22.6576 C   0  0  0  0  0  0  0  0  0  0  0  0
    9.2641  -17.3377   22.7475 O   0  0  0  0  0  0  0  0  0  0  0  0
   13.7893  -17.9294   22.7327 N   0  0  0  0  0  0  0  0  0  0  0  0
   13.5892  -16.6222   23.2520 C   0  0  0  0  0  0  0  0  0  0  0  0
   14.0676  -15.6528   22.6188 O   0  0  0  0  0  0  0  0  0  0  0  0
   12.8419  -16.4172   24.4962 C   0  0  0  0  0  0  0  0  0  0  0  0
   11.3608  -16.6748   24.3861 C   0  0  2  0  0  0  0  0  0  0  0  0
   10.7615  -15.7667   23.4333 N   0  0  0  0  0  0  0  0  0  0  0  0
   10.6525  -16.5738   25.6854 C   0  0  0  0  0  0  0  0  0  0  0  0
    9.7756  -15.6869   25.8150 O   0  0  0  0  0  0  0  0  0  0  0  0
   10.9472  -17.4329   26.7316 O   0  0  0  0  0  0  0  0  0  0  0  0
  1  2  1  0
  2  3  1  0
  3  4  1  6
  5  3  1  0
  5  6  2  0
  7  8  1  0
  9  8  1  1
  9 11  1  0
  9 10  1  0
 10  5  1  0
 11 18  1  0
 12 11  2  0
 13 14  1  0
 14 15  2  0
 16 14  1  0
 17 16  1  1
 17 19  1  0
 18 17  1  0
 19 20  2  0
 19 21  1  0
M  END
$$$$
