PTI.pdb
     RDKit          3D

 23 23  0  0  1  0  0  0  0  0999 V2000
    8.0088  -14.8643   17.7875 N   0  0  0  0  0  0  0  0  0  0  0  0
    8.3589  -13.7780   16.8695 C   0  0  0  0  0  0  0  0  0  0  0  0
    7.8420  -12.5704   17.6297 C   0  0  0  0  0  0  0  0  0  0  0  0
    8.2621  -12.8832   19.0446 C   0  0  0  0  0  0  0  0  0  0  0  0
    8.4892  -14.3648   19.0366 C   0  0  1  0  0  0  0  0  0  0  0  0
    7.8060  -14.9770   20.2050 C   0  0  0  0  0  0  0  0  0  0  0  0
    6.5505  -14.9707   20.3130 O   0  0  0  0  0  0  0  0  0  0  0  0
    7.4887  -18.2648   21.4565 C   0  0  0  0  0  0  0  0  0  0  0  0
    8.2498  -17.5979   22.5982 C   0  0  1  0  0  0  0  0  0  0  0  0
    9.5774  -17.9502   22.6035 O   0  0  0  0  0  0  0  0  0  0  0  0
    8.0509  -16.0839   22.4545 C   0  0  2  0  0  0  0  0  0  0  0  0
    8.5664  -15.5821   21.2230 N   0  0  0  0  0  0  0  0  0  0  0  0
    8.5971  -15.3944   23.6487 C   0  0  0  0  0  0  0  0  0  0  0  0
    9.7631  -14.9350   23.5647 O   0  0  0  0  0  0  0  0  0  0  0  0
    5.8373  -11.7185   26.4791 C   0  0  0  0  0  0  0  0  0  0  0  0
    6.9102  -12.5277   25.8065 C   0  0  0  0  0  0  0  0  0  0  0  0
    7.5697  -13.5494   26.6308 C   0  0  2  0  0  0  0  0  0  0  0  0
    8.2690  -12.8352   27.8185 C   0  0  0  0  0  0  0  0  0  0  0  0
    8.4572  -14.5459   26.0203 C   0  0  2  0  0  0  0  0  0  0  0  0
    7.8981  -15.2230   24.8609 N   0  0  0  0  0  0  0  0  0  0  0  0
    8.9710  -15.5385   26.9576 C   0  0  0  0  0  0  0  0  0  0  0  0
   10.1984  -15.3111   27.5821 O   0  0  0  0  0  0  0  0  0  0  0  0
    8.3113  -16.6008   27.2032 O   0  0  0  0  0  0  0  0  0  0  0  0
  1  2  1  0
  2  3  1  0
  4  3  1  0
  5  4  1  0
  5  1  1  0
  6  7  2  0
  5  6  1  1
  9  8  1  6
  9 11  1  0
 10  9  1  0
 11 12  1  6
 11 13  1  0
 12  6  1  0
 13 20  1  0
 14 13  2  0
 16 15  1  0
 17 18  1  1
 17 16  1  0
 19 21  1  0
 19 17  1  0
 19 20  1  6
 21 22  1  0
 23 21  2  0
M  END
$$$$
