PTI.pdb
     RDKit          3D

 23 23  0  0  1  0  0  0  0  0999 V2000
    7.8096  -14.9202   18.3571 N   0  0  0  0  0  0  0  0  0  0  0  0
    8.0557  -13.8077   17.4368 C   0  0  0  0  0  0  0  0  0  0  0  0
    7.5990  -12.6261   18.2726 C   0  0  0  0  0  0  0  0  0  0  0  0
    8.1574  -12.9654   19.6325 C   0  0  0  0  0  0  0  0  0  0  0  0
    8.4016  -14.4428   19.5663 C   0  0  1  0  0  0  0  0  0  0  0  0
    7.8421  -15.0923   20.7794 C   0  0  0  0  0  0  0  0  0  0  0  0
    6.6456  -15.4852   20.8251 O   0  0  0  0  0  0  0  0  0  0  0  0
    9.8515  -17.7836   22.4898 C   0  0  0  0  0  0  0  0  0  0  0  0
    8.4202  -17.5040   22.9377 C   0  0  1  0  0  0  0  0  0  0  0  0
    8.1041  -18.1770   24.0926 O   0  0  0  0  0  0  0  0  0  0  0  0
    8.2809  -15.9845   23.0938 C   0  0  2  0  0  0  0  0  0  0  0  0
    8.6560  -15.2797   21.9121 N   0  0  0  0  0  0  0  0  0  0  0  0
    9.0122  -15.5393   24.3050 C   0  0  0  0  0  0  0  0  0  0  0  0
   10.2045  -15.1739   24.1552 O   0  0  0  0  0  0  0  0  0  0  0  0
    6.1232  -12.1851   27.0919 C   0  0  0  0  0  0  0  0  0  0  0  0
    7.3134  -12.8369   26.4462 C   0  0  0  0  0  0  0  0  0  0  0  0
    8.0932  -13.7523   27.2900 C   0  0  2  0  0  0  0  0  0  0  0  0
    8.7957  -12.9144   28.3920 C   0  0  0  0  0  0  0  0  0  0  0  0
    9.0228  -14.7160   26.6895 C   0  0  2  0  0  0  0  0  0  0  0  0
    8.4603  -15.5003   25.6016 N   0  0  0  0  0  0  0  0  0  0  0  0
    9.6564  -15.6104   27.6519 C   0  0  0  0  0  0  0  0  0  0  0  0
    9.3686  -16.9753   27.6017 O   0  0  0  0  0  0  0  0  0  0  0  0
   10.4606  -15.1545   28.5290 O   0  0  0  0  0  0  0  0  0  0  0  0
  1  2  1  0
  2  3  1  0
  4  3  1  0
  5  4  1  0
  5  1  1  0
  6  7  2  0
  5  6  1  1
  9  8  1  1
  9 11  1  0
 10  9  1  0
 11 12  1  6
 11 13  1  0
 12  6  1  0
 13 20  1  0
 14 13  2  0
 16 15  1  0
 17 18  1  1
 17 16  1  0
 19 21  1  0
 19 17  1  0
 19 20  1  6
 21 22  1  0
 23 21  2  0
M  END
$$$$
