PTI.pdb
     RDKit          3D

 23 23  0  0  1  0  0  0  0  0999 V2000
    7.3031  -19.8602   24.0113 N   0  0  0  0  0  0  0  0  0  0  0  0
    6.2132  -20.8384   24.0314 C   0  0  0  0  0  0  0  0  0  0  0  0
    5.3473  -20.3397   22.8892 C   0  0  0  0  0  0  0  0  0  0  0  0
    6.3757  -19.9822   21.8448 C   0  0  0  0  0  0  0  0  0  0  0  0
    7.6458  -19.8248   22.6250 C   0  0  1  0  0  0  0  0  0  0  0  0
    8.3178  -18.5610   22.2280 C   0  0  0  0  0  0  0  0  0  0  0  0
    9.3716  -18.5629   21.5370 O   0  0  0  0  0  0  0  0  0  0  0  0
    7.2956  -15.5264   20.2433 C   0  0  0  0  0  0  0  0  0  0  0  0
    7.4143  -15.0753   21.6959 C   0  0  1  0  0  0  0  0  0  0  0  0
    6.1895  -15.0117   22.3143 O   0  0  0  0  0  0  0  0  0  0  0  0
    8.3699  -16.0483   22.3978 C   0  0  2  0  0  0  0  0  0  0  0  0
    7.7759  -17.3245   22.6259 N   0  0  0  0  0  0  0  0  0  0  0  0
    8.9071  -15.4178   23.6283 C   0  0  0  0  0  0  0  0  0  0  0  0
   10.0224  -14.8466   23.5421 O   0  0  0  0  0  0  0  0  0  0  0  0
    6.1474  -11.9402   26.3523 C   0  0  0  0  0  0  0  0  0  0  0  0
    7.2797  -12.7251   25.7523 C   0  0  0  0  0  0  0  0  0  0  0  0
    7.9153  -13.7226   26.6236 C   0  0  2  0  0  0  0  0  0  0  0  0
    8.6257  -12.9710   27.7813 C   0  0  0  0  0  0  0  0  0  0  0  0
    8.7838  -14.7633   26.0614 C   0  0  2  0  0  0  0  0  0  0  0  0
    8.2524  -15.4185   24.8768 N   0  0  0  0  0  0  0  0  0  0  0  0
    9.2013  -15.7749   27.0260 C   0  0  0  0  0  0  0  0  0  0  0  0
    8.6482  -17.0542   26.9502 O   0  0  0  0  0  0  0  0  0  0  0  0
   10.0575  -15.4966   27.9278 O   0  0  0  0  0  0  0  0  0  0  0  0
  1  2  1  0
  2  3  1  0
  4  3  1  0
  5  4  1  0
  5  1  1  0
  6  7  2  0
  5  6  1  6
  9  8  1  6
  9 11  1  0
 10  9  1  0
 11 12  1  1
 11 13  1  0
 12  6  1  0
 13 20  1  0
 14 13  2  0
 16 15  1  0
 17 18  1  1
 17 16  1  0
 19 21  1  0
 19 17  1  0
 19 20  1  6
 21 22  1  0
 23 21  2  0
M  END
$$$$
