PTI.pdb
     RDKit          3D

 23 23  0  0  1  0  0  0  0  0999 V2000
    8.0927  -15.0741   18.0312 N   0  0  0  0  0  0  0  0  0  0  0  0
    8.2785  -14.0175   17.0341 C   0  0  0  0  0  0  0  0  0  0  0  0
    7.7060  -12.8171   17.7651 C   0  0  0  0  0  0  0  0  0  0  0  0
    8.2482  -13.0076   19.1601 C   0  0  0  0  0  0  0  0  0  0  0  0
    8.6090  -14.4614   19.2138 C   0  0  1  0  0  0  0  0  0  0  0  0
    8.0659  -15.0610   20.4596 C   0  0  0  0  0  0  0  0  0  0  0  0
    6.8414  -14.9872   20.7480 O   0  0  0  0  0  0  0  0  0  0  0  0
    8.6524  -18.1650   24.1925 C   0  0  0  0  0  0  0  0  0  0  0  0
    9.2217  -17.6331   22.8808 C   0  0  1  0  0  0  0  0  0  0  0  0
    9.0408  -18.5194   21.8471 O   0  0  0  0  0  0  0  0  0  0  0  0
    8.5524  -16.2799   22.6098 C   0  0  2  0  0  0  0  0  0  0  0  0
    8.9278  -15.7305   21.3484 N   0  0  0  0  0  0  0  0  0  0  0  0
    8.8000  -15.3647   23.7504 C   0  0  0  0  0  0  0  0  0  0  0  0
    9.9102  -14.7785   23.7871 O   0  0  0  0  0  0  0  0  0  0  0  0
    7.1796  -10.7955   26.7714 C   0  0  0  0  0  0  0  0  0  0  0  0
    7.1699  -12.2338   27.2069 C   0  0  0  0  0  0  0  0  0  0  0  0
    7.0479  -13.2371   26.1408 C   0  0  2  0  0  0  0  0  0  0  0  0
    5.6934  -13.9735   26.3224 C   0  0  0  0  0  0  0  0  0  0  0  0
    8.1335  -14.1896   25.8809 C   0  0  2  0  0  0  0  0  0  0  0  0
    7.8779  -15.1128   24.7865 N   0  0  0  0  0  0  0  0  0  0  0  0
    8.5599  -14.9409   27.0563 C   0  0  0  0  0  0  0  0  0  0  0  0
    8.3185  -16.3146   27.1083 O   0  0  0  0  0  0  0  0  0  0  0  0
    9.1433  -14.3532   28.0249 O   0  0  0  0  0  0  0  0  0  0  0  0
  1  2  1  0
  2  3  1  0
  4  3  1  0
  5  4  1  0
  5  1  1  0
  6  7  2  0
  5  6  1  1
  9  8  1  1
  9 11  1  0
 10  9  1  0
 11 12  1  6
 11 13  1  0
 12  6  1  0
 13 20  1  0
 14 13  2  0
 16 15  1  0
 17 18  1  1
 17 16  1  0
 19 21  1  0
 19 17  1  0
 19 20  1  6
 21 22  1  0
 23 21  2  0
M  END
$$$$
