PTI.pdb
     RDKit          3D

 23 23  0  0  1  0  0  0  0  0999 V2000
    8.9231  -15.0465   18.7381 N   0  0  0  0  0  0  0  0  0  0  0  0
    8.9624  -14.4819   17.3872 C   0  0  0  0  0  0  0  0  0  0  0  0
    7.7731  -13.5398   17.4259 C   0  0  0  0  0  0  0  0  0  0  0  0
    7.9062  -12.9177   18.7939 C   0  0  0  0  0  0  0  0  0  0  0  0
    8.7790  -13.8769   19.5455 C   0  0  1  0  0  0  0  0  0  0  0  0
    8.1747  -14.1615   20.8723 C   0  0  0  0  0  0  0  0  0  0  0  0
    7.8436  -13.2345   21.6590 O   0  0  0  0  0  0  0  0  0  0  0  0
    6.2460  -17.7810   21.4318 C   0  0  0  0  0  0  0  0  0  0  0  0
    7.1716  -17.4174   22.5888 C   0  0  1  0  0  0  0  0  0  0  0  0
    8.3449  -18.1306   22.5498 O   0  0  0  0  0  0  0  0  0  0  0  0
    7.4093  -15.9035   22.5230 C   0  0  2  0  0  0  0  0  0  0  0  0
    7.9609  -15.4935   21.2734 N   0  0  0  0  0  0  0  0  0  0  0  0
    8.2129  -15.4744   23.6933 C   0  0  0  0  0  0  0  0  0  0  0  0
    9.4187  -15.1878   23.4893 O   0  0  0  0  0  0  0  0  0  0  0  0
    5.7832  -12.0020   26.7392 C   0  0  0  0  0  0  0  0  0  0  0  0
    6.9632  -12.6292   26.0516 C   0  0  0  0  0  0  0  0  0  0  0  0
    7.6676  -13.6820   26.7955 C   0  0  2  0  0  0  0  0  0  0  0  0
    8.5282  -13.0040   27.8953 C   0  0  0  0  0  0  0  0  0  0  0  0
    8.4356  -14.7131   26.0881 C   0  0  2  0  0  0  0  0  0  0  0  0
    7.7151  -15.3684   25.0080 N   0  0  0  0  0  0  0  0  0  0  0  0
    9.0194  -15.7246   26.9621 C   0  0  0  0  0  0  0  0  0  0  0  0
    8.5007  -17.0203   26.9419 O   0  0  0  0  0  0  0  0  0  0  0  0
    9.9885  -15.4316   27.7360 O   0  0  0  0  0  0  0  0  0  0  0  0
  1  2  1  0
  2  3  1  0
  4  3  1  0
  5  4  1  0
  5  1  1  0
  6  7  2  0
  5  6  1  1
  9  8  1  6
  9 11  1  0
 10  9  1  0
 11 12  1  6
 11 13  1  0
 12  6  1  0
 13 20  1  0
 14 13  2  0
 16 15  1  0
 17 18  1  1
 17 16  1  0
 19 21  1  0
 19 17  1  0
 19 20  1  6
 21 22  1  0
 23 21  2  0
M  END
$$$$
