PTI.pdb
     RDKit          3D

 23 23  0  0  1  0  0  0  0  0999 V2000
    8.8631  -14.8921   19.0558 N   0  0  0  0  0  0  0  0  0  0  0  0
    8.7416  -14.3206   17.7127 C   0  0  0  0  0  0  0  0  0  0  0  0
    7.4414  -13.5478   17.8368 C   0  0  0  0  0  0  0  0  0  0  0  0
    7.5750  -12.9202   19.2023 C   0  0  0  0  0  0  0  0  0  0  0  0
    8.6140  -13.7567   19.8861 C   0  0  1  0  0  0  0  0  0  0  0  0
    8.1375  -14.1268   21.2435 C   0  0  0  0  0  0  0  0  0  0  0  0
    7.6752  -13.2650   22.0382 O   0  0  0  0  0  0  0  0  0  0  0  0
    6.5237  -17.8194   21.8234 C   0  0  0  0  0  0  0  0  0  0  0  0
    7.5438  -17.4884   22.9086 C   0  0  1  0  0  0  0  0  0  0  0  0
    8.7310  -18.1514   22.7150 O   0  0  0  0  0  0  0  0  0  0  0  0
    7.7231  -15.9651   22.9151 C   0  0  2  0  0  0  0  0  0  0  0  0
    8.1978  -15.4681   21.6655 N   0  0  0  0  0  0  0  0  0  0  0  0
    8.5671  -15.5681   24.0683 C   0  0  0  0  0  0  0  0  0  0  0  0
    9.7571  -15.2468   23.8266 O   0  0  0  0  0  0  0  0  0  0  0  0
    6.3604  -11.9205   26.7880 C   0  0  0  0  0  0  0  0  0  0  0  0
    7.5163  -12.6805   26.2008 C   0  0  0  0  0  0  0  0  0  0  0  0
    8.1237  -13.7079   27.0572 C   0  0  2  0  0  0  0  0  0  0  0  0
    8.9926  -12.9938   28.1273 C   0  0  0  0  0  0  0  0  0  0  0  0
    8.8424  -14.8441   26.4691 C   0  0  2  0  0  0  0  0  0  0  0  0
    8.1238  -15.5284   25.4059 N   0  0  0  0  0  0  0  0  0  0  0  0
    9.3075  -15.8234   27.4450 C   0  0  0  0  0  0  0  0  0  0  0  0
    8.7829  -17.1165   27.4122 O   0  0  0  0  0  0  0  0  0  0  0  0
   10.1793  -15.5050   28.3182 O   0  0  0  0  0  0  0  0  0  0  0  0
  1  2  1  0
  2  3  1  0
  4  3  1  0
  5  4  1  0
  5  1  1  0
  6  7  2  0
  5  6  1  1
  9  8  1  6
  9 11  1  0
 10  9  1  0
 11 12  1  6
 11 13  1  0
 12  6  1  0
 13 20  1  0
 14 13  2  0
 16 15  1  0
 17 18  1  1
 17 16  1  0
 19 21  1  0
 19 17  1  0
 19 20  1  6
 21 22  1  0
 23 21  2  0
M  END
$$$$
