PTI.pdb
     RDKit          3D

 23 23  0  0  1  0  0  0  0  0999 V2000
    8.7687  -15.1348   18.4651 N   0  0  0  0  0  0  0  0  0  0  0  0
    8.7925  -14.5842   17.1080 C   0  0  0  0  0  0  0  0  0  0  0  0
    7.7041  -13.5304   17.1974 C   0  0  0  0  0  0  0  0  0  0  0  0
    7.9677  -12.9166   18.5502 C   0  0  0  0  0  0  0  0  0  0  0  0
    8.7809  -13.9523   19.2663 C   0  0  1  0  0  0  0  0  0  0  0  0
    8.2213  -14.1692   20.6252 C   0  0  0  0  0  0  0  0  0  0  0  0
    8.0659  -13.2159   21.4346 O   0  0  0  0  0  0  0  0  0  0  0  0
    6.0774  -17.6900   21.1788 C   0  0  0  0  0  0  0  0  0  0  0  0
    6.9218  -17.2963   22.3868 C   0  0  1  0  0  0  0  0  0  0  0  0
    8.0683  -18.0473   22.4772 O   0  0  0  0  0  0  0  0  0  0  0  0
    7.2179  -15.7962   22.2657 C   0  0  2  0  0  0  0  0  0  0  0  0
    7.8516  -15.4648   21.0318 N   0  0  0  0  0  0  0  0  0  0  0  0
    7.9714  -15.3395   23.4587 C   0  0  0  0  0  0  0  0  0  0  0  0
    9.2185  -15.2390   23.3477 O   0  0  0  0  0  0  0  0  0  0  0  0
    6.0442  -11.7547   27.6132 C   0  0  0  0  0  0  0  0  0  0  0  0
    6.2936  -12.9674   26.7615 C   0  0  0  0  0  0  0  0  0  0  0  0
    7.6687  -13.1541   26.2795 C   0  0  2  0  0  0  0  0  0  0  0  0
    7.9610  -12.0613   25.2163 C   0  0  0  0  0  0  0  0  0  0  0  0
    8.1297  -14.4698   25.8215 C   0  0  2  0  0  0  0  0  0  0  0  0
    7.3835  -15.0138   24.6979 N   0  0  0  0  0  0  0  0  0  0  0  0
    8.2108  -15.4726   26.8777 C   0  0  0  0  0  0  0  0  0  0  0  0
    9.0877  -15.2662   27.9439 O   0  0  0  0  0  0  0  0  0  0  0  0
    7.4935  -16.5247   26.8293 O   0  0  0  0  0  0  0  0  0  0  0  0
  1  2  1  0
  2  3  1  0
  4  3  1  0
  5  4  1  0
  5  1  1  0
  6  7  2  0
  5  6  1  1
  9  8  1  6
  9 11  1  0
 10  9  1  0
 11 12  1  6
 11 13  1  0
 12  6  1  0
 13 20  1  0
 14 13  2  0
 16 15  1  0
 17 18  1  6
 17 16  1  0
 19 21  1  0
 19 17  1  0
 19 20  1  6
 21 22  1  0
 23 21  2  0
M  END
$$$$
