PTI.pdb
     RDKit          3D

 23 23  0  0  1  0  0  0  0  0999 V2000
    8.1835  -15.1246   17.6105 N   0  0  0  0  0  0  0  0  0  0  0  0
    8.5115  -14.0698   16.6487 C   0  0  0  0  0  0  0  0  0  0  0  0
    7.9855  -12.8407   17.3670 C   0  0  0  0  0  0  0  0  0  0  0  0
    8.4218  -13.0939   18.7889 C   0  0  0  0  0  0  0  0  0  0  0  0
    8.6680  -14.5717   18.8352 C   0  0  1  0  0  0  0  0  0  0  0  0
    8.0030  -15.1475   20.0322 C   0  0  0  0  0  0  0  0  0  0  0  0
    6.7509  -15.2755   20.0938 O   0  0  0  0  0  0  0  0  0  0  0  0
    8.0102  -18.3524   21.5153 C   0  0  0  0  0  0  0  0  0  0  0  0
    8.6482  -17.5178   22.6217 C   0  0  1  0  0  0  0  0  0  0  0  0
   10.0090  -17.6957   22.6776 O   0  0  0  0  0  0  0  0  0  0  0  0
    8.2633  -16.0550   22.3676 C   0  0  2  0  0  0  0  0  0  0  0  0
    8.7772  -15.5642   21.1311 N   0  0  0  0  0  0  0  0  0  0  0  0
    8.6482  -15.2285   23.5375 C   0  0  0  0  0  0  0  0  0  0  0  0
    9.7229  -14.5834   23.4575 O   0  0  0  0  0  0  0  0  0  0  0  0
    6.5864  -11.0610   27.2862 C   0  0  0  0  0  0  0  0  0  0  0  0
    7.5270  -12.2301   27.2034 C   0  0  0  0  0  0  0  0  0  0  0  0
    7.3092  -13.1648   26.0912 C   0  0  2  0  0  0  0  0  0  0  0  0
    5.8567  -13.7039   26.1899 C   0  0  0  0  0  0  0  0  0  0  0  0
    8.2577  -14.2539   25.8314 C   0  0  2  0  0  0  0  0  0  0  0  0
    7.8923  -15.1214   24.7227 N   0  0  0  0  0  0  0  0  0  0  0  0
    8.5625  -15.0693   27.0019 C   0  0  0  0  0  0  0  0  0  0  0  0
    9.2822  -14.5027   28.0551 O   0  0  0  0  0  0  0  0  0  0  0  0
    8.1799  -16.2832   27.0639 O   0  0  0  0  0  0  0  0  0  0  0  0
  1  2  1  0
  2  3  1  0
  4  3  1  0
  5  4  1  0
  5  1  1  0
  6  7  2  0
  5  6  1  1
  9  8  1  6
  9 11  1  0
 10  9  1  0
 11 12  1  6
 11 13  1  0
 12  6  1  0
 13 20  1  0
 14 13  2  0
 16 15  1  0
 17 18  1  1
 17 16  1  0
 19 21  1  0
 19 17  1  0
 19 20  1  6
 21 22  1  0
 23 21  2  0
M  END
$$$$
