TYR.pdb
     RDKit          3D

 31 31  0  0  1  0  0  0  0  0999 V2000
    6.9396  -15.9401   19.0177 C   0  0  0  0  0  0  0  0  0  0  0  0
    7.4574  -14.6722   18.4126 C   0  0  1  0  0  0  0  0  0  0  0  0
    6.9584  -14.4846   17.1225 O   0  0  0  0  0  0  0  0  0  0  0  0
    7.0435  -13.4877   19.2550 C   0  0  2  0  0  0  0  0  0  0  0  0
    7.3949  -12.2419   18.5800 N   0  0  0  0  0  0  0  0  0  0  0  0
    7.7281  -13.5389   20.5601 C   0  0  0  0  0  0  0  0  0  0  0  0
    8.9770  -13.3800   20.6177 O   0  0  0  0  0  0  0  0  0  0  0  0
    8.4443  -14.3058   29.4701 O   0  0  0  0  0  0  0  0  0  0  0  0
    8.0433  -14.0936   28.1523 C   0  0  0  0  0  0  0  0  0  0  0  0
    7.3112  -15.0541   27.4861 C   0  0  0  0  0  0  0  0  0  0  0  0
    6.9081  -14.8565   26.1831 C   0  0  0  0  0  0  0  0  0  0  0  0
    7.2170  -13.6865   25.4786 C   0  0  0  0  0  0  0  0  0  0  0  0
    6.7648  -13.5219   24.0899 C   0  0  0  0  0  0  0  0  0  0  0  0
    7.7641  -13.8681   23.0293 C   0  0  2  0  0  0  0  0  0  0  0  0
    7.0098  -13.7643   21.7581 N   0  0  0  0  0  0  0  0  0  0  0  0
    8.2663  -15.2594   23.0810 C   0  0  0  0  0  0  0  0  0  0  0  0
    7.5144  -16.2169   22.8057 O   0  0  0  0  0  0  0  0  0  0  0  0
    7.9494  -12.7413   26.1652 C   0  0  0  0  0  0  0  0  0  0  0  0
    8.3571  -12.9350   27.4744 C   0  0  0  0  0  0  0  0  0  0  0  0
   13.3588  -18.0929   17.8654 N   0  0  0  0  0  0  0  0  0  0  0  0
   13.7705  -18.3398   19.2204 C   0  0  0  0  0  0  0  0  0  0  0  0
   14.9901  -18.6073   19.4795 N   0  0  0  0  0  0  0  0  0  0  0  0
   12.7430  -18.2708   20.2441 N   0  0  0  0  0  0  0  0  0  0  0  0
   13.1335  -18.3973   21.5982 C   0  0  0  0  0  0  0  0  0  0  0  0
   12.1462  -18.2215   22.6739 C   0  0  0  0  0  0  0  0  0  0  0  0
   11.3310  -16.9837   22.6565 C   0  0  0  0  0  0  0  0  0  0  0  0
   10.1785  -16.8720   23.5558 C   0  0  2  0  0  0  0  0  0  0  0  0
    9.6055  -15.5162   23.4390 N   0  0  0  0  0  0  0  0  0  0  0  0
   10.4750  -17.1810   24.9635 C   0  0  0  0  0  0  0  0  0  0  0  0
   10.9121  -18.4685   25.3213 O   0  0  0  0  0  0  0  0  0  0  0  0
   10.3705  -16.3713   25.8980 O   0  0  0  0  0  0  0  0  0  0  0  0
  2  4  1  0
  2  1  1  1
  3  2  1  0
  4  5  1  6
  4  6  1  0
  6 15  1  0
  6  7  2  0
  8  9  1  0
  9 10  2  0
 10 11  1  0
 12 13  1  0
 12 11  2  0
 14 13  1  1
 14 16  1  0
 15 14  1  0
 16 17  2  0
 18 12  1  0
 19  9  1  0
 19 18  2  0
 20 21  1  0
 21 22  2  0
 21 23  1  0
 23 24  1  0
 24 25  1  0
 25 26  1  0
 27 26  1  6
 27 29  1  0
 28 27  1  0
 28 16  1  0
 29 30  1  0
 31 29  2  0
M  END
$$$$
