TYR.pdb
     RDKit          3D

 31 31  0  0  1  0  0  0  0  0999 V2000
    6.5886  -14.2957   18.0798 C   0  0  0  0  0  0  0  0  0  0  0  0
    7.3596  -14.5353   19.3409 C   0  0  1  0  0  0  0  0  0  0  0  0
    8.6152  -15.0829   19.0719 O   0  0  0  0  0  0  0  0  0  0  0  0
    7.5619  -13.2335   20.0813 C   0  0  2  0  0  0  0  0  0  0  0  0
    8.2604  -12.2737   19.2315 N   0  0  0  0  0  0  0  0  0  0  0  0
    8.3597  -13.4697   21.2988 C   0  0  0  0  0  0  0  0  0  0  0  0
    9.6129  -13.3413   21.2599 O   0  0  0  0  0  0  0  0  0  0  0  0
    9.9491  -14.9064   29.9975 O   0  0  0  0  0  0  0  0  0  0  0  0
    9.3895  -14.6818   28.7410 C   0  0  0  0  0  0  0  0  0  0  0  0
    9.3778  -13.4117   28.2031 C   0  0  0  0  0  0  0  0  0  0  0  0
    8.8280  -13.1762   26.9616 C   0  0  0  0  0  0  0  0  0  0  0  0
    8.2607  -14.2002   26.1932 C   0  0  0  0  0  0  0  0  0  0  0  0
    7.6862  -13.8995   24.8743 C   0  0  0  0  0  0  0  0  0  0  0  0
    8.6050  -14.0710   23.7040 C   0  0  2  0  0  0  0  0  0  0  0  0
    7.7461  -13.8403   22.5187 N   0  0  0  0  0  0  0  0  0  0  0  0
    9.1512  -15.4367   23.5394 C   0  0  0  0  0  0  0  0  0  0  0  0
    8.4261  -16.3655   23.1275 O   0  0  0  0  0  0  0  0  0  0  0  0
    8.2841  -15.4607   26.7517 C   0  0  0  0  0  0  0  0  0  0  0  0
    8.8351  -15.7027   27.9989 C   0  0  0  0  0  0  0  0  0  0  0  0
   15.2527  -14.2002   19.7893 N   0  0  0  0  0  0  0  0  0  0  0  0
   14.2519  -14.6957   18.8840 C   0  0  0  0  0  0  0  0  0  0  0  0
   14.3541  -14.4714   17.6329 N   0  0  0  0  0  0  0  0  0  0  0  0
   13.1498  -15.4418   19.4648 N   0  0  0  0  0  0  0  0  0  0  0  0
   13.2445  -15.8346   20.8208 C   0  0  0  0  0  0  0  0  0  0  0  0
   12.1448  -16.5760   21.4562 C   0  0  0  0  0  0  0  0  0  0  0  0
   12.3072  -16.9494   22.8814 C   0  0  0  0  0  0  0  0  0  0  0  0
   11.1213  -17.0371   23.7389 C   0  0  2  0  0  0  0  0  0  0  0  0
   10.5022  -15.7006   23.8436 N   0  0  0  0  0  0  0  0  0  0  0  0
   11.3807  -17.5856   25.0794 C   0  0  0  0  0  0  0  0  0  0  0  0
   11.8030  -18.9191   25.2211 O   0  0  0  0  0  0  0  0  0  0  0  0
   11.2563  -16.9474   26.1362 O   0  0  0  0  0  0  0  0  0  0  0  0
  2  4  1  0
  2  1  1  6
  3  2  1  0
  4  5  1  6
  4  6  1  0
  6 15  1  0
  6  7  2  0
  8  9  1  0
  9 10  2  0
 10 11  1  0
 12 13  1  0
 12 11  2  0
 14 13  1  1
 14 16  1  0
 15 14  1  0
 16 17  2  0
 18 12  1  0
 19  9  1  0
 19 18  2  0
 20 21  1  0
 21 22  2  0
 21 23  1  0
 23 24  1  0
 24 25  1  0
 25 26  1  0
 27 26  1  6
 27 29  1  0
 28 27  1  0
 28 16  1  0
 29 30  1  0
 31 29  2  0
M  END
$$$$
