TYR.pdb
     RDKit          3D

 31 31  0  0  1  0  0  0  0  0999 V2000
    8.2046  -17.6697   19.0244 C   0  0  0  0  0  0  0  0  0  0  0  0
    8.4512  -16.4341   18.2154 C   0  0  1  0  0  0  0  0  0  0  0  0
    8.0882  -16.6206   16.8805 O   0  0  0  0  0  0  0  0  0  0  0  0
    7.6432  -15.2822   18.7670 C   0  0  2  0  0  0  0  0  0  0  0  0
    7.7766  -14.1135   17.9025 N   0  0  0  0  0  0  0  0  0  0  0  0
    8.1210  -14.9389   20.1192 C   0  0  0  0  0  0  0  0  0  0  0  0
    9.1888  -14.2838   20.2576 O   0  0  0  0  0  0  0  0  0  0  0  0
    7.2459  -12.2739   28.5064 O   0  0  0  0  0  0  0  0  0  0  0  0
    7.1172  -12.9230   27.2798 C   0  0  0  0  0  0  0  0  0  0  0  0
    6.4912  -12.2942   26.2238 C   0  0  0  0  0  0  0  0  0  0  0  0
    6.3578  -12.9248   25.0057 C   0  0  0  0  0  0  0  0  0  0  0  0
    6.8443  -14.2185   24.7809 C   0  0  0  0  0  0  0  0  0  0  0  0
    6.6777  -14.8494   23.4641 C   0  0  0  0  0  0  0  0  0  0  0  0
    7.9005  -14.8976   22.6005 C   0  0  2  0  0  0  0  0  0  0  0  0
    7.4031  -15.3312   21.2736 N   0  0  0  0  0  0  0  0  0  0  0  0
    8.9023  -15.9112   23.0000 C   0  0  0  0  0  0  0  0  0  0  0  0
    8.6310  -17.1283   22.9459 O   0  0  0  0  0  0  0  0  0  0  0  0
    7.4659  -14.8264   25.8511 C   0  0  0  0  0  0  0  0  0  0  0  0
    7.6023  -14.1973   27.0771 C   0  0  0  0  0  0  0  0  0  0  0  0
   15.1573  -17.8398   25.2793 N   0  0  0  0  0  0  0  0  0  0  0  0
   16.3747  -17.5725   24.5631 C   0  0  0  0  0  0  0  0  0  0  0  0
   17.4614  -18.1394   24.9151 N   0  0  0  0  0  0  0  0  0  0  0  0
   16.2937  -16.6434   23.4501 N   0  0  0  0  0  0  0  0  0  0  0  0
   15.0599  -15.9964   23.2029 C   0  0  0  0  0  0  0  0  0  0  0  0
   13.7971  -16.6247   23.6192 C   0  0  0  0  0  0  0  0  0  0  0  0
   12.5418  -15.8922   23.3283 C   0  0  0  0  0  0  0  0  0  0  0  0
   11.2645  -16.4509   23.7819 C   0  0  2  0  0  0  0  0  0  0  0  0
   10.1788  -15.5091   23.4430 N   0  0  0  0  0  0  0  0  0  0  0  0
   11.2222  -16.7837   25.2146 C   0  0  0  0  0  0  0  0  0  0  0  0
   10.3802  -16.0604   26.0774 O   0  0  0  0  0  0  0  0  0  0  0  0
   11.8898  -17.6840   25.7471 O   0  0  0  0  0  0  0  0  0  0  0  0
  2  4  1  0
  2  1  1  1
  3  2  1  0
  4  5  1  6
  4  6  1  0
  6 15  1  0
  6  7  2  0
  8  9  1  0
  9 10  2  0
 10 11  1  0
 12 13  1  0
 12 11  2  0
 14 13  1  1
 14 16  1  0
 15 14  1  0
 16 17  2  0
 18 12  1  0
 19  9  1  0
 19 18  2  0
 20 21  1  0
 21 22  2  0
 21 23  1  0
 23 24  1  0
 24 25  1  0
 25 26  1  0
 27 26  1  1
 27 29  1  0
 28 27  1  0
 28 16  1  0
 29 30  1  0
 31 29  2  0
M  END
$$$$
