TYR.pdb
     RDKit          3D

 31 31  0  0  1  0  0  0  0  0999 V2000
    7.7288  -16.2183   18.5208 C   0  0  0  0  0  0  0  0  0  0  0  0
    8.1510  -14.9226   17.9005 C   0  0  1  0  0  0  0  0  0  0  0  0
    7.7602  -14.8493   16.5624 O   0  0  0  0  0  0  0  0  0  0  0  0
    7.5223  -13.7638   18.6393 C   0  0  2  0  0  0  0  0  0  0  0  0
    7.8164  -12.5094   17.9529 N   0  0  0  0  0  0  0  0  0  0  0  0
    8.0552  -13.6985   20.0127 C   0  0  0  0  0  0  0  0  0  0  0  0
    9.2428  -13.3230   20.2055 O   0  0  0  0  0  0  0  0  0  0  0  0
    7.8074  -13.6306   28.9639 O   0  0  0  0  0  0  0  0  0  0  0  0
    7.5329  -13.6346   27.5975 C   0  0  0  0  0  0  0  0  0  0  0  0
    7.2129  -14.8134   26.9569 C   0  0  0  0  0  0  0  0  0  0  0  0
    6.9389  -14.8309   25.6064 C   0  0  0  0  0  0  0  0  0  0  0  0
    6.9711  -13.6686   24.8262 C   0  0  0  0  0  0  0  0  0  0  0  0
    6.6716  -13.7378   23.3890 C   0  0  0  0  0  0  0  0  0  0  0  0
    7.8466  -13.9434   22.4832 C   0  0  2  0  0  0  0  0  0  0  0  0
    7.2581  -14.0506   21.1275 N   0  0  0  0  0  0  0  0  0  0  0  0
    8.5817  -15.2099   22.6987 C   0  0  0  0  0  0  0  0  0  0  0  0
    8.1598  -16.2797   22.2134 O   0  0  0  0  0  0  0  0  0  0  0  0
    7.2935  -12.5030   25.4885 C   0  0  0  0  0  0  0  0  0  0  0  0
    7.5697  -12.4800   26.8452 C   0  0  0  0  0  0  0  0  0  0  0  0
   16.6664  -19.6603   22.8718 N   0  0  0  0  0  0  0  0  0  0  0  0
   16.3811  -18.2602   22.7137 C   0  0  0  0  0  0  0  0  0  0  0  0
   17.2356  -17.3880   23.0812 N   0  0  0  0  0  0  0  0  0  0  0  0
   15.0979  -17.9112   22.1305 N   0  0  0  0  0  0  0  0  0  0  0  0
   14.3223  -16.9103   22.7621 C   0  0  0  0  0  0  0  0  0  0  0  0
   12.9793  -17.2249   23.2720 C   0  0  0  0  0  0  0  0  0  0  0  0
   11.9140  -16.2171   23.0567 C   0  0  0  0  0  0  0  0  0  0  0  0
   10.5985  -16.4226   23.6704 C   0  0  2  0  0  0  0  0  0  0  0  0
    9.7721  -15.2182   23.4539 N   0  0  0  0  0  0  0  0  0  0  0  0
   10.6426  -16.7604   25.1018 C   0  0  0  0  0  0  0  0  0  0  0  0
   11.0848  -18.0315   25.5084 O   0  0  0  0  0  0  0  0  0  0  0  0
   10.3124  -15.9896   26.0165 O   0  0  0  0  0  0  0  0  0  0  0  0
  2  4  1  0
  2  1  1  1
  3  2  1  0
  4  5  1  6
  4  6  1  0
  6 15  1  0
  6  7  2  0
  8  9  1  0
  9 10  2  0
 10 11  1  0
 12 13  1  0
 12 11  2  0
 14 13  1  1
 14 16  1  0
 15 14  1  0
 16 17  2  0
 18 12  1  0
 19  9  1  0
 19 18  2  0
 20 21  1  0
 21 22  2  0
 21 23  1  0
 23 24  1  0
 24 25  1  0
 25 26  1  0
 27 26  1  1
 27 29  1  0
 28 27  1  0
 28 16  1  0
 29 30  1  0
 31 29  2  0
M  END
$$$$
