TYR.pdb
     RDKit          3D

 31 31  0  0  1  0  0  0  0  0999 V2000
    7.4716  -18.6965   20.0147 C   0  0  0  0  0  0  0  0  0  0  0  0
    8.0429  -17.9309   18.8616 C   0  0  1  0  0  0  0  0  0  0  0  0
    7.7118  -18.5262   17.6432 O   0  0  0  0  0  0  0  0  0  0  0  0
    7.5047  -16.5188   18.8581 C   0  0  2  0  0  0  0  0  0  0  0  0
    7.9262  -15.8219   17.6466 N   0  0  0  0  0  0  0  0  0  0  0  0
    8.0099  -15.7883   20.0352 C   0  0  0  0  0  0  0  0  0  0  0  0
    9.2080  -15.3978   20.0620 O   0  0  0  0  0  0  0  0  0  0  0  0
    7.5984  -11.9443   28.1300 O   0  0  0  0  0  0  0  0  0  0  0  0
    7.3474  -12.5064   26.8797 C   0  0  0  0  0  0  0  0  0  0  0  0
    7.5182  -11.7570   25.7345 C   0  0  0  0  0  0  0  0  0  0  0  0
    7.2740  -12.3010   24.4920 C   0  0  0  0  0  0  0  0  0  0  0  0
    6.8458  -13.6244   24.3310 C   0  0  0  0  0  0  0  0  0  0  0  0
    6.5980  -14.1596   22.9848 C   0  0  0  0  0  0  0  0  0  0  0  0
    7.7602  -14.8336   22.3228 C   0  0  2  0  0  0  0  0  0  0  0  0
    7.1746  -15.5140   21.1438 N   0  0  0  0  0  0  0  0  0  0  0  0
    8.3955  -15.9036   23.1242 C   0  0  0  0  0  0  0  0  0  0  0  0
    7.7832  -16.9636   23.3675 O   0  0  0  0  0  0  0  0  0  0  0  0
    6.6821  -14.3535   25.4898 C   0  0  0  0  0  0  0  0  0  0  0  0
    6.9260  -13.8116   26.7406 C   0  0  0  0  0  0  0  0  0  0  0  0
   16.2513  -20.3590   23.6358 N   0  0  0  0  0  0  0  0  0  0  0  0
   15.1200  -19.7489   24.2795 C   0  0  0  0  0  0  0  0  0  0  0  0
   15.2740  -19.1095   25.3721 N   0  0  0  0  0  0  0  0  0  0  0  0
   13.8303  -19.9033   23.6304 N   0  0  0  0  0  0  0  0  0  0  0  0
   13.0739  -18.7402   23.3528 C   0  0  0  0  0  0  0  0  0  0  0  0
   12.7684  -17.7813   24.4251 C   0  0  0  0  0  0  0  0  0  0  0  0
   11.8680  -16.6513   24.0943 C   0  0  0  0  0  0  0  0  0  0  0  0
   10.4347  -16.7701   24.3785 C   0  0  2  0  0  0  0  0  0  0  0  0
    9.7051  -15.7355   23.6184 N   0  0  0  0  0  0  0  0  0  0  0  0
   10.0906  -16.6914   25.8069 C   0  0  0  0  0  0  0  0  0  0  0  0
   10.0774  -17.8591   26.5898 O   0  0  0  0  0  0  0  0  0  0  0  0
    9.8021  -15.6425   26.4037 O   0  0  0  0  0  0  0  0  0  0  0  0
  2  4  1  0
  2  1  1  1
  3  2  1  0
  4  5  1  6
  4  6  1  0
  6 15  1  0
  6  7  2  0
  8  9  1  0
  9 10  2  0
 10 11  1  0
 12 13  1  0
 12 11  2  0
 14 13  1  1
 14 16  1  0
 15 14  1  0
 16 17  2  0
 18 12  1  0
 19  9  1  0
 19 18  2  0
 20 21  1  0
 21 22  2  0
 21 23  1  0
 23 24  1  0
 24 25  1  0
 25 26  1  0
 27 26  1  1
 27 29  1  0
 28 27  1  0
 28 16  1  0
 29 30  1  0
 31 29  2  0
M  END
$$$$
