TYR.pdb
     RDKit          3D

 31 31  0  0  1  0  0  0  0  0999 V2000
    7.1367  -15.8846   18.6555 C   0  0  0  0  0  0  0  0  0  0  0  0
    7.6921  -14.6577   18.0013 C   0  0  1  0  0  0  0  0  0  0  0  0
    7.2216  -14.5222   16.6941 O   0  0  0  0  0  0  0  0  0  0  0  0
    7.2871  -13.4262   18.7781 C   0  0  2  0  0  0  0  0  0  0  0  0
    7.7276  -12.2224   18.0797 N   0  0  0  0  0  0  0  0  0  0  0  0
    7.8995  -13.4573   20.1191 C   0  0  0  0  0  0  0  0  0  0  0  0
    9.1502  -13.3558   20.2379 O   0  0  0  0  0  0  0  0  0  0  0  0
    8.2469  -13.4515   29.0665 O   0  0  0  0  0  0  0  0  0  0  0  0
    7.8774  -13.4017   27.7237 C   0  0  0  0  0  0  0  0  0  0  0  0
    8.1733  -12.2900   26.9628 C   0  0  0  0  0  0  0  0  0  0  0  0
    7.8139  -12.2283   25.6338 C   0  0  0  0  0  0  0  0  0  0  0  0
    7.1390  -13.2768   24.9967 C   0  0  0  0  0  0  0  0  0  0  0  0
    6.7765  -13.1643   23.5768 C   0  0  0  0  0  0  0  0  0  0  0  0
    7.7901  -13.6733   22.5987 C   0  0  2  0  0  0  0  0  0  0  0  0
    7.1097  -13.5998   21.2844 N   0  0  0  0  0  0  0  0  0  0  0  0
    8.1624  -15.0949   22.7747 C   0  0  0  0  0  0  0  0  0  0  0  0
    7.3276  -16.0001   22.5705 O   0  0  0  0  0  0  0  0  0  0  0  0
    6.8541  -14.3770   25.7775 C   0  0  0  0  0  0  0  0  0  0  0  0
    7.2129  -14.4439   27.1133 C   0  0  0  0  0  0  0  0  0  0  0  0
   14.5498  -19.2196   19.6372 N   0  0  0  0  0  0  0  0  0  0  0  0
   14.6065  -20.0520   20.8079 C   0  0  0  0  0  0  0  0  0  0  0  0
   15.2892  -21.1289   20.7944 N   0  0  0  0  0  0  0  0  0  0  0  0
   13.8588  -19.6059   21.9701 N   0  0  0  0  0  0  0  0  0  0  0  0
   12.7574  -18.7407   21.7694 C   0  0  0  0  0  0  0  0  0  0  0  0
   11.9387  -18.3059   22.9111 C   0  0  0  0  0  0  0  0  0  0  0  0
   11.2565  -16.9945   22.8018 C   0  0  0  0  0  0  0  0  0  0  0  0
    9.9225  -16.8298   23.3869 C   0  0  2  0  0  0  0  0  0  0  0  0
    9.4700  -15.4407   23.1721 N   0  0  0  0  0  0  0  0  0  0  0  0
    9.8382  -17.1788   24.8139 C   0  0  0  0  0  0  0  0  0  0  0  0
   10.1420  -16.2139   25.7903 O   0  0  0  0  0  0  0  0  0  0  0  0
    9.5072  -18.2937   25.2465 O   0  0  0  0  0  0  0  0  0  0  0  0
  2  4  1  0
  2  1  1  1
  3  2  1  0
  4  5  1  6
  4  6  1  0
  6 15  1  0
  6  7  2  0
  8  9  1  0
  9 10  2  0
 10 11  1  0
 12 13  1  0
 12 11  2  0
 14 13  1  1
 14 16  1  0
 15 14  1  0
 16 17  2  0
 18 12  1  0
 19  9  1  0
 19 18  2  0
 20 21  1  0
 21 22  2  0
 21 23  1  0
 23 24  1  0
 24 25  1  0
 25 26  1  0
 27 26  1  1
 27 29  1  0
 28 27  1  0
 28 16  1  0
 29 30  1  0
 31 29  2  0
M  END
$$$$
