PPP.pdb
     RDKit          3D

 22 24  0  0  1  0  0  0  0  0999 V2000
    8.8629  -14.8794   21.0642 N   0  0  0  0  0  0  0  0  0  0  0  0
    7.9685  -15.3720   19.9877 C   0  0  0  0  0  0  0  0  0  0  0  0
    6.8095  -16.0371   20.6891 C   0  0  0  0  0  0  0  0  0  0  0  0
    7.1412  -15.8673   22.1561 C   0  0  0  0  0  0  0  0  0  0  0  0
    7.9333  -14.5704   22.1256 C   0  0  1  0  0  0  0  0  0  0  0  0
    8.4379  -14.0935   23.3772 C   0  0  0  0  0  0  0  0  0  0  0  0
    9.7188  -13.8588   23.4646 O   0  0  0  0  0  0  0  0  0  0  0  0
    7.6708  -13.8572   24.5268 N   0  0  0  0  0  0  0  0  0  0  0  0
    6.2515  -13.8077   24.7495 C   0  0  0  0  0  0  0  0  0  0  0  0
    6.1761  -12.5561   25.6454 C   0  0  0  0  0  0  0  0  0  0  0  0
    7.2552  -12.8895   26.6466 C   0  0  0  0  0  0  0  0  0  0  0  0
    8.3058  -13.5795   25.8493 C   0  0  1  0  0  0  0  0  0  0  0  0
    8.7375  -14.8663   26.4307 C   0  0  0  0  0  0  0  0  0  0  0  0
    8.4192  -15.9284   25.8494 O   0  0  0  0  0  0  0  0  0  0  0  0
    9.4946  -14.9507   27.6151 N   0  0  0  0  0  0  0  0  0  0  0  0
    9.3499  -14.0472   28.7386 C   0  0  0  0  0  0  0  0  0  0  0  0
   10.5164  -14.2917   29.6542 C   0  0  0  0  0  0  0  0  0  0  0  0
   11.4934  -15.0162   28.7306 C   0  0  0  0  0  0  0  0  0  0  0  0
   10.5298  -15.9013   27.9638 C   0  0  1  0  0  0  0  0  0  0  0  0
   10.0126  -16.9173   28.9257 C   0  0  0  0  0  0  0  0  0  0  0  0
   10.6857  -17.8676   29.3655 O   0  0  0  0  0  0  0  0  0  0  0  0
    8.7004  -16.8038   29.3628 O   0  0  0  0  0  0  0  0  0  0  0  0
  1  2  1  0
  3  2  1  0
  4  3  1  0
  4  5  1  0
  5  1  1  0
  6  8  1  0
  5  6  1  1
  7  6  2  0
  8  9  1  0
 10  9  1  0
 11 10  1  0
 11 12  1  0
 12  8  1  0
 12 13  1  1
 13 15  1  0
 14 13  2  0
 15 19  1  0
 15 16  1  0
 16 17  1  0
 18 17  1  0
 19 20  1  1
 19 18  1  0
 20 22  1  0
 21 20  2  0
M  END
$$$$
