PPP.pdb
     RDKit          3D

 22 24  0  0  1  0  0  0  0  0999 V2000
    8.5670  -14.8831   20.9718 N   0  0  0  0  0  0  0  0  0  0  0  0
    7.6364  -15.4599   19.9703 C   0  0  0  0  0  0  0  0  0  0  0  0
    6.6686  -16.3134   20.7528 C   0  0  0  0  0  0  0  0  0  0  0  0
    7.1348  -16.1529   22.1839 C   0  0  0  0  0  0  0  0  0  0  0  0
    7.7275  -14.7539   22.1400 C   0  0  1  0  0  0  0  0  0  0  0  0
    8.2963  -14.2563   23.3555 C   0  0  0  0  0  0  0  0  0  0  0  0
    9.5753  -13.9966   23.3645 O   0  0  0  0  0  0  0  0  0  0  0  0
    7.5945  -14.0242   24.5470 N   0  0  0  0  0  0  0  0  0  0  0  0
    6.1907  -14.0106   24.8559 C   0  0  0  0  0  0  0  0  0  0  0  0
    6.1346  -12.7483   25.7382 C   0  0  0  0  0  0  0  0  0  0  0  0
    7.2820  -13.0368   26.6754 C   0  0  0  0  0  0  0  0  0  0  0  0
    8.3010  -13.7094   25.8241 C   0  0  1  0  0  0  0  0  0  0  0  0
    8.8039  -14.9750   26.3947 C   0  0  0  0  0  0  0  0  0  0  0  0
    8.5883  -16.0429   25.7781 O   0  0  0  0  0  0  0  0  0  0  0  0
    9.5182  -15.0328   27.6069 N   0  0  0  0  0  0  0  0  0  0  0  0
    9.3115  -14.1241   28.7165 C   0  0  0  0  0  0  0  0  0  0  0  0
   10.4485  -14.3347   29.6766 C   0  0  0  0  0  0  0  0  0  0  0  0
   11.4753  -15.0435   28.7960 C   0  0  0  0  0  0  0  0  0  0  0  0
   10.5612  -15.9565   28.0018 C   0  0  1  0  0  0  0  0  0  0  0  0
   10.0318  -16.9767   28.9526 C   0  0  0  0  0  0  0  0  0  0  0  0
   10.4473  -18.1482   29.0212 O   0  0  0  0  0  0  0  0  0  0  0  0
    9.0127  -16.6055   29.8182 O   0  0  0  0  0  0  0  0  0  0  0  0
  1  2  1  0
  3  2  1  0
  4  3  1  0
  4  5  1  0
  5  1  1  0
  6  8  1  0
  5  6  1  1
  7  6  2  0
  8  9  1  0
 10  9  1  0
 11 10  1  0
 11 12  1  0
 12  8  1  0
 12 13  1  1
 13 15  1  0
 14 13  2  0
 15 19  1  0
 15 16  1  0
 16 17  1  0
 18 17  1  0
 19 20  1  1
 19 18  1  0
 20 22  1  0
 21 20  2  0
M  END
$$$$
