PPP.pdb
     RDKit          3D

 22 24  0  0  1  0  0  0  0  0999 V2000
    8.5028  -14.7275   21.0091 N   0  0  0  0  0  0  0  0  0  0  0  0
    7.5849  -15.2897   19.9879 C   0  0  0  0  0  0  0  0  0  0  0  0
    6.6057  -16.1519   20.7462 C   0  0  0  0  0  0  0  0  0  0  0  0
    7.0531  -16.0109   22.1854 C   0  0  0  0  0  0  0  0  0  0  0  0
    7.6481  -14.6124   22.1677 C   0  0  1  0  0  0  0  0  0  0  0  0
    8.2014  -14.1317   23.3971 C   0  0  0  0  0  0  0  0  0  0  0  0
    9.4686  -13.8194   23.4104 O   0  0  0  0  0  0  0  0  0  0  0  0
    7.4962  -13.9681   24.5978 N   0  0  0  0  0  0  0  0  0  0  0  0
    6.0937  -14.0143   24.9100 C   0  0  0  0  0  0  0  0  0  0  0  0
    5.9973  -12.7882   25.8386 C   0  0  0  0  0  0  0  0  0  0  0  0
    7.1571  -13.0715   26.7620 C   0  0  0  0  0  0  0  0  0  0  0  0
    8.1958  -13.6766   25.8842 C   0  0  1  0  0  0  0  0  0  0  0  0
    8.7438  -14.9443   26.4064 C   0  0  0  0  0  0  0  0  0  0  0  0
    8.5255  -16.0023   25.7739 O   0  0  0  0  0  0  0  0  0  0  0  0
    9.5043  -15.0147   27.5896 N   0  0  0  0  0  0  0  0  0  0  0  0
    9.3753  -14.0874   28.6954 C   0  0  0  0  0  0  0  0  0  0  0  0
   10.5421  -14.3285   29.6116 C   0  0  0  0  0  0  0  0  0  0  0  0
   11.5064  -15.0834   28.6991 C   0  0  0  0  0  0  0  0  0  0  0  0
   10.5289  -15.9713   27.9534 C   0  0  1  0  0  0  0  0  0  0  0  0
   10.0025  -16.9614   28.9371 C   0  0  0  0  0  0  0  0  0  0  0  0
   10.6570  -17.9260   29.3740 O   0  0  0  0  0  0  0  0  0  0  0  0
    8.7034  -16.8053   29.3993 O   0  0  0  0  0  0  0  0  0  0  0  0
  1  2  1  0
  3  2  1  0
  4  3  1  0
  4  5  1  0
  5  1  1  0
  6  8  1  0
  5  6  1  1
  7  6  2  0
  8  9  1  0
 10  9  1  0
 11 10  1  0
 11 12  1  0
 12  8  1  0
 12 13  1  1
 13 15  1  0
 14 13  2  0
 15 19  1  0
 15 16  1  0
 16 17  1  0
 18 17  1  0
 19 20  1  1
 19 18  1  0
 20 22  1  0
 21 20  2  0
M  END
$$$$
