PPP.pdb
     RDKit          3D

 22 24  0  0  1  0  0  0  0  0999 V2000
    8.6897  -14.9253   20.8843 N   0  0  0  0  0  0  0  0  0  0  0  0
    7.8145  -15.5793   19.8803 C   0  0  0  0  0  0  0  0  0  0  0  0
    6.8856  -16.4727   20.6653 C   0  0  0  0  0  0  0  0  0  0  0  0
    7.3145  -16.2530   22.1002 C   0  0  0  0  0  0  0  0  0  0  0  0
    7.8224  -14.8220   22.0345 C   0  0  1  0  0  0  0  0  0  0  0  0
    8.3375  -14.2643   23.2479 C   0  0  0  0  0  0  0  0  0  0  0  0
    9.5956  -13.9179   23.2697 O   0  0  0  0  0  0  0  0  0  0  0  0
    7.6034  -14.0586   24.4247 N   0  0  0  0  0  0  0  0  0  0  0  0
    6.1941  -14.0987   24.7053 C   0  0  0  0  0  0  0  0  0  0  0  0
    6.0719  -12.8389   25.5845 C   0  0  0  0  0  0  0  0  0  0  0  0
    7.2104  -13.0827   26.5450 C   0  0  0  0  0  0  0  0  0  0  0  0
    8.2714  -13.7162   25.7154 C   0  0  1  0  0  0  0  0  0  0  0  0
    8.8109  -14.9612   26.2977 C   0  0  0  0  0  0  0  0  0  0  0  0
    8.6911  -16.0292   25.6558 O   0  0  0  0  0  0  0  0  0  0  0  0
    9.4566  -14.9991   27.5486 N   0  0  0  0  0  0  0  0  0  0  0  0
    9.1725  -14.0873   28.6382 C   0  0  0  0  0  0  0  0  0  0  0  0
   10.2570  -14.2723   29.6622 C   0  0  0  0  0  0  0  0  0  0  0  0
   11.3435  -14.9689   28.8458 C   0  0  0  0  0  0  0  0  0  0  0  0
   10.4911  -15.9024   28.0080 C   0  0  1  0  0  0  0  0  0  0  0  0
    9.9261  -16.9255   28.9349 C   0  0  0  0  0  0  0  0  0  0  0  0
   10.5938  -17.8360   29.4593 O   0  0  0  0  0  0  0  0  0  0  0  0
    8.5731  -16.8663   29.2371 O   0  0  0  0  0  0  0  0  0  0  0  0
  1  2  1  0
  3  2  1  0
  4  3  1  0
  4  5  1  0
  5  1  1  0
  6  8  1  0
  5  6  1  1
  7  6  2  0
  8  9  1  0
 10  9  1  0
 11 10  1  0
 11 12  1  0
 12  8  1  0
 12 13  1  1
 13 15  1  0
 14 13  2  0
 15 19  1  0
 15 16  1  0
 16 17  1  0
 18 17  1  0
 19 20  1  1
 19 18  1  0
 20 22  1  0
 21 20  2  0
M  END
$$$$
