PPP.pdb
     RDKit          3D

 22 24  0  0  1  0  0  0  0  0999 V2000
    9.0663  -17.5972   17.0740 N   0  0  0  0  0  0  0  0  0  0  0  0
    8.1142  -18.3112   16.1878 C   0  0  0  0  0  0  0  0  0  0  0  0
    7.1774  -19.0561   17.1069 C   0  0  0  0  0  0  0  0  0  0  0  0
    7.6816  -18.6988   18.4887 C   0  0  0  0  0  0  0  0  0  0  0  0
    8.2584  -17.3152   18.2375 C   0  0  1  0  0  0  0  0  0  0  0  0
    8.8557  -16.6528   19.3569 C   0  0  0  0  0  0  0  0  0  0  0  0
   10.1535  -16.5139   19.3574 O   0  0  0  0  0  0  0  0  0  0  0  0
    8.1633  -16.1385   20.4623 N   0  0  0  0  0  0  0  0  0  0  0  0
    6.7671  -15.8930   20.7007 C   0  0  0  0  0  0  0  0  0  0  0  0
    6.8605  -14.5058   21.3654 C   0  0  0  0  0  0  0  0  0  0  0  0
    7.9358  -14.7811   22.3881 C   0  0  0  0  0  0  0  0  0  0  0  0
    8.8750  -15.7108   21.7033 C   0  0  1  0  0  0  0  0  0  0  0  0
    9.1890  -16.9190   22.4920 C   0  0  0  0  0  0  0  0  0  0  0  0
    8.6101  -17.9921   22.2087 O   0  0  0  0  0  0  0  0  0  0  0  0
   10.1150  -16.9160   23.5530 N   0  0  0  0  0  0  0  0  0  0  0  0
   10.5896  -15.7174   24.2145 C   0  0  0  0  0  0  0  0  0  0  0  0
   11.7590  -16.1190   25.0690 C   0  0  0  0  0  0  0  0  0  0  0  0
   12.1448  -17.4652   24.4598 C   0  0  0  0  0  0  0  0  0  0  0  0
   10.7679  -18.0408   24.1898 C   0  0  1  0  0  0  0  0  0  0  0  0
   10.1493  -18.3297   25.5161 C   0  0  0  0  0  0  0  0  0  0  0  0
    9.3289  -17.5828   26.0806 O   0  0  0  0  0  0  0  0  0  0  0  0
   10.5047  -19.5018   26.1684 O   0  0  0  0  0  0  0  0  0  0  0  0
  1  2  1  0
  3  2  1  0
  4  3  1  0
  4  5  1  0
  5  1  1  0
  6  8  1  0
  5  6  1  1
  7  6  2  0
  8  9  1  0
 10  9  1  0
 11 10  1  0
 11 12  1  0
 12  8  1  0
 12 13  1  1
 13 15  1  0
 14 13  2  0
 15 19  1  0
 15 16  1  0
 16 17  1  0
 18 17  1  0
 19 20  1  1
 19 18  1  0
 20 22  1  0
 21 20  2  0
M  END
$$$$
