PPP.pdb
     RDKit          3D

 22 24  0  0  1  0  0  0  0  0999 V2000
    8.7764  -14.7466   21.0678 N   0  0  0  0  0  0  0  0  0  0  0  0
    7.8691  -15.2487   20.0065 C   0  0  0  0  0  0  0  0  0  0  0  0
    6.7807  -16.0099   20.7229 C   0  0  0  0  0  0  0  0  0  0  0  0
    7.1616  -15.8795   22.1821 C   0  0  0  0  0  0  0  0  0  0  0  0
    7.8744  -14.5371   22.1762 C   0  0  1  0  0  0  0  0  0  0  0  0
    8.4009  -14.0812   23.4267 C   0  0  0  0  0  0  0  0  0  0  0  0
    9.6872  -13.8743   23.5035 O   0  0  0  0  0  0  0  0  0  0  0  0
    7.6499  -13.8382   24.5856 N   0  0  0  0  0  0  0  0  0  0  0  0
    6.2339  -13.7755   24.8253 C   0  0  0  0  0  0  0  0  0  0  0  0
    6.1811  -12.5236   25.7225 C   0  0  0  0  0  0  0  0  0  0  0  0
    7.2690  -12.8676   26.7105 C   0  0  0  0  0  0  0  0  0  0  0  0
    8.3033  -13.5672   25.9004 C   0  0  1  0  0  0  0  0  0  0  0  0
    8.7298  -14.8583   26.4761 C   0  0  0  0  0  0  0  0  0  0  0  0
    8.4088  -15.9163   25.8892 O   0  0  0  0  0  0  0  0  0  0  0  0
    9.4849  -14.9510   27.6612 N   0  0  0  0  0  0  0  0  0  0  0  0
    9.3733  -14.0259   28.7708 C   0  0  0  0  0  0  0  0  0  0  0  0
   10.5316  -14.2971   29.6893 C   0  0  0  0  0  0  0  0  0  0  0  0
   11.4816  -15.0693   28.7763 C   0  0  0  0  0  0  0  0  0  0  0  0
   10.4867  -15.9318   28.0237 C   0  0  1  0  0  0  0  0  0  0  0  0
    9.9354  -16.9143   29.0013 C   0  0  0  0  0  0  0  0  0  0  0  0
    8.7857  -16.8566   29.4751 O   0  0  0  0  0  0  0  0  0  0  0  0
   10.7477  -17.9610   29.4139 O   0  0  0  0  0  0  0  0  0  0  0  0
  1  2  1  0
  3  2  1  0
  4  3  1  0
  4  5  1  0
  5  1  1  0
  6  8  1  0
  5  6  1  1
  7  6  2  0
  8  9  1  0
 10  9  1  0
 11 10  1  0
 11 12  1  0
 12  8  1  0
 12 13  1  1
 13 15  1  0
 14 13  2  0
 15 19  1  0
 15 16  1  0
 16 17  1  0
 18 17  1  0
 19 20  1  1
 19 18  1  0
 20 22  1  0
 21 20  2  0
M  END
$$$$
