IQL.pdb
     RDKit          3D

 26 25  0  0  1  0  0  0  0  0999 V2000
   29.6581  -17.5406  -16.9718 C   0  0  0  0  0  0  0  0  0  0  0  0
   28.2111  -17.3084  -16.6725 C   0  0  0  0  0  0  0  0  0  0  0  0
   27.4999  -18.5949  -16.2237 C   0  0  2  0  0  0  0  0  0  0  0  0
   27.7618  -19.6616  -17.2314 C   0  0  0  0  0  0  0  0  0  0  0  0
   26.0436  -18.2149  -16.0707 C   0  0  2  0  0  0  0  0  0  0  0  0
   26.0625  -16.9281  -15.3501 N   0  0  0  0  0  0  0  0  0  0  0  0
   25.2554  -19.1580  -15.2816 C   0  0  0  0  0  0  0  0  0  0  0  0
   24.7649  -20.1941  -15.8338 O   0  0  0  0  0  0  0  0  0  0  0  0
   24.9205  -20.6490   -9.1459 N   0  0  0  0  0  0  0  0  0  0  0  0
   25.9938  -20.9622  -10.0185 C   0  0  0  0  0  0  0  0  0  0  0  0
   26.9950  -21.5282   -9.5411 O   0  0  0  0  0  0  0  0  0  0  0  0
   25.8521  -20.5938  -11.4466 C   0  0  0  0  0  0  0  0  0  0  0  0
   24.5591  -19.8398  -11.7021 C   0  0  0  0  0  0  0  0  0  0  0  0
   24.2160  -20.0208  -13.1517 C   0  0  2  0  0  0  0  0  0  0  0  0
   24.9681  -19.0320  -13.9028 N   0  0  0  0  0  0  0  0  0  0  0  0
   22.7824  -19.9780  -13.4394 C   0  0  0  0  0  0  0  0  0  0  0  0
   22.2835  -18.8724  -13.7717 O   0  0  0  0  0  0  0  0  0  0  0  0
   18.5936  -21.7685  -16.0903 C   0  0  0  0  0  0  0  0  0  0  0  0
   19.2142  -20.3708  -15.9099 C   0  0  2  0  0  0  0  0  0  0  0  0
   19.3103  -19.8114  -17.3204 C   0  0  0  0  0  0  0  0  0  0  0  0
   20.5570  -20.5907  -15.2936 C   0  0  0  0  0  0  0  0  0  0  0  0
   20.5437  -21.0462  -13.8778 C   0  0  2  0  0  0  0  0  0  0  0  0
   21.9140  -21.0965  -13.3706 N   0  0  0  0  0  0  0  0  0  0  0  0
   19.8176  -22.2890  -13.6208 C   0  0  0  0  0  0  0  0  0  0  0  0
   20.2976  -23.5530  -13.9059 O   0  0  0  0  0  0  0  0  0  0  0  0
   18.6537  -22.2330  -13.0962 O   0  0  0  0  0  0  0  0  0  0  0  0
  1  2  1  0
  2  3  1  0
  3  5  1  0
  3  4  1  6
  5  6  1  1
  7  5  1  0
  7  8  2  0
  9 10  1  0
 10 12  1  0
 10 11  2  0
 12 13  1  0
 14 13  1  1
 14 15  1  0
 15  7  1  0
 16 14  1  0
 17 16  2  0
 19 21  1  0
 19 18  1  6
 20 19  1  0
 22 21  1  6
 22 23  1  0
 23 16  1  0
 24 22  1  0
 25 24  1  0
 26 24  2  0
M  END
$$$$
