IQL.pdb
     RDKit          3D

 26 25  0  0  1  0  0  0  0  0999 V2000
   29.4015  -18.8452  -13.4123 C   0  0  0  0  0  0  0  0  0  0  0  0
   28.2942  -19.1637  -14.3661 C   0  0  0  0  0  0  0  0  0  0  0  0
   28.7123  -20.2141  -15.4074 C   0  0  2  0  0  0  0  0  0  0  0  0
   29.9136  -19.7139  -16.1343 C   0  0  0  0  0  0  0  0  0  0  0  0
   27.4916  -20.4254  -16.2755 C   0  0  2  0  0  0  0  0  0  0  0  0
   27.2344  -19.1106  -16.8924 N   0  0  0  0  0  0  0  0  0  0  0  0
   26.2915  -20.8175  -15.5412 C   0  0  0  0  0  0  0  0  0  0  0  0
   25.3945  -19.9531  -15.2819 O   0  0  0  0  0  0  0  0  0  0  0  0
   23.7443  -26.4405  -15.7892 N   0  0  0  0  0  0  0  0  0  0  0  0
   22.7895  -25.7550  -14.9956 C   0  0  0  0  0  0  0  0  0  0  0  0
   21.7314  -26.3446  -14.7068 O   0  0  0  0  0  0  0  0  0  0  0  0
   23.1156  -24.3766  -14.5606 C   0  0  0  0  0  0  0  0  0  0  0  0
   24.4903  -23.9501  -15.0443 C   0  0  0  0  0  0  0  0  0  0  0  0
   24.6999  -22.5324  -14.5992 C   0  0  2  0  0  0  0  0  0  0  0  0
   26.0109  -22.1198  -15.0670 N   0  0  0  0  0  0  0  0  0  0  0  0
   24.5205  -22.3211  -13.1629 C   0  0  0  0  0  0  0  0  0  0  0  0
   23.3486  -22.3505  -12.7075 O   0  0  0  0  0  0  0  0  0  0  0  0
   26.7656  -18.7224   -9.0924 C   0  0  0  0  0  0  0  0  0  0  0  0
   26.1577  -20.1369   -9.0623 C   0  0  2  0  0  0  0  0  0  0  0  0
   26.9779  -20.8823   -8.0215 C   0  0  0  0  0  0  0  0  0  0  0  0
   26.3406  -20.6951  -10.4357 C   0  0  0  0  0  0  0  0  0  0  0  0
   25.3254  -21.6961  -10.8594 C   0  0  2  0  0  0  0  0  0  0  0  0
   25.5759  -22.0853  -12.2462 N   0  0  0  0  0  0  0  0  0  0  0  0
   23.9313  -21.3136  -10.6402 C   0  0  0  0  0  0  0  0  0  0  0  0
   23.2298  -20.4174  -11.4239 O   0  0  0  0  0  0  0  0  0  0  0  0
   23.2909  -21.8284   -9.6616 O   0  0  0  0  0  0  0  0  0  0  0  0
  1  2  1  0
  2  3  1  0
  3  5  1  0
  3  4  1  6
  5  6  1  1
  7  5  1  0
  7  8  2  0
  9 10  1  0
 10 12  1  0
 10 11  2  0
 12 13  1  0
 14 13  1  1
 14 15  1  0
 15  7  1  0
 16 14  1  0
 17 16  2  0
 19 21  1  0
 19 18  1  6
 20 19  1  0
 22 21  1  6
 22 23  1  0
 23 16  1  0
 24 22  1  0
 25 24  1  0
 26 24  2  0
M  END
$$$$
