IQL.pdb
     RDKit          3D

 26 25  0  0  1  0  0  0  0  0999 V2000
   35.0823  -30.4294  -18.9334 C   0  0  0  0  0  0  0  0  0  0  0  0
   33.7020  -30.8069  -19.3690 C   0  0  0  0  0  0  0  0  0  0  0  0
   32.6759  -29.7059  -19.0571 C   0  0  2  0  0  0  0  0  0  0  0  0
   32.6393  -29.4912  -17.5825 C   0  0  0  0  0  0  0  0  0  0  0  0
   31.3743  -30.1899  -19.6571 C   0  0  2  0  0  0  0  0  0  0  0  0
   31.6156  -30.2161  -21.1120 N   0  0  0  0  0  0  0  0  0  0  0  0
   30.2339  -29.3119  -19.4085 C   0  0  0  0  0  0  0  0  0  0  0  0
   29.9861  -28.3511  -20.2052 O   0  0  0  0  0  0  0  0  0  0  0  0
   25.4191  -28.9116  -21.2849 N   0  0  0  0  0  0  0  0  0  0  0  0
   25.2010  -27.8712  -20.3460 C   0  0  0  0  0  0  0  0  0  0  0  0
   24.1864  -27.1615  -20.4785 O   0  0  0  0  0  0  0  0  0  0  0  0
   26.1990  -27.6970  -19.2648 C   0  0  0  0  0  0  0  0  0  0  0  0
   27.3208  -28.7147  -19.3724 C   0  0  0  0  0  0  0  0  0  0  0  0
   28.1797  -28.5629  -18.1514 C   0  0  2  0  0  0  0  0  0  0  0  0
   29.3349  -29.4253  -18.3230 N   0  0  0  0  0  0  0  0  0  0  0  0
   27.4784  -28.8027  -16.8902 C   0  0  0  0  0  0  0  0  0  0  0  0
   27.1778  -29.9895  -16.6025 O   0  0  0  0  0  0  0  0  0  0  0  0
   24.9990  -25.2272  -14.4304 C   0  0  0  0  0  0  0  0  0  0  0  0
   25.2352  -25.0512  -15.9419 C   0  0  2  0  0  0  0  0  0  0  0  0
   24.0663  -24.2012  -16.4139 C   0  0  0  0  0  0  0  0  0  0  0  0
   25.2108  -26.4253  -16.5272 C   0  0  0  0  0  0  0  0  0  0  0  0
   25.7166  -27.5069  -15.6404 C   0  0  2  0  0  0  0  0  0  0  0  0
   27.1131  -27.7903  -15.9674 N   0  0  0  0  0  0  0  0  0  0  0  0
   24.9049  -28.7224  -15.6005 C   0  0  0  0  0  0  0  0  0  0  0  0
   24.7960  -29.6291  -16.6376 O   0  0  0  0  0  0  0  0  0  0  0  0
   24.2376  -28.9912  -14.5444 O   0  0  0  0  0  0  0  0  0  0  0  0
  1  2  1  0
  2  3  1  0
  3  5  1  0
  3  4  1  1
  5  6  1  6
  7  5  1  0
  7  8  2  0
  9 10  1  0
 10 12  1  0
 10 11  2  0
 12 13  1  0
 14 13  1  6
 14 15  1  0
 15  7  1  0
 16 14  1  0
 17 16  2  0
 19 21  1  0
 19 18  1  1
 20 19  1  0
 22 21  1  6
 22 23  1  0
 23 16  1  0
 24 22  1  0
 25 24  1  0
 26 24  2  0
M  END
$$$$
