IQL.pdb
     RDKit          3D

 26 25  0  0  1  0  0  0  0  0999 V2000
   27.3879  -14.6854  -15.3590 C   0  0  0  0  0  0  0  0  0  0  0  0
   25.9026  -14.8443  -15.2802 C   0  0  0  0  0  0  0  0  0  0  0  0
   25.1603  -13.5913  -15.7714 C   0  0  2  0  0  0  0  0  0  0  0  0
   25.5810  -12.4296  -14.9375 C   0  0  0  0  0  0  0  0  0  0  0  0
   23.6900  -13.9350  -15.6793 C   0  0  2  0  0  0  0  0  0  0  0  0
   23.5313  -15.1424  -16.5114 N   0  0  0  0  0  0  0  0  0  0  0  0
   22.7974  -12.9069  -16.2080 C   0  0  0  0  0  0  0  0  0  0  0  0
   22.8409  -12.6012  -17.4424 O   0  0  0  0  0  0  0  0  0  0  0  0
   16.9283  -11.9081  -15.7582 N   0  0  0  0  0  0  0  0  0  0  0  0
   17.3165  -10.7208  -16.4298 C   0  0  0  0  0  0  0  0  0  0  0  0
   16.4239   -9.9945  -16.9055 O   0  0  0  0  0  0  0  0  0  0  0  0
   18.7648  -10.4219  -16.5214 C   0  0  0  0  0  0  0  0  0  0  0  0
   19.6020  -11.5239  -15.8967 C   0  0  0  0  0  0  0  0  0  0  0  0
   21.0398  -11.1091  -16.0072 C   0  0  2  0  0  0  0  0  0  0  0  0
   21.8454  -12.1827  -15.4539 N   0  0  0  0  0  0  0  0  0  0  0  0
   21.3384   -9.8104  -15.4036 C   0  0  0  0  0  0  0  0  0  0  0  0
   21.5362   -9.7721  -14.1622 O   0  0  0  0  0  0  0  0  0  0  0  0
   22.1485   -3.9420  -17.1027 C   0  0  0  0  0  0  0  0  0  0  0  0
   22.2703   -4.9136  -15.9143 C   0  0  2  0  0  0  0  0  0  0  0  0
   23.7114   -4.7709  -15.4514 C   0  0  0  0  0  0  0  0  0  0  0  0
   21.9813   -6.2735  -16.4605 C   0  0  0  0  0  0  0  0  0  0  0  0
   21.6461   -7.3109  -15.4487 C   0  0  2  0  0  0  0  0  0  0  0  0
   21.4211   -8.5899  -16.1201 N   0  0  0  0  0  0  0  0  0  0  0  0
   20.5569   -6.9723  -14.5338 C   0  0  0  0  0  0  0  0  0  0  0  0
   19.2137   -7.1227  -14.8214 O   0  0  0  0  0  0  0  0  0  0  0  0
   20.8370   -6.5014  -13.3794 O   0  0  0  0  0  0  0  0  0  0  0  0
  1  2  1  0
  2  3  1  0
  3  5  1  0
  3  4  1  1
  5  6  1  6
  7  5  1  0
  7  8  2  0
  9 10  1  0
 10 12  1  0
 10 11  2  0
 12 13  1  0
 14 13  1  1
 14 15  1  0
 15  7  1  0
 16 14  1  0
 17 16  2  0
 19 21  1  0
 19 18  1  6
 20 19  1  0
 22 21  1  6
 22 23  1  0
 23 16  1  0
 24 22  1  0
 25 24  1  0
 26 24  2  0
M  END
$$$$
