IQL.pdb
     RDKit          3D

 26 25  0  0  1  0  0  0  0  0999 V2000
   18.8575  -18.0445  -15.9088 C   0  0  0  0  0  0  0  0  0  0  0  0
   20.1731  -17.8707  -16.5991 C   0  0  0  0  0  0  0  0  0  0  0  0
   21.3232  -18.5376  -15.8277 C   0  0  2  0  0  0  0  0  0  0  0  0
   21.7720  -17.6141  -14.7471 C   0  0  0  0  0  0  0  0  0  0  0  0
   22.3755  -18.8499  -16.8687 C   0  0  2  0  0  0  0  0  0  0  0  0
   21.7185  -19.7847  -17.8016 N   0  0  0  0  0  0  0  0  0  0  0  0
   23.5674  -19.5085  -16.3408 C   0  0  0  0  0  0  0  0  0  0  0  0
   23.5064  -20.7201  -15.9567 O   0  0  0  0  0  0  0  0  0  0  0  0
   28.9499  -22.1054  -15.4579 N   0  0  0  0  0  0  0  0  0  0  0  0
   28.6604  -20.9701  -16.2571 C   0  0  0  0  0  0  0  0  0  0  0  0
   28.6334  -21.1119  -17.4939 O   0  0  0  0  0  0  0  0  0  0  0  0
   28.4079  -19.6849  -15.5645 C   0  0  0  0  0  0  0  0  0  0  0  0
   27.2205  -18.9525  -16.1639 C   0  0  0  0  0  0  0  0  0  0  0  0
   25.9788  -19.5834  -15.6054 C   0  0  2  0  0  0  0  0  0  0  0  0
   24.8416  -18.9103  -16.2065 N   0  0  0  0  0  0  0  0  0  0  0  0
   25.9181  -19.5987  -14.1439 C   0  0  0  0  0  0  0  0  0  0  0  0
   25.8499  -18.4933  -13.5480 O   0  0  0  0  0  0  0  0  0  0  0  0
   23.4630  -19.6648  -10.4404 C   0  0  0  0  0  0  0  0  0  0  0  0
   23.4378  -20.8006  -11.4799 C   0  0  2  0  0  0  0  0  0  0  0  0
   22.2851  -21.6910  -11.0436 C   0  0  0  0  0  0  0  0  0  0  0  0
   24.7591  -21.4890  -11.3726 C   0  0  0  0  0  0  0  0  0  0  0  0
   25.9236  -20.7214  -11.8891 C   0  0  2  0  0  0  0  0  0  0  0  0
   25.9305  -20.7733  -13.3501 N   0  0  0  0  0  0  0  0  0  0  0  0
   27.2213  -21.0839  -11.3211 C   0  0  0  0  0  0  0  0  0  0  0  0
   27.5868  -20.8813  -10.0040 O   0  0  0  0  0  0  0  0  0  0  0  0
   28.0999  -21.6281  -12.0727 O   0  0  0  0  0  0  0  0  0  0  0  0
  1  2  1  0
  2  3  1  0
  3  5  1  0
  3  4  1  1
  5  6  1  6
  7  5  1  0
  7  8  2  0
  9 10  1  0
 10 12  1  0
 10 11  2  0
 12 13  1  0
 14 13  1  1
 14 15  1  0
 15  7  1  0
 16 14  1  0
 17 16  2  0
 19 21  1  0
 19 18  1  1
 20 19  1  0
 22 21  1  1
 22 23  1  0
 23 16  1  0
 24 22  1  0
 25 24  1  0
 26 24  2  0
M  END
$$$$
