IQL.pdb
     RDKit          3D

 26 25  0  0  1  0  0  0  0  0999 V2000
   19.1017  -20.7318  -20.5297 C   0  0  0  0  0  0  0  0  0  0  0  0
   19.4937  -20.3671  -19.1331 C   0  0  0  0  0  0  0  0  0  0  0  0
   20.9693  -20.6859  -18.8447 C   0  0  2  0  0  0  0  0  0  0  0  0
   21.1948  -22.1428  -19.0649 C   0  0  0  0  0  0  0  0  0  0  0  0
   21.2108  -20.2169  -17.4269 C   0  0  2  0  0  0  0  0  0  0  0  0
   20.7849  -18.8048  -17.4183 N   0  0  0  0  0  0  0  0  0  0  0  0
   22.6088  -20.2651  -17.0070 C   0  0  0  0  0  0  0  0  0  0  0  0
   23.1014  -21.3505  -16.5616 O   0  0  0  0  0  0  0  0  0  0  0  0
   28.1592  -16.7615  -18.3040 N   0  0  0  0  0  0  0  0  0  0  0  0
   27.3723  -17.7463  -18.9538 C   0  0  0  0  0  0  0  0  0  0  0  0
   27.2827  -17.7039  -20.1951 O   0  0  0  0  0  0  0  0  0  0  0  0
   26.7060  -18.7651  -18.1091 C   0  0  0  0  0  0  0  0  0  0  0  0
   25.6488  -18.1425  -17.2144 C   0  0  0  0  0  0  0  0  0  0  0  0
   24.8847  -19.2662  -16.5779 C   0  0  2  0  0  0  0  0  0  0  0  0
   23.5133  -19.1789  -17.0465 N   0  0  0  0  0  0  0  0  0  0  0  0
   24.9814  -19.3077  -15.1189 C   0  0  0  0  0  0  0  0  0  0  0  0
   23.9114  -19.3790  -14.4618 O   0  0  0  0  0  0  0  0  0  0  0  0
   24.9910  -22.4320  -10.9809 C   0  0  0  0  0  0  0  0  0  0  0  0
   25.3887  -20.9493  -11.1030 C   0  0  2  0  0  0  0  0  0  0  0  0
   24.2597  -20.1943  -10.4197 C   0  0  0  0  0  0  0  0  0  0  0  0
   25.4612  -20.6597  -12.5666 C   0  0  0  0  0  0  0  0  0  0  0  0
   26.2386  -19.4482  -12.9408 C   0  0  2  0  0  0  0  0  0  0  0  0
   26.1979  -19.2734  -14.3917 N   0  0  0  0  0  0  0  0  0  0  0  0
   27.6031  -19.3871  -12.4189 C   0  0  0  0  0  0  0  0  0  0  0  0
   27.9516  -18.8593  -11.1903 O   0  0  0  0  0  0  0  0  0  0  0  0
   28.5620  -19.8465  -13.1276 O   0  0  0  0  0  0  0  0  0  0  0  0
  1  2  1  0
  2  3  1  0
  3  5  1  0
  3  4  1  1
  5  6  1  6
  7  5  1  0
  7  8  2  0
  9 10  1  0
 10 12  1  0
 10 11  2  0
 12 13  1  0
 14 13  1  1
 14 15  1  0
 15  7  1  0
 16 14  1  0
 17 16  2  0
 19 21  1  0
 19 18  1  6
 20 19  1  0
 22 21  1  6
 22 23  1  0
 23 16  1  0
 24 22  1  0
 25 24  1  0
 26 24  2  0
M  END
$$$$
