IQL.pdb
     RDKit          3D

 26 25  0  0  1  0  0  0  0  0999 V2000
   11.3929  -14.6876  -10.4884 C   0  0  0  0  0  0  0  0  0  0  0  0
   11.7607  -13.5451  -11.3810 C   0  0  0  0  0  0  0  0  0  0  0  0
   12.6851  -12.5374  -10.6792 C   0  0  2  0  0  0  0  0  0  0  0  0
   12.0044  -12.0413   -9.4494 C   0  0  0  0  0  0  0  0  0  0  0  0
   12.9753  -11.4723  -11.7135 C   0  0  2  0  0  0  0  0  0  0  0  0
   13.4915  -12.2103  -12.8815 N   0  0  0  0  0  0  0  0  0  0  0  0
   13.9919  -10.5039  -11.3111 C   0  0  0  0  0  0  0  0  0  0  0  0
   13.8126   -9.7881  -10.2745 O   0  0  0  0  0  0  0  0  0  0  0  0
   18.4714   -6.8061  -14.6568 N   0  0  0  0  0  0  0  0  0  0  0  0
   18.9318   -7.5644  -13.5503 C   0  0  0  0  0  0  0  0  0  0  0  0
   20.1138   -7.9562  -13.5557 O   0  0  0  0  0  0  0  0  0  0  0  0
   17.9719   -7.8416  -12.4562 C   0  0  0  0  0  0  0  0  0  0  0  0
   17.0258   -8.9728  -12.8180 C   0  0  0  0  0  0  0  0  0  0  0  0
   16.1186   -9.1891  -11.6424 C   0  0  2  0  0  0  0  0  0  0  0  0
   15.2118  -10.2694  -11.9866 N   0  0  0  0  0  0  0  0  0  0  0  0
   15.4185   -7.9853  -11.1945 C   0  0  0  0  0  0  0  0  0  0  0  0
   14.3973   -7.6278  -11.8356 O   0  0  0  0  0  0  0  0  0  0  0  0
   14.7973   -3.7504   -7.6218 C   0  0  0  0  0  0  0  0  0  0  0  0
   13.7550   -4.8279   -7.9740 C   0  0  2  0  0  0  0  0  0  0  0  0
   13.0034   -5.0703   -6.6749 C   0  0  0  0  0  0  0  0  0  0  0  0
   14.5311   -6.0263   -8.4131 C   0  0  0  0  0  0  0  0  0  0  0  0
   15.1458   -5.9300   -9.7641 C   0  0  2  0  0  0  0  0  0  0  0  0
   15.8100   -7.1918  -10.0868 N   0  0  0  0  0  0  0  0  0  0  0  0
   16.0209   -4.7786   -9.9793 C   0  0  0  0  0  0  0  0  0  0  0  0
   15.6023   -3.5524  -10.4595 O   0  0  0  0  0  0  0  0  0  0  0  0
   17.2664   -4.8847   -9.7136 O   0  0  0  0  0  0  0  0  0  0  0  0
  1  2  1  0
  2  3  1  0
  3  5  1  0
  3  4  1  1
  5  6  1  6
  7  5  1  0
  7  8  2  0
  9 10  1  0
 10 12  1  0
 10 11  2  0
 12 13  1  0
 14 13  1  6
 14 15  1  0
 15  7  1  0
 16 14  1  0
 17 16  2  0
 19 21  1  0
 19 18  1  1
 20 19  1  0
 22 21  1  1
 22 23  1  0
 23 16  1  0
 24 22  1  0
 25 24  1  0
 26 24  2  0
M  END
$$$$
