IQL.pdb
     RDKit          3D

 26 25  0  0  1  0  0  0  0  0999 V2000
   28.1068  -19.5362  -18.1465 C   0  0  0  0  0  0  0  0  0  0  0  0
   28.7504  -19.3364  -16.8111 C   0  0  0  0  0  0  0  0  0  0  0  0
   27.7284  -18.9560  -15.7279 C   0  0  2  0  0  0  0  0  0  0  0  0
   27.8575  -17.4991  -15.4404 C   0  0  0  0  0  0  0  0  0  0  0  0
   28.0333  -19.8606  -14.5543 C   0  0  2  0  0  0  0  0  0  0  0  0
   27.8650  -21.2290  -15.0782 N   0  0  0  0  0  0  0  0  0  0  0  0
   27.1268  -19.7011  -13.4203 C   0  0  0  0  0  0  0  0  0  0  0  0
   27.1849  -18.6515  -12.7032 O   0  0  0  0  0  0  0  0  0  0  0  0
   21.4019  -20.2123  -13.4690 N   0  0  0  0  0  0  0  0  0  0  0  0
   21.4984  -20.1666  -12.0548 C   0  0  0  0  0  0  0  0  0  0  0  0
   20.4923  -19.8225  -11.4066 O   0  0  0  0  0  0  0  0  0  0  0  0
   22.7953  -20.5331  -11.4393 C   0  0  0  0  0  0  0  0  0  0  0  0
   23.8366  -20.8694  -12.4920 C   0  0  0  0  0  0  0  0  0  0  0  0
   25.1575  -20.3638  -11.9906 C   0  0  2  0  0  0  0  0  0  0  0  0
   26.1456  -20.6367  -13.0188 N   0  0  0  0  0  0  0  0  0  0  0  0
   25.5445  -20.8901  -10.6817 C   0  0  0  0  0  0  0  0  0  0  0  0
   25.8408  -22.1099  -10.6041 O   0  0  0  0  0  0  0  0  0  0  0  0
   28.7598  -20.5393   -7.2833 C   0  0  0  0  0  0  0  0  0  0  0  0
   27.8821  -19.3173   -7.6114 C   0  0  2  0  0  0  0  0  0  0  0  0
   28.3993  -18.2195   -6.6954 C   0  0  0  0  0  0  0  0  0  0  0  0
   26.4799  -19.7155   -7.2849 C   0  0  0  0  0  0  0  0  0  0  0  0
   25.8761  -20.7295   -8.1900 C   0  0  2  0  0  0  0  0  0  0  0  0
   25.6096  -20.1213   -9.4924 N   0  0  0  0  0  0  0  0  0  0  0  0
   24.7065  -21.4306   -7.6623 C   0  0  0  0  0  0  0  0  0  0  0  0
   24.7477  -22.3910   -6.6696 O   0  0  0  0  0  0  0  0  0  0  0  0
   23.5509  -21.1566   -8.1339 O   0  0  0  0  0  0  0  0  0  0  0  0
  1  2  1  0
  2  3  1  0
  3  5  1  0
  3  4  1  1
  5  6  1  6
  7  5  1  0
  7  8  2  0
  9 10  1  0
 10 12  1  0
 10 11  2  0
 12 13  1  0
 14 13  1  6
 14 15  1  0
 15  7  1  0
 16 14  1  0
 17 16  2  0
 19 21  1  0
 19 18  1  1
 20 19  1  0
 22 21  1  1
 22 23  1  0
 23 16  1  0
 24 22  1  0
 25 24  1  0
 26 24  2  0
M  END
$$$$
