IQL.pdb
     RDKit          3D

 26 25  0  0  1  0  0  0  0  0999 V2000
   18.7214   -8.9749  -23.3703 C   0  0  0  0  0  0  0  0  0  0  0  0
   18.7709   -9.7851  -22.1138 C   0  0  0  0  0  0  0  0  0  0  0  0
   18.7213   -8.9040  -20.8554 C   0  0  2  0  0  0  0  0  0  0  0  0
   19.9158   -8.0123  -20.8495 C   0  0  0  0  0  0  0  0  0  0  0  0
   18.6484   -9.8694  -19.6931 C   0  0  2  0  0  0  0  0  0  0  0  0
   17.3988  -10.6236  -19.9060 N   0  0  0  0  0  0  0  0  0  0  0  0
   18.5667   -9.2290  -18.3830 C   0  0  0  0  0  0  0  0  0  0  0  0
   17.5621   -8.5043  -18.0916 O   0  0  0  0  0  0  0  0  0  0  0  0
   17.7737   -8.3290  -13.1488 N   0  0  0  0  0  0  0  0  0  0  0  0
   17.0443   -9.2383  -13.9565 C   0  0  0  0  0  0  0  0  0  0  0  0
   15.8224   -9.3604  -13.7498 O   0  0  0  0  0  0  0  0  0  0  0  0
   17.7875   -9.9861  -14.9976 C   0  0  0  0  0  0  0  0  0  0  0  0
   19.2589   -9.6111  -15.0098 C   0  0  0  0  0  0  0  0  0  0  0  0
   19.4539   -8.6051  -16.1060 C   0  0  2  0  0  0  0  0  0  0  0  0
   19.5342   -9.3365  -17.3575 N   0  0  0  0  0  0  0  0  0  0  0  0
   20.5912   -7.7078  -15.9024 C   0  0  0  0  0  0  0  0  0  0  0  0
   21.7334   -8.1268  -16.2209 O   0  0  0  0  0  0  0  0  0  0  0  0
   23.1157   -4.8538  -17.7325 C   0  0  0  0  0  0  0  0  0  0  0  0
   21.6487   -4.4971  -17.4296 C   0  0  2  0  0  0  0  0  0  0  0  0
   21.4086   -3.1989  -18.1837 C   0  0  0  0  0  0  0  0  0  0  0  0
   21.5637   -4.3178  -15.9491 C   0  0  0  0  0  0  0  0  0  0  0  0
   21.6779   -5.5648  -15.1466 C   0  0  2  0  0  0  0  0  0  0  0  0
   20.4969   -6.3970  -15.3708 N   0  0  0  0  0  0  0  0  0  0  0  0
   21.9544   -5.3769  -13.7232 C   0  0  0  0  0  0  0  0  0  0  0  0
   23.0603   -4.7207  -13.2174 O   0  0  0  0  0  0  0  0  0  0  0  0
   21.1325   -5.8422  -12.8624 O   0  0  0  0  0  0  0  0  0  0  0  0
  1  2  1  0
  2  3  1  0
  3  5  1  0
  3  4  1  1
  5  6  1  6
  7  5  1  0
  7  8  2  0
  9 10  1  0
 10 12  1  0
 10 11  2  0
 12 13  1  0
 14 13  1  1
 14 15  1  0
 15  7  1  0
 16 14  1  0
 17 16  2  0
 19 21  1  0
 19 18  1  1
 20 19  1  0
 22 21  1  1
 22 23  1  0
 23 16  1  0
 24 22  1  0
 25 24  1  0
 26 24  2  0
M  END
$$$$
