IQL.pdb
     RDKit          3D

 26 25  0  0  1  0  0  0  0  0999 V2000
   30.6105  -21.5146  -18.3939 C   0  0  0  0  0  0  0  0  0  0  0  0
   29.1210  -21.3806  -18.3642 C   0  0  0  0  0  0  0  0  0  0  0  0
   28.6185  -20.8078  -17.0293 C   0  0  2  0  0  0  0  0  0  0  0  0
   29.0253  -21.7298  -15.9310 C   0  0  0  0  0  0  0  0  0  0  0  0
   27.1238  -20.6488  -17.1991 C   0  0  2  0  0  0  0  0  0  0  0  0
   26.9693  -19.6941  -18.3128 N   0  0  0  0  0  0  0  0  0  0  0  0
   26.4418  -20.0912  -16.0341 C   0  0  0  0  0  0  0  0  0  0  0  0
   26.7637  -18.9389  -15.6005 O   0  0  0  0  0  0  0  0  0  0  0  0
   20.5810  -20.3434  -14.3754 N   0  0  0  0  0  0  0  0  0  0  0  0
   21.1358  -19.6562  -13.2658 C   0  0  0  0  0  0  0  0  0  0  0  0
   20.3565  -19.1350  -12.4462 O   0  0  0  0  0  0  0  0  0  0  0  0
   22.6123  -19.6036  -13.1545 C   0  0  0  0  0  0  0  0  0  0  0  0
   23.2850  -20.2252  -14.3657 C   0  0  0  0  0  0  0  0  0  0  0  0
   24.7670  -20.1341  -14.1488 C   0  0  2  0  0  0  0  0  0  0  0  0
   25.4125  -20.7299  -15.3047 N   0  0  0  0  0  0  0  0  0  0  0  0
   25.2258  -20.7119  -12.8856 C   0  0  0  0  0  0  0  0  0  0  0  0
   25.1999  -21.9639  -12.7694 O   0  0  0  0  0  0  0  0  0  0  0  0
   25.8531  -20.0006   -7.4826 C   0  0  0  0  0  0  0  0  0  0  0  0
   27.1528  -20.1312   -8.2981 C   0  0  2  0  0  0  0  0  0  0  0  0
   28.1404  -19.2173   -7.5902 C   0  0  0  0  0  0  0  0  0  0  0  0
   26.8263  -19.6558   -9.6760 C   0  0  0  0  0  0  0  0  0  0  0  0
   25.9897  -20.5783  -10.4891 C   0  0  2  0  0  0  0  0  0  0  0  0
   25.6986  -19.9592  -11.7811 N   0  0  0  0  0  0  0  0  0  0  0  0
   24.7809  -21.0772   -9.8350 C   0  0  0  0  0  0  0  0  0  0  0  0
   23.5973  -20.3722   -9.7282 O   0  0  0  0  0  0  0  0  0  0  0  0
   24.7905  -22.2448   -9.3157 O   0  0  0  0  0  0  0  0  0  0  0  0
  1  2  1  0
  2  3  1  0
  3  5  1  0
  3  4  1  1
  5  6  1  6
  7  5  1  0
  7  8  2  0
  9 10  1  0
 10 12  1  0
 10 11  2  0
 12 13  1  0
 14 13  1  6
 14 15  1  0
 15  7  1  0
 16 14  1  0
 17 16  2  0
 19 21  1  0
 19 18  1  1
 20 19  1  0
 22 21  1  1
 22 23  1  0
 23 16  1  0
 24 22  1  0
 25 24  1  0
 26 24  2  0
M  END
$$$$
