IQL.pdb
     RDKit          3D

 26 25  0  0  1  0  0  0  0  0999 V2000
   29.9255  -17.0443  -18.3668 C   0  0  0  0  0  0  0  0  0  0  0  0
   28.7205  -17.9211  -18.4950 C   0  0  0  0  0  0  0  0  0  0  0  0
   27.6633  -17.6111  -17.4231 C   0  0  2  0  0  0  0  0  0  0  0  0
   28.1309  -18.1601  -16.1186 C   0  0  0  0  0  0  0  0  0  0  0  0
   26.3784  -18.2196  -17.9401 C   0  0  2  0  0  0  0  0  0  0  0  0
   26.0777  -17.4738  -19.1765 N   0  0  0  0  0  0  0  0  0  0  0  0
   25.2378  -18.0720  -17.0399 C   0  0  0  0  0  0  0  0  0  0  0  0
   24.6294  -16.9570  -16.9628 O   0  0  0  0  0  0  0  0  0  0  0  0
   20.0506  -18.1794  -17.5251 N   0  0  0  0  0  0  0  0  0  0  0  0
   19.9463  -18.1714  -16.1107 C   0  0  0  0  0  0  0  0  0  0  0  0
   18.8280  -17.9642  -15.6038 O   0  0  0  0  0  0  0  0  0  0  0  0
   21.1803  -18.4112  -15.3264 C   0  0  0  0  0  0  0  0  0  0  0  0
   22.3854  -18.6067  -16.2292 C   0  0  0  0  0  0  0  0  0  0  0  0
   23.5625  -18.8984  -15.3453 C   0  0  2  0  0  0  0  0  0  0  0  0
   24.7158  -19.0880  -16.2065 N   0  0  0  0  0  0  0  0  0  0  0  0
   23.3580  -20.0140  -14.4215 C   0  0  0  0  0  0  0  0  0  0  0  0
   23.1789  -21.1576  -14.9132 O   0  0  0  0  0  0  0  0  0  0  0  0
   26.0317  -21.6458  -11.3538 C   0  0  0  0  0  0  0  0  0  0  0  0
   25.2419  -20.3964  -10.9219 C   0  0  2  0  0  0  0  0  0  0  0  0
   25.8202  -20.0303   -9.5643 C   0  0  0  0  0  0  0  0  0  0  0  0
   23.8123  -20.8206  -10.8344 C   0  0  0  0  0  0  0  0  0  0  0  0
   23.1330  -21.0515  -12.1373 C   0  0  2  0  0  0  0  0  0  0  0  0
   23.3478  -19.8974  -13.0086 N   0  0  0  0  0  0  0  0  0  0  0  0
   21.7211  -21.4227  -12.0565 C   0  0  0  0  0  0  0  0  0  0  0  0
   21.2503  -22.6148  -11.5400 O   0  0  0  0  0  0  0  0  0  0  0  0
   20.8370  -20.6066  -12.4870 O   0  0  0  0  0  0  0  0  0  0  0  0
  1  2  1  0
  2  3  1  0
  3  5  1  0
  3  4  1  1
  5  6  1  6
  7  5  1  0
  7  8  2  0
  9 10  1  0
 10 12  1  0
 10 11  2  0
 12 13  1  0
 14 13  1  6
 14 15  1  0
 15  7  1  0
 16 14  1  0
 17 16  2  0
 19 21  1  0
 19 18  1  1
 20 19  1  0
 22 21  1  1
 22 23  1  0
 23 16  1  0
 24 22  1  0
 25 24  1  0
 26 24  2  0
M  END
$$$$
