IQL.pdb
     RDKit          3D

 26 25  0  0  1  0  0  0  0  0999 V2000
   28.2292  -19.5429   -6.8765 C   0  0  0  0  0  0  0  0  0  0  0  0
   28.2977  -20.6276   -7.9043 C   0  0  0  0  0  0  0  0  0  0  0  0
   27.3213  -20.3854   -9.0664 C   0  0  2  0  0  0  0  0  0  0  0  0
   25.9288  -20.4263   -8.5364 C   0  0  0  0  0  0  0  0  0  0  0  0
   27.6401  -21.4555  -10.0870 C   0  0  2  0  0  0  0  0  0  0  0  0
   29.0757  -21.2838  -10.3788 N   0  0  0  0  0  0  0  0  0  0  0  0
   26.9092  -21.3244  -11.3447 C   0  0  0  0  0  0  0  0  0  0  0  0
   27.2511  -20.4355  -12.1886 O   0  0  0  0  0  0  0  0  0  0  0  0
   25.1785  -25.1577  -15.1598 N   0  0  0  0  0  0  0  0  0  0  0  0
   24.3717  -24.1254  -15.7027 C   0  0  0  0  0  0  0  0  0  0  0  0
   24.0693  -24.1872  -16.9091 O   0  0  0  0  0  0  0  0  0  0  0  0
   23.9398  -23.0372  -14.7947 C   0  0  0  0  0  0  0  0  0  0  0  0
   24.5037  -23.2209  -13.3969 C   0  0  0  0  0  0  0  0  0  0  0  0
   25.0615  -21.8971  -12.9632 C   0  0  2  0  0  0  0  0  0  0  0  0
   25.8096  -22.1210  -11.7392 N   0  0  0  0  0  0  0  0  0  0  0  0
   24.0607  -20.8389  -12.8277 C   0  0  0  0  0  0  0  0  0  0  0  0
   24.2702  -19.9390  -11.9745 O   0  0  0  0  0  0  0  0  0  0  0  0
   22.0195  -17.6599  -16.4430 C   0  0  0  0  0  0  0  0  0  0  0  0
   22.9944  -17.3794  -15.2846 C   0  0  2  0  0  0  0  0  0  0  0  0
   24.1532  -16.6383  -15.9326 C   0  0  0  0  0  0  0  0  0  0  0  0
   23.4007  -18.7150  -14.7532 C   0  0  0  0  0  0  0  0  0  0  0  0
   22.3322  -19.4762  -14.0525 C   0  0  2  0  0  0  0  0  0  0  0  0
   22.8693  -20.7555  -13.5916 N   0  0  0  0  0  0  0  0  0  0  0  0
   21.0835  -19.6410  -14.7951 C   0  0  0  0  0  0  0  0  0  0  0  0
   19.9182  -18.9445  -14.5373 O   0  0  0  0  0  0  0  0  0  0  0  0
   21.0367  -20.4823  -15.7559 O   0  0  0  0  0  0  0  0  0  0  0  0
  1  2  1  0
  2  3  1  0
  3  5  1  0
  3  4  1  1
  5  6  1  6
  7  5  1  0
  7  8  2  0
  9 10  1  0
 10 12  1  0
 10 11  2  0
 12 13  1  0
 14 13  1  1
 14 15  1  0
 15  7  1  0
 16 14  1  0
 17 16  2  0
 19 21  1  0
 19 18  1  6
 20 19  1  0
 22 21  1  6
 22 23  1  0
 23 16  1  0
 24 22  1  0
 25 24  1  0
 26 24  2  0
M  END
$$$$
