NKT.pdb
     RDKit          3D

 25 24  0  0  1  0  0  0  0  0999 V2000
    8.2791  -12.4373   17.8462 N   0  0  0  0  0  0  0  0  0  0  0  0
    7.8445  -13.7570   18.0977 C   0  0  0  0  0  0  0  0  0  0  0  0
    7.8463  -14.6124   17.1962 O   0  0  0  0  0  0  0  0  0  0  0  0
    7.3738  -14.1404   19.4602 C   0  0  0  0  0  0  0  0  0  0  0  0
    8.5463  -14.5587   20.3414 C   0  0  2  0  0  0  0  0  0  0  0  0
    9.1685  -15.7458   19.8020 N   0  0  0  0  0  0  0  0  0  0  0  0
    7.9564  -14.9028   21.6804 C   0  0  0  0  0  0  0  0  0  0  0  0
    7.0871  -14.1276   22.1458 O   0  0  0  0  0  0  0  0  0  0  0  0
    8.3348  -16.0412   22.4153 N   0  0  0  0  0  0  0  0  0  0  0  0
    7.8083  -16.3045   23.7891 C   0  0  1  0  0  0  0  0  0  0  0  0
    8.0951  -17.7411   24.1026 C   0  0  0  0  0  0  0  0  0  0  0  0
    7.7704  -18.1590   25.4898 C   0  0  0  0  0  0  0  0  0  0  0  0
    8.0917  -19.6333   25.7286 C   0  0  0  0  0  0  0  0  0  0  0  0
    7.7000  -20.0720   27.1096 C   0  0  0  0  0  0  0  0  0  0  0  0
    8.0390  -21.4910   27.2723 N   0  0  0  0  0  0  0  0  0  0  0  0
    8.4363  -15.3205   24.7206 C   0  0  0  0  0  0  0  0  0  0  0  0
    9.6686  -15.1254   24.6084 O   0  0  0  0  0  0  0  0  0  0  0  0
    6.6847  -11.9530   25.4630 C   0  0  0  0  0  0  0  0  0  0  0  0
    6.9848  -12.5877   26.8128 C   0  0  1  0  0  0  0  0  0  0  0  0
    5.7560  -13.2206   27.1684 O   0  0  0  0  0  0  0  0  0  0  0  0
    8.0251  -13.6468   26.6356 C   0  0  2  0  0  0  0  0  0  0  0  0
    7.6844  -14.6372   25.6796 N   0  0  0  0  0  0  0  0  0  0  0  0
    8.6978  -14.0803   27.8834 C   0  0  0  0  0  0  0  0  0  0  0  0
    9.1704  -13.2487   28.8813 O   0  0  0  0  0  0  0  0  0  0  0  0
    8.8785  -15.3210   28.1168 O   0  0  0  0  0  0  0  0  0  0  0  0
  1  2  1  0
  2  3  2  0
  4  2  1  0
  4  5  1  0
  5  7  1  0
  5  6  1  6
  7  8  2  0
  9 10  1  0
  9  7  1  0
 10 11  1  1
 11 12  1  0
 13 12  1  0
 13 14  1  0
 14 15  1  0
 16 17  2  0
 16 10  1  0
 19 18  1  6
 19 21  1  0
 20 19  1  0
 21 22  1  1
 21 23  1  0
 22 16  1  0
 23 24  1  0
 25 23  2  0
M  END
$$$$
