NKT.pdb
     RDKit          3D

 25 24  0  0  1  0  0  0  0  0999 V2000
   13.5773  -14.0758   19.3378 N   0  0  0  0  0  0  0  0  0  0  0  0
   12.4715  -14.9416   19.1924 C   0  0  0  0  0  0  0  0  0  0  0  0
   12.3705  -15.6875   18.2034 O   0  0  0  0  0  0  0  0  0  0  0  0
   11.4036  -14.9690   20.2333 C   0  0  0  0  0  0  0  0  0  0  0  0
   11.7199  -16.0041   21.3079 C   0  0  2  0  0  0  0  0  0  0  0  0
   11.4645  -17.3329   20.8018 N   0  0  0  0  0  0  0  0  0  0  0  0
   10.7624  -15.7372   22.4354 C   0  0  0  0  0  0  0  0  0  0  0  0
   10.7518  -14.5819   22.9238 O   0  0  0  0  0  0  0  0  0  0  0  0
    9.8933  -16.7158   22.9513 N   0  0  0  0  0  0  0  0  0  0  0  0
    8.9737  -16.4309   24.0945 C   0  0  1  0  0  0  0  0  0  0  0  0
    7.9009  -17.4762   24.0675 C   0  0  0  0  0  0  0  0  0  0  0  0
    8.3795  -18.8728   24.2252 C   0  0  0  0  0  0  0  0  0  0  0  0
    7.2231  -19.8707   24.2440 C   0  0  0  0  0  0  0  0  0  0  0  0
    7.6992  -21.2701   24.5048 C   0  0  0  0  0  0  0  0  0  0  0  0
    6.5362  -22.1630   24.5763 N   0  0  0  0  0  0  0  0  0  0  0  0
    9.7886  -16.3988   25.3456 C   0  0  0  0  0  0  0  0  0  0  0  0
   10.8207  -17.1080   25.3800 O   0  0  0  0  0  0  0  0  0  0  0  0
   10.0106  -13.0031   27.3385 C   0  0  0  0  0  0  0  0  0  0  0  0
    9.6963  -14.1018   28.3431 C   0  0  1  0  0  0  0  0  0  0  0  0
    8.2851  -13.9964   28.5275 O   0  0  0  0  0  0  0  0  0  0  0  0
    9.9918  -15.4303   27.7243 C   0  0  2  0  0  0  0  0  0  0  0  0
    9.4229  -15.6078   26.4375 N   0  0  0  0  0  0  0  0  0  0  0  0
    9.9721  -16.5777   28.6627 C   0  0  0  0  0  0  0  0  0  0  0  0
   10.6212  -16.6401   29.8815 O   0  0  0  0  0  0  0  0  0  0  0  0
    9.3070  -17.6278   28.3779 O   0  0  0  0  0  0  0  0  0  0  0  0
  1  2  1  0
  2  3  2  0
  4  2  1  0
  4  5  1  0
  5  7  1  0
  5  6  1  6
  7  8  2  0
  9 10  1  0
  9  7  1  0
 10 11  1  1
 11 12  1  0
 13 12  1  0
 13 14  1  0
 14 15  1  0
 16 17  2  0
 16 10  1  0
 19 18  1  6
 19 21  1  0
 20 19  1  0
 21 22  1  6
 21 23  1  0
 22 16  1  0
 23 24  1  0
 25 23  2  0
M  END
$$$$
