PSR.pdb
     RDKit          3D

 25 25  0  0  1  0  0  0  0  0999 V2000
   31.0334  -22.2798  -11.8351 N   0  0  0  0  0  0  0  0  0  0  0  0
   32.0092  -22.8032  -10.8694 C   0  0  0  0  0  0  0  0  0  0  0  0
   31.7089  -22.0034   -9.6054 C   0  0  0  0  0  0  0  0  0  0  0  0
   30.3353  -21.4258   -9.8063 C   0  0  0  0  0  0  0  0  0  0  0  0
   29.8492  -22.1796  -11.0397 C   0  0  1  0  0  0  0  0  0  0  0  0
   28.7820  -21.3420  -11.6427 C   0  0  0  0  0  0  0  0  0  0  0  0
   27.7191  -21.2246  -11.0001 O   0  0  0  0  0  0  0  0  0  0  0  0
   29.0730  -19.4804  -15.5431 O   0  0  0  0  0  0  0  0  0  0  0  0
   28.5636  -18.8055  -14.4403 C   0  0  0  0  0  0  0  0  0  0  0  0
   27.9865  -19.7467  -13.4090 C   0  0  2  0  0  0  0  0  0  0  0  0
   28.9419  -20.6919  -12.8972 N   0  0  0  0  0  0  0  0  0  0  0  0
   26.8100  -20.4954  -13.9587 C   0  0  0  0  0  0  0  0  0  0  0  0
   26.9373  -21.6219  -14.5150 O   0  0  0  0  0  0  0  0  0  0  0  0
   17.8349  -18.9201  -13.4316 N   0  0  0  0  0  0  0  0  0  0  0  0
   18.0005  -20.2543  -13.9579 C   0  0  0  0  0  0  0  0  0  0  0  0
   16.9910  -21.0162  -14.1772 N   0  0  0  0  0  0  0  0  0  0  0  0
   19.3019  -20.7614  -14.2478 N   0  0  0  0  0  0  0  0  0  0  0  0
   20.5060  -20.0625  -13.9046 C   0  0  0  0  0  0  0  0  0  0  0  0
   21.7848  -20.7058  -14.2635 C   0  0  0  0  0  0  0  0  0  0  0  0
   23.0544  -20.0643  -13.8877 C   0  0  0  0  0  0  0  0  0  0  0  0
   24.3217  -20.6328  -14.4059 C   0  0  2  0  0  0  0  0  0  0  0  0
   25.4934  -19.9444  -13.8655 N   0  0  0  0  0  0  0  0  0  0  0  0
   24.4113  -20.7594  -15.8703 C   0  0  0  0  0  0  0  0  0  0  0  0
   24.7551  -19.8475  -16.6555 O   0  0  0  0  0  0  0  0  0  0  0  0
   24.0876  -21.9984  -16.4484 O   0  0  0  0  0  0  0  0  0  0  0  0
  1  2  1  0
  2  3  1  0
  4  3  1  0
  5  4  1  0
  5  1  1  0
  5  6  1  6
  6 11  1  0
  6  7  2  0
 10  9  1  6
  9  8  1  0
 10 12  1  0
 11 10  1  0
 12 13  2  0
 15 16  2  0
 15 14  1  0
 17 15  1  0
 18 17  1  0
 19 18  1  0
 20 19  1  0
 21 20  1  6
 21 23  1  0
 22 12  1  0
 22 21  1  0
 23 25  1  0
 24 23  2  0
M  END
$$$$
