PSR.pdb
     RDKit          3D

 25 25  0  0  1  0  0  0  0  0999 V2000
   31.3285  -22.4422  -12.7257 N   0  0  0  0  0  0  0  0  0  0  0  0
   32.3331  -22.9642  -11.7892 C   0  0  0  0  0  0  0  0  0  0  0  0
   32.3042  -21.9503  -10.6496 C   0  0  0  0  0  0  0  0  0  0  0  0
   31.0102  -21.2006  -10.8048 C   0  0  0  0  0  0  0  0  0  0  0  0
   30.2763  -22.0419  -11.8437 C   0  0  1  0  0  0  0  0  0  0  0  0
   29.2701  -21.1455  -12.4665 C   0  0  0  0  0  0  0  0  0  0  0  0
   28.2822  -20.8298  -11.7732 O   0  0  0  0  0  0  0  0  0  0  0  0
   29.4536  -19.7760  -16.5741 O   0  0  0  0  0  0  0  0  0  0  0  0
   29.0823  -18.9350  -15.5320 C   0  0  0  0  0  0  0  0  0  0  0  0
   28.4994  -19.6942  -14.3632 C   0  0  2  0  0  0  0  0  0  0  0  0
   29.4057  -20.6550  -13.7943 N   0  0  0  0  0  0  0  0  0  0  0  0
   27.2315  -20.3934  -14.7510 C   0  0  0  0  0  0  0  0  0  0  0  0
   27.2306  -21.5770  -15.1911 O   0  0  0  0  0  0  0  0  0  0  0  0
   25.5978  -21.5155   -9.6300 N   0  0  0  0  0  0  0  0  0  0  0  0
   24.2764  -21.0135   -9.3365 C   0  0  0  0  0  0  0  0  0  0  0  0
   23.9958  -20.4981   -8.1948 N   0  0  0  0  0  0  0  0  0  0  0  0
   23.2426  -21.0805  -10.3170 N   0  0  0  0  0  0  0  0  0  0  0  0
   23.4392  -21.6437  -11.6210 C   0  0  0  0  0  0  0  0  0  0  0  0
   24.0143  -20.7631  -12.6562 C   0  0  0  0  0  0  0  0  0  0  0  0
   24.1651  -21.2586  -14.0333 C   0  0  0  0  0  0  0  0  0  0  0  0
   24.7192  -20.3471  -15.0627 C   0  0  2  0  0  0  0  0  0  0  0  0
   25.9714  -19.7275  -14.6303 N   0  0  0  0  0  0  0  0  0  0  0  0
   23.7848  -19.3387  -15.5903 C   0  0  0  0  0  0  0  0  0  0  0  0
   23.9238  -18.0993  -15.4865 O   0  0  0  0  0  0  0  0  0  0  0  0
   22.6389  -19.7886  -16.2676 O   0  0  0  0  0  0  0  0  0  0  0  0
  1  2  1  0
  2  3  1  0
  4  3  1  0
  5  4  1  0
  5  1  1  0
  5  6  1  6
  6 11  1  0
  6  7  2  0
 10  9  1  6
  9  8  1  0
 10 12  1  0
 11 10  1  0
 12 13  2  0
 15 16  2  0
 15 14  1  0
 17 15  1  0
 18 17  1  0
 19 18  1  0
 20 19  1  0
 21 20  1  1
 21 23  1  0
 22 12  1  0
 22 21  1  0
 23 25  1  0
 24 23  2  0
M  END
$$$$
