PSR.pdb
     RDKit          3D

 25 25  0  0  1  0  0  0  0  0999 V2000
   30.1301  -15.5076  -19.0982 N   0  0  0  0  0  0  0  0  0  0  0  0
   31.4861  -15.8421  -19.5544 C   0  0  0  0  0  0  0  0  0  0  0  0
   31.9341  -16.9066  -18.5575 C   0  0  0  0  0  0  0  0  0  0  0  0
   30.6759  -17.4072  -17.9040 C   0  0  0  0  0  0  0  0  0  0  0  0
   29.5927  -16.7956  -18.7863 C   0  0  1  0  0  0  0  0  0  0  0  0
   28.3599  -16.7554  -17.9602 C   0  0  0  0  0  0  0  0  0  0  0  0
   28.4017  -16.0877  -16.9072 O   0  0  0  0  0  0  0  0  0  0  0  0
   24.5486  -18.0687  -19.3926 O   0  0  0  0  0  0  0  0  0  0  0  0
   24.7300  -17.0966  -18.4162 C   0  0  0  0  0  0  0  0  0  0  0  0
   25.9547  -17.3558  -17.5704 C   0  0  2  0  0  0  0  0  0  0  0  0
   27.1708  -17.4402  -18.3332 N   0  0  0  0  0  0  0  0  0  0  0  0
   25.7994  -18.6099  -16.7643 C   0  0  0  0  0  0  0  0  0  0  0  0
   26.0499  -19.7490  -17.2484 O   0  0  0  0  0  0  0  0  0  0  0  0
   23.9785  -20.8677   -9.9409 N   0  0  0  0  0  0  0  0  0  0  0  0
   25.2585  -20.8864   -9.2733 C   0  0  0  0  0  0  0  0  0  0  0  0
   25.3441  -20.9590   -7.9945 N   0  0  0  0  0  0  0  0  0  0  0  0
   26.4683  -20.8227  -10.0263 N   0  0  0  0  0  0  0  0  0  0  0  0
   26.5281  -21.0999  -11.4319 C   0  0  0  0  0  0  0  0  0  0  0  0
   25.3747  -20.6808  -12.2516 C   0  0  0  0  0  0  0  0  0  0  0  0
   25.5157  -19.5531  -13.1861 C   0  0  0  0  0  0  0  0  0  0  0  0
   25.1314  -19.7496  -14.6043 C   0  0  2  0  0  0  0  0  0  0  0  0
   25.3569  -18.5471  -15.4056 N   0  0  0  0  0  0  0  0  0  0  0  0
   23.7798  -20.2892  -14.8292 C   0  0  0  0  0  0  0  0  0  0  0  0
   22.7389  -19.6052  -14.9512 O   0  0  0  0  0  0  0  0  0  0  0  0
   23.6300  -21.6836  -14.9159 O   0  0  0  0  0  0  0  0  0  0  0  0
  1  2  1  0
  2  3  1  0
  4  3  1  0
  5  4  1  0
  5  1  1  0
  5  6  1  1
  6 11  1  0
  6  7  2  0
 10  9  1  6
  9  8  1  0
 10 12  1  0
 11 10  1  0
 12 13  2  0
 15 16  2  0
 15 14  1  0
 17 15  1  0
 18 17  1  0
 19 18  1  0
 20 19  1  0
 21 20  1  1
 21 23  1  0
 22 12  1  0
 22 21  1  0
 23 25  1  0
 24 23  2  0
M  END
$$$$
