PSR.pdb
     RDKit          3D

 25 25  0  0  1  0  0  0  0  0999 V2000
   30.5184  -22.1859  -11.7836 N   0  0  0  0  0  0  0  0  0  0  0  0
   31.6580  -22.6769  -10.9969 C   0  0  0  0  0  0  0  0  0  0  0  0
   31.6681  -21.7492   -9.7858 C   0  0  0  0  0  0  0  0  0  0  0  0
   30.3071  -21.1111   -9.7507 C   0  0  0  0  0  0  0  0  0  0  0  0
   29.5379  -21.9433  -10.7713 C   0  0  1  0  0  0  0  0  0  0  0  0
   28.3995  -21.1016  -11.2179 C   0  0  0  0  0  0  0  0  0  0  0  0
   27.5230  -20.8337  -10.3715 O   0  0  0  0  0  0  0  0  0  0  0  0
   28.3548  -19.3603  -15.0944 O   0  0  0  0  0  0  0  0  0  0  0  0
   27.8119  -18.6826  -14.0095 C   0  0  0  0  0  0  0  0  0  0  0  0
   27.3200  -19.6231  -12.9344 C   0  0  2  0  0  0  0  0  0  0  0  0
   28.2917  -20.6103  -12.5480 N   0  0  0  0  0  0  0  0  0  0  0  0
   26.0629  -20.3200  -13.3596 C   0  0  0  0  0  0  0  0  0  0  0  0
   26.0856  -21.4431  -13.9364 O   0  0  0  0  0  0  0  0  0  0  0  0
   19.8793  -22.9557  -11.1646 N   0  0  0  0  0  0  0  0  0  0  0  0
   20.0518  -22.0407  -10.0613 C   0  0  0  0  0  0  0  0  0  0  0  0
   20.3883  -22.4569   -8.8944 N   0  0  0  0  0  0  0  0  0  0  0  0
   19.8493  -20.6406  -10.2439 N   0  0  0  0  0  0  0  0  0  0  0  0
   20.4338  -19.9021  -11.3251 C   0  0  0  0  0  0  0  0  0  0  0  0
   21.6663  -20.4479  -11.9260 C   0  0  0  0  0  0  0  0  0  0  0  0
   22.3475  -19.7028  -12.9963 C   0  0  0  0  0  0  0  0  0  0  0  0
   23.5457  -20.3017  -13.6313 C   0  0  2  0  0  0  0  0  0  0  0  0
   24.7864  -19.7214  -13.1188 N   0  0  0  0  0  0  0  0  0  0  0  0
   23.5416  -20.3256  -15.1037 C   0  0  0  0  0  0  0  0  0  0  0  0
   24.0071  -19.4294  -15.8429 O   0  0  0  0  0  0  0  0  0  0  0  0
   22.9723  -21.4380  -15.7460 O   0  0  0  0  0  0  0  0  0  0  0  0
  1  2  1  0
  2  3  1  0
  4  3  1  0
  5  4  1  0
  5  1  1  0
  5  6  1  6
  6 11  1  0
  6  7  2  0
 10  9  1  6
  9  8  1  0
 10 12  1  0
 11 10  1  0
 12 13  2  0
 15 16  2  0
 15 14  1  0
 17 15  1  0
 18 17  1  0
 19 18  1  0
 20 19  1  0
 21 20  1  6
 21 23  1  0
 22 12  1  0
 22 21  1  0
 23 25  1  0
 24 23  2  0
M  END
$$$$
