PSR.pdb
     RDKit          3D

 25 25  0  0  1  0  0  0  0  0999 V2000
   25.9401  -20.1964  -19.4582 N   0  0  0  0  0  0  0  0  0  0  0  0
   25.8822  -20.0363  -20.9176 C   0  0  0  0  0  0  0  0  0  0  0  0
   27.1072  -19.1791  -21.2209 C   0  0  0  0  0  0  0  0  0  0  0  0
   27.9911  -19.2896  -20.0095 C   0  0  0  0  0  0  0  0  0  0  0  0
   27.3338  -20.4289  -19.2375 C   0  0  1  0  0  0  0  0  0  0  0  0
   27.7594  -20.2706  -17.8241 C   0  0  0  0  0  0  0  0  0  0  0  0
   28.9602  -20.4866  -17.5635 O   0  0  0  0  0  0  0  0  0  0  0  0
   26.0325  -17.6335  -15.2175 O   0  0  0  0  0  0  0  0  0  0  0  0
   27.2652  -18.2399  -15.0082 C   0  0  0  0  0  0  0  0  0  0  0  0
   27.2697  -19.6899  -15.4324 C   0  0  2  0  0  0  0  0  0  0  0  0
   26.8552  -19.8898  -16.7949 N   0  0  0  0  0  0  0  0  0  0  0  0
   26.4014  -20.5185  -14.5344 C   0  0  0  0  0  0  0  0  0  0  0  0
   25.1904  -20.7509  -14.8069 O   0  0  0  0  0  0  0  0  0  0  0  0
   27.3635  -18.8886   -6.0698 N   0  0  0  0  0  0  0  0  0  0  0  0
   26.5431  -20.0736   -5.9859 C   0  0  0  0  0  0  0  0  0  0  0  0
   25.8845  -20.3562   -4.9209 N   0  0  0  0  0  0  0  0  0  0  0  0
   26.4456  -20.9662   -7.0942 N   0  0  0  0  0  0  0  0  0  0  0  0
   27.0811  -20.7168   -8.3552 C   0  0  0  0  0  0  0  0  0  0  0  0
   26.3076  -21.0272   -9.5732 C   0  0  0  0  0  0  0  0  0  0  0  0
   26.9323  -20.8631  -10.8952 C   0  0  0  0  0  0  0  0  0  0  0  0
   26.1358  -21.1793  -12.1047 C   0  0  2  0  0  0  0  0  0  0  0  0
   26.9306  -21.0753  -13.3280 N   0  0  0  0  0  0  0  0  0  0  0  0
   24.8628  -20.4510  -12.2377 C   0  0  0  0  0  0  0  0  0  0  0  0
   23.7503  -20.8595  -11.8355 O   0  0  0  0  0  0  0  0  0  0  0  0
   24.8821  -19.1939  -12.8649 O   0  0  0  0  0  0  0  0  0  0  0  0
  1  2  1  0
  2  3  1  0
  4  3  1  0
  5  4  1  0
  5  1  1  0
  5  6  1  1
  6 11  1  0
  6  7  2  0
 10  9  1  1
  9  8  1  0
 10 12  1  0
 11 10  1  0
 12 13  2  0
 15 16  2  0
 15 14  1  0
 17 15  1  0
 18 17  1  0
 19 18  1  0
 20 19  1  0
 21 20  1  1
 21 23  1  0
 22 12  1  0
 22 21  1  0
 23 25  1  0
 24 23  2  0
M  END
$$$$
