PSR.pdb
     RDKit          3D

 25 25  0  0  1  0  0  0  0  0999 V2000
   26.7202  -16.0233  -15.4377 N   0  0  0  0  0  0  0  0  0  0  0  0
   27.3716  -14.7911  -15.9025 C   0  0  0  0  0  0  0  0  0  0  0  0
   27.1830  -14.8491  -17.4154 C   0  0  0  0  0  0  0  0  0  0  0  0
   26.0828  -15.8466  -17.6502 C   0  0  0  0  0  0  0  0  0  0  0  0
   25.5380  -16.0587  -16.2416 C   0  0  1  0  0  0  0  0  0  0  0  0
   24.8532  -17.3758  -16.2567 C   0  0  0  0  0  0  0  0  0  0  0  0
   23.7399  -17.4322  -16.8167 O   0  0  0  0  0  0  0  0  0  0  0  0
   26.3985  -20.9403  -14.3279 O   0  0  0  0  0  0  0  0  0  0  0  0
   25.8190  -20.9697  -15.5906 C   0  0  0  0  0  0  0  0  0  0  0  0
   24.8343  -19.8424  -15.7954 C   0  0  2  0  0  0  0  0  0  0  0  0
   25.4226  -18.5367  -15.6649 N   0  0  0  0  0  0  0  0  0  0  0  0
   23.6811  -19.9524  -14.8442 C   0  0  0  0  0  0  0  0  0  0  0  0
   23.7424  -19.4999  -13.6669 O   0  0  0  0  0  0  0  0  0  0  0  0
   17.8910  -23.3826  -11.1263 N   0  0  0  0  0  0  0  0  0  0  0  0
   16.9290  -22.5331  -11.7877 C   0  0  0  0  0  0  0  0  0  0  0  0
   15.9578  -21.9955  -11.1430 N   0  0  0  0  0  0  0  0  0  0  0  0
   17.0361  -22.2704  -13.1856 N   0  0  0  0  0  0  0  0  0  0  0  0
   18.2930  -22.1990  -13.8721 C   0  0  0  0  0  0  0  0  0  0  0  0
   18.8237  -20.8543  -14.1691 C   0  0  0  0  0  0  0  0  0  0  0  0
   20.0397  -20.7144  -14.9855 C   0  0  0  0  0  0  0  0  0  0  0  0
   21.3608  -20.8207  -14.3216 C   0  0  2  0  0  0  0  0  0  0  0  0
   22.4635  -20.5823  -15.2522 N   0  0  0  0  0  0  0  0  0  0  0  0
   21.5843  -22.0489  -13.5404 C   0  0  0  0  0  0  0  0  0  0  0  0
   22.0282  -23.1261  -13.9975 O   0  0  0  0  0  0  0  0  0  0  0  0
   21.2790  -22.0258  -12.1692 O   0  0  0  0  0  0  0  0  0  0  0  0
  1  2  1  0
  2  3  1  0
  4  3  1  0
  5  4  1  0
  5  1  1  0
  5  6  1  6
  6 11  1  0
  6  7  2  0
 10  9  1  1
  9  8  1  0
 10 12  1  0
 11 10  1  0
 12 13  2  0
 15 16  2  0
 15 14  1  0
 17 15  1  0
 18 17  1  0
 19 18  1  0
 20 19  1  0
 21 20  1  6
 21 23  1  0
 22 12  1  0
 22 21  1  0
 23 25  1  0
 24 23  2  0
M  END
$$$$
