PSR.pdb
     RDKit          3D

 25 25  0  0  1  0  0  0  0  0999 V2000
   24.9677  -10.0638  -16.8146 N   0  0  0  0  0  0  0  0  0  0  0  0
   25.9642  -11.1164  -17.0548 C   0  0  0  0  0  0  0  0  0  0  0  0
   26.6856  -11.2229  -15.7147 C   0  0  0  0  0  0  0  0  0  0  0  0
   25.7792  -10.5649  -14.7115 C   0  0  0  0  0  0  0  0  0  0  0  0
   24.4899  -10.3963  -15.5083 C   0  0  1  0  0  0  0  0  0  0  0  0
   23.7320   -9.3065  -14.8435 C   0  0  0  0  0  0  0  0  0  0  0  0
   23.2940   -9.5345  -13.6979 O   0  0  0  0  0  0  0  0  0  0  0  0
   22.9574   -5.4452  -16.6693 O   0  0  0  0  0  0  0  0  0  0  0  0
   23.1212   -5.6179  -15.3002 C   0  0  0  0  0  0  0  0  0  0  0  0
   22.7311   -7.0052  -14.8470 C   0  0  2  0  0  0  0  0  0  0  0  0
   23.5031   -8.0487  -15.4661 N   0  0  0  0  0  0  0  0  0  0  0  0
   21.2760   -7.2658  -15.0951 C   0  0  0  0  0  0  0  0  0  0  0  0
   20.8720   -7.8525  -16.1378 O   0  0  0  0  0  0  0  0  0  0  0  0
   14.9934  -10.6475  -10.2293 N   0  0  0  0  0  0  0  0  0  0  0  0
   14.9421  -10.9930  -11.6301 C   0  0  0  0  0  0  0  0  0  0  0  0
   14.4258  -12.0992  -12.0270 N   0  0  0  0  0  0  0  0  0  0  0  0
   15.4699  -10.1054  -12.6141 N   0  0  0  0  0  0  0  0  0  0  0  0
   16.1329   -8.8779  -12.2824 C   0  0  0  0  0  0  0  0  0  0  0  0
   16.7961   -8.1512  -13.3824 C   0  0  0  0  0  0  0  0  0  0  0  0
   18.2373   -7.8658  -13.3031 C   0  0  0  0  0  0  0  0  0  0  0  0
   18.8612   -7.0434  -14.3670 C   0  0  2  0  0  0  0  0  0  0  0  0
   20.2934   -6.8502  -14.1424 N   0  0  0  0  0  0  0  0  0  0  0  0
   18.1939   -5.7630  -14.6563 C   0  0  0  0  0  0  0  0  0  0  0  0
   18.6527   -4.6307  -14.3853 O   0  0  0  0  0  0  0  0  0  0  0  0
   16.9391   -5.7986  -15.2876 O   0  0  0  0  0  0  0  0  0  0  0  0
  1  2  1  0
  2  3  1  0
  4  3  1  0
  5  4  1  0
  5  1  1  0
  5  6  1  1
  6 11  1  0
  6  7  2  0
 10  9  1  6
  9  8  1  0
 10 12  1  0
 11 10  1  0
 12 13  2  0
 15 16  2  0
 15 14  1  0
 17 15  1  0
 18 17  1  0
 19 18  1  0
 20 19  1  0
 21 20  1  1
 21 23  1  0
 22 12  1  0
 22 21  1  0
 23 25  1  0
 24 23  2  0
M  END
$$$$
