NVF.pdb
     RDKit          3D

 27 27  0  0  1  0  0  0  0  0999 V2000
    9.9301  -12.9485   18.6803 N   0  0  0  0  0  0  0  0  0  0  0  0
    8.5514  -12.7700   18.8917 C   0  0  0  0  0  0  0  0  0  0  0  0
    7.9279  -11.9309   18.2083 O   0  0  0  0  0  0  0  0  0  0  0  0
    7.8305  -13.5668   19.9165 C   0  0  0  0  0  0  0  0  0  0  0  0
    8.2441  -15.0234   19.8413 C   0  0  2  0  0  0  0  0  0  0  0  0
    7.7666  -15.6433   18.6246 N   0  0  0  0  0  0  0  0  0  0  0  0
    7.7297  -15.7808   21.0135 C   0  0  0  0  0  0  0  0  0  0  0  0
    6.4785  -15.7264   21.2732 O   0  0  0  0  0  0  0  0  0  0  0  0
    7.4836  -19.2249   21.5199 C   0  0  0  0  0  0  0  0  0  0  0  0
    8.2866  -18.7291   22.6835 C   0  0  1  0  0  0  0  0  0  0  0  0
    9.7292  -19.0674   22.5196 C   0  0  0  0  0  0  0  0  0  0  0  0
    8.0070  -17.2641   22.9682 C   0  0  2  0  0  0  0  0  0  0  0  0
    8.5930  -16.5493   21.8333 N   0  0  0  0  0  0  0  0  0  0  0  0
    8.6337  -16.8000   24.2400 C   0  0  0  0  0  0  0  0  0  0  0  0
    9.7963  -16.2902   24.1663 O   0  0  0  0  0  0  0  0  0  0  0  0
    7.9272  -16.9390   25.4581 N   0  0  0  0  0  0  0  0  0  0  0  0
    8.6418  -16.6358   26.7111 C   0  0  1  0  0  0  0  0  0  0  0  0
    7.6995  -15.8410   27.5456 C   0  0  0  0  0  0  0  0  0  0  0  0
    7.5743  -14.4690   27.0112 C   0  0  0  0  0  0  0  0  0  0  0  0
    6.4750  -14.0858   26.2525 C   0  0  0  0  0  0  0  0  0  0  0  0
    6.3483  -12.8121   25.7542 C   0  0  0  0  0  0  0  0  0  0  0  0
    7.3473  -11.9113   26.0260 C   0  0  0  0  0  0  0  0  0  0  0  0
    8.4512  -12.2646   26.7772 C   0  0  0  0  0  0  0  0  0  0  0  0
    8.5654  -13.5539   27.2737 C   0  0  0  0  0  0  0  0  0  0  0  0
    9.1533  -17.8723   27.3122 C   0  0  0  0  0  0  0  0  0  0  0  0
   10.1423  -17.8729   28.2749 O   0  0  0  0  0  0  0  0  0  0  0  0
    8.6898  -18.9791   26.9520 O   0  0  0  0  0  0  0  0  0  0  0  0
  2  3  2  0
  2  1  1  0
  4  2  1  0
  5  4  1  0
  5  6  1  6
  7  8  2  0
  7  5  1  0
 10  9  1  6
 10 12  1  0
 11 10  1  0
 12 13  1  6
 13  7  1  0
 14 12  1  0
 14 15  2  0
 16 14  1  0
 17 16  1  0
 17 25  1  0
 17 18  1  1
 19 18  1  0
 20 19  2  0
 21 20  1  0
 22 21  2  0
 22 23  1  0
 23 24  2  0
 24 19  1  0
 25 26  1  0
 27 25  2  0
M  END
$$$$
