NVF.pdb
     RDKit          3D

 27 27  0  0  1  0  0  0  0  0999 V2000
    7.9853  -12.6486   16.8872 N   0  0  0  0  0  0  0  0  0  0  0  0
    8.7871  -13.5187   17.6469 C   0  0  0  0  0  0  0  0  0  0  0  0
    9.8996  -13.8740   17.2041 O   0  0  0  0  0  0  0  0  0  0  0  0
    8.3265  -14.0184   18.9671 C   0  0  0  0  0  0  0  0  0  0  0  0
    8.0216  -15.5018   18.8939 C   0  0  2  0  0  0  0  0  0  0  0  0
    6.9297  -15.7698   17.9836 N   0  0  0  0  0  0  0  0  0  0  0  0
    7.6836  -16.0395   20.2389 C   0  0  0  0  0  0  0  0  0  0  0  0
    6.6997  -15.5230   20.8723 O   0  0  0  0  0  0  0  0  0  0  0  0
    7.8984  -19.6963   23.4167 C   0  0  0  0  0  0  0  0  0  0  0  0
    8.0330  -19.0638   22.0654 C   0  0  1  0  0  0  0  0  0  0  0  0
    7.0293  -19.6191   21.1133 C   0  0  0  0  0  0  0  0  0  0  0  0
    8.0472  -17.5484   22.1596 C   0  0  2  0  0  0  0  0  0  0  0  0
    8.4247  -17.0988   20.8187 N   0  0  0  0  0  0  0  0  0  0  0  0
    9.0337  -17.0478   23.1604 C   0  0  0  0  0  0  0  0  0  0  0  0
   10.2670  -17.2135   22.8984 O   0  0  0  0  0  0  0  0  0  0  0  0
    8.5729  -16.4179   24.3407 N   0  0  0  0  0  0  0  0  0  0  0  0
    9.5750  -15.9908   25.3337 C   0  0  1  0  0  0  0  0  0  0  0  0
    9.6456  -14.5067   25.2417 C   0  0  0  0  0  0  0  0  0  0  0  0
    8.3913  -13.9026   25.7371 C   0  0  0  0  0  0  0  0  0  0  0  0
    7.2420  -13.8796   24.9565 C   0  0  0  0  0  0  0  0  0  0  0  0
    6.0707  -13.3231   25.4095 C   0  0  0  0  0  0  0  0  0  0  0  0
    6.0598  -12.7813   26.6702 C   0  0  0  0  0  0  0  0  0  0  0  0
    7.1874  -12.7901   27.4680 C   0  0  0  0  0  0  0  0  0  0  0  0
    8.3624  -13.3553   26.9974 C   0  0  0  0  0  0  0  0  0  0  0  0
    9.2455  -16.5423   26.6525 C   0  0  0  0  0  0  0  0  0  0  0  0
   10.1186  -16.4801   27.7196 O   0  0  0  0  0  0  0  0  0  0  0  0
    8.1367  -17.0951   26.8381 O   0  0  0  0  0  0  0  0  0  0  0  0
  2  3  2  0
  2  1  1  0
  4  2  1  0
  5  4  1  0
  5  6  1  6
  7  8  2  0
  7  5  1  0
 10  9  1  1
 10 12  1  0
 11 10  1  0
 12 13  1  6
 13  7  1  0
 14 12  1  0
 14 15  2  0
 16 14  1  0
 17 16  1  0
 17 25  1  0
 17 18  1  1
 19 18  1  0
 20 19  2  0
 21 20  1  0
 22 21  2  0
 22 23  1  0
 23 24  2  0
 24 19  1  0
 25 26  1  0
 27 25  2  0
M  END
$$$$
