NVF.pdb
     RDKit          3D

 27 27  0  0  1  0  0  0  0  0999 V2000
    7.3692  -21.1548   19.4144 N   0  0  0  0  0  0  0  0  0  0  0  0
    7.6115  -20.8164   20.7576 C   0  0  0  0  0  0  0  0  0  0  0  0
    7.5450  -21.7014   21.6364 O   0  0  0  0  0  0  0  0  0  0  0  0
    7.9448  -19.4213   21.1414 C   0  0  0  0  0  0  0  0  0  0  0  0
    8.0098  -18.5359   19.9124 C   0  0  2  0  0  0  0  0  0  0  0  0
    8.7032  -19.1938   18.8266 N   0  0  0  0  0  0  0  0  0  0  0  0
    8.6897  -17.2497   20.2222 C   0  0  0  0  0  0  0  0  0  0  0  0
    9.9662  -17.2033   20.1552 O   0  0  0  0  0  0  0  0  0  0  0  0
    6.4901  -13.9535   21.5273 C   0  0  0  0  0  0  0  0  0  0  0  0
    7.6291  -13.7567   20.5743 C   0  0  1  0  0  0  0  0  0  0  0  0
    8.1482  -12.3610   20.6433 C   0  0  0  0  0  0  0  0  0  0  0  0
    8.6852  -14.8351   20.7396 C   0  0  2  0  0  0  0  0  0  0  0  0
    7.9546  -16.0939   20.5847 N   0  0  0  0  0  0  0  0  0  0  0  0
    9.3426  -14.7900   22.0779 C   0  0  0  0  0  0  0  0  0  0  0  0
   10.4185  -14.1195   22.1780 O   0  0  0  0  0  0  0  0  0  0  0  0
    8.7579  -15.4790   23.1668 N   0  0  0  0  0  0  0  0  0  0  0  0
    9.3908  -15.3442   24.4913 C   0  0  1  0  0  0  0  0  0  0  0  0
    9.3958  -13.8887   24.8037 C   0  0  0  0  0  0  0  0  0  0  0  0
    8.2325  -13.5417   25.6462 C   0  0  0  0  0  0  0  0  0  0  0  0
    6.9336  -13.8101   25.2317 C   0  0  0  0  0  0  0  0  0  0  0  0
    5.8462  -13.4940   26.0091 C   0  0  0  0  0  0  0  0  0  0  0  0
    6.0738  -12.8975   27.2239 C   0  0  0  0  0  0  0  0  0  0  0  0
    7.3541  -12.6190   27.6611 C   0  0  0  0  0  0  0  0  0  0  0  0
    8.4420  -12.9437   26.8657 C   0  0  0  0  0  0  0  0  0  0  0  0
    8.7170  -16.2122   25.4631 C   0  0  0  0  0  0  0  0  0  0  0  0
    7.6322  -16.9967   25.1271 O   0  0  0  0  0  0  0  0  0  0  0  0
    9.1245  -16.2573   26.6469 O   0  0  0  0  0  0  0  0  0  0  0  0
  2  3  2  0
  2  1  1  0
  4  2  1  0
  5  4  1  0
  5  6  1  6
  7  8  2  0
  7  5  1  0
 10  9  1  1
 10 12  1  0
 11 10  1  0
 12 13  1  1
 13  7  1  0
 14 12  1  0
 14 15  2  0
 16 14  1  0
 17 16  1  0
 17 25  1  0
 17 18  1  1
 19 18  1  0
 20 19  2  0
 21 20  1  0
 22 21  2  0
 22 23  1  0
 23 24  2  0
 24 19  1  0
 25 26  1  0
 27 25  2  0
M  END
$$$$
