NVF.pdb
     RDKit          3D

 27 27  0  0  1  0  0  0  0  0999 V2000
    7.3198  -19.8122   16.9601 N   0  0  0  0  0  0  0  0  0  0  0  0
    8.4116  -19.5532   17.8075 C   0  0  0  0  0  0  0  0  0  0  0  0
    9.2341  -20.4623   18.0463 O   0  0  0  0  0  0  0  0  0  0  0  0
    8.5967  -18.2134   18.4203 C   0  0  0  0  0  0  0  0  0  0  0  0
    8.7415  -18.3353   19.9245 C   0  0  2  0  0  0  0  0  0  0  0  0
    7.5042  -18.7646   20.5387 N   0  0  0  0  0  0  0  0  0  0  0  0
    9.1636  -17.0403   20.5222 C   0  0  0  0  0  0  0  0  0  0  0  0
   10.2913  -16.5470   20.1743 O   0  0  0  0  0  0  0  0  0  0  0  0
    7.7942  -12.8252   22.4364 C   0  0  0  0  0  0  0  0  0  0  0  0
    7.6156  -14.1284   21.7194 C   0  0  1  0  0  0  0  0  0  0  0  0
    7.2577  -13.9066   20.2893 C   0  0  0  0  0  0  0  0  0  0  0  0
    8.8003  -15.0520   21.9408 C   0  0  2  0  0  0  0  0  0  0  0  0
    8.3467  -16.3566   21.4565 N   0  0  0  0  0  0  0  0  0  0  0  0
    9.1873  -15.1495   23.3782 C   0  0  0  0  0  0  0  0  0  0  0  0
    9.6854  -14.1129   23.9208 O   0  0  0  0  0  0  0  0  0  0  0  0
    8.9896  -16.3658   24.0737 N   0  0  0  0  0  0  0  0  0  0  0  0
    8.4369  -16.3007   25.4387 C   0  0  1  0  0  0  0  0  0  0  0  0
    7.0925  -15.6740   25.3137 C   0  0  0  0  0  0  0  0  0  0  0  0
    7.0746  -14.3606   25.9908 C   0  0  0  0  0  0  0  0  0  0  0  0
    5.9426  -13.5549   25.9766 C   0  0  0  0  0  0  0  0  0  0  0  0
    5.9155  -12.3341   26.6056 C   0  0  0  0  0  0  0  0  0  0  0  0
    7.0490  -11.9204   27.2591 C   0  0  0  0  0  0  0  0  0  0  0  0
    8.1885  -12.7006   27.2894 C   0  0  0  0  0  0  0  0  0  0  0  0
    8.2012  -13.9305   26.6501 C   0  0  0  0  0  0  0  0  0  0  0  0
    8.4768  -17.6276   26.0631 C   0  0  0  0  0  0  0  0  0  0  0  0
    9.2265  -17.8921   27.1913 O   0  0  0  0  0  0  0  0  0  0  0  0
    7.8142  -18.5693   25.5696 O   0  0  0  0  0  0  0  0  0  0  0  0
  2  3  2  0
  2  1  1  0
  4  2  1  0
  5  4  1  0
  5  6  1  1
  7  8  2  0
  7  5  1  0
 10  9  1  6
 10 12  1  0
 11 10  1  0
 12 13  1  1
 13  7  1  0
 14 12  1  0
 14 15  2  0
 16 14  1  0
 17 16  1  0
 17 25  1  0
 17 18  1  6
 19 18  1  0
 20 19  2  0
 21 20  1  0
 22 21  2  0
 22 23  1  0
 23 24  2  0
 24 19  1  0
 25 26  1  0
 27 25  2  0
M  END
$$$$
