NVF.pdb
     RDKit          3D

 27 27  0  0  1  0  0  0  0  0999 V2000
    8.6266  -20.2877   17.4494 N   0  0  0  0  0  0  0  0  0  0  0  0
    7.8912  -19.0966   17.5831 C   0  0  0  0  0  0  0  0  0  0  0  0
    6.6925  -19.0713   17.2334 O   0  0  0  0  0  0  0  0  0  0  0  0
    8.5232  -17.8713   18.1344 C   0  0  0  0  0  0  0  0  0  0  0  0
    8.4116  -17.8531   19.6463 C   0  0  2  0  0  0  0  0  0  0  0  0
    7.0343  -17.9698   20.0732 N   0  0  0  0  0  0  0  0  0  0  0  0
    8.9953  -16.6044   20.2051 C   0  0  0  0  0  0  0  0  0  0  0  0
   10.2431  -16.3837   20.0311 O   0  0  0  0  0  0  0  0  0  0  0  0
    7.8573  -13.1520   19.6841 C   0  0  0  0  0  0  0  0  0  0  0  0
    7.9744  -13.3355   21.1663 C   0  0  1  0  0  0  0  0  0  0  0  0
    6.6295  -13.3655   21.8087 C   0  0  0  0  0  0  0  0  0  0  0  0
    8.8688  -14.5129   21.5119 C   0  0  2  0  0  0  0  0  0  0  0  0
    8.2009  -15.6710   20.9160 N   0  0  0  0  0  0  0  0  0  0  0  0
    9.0106  -14.7093   22.9839 C   0  0  0  0  0  0  0  0  0  0  0  0
    9.7429  -13.8836   23.6156 O   0  0  0  0  0  0  0  0  0  0  0  0
    8.3386  -15.7839   23.6131 N   0  0  0  0  0  0  0  0  0  0  0  0
    8.5615  -15.9902   25.0555 C   0  0  1  0  0  0  0  0  0  0  0  0
    7.2983  -15.5888   25.7332 C   0  0  0  0  0  0  0  0  0  0  0  0
    7.3995  -14.1986   26.2236 C   0  0  0  0  0  0  0  0  0  0  0  0
    8.5967  -13.6891   26.7116 C   0  0  0  0  0  0  0  0  0  0  0  0
    8.7013  -12.3973   27.1666 C   0  0  0  0  0  0  0  0  0  0  0  0
    7.5796  -11.6077   27.1284 C   0  0  0  0  0  0  0  0  0  0  0  0
    6.3765  -12.0877   26.6488 C   0  0  0  0  0  0  0  0  0  0  0  0
    6.2860  -13.3936   26.1927 C   0  0  0  0  0  0  0  0  0  0  0  0
    9.0220  -17.3606   25.3041 C   0  0  0  0  0  0  0  0  0  0  0  0
    9.4482  -17.7840   26.5467 O   0  0  0  0  0  0  0  0  0  0  0  0
    9.0378  -18.1928   24.3677 O   0  0  0  0  0  0  0  0  0  0  0  0
  2  3  2  0
  2  1  1  0
  4  2  1  0
  5  4  1  0
  5  6  1  6
  7  8  2  0
  7  5  1  0
 10  9  1  6
 10 12  1  0
 11 10  1  0
 12 13  1  6
 13  7  1  0
 14 12  1  0
 14 15  2  0
 16 14  1  0
 17 16  1  0
 17 25  1  0
 17 18  1  1
 19 18  1  0
 20 19  2  0
 21 20  1  0
 22 21  2  0
 22 23  1  0
 23 24  2  0
 24 19  1  0
 25 26  1  0
 27 25  2  0
M  END
$$$$
