NVF.pdb
     RDKit          3D

 27 27  0  0  1  0  0  0  0  0999 V2000
    8.2745  -12.5658   17.3661 N   0  0  0  0  0  0  0  0  0  0  0  0
    8.5260  -13.7679   18.0510 C   0  0  0  0  0  0  0  0  0  0  0  0
    9.2515  -14.6365   17.5227 O   0  0  0  0  0  0  0  0  0  0  0  0
    7.9396  -14.0151   19.3925 C   0  0  0  0  0  0  0  0  0  0  0  0
    7.6287  -15.4883   19.5704 C   0  0  2  0  0  0  0  0  0  0  0  0
    6.5736  -15.9145   18.6772 N   0  0  0  0  0  0  0  0  0  0  0  0
    7.2321  -15.7797   20.9741 C   0  0  0  0  0  0  0  0  0  0  0  0
    6.5075  -14.9263   21.5925 O   0  0  0  0  0  0  0  0  0  0  0  0
    7.9193  -19.5092   22.5455 C   0  0  0  0  0  0  0  0  0  0  0  0
    6.8645  -18.6178   23.1263 C   0  0  1  0  0  0  0  0  0  0  0  0
    6.4803  -19.0667   24.4950 C   0  0  0  0  0  0  0  0  0  0  0  0
    7.2559  -17.1542   23.0255 C   0  0  2  0  0  0  0  0  0  0  0  0
    7.6396  -16.9705   21.6249 N   0  0  0  0  0  0  0  0  0  0  0  0
    8.4010  -16.8068   23.9162 C   0  0  0  0  0  0  0  0  0  0  0  0
    9.5698  -17.0886   23.5020 O   0  0  0  0  0  0  0  0  0  0  0  0
    8.1523  -16.1876   25.1640 N   0  0  0  0  0  0  0  0  0  0  0  0
    9.3042  -15.9106   26.0410 C   0  0  1  0  0  0  0  0  0  0  0  0
    9.6316  -14.4703   25.8553 C   0  0  0  0  0  0  0  0  0  0  0  0
    8.4749  -13.6299   26.2283 C   0  0  0  0  0  0  0  0  0  0  0  0
    8.4041  -13.0059   27.4679 C   0  0  0  0  0  0  0  0  0  0  0  0
    7.3346  -12.2204   27.8225 C   0  0  0  0  0  0  0  0  0  0  0  0
    6.3206  -12.0625   26.9113 C   0  0  0  0  0  0  0  0  0  0  0  0
    6.3645  -12.6709   25.6721 C   0  0  0  0  0  0  0  0  0  0  0  0
    7.4504  -13.4609   25.3280 C   0  0  0  0  0  0  0  0  0  0  0  0
    9.0070  -16.3348   27.4135 C   0  0  0  0  0  0  0  0  0  0  0  0
    9.9484  -16.2901   28.4219 O   0  0  0  0  0  0  0  0  0  0  0  0
    7.8635  -16.7573   27.7020 O   0  0  0  0  0  0  0  0  0  0  0  0
  2  3  2  0
  2  1  1  0
  4  2  1  0
  5  4  1  0
  5  6  1  6
  7  8  2  0
  7  5  1  0
 10  9  1  1
 10 12  1  0
 11 10  1  0
 12 13  1  6
 13  7  1  0
 14 12  1  0
 14 15  2  0
 16 14  1  0
 17 16  1  0
 17 25  1  0
 17 18  1  1
 19 18  1  0
 20 19  2  0
 21 20  1  0
 22 21  2  0
 22 23  1  0
 23 24  2  0
 24 19  1  0
 25 26  1  0
 27 25  2  0
M  END
$$$$
