NVF.pdb
     RDKit          3D

 27 27  0  0  1  0  0  0  0  0999 V2000
   14.9285  -15.3392   17.1545 N   0  0  0  0  0  0  0  0  0  0  0  0
   14.3198  -14.5409   18.1391 C   0  0  0  0  0  0  0  0  0  0  0  0
   15.0086  -13.7137   18.7726 O   0  0  0  0  0  0  0  0  0  0  0  0
   12.8702  -14.6705   18.4333 C   0  0  0  0  0  0  0  0  0  0  0  0
   12.6579  -15.4673   19.7056 C   0  0  2  0  0  0  0  0  0  0  0  0
   13.1281  -16.8274   19.5587 N   0  0  0  0  0  0  0  0  0  0  0  0
   11.2203  -15.4825   20.0867 C   0  0  0  0  0  0  0  0  0  0  0  0
   10.6061  -14.3657   20.1941 O   0  0  0  0  0  0  0  0  0  0  0  0
    7.1936  -18.1799   20.9736 C   0  0  0  0  0  0  0  0  0  0  0  0
    8.5621  -17.9940   20.3932 C   0  0  1  0  0  0  0  0  0  0  0  0
    8.5782  -18.3378   18.9426 C   0  0  0  0  0  0  0  0  0  0  0  0
    9.1262  -16.6243   20.7266 C   0  0  2  0  0  0  0  0  0  0  0  0
   10.5329  -16.6977   20.3286 N   0  0  0  0  0  0  0  0  0  0  0  0
    9.0250  -16.3036   22.1800 C   0  0  0  0  0  0  0  0  0  0  0  0
    9.8944  -16.8166   22.9534 O   0  0  0  0  0  0  0  0  0  0  0  0
    7.9881  -15.4566   22.6377 N   0  0  0  0  0  0  0  0  0  0  0  0
    8.0665  -14.9515   24.0203 C   0  0  1  0  0  0  0  0  0  0  0  0
    7.5318  -13.5626   23.9868 C   0  0  0  0  0  0  0  0  0  0  0  0
    7.4915  -12.9962   25.3510 C   0  0  0  0  0  0  0  0  0  0  0  0
    6.2863  -12.7675   26.0039 C   0  0  0  0  0  0  0  0  0  0  0  0
    6.2389  -12.2444   27.2730 C   0  0  0  0  0  0  0  0  0  0  0  0
    7.4268  -11.9474   27.8926 C   0  0  0  0  0  0  0  0  0  0  0  0
    8.6393  -12.1642   27.2676 C   0  0  0  0  0  0  0  0  0  0  0  0
    8.6717  -12.6929   25.9866 C   0  0  0  0  0  0  0  0  0  0  0  0
    7.3959  -15.8810   24.9359 C   0  0  0  0  0  0  0  0  0  0  0  0
    7.9537  -16.2670   26.1379 O   0  0  0  0  0  0  0  0  0  0  0  0
    6.2758  -16.3542   24.6345 O   0  0  0  0  0  0  0  0  0  0  0  0
  2  3  2  0
  2  1  1  0
  4  2  1  0
  5  4  1  0
  5  6  1  6
  7  8  2  0
  7  5  1  0
 10  9  1  6
 10 12  1  0
 11 10  1  0
 12 13  1  1
 13  7  1  0
 14 12  1  0
 14 15  2  0
 16 14  1  0
 17 16  1  0
 17 25  1  0
 17 18  1  6
 19 18  1  0
 20 19  2  0
 21 20  1  0
 22 21  2  0
 22 23  1  0
 23 24  2  0
 24 19  1  0
 25 26  1  0
 27 25  2  0
M  END
$$$$
