NVF.pdb
     RDKit          3D

 27 27  0  0  1  0  0  0  0  0999 V2000
    9.0898  -20.2368   17.3342 N   0  0  0  0  0  0  0  0  0  0  0  0
    9.9149  -19.8246   18.3957 C   0  0  0  0  0  0  0  0  0  0  0  0
   10.6951  -20.6453   18.9228 O   0  0  0  0  0  0  0  0  0  0  0  0
    9.8685  -18.4272   18.8956 C   0  0  0  0  0  0  0  0  0  0  0  0
    9.8890  -18.4069   20.4115 C   0  0  2  0  0  0  0  0  0  0  0  0
    8.7422  -19.0958   20.9620 N   0  0  0  0  0  0  0  0  0  0  0  0
    9.9150  -17.0100   20.9217 C   0  0  0  0  0  0  0  0  0  0  0  0
   10.9800  -16.3209   20.7580 O   0  0  0  0  0  0  0  0  0  0  0  0
    7.3016  -13.1066   22.1899 C   0  0  0  0  0  0  0  0  0  0  0  0
    7.5215  -14.4542   21.5735 C   0  0  1  0  0  0  0  0  0  0  0  0
    7.2652  -14.4182   20.1054 C   0  0  0  0  0  0  0  0  0  0  0  0
    8.8685  -15.0332   21.9682 C   0  0  2  0  0  0  0  0  0  0  0  0
    8.7941  -16.4414   21.5759 N   0  0  0  0  0  0  0  0  0  0  0  0
    9.1287  -14.9264   23.4332 C   0  0  0  0  0  0  0  0  0  0  0  0
    9.1571  -13.7595   23.9380 O   0  0  0  0  0  0  0  0  0  0  0  0
    9.3291  -16.1022   24.1945 N   0  0  0  0  0  0  0  0  0  0  0  0
    9.2581  -15.9964   25.6630 C   0  0  1  0  0  0  0  0  0  0  0  0
    7.8220  -15.7903   25.9963 C   0  0  0  0  0  0  0  0  0  0  0  0
    7.5508  -14.3564   26.2285 C   0  0  0  0  0  0  0  0  0  0  0  0
    8.5322  -13.5053   26.7219 C   0  0  0  0  0  0  0  0  0  0  0  0
    8.2904  -12.1706   26.9380 C   0  0  0  0  0  0  0  0  0  0  0  0
    7.0383  -11.6876   26.6516 C   0  0  0  0  0  0  0  0  0  0  0  0
    6.0437  -12.5106   26.1603 C   0  0  0  0  0  0  0  0  0  0  0  0
    6.3022  -13.8557   25.9471 C   0  0  0  0  0  0  0  0  0  0  0  0
    9.9065  -17.1564   26.2844 C   0  0  0  0  0  0  0  0  0  0  0  0
   10.5507  -18.1278   25.5453 O   0  0  0  0  0  0  0  0  0  0  0  0
    9.8855  -17.2897   27.5299 O   0  0  0  0  0  0  0  0  0  0  0  0
  2  3  2  0
  2  1  1  0
  4  2  1  0
  5  4  1  0
  5  6  1  1
  7  8  2  0
  7  5  1  0
 10  9  1  6
 10 12  1  0
 11 10  1  0
 12 13  1  1
 13  7  1  0
 14 12  1  0
 14 15  2  0
 16 14  1  0
 17 16  1  0
 17 25  1  0
 17 18  1  6
 19 18  1  0
 20 19  2  0
 21 20  1  0
 22 21  2  0
 22 23  1  0
 23 24  2  0
 24 19  1  0
 25 26  1  0
 27 25  2  0
M  END
$$$$
