ETH.pdb
     RDKit          3D

 27 27  0  0  1  0  0  0  0  0999 V2000
   26.8751  -16.3091  -17.8565 N   0  0  0  0  0  0  0  0  0  0  0  0
   26.6489  -17.0044  -16.6114 C   0  0  1  0  0  0  0  0  0  0  0  0
   26.3536  -16.0721  -15.4696 C   0  0  0  0  0  0  0  0  0  0  0  0
   25.3196  -15.0446  -15.7083 C   0  0  0  0  0  0  0  0  0  0  0  0
   25.8989  -13.7071  -15.8888 C   0  0  0  0  0  0  0  0  0  0  0  0
   27.0971  -13.4742  -15.6556 O   0  0  0  0  0  0  0  0  0  0  0  0
   25.4686  -17.8757  -16.7728 C   0  0  0  0  0  0  0  0  0  0  0  0
   24.5340  -17.5237  -17.5187 O   0  0  0  0  0  0  0  0  0  0  0  0
   25.0585  -12.6867  -16.3361 O   0  0  0  0  0  0  0  0  0  0  0  0
   23.5446  -22.1326  -17.1869 C   0  0  0  0  0  0  0  0  0  0  0  0
   24.6615  -21.1248  -17.2081 C   0  0  1  0  0  0  0  0  0  0  0  0
   24.8341  -20.6131  -18.4917 O   0  0  0  0  0  0  0  0  0  0  0  0
   24.2547  -19.9716  -16.3199 C   0  0  2  0  0  0  0  0  0  0  0  0
   25.3960  -19.1024  -16.0864 N   0  0  0  0  0  0  0  0  0  0  0  0
   23.7965  -20.4562  -14.9714 C   0  0  0  0  0  0  0  0  0  0  0  0
   24.6104  -20.8008  -14.0731 O   0  0  0  0  0  0  0  0  0  0  0  0
   22.4227  -20.5430  -14.6617 N   0  0  0  0  0  0  0  0  0  0  0  0
   21.9325  -21.0117  -13.3722 C   0  0  1  0  0  0  0  0  0  0  0  0
   22.4307  -20.0992  -12.2952 C   0  0  0  0  0  0  0  0  0  0  0  0
   23.6605  -20.6070  -11.6995 C   0  0  0  0  0  0  0  0  0  0  0  0
   24.3017  -21.7674  -12.1261 C   0  0  0  0  0  0  0  0  0  0  0  0
   25.3934  -21.9249  -11.3568 N   0  0  0  0  0  0  0  0  0  0  0  0
   25.4372  -20.9025  -10.4796 C   0  0  0  0  0  0  0  0  0  0  0  0
   24.3830  -20.1185  -10.7025 N   0  0  0  0  0  0  0  0  0  0  0  0
   20.4614  -21.1034  -13.3606 C   0  0  0  0  0  0  0  0  0  0  0  0
   19.7507  -20.6664  -14.4586 O   0  0  0  0  0  0  0  0  0  0  0  0
   19.7919  -21.5665  -12.3836 O   0  0  0  0  0  0  0  0  0  0  0  0
  2  1  1  6
  2  3  1  0
  4  5  1  0
  4  3  1  0
  5  6  2  0
  7 14  1  0
  7  2  1  0
  8  7  2  0
  9  5  1  0
 11 10  1  6
 11 12  1  0
 13 14  1  1
 13 11  1  0
 15 13  1  0
 16 15  2  0
 17 15  1  0
 18 19  1  1
 18 17  1  0
 19 20  1  0
 20 21  2  0
 21 22  1  0
 23 22  1  0
 24 20  1  0
 24 23  2  0
 25 26  1  0
 25 18  1  0
 27 25  2  0
M  END
$$$$
