ETH.pdb
     RDKit          3D

 27 27  0  0  1  0  0  0  0  0999 V2000
   26.0609  -21.8232  -11.6270 N   0  0  0  0  0  0  0  0  0  0  0  0
   25.4137  -21.9245  -12.9138 C   0  0  1  0  0  0  0  0  0  0  0  0
   24.1402  -22.7218  -12.8634 C   0  0  0  0  0  0  0  0  0  0  0  0
   24.2100  -24.1080  -13.3691 C   0  0  0  0  0  0  0  0  0  0  0  0
   24.2334  -24.1617  -14.8366 C   0  0  0  0  0  0  0  0  0  0  0  0
   24.2989  -25.2390  -15.4527 O   0  0  0  0  0  0  0  0  0  0  0  0
   25.0539  -20.5651  -13.3619 C   0  0  0  0  0  0  0  0  0  0  0  0
   24.9252  -19.6493  -12.5262 O   0  0  0  0  0  0  0  0  0  0  0  0
   24.1792  -22.9547  -15.5349 O   0  0  0  0  0  0  0  0  0  0  0  0
   25.2480  -19.5708  -17.4437 C   0  0  0  0  0  0  0  0  0  0  0  0
   25.6211  -18.6385  -16.3233 C   0  0  1  0  0  0  0  0  0  0  0  0
   25.4131  -17.3140  -16.6996 O   0  0  0  0  0  0  0  0  0  0  0  0
   24.6949  -18.9228  -15.1634 C   0  0  2  0  0  0  0  0  0  0  0  0
   24.8556  -20.3009  -14.7301 N   0  0  0  0  0  0  0  0  0  0  0  0
   23.2536  -18.7598  -15.5628 C   0  0  0  0  0  0  0  0  0  0  0  0
   22.5723  -19.7195  -16.0131 O   0  0  0  0  0  0  0  0  0  0  0  0
   22.6067  -17.5114  -15.4458 N   0  0  0  0  0  0  0  0  0  0  0  0
   21.2171  -17.3035  -15.8314 C   0  0  1  0  0  0  0  0  0  0  0  0
   20.7757  -15.9499  -15.3691 C   0  0  0  0  0  0  0  0  0  0  0  0
   19.5351  -16.0301  -14.6078 C   0  0  0  0  0  0  0  0  0  0  0  0
   18.8583  -17.2219  -14.3603 C   0  0  0  0  0  0  0  0  0  0  0  0
   17.7675  -16.9171  -13.6352 N   0  0  0  0  0  0  0  0  0  0  0  0
   17.7585  -15.5844  -13.4344 C   0  0  0  0  0  0  0  0  0  0  0  0
   18.8331  -15.0675  -14.0290 N   0  0  0  0  0  0  0  0  0  0  0  0
   21.0367  -17.4597  -17.2859 C   0  0  0  0  0  0  0  0  0  0  0  0
   19.9256  -18.1254  -17.7591 O   0  0  0  0  0  0  0  0  0  0  0  0
   21.8564  -17.0133  -18.1496 O   0  0  0  0  0  0  0  0  0  0  0  0
  2  1  1  1
  2  3  1  0
  4  5  1  0
  4  3  1  0
  5  6  2  0
  7 14  1  0
  7  2  1  0
  8  7  2  0
  9  5  1  0
 11 10  1  6
 11 12  1  0
 13 14  1  6
 13 11  1  0
 15 13  1  0
 16 15  2  0
 17 15  1  0
 18 19  1  6
 18 17  1  0
 19 20  1  0
 20 21  2  0
 21 22  1  0
 23 22  1  0
 24 20  1  0
 24 23  2  0
 25 26  1  0
 25 18  1  0
 27 25  2  0
M  END
$$$$
