ETH.pdb
     RDKit          3D

 27 27  0  0  1  0  0  0  0  0999 V2000
   26.4607  -16.3156  -20.6840 N   0  0  0  0  0  0  0  0  0  0  0  0
   26.1778  -16.1255  -19.2809 C   0  0  1  0  0  0  0  0  0  0  0  0
   25.0007  -15.2211  -19.0420 C   0  0  0  0  0  0  0  0  0  0  0  0
   24.1221  -14.9629  -20.2010 C   0  0  0  0  0  0  0  0  0  0  0  0
   23.8406  -13.5319  -20.3747 C   0  0  0  0  0  0  0  0  0  0  0  0
   23.4149  -12.8291  -19.4424 O   0  0  0  0  0  0  0  0  0  0  0  0
   25.8407  -17.4363  -18.6924 C   0  0  0  0  0  0  0  0  0  0  0  0
   25.2616  -18.2970  -19.3835 O   0  0  0  0  0  0  0  0  0  0  0  0
   24.0661  -12.9703  -21.6322 O   0  0  0  0  0  0  0  0  0  0  0  0
   28.2110  -19.6998  -17.4581 C   0  0  0  0  0  0  0  0  0  0  0  0
   27.2413  -19.6281  -16.3100 C   0  0  1  0  0  0  0  0  0  0  0  0
   27.7058  -18.7528  -15.3316 O   0  0  0  0  0  0  0  0  0  0  0  0
   25.9460  -19.0573  -16.8396 C   0  0  2  0  0  0  0  0  0  0  0  0
   26.1714  -17.7163  -17.3533 N   0  0  0  0  0  0  0  0  0  0  0  0
   24.9166  -18.9358  -15.7492 C   0  0  0  0  0  0  0  0  0  0  0  0
   24.3662  -17.8374  -15.4690 O   0  0  0  0  0  0  0  0  0  0  0  0
   24.5267  -20.0614  -14.9931 N   0  0  0  0  0  0  0  0  0  0  0  0
   23.4906  -20.0047  -13.9703 C   0  0  1  0  0  0  0  0  0  0  0  0
   22.1973  -19.5944  -14.6025 C   0  0  0  0  0  0  0  0  0  0  0  0
   21.1175  -19.5618  -13.6236 C   0  0  0  0  0  0  0  0  0  0  0  0
   21.3249  -19.5747  -12.2466 C   0  0  0  0  0  0  0  0  0  0  0  0
   20.1149  -19.5354  -11.6612 N   0  0  0  0  0  0  0  0  0  0  0  0
   19.1818  -19.4993  -12.6332 C   0  0  0  0  0  0  0  0  0  0  0  0
   19.8069  -19.5160  -13.8098 N   0  0  0  0  0  0  0  0  0  0  0  0
   23.3603  -21.2946  -13.2690 C   0  0  0  0  0  0  0  0  0  0  0  0
   23.0445  -21.3026  -11.9267 O   0  0  0  0  0  0  0  0  0  0  0  0
   23.5256  -22.4227  -13.8323 O   0  0  0  0  0  0  0  0  0  0  0  0
  2  1  1  6
  2  3  1  0
  4  5  1  0
  4  3  1  0
  5  6  2  0
  7 14  1  0
  7  2  1  0
  8  7  2  0
  9  5  1  0
 11 10  1  6
 11 12  1  0
 13 14  1  1
 13 11  1  0
 15 13  1  0
 16 15  2  0
 17 15  1  0
 18 19  1  6
 18 17  1  0
 19 20  1  0
 20 21  2  0
 21 22  1  0
 23 22  1  0
 24 20  1  0
 24 23  2  0
 25 26  1  0
 25 18  1  0
 27 25  2  0
M  END
$$$$
