ETH.pdb
     RDKit          3D

 27 27  0  0  1  0  0  0  0  0999 V2000
   18.5835  -13.7813  -17.1753 N   0  0  0  0  0  0  0  0  0  0  0  0
   19.5656  -12.8649  -16.6456 C   0  0  1  0  0  0  0  0  0  0  0  0
   20.8264  -12.8263  -17.4638 C   0  0  0  0  0  0  0  0  0  0  0  0
   21.6047  -14.0798  -17.5346 C   0  0  0  0  0  0  0  0  0  0  0  0
   22.7364  -13.9772  -18.4651 C   0  0  0  0  0  0  0  0  0  0  0  0
   22.9383  -12.9552  -19.1425 O   0  0  0  0  0  0  0  0  0  0  0  0
   18.9938  -11.5045  -16.6705 C   0  0  0  0  0  0  0  0  0  0  0  0
   18.6401  -10.9991  -17.7537 O   0  0  0  0  0  0  0  0  0  0  0  0
   23.5944  -15.0726  -18.5724 O   0  0  0  0  0  0  0  0  0  0  0  0
   16.0129  -10.3405  -14.8913 C   0  0  0  0  0  0  0  0  0  0  0  0
   17.1150   -9.4076  -14.4689 C   0  0  1  0  0  0  0  0  0  0  0  0
   17.6787   -9.8291  -13.2672 O   0  0  0  0  0  0  0  0  0  0  0  0
   18.2004   -9.4761  -15.5183 C   0  0  2  0  0  0  0  0  0  0  0  0
   18.8474  -10.7770  -15.4746 N   0  0  0  0  0  0  0  0  0  0  0  0
   19.2717   -8.4510  -15.2637 C   0  0  0  0  0  0  0  0  0  0  0  0
   20.3831   -8.7579  -14.7553 O   0  0  0  0  0  0  0  0  0  0  0  0
   19.0666   -7.0935  -15.5892 N   0  0  0  0  0  0  0  0  0  0  0  0
   20.0435   -6.0543  -15.2913 C   0  0  1  0  0  0  0  0  0  0  0  0
   20.9341   -5.8614  -16.4789 C   0  0  0  0  0  0  0  0  0  0  0  0
   21.8954   -4.7896  -16.2499 C   0  0  0  0  0  0  0  0  0  0  0  0
   23.1896   -5.0021  -15.7814 C   0  0  0  0  0  0  0  0  0  0  0  0
   23.7836   -3.7989  -15.6929 N   0  0  0  0  0  0  0  0  0  0  0  0
   22.8967   -2.8650  -16.0906 C   0  0  0  0  0  0  0  0  0  0  0  0
   21.7637   -3.4829  -16.4225 N   0  0  0  0  0  0  0  0  0  0  0  0
   19.3830   -4.7946  -14.9048 C   0  0  0  0  0  0  0  0  0  0  0  0
   20.1510   -3.7431  -14.4507 O   0  0  0  0  0  0  0  0  0  0  0  0
   18.1258   -4.6116  -14.9622 O   0  0  0  0  0  0  0  0  0  0  0  0
  2  1  1  6
  2  3  1  0
  4  5  1  0
  4  3  1  0
  5  6  2  0
  7 14  1  0
  7  2  1  0
  8  7  2  0
  9  5  1  0
 11 10  1  6
 11 12  1  0
 13 14  1  1
 13 11  1  0
 15 13  1  0
 16 15  2  0
 17 15  1  0
 18 19  1  6
 18 17  1  0
 19 20  1  0
 20 21  2  0
 21 22  1  0
 23 22  1  0
 24 20  1  0
 24 23  2  0
 25 26  1  0
 25 18  1  0
 27 25  2  0
M  END
$$$$
