ETH.pdb
     RDKit          3D

 27 27  0  0  1  0  0  0  0  0999 V2000
   31.6862  -25.4350  -16.2942 N   0  0  0  0  0  0  0  0  0  0  0  0
   30.8282  -25.0175  -17.3779 C   0  0  1  0  0  0  0  0  0  0  0  0
   29.9419  -26.1242  -17.8780 C   0  0  0  0  0  0  0  0  0  0  0  0
   29.7274  -27.2621  -16.9608 C   0  0  0  0  0  0  0  0  0  0  0  0
   28.3084  -27.4476  -16.6307 C   0  0  0  0  0  0  0  0  0  0  0  0
   27.4271  -26.6930  -17.0760 O   0  0  0  0  0  0  0  0  0  0  0  0
   29.9421  -23.9457  -16.8835 C   0  0  0  0  0  0  0  0  0  0  0  0
   29.7962  -23.7768  -15.6571 O   0  0  0  0  0  0  0  0  0  0  0  0
   27.9668  -28.5090  -15.7915 O   0  0  0  0  0  0  0  0  0  0  0  0
   29.2385  -20.7093  -19.2710 C   0  0  0  0  0  0  0  0  0  0  0  0
   29.2457  -20.6883  -17.7667 C   0  0  1  0  0  0  0  0  0  0  0  0
   28.5053  -19.6099  -17.2891 O   0  0  0  0  0  0  0  0  0  0  0  0
   28.5593  -21.9468  -17.2879 C   0  0  2  0  0  0  0  0  0  0  0  0
   29.2619  -23.1146  -17.7932 N   0  0  0  0  0  0  0  0  0  0  0  0
   27.1498  -22.0313  -17.8070 C   0  0  0  0  0  0  0  0  0  0  0  0
   26.8801  -22.5369  -18.9293 O   0  0  0  0  0  0  0  0  0  0  0  0
   26.0675  -21.5412  -17.0460 N   0  0  0  0  0  0  0  0  0  0  0  0
   24.6867  -21.6022  -17.5073 C   0  0  1  0  0  0  0  0  0  0  0  0
   23.8055  -22.0127  -16.3690 C   0  0  0  0  0  0  0  0  0  0  0  0
   23.9850  -23.4223  -16.0435 C   0  0  0  0  0  0  0  0  0  0  0  0
   24.8248  -24.2765  -16.7538 C   0  0  0  0  0  0  0  0  0  0  0  0
   24.7406  -25.4883  -16.1768 N   0  0  0  0  0  0  0  0  0  0  0  0
   23.8804  -25.3997  -15.1429 C   0  0  0  0  0  0  0  0  0  0  0  0
   23.4355  -24.1453  -15.0792 N   0  0  0  0  0  0  0  0  0  0  0  0
   24.2575  -20.3144  -18.0816 C   0  0  0  0  0  0  0  0  0  0  0  0
   23.0406  -20.2362  -18.7255 O   0  0  0  0  0  0  0  0  0  0  0  0
   24.9513  -19.2502  -18.0223 O   0  0  0  0  0  0  0  0  0  0  0  0
  2  1  1  1
  2  3  1  0
  4  5  1  0
  4  3  1  0
  5  6  2  0
  7 14  1  0
  7  2  1  0
  8  7  2  0
  9  5  1  0
 11 10  1  6
 11 12  1  0
 13 14  1  6
 13 11  1  0
 15 13  1  0
 16 15  2  0
 17 15  1  0
 18 19  1  1
 18 17  1  0
 19 20  1  0
 20 21  2  0
 21 22  1  0
 23 22  1  0
 24 20  1  0
 24 23  2  0
 25 26  1  0
 25 18  1  0
 27 25  2  0
M  END
$$$$
