ETH.pdb
     RDKit          3D

 27 27  0  0  1  0  0  0  0  0999 V2000
   16.1781  -14.6610  -16.5611 N   0  0  0  0  0  0  0  0  0  0  0  0
   17.2996  -14.1359  -15.8184 C   0  0  1  0  0  0  0  0  0  0  0  0
   18.5944  -14.8197  -16.1589 C   0  0  0  0  0  0  0  0  0  0  0  0
   18.5076  -15.9799  -17.0690 C   0  0  0  0  0  0  0  0  0  0  0  0
   19.8183  -16.6002  -17.3024 C   0  0  0  0  0  0  0  0  0  0  0  0
   20.6023  -16.1719  -18.1662 O   0  0  0  0  0  0  0  0  0  0  0  0
   17.4608  -12.7103  -16.1651 C   0  0  0  0  0  0  0  0  0  0  0  0
   17.5246  -12.3654  -17.3612 O   0  0  0  0  0  0  0  0  0  0  0  0
   20.1687  -17.7002  -16.5184 O   0  0  0  0  0  0  0  0  0  0  0  0
   15.1894  -10.1084  -14.8410 C   0  0  0  0  0  0  0  0  0  0  0  0
   16.5782   -9.5821  -14.6010 C   0  0  1  0  0  0  0  0  0  0  0  0
   16.9812   -9.8439  -13.2939 O   0  0  0  0  0  0  0  0  0  0  0  0
   17.5173  -10.3341  -15.5157 C   0  0  2  0  0  0  0  0  0  0  0  0
   17.5427  -11.7403  -15.1486 N   0  0  0  0  0  0  0  0  0  0  0  0
   18.9279   -9.8273  -15.3864 C   0  0  0  0  0  0  0  0  0  0  0  0
   19.9068  -10.6064  -15.2360 O   0  0  0  0  0  0  0  0  0  0  0  0
   19.2073   -8.4450  -15.4295 N   0  0  0  0  0  0  0  0  0  0  0  0
   20.5523   -7.9172  -15.6175 C   0  0  1  0  0  0  0  0  0  0  0  0
   21.1182   -8.4562  -16.8942 C   0  0  0  0  0  0  0  0  0  0  0  0
   22.4774   -7.9770  -17.1136 C   0  0  0  0  0  0  0  0  0  0  0  0
   23.5737   -8.3996  -16.3659 C   0  0  0  0  0  0  0  0  0  0  0  0
   24.6533   -7.7549  -16.8428 N   0  0  0  0  0  0  0  0  0  0  0  0
   24.2512   -6.9571  -17.8521 C   0  0  0  0  0  0  0  0  0  0  0  0
   22.9352   -7.1054  -17.9998 N   0  0  0  0  0  0  0  0  0  0  0  0
   20.5543   -6.4432  -15.6090 C   0  0  0  0  0  0  0  0  0  0  0  0
   19.4057   -5.7661  -15.9610 O   0  0  0  0  0  0  0  0  0  0  0  0
   21.5671   -5.7417  -15.2939 O   0  0  0  0  0  0  0  0  0  0  0  0
  2  1  1  6
  2  3  1  0
  4  5  1  0
  4  3  1  0
  5  6  2  0
  7 14  1  0
  7  2  1  0
  8  7  2  0
  9  5  1  0
 11 10  1  1
 11 12  1  0
 13 14  1  1
 13 11  1  0
 15 13  1  0
 16 15  2  0
 17 15  1  0
 18 19  1  6
 18 17  1  0
 19 20  1  0
 20 21  2  0
 21 22  1  0
 23 22  1  0
 24 20  1  0
 24 23  2  0
 25 26  1  0
 25 18  1  0
 27 25  2  0
M  END
$$$$
