HPK.pdb
     RDKit          3D

 27 28  0  0  1  0  0  0  0  0999 V2000
    9.4286  -14.8624   21.7152 N   0  0  0  0  0  0  0  0  0  0  0  0
    8.4387  -14.2283   22.4842 C   0  0  1  0  0  0  0  0  0  0  0  0
    7.0943  -14.4875   21.8190 C   0  0  0  0  0  0  0  0  0  0  0  0
    7.2333  -14.2106   20.3639 C   0  0  0  0  0  0  0  0  0  0  0  0
    7.0759  -12.9963   19.7069 C   0  0  0  0  0  0  0  0  0  0  0  0
    7.2924  -13.2050   18.4025 N   0  0  0  0  0  0  0  0  0  0  0  0
    7.5792  -14.4850   18.1900 C   0  0  0  0  0  0  0  0  0  0  0  0
    7.5434  -15.0945   19.3793 N   0  0  0  0  0  0  0  0  0  0  0  0
    8.3962  -14.4548   23.9279 C   0  0  0  0  0  0  0  0  0  0  0  0
    8.6467  -15.6693   24.3164 O   0  0  0  0  0  0  0  0  0  0  0  0
    8.1267  -13.5605   24.9617 N   0  0  0  0  0  0  0  0  0  0  0  0
    7.9192  -12.1146   24.7548 C   0  0  0  0  0  0  0  0  0  0  0  0
    6.5858  -11.9404   25.5115 C   0  0  0  0  0  0  0  0  0  0  0  0
    6.5023  -13.0996   26.4819 C   0  0  0  0  0  0  0  0  0  0  0  0
    7.9446  -13.6595   26.3706 C   0  0  1  0  0  0  0  0  0  0  0  0
    8.0912  -14.9060   27.0680 C   0  0  0  0  0  0  0  0  0  0  0  0
    7.3171  -15.8419   27.2761 O   0  0  0  0  0  0  0  0  0  0  0  0
    9.4232  -15.1071   27.6478 N   0  0  0  0  0  0  0  0  0  0  0  0
    9.7423  -16.2734   28.4208 C   0  0  1  0  0  0  0  0  0  0  0  0
   10.6949  -17.1571   27.6836 C   0  0  0  0  0  0  0  0  0  0  0  0
   11.0473  -18.4347   28.3618 C   0  0  0  0  0  0  0  0  0  0  0  0
   11.9686  -19.3304   27.6029 C   0  0  0  0  0  0  0  0  0  0  0  0
   12.1642  -20.5965   28.4224 C   0  0  0  0  0  0  0  0  0  0  0  0
   13.0525  -21.5286   27.7467 N   0  0  0  0  0  0  0  0  0  0  0  0
   10.3374  -15.9218   29.7399 C   0  0  0  0  0  0  0  0  0  0  0  0
   10.6855  -14.6087   29.9912 O   0  0  0  0  0  0  0  0  0  0  0  0
   10.5245  -16.7949   30.6171 O   0  0  0  0  0  0  0  0  0  0  0  0
  2  9  1  0
  2  1  1  6
  3  2  1  0
  4  3  1  0
  4  8  1  0
  5  4  2  0
  6  5  1  0
  6  7  1  0
  7  8  2  0
  9 11  1  0
 10  9  2  0
 11 15  1  0
 11 12  1  0
 12 13  1  0
 14 13  1  0
 15 14  1  0
 15 16  1  6
 17 16  2  0
 18 16  1  0
 19 20  1  6
 19 18  1  0
 21 20  1  0
 22 23  1  0
 22 21  1  0
 24 23  1  0
 25 19  1  0
 25 26  1  0
 27 25  2  0
M  END
$$$$
