HPK.pdb
     RDKit          3D

 27 28  0  0  1  0  0  0  0  0999 V2000
   12.5181  -14.4619   18.2560 N   0  0  0  0  0  0  0  0  0  0  0  0
   11.1412  -14.6308   18.4778 C   0  0  1  0  0  0  0  0  0  0  0  0
   10.6846  -15.8407   17.6749 C   0  0  0  0  0  0  0  0  0  0  0  0
   10.6429  -15.4578   16.2379 C   0  0  0  0  0  0  0  0  0  0  0  0
   11.6576  -15.5684   15.2951 C   0  0  0  0  0  0  0  0  0  0  0  0
   11.1870  -15.1058   14.1303 N   0  0  0  0  0  0  0  0  0  0  0  0
    9.9282  -14.7060   14.2771 C   0  0  0  0  0  0  0  0  0  0  0  0
    9.5985  -14.9196   15.5550 N   0  0  0  0  0  0  0  0  0  0  0  0
   10.6316  -14.6497   19.8479 C   0  0  0  0  0  0  0  0  0  0  0  0
   11.2893  -15.3955   20.6846 O   0  0  0  0  0  0  0  0  0  0  0  0
    9.5395  -13.9843   20.4008 N   0  0  0  0  0  0  0  0  0  0  0  0
    9.1432  -12.6145   20.0222 C   0  0  0  0  0  0  0  0  0  0  0  0
    7.6508  -12.8596   19.7158 C   0  0  0  0  0  0  0  0  0  0  0  0
    7.2725  -14.1196   20.4651 C   0  0  0  0  0  0  0  0  0  0  0  0
    8.5305  -14.3027   21.3539 C   0  0  1  0  0  0  0  0  0  0  0  0
    8.5160  -15.5574   22.0518 C   0  0  0  0  0  0  0  0  0  0  0  0
    8.3705  -16.7211   21.6736 O   0  0  0  0  0  0  0  0  0  0  0  0
    8.7124  -15.4319   23.4998 N   0  0  0  0  0  0  0  0  0  0  0  0
    8.7770  -16.5820   24.3557 C   0  0  1  0  0  0  0  0  0  0  0  0
    9.4411  -16.2457   25.6509 C   0  0  0  0  0  0  0  0  0  0  0  0
    9.5866  -17.3720   26.6136 C   0  0  0  0  0  0  0  0  0  0  0  0
   10.2953  -17.0414   27.8846 C   0  0  0  0  0  0  0  0  0  0  0  0
   10.4594  -18.3313   28.6734 C   0  0  0  0  0  0  0  0  0  0  0  0
   11.2541  -18.1175   29.8722 N   0  0  0  0  0  0  0  0  0  0  0  0
    7.4264  -17.1411   24.6403 C   0  0  0  0  0  0  0  0  0  0  0  0
    6.3090  -16.3975   24.3134 O   0  0  0  0  0  0  0  0  0  0  0  0
    7.2924  -18.2681   25.1682 O   0  0  0  0  0  0  0  0  0  0  0  0
  2  9  1  0
  2  1  1  1
  3  2  1  0
  4  3  1  0
  4  8  1  0
  5  4  2  0
  6  5  1  0
  6  7  1  0
  7  8  2  0
  9 11  1  0
 10  9  2  0
 11 15  1  0
 11 12  1  0
 12 13  1  0
 14 13  1  0
 15 14  1  0
 15 16  1  6
 17 16  2  0
 18 16  1  0
 19 20  1  1
 19 18  1  0
 21 20  1  0
 22 23  1  0
 22 21  1  0
 24 23  1  0
 25 19  1  0
 25 26  1  0
 27 25  2  0
M  END
$$$$
