HPK.pdb
     RDKit          3D

 27 28  0  0  1  0  0  0  0  0999 V2000
   10.7689  -15.7916   16.5114 N   0  0  0  0  0  0  0  0  0  0  0  0
    9.7063  -15.1944   17.2099 C   0  0  1  0  0  0  0  0  0  0  0  0
    8.4152  -15.8561   16.7491 C   0  0  0  0  0  0  0  0  0  0  0  0
    8.2761  -15.6363   15.2842 C   0  0  0  0  0  0  0  0  0  0  0  0
    8.0482  -14.4382   14.6184 C   0  0  0  0  0  0  0  0  0  0  0  0
    7.9923  -14.7021   13.3072 N   0  0  0  0  0  0  0  0  0  0  0  0
    8.1717  -16.0022   13.0988 C   0  0  0  0  0  0  0  0  0  0  0  0
    8.3438  -16.5685   14.2976 N   0  0  0  0  0  0  0  0  0  0  0  0
    9.7802  -15.0759   18.6652 C   0  0  0  0  0  0  0  0  0  0  0  0
   10.4389  -16.0153   19.2754 O   0  0  0  0  0  0  0  0  0  0  0  0
    9.2489  -14.1012   19.5071 N   0  0  0  0  0  0  0  0  0  0  0  0
    9.1662  -12.6724   19.1488 C   0  0  0  0  0  0  0  0  0  0  0  0
    7.6755  -12.4209   19.4579 C   0  0  0  0  0  0  0  0  0  0  0  0
    7.2642  -13.5010   20.4359 C   0  0  0  0  0  0  0  0  0  0  0  0
    8.6525  -14.0893   20.8002 C   0  0  1  0  0  0  0  0  0  0  0  0
    8.5387  -15.2808   21.5933 C   0  0  0  0  0  0  0  0  0  0  0  0
    7.6643  -16.1446   21.6808 O   0  0  0  0  0  0  0  0  0  0  0  0
    9.6876  -15.5184   22.4733 N   0  0  0  0  0  0  0  0  0  0  0  0
    9.8697  -16.7669   23.1571 C   0  0  1  0  0  0  0  0  0  0  0  0
   10.2998  -17.8368   22.2074 C   0  0  0  0  0  0  0  0  0  0  0  0
   10.4894  -19.1890   22.8009 C   0  0  0  0  0  0  0  0  0  0  0  0
   11.0203  -20.2285   21.8710 C   0  0  0  0  0  0  0  0  0  0  0  0
   11.0746  -21.5455   22.6296 C   0  0  0  0  0  0  0  0  0  0  0  0
   11.6739  -22.5945   21.8203 N   0  0  0  0  0  0  0  0  0  0  0  0
   10.8767  -16.6621   24.2493 C   0  0  0  0  0  0  0  0  0  0  0  0
   11.6524  -15.5226   24.3407 O   0  0  0  0  0  0  0  0  0  0  0  0
   11.0277  -17.5869   25.0791 O   0  0  0  0  0  0  0  0  0  0  0  0
  2  9  1  0
  2  1  1  1
  3  2  1  0
  4  3  1  0
  4  8  1  0
  5  4  2  0
  6  5  1  0
  6  7  1  0
  7  8  2  0
  9 11  1  0
 10  9  2  0
 11 15  1  0
 11 12  1  0
 12 13  1  0
 14 13  1  0
 15 14  1  0
 15 16  1  6
 17 16  2  0
 18 16  1  0
 19 20  1  6
 19 18  1  0
 21 20  1  0
 22 23  1  0
 22 21  1  0
 24 23  1  0
 25 19  1  0
 25 26  1  0
 27 25  2  0
M  END
$$$$
