HPK.pdb
     RDKit          3D

 27 28  0  0  1  0  0  0  0  0999 V2000
    9.5846  -14.8965   20.9593 N   0  0  0  0  0  0  0  0  0  0  0  0
    8.6252  -14.3724   21.8417 C   0  0  1  0  0  0  0  0  0  0  0  0
    7.2708  -14.4376   21.1500 C   0  0  0  0  0  0  0  0  0  0  0  0
    7.4483  -14.0089   19.7365 C   0  0  0  0  0  0  0  0  0  0  0  0
    7.5011  -12.7132   19.2374 C   0  0  0  0  0  0  0  0  0  0  0  0
    7.6712  -12.7911   17.9119 N   0  0  0  0  0  0  0  0  0  0  0  0
    7.7299  -14.0646   17.5368 C   0  0  0  0  0  0  0  0  0  0  0  0
    7.5947  -14.8028   18.6432 N   0  0  0  0  0  0  0  0  0  0  0  0
    8.5699  -14.8646   23.2172 C   0  0  0  0  0  0  0  0  0  0  0  0
    8.9191  -16.1046   23.3875 O   0  0  0  0  0  0  0  0  0  0  0  0
    8.1979  -14.2026   24.3853 N   0  0  0  0  0  0  0  0  0  0  0  0
    8.1248  -12.7336   24.5011 C   0  0  0  0  0  0  0  0  0  0  0  0
    6.7014  -12.5970   25.0810 C   0  0  0  0  0  0  0  0  0  0  0  0
    6.3839  -13.9296   25.7257 C   0  0  0  0  0  0  0  0  0  0  0  0
    7.7840  -14.5963   25.6898 C   0  0  1  0  0  0  0  0  0  0  0  0
    7.7313  -15.9759   26.0840 C   0  0  0  0  0  0  0  0  0  0  0  0
    6.9652  -16.8972   25.7967 O   0  0  0  0  0  0  0  0  0  0  0  0
    8.7978  -16.3680   27.0112 N   0  0  0  0  0  0  0  0  0  0  0  0
    9.0816  -17.7454   27.2970 C   0  0  1  0  0  0  0  0  0  0  0  0
    9.6968  -18.4193   26.1141 C   0  0  0  0  0  0  0  0  0  0  0  0
   10.0762  -19.8457   26.3085 C   0  0  0  0  0  0  0  0  0  0  0  0
   10.6602  -20.5223   25.1134 C   0  0  0  0  0  0  0  0  0  0  0  0
   11.0121  -21.9470   25.5125 C   0  0  0  0  0  0  0  0  0  0  0  0
   11.7295  -22.6297   24.4478 N   0  0  0  0  0  0  0  0  0  0  0  0
    9.9954  -17.8955   28.4633 C   0  0  0  0  0  0  0  0  0  0  0  0
    9.8884  -19.0189   29.2602 O   0  0  0  0  0  0  0  0  0  0  0  0
   10.8527  -17.0229   28.7283 O   0  0  0  0  0  0  0  0  0  0  0  0
  2  9  1  0
  2  1  1  6
  3  2  1  0
  4  3  1  0
  4  8  1  0
  5  4  2  0
  6  5  1  0
  6  7  1  0
  7  8  2  0
  9 11  1  0
 10  9  2  0
 11 15  1  0
 11 12  1  0
 12 13  1  0
 14 13  1  0
 15 14  1  0
 15 16  1  6
 17 16  2  0
 18 16  1  0
 19 20  1  6
 19 18  1  0
 21 20  1  0
 22 23  1  0
 22 21  1  0
 24 23  1  0
 25 19  1  0
 25 26  1  0
 27 25  2  0
M  END
$$$$
