HPK.pdb
     RDKit          3D

 27 28  0  0  1  0  0  0  0  0999 V2000
   12.5047  -14.6539   18.1925 N   0  0  0  0  0  0  0  0  0  0  0  0
   11.1234  -14.7927   18.4077 C   0  0  1  0  0  0  0  0  0  0  0  0
   10.6801  -16.0985   17.7633 C   0  0  0  0  0  0  0  0  0  0  0  0
   10.7921  -15.9513   16.2872 C   0  0  0  0  0  0  0  0  0  0  0  0
    9.7932  -15.6053   15.3853 C   0  0  0  0  0  0  0  0  0  0  0  0
   10.3336  -15.5910   14.1607 N   0  0  0  0  0  0  0  0  0  0  0  0
   11.6220  -15.9086   14.2304 C   0  0  0  0  0  0  0  0  0  0  0  0
   11.8998  -16.1270   15.5197 N   0  0  0  0  0  0  0  0  0  0  0  0
   10.5872  -14.6303   19.7581 C   0  0  0  0  0  0  0  0  0  0  0  0
   11.2134  -15.2766   20.6956 O   0  0  0  0  0  0  0  0  0  0  0  0
    9.4984  -13.8815   20.1995 N   0  0  0  0  0  0  0  0  0  0  0  0
    9.0447  -12.6396   19.5449 C   0  0  0  0  0  0  0  0  0  0  0  0
    7.5494  -12.9784   19.3704 C   0  0  0  0  0  0  0  0  0  0  0  0
    7.2411  -14.0470   20.3978 C   0  0  0  0  0  0  0  0  0  0  0  0
    8.5393  -14.0002   21.2455 C   0  0  1  0  0  0  0  0  0  0  0  0
    8.5921  -15.0673   22.2047 C   0  0  0  0  0  0  0  0  0  0  0  0
    8.5752  -16.2941   22.0900 O   0  0  0  0  0  0  0  0  0  0  0  0
    8.6842  -14.6098   23.5950 N   0  0  0  0  0  0  0  0  0  0  0  0
    8.7464  -15.5335   24.6916 C   0  0  1  0  0  0  0  0  0  0  0  0
    9.1831  -14.8455   25.9437 C   0  0  0  0  0  0  0  0  0  0  0  0
    9.3916  -15.7266   27.1255 C   0  0  0  0  0  0  0  0  0  0  0  0
    9.8087  -15.0308   28.3782 C   0  0  0  0  0  0  0  0  0  0  0  0
    9.9606  -16.0836   29.4651 C   0  0  0  0  0  0  0  0  0  0  0  0
   10.2080  -15.4707   30.7603 N   0  0  0  0  0  0  0  0  0  0  0  0
    7.4345  -16.1932   24.9394 C   0  0  0  0  0  0  0  0  0  0  0  0
    7.4103  -17.4316   25.5512 O   0  0  0  0  0  0  0  0  0  0  0  0
    6.3616  -15.6434   24.6029 O   0  0  0  0  0  0  0  0  0  0  0  0
  2  9  1  0
  2  1  1  1
  3  2  1  0
  4  3  1  0
  4  8  1  0
  5  4  2  0
  6  5  1  0
  6  7  1  0
  7  8  2  0
  9 11  1  0
 10  9  2  0
 11 15  1  0
 11 12  1  0
 12 13  1  0
 14 13  1  0
 15 14  1  0
 15 16  1  6
 17 16  2  0
 18 16  1  0
 19 20  1  1
 19 18  1  0
 21 20  1  0
 22 23  1  0
 22 21  1  0
 24 23  1  0
 25 19  1  0
 25 26  1  0
 27 25  2  0
M  END
$$$$
