CAF.pdb
     RDKit          3D

 23 23  0  0  1  0  0  0  0  0999 V2000
    8.4479  -14.3797   17.3746 N   0  0  0  0  0  0  0  0  0  0  0  0
    8.8092  -14.0296   18.7571 C   0  0  1  0  0  0  0  0  0  0  0  0
    8.2550  -12.6621   19.0664 C   0  0  0  0  0  0  0  0  0  0  0  0
    8.6199  -12.2792   20.7987 S   0  0  0  0  0  0  0  0  0  0  0  0
    8.1990  -15.0542   19.6426 C   0  0  0  0  0  0  0  0  0  0  0  0
    7.2704  -15.8184   19.2479 O   0  0  0  0  0  0  0  0  0  0  0  0
    8.6422  -17.6555   21.1599 C   0  0  0  0  0  0  0  0  0  0  0  0
    8.2357  -16.3307   21.7558 C   0  0  2  0  0  0  0  0  0  0  0  0
    8.6428  -15.2102   20.9737 N   0  0  0  0  0  0  0  0  0  0  0  0
    8.7648  -16.2436   23.1611 C   0  0  0  0  0  0  0  0  0  0  0  0
   10.0042  -16.0614   23.2995 O   0  0  0  0  0  0  0  0  0  0  0  0
    7.9310  -16.3579   24.2804 N   0  0  0  0  0  0  0  0  0  0  0  0
    8.4538  -16.0712   25.6058 C   0  0  1  0  0  0  0  0  0  0  0  0
    7.3248  -15.5985   26.4652 C   0  0  0  0  0  0  0  0  0  0  0  0
    7.0977  -14.1449   26.3780 C   0  0  0  0  0  0  0  0  0  0  0  0
    5.8374  -13.5803   26.4157 C   0  0  0  0  0  0  0  0  0  0  0  0
    5.7185  -12.2196   26.3355 C   0  0  0  0  0  0  0  0  0  0  0  0
    6.8242  -11.3973   26.2180 C   0  0  0  0  0  0  0  0  0  0  0  0
    8.0652  -11.9742   26.1823 C   0  0  0  0  0  0  0  0  0  0  0  0
    8.1997  -13.3259   26.2609 C   0  0  0  0  0  0  0  0  0  0  0  0
    9.2012  -17.2101   26.1561 C   0  0  0  0  0  0  0  0  0  0  0  0
   10.1762  -16.9994   27.1417 O   0  0  0  0  0  0  0  0  0  0  0  0
    9.0262  -18.3937   25.7983 O   0  0  0  0  0  0  0  0  0  0  0  0
  2  1  1  6
  3  4  1  0
  3  2  1  0
  5  2  1  0
  5  9  1  0
  6  5  2  0
  8  9  1  0
  8 10  1  0
  8  7  1  6
 10 12  1  0
 11 10  2  0
 12 13  1  0
 13 14  1  1
 14 15  1  0
 15 20  2  0
 15 16  1  0
 16 17  2  0
 17 18  1  0
 19 18  2  0
 20 19  1  0
 21 22  1  0
 21 13  1  0
 23 21  2  0
M  END
$$$$
