CAF.pdb
     RDKit          3D

 23 23  0  0  1  0  0  0  0  0999 V2000
    7.7544  -15.7695   17.3197 N   0  0  0  0  0  0  0  0  0  0  0  0
    8.7629  -15.1157   18.1681 C   0  0  1  0  0  0  0  0  0  0  0  0
    8.3611  -13.6766   18.3690 C   0  0  0  0  0  0  0  0  0  0  0  0
    8.6175  -12.7916   16.8097 S   0  0  0  0  0  0  0  0  0  0  0  0
    8.7812  -15.8399   19.4648 C   0  0  0  0  0  0  0  0  0  0  0  0
    7.7187  -16.1367   20.0853 O   0  0  0  0  0  0  0  0  0  0  0  0
   11.3185  -17.6248   21.5817 C   0  0  0  0  0  0  0  0  0  0  0  0
   10.0324  -16.8807   21.3217 C   0  0  2  0  0  0  0  0  0  0  0  0
   10.0040  -16.2261   20.0553 N   0  0  0  0  0  0  0  0  0  0  0  0
    9.7907  -15.9134   22.4478 C   0  0  0  0  0  0  0  0  0  0  0  0
   10.4003  -14.8112   22.4010 O   0  0  0  0  0  0  0  0  0  0  0  0
    8.9287  -16.2074   23.5116 N   0  0  0  0  0  0  0  0  0  0  0  0
    8.7411  -15.2411   24.5808 C   0  0  1  0  0  0  0  0  0  0  0  0
    7.4718  -14.4936   24.3226 C   0  0  0  0  0  0  0  0  0  0  0  0
    7.1130  -13.5654   25.4098 C   0  0  0  0  0  0  0  0  0  0  0  0
    6.0274  -13.7681   26.2398 C   0  0  0  0  0  0  0  0  0  0  0  0
    5.7710  -12.8586   27.2292 C   0  0  0  0  0  0  0  0  0  0  0  0
    6.5683  -11.7447   27.4192 C   0  0  0  0  0  0  0  0  0  0  0  0
    7.6398  -11.5599   26.5873 C   0  0  0  0  0  0  0  0  0  0  0  0
    7.9077  -12.4556   25.5988 C   0  0  0  0  0  0  0  0  0  0  0  0
    8.8168  -15.8713   25.9058 C   0  0  0  0  0  0  0  0  0  0  0  0
    8.2737  -17.1483   26.1077 O   0  0  0  0  0  0  0  0  0  0  0  0
    9.3478  -15.3348   26.9007 O   0  0  0  0  0  0  0  0  0  0  0  0
  2  1  1  6
  3  4  1  0
  3  2  1  0
  5  2  1  0
  5  9  1  0
  6  5  2  0
  8  9  1  0
  8 10  1  0
  8  7  1  1
 10 12  1  0
 11 10  2  0
 12 13  1  0
 13 14  1  6
 14 15  1  0
 15 20  2  0
 15 16  1  0
 16 17  2  0
 17 18  1  0
 19 18  2  0
 20 19  1  0
 21 22  1  0
 21 13  1  0
 23 21  2  0
M  END
$$$$
