CAF.pdb
     RDKit          3D

 23 23  0  0  1  0  0  0  0  0999 V2000
    4.4901  -17.2057   23.2047 N   0  0  0  0  0  0  0  0  0  0  0  0
    5.1564  -17.9174   22.1030 C   0  0  1  0  0  0  0  0  0  0  0  0
    4.1883  -18.0363   20.9534 C   0  0  0  0  0  0  0  0  0  0  0  0
    2.6552  -18.7736   21.5750 S   0  0  0  0  0  0  0  0  0  0  0  0
    6.3387  -17.1086   21.7101 C   0  0  0  0  0  0  0  0  0  0  0  0
    7.2178  -17.5452   20.9110 O   0  0  0  0  0  0  0  0  0  0  0  0
    7.3578  -13.5993   21.5576 C   0  0  0  0  0  0  0  0  0  0  0  0
    7.6733  -15.0383   21.8821 C   0  0  2  0  0  0  0  0  0  0  0  0
    6.5217  -15.8064   22.2240 N   0  0  0  0  0  0  0  0  0  0  0  0
    8.7067  -15.0781   22.9742 C   0  0  0  0  0  0  0  0  0  0  0  0
    9.8772  -14.7208   22.6727 O   0  0  0  0  0  0  0  0  0  0  0  0
    8.4000  -15.4918   24.2765 N   0  0  0  0  0  0  0  0  0  0  0  0
    9.4691  -15.7341   25.2307 C   0  0  1  0  0  0  0  0  0  0  0  0
    9.4120  -14.6717   26.2816 C   0  0  0  0  0  0  0  0  0  0  0  0
    8.1692  -13.8806   26.2409 C   0  0  0  0  0  0  0  0  0  0  0  0
    6.9346  -14.4083   26.5663 C   0  0  0  0  0  0  0  0  0  0  0  0
    5.8323  -13.5998   26.5079 C   0  0  0  0  0  0  0  0  0  0  0  0
    5.9220  -12.2718   26.1326 C   0  0  0  0  0  0  0  0  0  0  0  0
    7.1535  -11.7659   25.8136 C   0  0  0  0  0  0  0  0  0  0  0  0
    8.2590  -12.5573   25.8669 C   0  0  0  0  0  0  0  0  0  0  0  0
    9.4350  -17.1073   25.7518 C   0  0  0  0  0  0  0  0  0  0  0  0
    8.4353  -17.9944   25.3274 O   0  0  0  0  0  0  0  0  0  0  0  0
   10.2596  -17.5588   26.5739 O   0  0  0  0  0  0  0  0  0  0  0  0
  2  1  1  1
  3  4  1  0
  3  2  1  0
  5  2  1  0
  5  9  1  0
  6  5  2  0
  8  9  1  0
  8 10  1  0
  8  7  1  1
 10 12  1  0
 11 10  2  0
 12 13  1  0
 13 14  1  1
 14 15  1  0
 15 20  2  0
 15 16  1  0
 16 17  2  0
 17 18  1  0
 19 18  2  0
 20 19  1  0
 21 22  1  0
 21 13  1  0
 23 21  2  0
M  END
$$$$
