CAF.pdb
     RDKit          3D

 23 23  0  0  1  0  0  0  0  0999 V2000
    5.9042  -19.3713   20.8546 N   0  0  0  0  0  0  0  0  0  0  0  0
    5.8818  -18.3897   21.9501 C   0  0  1  0  0  0  0  0  0  0  0  0
    6.1688  -19.1079   23.2442 C   0  0  0  0  0  0  0  0  0  0  0  0
    6.0447  -17.9115   24.5983 S   0  0  0  0  0  0  0  0  0  0  0  0
    6.9395  -17.3872   21.6623 C   0  0  0  0  0  0  0  0  0  0  0  0
    8.0842  -17.7195   21.2366 O   0  0  0  0  0  0  0  0  0  0  0  0
    7.2491  -13.6716   21.3669 C   0  0  0  0  0  0  0  0  0  0  0  0
    7.7445  -15.0536   21.7136 C   0  0  2  0  0  0  0  0  0  0  0  0
    6.6971  -16.0101   21.8576 N   0  0  0  0  0  0  0  0  0  0  0  0
    8.5914  -14.9725   22.9540 C   0  0  0  0  0  0  0  0  0  0  0  0
    9.6762  -14.3363   22.8701 O   0  0  0  0  0  0  0  0  0  0  0  0
    8.2073  -15.5722   24.1598 N   0  0  0  0  0  0  0  0  0  0  0  0
    9.0445  -15.4293   25.3392 C   0  0  1  0  0  0  0  0  0  0  0  0
    8.1622  -15.1334   26.5099 C   0  0  0  0  0  0  0  0  0  0  0  0
    7.5664  -13.7862   26.4623 C   0  0  0  0  0  0  0  0  0  0  0  0
    6.2132  -13.5597   26.6230 C   0  0  0  0  0  0  0  0  0  0  0  0
    5.7458  -12.2749   26.5713 C   0  0  0  0  0  0  0  0  0  0  0  0
    6.5908  -11.2001   26.3629 C   0  0  0  0  0  0  0  0  0  0  0  0
    7.9289  -11.4433   26.2058 C   0  0  0  0  0  0  0  0  0  0  0  0
    8.4088  -12.7156   26.2547 C   0  0  0  0  0  0  0  0  0  0  0  0
    9.9309  -16.5865   25.5230 C   0  0  0  0  0  0  0  0  0  0  0  0
   10.8536  -16.6031   26.5789 O   0  0  0  0  0  0  0  0  0  0  0  0
    9.9230  -17.5919   24.7823 O   0  0  0  0  0  0  0  0  0  0  0  0
  2  1  1  6
  3  4  1  0
  3  2  1  0
  5  2  1  0
  5  9  1  0
  6  5  2  0
  8  9  1  0
  8 10  1  0
  8  7  1  1
 10 12  1  0
 11 10  2  0
 12 13  1  0
 13 14  1  1
 14 15  1  0
 15 20  2  0
 15 16  1  0
 16 17  2  0
 17 18  1  0
 19 18  2  0
 20 19  1  0
 21 22  1  0
 21 13  1  0
 23 21  2  0
M  END
$$$$
