CAF.pdb
     RDKit          3D

 23 23  0  0  1  0  0  0  0  0999 V2000
    5.9849  -19.3741   20.9014 N   0  0  0  0  0  0  0  0  0  0  0  0
    5.8928  -18.4227   22.0196 C   0  0  1  0  0  0  0  0  0  0  0  0
    6.0851  -19.1783   23.3099 C   0  0  0  0  0  0  0  0  0  0  0  0
    5.6639  -18.0749   24.6832 S   0  0  0  0  0  0  0  0  0  0  0  0
    6.9741  -17.4213   21.8334 C   0  0  0  0  0  0  0  0  0  0  0  0
    8.1752  -17.7590   21.6209 O   0  0  0  0  0  0  0  0  0  0  0  0
    7.2179  -13.6957   21.3940 C   0  0  0  0  0  0  0  0  0  0  0  0
    7.7284  -15.0720   21.7414 C   0  0  2  0  0  0  0  0  0  0  0  0
    6.6912  -16.0392   21.8886 N   0  0  0  0  0  0  0  0  0  0  0  0
    8.5769  -14.9807   22.9799 C   0  0  0  0  0  0  0  0  0  0  0  0
    9.6013  -14.2487   22.9234 O   0  0  0  0  0  0  0  0  0  0  0  0
    8.2580  -15.6724   24.1551 N   0  0  0  0  0  0  0  0  0  0  0  0
    9.1033  -15.5344   25.3293 C   0  0  1  0  0  0  0  0  0  0  0  0
    8.2270  -15.2703   26.5120 C   0  0  0  0  0  0  0  0  0  0  0  0
    7.6676  -13.9068   26.5274 C   0  0  0  0  0  0  0  0  0  0  0  0
    8.4568  -12.7742   26.5808 C   0  0  0  0  0  0  0  0  0  0  0  0
    7.8537  -11.5461   26.5843 C   0  0  0  0  0  0  0  0  0  0  0  0
    6.4783  -11.4098   26.5359 C   0  0  0  0  0  0  0  0  0  0  0  0
    5.7120  -12.5430   26.4833 C   0  0  0  0  0  0  0  0  0  0  0  0
    6.2971  -13.7714   26.4791 C   0  0  0  0  0  0  0  0  0  0  0  0
   10.0091  -16.6803   25.4876 C   0  0  0  0  0  0  0  0  0  0  0  0
   10.0095  -17.7112   24.5370 O   0  0  0  0  0  0  0  0  0  0  0  0
   10.8069  -16.8084   26.4398 O   0  0  0  0  0  0  0  0  0  0  0  0
  2  1  1  6
  3  4  1  0
  3  2  1  0
  5  2  1  0
  5  9  1  0
  6  5  2  0
  8  9  1  0
  8 10  1  0
  8  7  1  1
 10 12  1  0
 11 10  2  0
 12 13  1  0
 13 14  1  1
 14 15  1  0
 15 20  2  0
 15 16  1  0
 16 17  2  0
 17 18  1  0
 19 18  2  0
 20 19  1  0
 21 22  1  0
 21 13  1  0
 23 21  2  0
M  END
$$$$
