CAF.pdb
     RDKit          3D

 23 23  0  0  1  0  0  0  0  0999 V2000
    9.6616  -15.4306   19.8468 N   0  0  0  0  0  0  0  0  0  0  0  0
    8.8914  -14.2272   20.1971 C   0  0  1  0  0  0  0  0  0  0  0  0
    8.2863  -13.6610   18.9377 C   0  0  0  0  0  0  0  0  0  0  0  0
    7.7001  -11.9844   19.2924 S   0  0  0  0  0  0  0  0  0  0  0  0
    7.8281  -14.6479   21.1453 C   0  0  0  0  0  0  0  0  0  0  0  0
    7.0346  -13.8183   21.6784 O   0  0  0  0  0  0  0  0  0  0  0  0
    6.0951  -17.7816   22.1183 C   0  0  0  0  0  0  0  0  0  0  0  0
    6.6652  -16.4171   22.4158 C   0  0  2  0  0  0  0  0  0  0  0  0
    7.6668  -16.0082   21.4871 N   0  0  0  0  0  0  0  0  0  0  0  0
    7.1830  -16.4007   23.8278 C   0  0  0  0  0  0  0  0  0  0  0  0
    6.4405  -16.8934   24.7192 O   0  0  0  0  0  0  0  0  0  0  0  0
    8.4343  -15.8650   24.1572 N   0  0  0  0  0  0  0  0  0  0  0  0
    8.8345  -15.7618   25.5505 C   0  0  1  0  0  0  0  0  0  0  0  0
    7.6259  -15.4231   26.3637 C   0  0  0  0  0  0  0  0  0  0  0  0
    7.2240  -14.0101   26.2460 C   0  0  0  0  0  0  0  0  0  0  0  0
    8.1359  -12.9804   26.1162 C   0  0  0  0  0  0  0  0  0  0  0  0
    7.6747  -11.6970   26.0056 C   0  0  0  0  0  0  0  0  0  0  0  0
    6.3230  -11.4049   26.0204 C   0  0  0  0  0  0  0  0  0  0  0  0
    5.4338  -12.4377   26.1499 C   0  0  0  0  0  0  0  0  0  0  0  0
    5.8771  -13.7193   26.2608 C   0  0  0  0  0  0  0  0  0  0  0  0
    9.5548  -16.9601   26.0019 C   0  0  0  0  0  0  0  0  0  0  0  0
    9.9598  -17.9277   25.0712 O   0  0  0  0  0  0  0  0  0  0  0  0
    9.8431  -17.1887   27.1953 O   0  0  0  0  0  0  0  0  0  0  0  0
  2  1  1  6
  3  4  1  0
  3  2  1  0
  5  2  1  0
  5  9  1  0
  6  5  2  0
  8  9  1  0
  8 10  1  0
  8  7  1  6
 10 12  1  0
 11 10  2  0
 12 13  1  0
 13 14  1  1
 14 15  1  0
 15 20  2  0
 15 16  1  0
 16 17  2  0
 17 18  1  0
 19 18  2  0
 20 19  1  0
 21 22  1  0
 21 13  1  0
 23 21  2  0
M  END
$$$$
