CAF.pdb
     RDKit          3D

 23 23  0  0  1  0  0  0  0  0999 V2000
    7.6634  -15.3466   17.0049 N   0  0  0  0  0  0  0  0  0  0  0  0
    8.4380  -14.6455   18.0406 C   0  0  1  0  0  0  0  0  0  0  0  0
    7.7749  -13.3212   18.3219 C   0  0  0  0  0  0  0  0  0  0  0  0
    8.6528  -12.5252   19.6917 S   0  0  0  0  0  0  0  0  0  0  0  0
    8.4272  -15.5042   19.2526 C   0  0  0  0  0  0  0  0  0  0  0  0
    7.3520  -15.9329   19.7645 O   0  0  0  0  0  0  0  0  0  0  0  0
   10.7979  -17.5966   21.1852 C   0  0  0  0  0  0  0  0  0  0  0  0
    9.6314  -16.6458   21.0811 C   0  0  2  0  0  0  0  0  0  0  0  0
    9.6356  -15.8749   19.8817 N   0  0  0  0  0  0  0  0  0  0  0  0
    9.6066  -15.7668   22.3013 C   0  0  0  0  0  0  0  0  0  0  0  0
    9.9483  -14.5630   22.1509 O   0  0  0  0  0  0  0  0  0  0  0  0
    9.2229  -16.2478   23.5593 N   0  0  0  0  0  0  0  0  0  0  0  0
    9.0064  -15.3184   24.6555 C   0  0  1  0  0  0  0  0  0  0  0  0
    7.8941  -14.3936   24.2759 C   0  0  0  0  0  0  0  0  0  0  0  0
    7.5533  -13.4289   25.3368 C   0  0  0  0  0  0  0  0  0  0  0  0
    8.3874  -12.3892   25.6998 C   0  0  0  0  0  0  0  0  0  0  0  0
    7.9885  -11.5352   26.6916 C   0  0  0  0  0  0  0  0  0  0  0  0
    6.7753  -11.6857   27.3382 C   0  0  0  0  0  0  0  0  0  0  0  0
    5.9615  -12.7216   26.9654 C   0  0  0  0  0  0  0  0  0  0  0  0
    6.3443  -13.5792   25.9808 C   0  0  0  0  0  0  0  0  0  0  0  0
    8.8071  -16.0171   25.9324 C   0  0  0  0  0  0  0  0  0  0  0  0
    8.0063  -17.1670   25.9858 O   0  0  0  0  0  0  0  0  0  0  0  0
    9.3162  -15.6495   27.0120 O   0  0  0  0  0  0  0  0  0  0  0  0
  2  1  1  6
  3  4  1  0
  3  2  1  0
  5  2  1  0
  5  9  1  0
  6  5  2  0
  8  9  1  0
  8 10  1  0
  8  7  1  1
 10 12  1  0
 11 10  2  0
 12 13  1  0
 13 14  1  6
 14 15  1  0
 15 20  2  0
 15 16  1  0
 16 17  2  0
 17 18  1  0
 19 18  2  0
 20 19  1  0
 21 22  1  0
 21 13  1  0
 23 21  2  0
M  END
$$$$
