DSN.pdb
     RDKit          3D

 23 22  0  0  1  0  0  0  0  0999 V2000
    9.0164  -16.5240   15.4245 N   0  0  0  0  0  0  0  0  0  0  0  0
   10.3960  -16.1706   15.1569 C   0  0  1  0  0  0  0  0  0  0  0  0
   10.4480  -15.3400   13.8997 C   0  0  0  0  0  0  0  0  0  0  0  0
   10.1032  -16.1373   12.7060 C   0  0  0  0  0  0  0  0  0  0  0  0
    9.7214  -17.3132   12.8431 O   0  0  0  0  0  0  0  0  0  0  0  0
   10.8913  -15.2925   16.2762 C   0  0  0  0  0  0  0  0  0  0  0  0
   12.0628  -14.8354   16.2744 O   0  0  0  0  0  0  0  0  0  0  0  0
   10.2078  -15.5733   11.4616 O   0  0  0  0  0  0  0  0  0  0  0  0
    8.5311  -14.9536   19.5200 O   0  0  0  0  0  0  0  0  0  0  0  0
    9.2790  -13.7767   19.2855 C   0  0  0  0  0  0  0  0  0  0  0  0
   10.5177  -14.2127   18.5290 C   0  0  2  0  0  0  0  0  0  0  0  0
   10.0521  -14.9528   17.3686 N   0  0  0  0  0  0  0  0  0  0  0  0
   11.3134  -15.0637   19.4414 C   0  0  0  0  0  0  0  0  0  0  0  0
   11.1323  -16.2953   19.4187 O   0  0  0  0  0  0  0  0  0  0  0  0
   16.1364  -15.8265   19.9349 N   0  0  0  0  0  0  0  0  0  0  0  0
   15.3194  -14.7318   20.2857 C   0  0  0  0  0  0  0  0  0  0  0  0
   15.3542  -13.7169   19.5649 O   0  0  0  0  0  0  0  0  0  0  0  0
   14.4655  -14.7931   21.4540 C   0  0  0  0  0  0  0  0  0  0  0  0
   13.0938  -15.3629   21.1998 C   0  0  2  0  0  0  0  0  0  0  0  0
   12.2815  -14.5540   20.3507 N   0  0  0  0  0  0  0  0  0  0  0  0
   12.4049  -15.7184   22.4834 C   0  0  0  0  0  0  0  0  0  0  0  0
   12.8858  -16.6997   23.3289 O   0  0  0  0  0  0  0  0  0  0  0  0
   11.3473  -15.1301   22.8473 O   0  0  0  0  0  0  0  0  0  0  0  0
  2  1  1  1
  2  3  1  0
  3  4  1  0
  4  5  2  0
  4  8  1  0
  6 12  1  0
  6  2  1  0
  7  6  2  0
  9 10  1  0
 11 10  1  1
 11 13  1  0
 11 12  1  0
 13 20  1  0
 14 13  2  0
 16 15  1  0
 16 17  2  0
 18 16  1  0
 19 21  1  0
 19 18  1  1
 20 19  1  0
 21 22  1  0
 23 21  2  0
M  END
$$$$
