DSN.pdb
     RDKit          3D

 23 22  0  0  1  0  0  0  0  0999 V2000
   12.9854  -20.7297   16.9730 N   0  0  0  0  0  0  0  0  0  0  0  0
   13.5304  -19.4524   17.3868 C   0  0  1  0  0  0  0  0  0  0  0  0
   12.6385  -18.3539   16.8665 C   0  0  0  0  0  0  0  0  0  0  0  0
   12.8139  -18.1520   15.4146 C   0  0  0  0  0  0  0  0  0  0  0  0
   13.6084  -18.8742   14.7865 O   0  0  0  0  0  0  0  0  0  0  0  0
   13.4804  -19.3746   18.8904 C   0  0  0  0  0  0  0  0  0  0  0  0
   12.4011  -19.5390   19.5145 O   0  0  0  0  0  0  0  0  0  0  0  0
   12.1001  -17.1721   14.7760 O   0  0  0  0  0  0  0  0  0  0  0  0
   16.4068  -20.4346   21.8052 O   0  0  0  0  0  0  0  0  0  0  0  0
   16.1105  -19.0803   21.5268 C   0  0  0  0  0  0  0  0  0  0  0  0
   14.6560  -19.0497   21.1023 C   0  0  2  0  0  0  0  0  0  0  0  0
   14.6493  -19.1132   19.6509 N   0  0  0  0  0  0  0  0  0  0  0  0
   14.0792  -17.7811   21.6002 C   0  0  0  0  0  0  0  0  0  0  0  0
   14.3809  -16.7207   21.0216 O   0  0  0  0  0  0  0  0  0  0  0  0
   10.9131  -16.7602   21.0454 N   0  0  0  0  0  0  0  0  0  0  0  0
   10.3428  -16.7370   22.3350 C   0  0  0  0  0  0  0  0  0  0  0  0
    9.1105  -16.8854   22.4361 O   0  0  0  0  0  0  0  0  0  0  0  0
   11.1737  -16.5452   23.5057 C   0  0  0  0  0  0  0  0  0  0  0  0
   12.6525  -16.4835   23.2226 C   0  0  2  0  0  0  0  0  0  0  0  0
   13.1930  -17.7002   22.7101 N   0  0  0  0  0  0  0  0  0  0  0  0
   13.4138  -15.9731   24.4095 C   0  0  0  0  0  0  0  0  0  0  0  0
   13.3356  -14.6570   24.8229 O   0  0  0  0  0  0  0  0  0  0  0  0
   14.1644  -16.7323   25.0858 O   0  0  0  0  0  0  0  0  0  0  0  0
  2  1  1  1
  2  3  1  0
  3  4  1  0
  4  5  2  0
  4  8  1  0
  6 12  1  0
  6  2  1  0
  7  6  2  0
  9 10  1  0
 11 10  1  6
 11 13  1  0
 11 12  1  0
 13 20  1  0
 14 13  2  0
 16 15  1  0
 16 17  2  0
 18 16  1  0
 19 21  1  0
 19 18  1  1
 20 19  1  0
 21 22  1  0
 23 21  2  0
M  END
$$$$
