DSN.pdb
     RDKit          3D

 23 22  0  0  1  0  0  0  0  0999 V2000
    8.9333  -16.0238   17.2504 N   0  0  0  0  0  0  0  0  0  0  0  0
    9.7489  -14.8440   17.0442 C   0  0  1  0  0  0  0  0  0  0  0  0
    8.8629  -13.7193   16.5715 C   0  0  0  0  0  0  0  0  0  0  0  0
    8.0437  -14.1225   15.4114 C   0  0  0  0  0  0  0  0  0  0  0  0
    7.3444  -13.2741   14.8298 O   0  0  0  0  0  0  0  0  0  0  0  0
   10.3185  -14.4172   18.3718 C   0  0  0  0  0  0  0  0  0  0  0  0
   11.0627  -13.4079   18.4659 O   0  0  0  0  0  0  0  0  0  0  0  0
    8.0631  -15.4259   14.9890 O   0  0  0  0  0  0  0  0  0  0  0  0
   10.6672  -15.4701   23.0804 O   0  0  0  0  0  0  0  0  0  0  0  0
   10.0657  -15.7990   21.8437 C   0  0  0  0  0  0  0  0  0  0  0  0
   10.7634  -14.9493   20.8007 C   0  0  2  0  0  0  0  0  0  0  0  0
   10.0336  -15.1401   19.5589 N   0  0  0  0  0  0  0  0  0  0  0  0
   12.1578  -15.4340   20.6995 C   0  0  0  0  0  0  0  0  0  0  0  0
   12.3961  -16.4195   19.9769 O   0  0  0  0  0  0  0  0  0  0  0  0
   15.6859  -13.3669   18.2349 N   0  0  0  0  0  0  0  0  0  0  0  0
   15.5203  -14.4731   19.0937 C   0  0  0  0  0  0  0  0  0  0  0  0
   15.3991  -15.6021   18.5823 O   0  0  0  0  0  0  0  0  0  0  0  0
   15.4926  -14.2937   20.5306 C   0  0  0  0  0  0  0  0  0  0  0  0
   14.6073  -15.2651   21.2677 C   0  0  2  0  0  0  0  0  0  0  0  0
   13.2518  -14.8361   21.3845 N   0  0  0  0  0  0  0  0  0  0  0  0
   15.2025  -15.6506   22.5890 C   0  0  0  0  0  0  0  0  0  0  0  0
   16.2876  -16.5003   22.6870 O   0  0  0  0  0  0  0  0  0  0  0  0
   14.7320  -15.2102   23.6761 O   0  0  0  0  0  0  0  0  0  0  0  0
  2  1  1  1
  2  3  1  0
  3  4  1  0
  4  5  2  0
  4  8  1  0
  6 12  1  0
  6  2  1  0
  7  6  2  0
  9 10  1  0
 11 10  1  1
 11 13  1  0
 11 12  1  0
 13 20  1  0
 14 13  2  0
 16 15  1  0
 16 17  2  0
 18 16  1  0
 19 21  1  0
 19 18  1  1
 20 19  1  0
 21 22  1  0
 23 21  2  0
M  END
$$$$
