DSN.pdb
     RDKit          3D

 23 22  0  0  1  0  0  0  0  0999 V2000
    7.0442  -17.8512   17.5997 N   0  0  0  0  0  0  0  0  0  0  0  0
    8.4868  -17.7291   17.5396 C   0  0  1  0  0  0  0  0  0  0  0  0
    8.8608  -17.0337   16.2552 C   0  0  0  0  0  0  0  0  0  0  0  0
    8.3376  -17.7508   15.0756 C   0  0  0  0  0  0  0  0  0  0  0  0
    7.5631  -18.7110   15.2352 O   0  0  0  0  0  0  0  0  0  0  0  0
    8.9392  -16.8342   18.6637 C   0  0  0  0  0  0  0  0  0  0  0  0
   10.1596  -16.6025   18.8594 O   0  0  0  0  0  0  0  0  0  0  0  0
    8.7110  -17.3508   13.8193 O   0  0  0  0  0  0  0  0  0  0  0  0
    6.2519  -15.8713   21.7183 O   0  0  0  0  0  0  0  0  0  0  0  0
    7.1472  -14.8638   21.2908 C   0  0  0  0  0  0  0  0  0  0  0  0
    8.3805  -15.5868   20.7879 C   0  0  2  0  0  0  0  0  0  0  0  0
    8.0031  -16.2239   19.5378 N   0  0  0  0  0  0  0  0  0  0  0  0
    8.7596  -16.5788   21.8185 C   0  0  0  0  0  0  0  0  0  0  0  0
    8.4171  -17.7652   21.6594 O   0  0  0  0  0  0  0  0  0  0  0  0
   12.6184  -19.4210   23.1504 N   0  0  0  0  0  0  0  0  0  0  0  0
   12.7965  -18.0445   22.9006 C   0  0  0  0  0  0  0  0  0  0  0  0
   13.9273  -17.5552   23.0812 O   0  0  0  0  0  0  0  0  0  0  0  0
   11.6897  -17.2280   22.4465 C   0  0  0  0  0  0  0  0  0  0  0  0
   10.6107  -17.0053   23.4746 C   0  0  2  0  0  0  0  0  0  0  0  0
    9.4984  -16.2549   22.9902 N   0  0  0  0  0  0  0  0  0  0  0  0
   11.1753  -16.4393   24.7434 C   0  0  0  0  0  0  0  0  0  0  0  0
   11.5458  -15.1130   24.8561 O   0  0  0  0  0  0  0  0  0  0  0  0
   11.3366  -17.1585   25.7699 O   0  0  0  0  0  0  0  0  0  0  0  0
  2  1  1  6
  2  3  1  0
  3  4  1  0
  4  5  2  0
  4  8  1  0
  6 12  1  0
  6  2  1  0
  7  6  2  0
  9 10  1  0
 11 10  1  1
 11 13  1  0
 11 12  1  0
 13 20  1  0
 14 13  2  0
 16 15  1  0
 16 17  2  0
 18 16  1  0
 19 21  1  0
 19 18  1  6
 20 19  1  0
 21 22  1  0
 23 21  2  0
M  END
$$$$
