DSN.pdb
     RDKit          3D

 23 22  0  0  1  0  0  0  0  0999 V2000
    8.5395  -14.2607   13.5300 N   0  0  0  0  0  0  0  0  0  0  0  0
    8.1244  -15.1962   14.5556 C   0  0  1  0  0  0  0  0  0  0  0  0
    8.6087  -16.5736   14.1794 C   0  0  0  0  0  0  0  0  0  0  0  0
    7.8309  -17.1365   13.0579 C   0  0  0  0  0  0  0  0  0  0  0  0
    8.0242  -18.3142   12.7075 O   0  0  0  0  0  0  0  0  0  0  0  0
    8.8147  -14.8321   15.8441 C   0  0  0  0  0  0  0  0  0  0  0  0
   10.0257  -15.1123   16.0348 O   0  0  0  0  0  0  0  0  0  0  0  0
    6.9057  -16.3556   12.4161 O   0  0  0  0  0  0  0  0  0  0  0  0
    6.6165  -13.8645   19.1602 O   0  0  0  0  0  0  0  0  0  0  0  0
    7.7105  -13.0017   18.9193 C   0  0  0  0  0  0  0  0  0  0  0  0
    8.7313  -13.8238   18.1586 C   0  0  2  0  0  0  0  0  0  0  0  0
    8.1209  -14.1612   16.8840 N   0  0  0  0  0  0  0  0  0  0  0  0
    9.0166  -15.0292   18.9682 C   0  0  0  0  0  0  0  0  0  0  0  0
    8.9371  -16.1462   18.4240 O   0  0  0  0  0  0  0  0  0  0  0  0
   11.9136  -17.8807   22.0865 N   0  0  0  0  0  0  0  0  0  0  0  0
   12.3207  -17.2550   20.8900 C   0  0  0  0  0  0  0  0  0  0  0  0
   13.4110  -17.5919   20.3914 O   0  0  0  0  0  0  0  0  0  0  0  0
   11.4884  -16.2487   20.2636 C   0  0  0  0  0  0  0  0  0  0  0  0
   10.2002  -15.9588   20.9896 C   0  0  2  0  0  0  0  0  0  0  0  0
    9.3795  -14.9875   20.3430 N   0  0  0  0  0  0  0  0  0  0  0  0
   10.4491  -15.6306   22.4316 C   0  0  0  0  0  0  0  0  0  0  0  0
    9.9550  -14.4824   23.0204 O   0  0  0  0  0  0  0  0  0  0  0  0
   11.1266  -16.3973   23.1733 O   0  0  0  0  0  0  0  0  0  0  0  0
  2  1  1  6
  2  3  1  0
  3  4  1  0
  4  5  2  0
  4  8  1  0
  6 12  1  0
  6  2  1  0
  7  6  2  0
  9 10  1  0
 11 10  1  1
 11 13  1  0
 11 12  1  0
 13 20  1  0
 14 13  2  0
 16 15  1  0
 16 17  2  0
 18 16  1  0
 19 21  1  0
 19 18  1  6
 20 19  1  0
 21 22  1  0
 23 21  2  0
M  END
$$$$
