DSN.pdb
     RDKit          3D

 23 22  0  0  1  0  0  0  0  0999 V2000
   10.4391  -15.7434   17.7410 N   0  0  0  0  0  0  0  0  0  0  0  0
    9.4318  -16.2629   18.6439 C   0  0  1  0  0  0  0  0  0  0  0  0
    9.5815  -17.7609   18.7261 C   0  0  0  0  0  0  0  0  0  0  0  0
    9.2548  -18.4119   17.4420 C   0  0  0  0  0  0  0  0  0  0  0  0
    9.1561  -17.7216   16.4120 O   0  0  0  0  0  0  0  0  0  0  0  0
    9.7026  -15.7247   20.0245 C   0  0  0  0  0  0  0  0  0  0  0  0
   10.8772  -15.5182   20.4232 O   0  0  0  0  0  0  0  0  0  0  0  0
    9.0641  -19.7682   17.3996 O   0  0  0  0  0  0  0  0  0  0  0  0
    6.5884  -15.4477   22.6181 O   0  0  0  0  0  0  0  0  0  0  0  0
    7.5273  -14.3985   22.7483 C   0  0  0  0  0  0  0  0  0  0  0  0
    8.8527  -14.9632   22.2780 C   0  0  2  0  0  0  0  0  0  0  0  0
    8.6411  -15.4334   20.9197 N   0  0  0  0  0  0  0  0  0  0  0  0
    9.2091  -16.0694   23.1940 C   0  0  0  0  0  0  0  0  0  0  0  0
    8.9036  -17.2327   22.8721 O   0  0  0  0  0  0  0  0  0  0  0  0
   12.4768  -19.4509   25.2304 N   0  0  0  0  0  0  0  0  0  0  0  0
   12.7055  -18.0953   25.5450 C   0  0  0  0  0  0  0  0  0  0  0  0
   13.5135  -17.8307   26.4549 O   0  0  0  0  0  0  0  0  0  0  0  0
   12.0157  -17.0446   24.8254 C   0  0  0  0  0  0  0  0  0  0  0  0
   10.5501  -16.9179   25.1518 C   0  0  2  0  0  0  0  0  0  0  0  0
    9.8860  -15.8814   24.4310 N   0  0  0  0  0  0  0  0  0  0  0  0
   10.3277  -16.8202   26.6317 C   0  0  0  0  0  0  0  0  0  0  0  0
    9.6475  -15.7629   27.2049 O   0  0  0  0  0  0  0  0  0  0  0  0
   10.7570  -17.7083   27.4215 O   0  0  0  0  0  0  0  0  0  0  0  0
  2  1  1  6
  2  3  1  0
  3  4  1  0
  4  5  2  0
  4  8  1  0
  6 12  1  0
  6  2  1  0
  7  6  2  0
  9 10  1  0
 11 10  1  1
 11 13  1  0
 11 12  1  0
 13 20  1  0
 14 13  2  0
 16 15  1  0
 16 17  2  0
 18 16  1  0
 19 21  1  0
 19 18  1  1
 20 19  1  0
 21 22  1  0
 23 21  2  0
M  END
$$$$
