DSN.pdb
     RDKit          3D

 23 22  0  0  1  0  0  0  0  0999 V2000
   -2.0258  -26.6116   26.5076 N   0  0  0  0  0  0  0  0  0  0  0  0
   -2.4856  -26.9498   27.8394 C   0  0  1  0  0  0  0  0  0  0  0  0
   -1.2999  -27.3761   28.6674 C   0  0  0  0  0  0  0  0  0  0  0  0
   -0.8114  -28.7118   28.2714 C   0  0  0  0  0  0  0  0  0  0  0  0
   -0.9420  -29.0882   27.0931 O   0  0  0  0  0  0  0  0  0  0  0  0
   -3.0396  -25.7068   28.4852 C   0  0  0  0  0  0  0  0  0  0  0  0
   -3.3857  -25.7010   29.6941 O   0  0  0  0  0  0  0  0  0  0  0  0
   -0.2203  -29.5211   29.2059 O   0  0  0  0  0  0  0  0  0  0  0  0
   -4.1436  -22.6591   26.1010 O   0  0  0  0  0  0  0  0  0  0  0  0
   -3.5349  -22.1951   27.2899 C   0  0  0  0  0  0  0  0  0  0  0  0
   -3.7442  -23.2867   28.3200 C   0  0  2  0  0  0  0  0  0  0  0  0
   -3.1890  -24.5024   27.7502 N   0  0  0  0  0  0  0  0  0  0  0  0
   -5.2017  -23.4019   28.5487 C   0  0  0  0  0  0  0  0  0  0  0  0
   -5.8150  -24.3497   28.0237 O   0  0  0  0  0  0  0  0  0  0  0  0
  -10.0425  -23.0539   30.2225 N   0  0  0  0  0  0  0  0  0  0  0  0
   -9.1356  -24.0973   30.5012 C   0  0  0  0  0  0  0  0  0  0  0  0
   -9.5749  -25.1307   31.0396 O   0  0  0  0  0  0  0  0  0  0  0  0
   -7.7325  -23.9638   30.1675 C   0  0  0  0  0  0  0  0  0  0  0  0
   -7.3432  -22.6152   29.6194 C   0  0  2  0  0  0  0  0  0  0  0  0
   -5.9503  -22.4865   29.3394 N   0  0  0  0  0  0  0  0  0  0  0  0
   -7.8587  -21.5051   30.4860 C   0  0  0  0  0  0  0  0  0  0  0  0
   -7.0269  -20.5339   31.0094 O   0  0  0  0  0  0  0  0  0  0  0  0
   -9.0853  -21.4119   30.7754 O   0  0  0  0  0  0  0  0  0  0  0  0
  2  1  1  6
  2  3  1  0
  3  4  1  0
  4  5  2  0
  4  8  1  0
  6 12  1  0
  6  2  1  0
  7  6  2  0
  9 10  1  0
 11 10  1  6
 11 13  1  0
 11 12  1  0
 13 20  1  0
 14 13  2  0
 16 15  1  0
 16 17  2  0
 18 16  1  0
 19 21  1  0
 19 18  1  1
 20 19  1  0
 21 22  1  0
 23 21  2  0
M  END
$$$$
