DSN.pdb
     RDKit          3D

 23 22  0  0  1  0  0  0  0  0999 V2000
    7.6052  -16.5397   15.6874 N   0  0  0  0  0  0  0  0  0  0  0  0
    8.7599  -15.9232   15.0659 C   0  0  1  0  0  0  0  0  0  0  0  0
    8.2860  -15.0000   13.9722 C   0  0  0  0  0  0  0  0  0  0  0  0
    7.8736  -15.7487   12.7685 C   0  0  0  0  0  0  0  0  0  0  0  0
    7.9075  -16.9921   12.7779 O   0  0  0  0  0  0  0  0  0  0  0  0
    9.4522  -15.0617   16.0895 C   0  0  0  0  0  0  0  0  0  0  0  0
   10.5877  -14.5702   15.8648 O   0  0  0  0  0  0  0  0  0  0  0  0
    7.4584  -15.0658   11.6554 O   0  0  0  0  0  0  0  0  0  0  0  0
    7.7514  -14.8077   19.7500 O   0  0  0  0  0  0  0  0  0  0  0  0
    8.4557  -13.6358   19.3896 C   0  0  0  0  0  0  0  0  0  0  0  0
    9.5285  -14.0765   18.4141 C   0  0  2  0  0  0  0  0  0  0  0  0
    8.8455  -14.7771   17.3400 N   0  0  0  0  0  0  0  0  0  0  0  0
   10.4537  -14.9663   19.1504 C   0  0  0  0  0  0  0  0  0  0  0  0
   10.2146  -16.1880   19.1739 O   0  0  0  0  0  0  0  0  0  0  0  0
   14.9695  -13.7826   18.7610 N   0  0  0  0  0  0  0  0  0  0  0  0
   14.5616  -14.9604   19.4206 C   0  0  0  0  0  0  0  0  0  0  0  0
   14.8028  -16.0538   18.8755 O   0  0  0  0  0  0  0  0  0  0  0  0
   13.8809  -14.8928   20.6973 C   0  0  0  0  0  0  0  0  0  0  0  0
   12.4376  -15.3245   20.6627 C   0  0  2  0  0  0  0  0  0  0  0  0
   11.6099  -14.5051   19.8389 N   0  0  0  0  0  0  0  0  0  0  0  0
   11.8847  -15.4893   22.0470 C   0  0  0  0  0  0  0  0  0  0  0  0
   12.4232  -16.3834   22.9523 O   0  0  0  0  0  0  0  0  0  0  0  0
   10.8953  -14.8114   22.4452 O   0  0  0  0  0  0  0  0  0  0  0  0
  2  1  1  1
  2  3  1  0
  3  4  1  0
  4  5  2  0
  4  8  1  0
  6 12  1  0
  6  2  1  0
  7  6  2  0
  9 10  1  0
 11 10  1  1
 11 13  1  0
 11 12  1  0
 13 20  1  0
 14 13  2  0
 16 15  1  0
 16 17  2  0
 18 16  1  0
 19 21  1  0
 19 18  1  1
 20 19  1  0
 21 22  1  0
 23 21  2  0
M  END
$$$$
