DSN.pdb
     RDKit          3D

 23 22  0  0  1  0  0  0  0  0999 V2000
   10.6088  -19.8603   15.5026 N   0  0  0  0  0  0  0  0  0  0  0  0
   10.3562  -20.6298   16.7041 C   0  0  1  0  0  0  0  0  0  0  0  0
   11.0323  -21.9708   16.5714 C   0  0  0  0  0  0  0  0  0  0  0  0
   10.4882  -22.7450   15.4382 C   0  0  0  0  0  0  0  0  0  0  0  0
    9.6504  -22.2205   14.6831 O   0  0  0  0  0  0  0  0  0  0  0  0
   11.0087  -19.9297   17.8675 C   0  0  0  0  0  0  0  0  0  0  0  0
   12.0607  -19.2577   17.7152 O   0  0  0  0  0  0  0  0  0  0  0  0
   10.9119  -24.0316   15.2315 O   0  0  0  0  0  0  0  0  0  0  0  0
    9.0774  -19.9764   21.4237 O   0  0  0  0  0  0  0  0  0  0  0  0
    9.8827  -18.8431   21.1658 C   0  0  0  0  0  0  0  0  0  0  0  0
   11.0411  -19.3369   20.3227 C   0  0  2  0  0  0  0  0  0  0  0  0
   10.4574  -20.0058   19.1726 N   0  0  0  0  0  0  0  0  0  0  0  0
   11.8286  -20.2688   21.1600 C   0  0  0  0  0  0  0  0  0  0  0  0
   11.5609  -21.4839   21.1142 O   0  0  0  0  0  0  0  0  0  0  0  0
   16.0834  -20.9930   25.1761 N   0  0  0  0  0  0  0  0  0  0  0  0
   15.9318  -21.1555   23.7834 C   0  0  0  0  0  0  0  0  0  0  0  0
   16.5376  -22.0928   23.2310 O   0  0  0  0  0  0  0  0  0  0  0  0
   15.0926  -20.2529   23.0226 C   0  0  0  0  0  0  0  0  0  0  0  0
   13.6866  -20.7448   22.7949 C   0  0  2  0  0  0  0  0  0  0  0  0
   12.8825  -19.8556   22.0216 N   0  0  0  0  0  0  0  0  0  0  0  0
   13.0302  -21.1358   24.0853 C   0  0  0  0  0  0  0  0  0  0  0  0
   13.2649  -22.3560   24.6895 O   0  0  0  0  0  0  0  0  0  0  0  0
   12.2289  -20.3587   24.6778 O   0  0  0  0  0  0  0  0  0  0  0  0
  2  1  1  6
  2  3  1  0
  3  4  1  0
  4  5  2  0
  4  8  1  0
  6 12  1  0
  6  2  1  0
  7  6  2  0
  9 10  1  0
 11 10  1  1
 11 13  1  0
 11 12  1  0
 13 20  1  0
 14 13  2  0
 16 15  1  0
 16 17  2  0
 18 16  1  0
 19 21  1  0
 19 18  1  1
 20 19  1  0
 21 22  1  0
 23 21  2  0
M  END
$$$$
