TVV.pdb
     RDKit          3D

 22 21  0  0  1  0  0  0  0  0999 V2000
   27.3751  -22.4298  -14.5739 C   0  0  0  0  0  0  0  0  0  0  0  0
   27.3611  -21.8221  -13.1864 C   0  0  1  0  0  0  0  0  0  0  0  0
   28.6224  -21.2089  -13.0220 O   0  0  0  0  0  0  0  0  0  0  0  0
   26.3447  -20.7027  -13.1308 C   0  0  2  0  0  0  0  0  0  0  0  0
   26.5650  -19.7606  -14.1981 N   0  0  0  0  0  0  0  0  0  0  0  0
   26.3601  -19.9913  -11.8437 C   0  0  0  0  0  0  0  0  0  0  0  0
   26.5576  -18.7455  -11.7502 O   0  0  0  0  0  0  0  0  0  0  0  0
   23.7796  -19.5457   -7.9986 C   0  0  0  0  0  0  0  0  0  0  0  0
   24.3045  -20.2888   -9.1724 C   0  0  2  0  0  0  0  0  0  0  0  0
   23.9744  -21.7590   -9.0307 C   0  0  0  0  0  0  0  0  0  0  0  0
   25.7850  -20.1166   -9.4014 C   0  0  2  0  0  0  0  0  0  0  0  0
   26.1448  -20.7257  -10.6480 N   0  0  0  0  0  0  0  0  0  0  0  0
   26.6007  -20.6360   -8.2902 C   0  0  0  0  0  0  0  0  0  0  0  0
   26.7602  -21.8845   -8.1939 O   0  0  0  0  0  0  0  0  0  0  0  0
   30.2351  -19.6004   -7.0435 C   0  0  0  0  0  0  0  0  0  0  0  0
   29.2294  -19.6245   -5.9121 C   0  0  1  0  0  0  0  0  0  0  0  0
   28.9722  -18.2628   -5.3693 C   0  0  0  0  0  0  0  0  0  0  0  0
   27.9863  -20.3870   -6.2814 C   0  0  2  0  0  0  0  0  0  0  0  0
   27.2176  -19.7998   -7.3200 N   0  0  0  0  0  0  0  0  0  0  0  0
   27.1521  -20.5899   -5.0527 C   0  0  0  0  0  0  0  0  0  0  0  0
   25.9125  -19.9986   -4.9607 O   0  0  0  0  0  0  0  0  0  0  0  0
   27.5982  -21.2942   -4.1317 O   0  0  0  0  0  0  0  0  0  0  0  0
  2  1  1  6
  2  4  1  0
  3  2  1  0
  4  5  1  6
  4  6  1  0
  6  7  2  0
  6 12  1  0
  9  8  1  1
  9 11  1  0
 10  9  1  0
 11 13  1  0
 11 12  1  6
 13 14  2  0
 13 19  1  0
 16 15  1  6
 17 16  1  0
 18 16  1  0
 18 20  1  0
 18 19  1  6
 20 21  1  0
 22 20  2  0
M  END
$$$$
