TVV.pdb
     RDKit          3D

 22 21  0  0  1  0  0  0  0  0999 V2000
   22.5801   -2.8674  -14.1040 C   0  0  0  0  0  0  0  0  0  0  0  0
   22.2489   -4.0452  -14.9972 C   0  0  1  0  0  0  0  0  0  0  0  0
   23.4657   -4.7344  -15.1924 O   0  0  0  0  0  0  0  0  0  0  0  0
   21.3417   -5.0050  -14.2591 C   0  0  2  0  0  0  0  0  0  0  0  0
   22.0132   -5.5618  -13.1127 N   0  0  0  0  0  0  0  0  0  0  0  0
   20.8593   -6.0973  -15.1177 C   0  0  0  0  0  0  0  0  0  0  0  0
   20.2780   -5.8963  -16.2228 O   0  0  0  0  0  0  0  0  0  0  0  0
   22.1054  -10.1043  -14.0908 C   0  0  0  0  0  0  0  0  0  0  0  0
   21.8014   -9.5897  -15.4503 C   0  0  2  0  0  0  0  0  0  0  0  0
   23.0544   -9.0007  -16.0615 C   0  0  0  0  0  0  0  0  0  0  0  0
   20.6862   -8.5755  -15.4921 C   0  0  2  0  0  0  0  0  0  0  0  0
   21.0496   -7.4397  -14.6967 N   0  0  0  0  0  0  0  0  0  0  0  0
   19.3882   -9.1340  -15.0764 C   0  0  0  0  0  0  0  0  0  0  0  0
   19.1469   -9.2400  -13.8419 O   0  0  0  0  0  0  0  0  0  0  0  0
   16.0583   -9.9770  -17.7611 C   0  0  0  0  0  0  0  0  0  0  0  0
   15.9503   -9.5786  -16.3045 C   0  0  1  0  0  0  0  0  0  0  0  0
   14.6413   -9.9736  -15.7168 C   0  0  0  0  0  0  0  0  0  0  0  0
   17.1453  -10.0281  -15.5089 C   0  0  2  0  0  0  0  0  0  0  0  0
   18.3928   -9.5599  -15.9977 N   0  0  0  0  0  0  0  0  0  0  0  0
   17.1385  -11.5242  -15.4165 C   0  0  0  0  0  0  0  0  0  0  0  0
   16.2939  -12.1521  -14.5292 O   0  0  0  0  0  0  0  0  0  0  0  0
   17.9016  -12.1761  -16.1486 O   0  0  0  0  0  0  0  0  0  0  0  0
  2  1  1  1
  2  4  1  0
  3  2  1  0
  4  5  1  1
  4  6  1  0
  6  7  2  0
  6 12  1  0
  9  8  1  1
  9 11  1  0
 10  9  1  0
 11 13  1  0
 11 12  1  1
 13 14  2  0
 13 19  1  0
 16 15  1  6
 17 16  1  0
 18 16  1  0
 18 20  1  0
 18 19  1  6
 20 21  1  0
 22 20  2  0
M  END
$$$$
