TVV.pdb
     RDKit          3D

 22 21  0  0  1  0  0  0  0  0999 V2000
   18.4114  -12.4776  -20.7988 C   0  0  0  0  0  0  0  0  0  0  0  0
   18.7961  -11.6645  -19.5799 C   0  0  1  0  0  0  0  0  0  0  0  0
   17.5864  -11.1535  -19.0607 O   0  0  0  0  0  0  0  0  0  0  0  0
   19.3526  -12.5800  -18.5117 C   0  0  2  0  0  0  0  0  0  0  0  0
   18.4334  -13.6530  -18.2302 N   0  0  0  0  0  0  0  0  0  0  0  0
   19.6631  -11.8663  -17.2639 C   0  0  0  0  0  0  0  0  0  0  0  0
   18.9099  -11.8994  -16.2483 O   0  0  0  0  0  0  0  0  0  0  0  0
   22.6902  -12.0393  -14.9952 C   0  0  0  0  0  0  0  0  0  0  0  0
   22.5951  -10.6800  -15.5857 C   0  0  2  0  0  0  0  0  0  0  0  0
   23.0985   -9.6579  -14.5895 C   0  0  0  0  0  0  0  0  0  0  0  0
   21.2106  -10.3033  -16.0499 C   0  0  2  0  0  0  0  0  0  0  0  0
   20.8582  -11.1040  -17.1854 N   0  0  0  0  0  0  0  0  0  0  0  0
   21.0749   -8.8653  -16.3390 C   0  0  0  0  0  0  0  0  0  0  0  0
   21.7725   -8.3702  -17.2673 O   0  0  0  0  0  0  0  0  0  0  0  0
   17.6363   -6.6289  -15.5354 C   0  0  0  0  0  0  0  0  0  0  0  0
   18.7351   -6.2286  -16.4969 C   0  0  1  0  0  0  0  0  0  0  0  0
   18.6371   -4.7953  -16.8856 C   0  0  0  0  0  0  0  0  0  0  0  0
   20.0938   -6.6426  -16.0015 C   0  0  2  0  0  0  0  0  0  0  0  0
   20.1964   -8.0067  -15.6235 N   0  0  0  0  0  0  0  0  0  0  0  0
   20.4976   -5.7460  -14.8701 C   0  0  0  0  0  0  0  0  0  0  0  0
   21.1003   -4.5372  -15.1354 O   0  0  0  0  0  0  0  0  0  0  0  0
   20.2792   -6.1130  -13.7036 O   0  0  0  0  0  0  0  0  0  0  0  0
  2  1  1  6
  2  4  1  0
  3  2  1  0
  4  5  1  1
  4  6  1  0
  6  7  2  0
  6 12  1  0
  9  8  1  1
  9 11  1  0
 10  9  1  0
 11 13  1  0
 11 12  1  6
 13 14  2  0
 13 19  1  0
 16 15  1  1
 17 16  1  0
 18 16  1  0
 18 20  1  0
 18 19  1  1
 20 21  1  0
 22 20  2  0
M  END
$$$$
