TVV.pdb
     RDKit          3D

 22 21  0  0  1  0  0  0  0  0999 V2000
   28.2254  -17.9677  -14.8889 C   0  0  0  0  0  0  0  0  0  0  0  0
   27.1442  -18.6715  -14.0949 C   0  0  1  0  0  0  0  0  0  0  0  0
   26.2068  -19.1321  -15.0452 O   0  0  0  0  0  0  0  0  0  0  0  0
   27.7165  -19.9105  -13.4419 C   0  0  2  0  0  0  0  0  0  0  0  0
   28.2794  -20.7942  -14.4305 N   0  0  0  0  0  0  0  0  0  0  0  0
   26.7171  -20.6420  -12.6488 C   0  0  0  0  0  0  0  0  0  0  0  0
   26.2400  -21.7576  -13.0060 O   0  0  0  0  0  0  0  0  0  0  0  0
   26.8171  -20.5049   -8.6308 C   0  0  0  0  0  0  0  0  0  0  0  0
   25.4590  -20.2446   -9.1724 C   0  0  2  0  0  0  0  0  0  0  0  0
   24.4243  -20.8995   -8.2830 C   0  0  0  0  0  0  0  0  0  0  0  0
   25.2658  -20.6941  -10.5988 C   0  0  2  0  0  0  0  0  0  0  0  0
   26.2614  -20.0801  -11.4273 N   0  0  0  0  0  0  0  0  0  0  0  0
   23.9065  -20.4326  -11.1026 C   0  0  0  0  0  0  0  0  0  0  0  0
   23.5739  -19.2389  -11.3433 O   0  0  0  0  0  0  0  0  0  0  0  0
   22.4779  -21.1311  -14.2684 C   0  0  0  0  0  0  0  0  0  0  0  0
   21.4603  -21.6614  -13.2808 C   0  0  1  0  0  0  0  0  0  0  0  0
   21.3391  -23.1431  -13.3507 C   0  0  0  0  0  0  0  0  0  0  0  0
   21.6906  -21.1253  -11.8942 C   0  0  2  0  0  0  0  0  0  0  0  0
   22.9500  -21.4590  -11.3315 N   0  0  0  0  0  0  0  0  0  0  0  0
   20.5736  -21.5764  -11.0021 C   0  0  0  0  0  0  0  0  0  0  0  0
   19.2888  -21.1441  -11.2408 O   0  0  0  0  0  0  0  0  0  0  0  0
   20.8298  -22.3389  -10.0553 O   0  0  0  0  0  0  0  0  0  0  0  0
  2  1  1  6
  2  4  1  0
  3  2  1  0
  4  5  1  6
  4  6  1  0
  6  7  2  0
  6 12  1  0
  9  8  1  1
  9 11  1  0
 10  9  1  0
 11 13  1  0
 11 12  1  6
 13 14  2  0
 13 19  1  0
 16 15  1  6
 17 16  1  0
 18 16  1  0
 18 20  1  0
 18 19  1  1
 20 21  1  0
 22 20  2  0
M  END
$$$$
