TVV.pdb
     RDKit          3D

 22 21  0  0  1  0  0  0  0  0999 V2000
   18.4726  -12.5298  -18.1111 C   0  0  0  0  0  0  0  0  0  0  0  0
   19.5477  -13.4965  -18.5634 C   0  0  1  0  0  0  0  0  0  0  0  0
   18.8867  -14.4690  -19.3452 O   0  0  0  0  0  0  0  0  0  0  0  0
   20.5051  -12.7919  -19.4993 C   0  0  2  0  0  0  0  0  0  0  0  0
   21.4512  -13.7240  -20.0574 N   0  0  0  0  0  0  0  0  0  0  0  0
   21.2328  -11.6965  -18.8409 C   0  0  0  0  0  0  0  0  0  0  0  0
   22.2122  -11.8918  -18.0649 O   0  0  0  0  0  0  0  0  0  0  0  0
   22.4804   -8.3991  -20.6757 C   0  0  0  0  0  0  0  0  0  0  0  0
   21.5548   -8.1204  -19.5483 C   0  0  2  0  0  0  0  0  0  0  0  0
   21.9412   -6.8158  -18.8856 C   0  0  0  0  0  0  0  0  0  0  0  0
   21.4888   -9.2184  -18.5168 C   0  0  2  0  0  0  0  0  0  0  0  0
   20.8259  -10.3576  -19.0803 N   0  0  0  0  0  0  0  0  0  0  0  0
   20.8503   -8.7872  -17.2614 C   0  0  0  0  0  0  0  0  0  0  0  0
   19.6241   -8.4882  -17.2823 O   0  0  0  0  0  0  0  0  0  0  0  0
   20.3950   -8.7960  -12.4198 C   0  0  0  0  0  0  0  0  0  0  0  0
   21.2131   -9.1755  -13.6359 C   0  0  1  0  0  0  0  0  0  0  0  0
   21.2204  -10.6463  -13.8628 C   0  0  0  0  0  0  0  0  0  0  0  0
   20.8312   -8.3659  -14.8449 C   0  0  2  0  0  0  0  0  0  0  0  0
   21.5475   -8.6911  -16.0262 N   0  0  0  0  0  0  0  0  0  0  0  0
   20.9703   -6.9084  -14.5234 C   0  0  0  0  0  0  0  0  0  0  0  0
   19.9362   -6.2411  -13.9067 O   0  0  0  0  0  0  0  0  0  0  0  0
   22.0252   -6.3241  -14.8217 O   0  0  0  0  0  0  0  0  0  0  0  0
  2  1  1  6
  2  4  1  0
  3  2  1  0
  4  5  1  1
  4  6  1  0
  6  7  2  0
  6 12  1  0
  9  8  1  6
  9 11  1  0
 10  9  1  0
 11 13  1  0
 11 12  1  6
 13 14  2  0
 13 19  1  0
 16 15  1  1
 17 16  1  0
 18 16  1  0
 18 20  1  0
 18 19  1  6
 20 21  1  0
 22 20  2  0
M  END
$$$$
