RDM.pdb
     RDKit          3D

 28 27  0  0  1  0  0  0  0  0999 V2000
   30.5996  -22.3584  -19.0181 N   0  0  0  0  0  0  0  0  0  0  0  0
   30.2733  -23.4445  -18.1617 C   0  0  0  0  0  0  0  0  0  0  0  0
   30.9905  -24.5099  -18.2850 N   0  0  0  0  0  0  0  0  0  0  0  0
   29.2181  -23.3803  -17.2153 N   0  0  0  0  0  0  0  0  0  0  0  0
   28.3754  -22.1676  -17.1781 C   0  0  0  0  0  0  0  0  0  0  0  0
   29.1268  -21.1127  -16.4146 C   0  0  0  0  0  0  0  0  0  0  0  0
   28.3140  -20.3993  -15.3920 C   0  0  0  0  0  0  0  0  0  0  0  0
   26.8952  -20.1075  -15.7876 C   0  0  2  0  0  0  0  0  0  0  0  0
   26.7907  -19.1129  -16.8239 N   0  0  0  0  0  0  0  0  0  0  0  0
   26.0826  -19.6540  -14.6305 C   0  0  0  0  0  0  0  0  0  0  0  0
   26.0513  -18.4603  -14.3247 O   0  0  0  0  0  0  0  0  0  0  0  0
   30.8423  -25.3996  -17.7737 N   0  0  0  0  0  0  0  0  0  0  0  0
   25.3145  -20.5492  -13.8317 C   0  0  1  0  0  0  0  0  0  0  0  0
   24.4762  -20.1341  -12.7628 C   0  0  0  0  0  0  0  0  0  0  0  0
   23.0125  -20.1518  -13.0246 C   0  0  0  0  0  0  0  0  0  0  0  0
   22.2730  -19.7520  -11.8278 O   0  0  0  0  0  0  0  0  0  0  0  0
   22.6610  -18.7646  -11.1173 C   0  0  0  0  0  0  0  0  0  0  0  0
   24.8081  -20.9513  -11.5686 O   0  0  0  0  0  0  0  0  0  0  0  0
   24.7438  -22.2094  -11.5826 O   0  0  0  0  0  0  0  0  0  0  0  0
   21.1269  -20.3893  -11.3770 C   0  0  0  0  0  0  0  0  0  0  0  0
   28.4817  -18.5799   -7.1822 S   0  0  0  0  0  0  0  0  0  0  0  0
   29.0810  -20.2853   -7.4939 C   0  0  0  0  0  0  0  0  0  0  0  0
   27.8191  -21.1480   -8.4479 C   0  0  0  0  0  0  0  0  0  0  0  0
   26.4895  -20.4877   -8.3146 C   0  0  2  0  0  0  0  0  0  0  0  0
   25.3935  -21.1216   -9.1074 N   0  0  0  0  0  0  0  0  0  0  0  0
   25.2177  -20.3595  -10.3414 C   0  0  0  0  0  0  0  0  0  0  0  0
   24.0897  -21.1622   -8.4167 O   0  0  0  0  0  0  0  0  0  0  0  0
   23.2098  -20.2935   -8.6029 O   0  0  0  0  0  0  0  0  0  0  0  0
  2  1  1  0
  3  2  2  0
  4  5  1  0
  4  2  1  0
  6  5  1  0
  7  6  1  0
  8  9  1  6
  8  7  1  0
 10  8  1  0
 11 10  2  0
 12 10  1  0
 13 12  1  0
 13 14  1  6
 15 14  1  0
 16 15  2  0
 17 13  1  0
 17 25  1  0
 18 17  2  0
 19 15  1  0
 21 20  1  0
 22 21  1  0
 24 23  1  6
 23 22  1  0
 24 25  1  0
 24 26  1  0
 26 28  1  0
 27 26  2  0
M  END
$$$$
