RDM.pdb
     RDKit          3D

 28 27  0  0  1  0  0  0  0  0999 V2000
   21.6081  -16.2676  -17.9561 N   0  0  0  0  0  0  0  0  0  0  0  0
   20.6263  -17.1883  -18.4119 C   0  0  0  0  0  0  0  0  0  0  0  0
   20.4083  -17.2142  -19.6833 N   0  0  0  0  0  0  0  0  0  0  0  0
   19.9124  -18.0416  -17.5313 N   0  0  0  0  0  0  0  0  0  0  0  0
   20.6284  -18.6256  -16.3787 C   0  0  0  0  0  0  0  0  0  0  0  0
   21.4038  -19.8134  -16.8771 C   0  0  0  0  0  0  0  0  0  0  0  0
   22.0861  -20.5931  -15.8084 C   0  0  0  0  0  0  0  0  0  0  0  0
   22.8685  -19.7790  -14.8186 C   0  0  2  0  0  0  0  0  0  0  0  0
   23.4047  -18.5669  -15.3822 N   0  0  0  0  0  0  0  0  0  0  0  0
   23.9938  -20.5528  -14.2356 C   0  0  0  0  0  0  0  0  0  0  0  0
   23.8800  -21.7656  -14.0467 O   0  0  0  0  0  0  0  0  0  0  0  0
   19.7343  -17.8358  -20.1674 N   0  0  0  0  0  0  0  0  0  0  0  0
   25.2337  -19.9526  -13.8726 C   0  0  1  0  0  0  0  0  0  0  0  0
   26.2833  -20.6447  -13.2117 C   0  0  0  0  0  0  0  0  0  0  0  0
   27.6675  -20.3179  -13.6457 C   0  0  0  0  0  0  0  0  0  0  0  0
   27.7989  -20.4670  -15.0946 O   0  0  0  0  0  0  0  0  0  0  0  0
   27.7078  -21.6150  -15.6461 C   0  0  0  0  0  0  0  0  0  0  0  0
   26.1266  -20.4385  -11.7498 O   0  0  0  0  0  0  0  0  0  0  0  0
   26.0003  -19.2897  -11.2481 O   0  0  0  0  0  0  0  0  0  0  0  0
   28.0266  -19.4110  -15.9640 C   0  0  0  0  0  0  0  0  0  0  0  0
   29.7427  -20.0840   -6.9027 S   0  0  0  0  0  0  0  0  0  0  0  0
   28.2444  -19.0261   -6.9213 C   0  0  0  0  0  0  0  0  0  0  0  0
   26.8575  -20.0425   -7.4599 C   0  0  0  0  0  0  0  0  0  0  0  0
   26.9840  -20.4189   -8.8966 C   0  0  1  0  0  0  0  0  0  0  0  0
   25.9310  -21.3546   -9.3936 N   0  0  0  0  0  0  0  0  0  0  0  0
   26.1101  -21.5266  -10.8333 C   0  0  0  0  0  0  0  0  0  0  0  0
   24.5488  -20.8890   -9.1668 O   0  0  0  0  0  0  0  0  0  0  0  0
   23.9059  -20.2619  -10.0368 O   0  0  0  0  0  0  0  0  0  0  0  0
  2  1  1  0
  3  2  2  0
  4  5  1  0
  4  2  1  0
  6  5  1  0
  7  6  1  0
  8  9  1  6
  8  7  1  0
 10  8  1  0
 11 10  2  0
 12 10  1  0
 13 12  1  0
 13 14  1  1
 15 14  1  0
 16 15  2  0
 17 13  1  0
 17 25  1  0
 18 17  2  0
 19 15  1  0
 21 20  1  0
 22 21  1  0
 24 23  1  1
 23 22  1  0
 24 25  1  0
 24 26  1  0
 26 28  1  0
 27 26  2  0
M  END
$$$$
