RDM.pdb
     RDKit          3D

 28 27  0  0  1  0  0  0  0  0999 V2000
   23.2500  -22.5092   -7.6725 N   0  0  0  0  0  0  0  0  0  0  0  0
   24.0873  -21.5639   -7.0206 C   0  0  0  0  0  0  0  0  0  0  0  0
   23.8865  -21.3922   -5.7578 N   0  0  0  0  0  0  0  0  0  0  0  0
   25.0956  -20.8372   -7.7050 N   0  0  0  0  0  0  0  0  0  0  0  0
   24.8778  -20.4930   -9.1250 C   0  0  0  0  0  0  0  0  0  0  0  0
   26.1113  -20.8926   -9.8860 C   0  0  0  0  0  0  0  0  0  0  0  0
   26.0414  -20.6301  -11.3495 C   0  0  0  0  0  0  0  0  0  0  0  0
   24.7060  -20.8880  -11.9858 C   0  0  2  0  0  0  0  0  0  0  0  0
   24.2987  -22.2671  -11.9051 N   0  0  0  0  0  0  0  0  0  0  0  0
   24.6897  -20.4859  -13.4151 C   0  0  0  0  0  0  0  0  0  0  0  0
   25.5835  -19.7674  -13.8673 O   0  0  0  0  0  0  0  0  0  0  0  0
   24.3789  -20.7059   -5.1564 N   0  0  0  0  0  0  0  0  0  0  0  0
   23.6682  -20.8977  -14.3186 C   0  0  2  0  0  0  0  0  0  0  0  0
   23.4269  -20.2788  -15.5741 C   0  0  0  0  0  0  0  0  0  0  0  0
   22.4228  -20.9348  -16.4531 C   0  0  0  0  0  0  0  0  0  0  0  0
   22.3848  -22.3751  -16.2018 O   0  0  0  0  0  0  0  0  0  0  0  0
   23.3482  -23.1294  -16.5666 C   0  0  0  0  0  0  0  0  0  0  0  0
   23.0666  -18.8594  -15.3300 O   0  0  0  0  0  0  0  0  0  0  0  0
   23.0468  -18.3662  -14.1709 O   0  0  0  0  0  0  0  0  0  0  0  0
   21.3353  -23.0230  -15.5682 C   0  0  0  0  0  0  0  0  0  0  0  0
   27.7041  -13.5680  -16.2144 S   0  0  0  0  0  0  0  0  0  0  0  0
   27.0650  -15.2871  -16.2456 C   0  0  0  0  0  0  0  0  0  0  0  0
   25.2700  -15.2064  -16.3806 C   0  0  0  0  0  0  0  0  0  0  0  0
   24.6578  -16.5639  -16.3173 C   0  0  1  0  0  0  0  0  0  0  0  0
   23.1700  -16.5863  -16.4490 N   0  0  0  0  0  0  0  0  0  0  0  0
   22.7235  -17.9763  -16.3914 C   0  0  0  0  0  0  0  0  0  0  0  0
   22.6629  -16.0051  -17.7074 O   0  0  0  0  0  0  0  0  0  0  0  0
   21.6948  -15.2141  -17.7334 O   0  0  0  0  0  0  0  0  0  0  0  0
  2  1  1  0
  3  2  2  0
  4  5  1  0
  4  2  1  0
  6  5  1  0
  7  6  1  0
  8  9  1  6
  8  7  1  0
 10  8  1  0
 11 10  2  0
 12 10  1  0
 13 12  1  0
 13 14  1  6
 15 14  1  0
 16 15  2  0
 17 13  1  0
 17 25  1  0
 18 17  2  0
 19 15  1  0
 21 20  1  0
 22 21  1  0
 24 23  1  1
 23 22  1  0
 24 25  1  0
 24 26  1  0
 26 28  1  0
 27 26  2  0
M  END
$$$$
