RDM.pdb
     RDKit          3D

 28 27  0  0  1  0  0  0  0  0999 V2000
   28.1335  -27.2623  -16.6776 N   0  0  0  0  0  0  0  0  0  0  0  0
   28.9414  -26.1364  -16.3628 C   0  0  0  0  0  0  0  0  0  0  0  0
   30.2170  -26.3295  -16.3495 N   0  0  0  0  0  0  0  0  0  0  0  0
   28.3932  -24.8598  -16.0749 N   0  0  0  0  0  0  0  0  0  0  0  0
   28.7700  -23.7190  -16.9344 C   0  0  0  0  0  0  0  0  0  0  0  0
   29.0436  -22.5431  -16.0385 C   0  0  0  0  0  0  0  0  0  0  0  0
   27.8365  -21.7474  -15.6846 C   0  0  0  0  0  0  0  0  0  0  0  0
   27.1321  -21.0989  -16.8413 C   0  0  2  0  0  0  0  0  0  0  0  0
   27.7412  -19.8598  -17.2510 N   0  0  0  0  0  0  0  0  0  0  0  0
   25.7036  -20.8313  -16.5368 C   0  0  0  0  0  0  0  0  0  0  0  0
   25.3784  -19.7997  -15.9456 O   0  0  0  0  0  0  0  0  0  0  0  0
   30.9300  -25.6315  -16.0675 N   0  0  0  0  0  0  0  0  0  0  0  0
   24.6582  -21.7276  -16.9017 C   0  0  2  0  0  0  0  0  0  0  0  0
   23.2872  -21.5063  -16.6032 C   0  0  0  0  0  0  0  0  0  0  0  0
   22.3007  -22.2225  -17.4546 C   0  0  0  0  0  0  0  0  0  0  0  0
   22.4674  -23.6698  -17.3254 O   0  0  0  0  0  0  0  0  0  0  0  0
   23.3322  -24.1608  -16.5247 C   0  0  0  0  0  0  0  0  0  0  0  0
   23.0690  -21.8173  -15.1679 O   0  0  0  0  0  0  0  0  0  0  0  0
   23.8362  -22.5845  -14.5277 O   0  0  0  0  0  0  0  0  0  0  0  0
   21.7266  -24.6010  -18.0374 C   0  0  0  0  0  0  0  0  0  0  0  0
   25.8709  -20.9596  -10.9617 S   0  0  0  0  0  0  0  0  0  0  0  0
   24.4474  -20.2010  -10.0885 C   0  0  0  0  0  0  0  0  0  0  0  0
   22.9373  -20.8576  -10.8201 C   0  0  0  0  0  0  0  0  0  0  0  0
   23.0008  -20.8385  -12.3091 C   0  0  1  0  0  0  0  0  0  0  0  0
   21.8188  -21.4430  -12.9939 N   0  0  0  0  0  0  0  0  0  0  0  0
   21.9813  -21.2660  -14.4350 C   0  0  0  0  0  0  0  0  0  0  0  0
   20.5245  -20.8449  -12.6125 O   0  0  0  0  0  0  0  0  0  0  0  0
   19.9732  -19.9565  -13.2983 O   0  0  0  0  0  0  0  0  0  0  0  0
  2  1  1  0
  3  2  2  0
  4  5  1  0
  4  2  1  0
  6  5  1  0
  7  6  1  0
  8  9  1  1
  8  7  1  0
 10  8  1  0
 11 10  2  0
 12 10  1  0
 13 12  1  0
 13 14  1  6
 15 14  1  0
 16 15  2  0
 17 13  1  0
 17 25  1  0
 18 17  2  0
 19 15  1  0
 21 20  1  0
 22 21  1  0
 24 23  1  6
 23 22  1  0
 24 25  1  0
 24 26  1  0
 26 28  1  0
 27 26  2  0
M  END
$$$$
