RDM.pdb
     RDKit          3D

 28 27  0  0  1  0  0  0  0  0999 V2000
   29.6485  -31.5742  -16.8372 N   0  0  0  0  0  0  0  0  0  0  0  0
   28.6613  -31.0117  -15.9837 C   0  0  0  0  0  0  0  0  0  0  0  0
   28.2957  -31.7294  -14.9759 N   0  0  0  0  0  0  0  0  0  0  0  0
   28.0953  -29.7307  -16.2114 N   0  0  0  0  0  0  0  0  0  0  0  0
   28.4533  -29.0103  -17.4505 C   0  0  0  0  0  0  0  0  0  0  0  0
   27.1765  -28.5415  -18.0911 C   0  0  0  0  0  0  0  0  0  0  0  0
   27.2410  -27.1641  -18.6516 C   0  0  0  0  0  0  0  0  0  0  0  0
   26.7700  -26.0736  -17.7332 C   0  0  2  0  0  0  0  0  0  0  0  0
   27.6427  -25.8678  -16.6062 N   0  0  0  0  0  0  0  0  0  0  0  0
   25.4042  -26.3409  -17.2153 C   0  0  0  0  0  0  0  0  0  0  0  0
   25.2521  -26.8898  -16.1221 O   0  0  0  0  0  0  0  0  0  0  0  0
   27.5355  -31.4936  -14.3113 N   0  0  0  0  0  0  0  0  0  0  0  0
   24.2260  -25.9867  -17.9335 C   0  0  2  0  0  0  0  0  0  0  0  0
   22.9110  -26.1375  -17.4184 C   0  0  0  0  0  0  0  0  0  0  0  0
   21.9573  -25.0332  -17.7052 C   0  0  0  0  0  0  0  0  0  0  0  0
   20.6860  -25.2629  -17.0196 O   0  0  0  0  0  0  0  0  0  0  0  0
   19.5773  -25.1652  -17.6452 C   0  0  0  0  0  0  0  0  0  0  0  0
   22.3723  -27.4364  -17.8947 O   0  0  0  0  0  0  0  0  0  0  0  0
   22.4895  -27.8080  -19.0927 O   0  0  0  0  0  0  0  0  0  0  0  0
   20.5792  -25.5945  -15.6774 C   0  0  0  0  0  0  0  0  0  0  0  0
   21.6128  -32.1103  -13.8531 S   0  0  0  0  0  0  0  0  0  0  0  0
   20.5747  -32.9401  -15.1175 C   0  0  0  0  0  0  0  0  0  0  0  0
   20.5393  -31.8880  -16.5798 C   0  0  0  0  0  0  0  0  0  0  0  0
   21.0845  -30.5318  -16.2881 C   0  0  1  0  0  0  0  0  0  0  0  0
   21.1507  -29.6168  -17.4670 N   0  0  0  0  0  0  0  0  0  0  0  0
   21.6935  -28.3346  -17.0247 C   0  0  0  0  0  0  0  0  0  0  0  0
   19.8464  -29.3544  -18.1060 O   0  0  0  0  0  0  0  0  0  0  0  0
   19.1262  -28.3865  -17.7772 O   0  0  0  0  0  0  0  0  0  0  0  0
  2  1  1  0
  3  2  2  0
  4  5  1  0
  4  2  1  0
  6  5  1  0
  7  6  1  0
  8  9  1  1
  8  7  1  0
 10  8  1  0
 11 10  2  0
 12 10  1  0
 13 12  1  0
 13 14  1  6
 15 14  1  0
 16 15  2  0
 17 13  1  0
 17 25  1  0
 18 17  2  0
 19 15  1  0
 21 20  1  0
 22 21  1  0
 24 23  1  6
 23 22  1  0
 24 25  1  0
 24 26  1  0
 26 28  1  0
 27 26  2  0
M  END
$$$$
