RDM.pdb
     RDKit          3D

 28 27  0  0  1  0  0  0  0  0999 V2000
   21.5858  -27.0768  -13.0769 N   0  0  0  0  0  0  0  0  0  0  0  0
   20.8136  -27.5756  -11.9932 C   0  0  0  0  0  0  0  0  0  0  0  0
   20.9857  -28.8173  -11.6878 N   0  0  0  0  0  0  0  0  0  0  0  0
   19.8964  -26.7671  -11.2734 N   0  0  0  0  0  0  0  0  0  0  0  0
   19.7873  -25.3368  -11.6264 C   0  0  0  0  0  0  0  0  0  0  0  0
   18.4326  -25.1204  -12.2414 C   0  0  0  0  0  0  0  0  0  0  0  0
   18.1689  -23.7187  -12.6673 C   0  0  0  0  0  0  0  0  0  0  0  0
   18.5895  -22.6598  -11.6894 C   0  0  2  0  0  0  0  0  0  0  0  0
   17.5215  -22.2364  -10.8209 N   0  0  0  0  0  0  0  0  0  0  0  0
   19.1286  -21.4586  -12.3758 C   0  0  0  0  0  0  0  0  0  0  0  0
   18.4805  -20.4101  -12.3911 O   0  0  0  0  0  0  0  0  0  0  0  0
   20.5346  -29.3121  -10.8962 N   0  0  0  0  0  0  0  0  0  0  0  0
   20.3907  -21.4514  -13.0364 C   0  0  2  0  0  0  0  0  0  0  0  0
   20.8975  -20.3395  -13.7605 C   0  0  0  0  0  0  0  0  0  0  0  0
   22.3708  -20.2931  -13.9561 C   0  0  0  0  0  0  0  0  0  0  0  0
   22.7598  -19.0538  -14.6283 O   0  0  0  0  0  0  0  0  0  0  0  0
   21.9437  -18.0766  -14.7244 C   0  0  0  0  0  0  0  0  0  0  0  0
   20.1903  -20.2736  -15.0643 O   0  0  0  0  0  0  0  0  0  0  0  0
   20.2928  -21.1874  -15.9255 O   0  0  0  0  0  0  0  0  0  0  0  0
   24.0051  -18.8413  -15.2001 C   0  0  0  0  0  0  0  0  0  0  0  0
   13.8287  -22.2313  -17.0964 S   0  0  0  0  0  0  0  0  0  0  0  0
   15.4815  -22.1794  -16.3026 C   0  0  0  0  0  0  0  0  0  0  0  0
   15.8611  -20.4579  -15.9297 C   0  0  0  0  0  0  0  0  0  0  0  0
   17.2459  -20.3084  -15.3990 C   0  0  1  0  0  0  0  0  0  0  0  0
   18.0968  -19.3276  -16.1376 N   0  0  0  0  0  0  0  0  0  0  0  0
   19.3569  -19.1749  -15.4142 C   0  0  0  0  0  0  0  0  0  0  0  0
   17.4957  -17.9869  -16.2778 O   0  0  0  0  0  0  0  0  0  0  0  0
   16.8850  -17.6353  -17.3106 O   0  0  0  0  0  0  0  0  0  0  0  0
  2  1  1  0
  3  2  2  0
  4  5  1  0
  4  2  1  0
  6  5  1  0
  7  6  1  0
  8  9  1  6
  8  7  1  0
 10  8  1  0
 11 10  2  0
 12 10  1  0
 13 12  1  0
 13 14  1  1
 15 14  1  0
 16 15  2  0
 17 13  1  0
 17 25  1  0
 18 17  2  0
 19 15  1  0
 21 20  1  0
 22 21  1  0
 24 23  1  6
 23 22  1  0
 24 25  1  0
 24 26  1  0
 26 28  1  0
 27 26  2  0
M  END
$$$$
