RDM.pdb
     RDKit          3D

 28 27  0  0  1  0  0  0  0  0999 V2000
   31.3437  -20.6593  -10.7478 N   0  0  0  0  0  0  0  0  0  0  0  0
   30.5789  -21.8197  -11.0448 C   0  0  0  0  0  0  0  0  0  0  0  0
   30.8000  -22.8576  -10.3112 N   0  0  0  0  0  0  0  0  0  0  0  0
   29.6189  -21.8547  -12.0890 N   0  0  0  0  0  0  0  0  0  0  0  0
   29.3280  -20.6063  -12.8233 C   0  0  0  0  0  0  0  0  0  0  0  0
   28.1808  -19.9256  -12.1299 C   0  0  0  0  0  0  0  0  0  0  0  0
   27.2267  -19.2441  -13.0469 C   0  0  0  0  0  0  0  0  0  0  0  0
   27.3512  -19.6160  -14.4963 C   0  0  2  0  0  0  0  0  0  0  0  0
   28.1373  -18.6774  -15.2549 N   0  0  0  0  0  0  0  0  0  0  0  0
   26.0235  -19.7389  -15.1498 C   0  0  0  0  0  0  0  0  0  0  0  0
   25.4882  -18.7510  -15.6568 O   0  0  0  0  0  0  0  0  0  0  0  0
   30.3097  -23.7678  -10.3901 N   0  0  0  0  0  0  0  0  0  0  0  0
   25.3144  -20.9720  -15.2253 C   0  0  2  0  0  0  0  0  0  0  0  0
   24.0789  -21.1329  -15.9076 C   0  0  0  0  0  0  0  0  0  0  0  0
   23.7884  -22.4910  -16.4389 C   0  0  0  0  0  0  0  0  0  0  0  0
   22.5869  -22.4689  -17.2726 O   0  0  0  0  0  0  0  0  0  0  0  0
   22.1759  -23.5268  -17.8575 C   0  0  0  0  0  0  0  0  0  0  0  0
   22.9897  -20.6741  -15.0091 O   0  0  0  0  0  0  0  0  0  0  0  0
   22.9631  -20.9745  -13.7859 O   0  0  0  0  0  0  0  0  0  0  0  0
   21.8179  -21.3362  -17.4924 C   0  0  0  0  0  0  0  0  0  0  0  0
   20.8993  -14.8369  -14.3060 S   0  0  0  0  0  0  0  0  0  0  0  0
   19.2542  -15.6320  -14.4676 C   0  0  0  0  0  0  0  0  0  0  0  0
   19.4501  -17.3854  -14.1018 C   0  0  0  0  0  0  0  0  0  0  0  0
   20.6261  -17.9619  -14.8135 C   0  0  1  0  0  0  0  0  0  0  0  0
   20.8126  -19.4320  -14.6254 N   0  0  0  0  0  0  0  0  0  0  0  0
   21.9147  -19.8693  -15.4791 C   0  0  0  0  0  0  0  0  0  0  0  0
   19.6293  -20.2435  -14.9714 O   0  0  0  0  0  0  0  0  0  0  0  0
   18.6491  -20.3536  -14.2028 O   0  0  0  0  0  0  0  0  0  0  0  0
  2  1  1  0
  3  2  2  0
  4  5  1  0
  4  2  1  0
  6  5  1  0
  7  6  1  0
  8  9  1  6
  8  7  1  0
 10  8  1  0
 11 10  2  0
 12 10  1  0
 13 12  1  0
 13 14  1  6
 15 14  1  0
 16 15  2  0
 17 13  1  0
 17 25  1  0
 18 17  2  0
 19 15  1  0
 21 20  1  0
 22 21  1  0
 24 23  1  1
 23 22  1  0
 24 25  1  0
 24 26  1  0
 26 28  1  0
 27 26  2  0
M  END
$$$$
