RDM.pdb
     RDKit          3D

 28 27  0  0  1  0  0  0  0  0999 V2000
   31.2204  -25.6027  -16.1619 N   0  0  0  0  0  0  0  0  0  0  0  0
   30.5226  -24.9347  -17.2042 C   0  0  0  0  0  0  0  0  0  0  0  0
   30.2091  -25.6457  -18.2342 N   0  0  0  0  0  0  0  0  0  0  0  0
   30.1803  -23.5595  -17.1348 N   0  0  0  0  0  0  0  0  0  0  0  0
   30.4947  -22.8149  -15.8983 C   0  0  0  0  0  0  0  0  0  0  0  0
   30.0397  -21.3951  -16.0922 C   0  0  0  0  0  0  0  0  0  0  0  0
   29.0088  -20.9427  -15.1184 C   0  0  0  0  0  0  0  0  0  0  0  0
   27.6079  -20.8682  -15.6534 C   0  0  2  0  0  0  0  0  0  0  0  0
   27.4863  -20.0062  -16.8007 N   0  0  0  0  0  0  0  0  0  0  0  0
   26.6481  -20.3997  -14.6217 C   0  0  0  0  0  0  0  0  0  0  0  0
   26.6445  -19.2186  -14.2691 O   0  0  0  0  0  0  0  0  0  0  0  0
   29.7503  -25.2924  -19.0942 N   0  0  0  0  0  0  0  0  0  0  0  0
   25.7036  -21.2659  -13.9997 C   0  0  2  0  0  0  0  0  0  0  0  0
   24.7615  -20.8394  -13.0260 C   0  0  0  0  0  0  0  0  0  0  0  0
   23.3661  -21.3231  -13.1990 C   0  0  0  0  0  0  0  0  0  0  0  0
   22.7747  -20.7587  -14.4117 O   0  0  0  0  0  0  0  0  0  0  0  0
   22.2362  -21.5128  -15.2901 C   0  0  0  0  0  0  0  0  0  0  0  0
   25.2834  -21.2038  -11.6847 O   0  0  0  0  0  0  0  0  0  0  0  0
   26.2166  -22.0370  -11.5360 O   0  0  0  0  0  0  0  0  0  0  0  0
   22.7494  -19.4031  -14.7021 C   0  0  0  0  0  0  0  0  0  0  0  0
   29.6908  -19.9899   -7.6401 S   0  0  0  0  0  0  0  0  0  0  0  0
   28.1580  -19.2797   -6.9254 C   0  0  0  0  0  0  0  0  0  0  0  0
   26.7940  -20.3823   -7.3381 C   0  0  0  0  0  0  0  0  0  0  0  0
   26.2989  -20.1410   -8.7231 C   0  0  1  0  0  0  0  0  0  0  0  0
   25.1875  -21.0404   -9.1562 N   0  0  0  0  0  0  0  0  0  0  0  0
   24.7590  -20.6324  -10.4919 C   0  0  0  0  0  0  0  0  0  0  0  0
   24.0027  -21.0083   -8.2766 O   0  0  0  0  0  0  0  0  0  0  0  0
   22.9134  -20.5162   -8.6439 O   0  0  0  0  0  0  0  0  0  0  0  0
  2  1  1  0
  3  2  2  0
  4  5  1  0
  4  2  1  0
  6  5  1  0
  7  6  1  0
  8  9  1  6
  8  7  1  0
 10  8  1  0
 11 10  2  0
 12 10  1  0
 13 12  1  0
 13 14  1  6
 15 14  1  0
 16 15  2  0
 17 13  1  0
 17 25  1  0
 18 17  2  0
 19 15  1  0
 21 20  1  0
 22 21  1  0
 24 23  1  6
 23 22  1  0
 24 25  1  0
 24 26  1  0
 26 28  1  0
 27 26  2  0
M  END
$$$$
