RDM.pdb
     RDKit          3D

 28 27  0  0  1  0  0  0  0  0999 V2000
   27.0638  -21.6287  -11.0683 N   0  0  0  0  0  0  0  0  0  0  0  0
   25.6566  -21.5915  -10.8739 C   0  0  0  0  0  0  0  0  0  0  0  0
   25.2446  -21.5889   -9.6513 N   0  0  0  0  0  0  0  0  0  0  0  0
   24.7372  -21.5594  -11.9542 N   0  0  0  0  0  0  0  0  0  0  0  0
   25.2672  -21.5596  -13.3331 C   0  0  0  0  0  0  0  0  0  0  0  0
   25.3739  -20.1286  -13.7815 C   0  0  0  0  0  0  0  0  0  0  0  0
   24.2883  -19.6911  -14.7010 C   0  0  0  0  0  0  0  0  0  0  0  0
   24.1012  -20.5406  -15.9249 C   0  0  2  0  0  0  0  0  0  0  0  0
   24.9318  -20.1324  -17.0284 N   0  0  0  0  0  0  0  0  0  0  0  0
   22.6897  -20.5397  -16.3860 C   0  0  0  0  0  0  0  0  0  0  0  0
   22.2785  -19.6404  -17.1220 O   0  0  0  0  0  0  0  0  0  0  0  0
   24.2542  -21.6371   -9.3482 N   0  0  0  0  0  0  0  0  0  0  0  0
   21.7581  -21.5510  -16.0137 C   0  0  2  0  0  0  0  0  0  0  0  0
   20.4051  -21.5770  -16.4455 C   0  0  0  0  0  0  0  0  0  0  0  0
   19.6895  -22.8725  -16.3020 C   0  0  0  0  0  0  0  0  0  0  0  0
   20.3628  -23.9179  -17.0718 O   0  0  0  0  0  0  0  0  0  0  0  0
   20.6838  -25.0278  -16.5285 C   0  0  0  0  0  0  0  0  0  0  0  0
   19.6740  -20.4905  -15.7460 O   0  0  0  0  0  0  0  0  0  0  0  0
   20.1972  -19.8303  -14.8091 O   0  0  0  0  0  0  0  0  0  0  0  0
   20.6995  -23.7974  -18.4116 C   0  0  0  0  0  0  0  0  0  0  0  0
   20.4945  -17.5242  -12.4250 S   0  0  0  0  0  0  0  0  0  0  0  0
   19.2964  -16.2371  -12.9470 C   0  0  0  0  0  0  0  0  0  0  0  0
   18.0661  -17.0237  -14.0025 C   0  0  0  0  0  0  0  0  0  0  0  0
   18.5617  -18.3217  -14.5422 C   0  0  1  0  0  0  0  0  0  0  0  0
   17.6488  -18.9810  -15.5236 N   0  0  0  0  0  0  0  0  0  0  0  0
   18.3416  -20.1337  -16.0945 C   0  0  0  0  0  0  0  0  0  0  0  0
   17.2291  -18.1126  -16.6409 O   0  0  0  0  0  0  0  0  0  0  0  0
   17.7671  -18.1704  -17.7681 O   0  0  0  0  0  0  0  0  0  0  0  0
  2  1  1  0
  3  2  2  0
  4  5  1  0
  4  2  1  0
  6  5  1  0
  7  6  1  0
  8  9  1  6
  8  7  1  0
 10  8  1  0
 11 10  2  0
 12 10  1  0
 13 12  1  0
 13 14  1  6
 15 14  1  0
 16 15  2  0
 17 13  1  0
 17 25  1  0
 18 17  2  0
 19 15  1  0
 21 20  1  0
 22 21  1  0
 24 23  1  1
 23 22  1  0
 24 25  1  0
 24 26  1  0
 26 28  1  0
 27 26  2  0
M  END
$$$$
