RDM.pdb
     RDKit          3D

 28 27  0  0  1  0  0  0  0  0999 V2000
   31.5859  -23.2626  -11.8940 N   0  0  0  0  0  0  0  0  0  0  0  0
   31.5075  -22.4032  -10.7650 C   0  0  0  0  0  0  0  0  0  0  0  0
   32.5630  -22.3250  -10.0272 N   0  0  0  0  0  0  0  0  0  0  0  0
   30.3393  -21.6627  -10.4487 N   0  0  0  0  0  0  0  0  0  0  0  0
   29.1866  -21.7343  -11.3698 C   0  0  0  0  0  0  0  0  0  0  0  0
   29.1203  -20.4332  -12.1202 C   0  0  0  0  0  0  0  0  0  0  0  0
   28.0399  -20.3686  -13.1421 C   0  0  0  0  0  0  0  0  0  0  0  0
   27.4023  -21.6834  -13.4876 C   0  0  2  0  0  0  0  0  0  0  0  0
   27.9650  -22.2919  -14.6655 N   0  0  0  0  0  0  0  0  0  0  0  0
   25.9380  -21.5485  -13.6937 C   0  0  0  0  0  0  0  0  0  0  0  0
   25.4386  -21.8170  -14.7882 O   0  0  0  0  0  0  0  0  0  0  0  0
   32.6553  -21.7581   -9.1640 N   0  0  0  0  0  0  0  0  0  0  0  0
   25.0532  -21.1138  -12.6654 C   0  0  1  0  0  0  0  0  0  0  0  0
   23.6462  -21.0045  -12.8272 C   0  0  0  0  0  0  0  0  0  0  0  0
   22.8158  -21.3378  -11.6396 C   0  0  0  0  0  0  0  0  0  0  0  0
   21.3948  -21.3139  -11.9849 O   0  0  0  0  0  0  0  0  0  0  0  0
   20.5952  -20.4991  -11.4129 C   0  0  0  0  0  0  0  0  0  0  0  0
   23.3405  -19.6368  -13.3173 O   0  0  0  0  0  0  0  0  0  0  0  0
   24.0059  -18.6323  -12.9494 O   0  0  0  0  0  0  0  0  0  0  0  0
   20.8137  -22.1456  -12.9300 C   0  0  0  0  0  0  0  0  0  0  0  0
   26.2770  -16.4738  -16.0037 S   0  0  0  0  0  0  0  0  0  0  0  0
   25.0320  -16.4173  -17.3495 C   0  0  0  0  0  0  0  0  0  0  0  0
   23.4120  -16.7065  -16.6155 C   0  0  0  0  0  0  0  0  0  0  0  0
   23.4295  -17.8872  -15.7059 C   0  0  1  0  0  0  0  0  0  0  0  0
   22.1493  -18.1350  -14.9771 N   0  0  0  0  0  0  0  0  0  0  0  0
   22.2789  -19.3839  -14.2301 C   0  0  0  0  0  0  0  0  0  0  0  0
   20.9666  -18.2571  -15.8516 O   0  0  0  0  0  0  0  0  0  0  0  0
   20.5119  -19.3666  -16.2062 O   0  0  0  0  0  0  0  0  0  0  0  0
  2  1  1  0
  3  2  2  0
  4  5  1  0
  4  2  1  0
  6  5  1  0
  7  6  1  0
  8  9  1  6
  8  7  1  0
 10  8  1  0
 11 10  2  0
 12 10  1  0
 13 12  1  0
 13 14  1  1
 15 14  1  0
 16 15  2  0
 17 13  1  0
 17 25  1  0
 18 17  2  0
 19 15  1  0
 21 20  1  0
 22 21  1  0
 24 23  1  1
 23 22  1  0
 24 25  1  0
 24 26  1  0
 26 28  1  0
 27 26  2  0
M  END
$$$$
