KMP.pdb
     RDKit          3D

 25 25  0  0  1  0  0  0  0  0999 V2000
    8.3559  -17.0406   21.0598 N   0  0  0  0  0  0  0  0  0  0  0  0
    9.5682  -16.2701   21.0843 C   0  0  1  0  0  0  0  0  0  0  0  0
    9.6085  -15.4324   19.8227 C   0  0  0  0  0  0  0  0  0  0  0  0
    8.2225  -15.4143   19.2539 C   0  0  0  0  0  0  0  0  0  0  0  0
    7.9011  -14.1405   18.5154 C   0  0  0  0  0  0  0  0  0  0  0  0
    8.1376  -14.4384   17.0280 C   0  0  0  0  0  0  0  0  0  0  0  0
    7.8924  -13.2485   16.2316 N   0  0  0  0  0  0  0  0  0  0  0  0
    9.7088  -15.4607   22.3101 C   0  0  0  0  0  0  0  0  0  0  0  0
   10.6836  -14.6762   22.3720 O   0  0  0  0  0  0  0  0  0  0  0  0
    5.7494  -11.6930   27.7395 C   0  0  0  0  0  0  0  0  0  0  0  0
    5.7031  -13.0280   26.5304 S   0  0  0  0  0  0  0  0  0  0  0  0
    7.4305  -13.6464   26.3291 C   0  0  0  0  0  0  0  0  0  0  0  0
    7.5488  -14.3670   25.0358 C   0  0  0  0  0  0  0  0  0  0  0  0
    8.9015  -14.8691   24.6500 C   0  0  2  0  0  0  0  0  0  0  0  0
    8.7692  -15.5868   23.3514 N   0  0  0  0  0  0  0  0  0  0  0  0
    9.5613  -15.7921   25.5719 C   0  0  0  0  0  0  0  0  0  0  0  0
    9.8905  -16.9700   25.1729 O   0  0  0  0  0  0  0  0  0  0  0  0
    9.9020  -15.5199   26.9182 N   0  0  0  0  0  0  0  0  0  0  0  0
    9.4611  -14.4410   27.7476 C   0  0  0  0  0  0  0  0  0  0  0  0
   10.7444  -14.0067   28.4679 C   0  0  0  0  0  0  0  0  0  0  0  0
   11.6544  -15.2039   28.4104 C   0  0  0  0  0  0  0  0  0  0  0  0
   10.8080  -16.2943   27.7810 C   0  0  1  0  0  0  0  0  0  0  0  0
   10.0686  -17.0701   28.7945 C   0  0  0  0  0  0  0  0  0  0  0  0
    8.8299  -16.9689   28.8441 O   0  0  0  0  0  0  0  0  0  0  0  0
   10.7104  -17.9053   29.6899 O   0  0  0  0  0  0  0  0  0  0  0  0
  2  1  1  1
  2  8  1  0
  2  3  1  0
  4  3  1  0
  4  5  1  0
  6  5  1  0
  6  7  1  0
  8  9  2  0
 10 11  1  0
 11 12  1  0
 13 12  1  0
 14 13  1  1
 15 14  1  0
 15  8  1  0
 16 14  1  0
 16 17  2  0
 18 16  1  0
 19 18  1  0
 20 19  1  0
 21 20  1  0
 21 22  1  0
 22 18  1  0
 22 23  1  1
 23 25  1  0
 24 23  2  0
M  END
$$$$
