KMP.pdb
     RDKit          3D

 25 25  0  0  1  0  0  0  0  0999 V2000
   10.7069  -16.5324   20.3123 N   0  0  0  0  0  0  0  0  0  0  0  0
    9.6356  -16.7686   21.2399 C   0  0  1  0  0  0  0  0  0  0  0  0
    9.5979  -18.2543   21.5334 C   0  0  0  0  0  0  0  0  0  0  0  0
   10.9145  -18.8276   21.1061 C   0  0  0  0  0  0  0  0  0  0  0  0
   11.0180  -20.3130   21.3388 C   0  0  0  0  0  0  0  0  0  0  0  0
   10.1251  -20.9741   20.2791 C   0  0  0  0  0  0  0  0  0  0  0  0
   10.1999  -22.4206   20.3899 N   0  0  0  0  0  0  0  0  0  0  0  0
    9.7441  -15.9492   22.4623 C   0  0  0  0  0  0  0  0  0  0  0  0
   10.8838  -15.5348   22.7770 O   0  0  0  0  0  0  0  0  0  0  0  0
    6.3939  -11.1620   27.3982 C   0  0  0  0  0  0  0  0  0  0  0  0
    6.5216  -11.9651   25.7903 S   0  0  0  0  0  0  0  0  0  0  0  0
    7.0494  -13.7086   26.0882 C   0  0  0  0  0  0  0  0  0  0  0  0
    7.2722  -14.3857   24.7852 C   0  0  0  0  0  0  0  0  0  0  0  0
    8.6448  -14.9044   24.5060 C   0  0  2  0  0  0  0  0  0  0  0  0
    8.5952  -15.6611   23.2239 N   0  0  0  0  0  0  0  0  0  0  0  0
    9.2365  -15.8010   25.4974 C   0  0  0  0  0  0  0  0  0  0  0  0
    9.4217  -17.0411   25.2100 O   0  0  0  0  0  0  0  0  0  0  0  0
    9.6559  -15.4389   26.7997 N   0  0  0  0  0  0  0  0  0  0  0  0
    9.2866  -14.2893   27.5667 C   0  0  0  0  0  0  0  0  0  0  0  0
   10.6171  -13.8388   28.1841 C   0  0  0  0  0  0  0  0  0  0  0  0
   11.4934  -15.0622   28.1705 C   0  0  0  0  0  0  0  0  0  0  0  0
   10.5881  -16.1722   27.6705 C   0  0  1  0  0  0  0  0  0  0  0  0
    9.8859  -16.8491   28.7770 C   0  0  0  0  0  0  0  0  0  0  0  0
    8.6549  -16.7073   28.8849 O   0  0  0  0  0  0  0  0  0  0  0  0
   10.5543  -17.6355   29.6968 O   0  0  0  0  0  0  0  0  0  0  0  0
  2  1  1  6
  2  8  1  0
  2  3  1  0
  4  3  1  0
  4  5  1  0
  6  5  1  0
  6  7  1  0
  8  9  2  0
 10 11  1  0
 11 12  1  0
 13 12  1  0
 14 13  1  1
 15 14  1  0
 15  8  1  0
 16 14  1  0
 16 17  2  0
 18 16  1  0
 19 18  1  0
 20 19  1  0
 21 20  1  0
 21 22  1  0
 22 18  1  0
 22 23  1  1
 23 25  1  0
 24 23  2  0
M  END
$$$$
