KMP.pdb
     RDKit          3D

 25 25  0  0  1  0  0  0  0  0999 V2000
    6.3348  -20.1229   24.6598 N   0  0  0  0  0  0  0  0  0  0  0  0
    5.7408  -19.7159   23.4166 C   0  0  1  0  0  0  0  0  0  0  0  0
    4.3141  -20.2248   23.3980 C   0  0  0  0  0  0  0  0  0  0  0  0
    4.3292  -21.5733   22.7452 C   0  0  0  0  0  0  0  0  0  0  0  0
    4.8031  -22.6709   23.6626 C   0  0  0  0  0  0  0  0  0  0  0  0
    4.8092  -23.9561   22.8228 C   0  0  0  0  0  0  0  0  0  0  0  0
    5.5473  -25.0021   23.5093 N   0  0  0  0  0  0  0  0  0  0  0  0
    5.8295  -18.2609   23.1878 C   0  0  0  0  0  0  0  0  0  0  0  0
    5.4569  -17.8309   22.0716 O   0  0  0  0  0  0  0  0  0  0  0  0
    7.2839  -11.4660   27.0123 C   0  0  0  0  0  0  0  0  0  0  0  0
    6.8492  -13.2141   27.0528 S   0  0  0  0  0  0  0  0  0  0  0  0
    7.0435  -13.8678   25.3376 C   0  0  0  0  0  0  0  0  0  0  0  0
    6.6013  -15.2850   25.2970 C   0  0  0  0  0  0  0  0  0  0  0  0
    6.6304  -15.9765   23.9734 C   0  0  2  0  0  0  0  0  0  0  0  0
    6.3173  -17.4147   24.2023 N   0  0  0  0  0  0  0  0  0  0  0  0
    7.8851  -15.9364   23.2243 C   0  0  0  0  0  0  0  0  0  0  0  0
    8.6882  -16.9404   23.2653 O   0  0  0  0  0  0  0  0  0  0  0  0
    8.3347  -14.8673   22.4131 N   0  0  0  0  0  0  0  0  0  0  0  0
    7.8847  -13.5095   22.3996 C   0  0  0  0  0  0  0  0  0  0  0  0
    7.8013  -13.1838   20.9025 C   0  0  0  0  0  0  0  0  0  0  0  0
    8.7224  -14.1670   20.2321 C   0  0  0  0  0  0  0  0  0  0  0  0
    9.3790  -14.9140   21.3778 C   0  0  1  0  0  0  0  0  0  0  0  0
   10.6213  -14.2552   21.8233 C   0  0  0  0  0  0  0  0  0  0  0  0
   10.6419  -13.6989   22.9356 O   0  0  0  0  0  0  0  0  0  0  0  0
   11.7619  -14.2372   21.0424 O   0  0  0  0  0  0  0  0  0  0  0  0
  2  1  1  1
  2  8  1  0
  2  3  1  0
  4  3  1  0
  4  5  1  0
  6  5  1  0
  6  7  1  0
  8  9  2  0
 10 11  1  0
 11 12  1  0
 13 12  1  0
 14 13  1  1
 15 14  1  0
 15  8  1  0
 16 14  1  0
 16 17  2  0
 18 16  1  0
 19 18  1  0
 20 19  1  0
 21 20  1  0
 21 22  1  0
 22 18  1  0
 22 23  1  1
 23 25  1  0
 24 23  2  0
M  END
$$$$
