KMP.pdb
     RDKit          3D

 25 25  0  0  1  0  0  0  0  0999 V2000
    9.9749  -16.1532   20.1119 N   0  0  0  0  0  0  0  0  0  0  0  0
    9.3541  -16.7041   21.2845 C   0  0  1  0  0  0  0  0  0  0  0  0
    9.8789  -18.1135   21.4661 C   0  0  0  0  0  0  0  0  0  0  0  0
    9.5951  -18.8625   20.1999 C   0  0  0  0  0  0  0  0  0  0  0  0
   10.7286  -18.8024   19.2086 C   0  0  0  0  0  0  0  0  0  0  0  0
   10.3958  -19.8295   18.1171 C   0  0  0  0  0  0  0  0  0  0  0  0
   11.4809  -19.9099   17.1545 N   0  0  0  0  0  0  0  0  0  0  0  0
    9.5472  -15.8657   22.4834 C   0  0  0  0  0  0  0  0  0  0  0  0
   10.6750  -15.3444   22.6445 O   0  0  0  0  0  0  0  0  0  0  0  0
    5.8530  -11.1233   26.5848 C   0  0  0  0  0  0  0  0  0  0  0  0
    5.5301  -12.8931   26.4845 S   0  0  0  0  0  0  0  0  0  0  0  0
    7.1642  -13.7433   26.3667 C   0  0  0  0  0  0  0  0  0  0  0  0
    7.3305  -14.3053   25.0020 C   0  0  0  0  0  0  0  0  0  0  0  0
    8.6447  -14.9341   24.6731 C   0  0  2  0  0  0  0  0  0  0  0  0
    8.4877  -15.6773   23.3917 N   0  0  0  0  0  0  0  0  0  0  0  0
    9.1948  -15.8817   25.6408 C   0  0  0  0  0  0  0  0  0  0  0  0
    9.2615  -17.1321   25.3461 O   0  0  0  0  0  0  0  0  0  0  0  0
    9.6933  -15.5617   26.9260 N   0  0  0  0  0  0  0  0  0  0  0  0
    9.4067  -14.4153   27.7322 C   0  0  0  0  0  0  0  0  0  0  0  0
   10.7828  -14.0259   28.2881 C   0  0  0  0  0  0  0  0  0  0  0  0
   11.6113  -15.2796   28.2064 C   0  0  0  0  0  0  0  0  0  0  0  0
   10.6410  -16.3457   27.7336 C   0  0  1  0  0  0  0  0  0  0  0  0
    9.9716  -17.0192   28.8623 C   0  0  0  0  0  0  0  0  0  0  0  0
    8.7618  -16.8070   29.0580 O   0  0  0  0  0  0  0  0  0  0  0  0
   10.6480  -17.8782   29.7084 O   0  0  0  0  0  0  0  0  0  0  0  0
  2  1  1  6
  2  8  1  0
  2  3  1  0
  4  3  1  0
  4  5  1  0
  6  5  1  0
  6  7  1  0
  8  9  2  0
 10 11  1  0
 11 12  1  0
 13 12  1  0
 14 13  1  1
 15 14  1  0
 15  8  1  0
 16 14  1  0
 16 17  2  0
 18 16  1  0
 19 18  1  0
 20 19  1  0
 21 20  1  0
 21 22  1  0
 22 18  1  0
 22 23  1  1
 23 25  1  0
 24 23  2  0
M  END
$$$$
