KMP.pdb
     RDKit          3D

 25 25  0  0  1  0  0  0  0  0999 V2000
    9.7689  -15.5711   20.3927 N   0  0  0  0  0  0  0  0  0  0  0  0
    9.6312  -16.4024   21.5563 C   0  0  1  0  0  0  0  0  0  0  0  0
   10.6799  -17.4923   21.4720 C   0  0  0  0  0  0  0  0  0  0  0  0
    9.9595  -18.8061   21.4684 C   0  0  0  0  0  0  0  0  0  0  0  0
   10.6994  -19.8900   22.2092 C   0  0  0  0  0  0  0  0  0  0  0  0
    9.8857  -21.1763   22.0077 C   0  0  0  0  0  0  0  0  0  0  0  0
   10.5332  -22.0329   21.0293 N   0  0  0  0  0  0  0  0  0  0  0  0
    9.7025  -15.6398   22.8176 C   0  0  0  0  0  0  0  0  0  0  0  0
   10.6854  -14.8790   22.9744 O   0  0  0  0  0  0  0  0  0  0  0  0
    6.4385  -11.1634   26.4527 C   0  0  0  0  0  0  0  0  0  0  0  0
    5.6132  -12.7183   26.0686 S   0  0  0  0  0  0  0  0  0  0  0  0
    6.6605  -13.6052   24.8343 C   0  0  0  0  0  0  0  0  0  0  0  0
    7.3135  -14.7687   25.4869 C   0  0  0  0  0  0  0  0  0  0  0  0
    8.7227  -15.0738   25.0973 C   0  0  2  0  0  0  0  0  0  0  0  0
    8.6913  -15.7824   23.7874 N   0  0  0  0  0  0  0  0  0  0  0  0
    9.5026  -15.9116   26.0066 C   0  0  0  0  0  0  0  0  0  0  0  0
    9.9464  -17.0507   25.6064 O   0  0  0  0  0  0  0  0  0  0  0  0
    9.8477  -15.5915   27.3413 N   0  0  0  0  0  0  0  0  0  0  0  0
    9.2495  -14.6233   28.2079 C   0  0  0  0  0  0  0  0  0  0  0  0
   10.4595  -13.9596   28.8787 C   0  0  0  0  0  0  0  0  0  0  0  0
   11.5759  -14.9618   28.7606 C   0  0  0  0  0  0  0  0  0  0  0  0
   10.9228  -16.1874   28.1499 C   0  0  1  0  0  0  0  0  0  0  0  0
   10.3914  -17.0984   29.1811 C   0  0  0  0  0  0  0  0  0  0  0  0
    9.1591  -17.2068   29.3110 O   0  0  0  0  0  0  0  0  0  0  0  0
   11.2208  -17.8343   30.0067 O   0  0  0  0  0  0  0  0  0  0  0  0
  2  1  1  6
  2  8  1  0
  2  3  1  0
  4  3  1  0
  4  5  1  0
  6  5  1  0
  6  7  1  0
  8  9  2  0
 10 11  1  0
 11 12  1  0
 13 12  1  0
 14 13  1  1
 15 14  1  0
 15  8  1  0
 16 14  1  0
 16 17  2  0
 18 16  1  0
 19 18  1  0
 20 19  1  0
 21 20  1  0
 21 22  1  0
 22 18  1  0
 22 23  1  1
 23 25  1  0
 24 23  2  0
M  END
$$$$
