KMP.pdb
     RDKit          3D

 25 25  0  0  1  0  0  0  0  0999 V2000
    5.9083  -20.4181   24.3146 N   0  0  0  0  0  0  0  0  0  0  0  0
    6.6110  -19.3563   24.9800 C   0  0  1  0  0  0  0  0  0  0  0  0
    8.0890  -19.6865   24.9433 C   0  0  0  0  0  0  0  0  0  0  0  0
    8.2177  -21.1739   25.0690 C   0  0  0  0  0  0  0  0  0  0  0  0
    9.2959  -21.7523   24.1892 C   0  0  0  0  0  0  0  0  0  0  0  0
   10.5503  -21.8618   25.0676 C   0  0  0  0  0  0  0  0  0  0  0  0
   11.6126  -22.5400   24.3452 N   0  0  0  0  0  0  0  0  0  0  0  0
    6.3103  -18.0269   24.4144 C   0  0  0  0  0  0  0  0  0  0  0  0
    5.8475  -17.9887   23.2508 O   0  0  0  0  0  0  0  0  0  0  0  0
    5.6955  -11.6657   27.1371 C   0  0  0  0  0  0  0  0  0  0  0  0
    7.4106  -12.1077   26.8063 S   0  0  0  0  0  0  0  0  0  0  0  0
    7.4213  -13.1774   25.3021 C   0  0  0  0  0  0  0  0  0  0  0  0
    6.9480  -14.5385   25.6615 C   0  0  0  0  0  0  0  0  0  0  0  0
    6.8410  -15.5421   24.5605 C   0  0  2  0  0  0  0  0  0  0  0  0
    6.5446  -16.8658   25.1761 N   0  0  0  0  0  0  0  0  0  0  0  0
    8.0148  -15.7307   23.7098 C   0  0  0  0  0  0  0  0  0  0  0  0
    8.8136  -16.7148   23.9292 O   0  0  0  0  0  0  0  0  0  0  0  0
    8.3857  -14.9163   22.6133 N   0  0  0  0  0  0  0  0  0  0  0  0
    7.9696  -13.5806   22.3153 C   0  0  0  0  0  0  0  0  0  0  0  0
    7.7096  -13.6244   20.8038 C   0  0  0  0  0  0  0  0  0  0  0  0
    8.5174  -14.7888   20.2973 C   0  0  0  0  0  0  0  0  0  0  0  0
    9.2928  -15.2688   21.5098 C   0  0  1  0  0  0  0  0  0  0  0  0
   10.5957  -14.5885   21.6337 C   0  0  0  0  0  0  0  0  0  0  0  0
   10.7567  -13.7580   22.5455 O   0  0  0  0  0  0  0  0  0  0  0  0
   11.6420  -14.8458   20.7676 O   0  0  0  0  0  0  0  0  0  0  0  0
  2  1  1  6
  2  8  1  0
  2  3  1  0
  4  3  1  0
  4  5  1  0
  6  5  1  0
  6  7  1  0
  8  9  2  0
 10 11  1  0
 11 12  1  0
 13 12  1  0
 14 13  1  1
 15 14  1  0
 15  8  1  0
 16 14  1  0
 16 17  2  0
 18 16  1  0
 19 18  1  0
 20 19  1  0
 21 20  1  0
 21 22  1  0
 22 18  1  0
 22 23  1  1
 23 25  1  0
 24 23  2  0
M  END
$$$$
