KMP.pdb
     RDKit          3D

 25 25  0  0  1  0  0  0  0  0999 V2000
    6.9106  -19.7777   23.8581 N   0  0  0  0  0  0  0  0  0  0  0  0
    6.3313  -19.3515   22.6144 C   0  0  1  0  0  0  0  0  0  0  0  0
    4.9490  -19.9632   22.5152 C   0  0  0  0  0  0  0  0  0  0  0  0
    5.0983  -21.4400   22.7188 C   0  0  0  0  0  0  0  0  0  0  0  0
    3.7995  -22.1919   22.5806 C   0  0  0  0  0  0  0  0  0  0  0  0
    3.9205  -23.4231   23.4898 C   0  0  0  0  0  0  0  0  0  0  0  0
    2.6933  -23.6144   24.2433 N   0  0  0  0  0  0  0  0  0  0  0  0
    6.3170  -17.8839   22.4614 C   0  0  0  0  0  0  0  0  0  0  0  0
    5.9069  -17.4238   21.3707 O   0  0  0  0  0  0  0  0  0  0  0  0
    6.1147  -11.8418   26.8144 C   0  0  0  0  0  0  0  0  0  0  0  0
    7.4537  -13.0196   26.5567 S   0  0  0  0  0  0  0  0  0  0  0  0
    7.3954  -13.5379   24.7861 C   0  0  0  0  0  0  0  0  0  0  0  0
    7.1299  -14.9971   24.7079 C   0  0  0  0  0  0  0  0  0  0  0  0
    7.0181  -15.6035   23.3476 C   0  0  2  0  0  0  0  0  0  0  0  0
    6.7526  -17.0594   23.5167 N   0  0  0  0  0  0  0  0  0  0  0  0
    8.1791  -15.4904   22.4664 C   0  0  0  0  0  0  0  0  0  0  0  0
    8.9892  -16.4821   22.3437 O   0  0  0  0  0  0  0  0  0  0  0  0
    8.5253  -14.3595   21.6892 N   0  0  0  0  0  0  0  0  0  0  0  0
    8.0418  -13.0181   21.8043 C   0  0  0  0  0  0  0  0  0  0  0  0
    7.8134  -12.6024   20.3451 C   0  0  0  0  0  0  0  0  0  0  0  0
    8.6937  -13.5129   19.5323 C   0  0  0  0  0  0  0  0  0  0  0  0
    9.4712  -14.3091   20.5634 C   0  0  1  0  0  0  0  0  0  0  0  0
   10.7320  -13.6410   20.9373 C   0  0  0  0  0  0  0  0  0  0  0  0
   10.8133  -13.0876   22.0483 O   0  0  0  0  0  0  0  0  0  0  0  0
   11.8247  -13.6115   20.0910 O   0  0  0  0  0  0  0  0  0  0  0  0
  2  1  1  1
  2  8  1  0
  2  3  1  0
  4  3  1  0
  4  5  1  0
  6  5  1  0
  6  7  1  0
  8  9  2  0
 10 11  1  0
 11 12  1  0
 13 12  1  0
 14 13  1  1
 15 14  1  0
 15  8  1  0
 16 14  1  0
 16 17  2  0
 18 16  1  0
 19 18  1  0
 20 19  1  0
 21 20  1  0
 21 22  1  0
 22 18  1  0
 22 23  1  1
 23 25  1  0
 24 23  2  0
M  END
$$$$
