KMP.pdb
     RDKit          3D

 25 25  0  0  1  0  0  0  0  0999 V2000
    9.2256  -16.1699   19.0422 N   0  0  0  0  0  0  0  0  0  0  0  0
    8.3162  -16.4304   20.1234 C   0  0  1  0  0  0  0  0  0  0  0  0
    8.1276  -17.9307   20.2170 C   0  0  0  0  0  0  0  0  0  0  0  0
    7.8917  -18.4388   18.8274 C   0  0  0  0  0  0  0  0  0  0  0  0
    7.7005  -19.9325   18.7668 C   0  0  0  0  0  0  0  0  0  0  0  0
    7.4227  -20.2676   17.2945 C   0  0  0  0  0  0  0  0  0  0  0  0
    7.2856  -21.7036   17.1229 N   0  0  0  0  0  0  0  0  0  0  0  0
    8.7542  -15.8309   21.3986 C   0  0  0  0  0  0  0  0  0  0  0  0
    9.9775  -15.8774   21.6652 O   0  0  0  0  0  0  0  0  0  0  0  0
    7.3692  -11.5911   27.6087 C   0  0  0  0  0  0  0  0  0  0  0  0
    7.3496  -11.9452   25.8421 S   0  0  0  0  0  0  0  0  0  0  0  0
    6.9829  -13.7436   25.6469 C   0  0  0  0  0  0  0  0  0  0  0  0
    6.9612  -14.0885   24.2025 C   0  0  0  0  0  0  0  0  0  0  0  0
    8.1397  -14.8239   23.6537 C   0  0  2  0  0  0  0  0  0  0  0  0
    7.8120  -15.2374   22.2606 N   0  0  0  0  0  0  0  0  0  0  0  0
    8.5632  -16.0321   24.3592 C   0  0  0  0  0  0  0  0  0  0  0  0
    7.9550  -17.1453   24.1455 O   0  0  0  0  0  0  0  0  0  0  0  0
    9.6241  -16.1211   25.2917 N   0  0  0  0  0  0  0  0  0  0  0  0
   10.4491  -15.0710   25.8046 C   0  0  0  0  0  0  0  0  0  0  0  0
   11.8538  -15.6880   25.7832 C   0  0  0  0  0  0  0  0  0  0  0  0
   11.6321  -17.1764   25.7936 C   0  0  0  0  0  0  0  0  0  0  0  0
   10.1314  -17.3355   25.9494 C   0  0  1  0  0  0  0  0  0  0  0  0
    9.7296  -17.3986   27.3672 C   0  0  0  0  0  0  0  0  0  0  0  0
    9.1242  -16.4325   27.8647 O   0  0  0  0  0  0  0  0  0  0  0  0
   10.0055  -18.4978   28.1589 O   0  0  0  0  0  0  0  0  0  0  0  0
  2  1  1  6
  2  8  1  0
  2  3  1  0
  4  3  1  0
  4  5  1  0
  6  5  1  0
  6  7  1  0
  8  9  2  0
 10 11  1  0
 11 12  1  0
 13 12  1  0
 14 13  1  1
 15 14  1  0
 15  8  1  0
 16 14  1  0
 16 17  2  0
 18 16  1  0
 19 18  1  0
 20 19  1  0
 21 20  1  0
 21 22  1  0
 22 18  1  0
 22 23  1  1
 23 25  1  0
 24 23  2  0
M  END
$$$$
