KMP.pdb
     RDKit          3D

 25 25  0  0  1  0  0  0  0  0999 V2000
    8.0864  -15.9638   20.5496 N   0  0  0  0  0  0  0  0  0  0  0  0
    8.8886  -14.7815   20.6996 C   0  0  1  0  0  0  0  0  0  0  0  0
    8.2741  -13.6945   19.8419 C   0  0  0  0  0  0  0  0  0  0  0  0
    7.8022  -14.3388   18.5743 C   0  0  0  0  0  0  0  0  0  0  0  0
    8.5234  -13.8369   17.3499 C   0  0  0  0  0  0  0  0  0  0  0  0
    7.8924  -14.5651   16.1546 C   0  0  0  0  0  0  0  0  0  0  0  0
    8.4315  -14.0478   14.9088 N   0  0  0  0  0  0  0  0  0  0  0  0
    9.0498  -14.3726   22.1083 C   0  0  0  0  0  0  0  0  0  0  0  0
    9.7788  -13.3801   22.3387 O   0  0  0  0  0  0  0  0  0  0  0  0
    6.0912  -11.5360   27.7591 C   0  0  0  0  0  0  0  0  0  0  0  0
    6.4998  -12.2070   26.1376 S   0  0  0  0  0  0  0  0  0  0  0  0
    6.6325  -14.0391   26.3194 C   0  0  0  0  0  0  0  0  0  0  0  0
    6.9383  -14.6448   24.9982 C   0  0  0  0  0  0  0  0  0  0  0  0
    8.3615  -14.6240   24.5455 C   0  0  2  0  0  0  0  0  0  0  0  0
    8.3977  -15.0886   23.1307 N   0  0  0  0  0  0  0  0  0  0  0  0
    9.3111  -15.4560   25.2825 C   0  0  0  0  0  0  0  0  0  0  0  0
    9.8107  -16.5033   24.7273 O   0  0  0  0  0  0  0  0  0  0  0  0
    9.7708  -15.2235   26.6007 N   0  0  0  0  0  0  0  0  0  0  0  0
    9.3588  -14.2092   27.5215 C   0  0  0  0  0  0  0  0  0  0  0  0
   10.6832  -13.7331   28.1327 C   0  0  0  0  0  0  0  0  0  0  0  0
   11.6454  -14.8719   27.9273 C   0  0  0  0  0  0  0  0  0  0  0  0
   10.7991  -15.9810   27.3312 C   0  0  1  0  0  0  0  0  0  0  0  0
   10.2081  -16.8419   28.3729 C   0  0  0  0  0  0  0  0  0  0  0  0
    8.9846  -16.7745   28.5866 O   0  0  0  0  0  0  0  0  0  0  0  0
   10.9724  -17.7203   29.1182 O   0  0  0  0  0  0  0  0  0  0  0  0
  2  1  1  1
  2  8  1  0
  2  3  1  0
  4  3  1  0
  4  5  1  0
  6  5  1  0
  6  7  1  0
  8  9  2  0
 10 11  1  0
 11 12  1  0
 13 12  1  0
 14 13  1  1
 15 14  1  0
 15  8  1  0
 16 14  1  0
 16 17  2  0
 18 16  1  0
 19 18  1  0
 20 19  1  0
 21 20  1  0
 21 22  1  0
 22 18  1  0
 22 23  1  1
 23 25  1  0
 24 23  2  0
M  END
$$$$
