MIM.pdb
     RDKit          3D

 25 24  0  0  1  0  0  0  0  0999 V2000
    8.6620  -11.5210   20.5263 C   0  0  0  0  0  0  0  0  0  0  0  0
    7.6287  -12.3255   19.2986 S   0  0  0  0  0  0  0  0  0  0  0  0
    7.9442  -14.1094   19.2660 C   0  0  0  0  0  0  0  0  0  0  0  0
    8.0970  -14.6224   20.6682 C   0  0  0  0  0  0  0  0  0  0  0  0
    8.3150  -16.1094   20.6112 C   0  0  2  0  0  0  0  0  0  0  0  0
    7.1597  -16.7427   20.0602 N   0  0  0  0  0  0  0  0  0  0  0  0
    8.6762  -16.6340   21.9555 C   0  0  0  0  0  0  0  0  0  0  0  0
    7.7743  -17.0649   22.7199 O   0  0  0  0  0  0  0  0  0  0  0  0
   12.7263  -20.0236   22.8279 C   0  0  0  0  0  0  0  0  0  0  0  0
   11.3846  -19.3219   22.8442 C   0  0  0  0  0  0  0  0  0  0  0  0
   11.5112  -18.1216   23.7439 C   0  0  2  0  0  0  0  0  0  0  0  0
   11.7394  -18.5829   25.1626 C   0  0  0  0  0  0  0  0  0  0  0  0
   10.2829  -17.2438   23.7292 C   0  0  2  0  0  0  0  0  0  0  0  0
   10.0103  -16.6753   22.4316 N   0  0  0  0  0  0  0  0  0  0  0  0
   10.4425  -16.0911   24.6839 C   0  0  0  0  0  0  0  0  0  0  0  0
   11.2804  -15.1696   24.4872 O   0  0  0  0  0  0  0  0  0  0  0  0
    5.9629  -11.5351   25.4681 C   0  0  0  0  0  0  0  0  0  0  0  0
    6.5325  -12.6899   26.7165 S   0  0  0  0  0  0  0  0  0  0  0  0
    8.0708  -13.4443   26.1949 C   0  0  0  0  0  0  0  0  0  0  0  0
    8.6843  -14.3247   27.2019 C   0  0  0  0  0  0  0  0  0  0  0  0
    9.9762  -14.9921   26.9241 C   0  0  2  0  0  0  0  0  0  0  0  0
    9.6526  -15.9891   25.8551 N   0  0  0  0  0  0  0  0  0  0  0  0
   10.6876  -15.6370   28.0067 C   0  0  0  0  0  0  0  0  0  0  0  0
   10.7737  -17.0066   28.1255 O   0  0  0  0  0  0  0  0  0  0  0  0
   11.2828  -14.9795   28.9337 O   0  0  0  0  0  0  0  0  0  0  0  0
  1  2  1  0
  3  2  1  0
  4  5  1  0
  4  3  1  0
  5  6  1  1
  7  8  2  0
  7  5  1  0
  9 10  1  0
 11 13  1  0
 11 10  1  0
 11 12  1  1
 13 14  1  6
 14  7  1  0
 15 22  1  0
 15 13  1  0
 16 15  2  0
 18 17  1  0
 19 20  1  0
 19 18  1  0
 21 20  1  1
 21 22  1  0
 23 21  1  0
 24 23  1  0
 25 23  2  0
M  END
$$$$
