MIM.pdb
     RDKit          3D

 25 24  0  0  1  0  0  0  0  0999 V2000
    6.9488  -19.2535   26.5730 C   0  0  0  0  0  0  0  0  0  0  0  0
    5.9005  -20.5008   25.8199 S   0  0  0  0  0  0  0  0  0  0  0  0
    5.6584  -20.1546   24.0580 C   0  0  0  0  0  0  0  0  0  0  0  0
    6.6452  -19.1184   23.6051 C   0  0  0  0  0  0  0  0  0  0  0  0
    6.3762  -18.8028   22.1594 C   0  0  2  0  0  0  0  0  0  0  0  0
    6.4485  -20.0009   21.3856 N   0  0  0  0  0  0  0  0  0  0  0  0
    7.3045  -17.7456   21.6764 C   0  0  0  0  0  0  0  0  0  0  0  0
    8.4209  -18.0686   21.1939 O   0  0  0  0  0  0  0  0  0  0  0  0
    6.2186  -12.9280   19.1369 C   0  0  0  0  0  0  0  0  0  0  0  0
    6.9245  -14.2236   19.4772 C   0  0  0  0  0  0  0  0  0  0  0  0
    7.4504  -14.0983   20.8822 C   0  0  2  0  0  0  0  0  0  0  0  0
    8.5487  -13.0639   20.9139 C   0  0  0  0  0  0  0  0  0  0  0  0
    8.0120  -15.3936   21.4172 C   0  0  2  0  0  0  0  0  0  0  0  0
    6.9922  -16.3644   21.7317 N   0  0  0  0  0  0  0  0  0  0  0  0
    8.7882  -15.1527   22.6842 C   0  0  0  0  0  0  0  0  0  0  0  0
    9.9537  -14.6714   22.6743 O   0  0  0  0  0  0  0  0  0  0  0  0
    7.9104  -10.9533   26.7729 C   0  0  0  0  0  0  0  0  0  0  0  0
    7.0695  -12.4024   27.4129 S   0  0  0  0  0  0  0  0  0  0  0  0
    8.1425  -13.8319   27.2991 C   0  0  0  0  0  0  0  0  0  0  0  0
    7.8651  -14.7059   26.1482 C   0  0  0  0  0  0  0  0  0  0  0  0
    8.9519  -15.0828   25.2164 C   0  0  2  0  0  0  0  0  0  0  0  0
    8.2401  -15.4584   23.9539 N   0  0  0  0  0  0  0  0  0  0  0  0
    9.8787  -16.1278   25.5946 C   0  0  0  0  0  0  0  0  0  0  0  0
   11.0140  -15.8801   26.3343 O   0  0  0  0  0  0  0  0  0  0  0  0
    9.7113  -17.3560   25.2635 O   0  0  0  0  0  0  0  0  0  0  0  0
  1  2  1  0
  3  2  1  0
  4  5  1  0
  4  3  1  0
  5  6  1  6
  7  8  2  0
  7  5  1  0
  9 10  1  0
 11 13  1  0
 11 10  1  0
 11 12  1  6
 13 14  1  1
 14  7  1  0
 15 22  1  0
 15 13  1  0
 16 15  2  0
 18 17  1  0
 19 20  1  0
 19 18  1  0
 21 20  1  1
 21 22  1  0
 23 21  1  0
 24 23  1  0
 25 23  2  0
M  END
$$$$
