MIM.pdb
     RDKit          3D

 25 24  0  0  1  0  0  0  0  0999 V2000
    7.6711  -23.7352   20.5871 C   0  0  0  0  0  0  0  0  0  0  0  0
    8.3729  -22.2741   21.3582 S   0  0  0  0  0  0  0  0  0  0  0  0
    8.4893  -20.9146   20.1661 C   0  0  0  0  0  0  0  0  0  0  0  0
    8.9114  -19.6582   20.8703 C   0  0  0  0  0  0  0  0  0  0  0  0
    9.0190  -18.5546   19.8542 C   0  0  2  0  0  0  0  0  0  0  0  0
   10.0114  -18.8912   18.8840 N   0  0  0  0  0  0  0  0  0  0  0  0
    9.2840  -17.2537   20.5252 C   0  0  0  0  0  0  0  0  0  0  0  0
   10.4694  -16.8583   20.6731 O   0  0  0  0  0  0  0  0  0  0  0  0
    7.1077  -12.6117   19.1569 C   0  0  0  0  0  0  0  0  0  0  0  0
    8.0698  -13.6901   19.6085 C   0  0  0  0  0  0  0  0  0  0  0  0
    7.7554  -14.0054   21.0466 C   0  0  2  0  0  0  0  0  0  0  0  0
    8.0141  -12.7835   21.8937 C   0  0  0  0  0  0  0  0  0  0  0  0
    8.5874  -15.1396   21.5951 C   0  0  2  0  0  0  0  0  0  0  0  0
    8.2508  -16.4180   21.0173 N   0  0  0  0  0  0  0  0  0  0  0  0
    8.3930  -15.2701   23.0820 C   0  0  0  0  0  0  0  0  0  0  0  0
    7.3673  -15.8098   23.5786 O   0  0  0  0  0  0  0  0  0  0  0  0
    6.2666  -11.2130   27.0163 C   0  0  0  0  0  0  0  0  0  0  0  0
    5.7419  -12.9278   26.9945 S   0  0  0  0  0  0  0  0  0  0  0  0
    7.1725  -14.0041   26.9434 C   0  0  0  0  0  0  0  0  0  0  0  0
    7.8438  -14.0556   25.6349 C   0  0  0  0  0  0  0  0  0  0  0  0
    9.1093  -14.8065   25.4728 C   0  0  2  0  0  0  0  0  0  0  0  0
    9.3610  -14.7886   23.9971 N   0  0  0  0  0  0  0  0  0  0  0  0
    9.1994  -16.1601   25.9763 C   0  0  0  0  0  0  0  0  0  0  0  0
    8.5283  -17.2135   25.3956 O   0  0  0  0  0  0  0  0  0  0  0  0
    9.9053  -16.4730   27.0009 O   0  0  0  0  0  0  0  0  0  0  0  0
  1  2  1  0
  3  2  1  0
  4  5  1  0
  4  3  1  0
  5  6  1  6
  7  8  2  0
  7  5  1  0
  9 10  1  0
 11 13  1  0
 11 10  1  0
 11 12  1  1
 13 14  1  6
 14  7  1  0
 15 22  1  0
 15 13  1  0
 16 15  2  0
 18 17  1  0
 19 20  1  0
 19 18  1  0
 21 20  1  6
 21 22  1  0
 23 21  1  0
 24 23  1  0
 25 23  2  0
M  END
$$$$
