MIM.pdb
     RDKit          3D

 25 24  0  0  1  0  0  0  0  0999 V2000
    6.5648  -21.2985   25.7641 C   0  0  0  0  0  0  0  0  0  0  0  0
    6.1839  -21.8804   24.1094 S   0  0  0  0  0  0  0  0  0  0  0  0
    6.0807  -20.4914   22.9504 C   0  0  0  0  0  0  0  0  0  0  0  0
    6.8566  -19.3246   23.4879 C   0  0  0  0  0  0  0  0  0  0  0  0
    6.5632  -18.1221   22.6336 C   0  0  2  0  0  0  0  0  0  0  0  0
    6.6244  -18.4873   21.2543 N   0  0  0  0  0  0  0  0  0  0  0  0
    7.4818  -17.0035   22.9769 C   0  0  0  0  0  0  0  0  0  0  0  0
    8.4396  -16.7252   22.2097 O   0  0  0  0  0  0  0  0  0  0  0  0
    5.7314  -13.0187   26.4808 C   0  0  0  0  0  0  0  0  0  0  0  0
    6.2244  -13.6120   25.1778 C   0  0  0  0  0  0  0  0  0  0  0  0
    7.6205  -14.1241   25.4119 C   0  0  2  0  0  0  0  0  0  0  0  0
    8.5676  -12.9552   25.5312 C   0  0  0  0  0  0  0  0  0  0  0  0
    8.1145  -15.0146   24.2973 C   0  0  2  0  0  0  0  0  0  0  0  0
    7.3327  -16.2177   24.1466 N   0  0  0  0  0  0  0  0  0  0  0  0
    9.5334  -15.4475   24.5526 C   0  0  0  0  0  0  0  0  0  0  0  0
   10.5197  -14.7234   24.2478 O   0  0  0  0  0  0  0  0  0  0  0  0
    9.8347  -13.3371   28.9486 C   0  0  0  0  0  0  0  0  0  0  0  0
   11.3742  -14.1973   29.2744 S   0  0  0  0  0  0  0  0  0  0  0  0
   11.3829  -15.7763   28.4289 C   0  0  0  0  0  0  0  0  0  0  0  0
   10.6816  -15.7731   27.1352 C   0  0  0  0  0  0  0  0  0  0  0  0
   10.9395  -16.8403   26.1422 C   0  0  2  0  0  0  0  0  0  0  0  0
    9.8264  -16.6973   25.1512 N   0  0  0  0  0  0  0  0  0  0  0  0
   11.0358  -18.2138   26.5873 C   0  0  0  0  0  0  0  0  0  0  0  0
   12.2194  -18.7733   27.0155 O   0  0  0  0  0  0  0  0  0  0  0  0
   10.0281  -19.0076   26.6093 O   0  0  0  0  0  0  0  0  0  0  0  0
  1  2  1  0
  3  2  1  0
  4  5  1  0
  4  3  1  0
  5  6  1  6
  7  8  2  0
  7  5  1  0
  9 10  1  0
 11 13  1  0
 11 10  1  0
 11 12  1  6
 13 14  1  1
 14  7  1  0
 15 22  1  0
 15 13  1  0
 16 15  2  0
 18 17  1  0
 19 20  1  0
 19 18  1  0
 21 20  1  1
 21 22  1  0
 23 21  1  0
 24 23  1  0
 25 23  2  0
M  END
$$$$
