MIM.pdb
     RDKit          3D

 25 24  0  0  1  0  0  0  0  0999 V2000
    6.8260  -10.8817   26.6635 C   0  0  0  0  0  0  0  0  0  0  0  0
    6.0549  -12.0918   27.7419 S   0  0  0  0  0  0  0  0  0  0  0  0
    5.4744  -13.5199   26.7899 C   0  0  0  0  0  0  0  0  0  0  0  0
    6.6353  -14.1743   26.0997 C   0  0  0  0  0  0  0  0  0  0  0  0
    6.1009  -15.1671   25.1043 C   0  0  2  0  0  0  0  0  0  0  0  0
    5.4502  -16.2349   25.7941 N   0  0  0  0  0  0  0  0  0  0  0  0
    7.1877  -15.6376   24.2041 C   0  0  0  0  0  0  0  0  0  0  0  0
    7.7405  -16.7470   24.4207 O   0  0  0  0  0  0  0  0  0  0  0  0
    7.6303  -12.8947   19.9386 C   0  0  0  0  0  0  0  0  0  0  0  0
    7.6541  -14.3621   20.3113 C   0  0  0  0  0  0  0  0  0  0  0  0
    8.9539  -14.6286   21.0223 C   0  0  2  0  0  0  0  0  0  0  0  0
    9.8458  -15.4633   20.1361 C   0  0  0  0  0  0  0  0  0  0  0  0
    8.7699  -15.3651   22.3274 C   0  0  2  0  0  0  0  0  0  0  0  0
    7.6436  -14.8871   23.0919 N   0  0  0  0  0  0  0  0  0  0  0  0
    9.9856  -15.2096   23.2011 C   0  0  0  0  0  0  0  0  0  0  0  0
   10.5209  -14.0873   23.4103 O   0  0  0  0  0  0  0  0  0  0  0  0
   10.1292  -14.8732   29.0989 C   0  0  0  0  0  0  0  0  0  0  0  0
   11.1586  -14.0202   27.9034 S   0  0  0  0  0  0  0  0  0  0  0  0
   10.8323  -14.6476   26.2579 C   0  0  0  0  0  0  0  0  0  0  0  0
   11.5476  -15.8919   25.9326 C   0  0  0  0  0  0  0  0  0  0  0  0
   11.9062  -16.2035   24.5305 C   0  0  2  0  0  0  0  0  0  0  0  0
   10.5876  -16.3257   23.8321 N   0  0  0  0  0  0  0  0  0  0  0  0
   12.7269  -17.3619   24.2499 C   0  0  0  0  0  0  0  0  0  0  0  0
   14.0913  -17.3672   24.4384 O   0  0  0  0  0  0  0  0  0  0  0  0
   12.2428  -18.4621   23.8014 O   0  0  0  0  0  0  0  0  0  0  0  0
  1  2  1  0
  3  2  1  0
  4  5  1  0
  4  3  1  0
  5  6  1  1
  7  8  2  0
  7  5  1  0
  9 10  1  0
 11 13  1  0
 11 10  1  0
 11 12  1  6
 13 14  1  1
 14  7  1  0
 15 22  1  0
 15 13  1  0
 16 15  2  0
 18 17  1  0
 19 20  1  0
 19 18  1  0
 21 20  1  1
 21 22  1  0
 23 21  1  0
 24 23  1  0
 25 23  2  0
M  END
$$$$
