MIM.pdb
     RDKit          3D

 25 24  0  0  1  0  0  0  0  0999 V2000
    9.0393  -21.8554   25.5367 C   0  0  0  0  0  0  0  0  0  0  0  0
    7.7157  -22.3839   24.4455 S   0  0  0  0  0  0  0  0  0  0  0  0
    6.4898  -21.0655   24.2411 C   0  0  0  0  0  0  0  0  0  0  0  0
    7.1874  -19.7524   24.0373 C   0  0  0  0  0  0  0  0  0  0  0  0
    6.1529  -18.6610   24.0136 C   0  0  2  0  0  0  0  0  0  0  0  0
    5.1449  -18.9764   23.0524 N   0  0  0  0  0  0  0  0  0  0  0  0
    6.7942  -17.3416   23.7673 C   0  0  0  0  0  0  0  0  0  0  0  0
    7.2780  -17.0851   22.6343 O   0  0  0  0  0  0  0  0  0  0  0  0
    5.6257  -12.7515   26.7579 C   0  0  0  0  0  0  0  0  0  0  0  0
    5.8316  -13.5557   25.4915 C   0  0  0  0  0  0  0  0  0  0  0  0
    7.2674  -14.0075   25.4693 C   0  0  2  0  0  0  0  0  0  0  0  0
    8.1565  -12.8302   25.1513 C   0  0  0  0  0  0  0  0  0  0  0  0
    7.5295  -15.0826   24.4422 C   0  0  2  0  0  0  0  0  0  0  0  0
    6.8916  -16.3366   24.7615 N   0  0  0  0  0  0  0  0  0  0  0  0
    9.0044  -15.3615   24.3299 C   0  0  0  0  0  0  0  0  0  0  0  0
    9.8101  -14.5207   23.8463 O   0  0  0  0  0  0  0  0  0  0  0  0
   10.6884  -12.9066   28.5976 C   0  0  0  0  0  0  0  0  0  0  0  0
   10.7506  -14.5785   29.2436 S   0  0  0  0  0  0  0  0  0  0  0  0
   11.3050  -15.7066   27.9677 C   0  0  0  0  0  0  0  0  0  0  0  0
   10.4142  -15.7819   26.7988 C   0  0  0  0  0  0  0  0  0  0  0  0
   10.7736  -16.6274   25.6380 C   0  0  2  0  0  0  0  0  0  0  0  0
    9.5575  -16.5905   24.7656 N   0  0  0  0  0  0  0  0  0  0  0  0
   11.1854  -17.9969   25.8596 C   0  0  0  0  0  0  0  0  0  0  0  0
   12.4934  -18.3460   26.1141 O   0  0  0  0  0  0  0  0  0  0  0  0
   10.3634  -18.9814   25.8294 O   0  0  0  0  0  0  0  0  0  0  0  0
  1  2  1  0
  3  2  1  0
  4  5  1  0
  4  3  1  0
  5  6  1  6
  7  8  2  0
  7  5  1  0
  9 10  1  0
 11 13  1  0
 11 10  1  0
 11 12  1  6
 13 14  1  1
 14  7  1  0
 15 22  1  0
 15 13  1  0
 16 15  2  0
 18 17  1  0
 19 20  1  0
 19 18  1  0
 21 20  1  1
 21 22  1  0
 23 21  1  0
 24 23  1  0
 25 23  2  0
M  END
$$$$
