WLG.pdb
     RDKit          3D

 27 28  0  0  1  0  0  0  0  0999 V2000
   27.6891  -20.6883  -13.0353 N   0  0  0  0  0  0  0  0  0  0  0  0
   26.6343  -21.4447  -12.3974 C   0  0  1  0  0  0  0  0  0  0  0  0
   26.2843  -20.6996  -11.1013 C   0  0  0  0  0  0  0  0  0  0  0  0
   27.4854  -20.7380  -10.2207 C   0  0  0  0  0  0  0  0  0  0  0  0
   28.7521  -21.1376  -10.5653 C   0  0  0  0  0  0  0  0  0  0  0  0
   29.5002  -21.0023   -9.4379 N   0  0  0  0  0  0  0  0  0  0  0  0
   28.7553  -20.5423   -8.4287 C   0  0  0  0  0  0  0  0  0  0  0  0
   28.9873  -20.2308   -7.1152 C   0  0  0  0  0  0  0  0  0  0  0  0
   27.9800  -19.7655   -6.3155 C   0  0  0  0  0  0  0  0  0  0  0  0
   26.6897  -19.5820   -6.7667 C   0  0  0  0  0  0  0  0  0  0  0  0
   26.4478  -19.8944   -8.0915 C   0  0  0  0  0  0  0  0  0  0  0  0
   27.4631  -20.3633   -8.8969 C   0  0  0  0  0  0  0  0  0  0  0  0
   25.4064  -21.4966  -13.2181 C   0  0  0  0  0  0  0  0  0  0  0  0
   25.0629  -20.4730  -13.8526 O   0  0  0  0  0  0  0  0  0  0  0  0
   24.8587  -23.6958  -17.1430 C   0  0  0  0  0  0  0  0  0  0  0  0
   25.1471  -24.4040  -15.8562 C   0  0  2  0  0  0  0  0  0  0  0  0
   25.4319  -25.8837  -16.1688 C   0  0  0  0  0  0  0  0  0  0  0  0
   24.0572  -24.2555  -14.8804 C   0  0  0  0  0  0  0  0  0  0  0  0
   23.6448  -22.9419  -14.3522 C   0  0  2  0  0  0  0  0  0  0  0  0
   24.6596  -22.6852  -13.2666 N   0  0  0  0  0  0  0  0  0  0  0  0
   22.3574  -22.7741  -13.6896 C   0  0  0  0  0  0  0  0  0  0  0  0
   21.2712  -23.2077  -14.2331 O   0  0  0  0  0  0  0  0  0  0  0  0
   22.1222  -22.1582  -12.4203 N   0  0  0  0  0  0  0  0  0  0  0  0
   20.8473  -22.0298  -11.7990 C   0  0  0  0  0  0  0  0  0  0  0  0
   19.9503  -20.9982  -12.3353 C   0  0  0  0  0  0  0  0  0  0  0  0
   20.2938  -20.2798  -13.2896 O   0  0  0  0  0  0  0  0  0  0  0  0
   18.6962  -20.8078  -11.7818 O   0  0  0  0  0  0  0  0  0  0  0  0
  2  1  1  6
  2 13  1  0
  2  3  1  0
  3  4  1  0
  4  5  2  0
  6  5  1  0
  7  6  1  0
  8  7  2  0
  9  8  1  0
 10  9  2  0
 10 11  1  0
 11 12  2  0
 12  7  1  0
 12  4  1  0
 13 20  1  0
 14 13  2  0
 16 18  1  0
 16 15  1  6
 17 16  1  0
 19 18  1  1
 20 19  1  0
 21 22  2  0
 21 19  1  0
 23 21  1  0
 24 25  1  0
 24 23  1  0
 25 27  1  0
 26 25  2  0
M  END
$$$$
