WLG.pdb
     RDKit          3D

 27 28  0  0  1  0  0  0  0  0999 V2000
   24.5118  -19.4734   -8.7716 N   0  0  0  0  0  0  0  0  0  0  0  0
   25.6451  -20.1401   -9.3738 C   0  0  1  0  0  0  0  0  0  0  0  0
   25.8458  -21.4492   -8.5970 C   0  0  0  0  0  0  0  0  0  0  0  0
   26.0556  -21.0961   -7.1649 C   0  0  0  0  0  0  0  0  0  0  0  0
   25.1326  -21.1636   -6.1518 C   0  0  0  0  0  0  0  0  0  0  0  0
   25.7812  -20.7403   -5.0342 N   0  0  0  0  0  0  0  0  0  0  0  0
   27.0473  -20.4198   -5.3152 C   0  0  0  0  0  0  0  0  0  0  0  0
   28.1133  -19.9536   -4.5924 C   0  0  0  0  0  0  0  0  0  0  0  0
   29.3193  -19.7176   -5.1927 C   0  0  0  0  0  0  0  0  0  0  0  0
   29.5403  -19.9281   -6.5378 C   0  0  0  0  0  0  0  0  0  0  0  0
   28.4689  -20.3986   -7.2740 C   0  0  0  0  0  0  0  0  0  0  0  0
   27.2538  -20.6362   -6.6685 C   0  0  0  0  0  0  0  0  0  0  0  0
   25.3979  -20.5019  -10.7852 C   0  0  0  0  0  0  0  0  0  0  0  0
   24.2747  -20.2561  -11.2816 O   0  0  0  0  0  0  0  0  0  0  0  0
   28.0037  -18.6483  -14.4603 C   0  0  0  0  0  0  0  0  0  0  0  0
   28.5847  -19.4813  -13.3606 C   0  0  2  0  0  0  0  0  0  0  0  0
   30.1025  -19.5958  -13.5875 C   0  0  0  0  0  0  0  0  0  0  0  0
   27.9488  -20.8036  -13.2660 C   0  0  0  0  0  0  0  0  0  0  0  0
   26.5024  -20.9684  -13.0304 C   0  0  2  0  0  0  0  0  0  0  0  0
   26.4222  -21.1080  -11.5310 N   0  0  0  0  0  0  0  0  0  0  0  0
   25.7907  -22.1340  -13.5398 C   0  0  0  0  0  0  0  0  0  0  0  0
   25.7825  -22.4063  -14.8004 O   0  0  0  0  0  0  0  0  0  0  0  0
   25.0566  -23.0914  -12.7717 N   0  0  0  0  0  0  0  0  0  0  0  0
   24.4236  -24.2515  -13.3026 C   0  0  0  0  0  0  0  0  0  0  0  0
   23.1513  -24.0476  -14.0067 C   0  0  0  0  0  0  0  0  0  0  0  0
   22.6604  -22.9128  -14.1332 O   0  0  0  0  0  0  0  0  0  0  0  0
   22.4719  -25.1259  -14.5462 O   0  0  0  0  0  0  0  0  0  0  0  0
  2  1  1  1
  2 13  1  0
  2  3  1  0
  3  4  1  0
  4  5  2  0
  6  5  1  0
  7  6  1  0
  8  7  2  0
  9  8  1  0
 10  9  2  0
 10 11  1  0
 11 12  2  0
 12  7  1  0
 12  4  1  0
 13 20  1  0
 14 13  2  0
 16 18  1  0
 16 15  1  6
 17 16  1  0
 19 18  1  6
 20 19  1  0
 21 22  2  0
 21 19  1  0
 23 21  1  0
 24 25  1  0
 24 23  1  0
 25 27  1  0
 26 25  2  0
M  END
$$$$
