WLG.pdb
     RDKit          3D

 27 28  0  0  1  0  0  0  0  0999 V2000
   17.4555  -14.1456    7.6211 N   0  0  0  0  0  0  0  0  0  0  0  0
   17.0996  -15.5224    7.3575 C   0  0  1  0  0  0  0  0  0  0  0  0
   18.0391  -16.0118    6.2462 C   0  0  0  0  0  0  0  0  0  0  0  0
   17.7582  -15.2006    5.0285 C   0  0  0  0  0  0  0  0  0  0  0  0
   17.3087  -13.9049    4.9825 C   0  0  0  0  0  0  0  0  0  0  0  0
   17.1993  -13.6000    3.6619 N   0  0  0  0  0  0  0  0  0  0  0  0
   17.5583  -14.6408    2.9051 C   0  0  0  0  0  0  0  0  0  0  0  0
   17.6383  -14.8794    1.5587 C   0  0  0  0  0  0  0  0  0  0  0  0
   18.0583  -16.0915    1.0842 C   0  0  0  0  0  0  0  0  0  0  0  0
   18.4223  -17.1340    1.9106 C   0  0  0  0  0  0  0  0  0  0  0  0
   18.3442  -16.9006    3.2710 C   0  0  0  0  0  0  0  0  0  0  0  0
   17.9209  -15.6790    3.7486 C   0  0  0  0  0  0  0  0  0  0  0  0
   17.3190  -16.3929    8.5315 C   0  0  0  0  0  0  0  0  0  0  0  0
   18.1128  -16.0129    9.4224 O   0  0  0  0  0  0  0  0  0  0  0  0
   14.8564  -18.8495   12.2606 C   0  0  0  0  0  0  0  0  0  0  0  0
   14.4354  -18.7215   10.8299 C   0  0  2  0  0  0  0  0  0  0  0  0
   13.1189  -19.4954   10.6395 C   0  0  0  0  0  0  0  0  0  0  0  0
   15.4755  -19.1823    9.8982 C   0  0  0  0  0  0  0  0  0  0  0  0
   16.7962  -18.5329    9.8063 C   0  0  2  0  0  0  0  0  0  0  0  0
   16.6359  -17.6170    8.6191 N   0  0  0  0  0  0  0  0  0  0  0  0
   17.9914  -19.3103    9.5034 C   0  0  0  0  0  0  0  0  0  0  0  0
   18.2452  -19.6923    8.2981 O   0  0  0  0  0  0  0  0  0  0  0  0
   18.9988  -19.7265   10.4294 N   0  0  0  0  0  0  0  0  0  0  0  0
   20.1563  -20.4838   10.0906 C   0  0  0  0  0  0  0  0  0  0  0  0
   21.3944  -19.7305    9.8537 C   0  0  0  0  0  0  0  0  0  0  0  0
   21.4012  -18.4877    9.8529 O   0  0  0  0  0  0  0  0  0  0  0  0
   22.5848  -20.3987    9.6257 O   0  0  0  0  0  0  0  0  0  0  0  0
  2  1  1  1
  2 13  1  0
  2  3  1  0
  3  4  1  0
  4  5  2  0
  6  5  1  0
  7  6  1  0
  8  7  2  0
  9  8  1  0
 10  9  2  0
 10 11  1  0
 11 12  2  0
 12  7  1  0
 12  4  1  0
 13 20  1  0
 14 13  2  0
 16 18  1  0
 16 15  1  1
 17 16  1  0
 19 18  1  6
 20 19  1  0
 21 22  2  0
 21 19  1  0
 23 21  1  0
 24 25  1  0
 24 23  1  0
 25 27  1  0
 26 25  2  0
M  END
$$$$
