WLG.pdb
     RDKit          3D

 27 28  0  0  1  0  0  0  0  0999 V2000
   20.9195  -34.0293   -7.8475 N   0  0  0  0  0  0  0  0  0  0  0  0
   21.6832  -33.7006   -6.6641 C   0  0  1  0  0  0  0  0  0  0  0  0
   20.9823  -34.3911   -5.4855 C   0  0  0  0  0  0  0  0  0  0  0  0
   19.7523  -33.6109   -5.1725 C   0  0  0  0  0  0  0  0  0  0  0  0
   18.6926  -33.3651   -6.0090 C   0  0  0  0  0  0  0  0  0  0  0  0
   17.8197  -32.6137   -5.2862 N   0  0  0  0  0  0  0  0  0  0  0  0
   18.2931  -32.3908   -4.0569 C   0  0  0  0  0  0  0  0  0  0  0  0
   17.8432  -31.7193   -2.9512 C   0  0  0  0  0  0  0  0  0  0  0  0
   18.5880  -31.6758   -1.8048 C   0  0  0  0  0  0  0  0  0  0  0  0
   19.8163  -32.2917   -1.6860 C   0  0  0  0  0  0  0  0  0  0  0  0
   20.2771  -32.9715   -2.7981 C   0  0  0  0  0  0  0  0  0  0  0  0
   19.5262  -33.0150   -3.9530 C   0  0  0  0  0  0  0  0  0  0  0  0
   23.0628  -34.2272   -6.7228 C   0  0  0  0  0  0  0  0  0  0  0  0
   23.2802  -35.2737   -7.3756 O   0  0  0  0  0  0  0  0  0  0  0  0
   27.1423  -32.2750   -9.1954 C   0  0  0  0  0  0  0  0  0  0  0  0
   26.6051  -33.4318   -8.4120 C   0  0  2  0  0  0  0  0  0  0  0  0
   25.5041  -34.1130   -9.2440 C   0  0  0  0  0  0  0  0  0  0  0  0
   26.1126  -33.0282   -7.0867 C   0  0  0  0  0  0  0  0  0  0  0  0
   25.5281  -33.9915   -6.1353 C   0  0  2  0  0  0  0  0  0  0  0  0
   24.0900  -33.5456   -6.0499 N   0  0  0  0  0  0  0  0  0  0  0  0
   25.9748  -34.0365   -4.7486 C   0  0  0  0  0  0  0  0  0  0  0  0
   25.7700  -33.0415   -3.9541 O   0  0  0  0  0  0  0  0  0  0  0  0
   26.6487  -35.1193   -4.1015 N   0  0  0  0  0  0  0  0  0  0  0  0
   27.1496  -35.0894   -2.7686 C   0  0  0  0  0  0  0  0  0  0  0  0
   28.4628  -34.4634   -2.5690 C   0  0  0  0  0  0  0  0  0  0  0  0
   29.1531  -34.0941   -3.5342 O   0  0  0  0  0  0  0  0  0  0  0  0
   28.9576  -34.2726   -1.2906 O   0  0  0  0  0  0  0  0  0  0  0  0
  2  1  1  6
  2 13  1  0
  2  3  1  0
  3  4  1  0
  4  5  2  0
  6  5  1  0
  7  6  1  0
  8  7  2  0
  9  8  1  0
 10  9  2  0
 10 11  1  0
 11 12  2  0
 12  7  1  0
 12  4  1  0
 13 20  1  0
 14 13  2  0
 16 18  1  0
 16 15  1  6
 17 16  1  0
 19 18  1  6
 20 19  1  0
 21 22  2  0
 21 19  1  0
 23 21  1  0
 24 25  1  0
 24 23  1  0
 25 27  1  0
 26 25  2  0
M  END
$$$$
