WLG.pdb
     RDKit          3D

 27 28  0  0  1  0  0  0  0  0999 V2000
   24.0120  -20.6634  -11.2685 N   0  0  0  0  0  0  0  0  0  0  0  0
   25.3713  -20.5065  -11.7368 C   0  0  1  0  0  0  0  0  0  0  0  0
   26.2123  -21.5575  -10.9982 C   0  0  0  0  0  0  0  0  0  0  0  0
   26.4069  -21.0786   -9.6010 C   0  0  0  0  0  0  0  0  0  0  0  0
   25.4440  -20.9318   -8.6345 C   0  0  0  0  0  0  0  0  0  0  0  0
   26.0945  -20.4670   -7.5345 N   0  0  0  0  0  0  0  0  0  0  0  0
   27.3995  -20.3242   -7.7822 C   0  0  0  0  0  0  0  0  0  0  0  0
   28.4844  -19.9069   -7.0577 C   0  0  0  0  0  0  0  0  0  0  0  0
   29.7321  -19.8750   -7.6170 C   0  0  0  0  0  0  0  0  0  0  0  0
   29.9783  -20.2525   -8.9205 C   0  0  0  0  0  0  0  0  0  0  0  0
   28.8881  -20.6749   -9.6582 C   0  0  0  0  0  0  0  0  0  0  0  0
   27.6310  -20.7069   -9.0940 C   0  0  0  0  0  0  0  0  0  0  0  0
   25.5011  -20.7794  -13.1835 C   0  0  0  0  0  0  0  0  0  0  0  0
   24.4935  -21.1732  -13.8143 O   0  0  0  0  0  0  0  0  0  0  0  0
   29.6364  -17.8524  -16.4099 C   0  0  0  0  0  0  0  0  0  0  0  0
   28.3149  -18.5449  -16.5309 C   0  0  2  0  0  0  0  0  0  0  0  0
   27.2451  -17.4939  -16.8760 C   0  0  0  0  0  0  0  0  0  0  0  0
   27.9651  -19.2968  -15.3166 C   0  0  0  0  0  0  0  0  0  0  0  0
   26.8490  -20.2598  -15.2791 C   0  0  2  0  0  0  0  0  0  0  0  0
   26.7431  -20.5910  -13.8117 N   0  0  0  0  0  0  0  0  0  0  0  0
   26.9592  -21.5569  -15.9347 C   0  0  0  0  0  0  0  0  0  0  0  0
   27.0909  -21.6431  -17.2147 O   0  0  0  0  0  0  0  0  0  0  0  0
   26.9517  -22.8392  -15.3012 N   0  0  0  0  0  0  0  0  0  0  0  0
   27.1540  -24.0808  -15.9688 C   0  0  0  0  0  0  0  0  0  0  0  0
   25.9506  -24.8185  -16.3736 C   0  0  0  0  0  0  0  0  0  0  0  0
   24.8200  -24.3134  -16.2673 O   0  0  0  0  0  0  0  0  0  0  0  0
   26.0570  -26.1002  -16.8849 O   0  0  0  0  0  0  0  0  0  0  0  0
  2  1  1  1
  2 13  1  0
  2  3  1  0
  3  4  1  0
  4  5  2  0
  6  5  1  0
  7  6  1  0
  8  7  2  0
  9  8  1  0
 10  9  2  0
 10 11  1  0
 11 12  2  0
 12  7  1  0
 12  4  1  0
 13 20  1  0
 14 13  2  0
 16 18  1  0
 16 15  1  1
 17 16  1  0
 19 18  1  1
 20 19  1  0
 21 22  2  0
 21 19  1  0
 23 21  1  0
 24 25  1  0
 24 23  1  0
 25 27  1  0
 26 25  2  0
M  END
$$$$
