WLG.pdb
     RDKit          3D

 27 28  0  0  1  0  0  0  0  0999 V2000
   27.5636  -20.1552  -18.4610 N   0  0  0  0  0  0  0  0  0  0  0  0
   28.2882  -18.9870  -18.9104 C   0  0  1  0  0  0  0  0  0  0  0  0
   27.5838  -17.7709  -18.2921 C   0  0  0  0  0  0  0  0  0  0  0  0
   26.2745  -17.6081  -18.9842 C   0  0  0  0  0  0  0  0  0  0  0  0
   25.2368  -18.5054  -19.0140 C   0  0  0  0  0  0  0  0  0  0  0  0
   24.2664  -17.9209  -19.7662 N   0  0  0  0  0  0  0  0  0  0  0  0
   24.6599  -16.7179  -20.1937 C   0  0  0  0  0  0  0  0  0  0  0  0
   24.0999  -15.7292  -20.9584 C   0  0  0  0  0  0  0  0  0  0  0  0
   24.7836  -14.5748  -21.2243 C   0  0  0  0  0  0  0  0  0  0  0  0
   26.0562  -14.3323  -20.7510 C   0  0  0  0  0  0  0  0  0  0  0  0
   26.6282  -15.3259  -19.9784 C   0  0  0  0  0  0  0  0  0  0  0  0
   25.9387  -16.4889  -19.7109 C   0  0  0  0  0  0  0  0  0  0  0  0
   29.6857  -18.9748  -18.4299 C   0  0  0  0  0  0  0  0  0  0  0  0
   30.0225  -19.7868  -17.5380 O   0  0  0  0  0  0  0  0  0  0  0  0
   31.8015  -21.2290  -20.6774 C   0  0  0  0  0  0  0  0  0  0  0  0
   32.2044  -19.7909  -20.5767 C   0  0  2  0  0  0  0  0  0  0  0  0
   33.4095  -19.5575  -21.5049 C   0  0  0  0  0  0  0  0  0  0  0  0
   32.4989  -19.3890  -19.1934 C   0  0  0  0  0  0  0  0  0  0  0  0
   32.0644  -18.0936  -18.6387 C   0  0  2  0  0  0  0  0  0  0  0  0
   30.5964  -18.0590  -18.9820 N   0  0  0  0  0  0  0  0  0  0  0  0
   32.5883  -16.8408  -19.1683 C   0  0  0  0  0  0  0  0  0  0  0  0
   33.8008  -16.4746  -18.9256 O   0  0  0  0  0  0  0  0  0  0  0  0
   31.8905  -15.9008  -19.9901 N   0  0  0  0  0  0  0  0  0  0  0  0
   31.7156  -14.5210  -19.6841 C   0  0  0  0  0  0  0  0  0  0  0  0
   30.3574  -13.9797  -19.8209 C   0  0  0  0  0  0  0  0  0  0  0  0
   29.3986  -14.7138  -20.1150 O   0  0  0  0  0  0  0  0  0  0  0  0
   30.1209  -12.6305  -19.6226 O   0  0  0  0  0  0  0  0  0  0  0  0
  2  1  1  1
  2 13  1  0
  2  3  1  0
  3  4  1  0
  4  5  2  0
  6  5  1  0
  7  6  1  0
  8  7  2  0
  9  8  1  0
 10  9  2  0
 10 11  1  0
 11 12  2  0
 12  7  1  0
 12  4  1  0
 13 20  1  0
 14 13  2  0
 16 18  1  0
 16 15  1  1
 17 16  1  0
 19 18  1  6
 20 19  1  0
 21 22  2  0
 21 19  1  0
 23 21  1  0
 24 25  1  0
 24 23  1  0
 25 27  1  0
 26 25  2  0
M  END
$$$$
