WLG.pdb
     RDKit          3D

 27 28  0  0  1  0  0  0  0  0999 V2000
   27.8487  -19.2560  -10.4875 N   0  0  0  0  0  0  0  0  0  0  0  0
   27.2326  -20.4528  -11.0165 C   0  0  1  0  0  0  0  0  0  0  0  0
   26.3693  -21.0354   -9.8883 C   0  0  0  0  0  0  0  0  0  0  0  0
   27.0469  -20.7282   -8.5976 C   0  0  0  0  0  0  0  0  0  0  0  0
   26.5100  -20.0780   -7.5150 C   0  0  0  0  0  0  0  0  0  0  0  0
   27.5011  -20.0309   -6.5852 N   0  0  0  0  0  0  0  0  0  0  0  0
   28.6095  -20.6176   -7.0457 C   0  0  0  0  0  0  0  0  0  0  0  0
   29.8642  -20.8477   -6.5468 C   0  0  0  0  0  0  0  0  0  0  0  0
   30.8079  -21.4988   -7.2927 C   0  0  0  0  0  0  0  0  0  0  0  0
   30.5663  -21.9582   -8.5705 C   0  0  0  0  0  0  0  0  0  0  0  0
   29.3021  -21.7295   -9.0809 C   0  0  0  0  0  0  0  0  0  0  0  0
   28.3516  -21.0734   -8.3289 C   0  0  0  0  0  0  0  0  0  0  0  0
   26.3325  -20.1648  -12.1527 C   0  0  0  0  0  0  0  0  0  0  0  0
   25.5138  -19.2229  -12.0481 O   0  0  0  0  0  0  0  0  0  0  0  0
   28.3694  -20.2568  -17.4829 C   0  0  0  0  0  0  0  0  0  0  0  0
   27.2872  -19.7537  -16.5794 C   0  0  2  0  0  0  0  0  0  0  0  0
   27.7818  -18.4649  -15.8991 C   0  0  0  0  0  0  0  0  0  0  0  0
   26.8690  -20.7615  -15.5937 C   0  0  0  0  0  0  0  0  0  0  0  0
   25.7939  -20.5104  -14.6161 C   0  0  2  0  0  0  0  0  0  0  0  0
   26.4168  -20.9491  -13.3148 N   0  0  0  0  0  0  0  0  0  0  0  0
   24.5380  -21.2473  -14.6814 C   0  0  0  0  0  0  0  0  0  0  0  0
   23.7637  -21.1470  -15.7079 O   0  0  0  0  0  0  0  0  0  0  0  0
   24.0173  -22.1399  -13.6926 N   0  0  0  0  0  0  0  0  0  0  0  0
   22.7538  -22.7928  -13.7664 C   0  0  0  0  0  0  0  0  0  0  0  0
   21.6324  -22.0065  -14.2961 C   0  0  0  0  0  0  0  0  0  0  0  0
   21.2172  -20.9968  -13.7023 O   0  0  0  0  0  0  0  0  0  0  0  0
   21.0142  -22.3806  -15.4765 O   0  0  0  0  0  0  0  0  0  0  0  0
  2  1  1  1
  2 13  1  0
  2  3  1  0
  3  4  1  0
  4  5  2  0
  6  5  1  0
  7  6  1  0
  8  7  2  0
  9  8  1  0
 10  9  2  0
 10 11  1  0
 11 12  2  0
 12  7  1  0
 12  4  1  0
 13 20  1  0
 14 13  2  0
 16 18  1  0
 16 15  1  1
 17 16  1  0
 19 18  1  6
 20 19  1  0
 21 22  2  0
 21 19  1  0
 23 21  1  0
 24 25  1  0
 24 23  1  0
 25 27  1  0
 26 25  2  0
M  END
$$$$
