WLG.pdb
     RDKit          3D

 27 28  0  0  1  0  0  0  0  0999 V2000
   16.0984  -27.5563    2.4666 N   0  0  0  0  0  0  0  0  0  0  0  0
   16.2889  -26.5376    3.4752 C   0  0  1  0  0  0  0  0  0  0  0  0
   15.3377  -26.8823    4.6301 C   0  0  0  0  0  0  0  0  0  0  0  0
   15.2213  -25.6743    5.4943 C   0  0  0  0  0  0  0  0  0  0  0  0
   15.4149  -24.3680    5.1215 C   0  0  0  0  0  0  0  0  0  0  0  0
   15.2027  -23.6298    6.2435 N   0  0  0  0  0  0  0  0  0  0  0  0
   14.8909  -24.4181    7.2761 C   0  0  0  0  0  0  0  0  0  0  0  0
   14.5878  -24.2133    8.5961 C   0  0  0  0  0  0  0  0  0  0  0  0
   14.3040  -25.2653    9.4227 C   0  0  0  0  0  0  0  0  0  0  0  0
   14.3034  -26.5760    8.9935 C   0  0  0  0  0  0  0  0  0  0  0  0
   14.6085  -26.7907    7.6623 C   0  0  0  0  0  0  0  0  0  0  0  0
   14.8944  -25.7302    6.8298 C   0  0  0  0  0  0  0  0  0  0  0  0
   17.6616  -26.5404    4.0227 C   0  0  0  0  0  0  0  0  0  0  0  0
   18.1734  -27.6330    4.3584 O   0  0  0  0  0  0  0  0  0  0  0  0
   21.1698  -27.0995    2.7801 C   0  0  0  0  0  0  0  0  0  0  0  0
   20.7198  -25.7061    2.4692 C   0  0  2  0  0  0  0  0  0  0  0  0
   21.7052  -25.0908    1.4599 C   0  0  0  0  0  0  0  0  0  0  0  0
   20.5924  -24.8777    3.6773 C   0  0  0  0  0  0  0  0  0  0  0  0
   19.7137  -25.2515    4.8011 C   0  0  2  0  0  0  0  0  0  0  0  0
   18.3546  -25.3256    4.1519 N   0  0  0  0  0  0  0  0  0  0  0  0
   19.5246  -24.3522    5.9325 C   0  0  0  0  0  0  0  0  0  0  0  0
   20.5161  -24.0193    6.6870 O   0  0  0  0  0  0  0  0  0  0  0  0
   18.3000  -23.7361    6.3404 N   0  0  0  0  0  0  0  0  0  0  0  0
   18.1494  -22.8936    7.4787 C   0  0  0  0  0  0  0  0  0  0  0  0
   17.8851  -23.5562    8.7622 C   0  0  0  0  0  0  0  0  0  0  0  0
   17.7975  -24.7934    8.8418 O   0  0  0  0  0  0  0  0  0  0  0  0
   17.7279  -22.8065    9.9149 O   0  0  0  0  0  0  0  0  0  0  0  0
  2  1  1  6
  2 13  1  0
  2  3  1  0
  3  4  1  0
  4  5  2  0
  6  5  1  0
  7  6  1  0
  8  7  2  0
  9  8  1  0
 10  9  2  0
 10 11  1  0
 11 12  2  0
 12  7  1  0
 12  4  1  0
 13 20  1  0
 14 13  2  0
 16 18  1  0
 16 15  1  1
 17 16  1  0
 19 18  1  6
 20 19  1  0
 21 22  2  0
 21 19  1  0
 23 21  1  0
 24 25  1  0
 24 23  1  0
 25 27  1  0
 26 25  2  0
M  END
$$$$
