WLG.pdb
     RDKit          3D

 27 28  0  0  1  0  0  0  0  0999 V2000
   26.3321  -20.9104  -16.4267 N   0  0  0  0  0  0  0  0  0  0  0  0
   25.1269  -20.3604  -15.8466 C   0  0  1  0  0  0  0  0  0  0  0  0
   24.0415  -20.4473  -16.9291 C   0  0  0  0  0  0  0  0  0  0  0  0
   24.2990  -19.3595  -17.9140 C   0  0  0  0  0  0  0  0  0  0  0  0
   25.2194  -19.3650  -18.9317 C   0  0  0  0  0  0  0  0  0  0  0  0
   25.0884  -18.1626  -19.5530 N   0  0  0  0  0  0  0  0  0  0  0  0
   24.1383  -17.4287  -18.9668 C   0  0  0  0  0  0  0  0  0  0  0  0
   23.6085  -16.1828  -19.1745 C   0  0  0  0  0  0  0  0  0  0  0  0
   22.6094  -15.7022  -18.3735 C   0  0  0  0  0  0  0  0  0  0  0  0
   22.0782  -16.4234  -17.3247 C   0  0  0  0  0  0  0  0  0  0  0  0
   22.6080  -17.6819  -17.1088 C   0  0  0  0  0  0  0  0  0  0  0  0
   23.6148  -18.1656  -17.9162 C   0  0  0  0  0  0  0  0  0  0  0  0
   24.6534  -21.1457  -14.6876 C   0  0  0  0  0  0  0  0  0  0  0  0
   24.7984  -22.3895  -14.7038 O   0  0  0  0  0  0  0  0  0  0  0  0
   25.9644  -22.0195  -10.5188 C   0  0  0  0  0  0  0  0  0  0  0  0
   25.6360  -20.6100  -10.9010 C   0  0  2  0  0  0  0  0  0  0  0  0
   26.0209  -19.6869   -9.7314 C   0  0  0  0  0  0  0  0  0  0  0  0
   24.2241  -20.4481  -11.2782 C   0  0  0  0  0  0  0  0  0  0  0  0
   23.6052  -21.2232  -12.3695 C   0  0  2  0  0  0  0  0  0  0  0  0
   24.0567  -20.4823  -13.6029 N   0  0  0  0  0  0  0  0  0  0  0  0
   22.1557  -21.2977  -12.5039 C   0  0  0  0  0  0  0  0  0  0  0  0
   21.4233  -21.7439  -11.5407 O   0  0  0  0  0  0  0  0  0  0  0  0
   21.3802  -20.9031  -13.6390 N   0  0  0  0  0  0  0  0  0  0  0  0
   19.9571  -20.8775  -13.6865 C   0  0  0  0  0  0  0  0  0  0  0  0
   19.2827  -22.1414  -14.0088 C   0  0  0  0  0  0  0  0  0  0  0  0
   19.9288  -23.1873  -14.1914 O   0  0  0  0  0  0  0  0  0  0  0  0
   17.9036  -22.1888  -14.1154 O   0  0  0  0  0  0  0  0  0  0  0  0
  2  1  1  6
  2 13  1  0
  2  3  1  0
  3  4  1  0
  4  5  2  0
  6  5  1  0
  7  6  1  0
  8  7  2  0
  9  8  1  0
 10  9  2  0
 10 11  1  0
 11 12  2  0
 12  7  1  0
 12  4  1  0
 13 20  1  0
 14 13  2  0
 16 18  1  0
 16 15  1  1
 17 16  1  0
 19 18  1  1
 20 19  1  0
 21 22  2  0
 21 19  1  0
 23 21  1  0
 24 25  1  0
 24 23  1  0
 25 27  1  0
 26 25  2  0
M  END
$$$$
