WLG.pdb
     RDKit          3D

 27 28  0  0  1  0  0  0  0  0999 V2000
   25.1331  -24.4417  -16.6694 N   0  0  0  0  0  0  0  0  0  0  0  0
   24.3342  -23.3401  -16.1795 C   0  0  1  0  0  0  0  0  0  0  0  0
   22.9360  -23.9068  -15.8946 C   0  0  0  0  0  0  0  0  0  0  0  0
   22.2514  -24.0977  -17.2039 C   0  0  0  0  0  0  0  0  0  0  0  0
   22.2140  -25.2427  -17.9594 C   0  0  0  0  0  0  0  0  0  0  0  0
   21.4800  -24.9327  -19.0613 N   0  0  0  0  0  0  0  0  0  0  0  0
   21.0705  -23.6619  -19.0144 C   0  0  0  0  0  0  0  0  0  0  0  0
   20.3267  -22.8517  -19.8307 C   0  0  0  0  0  0  0  0  0  0  0  0
   20.0744  -21.5517  -19.4887 C   0  0  0  0  0  0  0  0  0  0  0  0
   20.5415  -20.9796  -18.3238 C   0  0  0  0  0  0  0  0  0  0  0  0
   21.2932  -21.7913  -17.4947 C   0  0  0  0  0  0  0  0  0  0  0  0
   21.5471  -23.1012  -17.8399 C   0  0  0  0  0  0  0  0  0  0  0  0
   24.8527  -22.7933  -14.9082 C   0  0  0  0  0  0  0  0  0  0  0  0
   25.5174  -23.5433  -14.1572 O   0  0  0  0  0  0  0  0  0  0  0  0
   28.2087  -20.4242  -13.6721 C   0  0  0  0  0  0  0  0  0  0  0  0
   27.1572  -19.7856  -14.5248 C   0  0  2  0  0  0  0  0  0  0  0  0
   27.6816  -18.4197  -15.0019 C   0  0  0  0  0  0  0  0  0  0  0  0
   25.8710  -19.6583  -13.8237 C   0  0  0  0  0  0  0  0  0  0  0  0
   25.1306  -20.8279  -13.3151 C   0  0  2  0  0  0  0  0  0  0  0  0
   24.5895  -21.4544  -14.5756 N   0  0  0  0  0  0  0  0  0  0  0  0
   23.9590  -20.6582  -12.4648 C   0  0  0  0  0  0  0  0  0  0  0  0
   24.0043  -19.9084  -11.4165 O   0  0  0  0  0  0  0  0  0  0  0  0
   22.6693  -21.2456  -12.6579 N   0  0  0  0  0  0  0  0  0  0  0  0
   21.5447  -21.0440  -11.8078 C   0  0  0  0  0  0  0  0  0  0  0  0
   20.4722  -20.1827  -12.3219 C   0  0  0  0  0  0  0  0  0  0  0  0
   20.5613  -19.6399  -13.4364 O   0  0  0  0  0  0  0  0  0  0  0  0
   19.3341  -19.9597  -11.5667 O   0  0  0  0  0  0  0  0  0  0  0  0
  2  1  1  1
  2 13  1  0
  2  3  1  0
  3  4  1  0
  4  5  2  0
  6  5  1  0
  7  6  1  0
  8  7  2  0
  9  8  1  0
 10  9  2  0
 10 11  1  0
 11 12  2  0
 12  7  1  0
 12  4  1  0
 13 20  1  0
 14 13  2  0
 16 18  1  0
 16 15  1  1
 17 16  1  0
 19 18  1  6
 20 19  1  0
 21 22  2  0
 21 19  1  0
 23 21  1  0
 24 25  1  0
 24 23  1  0
 25 27  1  0
 26 25  2  0
M  END
$$$$
