GML.pdb
     RDKit          3D

 21 20  0  0  1  0  0  0  0  0999 V2000
   27.5258  -21.5579  -16.9786 N   0  0  0  0  0  0  0  0  0  0  0  0
   28.0949  -22.4567  -16.0275 C   0  0  0  0  0  0  0  0  0  0  0  0
   28.9186  -23.4913  -16.7413 C   0  0  0  0  0  0  0  0  0  0  0  0
   28.8024  -23.4730  -17.9864 O   0  0  0  0  0  0  0  0  0  0  0  0
   34.6383  -26.4813  -16.4321 C   0  0  0  0  0  0  0  0  0  0  0  0
   33.9497  -24.7936  -16.6230 S   0  0  0  0  0  0  0  0  0  0  0  0
   32.5048  -24.6565  -15.5104 C   0  0  0  0  0  0  0  0  0  0  0  0
   31.6098  -25.8608  -15.6502 C   0  0  0  0  0  0  0  0  0  0  0  0
   30.3718  -25.5188  -16.4581 C   0  0  2  0  0  0  0  0  0  0  0  0
   29.7168  -24.3574  -15.9959 N   0  0  0  0  0  0  0  0  0  0  0  0
   29.5077  -26.6670  -16.7500 C   0  0  0  0  0  0  0  0  0  0  0  0
   28.5664  -26.9345  -15.9704 O   0  0  0  0  0  0  0  0  0  0  0  0
   26.2511  -30.3187  -17.1963 C   0  0  0  0  0  0  0  0  0  0  0  0
   27.7499  -30.6313  -17.2044 C   0  0  2  0  0  0  0  0  0  0  0  0
   27.9995  -31.7070  -16.1864 C   0  0  0  0  0  0  0  0  0  0  0  0
   28.5227  -29.3749  -16.9198 C   0  0  0  0  0  0  0  0  0  0  0  0
   28.8490  -28.6526  -18.1841 C   0  0  2  0  0  0  0  0  0  0  0  0
   29.7067  -27.4808  -17.8865 N   0  0  0  0  0  0  0  0  0  0  0  0
   27.6911  -28.2200  -18.9604 C   0  0  0  0  0  0  0  0  0  0  0  0
   27.2954  -27.0552  -19.0478 O   0  0  0  0  0  0  0  0  0  0  0  0
   26.9513  -29.1785  -19.6724 O   0  0  0  0  0  0  0  0  0  0  0  0
  2  1  1  0
  2  3  1  0
  3  4  2  0
  5  6  1  0
  7  6  1  0
  8  7  1  0
  9  8  1  1
 10  3  1  0
 10  9  1  0
 11  9  1  0
 12 11  2  0
 14 13  1  1
 14 15  1  0
 17 16  1  1
 16 14  1  0
 17 18  1  0
 18 11  1  0
 19 17  1  0
 20 19  2  0
 21 19  1  0
M  END
$$$$
