GML.pdb
     RDKit          3D

 21 20  0  0  1  0  0  0  0  0999 V2000
   27.7448  -22.4109  -15.4354 N   0  0  0  0  0  0  0  0  0  0  0  0
   27.7724  -21.4150  -14.4138 C   0  0  0  0  0  0  0  0  0  0  0  0
   26.5769  -21.5779  -13.5180 C   0  0  0  0  0  0  0  0  0  0  0  0
   25.6726  -22.3001  -13.9922 O   0  0  0  0  0  0  0  0  0  0  0  0
   26.1386  -19.4433   -7.2302 C   0  0  0  0  0  0  0  0  0  0  0  0
   27.4980  -20.4965   -7.8639 S   0  0  0  0  0  0  0  0  0  0  0  0
   27.0321  -21.0500   -9.5435 C   0  0  0  0  0  0  0  0  0  0  0  0
   25.8340  -20.2842  -10.0426 C   0  0  0  0  0  0  0  0  0  0  0  0
   25.4487  -20.7398  -11.4377 C   0  0  2  0  0  0  0  0  0  0  0  0
   26.5642  -20.9402  -12.2786 N   0  0  0  0  0  0  0  0  0  0  0  0
   24.3299  -19.9965  -12.0258 C   0  0  0  0  0  0  0  0  0  0  0  0
   24.5714  -19.0145  -12.7625 O   0  0  0  0  0  0  0  0  0  0  0  0
   21.8441  -18.9454  -15.0060 C   0  0  0  0  0  0  0  0  0  0  0  0
   22.5616  -20.2775  -15.2409 C   0  0  2  0  0  0  0  0  0  0  0  0
   21.9659  -20.9093  -16.4664 C   0  0  0  0  0  0  0  0  0  0  0  0
   22.4227  -21.1407  -14.0193 C   0  0  0  0  0  0  0  0  0  0  0  0
   21.9559  -20.3385  -12.8509 C   0  0  2  0  0  0  0  0  0  0  0  0
   22.9861  -20.3566  -11.7850 N   0  0  0  0  0  0  0  0  0  0  0  0
   20.6740  -20.7564  -12.2919 C   0  0  0  0  0  0  0  0  0  0  0  0
   19.6696  -20.0444  -12.2205 O   0  0  0  0  0  0  0  0  0  0  0  0
   20.5426  -22.0616  -11.7896 O   0  0  0  0  0  0  0  0  0  0  0  0
  2  1  1  0
  2  3  1  0
  3  4  2  0
  5  6  1  0
  7  6  1  0
  8  7  1  0
  9  8  1  1
 10  3  1  0
 10  9  1  0
 11  9  1  0
 12 11  2  0
 14 13  1  1
 14 15  1  0
 17 16  1  6
 16 14  1  0
 17 18  1  0
 18 11  1  0
 19 17  1  0
 20 19  2  0
 21 19  1  0
M  END
$$$$
