GML.pdb
     RDKit          3D

 21 20  0  0  1  0  0  0  0  0999 V2000
   24.0075  -22.5966  -15.2363 N   0  0  0  0  0  0  0  0  0  0  0  0
   25.2837  -23.0172  -14.7560 C   0  0  0  0  0  0  0  0  0  0  0  0
   26.0170  -23.7477  -15.8454 C   0  0  0  0  0  0  0  0  0  0  0  0
   25.2950  -24.1054  -16.8020 O   0  0  0  0  0  0  0  0  0  0  0  0
   32.3496  -25.1859  -15.0996 C   0  0  0  0  0  0  0  0  0  0  0  0
   32.2654  -25.2477  -16.9293 S   0  0  0  0  0  0  0  0  0  0  0  0
   30.5000  -25.1974  -17.4039 C   0  0  0  0  0  0  0  0  0  0  0  0
   29.6861  -24.4903  -16.3511 C   0  0  0  0  0  0  0  0  0  0  0  0
   28.2056  -24.7576  -16.5477 C   0  0  2  0  0  0  0  0  0  0  0  0
   27.3879  -23.9635  -15.7155 N   0  0  0  0  0  0  0  0  0  0  0  0
   27.8553  -26.1797  -16.6193 C   0  0  0  0  0  0  0  0  0  0  0  0
   27.8146  -26.8508  -15.5641 O   0  0  0  0  0  0  0  0  0  0  0  0
   23.7860  -29.2281  -18.3479 C   0  0  0  0  0  0  0  0  0  0  0  0
   24.8534  -29.3735  -17.2599 C   0  0  2  0  0  0  0  0  0  0  0  0
   24.1602  -29.7678  -15.9872 C   0  0  0  0  0  0  0  0  0  0  0  0
   25.6116  -28.0832  -17.1298 C   0  0  0  0  0  0  0  0  0  0  0  0
   26.8793  -28.1291  -17.9157 C   0  0  2  0  0  0  0  0  0  0  0  0
   27.5620  -26.8152  -17.8456 N   0  0  0  0  0  0  0  0  0  0  0  0
   26.7213  -28.5183  -19.3137 C   0  0  0  0  0  0  0  0  0  0  0  0
   26.7688  -27.7430  -20.2715 O   0  0  0  0  0  0  0  0  0  0  0  0
   26.4971  -29.8698  -19.6235 O   0  0  0  0  0  0  0  0  0  0  0  0
  2  1  1  0
  2  3  1  0
  3  4  2  0
  5  6  1  0
  7  6  1  0
  8  7  1  0
  9  8  1  1
 10  3  1  0
 10  9  1  0
 11  9  1  0
 12 11  2  0
 14 13  1  6
 14 15  1  0
 17 16  1  6
 16 14  1  0
 17 18  1  0
 18 11  1  0
 19 17  1  0
 20 19  2  0
 21 19  1  0
M  END
$$$$
