GML.pdb
     RDKit          3D

 21 20  0  0  1  0  0  0  0  0999 V2000
   28.4635  -22.3378  -14.6822 N   0  0  0  0  0  0  0  0  0  0  0  0
   28.3787  -21.3130  -13.6928 C   0  0  0  0  0  0  0  0  0  0  0  0
   27.1520  -21.5249  -12.8509 C   0  0  0  0  0  0  0  0  0  0  0  0
   26.3122  -22.3048  -13.3516 O   0  0  0  0  0  0  0  0  0  0  0  0
   27.4698  -18.6675   -7.1310 C   0  0  0  0  0  0  0  0  0  0  0  0
   27.7322  -20.4810   -7.1630 S   0  0  0  0  0  0  0  0  0  0  0  0
   27.3194  -21.0701   -8.8444 C   0  0  0  0  0  0  0  0  0  0  0  0
   26.1795  -20.2719   -9.4227 C   0  0  0  0  0  0  0  0  0  0  0  0
   25.8816  -20.7132  -10.8435 C   0  0  2  0  0  0  0  0  0  0  0  0
   27.0450  -20.8655  -11.6276 N   0  0  0  0  0  0  0  0  0  0  0  0
   24.7731  -19.9924  -11.4774 C   0  0  0  0  0  0  0  0  0  0  0  0
   25.0281  -19.0776  -12.2920 O   0  0  0  0  0  0  0  0  0  0  0  0
   22.0791  -22.1734  -15.5258 C   0  0  0  0  0  0  0  0  0  0  0  0
   21.7482  -21.1081  -14.4770 C   0  0  2  0  0  0  0  0  0  0  0  0
   21.7002  -19.7782  -15.1735 C   0  0  0  0  0  0  0  0  0  0  0  0
   22.7755  -21.1508  -13.3818 C   0  0  0  0  0  0  0  0  0  0  0  0
   22.3708  -20.2820  -12.2381 C   0  0  2  0  0  0  0  0  0  0  0  0
   23.4243  -20.3006  -11.1954 N   0  0  0  0  0  0  0  0  0  0  0  0
   21.0861  -20.6212  -11.6339 C   0  0  0  0  0  0  0  0  0  0  0  0
   20.8960  -21.5651  -10.8634 O   0  0  0  0  0  0  0  0  0  0  0  0
   19.9630  -19.8324  -11.9330 O   0  0  0  0  0  0  0  0  0  0  0  0
  2  1  1  0
  2  3  1  0
  3  4  2  0
  5  6  1  0
  7  6  1  0
  8  7  1  0
  9  8  1  1
 10  3  1  0
 10  9  1  0
 11  9  1  0
 12 11  2  0
 14 13  1  6
 14 15  1  0
 17 16  1  6
 16 14  1  0
 17 18  1  0
 18 11  1  0
 19 17  1  0
 20 19  2  0
 21 19  1  0
M  END
$$$$
