GML.pdb
     RDKit          3D

 21 20  0  0  1  0  0  0  0  0999 V2000
   28.7435  -21.8610  -17.9746 N   0  0  0  0  0  0  0  0  0  0  0  0
   29.0541  -22.5674  -16.7743 C   0  0  0  0  0  0  0  0  0  0  0  0
   29.6269  -23.9142  -17.1153 C   0  0  0  0  0  0  0  0  0  0  0  0
   29.4831  -24.2469  -18.3124 O   0  0  0  0  0  0  0  0  0  0  0  0
   34.7240  -26.0805  -17.9925 C   0  0  0  0  0  0  0  0  0  0  0  0
   34.6068  -26.0736  -16.1636 S   0  0  0  0  0  0  0  0  0  0  0  0
   33.0528  -25.2219  -15.7120 C   0  0  0  0  0  0  0  0  0  0  0  0
   31.9759  -26.2218  -15.3779 C   0  0  0  0  0  0  0  0  0  0  0  0
   30.7385  -25.9804  -16.2221 C   0  0  2  0  0  0  0  0  0  0  0  0
   30.2494  -24.6608  -16.1164 N   0  0  0  0  0  0  0  0  0  0  0  0
   29.7331  -27.0441  -16.1338 C   0  0  0  0  0  0  0  0  0  0  0  0
   29.0216  -27.1260  -15.1078 O   0  0  0  0  0  0  0  0  0  0  0  0
   25.9626  -29.9960  -19.8238 C   0  0  0  0  0  0  0  0  0  0  0  0
   26.5215  -29.8740  -18.4035 C   0  0  2  0  0  0  0  0  0  0  0  0
   25.3832  -29.5137  -17.4922 C   0  0  0  0  0  0  0  0  0  0  0  0
   27.6218  -28.8514  -18.3869 C   0  0  0  0  0  0  0  0  0  0  0  0
   28.4500  -28.9805  -17.1524 C   0  0  2  0  0  0  0  0  0  0  0  0
   29.5436  -27.9799  -17.1739 N   0  0  0  0  0  0  0  0  0  0  0  0
   29.0132  -30.3081  -16.9269 C   0  0  0  0  0  0  0  0  0  0  0  0
   30.1292  -30.6742  -17.3027 O   0  0  0  0  0  0  0  0  0  0  0  0
   28.2514  -31.2626  -16.2329 O   0  0  0  0  0  0  0  0  0  0  0  0
  2  1  1  0
  2  3  1  0
  3  4  2  0
  5  6  1  0
  7  6  1  0
  8  7  1  0
  9  8  1  1
 10  3  1  0
 10  9  1  0
 11  9  1  0
 12 11  2  0
 14 13  1  6
 14 15  1  0
 17 16  1  6
 16 14  1  0
 17 18  1  0
 18 11  1  0
 19 17  1  0
 20 19  2  0
 21 19  1  0
M  END
$$$$
