GML.pdb
     RDKit          3D

 21 20  0  0  1  0  0  0  0  0999 V2000
   27.9157  -17.8056  -16.8686 N   0  0  0  0  0  0  0  0  0  0  0  0
   27.7260  -17.7892  -15.4544 C   0  0  0  0  0  0  0  0  0  0  0  0
   27.7393  -19.1964  -14.9272 C   0  0  0  0  0  0  0  0  0  0  0  0
   27.3595  -20.0582  -15.7502 O   0  0  0  0  0  0  0  0  0  0  0  0
   32.2130  -21.1673  -10.5580 C   0  0  0  0  0  0  0  0  0  0  0  0
   30.7187  -22.0250   -9.9333 S   0  0  0  0  0  0  0  0  0  0  0  0
   29.4871  -22.0459  -11.2850 C   0  0  0  0  0  0  0  0  0  0  0  0
   29.2539  -20.6541  -11.8137 C   0  0  0  0  0  0  0  0  0  0  0  0
   28.2732  -20.6768  -12.9712 C   0  0  2  0  0  0  0  0  0  0  0  0
   28.1558  -19.4276  -13.6173 N   0  0  0  0  0  0  0  0  0  0  0  0
   27.0126  -21.3662  -12.6782 C   0  0  0  0  0  0  0  0  0  0  0  0
   27.0461  -22.4870  -12.1231 O   0  0  0  0  0  0  0  0  0  0  0  0
   24.5097  -21.5681   -9.2737 C   0  0  0  0  0  0  0  0  0  0  0  0
   25.6500  -20.6559   -9.7341 C   0  0  2  0  0  0  0  0  0  0  0  0
   26.1021  -19.8529   -8.5480 C   0  0  0  0  0  0  0  0  0  0  0  0
   25.1721  -19.7942  -10.8679 C   0  0  0  0  0  0  0  0  0  0  0  0
   24.6813  -20.6305  -12.0020 C   0  0  2  0  0  0  0  0  0  0  0  0
   25.7601  -20.8016  -13.0041 N   0  0  0  0  0  0  0  0  0  0  0  0
   23.4822  -20.1253  -12.6635 C   0  0  0  0  0  0  0  0  0  0  0  0
   23.4691  -19.5360  -13.7467 O   0  0  0  0  0  0  0  0  0  0  0  0
   22.2344  -20.3087  -12.0452 O   0  0  0  0  0  0  0  0  0  0  0  0
  2  1  1  0
  2  3  1  0
  3  4  2  0
  5  6  1  0
  7  6  1  0
  8  7  1  0
  9  8  1  1
 10  3  1  0
 10  9  1  0
 11  9  1  0
 12 11  2  0
 14 13  1  1
 14 15  1  0
 17 16  1  1
 16 14  1  0
 17 18  1  0
 18 11  1  0
 19 17  1  0
 20 19  2  0
 21 19  1  0
M  END
$$$$
