GML.pdb
     RDKit          3D

 21 20  0  0  1  0  0  0  0  0999 V2000
   28.4091  -21.5571  -15.3927 N   0  0  0  0  0  0  0  0  0  0  0  0
   28.0749  -20.6471  -14.3455 C   0  0  0  0  0  0  0  0  0  0  0  0
   26.8582  -21.1425  -13.6158 C   0  0  0  0  0  0  0  0  0  0  0  0
   26.1876  -21.9883  -14.2476 O   0  0  0  0  0  0  0  0  0  0  0  0
   26.1515  -19.5128   -7.3875 C   0  0  0  0  0  0  0  0  0  0  0  0
   27.4883  -20.5767   -8.0510 S   0  0  0  0  0  0  0  0  0  0  0  0
   26.8689  -21.3493   -9.5884 C   0  0  0  0  0  0  0  0  0  0  0  0
   25.6428  -20.6299  -10.0887 C   0  0  0  0  0  0  0  0  0  0  0  0
   25.4286  -20.8982  -11.5666 C   0  0  2  0  0  0  0  0  0  0  0  0
   26.5789  -20.6450  -12.3441 N   0  0  0  0  0  0  0  0  0  0  0  0
   24.1685  -20.3686  -12.0977 C   0  0  0  0  0  0  0  0  0  0  0  0
   24.0833  -19.1483  -12.3603 O   0  0  0  0  0  0  0  0  0  0  0  0
   21.0053  -21.5914  -16.7604 C   0  0  0  0  0  0  0  0  0  0  0  0
   20.9555  -20.8194  -15.4390 C   0  0  2  0  0  0  0  0  0  0  0  0
   21.0185  -19.3538  -15.7616 C   0  0  0  0  0  0  0  0  0  0  0  0
   22.0864  -21.2668  -14.5574 C   0  0  0  0  0  0  0  0  0  0  0  0
   21.9017  -20.7714  -13.1620 C   0  0  2  0  0  0  0  0  0  0  0  0
   23.0469  -21.1964  -12.3220 N   0  0  0  0  0  0  0  0  0  0  0  0
   20.6549  -21.1831  -12.5243 C   0  0  0  0  0  0  0  0  0  0  0  0
   20.4215  -22.3161  -12.0969 O   0  0  0  0  0  0  0  0  0  0  0  0
   19.6244  -20.2410  -12.3712 O   0  0  0  0  0  0  0  0  0  0  0  0
  2  1  1  0
  2  3  1  0
  3  4  2  0
  5  6  1  0
  7  6  1  0
  8  7  1  0
  9  8  1  1
 10  3  1  0
 10  9  1  0
 11  9  1  0
 12 11  2  0
 14 13  1  6
 14 15  1  0
 17 16  1  6
 16 14  1  0
 17 18  1  0
 18 11  1  0
 19 17  1  0
 20 19  2  0
 21 19  1  0
M  END
$$$$
