RYG.pdb
     RDKit          3D

 28 28  0  0  1  0  0  0  0  0999 V2000
    5.6312  -17.0280   15.1489 N   0  0  0  0  0  0  0  0  0  0  0  0
    6.8955  -16.4305   15.4845 C   0  0  0  0  0  0  0  0  0  0  0  0
    7.3607  -15.4318   14.8223 N   0  0  0  0  0  0  0  0  0  0  0  0
    7.6750  -16.9310   16.5688 N   0  0  0  0  0  0  0  0  0  0  0  0
    7.3143  -16.6417   17.9349 C   0  0  0  0  0  0  0  0  0  0  0  0
    7.6274  -15.1998   18.2176 C   0  0  0  0  0  0  0  0  0  0  0  0
    8.6561  -15.0643   19.3421 C   0  0  0  0  0  0  0  0  0  0  0  0
    8.1844  -13.9549   20.2370 C   0  0  2  0  0  0  0  0  0  0  0  0
    8.2699  -12.6638   19.6357 N   0  0  0  0  0  0  0  0  0  0  0  0
    8.8487  -13.9402   21.5509 C   0  0  0  0  0  0  0  0  0  0  0  0
    9.8177  -13.1095   21.6844 O   0  0  0  0  0  0  0  0  0  0  0  0
    8.3022  -15.0601   15.0499 O   0  0  0  0  0  0  0  0  0  0  0  0
   10.6083  -15.0428   30.1016 C   0  0  0  0  0  0  0  0  0  0  0  0
   10.0184  -14.8710   28.8472 C   0  0  0  0  0  0  0  0  0  0  0  0
    9.9105  -13.6415   28.2426 C   0  0  0  0  0  0  0  0  0  0  0  0
    9.3246  -13.5053   27.0073 C   0  0  0  0  0  0  0  0  0  0  0  0
    8.8155  -14.6160   26.3193 C   0  0  0  0  0  0  0  0  0  0  0  0
    8.1914  -14.4800   25.0079 C   0  0  1  0  0  0  0  0  0  0  0  0
    9.1933  -14.6570   23.8952 N   0  0  0  0  0  0  0  0  0  0  0  0
    8.4783  -14.7682   22.6252 C   0  0  0  0  0  0  0  0  0  0  0  0
   10.1228  -15.7695   24.0521 O   0  0  0  0  0  0  0  0  0  0  0  0
   11.0890  -15.6245   24.8618 C   0  0  0  0  0  0  0  0  0  0  0  0
    8.9350  -15.8332   26.9434 C   0  0  0  0  0  0  0  0  0  0  0  0
    9.5239  -15.9891   28.1908 N   0  0  0  0  0  0  0  0  0  0  0  0
   10.0276  -17.0000   23.3757 C   0  0  0  0  0  0  0  0  0  0  0  0
   11.1835  -17.6513   22.7879 C   0  0  0  0  0  0  0  0  0  0  0  0
   12.1392  -18.1587   23.7673 O   0  0  0  0  0  0  0  0  0  0  0  0
   11.7738  -18.4725   24.9212 O   0  0  0  0  0  0  0  0  0  0  0  0
  2  1  1  0
  3  2  2  0
  4  2  1  0
  5  4  1  0
  6  5  1  0
  7  6  1  0
  8 10  1  0
  8  7  1  0
  8  9  1  6
 10 11  2  0
 12 13  1  0
 13 23  2  0
 13 14  1  0
 14 15  2  0
 15 16  1  0
 16 17  1  0
 18 17  1  6
 19 18  1  0
 19 10  1  0
 20 21  2  0
 20 18  1  0
 22 16  2  0
 23 22  1  0
 24 20  1  0
 25 24  1  0
 26 28  1  0
 26 25  1  0
 27 26  2  0
M  END
$$$$
