RYG.pdb
     RDKit          3D

 28 28  0  0  1  0  0  0  0  0999 V2000
    9.8186  -21.4066   17.4114 N   0  0  0  0  0  0  0  0  0  0  0  0
    8.4088  -21.1394   17.3154 C   0  0  0  0  0  0  0  0  0  0  0  0
    7.7693  -21.3074   16.2130 N   0  0  0  0  0  0  0  0  0  0  0  0
    7.6741  -20.6778   18.4471 N   0  0  0  0  0  0  0  0  0  0  0  0
    8.3434  -20.3600   19.6844 C   0  0  0  0  0  0  0  0  0  0  0  0
    8.9469  -18.9895   19.5639 C   0  0  0  0  0  0  0  0  0  0  0  0
    9.7185  -18.6085   20.8291 C   0  0  0  0  0  0  0  0  0  0  0  0
    9.4953  -17.1410   21.0540 C   0  0  2  0  0  0  0  0  0  0  0  0
   10.0177  -16.3198   20.0107 N   0  0  0  0  0  0  0  0  0  0  0  0
    9.9878  -16.6672   22.3582 C   0  0  0  0  0  0  0  0  0  0  0  0
   11.2146  -16.2928   22.3963 O   0  0  0  0  0  0  0  0  0  0  0  0
    6.7430  -21.1577   16.1883 O   0  0  0  0  0  0  0  0  0  0  0  0
   10.6857  -14.4328   30.8378 C   0  0  0  0  0  0  0  0  0  0  0  0
   10.2770  -14.5947   29.5121 C   0  0  0  0  0  0  0  0  0  0  0  0
   10.3211  -13.5728   28.5942 C   0  0  0  0  0  0  0  0  0  0  0  0
    9.9116  -13.7640   27.2967 C   0  0  0  0  0  0  0  0  0  0  0  0
    9.4339  -15.0088   26.8625 C   0  0  0  0  0  0  0  0  0  0  0  0
    8.9967  -15.2199   25.4870 C   0  0  1  0  0  0  0  0  0  0  0  0
    9.8250  -16.2739   24.7968 N   0  0  0  0  0  0  0  0  0  0  0  0
    9.1980  -16.6103   23.5201 C   0  0  0  0  0  0  0  0  0  0  0  0
   10.0808  -17.4837   25.5697 O   0  0  0  0  0  0  0  0  0  0  0  0
    9.1897  -18.3870   25.5684 C   0  0  0  0  0  0  0  0  0  0  0  0
    9.3995  -16.0138   27.7974 C   0  0  0  0  0  0  0  0  0  0  0  0
    9.8091  -15.8384   29.1121 N   0  0  0  0  0  0  0  0  0  0  0  0
   11.2480  -17.7306   26.3163 C   0  0  0  0  0  0  0  0  0  0  0  0
   12.4925  -18.1414   25.6935 C   0  0  0  0  0  0  0  0  0  0  0  0
   12.5682  -19.5706   25.4074 O   0  0  0  0  0  0  0  0  0  0  0  0
   11.7402  -20.1205   24.6488 O   0  0  0  0  0  0  0  0  0  0  0  0
  2  1  1  0
  3  2  2  0
  4  2  1  0
  5  4  1  0
  6  5  1  0
  7  6  1  0
  8 10  1  0
  8  7  1  0
  8  9  1  6
 10 11  2  0
 12 13  1  0
 13 23  2  0
 13 14  1  0
 14 15  2  0
 15 16  1  0
 16 17  1  0
 18 17  1  6
 19 18  1  0
 19 10  1  0
 20 21  2  0
 20 18  1  0
 22 16  2  0
 23 22  1  0
 24 20  1  0
 25 24  1  0
 26 28  1  0
 26 25  1  0
 27 26  2  0
M  END
$$$$
