RYG.pdb
     RDKit          3D

 28 28  0  0  1  0  0  0  0  0999 V2000
    8.0181  -11.3724   19.1829 N   0  0  0  0  0  0  0  0  0  0  0  0
    8.2118  -12.6988   18.6622 C   0  0  0  0  0  0  0  0  0  0  0  0
    8.1762  -12.9338   17.3990 N   0  0  0  0  0  0  0  0  0  0  0  0
    8.4509  -13.7993   19.5372 N   0  0  0  0  0  0  0  0  0  0  0  0
    7.3718  -14.4013   20.2809 C   0  0  0  0  0  0  0  0  0  0  0  0
    7.7840  -15.7886   20.6842 C   0  0  0  0  0  0  0  0  0  0  0  0
    8.8499  -15.7549   21.7815 C   0  0  0  0  0  0  0  0  0  0  0  0
    8.7317  -17.0406   22.5477 C   0  0  2  0  0  0  0  0  0  0  0  0
    7.4684  -17.6841   22.3874 N   0  0  0  0  0  0  0  0  0  0  0  0
    9.0435  -16.8994   23.9797 C   0  0  0  0  0  0  0  0  0  0  0  0
   10.1766  -16.3667   24.2610 O   0  0  0  0  0  0  0  0  0  0  0  0
    8.3251  -13.9006   17.0533 O   0  0  0  0  0  0  0  0  0  0  0  0
    7.0971  -10.9286   25.3517 C   0  0  0  0  0  0  0  0  0  0  0  0
    7.1492  -12.2630   25.7611 C   0  0  0  0  0  0  0  0  0  0  0  0
    6.1973  -13.1857   25.3988 C   0  0  0  0  0  0  0  0  0  0  0  0
    6.2767  -14.4917   25.8181 C   0  0  0  0  0  0  0  0  0  0  0  0
    7.3319  -14.9298   26.6310 C   0  0  0  0  0  0  0  0  0  0  0  0
    7.4234  -16.3143   27.0811 C   0  0  2  0  0  0  0  0  0  0  0  0
    8.5536  -17.0454   26.4019 N   0  0  0  0  0  0  0  0  0  0  0  0
    8.1824  -17.3090   25.0130 C   0  0  0  0  0  0  0  0  0  0  0  0
    8.9918  -18.2754   27.0511 O   0  0  0  0  0  0  0  0  0  0  0  0
    8.1289  -19.1870   27.2371 C   0  0  0  0  0  0  0  0  0  0  0  0
    8.2703  -13.9899   26.9795 C   0  0  0  0  0  0  0  0  0  0  0  0
    8.2057  -12.6667   26.5650 N   0  0  0  0  0  0  0  0  0  0  0  0
   10.3057  -18.5333   27.4846 C   0  0  0  0  0  0  0  0  0  0  0  0
   10.6742  -19.7732   28.1421 C   0  0  0  0  0  0  0  0  0  0  0  0
   12.0936  -19.8724   28.4666 O   0  0  0  0  0  0  0  0  0  0  0  0
   12.9034  -18.9977   28.0892 O   0  0  0  0  0  0  0  0  0  0  0  0
  2  1  1  0
  3  2  2  0
  4  2  1  0
  5  4  1  0
  6  5  1  0
  7  6  1  0
  8 10  1  0
  8  7  1  0
  8  9  1  1
 10 11  2  0
 12 13  1  0
 13 23  2  0
 13 14  1  0
 14 15  2  0
 15 16  1  0
 16 17  1  0
 18 17  1  6
 19 18  1  0
 19 10  1  0
 20 21  2  0
 20 18  1  0
 22 16  2  0
 23 22  1  0
 24 20  1  0
 25 24  1  0
 26 28  1  0
 26 25  1  0
 27 26  2  0
M  END
$$$$
