RYG.pdb
     RDKit          3D

 28 28  0  0  1  0  0  0  0  0999 V2000
    8.4724  -15.6711   15.3539 N   0  0  0  0  0  0  0  0  0  0  0  0
    8.4393  -14.2337   15.3204 C   0  0  0  0  0  0  0  0  0  0  0  0
    8.8404  -13.5788   14.2896 N   0  0  0  0  0  0  0  0  0  0  0  0
    7.9573  -13.4880   16.4363 N   0  0  0  0  0  0  0  0  0  0  0  0
    8.2652  -13.8932   17.7858 C   0  0  0  0  0  0  0  0  0  0  0  0
    7.0490  -13.6749   18.6404 C   0  0  0  0  0  0  0  0  0  0  0  0
    7.4341  -13.3979   20.0951 C   0  0  0  0  0  0  0  0  0  0  0  0
    8.2772  -14.5525   20.5533 C   0  0  2  0  0  0  0  0  0  0  0  0
    7.6000  -15.8072   20.5011 N   0  0  0  0  0  0  0  0  0  0  0  0
    8.8634  -14.3553   21.8895 C   0  0  0  0  0  0  0  0  0  0  0  0
    9.6518  -13.3508   22.0175 O   0  0  0  0  0  0  0  0  0  0  0  0
    8.8262  -12.5416   14.3043 O   0  0  0  0  0  0  0  0  0  0  0  0
   10.9314  -14.6791   30.4090 C   0  0  0  0  0  0  0  0  0  0  0  0
   10.2885  -14.7327   29.1702 C   0  0  0  0  0  0  0  0  0  0  0  0
    9.8685  -13.6056   28.5052 C   0  0  0  0  0  0  0  0  0  0  0  0
    9.2386  -13.6916   27.2873 C   0  0  0  0  0  0  0  0  0  0  0  0
    9.0015  -14.9326   26.6790 C   0  0  0  0  0  0  0  0  0  0  0  0
    8.3328  -15.0326   25.3864 C   0  0  1  0  0  0  0  0  0  0  0  0
    9.3165  -14.9642   24.2458 N   0  0  0  0  0  0  0  0  0  0  0  0
    8.6042  -15.1913   22.9899 C   0  0  0  0  0  0  0  0  0  0  0  0
   10.4642  -15.8581   24.3458 O   0  0  0  0  0  0  0  0  0  0  0  0
   11.1981  -15.7668   25.3769 C   0  0  0  0  0  0  0  0  0  0  0  0
    9.4302  -16.0437   27.3623 C   0  0  0  0  0  0  0  0  0  0  0  0
   10.0681  -15.9754   28.5933 N   0  0  0  0  0  0  0  0  0  0  0  0
   10.8196  -16.8231   23.3850 C   0  0  0  0  0  0  0  0  0  0  0  0
   11.9211  -17.7460   23.5859 C   0  0  0  0  0  0  0  0  0  0  0  0
   12.1010  -18.6999   22.4961 O   0  0  0  0  0  0  0  0  0  0  0  0
   11.1915  -19.4986   22.1824 O   0  0  0  0  0  0  0  0  0  0  0  0
  2  1  1  0
  3  2  2  0
  4  2  1  0
  5  4  1  0
  6  5  1  0
  7  6  1  0
  8 10  1  0
  8  7  1  0
  8  9  1  1
 10 11  2  0
 12 13  1  0
 13 23  2  0
 13 14  1  0
 14 15  2  0
 15 16  1  0
 16 17  1  0
 18 17  1  6
 19 18  1  0
 19 10  1  0
 20 21  2  0
 20 18  1  0
 22 16  2  0
 23 22  1  0
 24 20  1  0
 25 24  1  0
 26 28  1  0
 26 25  1  0
 27 26  2  0
M  END
$$$$
