RYG.pdb
     RDKit          3D

 28 28  0  0  1  0  0  0  0  0999 V2000
    8.3031  -12.7949   15.7162 N   0  0  0  0  0  0  0  0  0  0  0  0
    7.3911  -13.9062   15.6805 C   0  0  0  0  0  0  0  0  0  0  0  0
    7.1197  -14.5143   14.5809 N   0  0  0  0  0  0  0  0  0  0  0  0
    6.7572  -14.3696   16.8709 N   0  0  0  0  0  0  0  0  0  0  0  0
    7.2431  -13.9742   18.1700 C   0  0  0  0  0  0  0  0  0  0  0  0
    8.5376  -14.6893   18.4348 C   0  0  0  0  0  0  0  0  0  0  0  0
    9.1522  -14.2520   19.7660 C   0  0  0  0  0  0  0  0  0  0  0  0
    9.2929  -15.4852   20.6105 C   0  0  2  0  0  0  0  0  0  0  0  0
    8.1094  -16.2807   20.6571 N   0  0  0  0  0  0  0  0  0  0  0  0
    9.7638  -15.2077   21.9778 C   0  0  0  0  0  0  0  0  0  0  0  0
   10.8016  -14.4595   22.0765 O   0  0  0  0  0  0  0  0  0  0  0  0
    6.4931  -15.3410   14.5939 O   0  0  0  0  0  0  0  0  0  0  0  0
   10.6691  -14.7224   30.7123 C   0  0  0  0  0  0  0  0  0  0  0  0
   10.1659  -14.8897   29.4202 C   0  0  0  0  0  0  0  0  0  0  0  0
    9.9130  -16.1276   28.8792 C   0  0  0  0  0  0  0  0  0  0  0  0
    9.4178  -16.2590   27.6044 C   0  0  0  0  0  0  0  0  0  0  0  0
    9.1527  -15.1347   26.8095 C   0  0  0  0  0  0  0  0  0  0  0  0
    8.6275  -15.2655   25.4549 C   0  0  1  0  0  0  0  0  0  0  0  0
    9.7341  -15.4256   24.4435 N   0  0  0  0  0  0  0  0  0  0  0  0
    9.1456  -15.7104   23.1363 C   0  0  0  0  0  0  0  0  0  0  0  0
   10.7495  -16.4202   24.7691 O   0  0  0  0  0  0  0  0  0  0  0  0
   11.4993  -16.1962   25.7681 C   0  0  0  0  0  0  0  0  0  0  0  0
    9.4132  -13.9094   27.3717 C   0  0  0  0  0  0  0  0  0  0  0  0
    9.9134  -13.7581   28.6577 N   0  0  0  0  0  0  0  0  0  0  0  0
   10.9599  -17.6180   24.0609 C   0  0  0  0  0  0  0  0  0  0  0  0
   11.9240  -18.6129   24.4925 C   0  0  0  0  0  0  0  0  0  0  0  0
   13.2379  -18.4725   23.8727 O   0  0  0  0  0  0  0  0  0  0  0  0
   13.5361  -17.4486   23.2199 O   0  0  0  0  0  0  0  0  0  0  0  0
  2  1  1  0
  3  2  2  0
  4  2  1  0
  5  4  1  0
  6  5  1  0
  7  6  1  0
  8 10  1  0
  8  7  1  0
  8  9  1  1
 10 11  2  0
 12 13  1  0
 13 23  2  0
 13 14  1  0
 14 15  2  0
 15 16  1  0
 16 17  1  0
 18 17  1  6
 19 18  1  0
 19 10  1  0
 20 21  2  0
 20 18  1  0
 22 16  2  0
 23 22  1  0
 24 20  1  0
 25 24  1  0
 26 28  1  0
 26 25  1  0
 27 26  2  0
M  END
$$$$
