RYG.pdb
     RDKit          3D

 28 28  0  0  1  0  0  0  0  0999 V2000
    7.1981  -23.9942   18.5963 N   0  0  0  0  0  0  0  0  0  0  0  0
    8.3673  -23.1618   18.6870 C   0  0  0  0  0  0  0  0  0  0  0  0
    9.4208  -23.4097   17.9936 N   0  0  0  0  0  0  0  0  0  0  0  0
    8.3925  -22.0298   19.5540 N   0  0  0  0  0  0  0  0  0  0  0  0
    7.6587  -20.8317   19.2282 C   0  0  0  0  0  0  0  0  0  0  0  0
    8.4238  -20.0713   18.1824 C   0  0  0  0  0  0  0  0  0  0  0  0
    9.6411  -19.3677   18.7859 C   0  0  0  0  0  0  0  0  0  0  0  0
    9.4615  -17.8967   18.5458 C   0  0  2  0  0  0  0  0  0  0  0  0
   10.0006  -17.4535   17.3013 N   0  0  0  0  0  0  0  0  0  0  0  0
    9.9756  -17.0577   19.6412 C   0  0  0  0  0  0  0  0  0  0  0  0
   11.0773  -16.4414   19.4109 O   0  0  0  0  0  0  0  0  0  0  0  0
   10.2619  -22.8134   18.1087 O   0  0  0  0  0  0  0  0  0  0  0  0
    7.3559  -11.8825   17.8085 C   0  0  0  0  0  0  0  0  0  0  0  0
    7.7131  -12.6623   18.9108 C   0  0  0  0  0  0  0  0  0  0  0  0
    6.8701  -13.5993   19.4586 C   0  0  0  0  0  0  0  0  0  0  0  0
    7.2511  -14.3511   20.5436 C   0  0  0  0  0  0  0  0  0  0  0  0
    8.5139  -14.1890   21.1312 C   0  0  0  0  0  0  0  0  0  0  0  0
    8.9260  -14.9826   22.2837 C   0  0  2  0  0  0  0  0  0  0  0  0
    9.9263  -16.0430   21.8986 N   0  0  0  0  0  0  0  0  0  0  0  0
    9.3324  -16.9099   20.8828 C   0  0  0  0  0  0  0  0  0  0  0  0
   10.4570  -16.8407   22.9978 O   0  0  0  0  0  0  0  0  0  0  0  0
   10.9600  -16.2257   23.9872 C   0  0  0  0  0  0  0  0  0  0  0  0
    9.3382  -13.2472   20.5664 C   0  0  0  0  0  0  0  0  0  0  0  0
    8.9697  -12.4791   19.4704 N   0  0  0  0  0  0  0  0  0  0  0  0
   10.4496  -18.2472   23.0490 C   0  0  0  0  0  0  0  0  0  0  0  0
   11.0381  -18.9844   24.1515 C   0  0  0  0  0  0  0  0  0  0  0  0
   10.9889  -20.4339   23.9882 O   0  0  0  0  0  0  0  0  0  0  0  0
   11.4015  -21.1979   24.8879 O   0  0  0  0  0  0  0  0  0  0  0  0
  2  1  1  0
  3  2  2  0
  4  2  1  0
  5  4  1  0
  6  5  1  0
  7  6  1  0
  8 10  1  0
  8  7  1  0
  8  9  1  6
 10 11  2  0
 12 13  1  0
 13 23  2  0
 13 14  1  0
 14 15  2  0
 15 16  1  0
 16 17  1  0
 18 17  1  6
 19 18  1  0
 19 10  1  0
 20 21  2  0
 20 18  1  0
 22 16  2  0
 23 22  1  0
 24 20  1  0
 25 24  1  0
 26 28  1  0
 26 25  1  0
 27 26  2  0
M  END
$$$$
