RYG.pdb
     RDKit          3D

 28 28  0  0  1  0  0  0  0  0999 V2000
    6.7644  -17.2763   15.5742 N   0  0  0  0  0  0  0  0  0  0  0  0
    7.8626  -17.0073   14.6855 C   0  0  0  0  0  0  0  0  0  0  0  0
    7.7194  -17.0612   13.4092 N   0  0  0  0  0  0  0  0  0  0  0  0
    9.1505  -16.6706   15.1969 N   0  0  0  0  0  0  0  0  0  0  0  0
    9.3794  -16.5696   16.6173 C   0  0  0  0  0  0  0  0  0  0  0  0
    8.6200  -15.3840   17.1414 C   0  0  0  0  0  0  0  0  0  0  0  0
    8.8886  -15.1662   18.6319 C   0  0  0  0  0  0  0  0  0  0  0  0
    7.9568  -14.0827   19.0920 C   0  0  2  0  0  0  0  0  0  0  0  0
    8.0254  -12.8988   18.2986 N   0  0  0  0  0  0  0  0  0  0  0  0
    8.1138  -13.7411   20.5156 C   0  0  0  0  0  0  0  0  0  0  0  0
    8.9150  -12.7739   20.7790 O   0  0  0  0  0  0  0  0  0  0  0  0
    8.5481  -16.9472   12.7955 O   0  0  0  0  0  0  0  0  0  0  0  0
    6.9150  -12.6690   29.1383 C   0  0  0  0  0  0  0  0  0  0  0  0
    6.7660  -12.9575   27.7798 C   0  0  0  0  0  0  0  0  0  0  0  0
    6.5585  -11.9815   26.8346 C   0  0  0  0  0  0  0  0  0  0  0  0
    6.4157  -12.2977   25.5052 C   0  0  0  0  0  0  0  0  0  0  0  0
    6.4765  -13.6277   25.0652 C   0  0  0  0  0  0  0  0  0  0  0  0
    6.3252  -13.9720   23.6558 C   0  0  1  0  0  0  0  0  0  0  0  0
    7.6506  -13.9642   22.9370 N   0  0  0  0  0  0  0  0  0  0  0  0
    7.4465  -14.4065   21.5590 C   0  0  0  0  0  0  0  0  0  0  0  0
    8.7151  -14.7382   23.5649 O   0  0  0  0  0  0  0  0  0  0  0  0
    9.1571  -14.3379   24.6849 C   0  0  0  0  0  0  0  0  0  0  0  0
    6.6846  -14.5846   26.0277 C   0  0  0  0  0  0  0  0  0  0  0  0
    6.8310  -14.2831   27.3748 N   0  0  0  0  0  0  0  0  0  0  0  0
    9.2893  -15.9040   23.0246 C   0  0  0  0  0  0  0  0  0  0  0  0
   10.3872  -16.5974   23.6721 C   0  0  0  0  0  0  0  0  0  0  0  0
   10.0208  -17.2443   24.9280 O   0  0  0  0  0  0  0  0  0  0  0  0
    8.8231  -17.3585   25.2683 O   0  0  0  0  0  0  0  0  0  0  0  0
  2  1  1  0
  3  2  2  0
  4  2  1  0
  5  4  1  0
  6  5  1  0
  7  6  1  0
  8 10  1  0
  8  7  1  0
  8  9  1  6
 10 11  2  0
 12 13  1  0
 13 23  2  0
 13 14  1  0
 14 15  2  0
 15 16  1  0
 16 17  1  0
 18 17  1  6
 19 18  1  0
 19 10  1  0
 20 21  2  0
 20 18  1  0
 22 16  2  0
 23 22  1  0
 24 20  1  0
 25 24  1  0
 26 28  1  0
 26 25  1  0
 27 26  2  0
M  END
$$$$
