RYG.pdb
     RDKit          3D

 28 28  0  0  1  0  0  0  0  0999 V2000
    8.3871  -15.3318   17.0128 N   0  0  0  0  0  0  0  0  0  0  0  0
    7.9594  -14.0453   16.5330 C   0  0  0  0  0  0  0  0  0  0  0  0
    7.7423  -13.8353   15.2836 N   0  0  0  0  0  0  0  0  0  0  0  0
    7.7619  -12.9582   17.4345 N   0  0  0  0  0  0  0  0  0  0  0  0
    8.3458  -12.9750   18.7532 C   0  0  0  0  0  0  0  0  0  0  0  0
    7.3176  -13.4795   19.7255 C   0  0  0  0  0  0  0  0  0  0  0  0
    7.8454  -13.4438   21.1612 C   0  0  0  0  0  0  0  0  0  0  0  0
    8.4774  -14.7790   21.4297 C   0  0  2  0  0  0  0  0  0  0  0  0
    7.6359  -15.8831   21.1002 N   0  0  0  0  0  0  0  0  0  0  0  0
    8.9769  -14.9237   22.8072 C   0  0  0  0  0  0  0  0  0  0  0  0
    9.7178  -13.9706   23.2422 O   0  0  0  0  0  0  0  0  0  0  0  0
    7.5453  -12.8720   14.9527 O   0  0  0  0  0  0  0  0  0  0  0  0
    6.1983  -10.6063   26.7146 C   0  0  0  0  0  0  0  0  0  0  0  0
    6.5966  -11.9278   26.5008 C   0  0  0  0  0  0  0  0  0  0  0  0
    5.8760  -12.8009   25.7216 C   0  0  0  0  0  0  0  0  0  0  0  0
    6.2946  -14.0955   25.5306 C   0  0  0  0  0  0  0  0  0  0  0  0
    7.4721  -14.5724   26.1241 C   0  0  0  0  0  0  0  0  0  0  0  0
    7.9232  -15.9456   25.9269 C   0  0  2  0  0  0  0  0  0  0  0  0
    9.1309  -16.0093   25.0266 N   0  0  0  0  0  0  0  0  0  0  0  0
    8.6857  -16.0227   23.6346 C   0  0  0  0  0  0  0  0  0  0  0  0
   10.0477  -17.1156   25.2757 O   0  0  0  0  0  0  0  0  0  0  0  0
   10.5745  -17.2007   26.4270 C   0  0  0  0  0  0  0  0  0  0  0  0
    8.1746  -13.6818   26.8977 C   0  0  0  0  0  0  0  0  0  0  0  0
    7.7666  -12.3707   27.1015 N   0  0  0  0  0  0  0  0  0  0  0  0
   10.3911  -18.1044   24.3350 C   0  0  0  0  0  0  0  0  0  0  0  0
   11.7340  -18.2304   23.8000 C   0  0  0  0  0  0  0  0  0  0  0  0
   12.7207  -18.6812   24.7764 O   0  0  0  0  0  0  0  0  0  0  0  0
   12.5758  -18.4437   25.9954 O   0  0  0  0  0  0  0  0  0  0  0  0
  2  1  1  0
  3  2  2  0
  4  2  1  0
  5  4  1  0
  6  5  1  0
  7  6  1  0
  8 10  1  0
  8  7  1  0
  8  9  1  1
 10 11  2  0
 12 13  1  0
 13 23  2  0
 13 14  1  0
 14 15  2  0
 15 16  1  0
 16 17  1  0
 18 17  1  6
 19 18  1  0
 19 10  1  0
 20 21  2  0
 20 18  1  0
 22 16  2  0
 23 22  1  0
 24 20  1  0
 25 24  1  0
 26 28  1  0
 26 25  1  0
 27 26  2  0
M  END
$$$$
