WSK.pdb
     RDKit          3D

 30 31  0  0  1  0  0  0  0  0999 V2000
    8.3637  -16.1304   23.2811 N   0  0  0  0  0  0  0  0  0  0  0  0
    9.0882  -16.1315   24.5319 C   0  0  1  0  0  0  0  0  0  0  0  0
    8.0883  -16.4124   25.6462 C   0  0  0  0  0  0  0  0  0  0  0  0
    7.0981  -15.3116   25.7163 C   0  0  0  0  0  0  0  0  0  0  0  0
    5.7263  -15.4070   25.6058 C   0  0  0  0  0  0  0  0  0  0  0  0
    5.1801  -14.1868   25.7292 N   0  0  0  0  0  0  0  0  0  0  0  0
    6.1484  -13.2613   25.9214 C   0  0  0  0  0  0  0  0  0  0  0  0
    6.1176  -11.8967   26.0998 C   0  0  0  0  0  0  0  0  0  0  0  0
    7.3067  -11.2287   26.2721 C   0  0  0  0  0  0  0  0  0  0  0  0
    8.5233  -11.8994   26.2692 C   0  0  0  0  0  0  0  0  0  0  0  0
    8.5239  -13.2643   26.0888 C   0  0  0  0  0  0  0  0  0  0  0  0
    7.3507  -13.9656   25.9132 C   0  0  0  0  0  0  0  0  0  0  0  0
   10.1374  -17.1627   24.4800 C   0  0  0  0  0  0  0  0  0  0  0  0
   10.3867  -17.8372   25.5085 O   0  0  0  0  0  0  0  0  0  0  0  0
   12.9437  -17.0511   21.7884 O   0  0  0  0  0  0  0  0  0  0  0  0
   12.6027  -18.3868   21.9412 C   0  0  0  0  0  0  0  0  0  0  0  0
   11.8705  -18.4990   23.2875 C   0  0  2  0  0  0  0  0  0  0  0  0
   10.8980  -17.4386   23.3033 N   0  0  0  0  0  0  0  0  0  0  0  0
   12.9345  -18.2817   24.3207 C   0  0  0  0  0  0  0  0  0  0  0  0
   13.3498  -17.1078   24.4505 O   0  0  0  0  0  0  0  0  0  0  0  0
   13.4580  -19.2942   25.1108 N   0  0  0  0  0  0  0  0  0  0  0  0
   14.2987  -19.0701   26.3220 C   0  0  1  0  0  0  0  0  0  0  0  0
   13.4744  -19.3168   27.5131 C   0  0  0  0  0  0  0  0  0  0  0  0
   13.0158  -18.3309   28.4498 C   0  0  0  0  0  0  0  0  0  0  0  0
   12.1810  -18.5882   29.6243 C   0  0  0  0  0  0  0  0  0  0  0  0
   11.9047  -17.1761   30.2493 C   0  0  0  0  0  0  0  0  0  0  0  0
   11.0633  -17.3082   31.4083 N   0  0  0  0  0  0  0  0  0  0  0  0
   15.4386  -19.9794   26.1112 C   0  0  0  0  0  0  0  0  0  0  0  0
   16.6328  -19.8282   26.8290 O   0  0  0  0  0  0  0  0  0  0  0  0
   15.4192  -20.9162   25.3041 O   0  0  0  0  0  0  0  0  0  0  0  0
  2  1  1  6
  2 13  1  0
  2  3  1  0
  3  4  1  0
  4  5  2  0
  6  5  1  0
  7  6  1  0
  8  7  2  0
  9  8  1  0
 10  9  2  0
 10 11  1  0
 11 12  2  0
 12  7  1  0
 12  4  1  0
 13 14  2  0
 17 16  1  6
 16 15  1  0
 18 17  1  0
 18 13  1  0
 19 20  2  0
 19 17  1  0
 21 19  1  0
 22 28  1  0
 22 21  1  0
 22 23  1  1
 24 23  1  0
 25 24  1  0
 26 27  1  0
 26 25  1  0
 28 29  1  0
 30 28  2  0
M  END
$$$$
