WSK.pdb
     RDKit          3D

 30 31  0  0  1  0  0  0  0  0999 V2000
    6.2643  -17.6047   24.8474 N   0  0  0  0  0  0  0  0  0  0  0  0
    6.9228  -16.5230   24.1504 C   0  0  1  0  0  0  0  0  0  0  0  0
    7.8503  -15.8305   25.1406 C   0  0  0  0  0  0  0  0  0  0  0  0
    7.0823  -14.8435   25.9363 C   0  0  0  0  0  0  0  0  0  0  0  0
    6.2393  -15.0945   26.9992 C   0  0  0  0  0  0  0  0  0  0  0  0
    5.7369  -13.9365   27.4566 N   0  0  0  0  0  0  0  0  0  0  0  0
    6.2181  -12.9015   26.7297 C   0  0  0  0  0  0  0  0  0  0  0  0
    6.0172  -11.5411   26.7902 C   0  0  0  0  0  0  0  0  0  0  0  0
    6.6692  -10.7388   25.8841 C   0  0  0  0  0  0  0  0  0  0  0  0
    7.5165  -11.2715   24.9206 C   0  0  0  0  0  0  0  0  0  0  0  0
    7.6988  -12.6356   24.8836 C   0  0  0  0  0  0  0  0  0  0  0  0
    7.0612  -13.4694   25.7766 C   0  0  0  0  0  0  0  0  0  0  0  0
    7.6711  -17.0712   23.0074 C   0  0  0  0  0  0  0  0  0  0  0  0
    8.2314  -18.1886   23.1194 O   0  0  0  0  0  0  0  0  0  0  0  0
    8.5408  -14.6513   20.0798 O   0  0  0  0  0  0  0  0  0  0  0  0
    8.5131  -15.9281   19.5388 C   0  0  0  0  0  0  0  0  0  0  0  0
    8.6420  -16.9047   20.7181 C   0  0  2  0  0  0  0  0  0  0  0  0
    7.7951  -16.3872   21.7600 N   0  0  0  0  0  0  0  0  0  0  0  0
   10.0882  -16.8451   21.1075 C   0  0  0  0  0  0  0  0  0  0  0  0
   10.4278  -15.8831   21.8333 O   0  0  0  0  0  0  0  0  0  0  0  0
   11.0312  -17.7810   20.7100 N   0  0  0  0  0  0  0  0  0  0  0  0
   12.4605  -17.7721   21.1358 C   0  0  1  0  0  0  0  0  0  0  0  0
   12.8165  -19.1200   21.5999 C   0  0  0  0  0  0  0  0  0  0  0  0
   12.3537  -19.7568   22.7999 C   0  0  0  0  0  0  0  0  0  0  0  0
   12.6509  -21.1300   23.2102 C   0  0  0  0  0  0  0  0  0  0  0  0
   11.8404  -21.3474   24.5356 C   0  0  0  0  0  0  0  0  0  0  0  0
   12.1015  -22.6605   25.0611 N   0  0  0  0  0  0  0  0  0  0  0  0
   13.1637  -17.2819   19.9375 C   0  0  0  0  0  0  0  0  0  0  0  0
   14.4744  -16.7914   20.0124 O   0  0  0  0  0  0  0  0  0  0  0  0
   12.6559  -17.2700   18.8100 O   0  0  0  0  0  0  0  0  0  0  0  0
  2  1  1  1
  2 13  1  0
  2  3  1  0
  3  4  1  0
  4  5  2  0
  6  5  1  0
  7  6  1  0
  8  7  2  0
  9  8  1  0
 10  9  2  0
 10 11  1  0
 11 12  2  0
 12  7  1  0
 12  4  1  0
 13 14  2  0
 17 16  1  6
 16 15  1  0
 18 17  1  0
 18 13  1  0
 19 20  2  0
 19 17  1  0
 21 19  1  0
 22 28  1  0
 22 21  1  0
 22 23  1  6
 24 23  1  0
 25 24  1  0
 26 27  1  0
 26 25  1  0
 28 29  1  0
 30 28  2  0
M  END
$$$$
