WSK.pdb
     RDKit          3D

 30 31  0  0  1  0  0  0  0  0999 V2000
    8.0215  -16.2535   23.1255 N   0  0  0  0  0  0  0  0  0  0  0  0
    9.1927  -15.9608   23.9204 C   0  0  1  0  0  0  0  0  0  0  0  0
    8.8108  -16.1243   25.3859 C   0  0  0  0  0  0  0  0  0  0  0  0
    7.5832  -15.3439   25.6710 C   0  0  0  0  0  0  0  0  0  0  0  0
    6.2850  -15.8081   25.7203 C   0  0  0  0  0  0  0  0  0  0  0  0
    5.4565  -14.7934   26.0144 N   0  0  0  0  0  0  0  0  0  0  0  0
    6.1603  -13.6477   26.1666 C   0  0  0  0  0  0  0  0  0  0  0  0
    5.7925  -12.3552   26.4649 C   0  0  0  0  0  0  0  0  0  0  0  0
    6.7727  -11.3948   26.5483 C   0  0  0  0  0  0  0  0  0  0  0  0
    8.1110  -11.7033   26.3394 C   0  0  0  0  0  0  0  0  0  0  0  0
    8.4498  -13.0043   26.0428 C   0  0  0  0  0  0  0  0  0  0  0  0
    7.4932  -13.9921   25.9513 C   0  0  0  0  0  0  0  0  0  0  0  0
   10.2749  -16.8840   23.5417 C   0  0  0  0  0  0  0  0  0  0  0  0
   11.2734  -17.0007   24.2929 O   0  0  0  0  0  0  0  0  0  0  0  0
   10.4355  -18.0380   19.8558 O   0  0  0  0  0  0  0  0  0  0  0  0
   11.0414  -19.0514   20.5836 C   0  0  0  0  0  0  0  0  0  0  0  0
   11.3846  -18.4564   21.9581 C   0  0  2  0  0  0  0  0  0  0  0  0
   10.2476  -17.6643   22.3460 N   0  0  0  0  0  0  0  0  0  0  0  0
   12.5906  -17.6004   21.7139 C   0  0  0  0  0  0  0  0  0  0  0  0
   12.3710  -16.4013   21.4286 O   0  0  0  0  0  0  0  0  0  0  0  0
   13.8941  -18.0681   21.7894 N   0  0  0  0  0  0  0  0  0  0  0  0
   15.1058  -17.2310   21.5548 C   0  0  1  0  0  0  0  0  0  0  0  0
   15.9716  -17.3230   22.7385 C   0  0  0  0  0  0  0  0  0  0  0  0
   17.2997  -16.7940   22.8647 C   0  0  0  0  0  0  0  0  0  0  0  0
   18.1132  -16.8029   24.0815 C   0  0  0  0  0  0  0  0  0  0  0  0
   19.4836  -16.1635   23.6643 C   0  0  0  0  0  0  0  0  0  0  0  0
   20.3281  -16.0153   24.8191 N   0  0  0  0  0  0  0  0  0  0  0  0
   15.6499  -17.7744   20.2981 C   0  0  0  0  0  0  0  0  0  0  0  0
   16.4511  -16.9934   19.4540 O   0  0  0  0  0  0  0  0  0  0  0  0
   15.4404  -18.9302   19.9116 O   0  0  0  0  0  0  0  0  0  0  0  0
  2  1  1  6
  2 13  1  0
  2  3  1  0
  3  4  1  0
  4  5  2  0
  6  5  1  0
  7  6  1  0
  8  7  2  0
  9  8  1  0
 10  9  2  0
 10 11  1  0
 11 12  2  0
 12  7  1  0
 12  4  1  0
 13 14  2  0
 17 16  1  6
 16 15  1  0
 18 17  1  0
 18 13  1  0
 19 20  2  0
 19 17  1  0
 21 19  1  0
 22 28  1  0
 22 21  1  0
 22 23  1  1
 24 23  1  0
 25 24  1  0
 26 27  1  0
 26 25  1  0
 28 29  1  0
 30 28  2  0
M  END
$$$$
