WSK.pdb
     RDKit          3D

 30 31  0  0  1  0  0  0  0  0999 V2000
    8.1214  -17.2945   22.5379 N   0  0  0  0  0  0  0  0  0  0  0  0
    8.0621  -16.1020   23.3527 C   0  0  1  0  0  0  0  0  0  0  0  0
    6.7591  -15.3831   23.0278 C   0  0  0  0  0  0  0  0  0  0  0  0
    6.7036  -15.0836   21.5772 C   0  0  0  0  0  0  0  0  0  0  0  0
    5.9751  -15.7447   20.6100 C   0  0  0  0  0  0  0  0  0  0  0  0
    6.1868  -15.1680   19.4162 N   0  0  0  0  0  0  0  0  0  0  0  0
    7.0433  -14.1286   19.5473 C   0  0  0  0  0  0  0  0  0  0  0  0
    7.5726  -13.2319   18.6470 C   0  0  0  0  0  0  0  0  0  0  0  0
    8.4384  -12.2692   19.1090 C   0  0  0  0  0  0  0  0  0  0  0  0
    8.7836  -12.1874   20.4522 C   0  0  0  0  0  0  0  0  0  0  0  0
    8.2389  -13.0974   21.3301 C   0  0  0  0  0  0  0  0  0  0  0  0
    7.3677  -14.0753   20.9014 C   0  0  0  0  0  0  0  0  0  0  0  0
    8.1238  -16.4853   24.7727 C   0  0  0  0  0  0  0  0  0  0  0  0
    7.9236  -15.6138   25.6532 O   0  0  0  0  0  0  0  0  0  0  0  0
    7.6838  -20.1667   26.0210 O   0  0  0  0  0  0  0  0  0  0  0  0
    7.6082  -19.1762   26.9891 C   0  0  0  0  0  0  0  0  0  0  0  0
    8.6366  -18.1037   26.5973 C   0  0  2  0  0  0  0  0  0  0  0  0
    8.4047  -17.8166   25.2065 N   0  0  0  0  0  0  0  0  0  0  0  0
    9.9692  -18.7572   26.8069 C   0  0  0  0  0  0  0  0  0  0  0  0
   10.4895  -19.2905   25.8007 O   0  0  0  0  0  0  0  0  0  0  0  0
   10.6254  -18.7923   28.0281 N   0  0  0  0  0  0  0  0  0  0  0  0
   11.8383  -19.6126   28.3111 C   0  0  1  0  0  0  0  0  0  0  0  0
   12.9674  -18.7049   28.5569 C   0  0  0  0  0  0  0  0  0  0  0  0
   14.2735  -19.0774   29.0206 C   0  0  0  0  0  0  0  0  0  0  0  0
   15.3793  -18.1585   29.2950 C   0  0  0  0  0  0  0  0  0  0  0  0
   16.5663  -19.0718   29.7617 C   0  0  0  0  0  0  0  0  0  0  0  0
   17.7423  -18.2738   29.9828 N   0  0  0  0  0  0  0  0  0  0  0  0
   11.4150  -20.4571   29.4417 C   0  0  0  0  0  0  0  0  0  0  0  0
   12.0604  -21.6679   29.7274 O   0  0  0  0  0  0  0  0  0  0  0  0
   10.4821  -20.1614   30.1976 O   0  0  0  0  0  0  0  0  0  0  0  0
  2  1  1  6
  2 13  1  0
  2  3  1  0
  3  4  1  0
  4  5  2  0
  6  5  1  0
  7  6  1  0
  8  7  2  0
  9  8  1  0
 10  9  2  0
 10 11  1  0
 11 12  2  0
 12  7  1  0
 12  4  1  0
 13 14  2  0
 17 16  1  6
 16 15  1  0
 18 17  1  0
 18 13  1  0
 19 20  2  0
 19 17  1  0
 21 19  1  0
 22 28  1  0
 22 21  1  0
 22 23  1  1
 24 23  1  0
 25 24  1  0
 26 27  1  0
 26 25  1  0
 28 29  1  0
 30 28  2  0
M  END
$$$$
