WSK.pdb
     RDKit          3D

 30 31  0  0  1  0  0  0  0  0999 V2000
    5.7602  -16.9145   23.9135 N   0  0  0  0  0  0  0  0  0  0  0  0
    6.7281  -15.9335   23.4772 C   0  0  1  0  0  0  0  0  0  0  0  0
    7.6064  -15.5859   24.6721 C   0  0  0  0  0  0  0  0  0  0  0  0
    6.8808  -14.6566   25.5704 C   0  0  0  0  0  0  0  0  0  0  0  0
    5.8405  -14.9555   26.4258 C   0  0  0  0  0  0  0  0  0  0  0  0
    5.4577  -13.8431   27.0728 N   0  0  0  0  0  0  0  0  0  0  0  0
    6.2134  -12.7923   26.6780 C   0  0  0  0  0  0  0  0  0  0  0  0
    6.2235  -11.4615   27.0294 C   0  0  0  0  0  0  0  0  0  0  0  0
    7.1389  -10.6295   26.4295 C   0  0  0  0  0  0  0  0  0  0  0  0
    8.0423  -11.1037   25.4866 C   0  0  0  0  0  0  0  0  0  0  0  0
    8.0094  -12.4394   25.1546 C   0  0  0  0  0  0  0  0  0  0  0  0
    7.1053  -13.3015   25.7363 C   0  0  0  0  0  0  0  0  0  0  0  0
    7.5222  -16.4979   22.3736 C   0  0  0  0  0  0  0  0  0  0  0  0
    7.8361  -17.7127   22.4018 O   0  0  0  0  0  0  0  0  0  0  0  0
    9.1544  -13.9327   19.9050 O   0  0  0  0  0  0  0  0  0  0  0  0
    9.1388  -15.1641   19.2669 C   0  0  0  0  0  0  0  0  0  0  0  0
    8.9755  -16.2239   20.3676 C   0  0  2  0  0  0  0  0  0  0  0  0
    7.9610  -15.7235   21.2570 N   0  0  0  0  0  0  0  0  0  0  0  0
   10.3131  -16.2846   21.0413 C   0  0  0  0  0  0  0  0  0  0  0  0
   10.4700  -15.5340   22.0310 O   0  0  0  0  0  0  0  0  0  0  0  0
   11.3468  -17.1107   20.6263 N   0  0  0  0  0  0  0  0  0  0  0  0
   12.6292  -17.2940   21.3654 C   0  0  1  0  0  0  0  0  0  0  0  0
   12.8584  -18.7336   21.5502 C   0  0  0  0  0  0  0  0  0  0  0  0
   13.3475  -19.3718   22.7390 C   0  0  0  0  0  0  0  0  0  0  0  0
   13.5001  -20.8141   22.9359 C   0  0  0  0  0  0  0  0  0  0  0  0
   14.1349  -20.9692   24.3620 C   0  0  0  0  0  0  0  0  0  0  0  0
   13.2883  -21.7854   25.1902 N   0  0  0  0  0  0  0  0  0  0  0  0
   13.6043  -16.5749   20.5272 C   0  0  0  0  0  0  0  0  0  0  0  0
   14.8407  -16.1611   21.0414 O   0  0  0  0  0  0  0  0  0  0  0  0
   13.4020  -16.2938   19.3401 O   0  0  0  0  0  0  0  0  0  0  0  0
  2  1  1  1
  2 13  1  0
  2  3  1  0
  3  4  1  0
  4  5  2  0
  6  5  1  0
  7  6  1  0
  8  7  2  0
  9  8  1  0
 10  9  2  0
 10 11  1  0
 11 12  2  0
 12  7  1  0
 12  4  1  0
 13 14  2  0
 17 16  1  6
 16 15  1  0
 18 17  1  0
 18 13  1  0
 19 20  2  0
 19 17  1  0
 21 19  1  0
 22 28  1  0
 22 21  1  0
 22 23  1  6
 24 23  1  0
 25 24  1  0
 26 27  1  0
 26 25  1  0
 28 29  1  0
 30 28  2  0
M  END
$$$$
