WSK.pdb
     RDKit          3D

 30 31  0  0  1  0  0  0  0  0999 V2000
    6.7872  -17.6402   24.2777 N   0  0  0  0  0  0  0  0  0  0  0  0
    7.8048  -16.6683   23.9473 C   0  0  1  0  0  0  0  0  0  0  0  0
    8.2310  -15.9857   25.2407 C   0  0  0  0  0  0  0  0  0  0  0  0
    7.1501  -15.0859   25.7089 C   0  0  0  0  0  0  0  0  0  0  0  0
    5.9464  -15.4446   26.2795 C   0  0  0  0  0  0  0  0  0  0  0  0
    5.2419  -14.3399   26.5726 N   0  0  0  0  0  0  0  0  0  0  0  0
    5.9379  -13.2360   26.2148 C   0  0  0  0  0  0  0  0  0  0  0  0
    5.6658  -11.8893   26.2985 C   0  0  0  0  0  0  0  0  0  0  0  0
    6.6038  -10.9984   25.8334 C   0  0  0  0  0  0  0  0  0  0  0  0
    7.8064  -11.4293   25.2873 C   0  0  0  0  0  0  0  0  0  0  0  0
    8.0518  -12.7821   25.2165 C   0  0  0  0  0  0  0  0  0  0  0  0
    7.1338  -13.7029   25.6733 C   0  0  0  0  0  0  0  0  0  0  0  0
    8.9370  -17.3556   23.3050 C   0  0  0  0  0  0  0  0  0  0  0  0
    9.3034  -18.4740   23.7406 O   0  0  0  0  0  0  0  0  0  0  0  0
   10.7491  -15.4041   20.5511 O   0  0  0  0  0  0  0  0  0  0  0  0
   11.2161  -16.7022   20.4076 C   0  0  0  0  0  0  0  0  0  0  0  0
   10.8402  -17.4464   21.6984 C   0  0  2  0  0  0  0  0  0  0  0  0
    9.6510  -16.8073   22.1964 N   0  0  0  0  0  0  0  0  0  0  0  0
   12.0043  -17.2296   22.6175 C   0  0  0  0  0  0  0  0  0  0  0  0
   12.0323  -16.1373   23.2286 O   0  0  0  0  0  0  0  0  0  0  0  0
   13.0153  -18.1590   22.8109 N   0  0  0  0  0  0  0  0  0  0  0  0
   14.1606  -17.9771   23.7486 C   0  0  1  0  0  0  0  0  0  0  0  0
   14.6820  -19.3027   24.1094 C   0  0  0  0  0  0  0  0  0  0  0  0
   14.3270  -20.0700   25.2692 C   0  0  0  0  0  0  0  0  0  0  0  0
   13.5478  -21.3090   25.2708 C   0  0  0  0  0  0  0  0  0  0  0  0
   13.5775  -21.8111   26.7567 C   0  0  0  0  0  0  0  0  0  0  0  0
   12.8808  -23.0646   26.8655 N   0  0  0  0  0  0  0  0  0  0  0  0
   15.0706  -17.0943   22.9982 C   0  0  0  0  0  0  0  0  0  0  0  0
   16.0328  -16.3141   23.6539 O   0  0  0  0  0  0  0  0  0  0  0  0
   15.0470  -16.9842   21.7667 O   0  0  0  0  0  0  0  0  0  0  0  0
  2  1  1  1
  2 13  1  0
  2  3  1  0
  3  4  1  0
  4  5  2  0
  6  5  1  0
  7  6  1  0
  8  7  2  0
  9  8  1  0
 10  9  2  0
 10 11  1  0
 11 12  2  0
 12  7  1  0
 12  4  1  0
 13 14  2  0
 17 16  1  6
 16 15  1  0
 18 17  1  0
 18 13  1  0
 19 20  2  0
 19 17  1  0
 21 19  1  0
 22 28  1  0
 22 21  1  0
 22 23  1  6
 24 23  1  0
 25 24  1  0
 26 27  1  0
 26 25  1  0
 28 29  1  0
 30 28  2  0
M  END
$$$$
