WSK.pdb
     RDKit          3D

 30 31  0  0  1  0  0  0  0  0999 V2000
    6.9367  -17.4414   24.3337 N   0  0  0  0  0  0  0  0  0  0  0  0
    7.9434  -16.4421   24.0554 C   0  0  1  0  0  0  0  0  0  0  0  0
    8.3402  -15.8028   25.3798 C   0  0  0  0  0  0  0  0  0  0  0  0
    7.2354  -14.9446   25.8697 C   0  0  0  0  0  0  0  0  0  0  0  0
    6.1304  -15.3323   26.5990 C   0  0  0  0  0  0  0  0  0  0  0  0
    5.3632  -14.2607   26.8550 N   0  0  0  0  0  0  0  0  0  0  0  0
    5.9199  -13.1510   26.3168 C   0  0  0  0  0  0  0  0  0  0  0  0
    5.5390  -11.8284   26.2951 C   0  0  0  0  0  0  0  0  0  0  0  0
    6.3439  -10.9225   25.6459 C   0  0  0  0  0  0  0  0  0  0  0  0
    7.5201  -11.3148   25.0193 C   0  0  0  0  0  0  0  0  0  0  0  0
    7.8763  -12.6442   25.0572 C   0  0  0  0  0  0  0  0  0  0  0  0
    7.0932  -13.5790   25.6990 C   0  0  0  0  0  0  0  0  0  0  0  0
    9.0954  -17.0872   23.4044 C   0  0  0  0  0  0  0  0  0  0  0  0
    9.6173  -18.0956   23.9388 O   0  0  0  0  0  0  0  0  0  0  0  0
   10.5953  -15.2529   20.3471 O   0  0  0  0  0  0  0  0  0  0  0  0
   11.1072  -16.5408   20.2933 C   0  0  0  0  0  0  0  0  0  0  0  0
   10.9020  -17.1506   21.6887 C   0  0  2  0  0  0  0  0  0  0  0  0
    9.6586  -16.6176   22.1791 N   0  0  0  0  0  0  0  0  0  0  0  0
   12.0652  -16.6585   22.4959 C   0  0  0  0  0  0  0  0  0  0  0  0
   11.9890  -15.4823   22.9181 O   0  0  0  0  0  0  0  0  0  0  0  0
   13.1825  -17.4279   22.7837 N   0  0  0  0  0  0  0  0  0  0  0  0
   14.2877  -17.0045   23.6912 C   0  0  1  0  0  0  0  0  0  0  0  0
   14.5872  -18.1126   24.6085 C   0  0  0  0  0  0  0  0  0  0  0  0
   13.7223  -18.6283   25.6312 C   0  0  0  0  0  0  0  0  0  0  0  0
   14.0067  -19.7747   26.4957 C   0  0  0  0  0  0  0  0  0  0  0  0
   12.8555  -19.7813   27.5613 C   0  0  0  0  0  0  0  0  0  0  0  0
   13.0744  -20.8363   28.5140 N   0  0  0  0  0  0  0  0  0  0  0  0
   15.3584  -16.6167   22.7564 C   0  0  0  0  0  0  0  0  0  0  0  0
   15.2971  -16.9565   21.3981 O   0  0  0  0  0  0  0  0  0  0  0  0
   16.3614  -15.9800   23.0998 O   0  0  0  0  0  0  0  0  0  0  0  0
  2  1  1  1
  2 13  1  0
  2  3  1  0
  3  4  1  0
  4  5  2  0
  6  5  1  0
  7  6  1  0
  8  7  2  0
  9  8  1  0
 10  9  2  0
 10 11  1  0
 11 12  2  0
 12  7  1  0
 12  4  1  0
 13 14  2  0
 17 16  1  6
 16 15  1  0
 18 17  1  0
 18 13  1  0
 19 20  2  0
 19 17  1  0
 21 19  1  0
 22 28  1  0
 22 21  1  0
 22 23  1  1
 24 23  1  0
 25 24  1  0
 26 27  1  0
 26 25  1  0
 28 29  1  0
 30 28  2  0
M  END
$$$$
