DMD.pdb
     RDKit          3D

 25 24  0  0  1  0  0  0  0  0999 V2000
   30.6485  -10.7179  -19.1736 N   0  0  0  0  0  0  0  0  0  0  0  0
   30.0580  -10.3908  -17.8810 C   0  0  1  0  0  0  0  0  0  0  0  0
   30.1013   -8.8595  -17.7601 C   0  0  0  0  0  0  0  0  0  0  0  0
   31.5330   -8.5106  -17.6416 C   0  0  0  0  0  0  0  0  0  0  0  0
   32.0119   -7.4534  -18.1395 O   0  0  0  0  0  0  0  0  0  0  0  0
   28.6441  -10.8290  -17.8422 C   0  0  0  0  0  0  0  0  0  0  0  0
   27.9596  -10.9570  -18.8851 O   0  0  0  0  0  0  0  0  0  0  0  0
   32.4279   -9.3529  -16.9596 O   0  0  0  0  0  0  0  0  0  0  0  0
   26.7072  -16.2826  -15.8268 C   0  0  0  0  0  0  0  0  0  0  0  0
   26.0679  -15.2154  -14.4791 S   0  0  0  0  0  0  0  0  0  0  0  0
   25.6029  -13.5911  -15.2271 C   0  0  0  0  0  0  0  0  0  0  0  0
   26.8590  -12.8941  -15.6255 C   0  0  0  0  0  0  0  0  0  0  0  0
   26.7036  -11.6834  -16.4827 C   0  0  2  0  0  0  0  0  0  0  0  0
   28.0601  -11.1068  -16.5978 N   0  0  0  0  0  0  0  0  0  0  0  0
   25.8465  -10.6189  -15.9190 C   0  0  0  0  0  0  0  0  0  0  0  0
   26.2852   -9.8380  -14.9957 O   0  0  0  0  0  0  0  0  0  0  0  0
   24.5041  -10.3690  -16.3375 N   0  0  0  0  0  0  0  0  0  0  0  0
   23.7420   -9.3057  -15.7108 C   0  0  1  0  0  0  0  0  0  0  0  0
   23.0576   -8.4519  -16.7852 C   0  0  0  0  0  0  0  0  0  0  0  0
   22.2125   -7.3909  -16.2345 C   0  0  0  0  0  0  0  0  0  0  0  0
   22.6036   -6.5882  -15.3729 O   0  0  0  0  0  0  0  0  0  0  0  0
   22.7134   -9.7994  -14.7913 C   0  0  0  0  0  0  0  0  0  0  0  0
   22.3091   -8.9684  -13.7500 O   0  0  0  0  0  0  0  0  0  0  0  0
   20.9060   -7.2701  -16.6901 O   0  0  0  0  0  0  0  0  0  0  0  0
   22.1553  -10.9320  -14.8660 O   0  0  0  0  0  0  0  0  0  0  0  0
  2  1  1  6
  2  3  1  0
  2  6  1  0
  3  4  1  0
  4  8  1  0
  4  5  2  0
  6  7  2  0
 10 11  1  0
 10  9  1  0
 11 12  1  0
 13 12  1  1
 14  6  1  0
 14 13  1  0
 15 13  1  0
 15 16  2  0
 17 15  1  0
 18 17  1  0
 18 19  1  6
 20 19  1  0
 20 24  1  0
 21 20  2  0
 22 23  1  0
 22 18  1  0
 25 22  2  0
M  END
$$$$
