DMD.pdb
     RDKit          3D

 25 24  0  0  1  0  0  0  0  0999 V2000
   21.3995  -10.2436  -19.2942 N   0  0  0  0  0  0  0  0  0  0  0  0
   20.0781  -10.3677  -18.6901 C   0  0  1  0  0  0  0  0  0  0  0  0
   19.7959  -11.8736  -18.5714 C   0  0  0  0  0  0  0  0  0  0  0  0
   19.9097  -12.4087  -19.9448 C   0  0  0  0  0  0  0  0  0  0  0  0
   19.6865  -11.6984  -20.9648 O   0  0  0  0  0  0  0  0  0  0  0  0
   20.0826   -9.7783  -17.3317 C   0  0  0  0  0  0  0  0  0  0  0  0
   19.0955   -9.8718  -16.5639 O   0  0  0  0  0  0  0  0  0  0  0  0
   20.2773  -13.7463  -20.1708 O   0  0  0  0  0  0  0  0  0  0  0  0
   23.7053  -13.1281  -13.5667 C   0  0  0  0  0  0  0  0  0  0  0  0
   23.9259  -11.3400  -13.9102 S   0  0  0  0  0  0  0  0  0  0  0  0
   22.3287  -10.7005  -14.5842 C   0  0  0  0  0  0  0  0  0  0  0  0
   22.5193   -9.2621  -14.9263 C   0  0  0  0  0  0  0  0  0  0  0  0
   21.3472   -8.5609  -15.5255 C   0  0  2  0  0  0  0  0  0  0  0  0
   21.2288   -9.0962  -16.8985 N   0  0  0  0  0  0  0  0  0  0  0  0
   21.4924   -7.0961  -15.6620 C   0  0  0  0  0  0  0  0  0  0  0  0
   22.2660   -6.5900  -16.5567 O   0  0  0  0  0  0  0  0  0  0  0  0
   20.8078   -6.1459  -14.8445 N   0  0  0  0  0  0  0  0  0  0  0  0
   21.0311   -4.7275  -15.0504 C   0  0  1  0  0  0  0  0  0  0  0  0
   19.7386   -3.9505  -14.7722 C   0  0  0  0  0  0  0  0  0  0  0  0
   18.6317   -4.3276  -15.6530 C   0  0  0  0  0  0  0  0  0  0  0  0
   18.7690   -4.5292  -16.8696 O   0  0  0  0  0  0  0  0  0  0  0  0
   22.0892   -4.1812  -14.1964 C   0  0  0  0  0  0  0  0  0  0  0  0
   22.4915   -2.8654  -14.4087 O   0  0  0  0  0  0  0  0  0  0  0  0
   17.3606   -4.4662  -15.1104 O   0  0  0  0  0  0  0  0  0  0  0  0
   22.6745   -4.8138  -13.2706 O   0  0  0  0  0  0  0  0  0  0  0  0
  2  1  1  1
  2  3  1  0
  2  6  1  0
  3  4  1  0
  4  8  1  0
  4  5  2  0
  6  7  2  0
 10 11  1  0
 10  9  1  0
 11 12  1  0
 13 12  1  6
 14  6  1  0
 14 13  1  0
 15 13  1  0
 15 16  2  0
 17 15  1  0
 18 17  1  0
 18 19  1  1
 20 19  1  0
 20 24  1  0
 21 20  2  0
 22 23  1  0
 22 18  1  0
 25 22  2  0
M  END
$$$$
