DMD.pdb
     RDKit          3D

 25 24  0  0  1  0  0  0  0  0999 V2000
   21.4480  -12.3256  -18.7885 N   0  0  0  0  0  0  0  0  0  0  0  0
   20.3771  -12.1095  -17.8226 C   0  0  1  0  0  0  0  0  0  0  0  0
   19.9759  -13.4988  -17.3028 C   0  0  0  0  0  0  0  0  0  0  0  0
   18.9449  -13.9916  -18.2408 C   0  0  0  0  0  0  0  0  0  0  0  0
   17.9830  -13.2688  -18.6245 O   0  0  0  0  0  0  0  0  0  0  0  0
   20.8740  -11.3033  -16.6842 C   0  0  0  0  0  0  0  0  0  0  0  0
   20.1627  -11.0636  -15.6796 O   0  0  0  0  0  0  0  0  0  0  0  0
   18.9975  -15.3008  -18.7494 O   0  0  0  0  0  0  0  0  0  0  0  0
   26.9124  -11.1191  -14.7739 C   0  0  0  0  0  0  0  0  0  0  0  0
   26.8507   -9.6578  -15.8806 S   0  0  0  0  0  0  0  0  0  0  0  0
   25.0980   -9.0757  -15.9383 C   0  0  0  0  0  0  0  0  0  0  0  0
   24.2170  -10.2489  -15.6740 C   0  0  0  0  0  0  0  0  0  0  0  0
   22.7496   -9.9839  -15.6427 C   0  0  2  0  0  0  0  0  0  0  0  0
   22.1802  -10.7958  -16.7392 N   0  0  0  0  0  0  0  0  0  0  0  0
   22.3566   -8.5850  -15.9147 C   0  0  0  0  0  0  0  0  0  0  0  0
   22.3952   -8.1089  -17.1092 O   0  0  0  0  0  0  0  0  0  0  0  0
   21.9110   -7.6711  -14.9117 N   0  0  0  0  0  0  0  0  0  0  0  0
   21.5464   -6.3172  -15.2838 C   0  0  1  0  0  0  0  0  0  0  0  0
   20.0243   -6.1475  -15.2073 C   0  0  0  0  0  0  0  0  0  0  0  0
   19.5746   -4.7870  -15.5074 C   0  0  0  0  0  0  0  0  0  0  0  0
   19.6342   -4.2854  -16.6407 O   0  0  0  0  0  0  0  0  0  0  0  0
   22.1663   -5.2992  -14.4313 C   0  0  0  0  0  0  0  0  0  0  0  0
   22.1531   -3.9779  -14.8698 O   0  0  0  0  0  0  0  0  0  0  0  0
   19.0567   -4.0101  -14.4790 O   0  0  0  0  0  0  0  0  0  0  0  0
   22.7191   -5.5241  -13.3161 O   0  0  0  0  0  0  0  0  0  0  0  0
  2  1  1  6
  2  3  1  0
  2  6  1  0
  3  4  1  0
  4  8  1  0
  4  5  2  0
  6  7  2  0
 10 11  1  0
 10  9  1  0
 11 12  1  0
 13 12  1  6
 14  6  1  0
 14 13  1  0
 15 13  1  0
 15 16  2  0
 17 15  1  0
 18 17  1  0
 18 19  1  1
 20 19  1  0
 20 24  1  0
 21 20  2  0
 22 23  1  0
 22 18  1  0
 25 22  2  0
M  END
$$$$
