DMD.pdb
     RDKit          3D

 25 24  0  0  1  0  0  0  0  0999 V2000
   19.8275  -11.2701  -17.3141 N   0  0  0  0  0  0  0  0  0  0  0  0
   19.0257  -10.8249  -16.1802 C   0  0  1  0  0  0  0  0  0  0  0  0
   18.5581  -12.0964  -15.4548 C   0  0  0  0  0  0  0  0  0  0  0  0
   17.5829  -12.7362  -16.3632 C   0  0  0  0  0  0  0  0  0  0  0  0
   17.2343  -12.2086  -17.4563 O   0  0  0  0  0  0  0  0  0  0  0  0
   19.8583  -10.0283  -15.2502 C   0  0  0  0  0  0  0  0  0  0  0  0
   19.4769   -9.7520  -14.0880 O   0  0  0  0  0  0  0  0  0  0  0  0
   16.9996  -13.9738  -16.0411 O   0  0  0  0  0  0  0  0  0  0  0  0
   26.0505  -12.4457  -14.6509 C   0  0  0  0  0  0  0  0  0  0  0  0
   25.5366  -10.7910  -15.2523 S   0  0  0  0  0  0  0  0  0  0  0  0
   23.8027  -10.5041  -14.6817 C   0  0  0  0  0  0  0  0  0  0  0  0
   23.3768   -9.1610  -15.1684 C   0  0  0  0  0  0  0  0  0  0  0  0
   21.9845   -8.7439  -14.8336 C   0  0  2  0  0  0  0  0  0  0  0  0
   21.1095   -9.5724  -15.6902 N   0  0  0  0  0  0  0  0  0  0  0  0
   21.6572   -7.3362  -15.1443 C   0  0  0  0  0  0  0  0  0  0  0  0
   21.7138   -6.8964  -16.3519 O   0  0  0  0  0  0  0  0  0  0  0  0
   21.2591   -6.3742  -14.1667 N   0  0  0  0  0  0  0  0  0  0  0  0
   21.0669   -4.9902  -14.5566 C   0  0  1  0  0  0  0  0  0  0  0  0
   19.7152   -4.4852  -14.0375 C   0  0  0  0  0  0  0  0  0  0  0  0
   18.5679   -5.1056  -14.7022 C   0  0  0  0  0  0  0  0  0  0  0  0
   18.6185   -5.5747  -15.8498 O   0  0  0  0  0  0  0  0  0  0  0  0
   22.1154   -4.0992  -14.0525 C   0  0  0  0  0  0  0  0  0  0  0  0
   22.1686   -2.7998  -14.5496 O   0  0  0  0  0  0  0  0  0  0  0  0
   17.3574   -5.1748  -14.0245 O   0  0  0  0  0  0  0  0  0  0  0  0
   22.9868   -4.4165  -13.1925 O   0  0  0  0  0  0  0  0  0  0  0  0
  2  1  1  6
  2  3  1  0
  2  6  1  0
  3  4  1  0
  4  8  1  0
  4  5  2  0
  6  7  2  0
 10 11  1  0
 10  9  1  0
 11 12  1  0
 13 12  1  6
 14  6  1  0
 14 13  1  0
 15 13  1  0
 15 16  2  0
 17 15  1  0
 18 17  1  0
 18 19  1  1
 20 19  1  0
 20 24  1  0
 21 20  2  0
 22 23  1  0
 22 18  1  0
 25 22  2  0
M  END
$$$$
