DMD.pdb
     RDKit          3D

 25 24  0  0  1  0  0  0  0  0999 V2000
   27.4814  -19.8939  -15.1985 N   0  0  0  0  0  0  0  0  0  0  0  0
   26.7029  -21.0693  -15.5712 C   0  0  1  0  0  0  0  0  0  0  0  0
   27.7180  -22.1559  -15.9590 C   0  0  0  0  0  0  0  0  0  0  0  0
   28.3585  -21.6759  -17.2019 C   0  0  0  0  0  0  0  0  0  0  0  0
   27.6875  -21.3108  -18.2076 O   0  0  0  0  0  0  0  0  0  0  0  0
   25.9172  -21.5478  -14.4109 C   0  0  0  0  0  0  0  0  0  0  0  0
   25.2949  -22.6363  -14.4335 O   0  0  0  0  0  0  0  0  0  0  0  0
   29.7578  -21.6052  -17.3128 O   0  0  0  0  0  0  0  0  0  0  0  0
   27.7116  -21.1238   -8.3719 C   0  0  0  0  0  0  0  0  0  0  0  0
   26.1987  -20.0912   -8.2775 S   0  0  0  0  0  0  0  0  0  0  0  0
   25.0437  -20.6725   -9.5974 C   0  0  0  0  0  0  0  0  0  0  0  0
   25.7641  -20.6005  -10.9005 C   0  0  0  0  0  0  0  0  0  0  0  0
   25.0301  -21.1111  -12.0944 C   0  0  2  0  0  0  0  0  0  0  0  0
   25.8722  -20.7537  -13.2558 N   0  0  0  0  0  0  0  0  0  0  0  0
   23.7090  -20.4922  -12.3332 C   0  0  0  0  0  0  0  0  0  0  0  0
   23.6067  -19.2391  -12.6056 O   0  0  0  0  0  0  0  0  0  0  0  0
   22.4728  -21.2060  -12.2885 N   0  0  0  0  0  0  0  0  0  0  0  0
   21.2259  -20.4987  -12.5105 C   0  0  1  0  0  0  0  0  0  0  0  0
   21.0049  -20.2911  -14.0137 C   0  0  0  0  0  0  0  0  0  0  0  0
   21.1636  -21.5157  -14.8000 C   0  0  0  0  0  0  0  0  0  0  0  0
   21.1328  -22.6521  -14.3026 O   0  0  0  0  0  0  0  0  0  0  0  0
   20.0607  -21.2016  -11.9669 C   0  0  0  0  0  0  0  0  0  0  0  0
   18.8327  -20.5454  -11.9791 O   0  0  0  0  0  0  0  0  0  0  0  0
   21.3620  -21.4113  -16.1707 O   0  0  0  0  0  0  0  0  0  0  0  0
   20.0780  -22.3695  -11.4817 O   0  0  0  0  0  0  0  0  0  0  0  0
  2  1  1  1
  2  3  1  0
  2  6  1  0
  3  4  1  0
  4  8  1  0
  4  5  2  0
  6  7  2  0
 10 11  1  0
 10  9  1  0
 11 12  1  0
 13 12  1  1
 14  6  1  0
 14 13  1  0
 15 13  1  0
 15 16  2  0
 17 15  1  0
 18 17  1  0
 18 19  1  6
 20 19  1  0
 20 24  1  0
 21 20  2  0
 22 23  1  0
 22 18  1  0
 25 22  2  0
M  END
$$$$
