DMD.pdb
     RDKit          3D

 25 24  0  0  1  0  0  0  0  0999 V2000
   28.0502  -21.4392  -16.2914 N   0  0  0  0  0  0  0  0  0  0  0  0
   27.4993  -20.4768  -15.3442 C   0  0  1  0  0  0  0  0  0  0  0  0
   26.8543  -19.3632  -16.1841 C   0  0  0  0  0  0  0  0  0  0  0  0
   27.9741  -18.6821  -16.8679 C   0  0  0  0  0  0  0  0  0  0  0  0
   29.0317  -18.3512  -16.2622 O   0  0  0  0  0  0  0  0  0  0  0  0
   26.4486  -21.1179  -14.5210 C   0  0  0  0  0  0  0  0  0  0  0  0
   25.7416  -22.0562  -14.9594 O   0  0  0  0  0  0  0  0  0  0  0  0
   27.9041  -18.3739  -18.2374 O   0  0  0  0  0  0  0  0  0  0  0  0
   26.6562  -19.5412   -8.5154 C   0  0  0  0  0  0  0  0  0  0  0  0
   25.5025  -20.9408   -8.2435 S   0  0  0  0  0  0  0  0  0  0  0  0
   24.6876  -21.3137   -9.8594 C   0  0  0  0  0  0  0  0  0  0  0  0
   25.6345  -20.9370  -10.9474 C   0  0  0  0  0  0  0  0  0  0  0  0
   25.1875  -21.2151  -12.3429 C   0  0  2  0  0  0  0  0  0  0  0  0
   26.2440  -20.6557  -13.2128 N   0  0  0  0  0  0  0  0  0  0  0  0
   23.9270  -20.5547  -12.7435 C   0  0  0  0  0  0  0  0  0  0  0  0
   23.8454  -19.2725  -12.8086 O   0  0  0  0  0  0  0  0  0  0  0  0
   22.7312  -21.2566  -13.0857 N   0  0  0  0  0  0  0  0  0  0  0  0
   21.5517  -20.5139  -13.4872 C   0  0  1  0  0  0  0  0  0  0  0  0
   20.6912  -21.3693  -14.4249 C   0  0  0  0  0  0  0  0  0  0  0  0
   20.2300  -22.6176  -13.8148 C   0  0  0  0  0  0  0  0  0  0  0  0
   20.4637  -22.9253  -12.6357 O   0  0  0  0  0  0  0  0  0  0  0  0
   20.7214  -20.0958  -12.3544 C   0  0  0  0  0  0  0  0  0  0  0  0
   21.0315  -20.5956  -11.0925 O   0  0  0  0  0  0  0  0  0  0  0  0
   19.4964  -23.5098  -14.5863 O   0  0  0  0  0  0  0  0  0  0  0  0
   19.7343  -19.3085  -12.4288 O   0  0  0  0  0  0  0  0  0  0  0  0
  2  1  1  6
  2  3  1  0
  2  6  1  0
  3  4  1  0
  4  8  1  0
  4  5  2  0
  6  7  2  0
 10 11  1  0
 10  9  1  0
 11 12  1  0
 13 12  1  1
 14  6  1  0
 14 13  1  0
 15 13  1  0
 15 16  2  0
 17 15  1  0
 18 17  1  0
 18 19  1  6
 20 19  1  0
 20 24  1  0
 21 20  2  0
 22 23  1  0
 22 18  1  0
 25 22  2  0
M  END
$$$$
