DMD.pdb
     RDKit          3D

 25 24  0  0  1  0  0  0  0  0999 V2000
   18.2288  -11.7502  -15.7493 N   0  0  0  0  0  0  0  0  0  0  0  0
   18.9586  -10.7367  -16.5023 C   0  0  1  0  0  0  0  0  0  0  0  0
   17.9541   -9.6131  -16.8021 C   0  0  0  0  0  0  0  0  0  0  0  0
   16.9498  -10.2093  -17.7084 C   0  0  0  0  0  0  0  0  0  0  0  0
   15.7083  -10.0846  -17.5131 O   0  0  0  0  0  0  0  0  0  0  0  0
   20.0565  -10.1827  -15.6775 C   0  0  0  0  0  0  0  0  0  0  0  0
   19.8680   -9.7793  -14.5052 O   0  0  0  0  0  0  0  0  0  0  0  0
   17.3436  -10.9465  -18.8384 O   0  0  0  0  0  0  0  0  0  0  0  0
   27.8771  -10.7913  -15.3811 C   0  0  0  0  0  0  0  0  0  0  0  0
   26.2572  -11.1665  -16.1549 S   0  0  0  0  0  0  0  0  0  0  0  0
   24.9968  -10.0653  -15.3719 C   0  0  0  0  0  0  0  0  0  0  0  0
   23.6595  -10.4449  -15.9103 C   0  0  0  0  0  0  0  0  0  0  0  0
   22.5019   -9.6226  -15.4539 C   0  0  2  0  0  0  0  0  0  0  0  0
   21.3428  -10.1099  -16.2315 N   0  0  0  0  0  0  0  0  0  0  0  0
   22.6095   -8.1747  -15.7324 C   0  0  0  0  0  0  0  0  0  0  0  0
   23.3826   -7.4232  -15.0305 O   0  0  0  0  0  0  0  0  0  0  0  0
   21.8935   -7.5058  -16.7713 N   0  0  0  0  0  0  0  0  0  0  0  0
   22.0072   -6.0664  -16.9111 C   0  0  1  0  0  0  0  0  0  0  0  0
   22.2507   -5.7030  -18.3809 C   0  0  0  0  0  0  0  0  0  0  0  0
   22.3333   -4.2607  -18.6178 C   0  0  0  0  0  0  0  0  0  0  0  0
   22.2790   -3.4179  -17.7088 O   0  0  0  0  0  0  0  0  0  0  0  0
   20.8163   -5.3474  -16.4505 C   0  0  0  0  0  0  0  0  0  0  0  0
   19.7324   -6.0941  -15.9965 O   0  0  0  0  0  0  0  0  0  0  0  0
   22.4766   -3.8027  -19.9212 O   0  0  0  0  0  0  0  0  0  0  0  0
   20.6898   -4.0891  -16.4308 O   0  0  0  0  0  0  0  0  0  0  0  0
  2  1  1  1
  2  3  1  0
  2  6  1  0
  3  4  1  0
  4  8  1  0
  4  5  2  0
  6  7  2  0
 10 11  1  0
 10  9  1  0
 11 12  1  0
 13 12  1  6
 14  6  1  0
 14 13  1  0
 15 13  1  0
 15 16  2  0
 17 15  1  0
 18 17  1  0
 18 19  1  6
 20 19  1  0
 20 24  1  0
 21 20  2  0
 22 23  1  0
 22 18  1  0
 25 22  2  0
M  END
$$$$
