DMD.pdb
     RDKit          3D

 25 24  0  0  1  0  0  0  0  0999 V2000
   27.7492  -20.1567  -15.3147 N   0  0  0  0  0  0  0  0  0  0  0  0
   26.9447  -21.3281  -15.6421 C   0  0  1  0  0  0  0  0  0  0  0  0
   27.9331  -22.4335  -16.0451 C   0  0  0  0  0  0  0  0  0  0  0  0
   28.6984  -21.8859  -17.1852 C   0  0  0  0  0  0  0  0  0  0  0  0
   29.9533  -21.9999  -17.2708 O   0  0  0  0  0  0  0  0  0  0  0  0
   26.1921  -21.7779  -14.4487 C   0  0  0  0  0  0  0  0  0  0  0  0
   25.6196  -22.8927  -14.4058 O   0  0  0  0  0  0  0  0  0  0  0  0
   28.0497  -21.2095  -18.2326 O   0  0  0  0  0  0  0  0  0  0  0  0
   28.3146  -21.0908   -8.8587 C   0  0  0  0  0  0  0  0  0  0  0  0
   26.6977  -20.3743   -8.3729 S   0  0  0  0  0  0  0  0  0  0  0  0
   25.4589  -20.8784   -9.6479 C   0  0  0  0  0  0  0  0  0  0  0  0
   26.1369  -20.8653  -10.9754 C   0  0  0  0  0  0  0  0  0  0  0  0
   25.3047  -21.2551  -12.1502 C   0  0  2  0  0  0  0  0  0  0  0  0
   26.1219  -20.9253  -13.3373 N   0  0  0  0  0  0  0  0  0  0  0  0
   24.0370  -20.5094  -12.2987 C   0  0  0  0  0  0  0  0  0  0  0  0
   24.0250  -19.3176  -12.7829 O   0  0  0  0  0  0  0  0  0  0  0  0
   22.7574  -21.0288  -11.9346 N   0  0  0  0  0  0  0  0  0  0  0  0
   21.5858  -20.6599  -12.7063 C   0  0  1  0  0  0  0  0  0  0  0  0
   21.7725  -21.0781  -14.1697 C   0  0  0  0  0  0  0  0  0  0  0  0
   20.6400  -20.7213  -15.0261 C   0  0  0  0  0  0  0  0  0  0  0  0
   19.6267  -20.1408  -14.6069 O   0  0  0  0  0  0  0  0  0  0  0  0
   20.3514  -21.2716  -12.2068 C   0  0  0  0  0  0  0  0  0  0  0  0
   19.2199  -20.4686  -12.0912 O   0  0  0  0  0  0  0  0  0  0  0  0
   20.6913  -21.0468  -16.3754 O   0  0  0  0  0  0  0  0  0  0  0  0
   20.2270  -22.4838  -11.8679 O   0  0  0  0  0  0  0  0  0  0  0  0
  2  1  1  1
  2  3  1  0
  2  6  1  0
  3  4  1  0
  4  8  1  0
  4  5  2  0
  6  7  2  0
 10 11  1  0
 10  9  1  0
 11 12  1  0
 13 12  1  1
 14  6  1  0
 14 13  1  0
 15 13  1  0
 15 16  2  0
 17 15  1  0
 18 17  1  0
 18 19  1  6
 20 19  1  0
 20 24  1  0
 21 20  2  0
 22 23  1  0
 22 18  1  0
 25 22  2  0
M  END
$$$$
