DMD.pdb
     RDKit          3D

 25 24  0  0  1  0  0  0  0  0999 V2000
   20.0623  -13.0543  -16.5614 N   0  0  0  0  0  0  0  0  0  0  0  0
   20.4737  -11.7514  -17.0711 C   0  0  1  0  0  0  0  0  0  0  0  0
   19.1820  -10.9927  -17.4134 C   0  0  0  0  0  0  0  0  0  0  0  0
   18.6238  -11.6737  -18.6009 C   0  0  0  0  0  0  0  0  0  0  0  0
   19.2044  -11.6557  -19.7223 O   0  0  0  0  0  0  0  0  0  0  0  0
   21.1998  -11.0008  -16.0213 C   0  0  0  0  0  0  0  0  0  0  0  0
   20.8301  -11.0088  -14.8231 O   0  0  0  0  0  0  0  0  0  0  0  0
   17.4100  -12.3782  -18.5258 O   0  0  0  0  0  0  0  0  0  0  0  0
   27.4866  -12.7082  -14.9699 C   0  0  0  0  0  0  0  0  0  0  0  0
   26.7813  -11.2128  -15.7638 S   0  0  0  0  0  0  0  0  0  0  0  0
   25.0558  -11.0089  -15.1351 C   0  0  0  0  0  0  0  0  0  0  0  0
   24.5214   -9.7252  -15.6724 C   0  0  0  0  0  0  0  0  0  0  0  0
   23.0810   -9.4426  -15.4076 C   0  0  2  0  0  0  0  0  0  0  0  0
   22.3337  -10.2607  -16.3864 N   0  0  0  0  0  0  0  0  0  0  0  0
   22.6628   -8.0424  -15.6314 C   0  0  0  0  0  0  0  0  0  0  0  0
   22.2808   -7.6455  -16.7939 O   0  0  0  0  0  0  0  0  0  0  0  0
   22.6424   -7.0423  -14.6121 N   0  0  0  0  0  0  0  0  0  0  0  0
   22.0427   -5.7500  -14.8850 C   0  0  1  0  0  0  0  0  0  0  0  0
   20.5687   -5.9297  -15.2678 C   0  0  0  0  0  0  0  0  0  0  0  0
   19.8637   -4.6641  -15.4791 C   0  0  0  0  0  0  0  0  0  0  0  0
   20.2418   -3.8016  -16.2869 O   0  0  0  0  0  0  0  0  0  0  0  0
   22.1135   -4.8304  -13.7462 C   0  0  0  0  0  0  0  0  0  0  0  0
   22.3492   -5.3659  -12.4828 O   0  0  0  0  0  0  0  0  0  0  0  0
   18.7155   -4.4052  -14.7415 O   0  0  0  0  0  0  0  0  0  0  0  0
   21.9767   -3.5750  -13.8167 O   0  0  0  0  0  0  0  0  0  0  0  0
  2  1  1  1
  2  3  1  0
  2  6  1  0
  3  4  1  0
  4  8  1  0
  4  5  2  0
  6  7  2  0
 10 11  1  0
 10  9  1  0
 11 12  1  0
 13 12  1  6
 14  6  1  0
 14 13  1  0
 15 13  1  0
 15 16  2  0
 17 15  1  0
 18 17  1  0
 18 19  1  1
 20 19  1  0
 20 24  1  0
 21 20  2  0
 22 23  1  0
 22 18  1  0
 25 22  2  0
M  END
$$$$
