DMD.pdb
     RDKit          3D

 25 24  0  0  1  0  0  0  0  0999 V2000
   19.9872  -20.6548  -12.1557 N   0  0  0  0  0  0  0  0  0  0  0  0
   21.0107  -21.2851  -12.9814 C   0  0  1  0  0  0  0  0  0  0  0  0
   20.4320  -21.3649  -14.4027 C   0  0  0  0  0  0  0  0  0  0  0  0
   19.2399  -22.2330  -14.2982 C   0  0  0  0  0  0  0  0  0  0  0  0
   18.0653  -21.7765  -14.3812 O   0  0  0  0  0  0  0  0  0  0  0  0
   22.2286  -20.4433  -13.0126 C   0  0  0  0  0  0  0  0  0  0  0  0
   22.1697  -19.1921  -13.0723 O   0  0  0  0  0  0  0  0  0  0  0  0
   19.3701  -23.6185  -14.1013 O   0  0  0  0  0  0  0  0  0  0  0  0
   26.1331  -20.9290   -7.6648 C   0  0  0  0  0  0  0  0  0  0  0  0
   26.5279  -21.3866   -9.3964 S   0  0  0  0  0  0  0  0  0  0  0  0
   25.3659  -20.4622  -10.4962 C   0  0  0  0  0  0  0  0  0  0  0  0
   25.5778  -20.9411  -11.8919 C   0  0  0  0  0  0  0  0  0  0  0  0
   24.7423  -20.3001  -12.9481 C   0  0  2  0  0  0  0  0  0  0  0  0
   23.4816  -21.0719  -12.9743 N   0  0  0  0  0  0  0  0  0  0  0  0
   25.2980  -20.3660  -14.3165 C   0  0  0  0  0  0  0  0  0  0  0  0
   24.7873  -21.1504  -15.1991 O   0  0  0  0  0  0  0  0  0  0  0  0
   26.4091  -19.5894  -14.7656 N   0  0  0  0  0  0  0  0  0  0  0  0
   26.4056  -19.0387  -16.1077 C   0  0  1  0  0  0  0  0  0  0  0  0
   25.2497  -18.0425  -16.2593 C   0  0  0  0  0  0  0  0  0  0  0  0
   24.2261  -18.4791  -17.2106 C   0  0  0  0  0  0  0  0  0  0  0  0
   24.2807  -19.5581  -17.8208 O   0  0  0  0  0  0  0  0  0  0  0  0
   27.6534  -18.3513  -16.4511 C   0  0  0  0  0  0  0  0  0  0  0  0
   28.0080  -18.2652  -17.7947 O   0  0  0  0  0  0  0  0  0  0  0  0
   23.1377  -17.6505  -17.4513 O   0  0  0  0  0  0  0  0  0  0  0  0
   28.4448  -17.8230  -15.6179 O   0  0  0  0  0  0  0  0  0  0  0  0
  2  1  1  1
  2  3  1  0
  2  6  1  0
  3  4  1  0
  4  8  1  0
  4  5  2  0
  6  7  2  0
 10 11  1  0
 10  9  1  0
 11 12  1  0
 13 12  1  1
 14  6  1  0
 14 13  1  0
 15 13  1  0
 15 16  2  0
 17 15  1  0
 18 17  1  0
 18 19  1  1
 20 19  1  0
 20 24  1  0
 21 20  2  0
 22 23  1  0
 22 18  1  0
 25 22  2  0
M  END
$$$$
